45783515
  -OEChem-12032416273D

 58 62  0     1  0  0  0  0  0999 V2000
   -2.0843   -1.1728    2.0365 O   0  0  0  0  0  0  0  0  0  0  0  0
   -2.8576    1.5553   -1.9847 O   0  0  0  0  0  0  0  0  0  0  0  0
    7.8349    0.4674   -0.6089 O   0  0  0  0  0  0  0  0  0  0  0  0
   -4.1832   -0.7637   -0.7520 N   0  0  1  0  0  0  0  0  0  0  0  0
   -1.1750   -1.2823   -0.0076 N   0  0  0  0  0  0  0  0  0  0  0  0
    5.1215   -0.1452   -0.2069 N   0  0  0  0  0  0  0  0  0  0  0  0
   -0.7209   -0.8974    2.2015 N   0  0  0  0  0  0  0  0  0  0  0  0
    3.3680   -0.2514    1.3789 N   0  0  0  0  0  0  0  0  0  0  0  0
   -3.6781   -1.7096    0.2631 C   0  0  1  0  0  0  0  0  0  0  0  0
   -3.7911   -3.0940   -0.4018 C   0  0  0  0  0  0  0  0  0  0  0  0
   -4.4254   -2.8321   -1.7604 C   0  0  0  0  0  0  0  0  0  0  0  0
   -5.1389   -1.5086   -1.5719 C   0  0  0  0  0  0  0  0  0  0  0  0
   -4.7746    0.4366   -0.1748 C   0  0  0  0  0  0  0  0  0  0  0  0
   -2.2665   -1.3880    0.7072 C   0  0  0  0  0  0  0  0  0  0  0  0
   -3.7260    1.4315    0.2462 C   0  0  0  0  0  0  0  0  0  0  0  0
   -2.8170    1.9438   -0.6793 C   0  0  0  0  0  0  0  0  0  0  0  0
   -0.2533   -0.9803    0.9523 C   0  0  0  0  0  0  0  0  0  0  0  0
   -3.6696    1.8400    1.5787 C   0  0  0  0  0  0  0  0  0  0  0  0
    6.1193   -0.4849    0.8169 C   0  0  0  0  0  0  0  0  0  0  0  0
    5.5100    0.9313   -1.1247 C   0  0  0  0  0  0  0  0  0  0  0  0
    1.1284   -0.7690    0.6300 C   0  0  0  0  0  0  0  0  0  0  0  0
   -1.8515    2.8647   -0.2725 C   0  0  0  0  0  0  0  0  0  0  0  0
    3.7712   -0.3531    0.0926 C   0  0  0  0  0  0  0  0  0  0  0  0
    7.4822   -0.6807    0.1626 C   0  0  0  0  0  0  0  0  0  0  0  0
    6.9059    0.6605   -1.6749 C   0  0  0  0  0  0  0  0  0  0  0  0
   -2.7041    2.7609    1.9857 C   0  0  0  0  0  0  0  0  0  0  0  0
   -1.7950    3.2732    1.0601 C   0  0  0  0  0  0  0  0  0  0  0  0
    1.5811   -0.8648   -0.6813 C   0  0  0  0  0  0  0  0  0  0  0  0
    2.9264   -0.6544   -0.9635 C   0  0  0  0  0  0  0  0  0  0  0  0
    2.0536   -0.4626    1.6147 C   0  0  0  0  0  0  0  0  0  0  0  0
   -1.8905    2.1297   -2.8616 C   0  0  0  0  0  0  0  0  0  0  0  0
   -4.3318   -1.7180    1.1468 H   0  0  0  0  0  0  0  0  0  0  0  0
   -2.8339   -3.6146   -0.5128 H   0  0  0  0  0  0  0  0  0  0  0  0
   -4.4535   -3.7348    0.1932 H   0  0  0  0  0  0  0  0  0  0  0  0
   -3.6438   -2.7399   -2.5248 H   0  0  0  0  0  0  0  0  0  0  0  0
   -5.1037   -3.6355   -2.0623 H   0  0  0  0  0  0  0  0  0  0  0  0
   -5.3321   -1.0160   -2.5299 H   0  0  0  0  0  0  0  0  0  0  0  0
   -6.0918   -1.6610   -1.0495 H   0  0  0  0  0  0  0  0  0  0  0  0
   -5.3953    0.9464   -0.9253 H   0  0  0  0  0  0  0  0  0  0  0  0
   -5.4570    0.1945    0.6506 H   0  0  0  0  0  0  0  0  0  0  0  0
   -4.3691    1.4483    2.3123 H   0  0  0  0  0  0  0  0  0  0  0  0
    5.8454   -1.4053    1.3461 H   0  0  0  0  0  0  0  0  0  0  0  0
    6.1715    0.3320    1.5473 H   0  0  0  0  0  0  0  0  0  0  0  0
    5.5067    1.8781   -0.5707 H   0  0  0  0  0  0  0  0  0  0  0  0
    4.8131    1.0328   -1.9635 H   0  0  0  0  0  0  0  0  0  0  0  0
   -1.1126    3.3041   -0.9335 H   0  0  0  0  0  0  0  0  0  0  0  0
    7.4929   -1.5691   -0.4805 H   0  0  0  0  0  0  0  0  0  0  0  0
    8.2492   -0.8187    0.9313 H   0  0  0  0  0  0  0  0  0  0  0  0
    7.2462    1.5164   -2.2663 H   0  0  0  0  0  0  0  0  0  0  0  0
    6.9135   -0.2195   -2.3294 H   0  0  0  0  0  0  0  0  0  0  0  0
   -2.6591    3.0778    3.0235 H   0  0  0  0  0  0  0  0  0  0  0  0
   -1.0428    3.9892    1.3784 H   0  0  0  0  0  0  0  0  0  0  0  0
    0.9093   -1.1041   -1.5016 H   0  0  0  0  0  0  0  0  0  0  0  0
    3.2812   -0.7441   -1.9850 H   0  0  0  0  0  0  0  0  0  0  0  0
    1.7819   -0.3690    2.6619 H   0  0  0  0  0  0  0  0  0  0  0  0
   -2.0162    3.2143   -2.9476 H   0  0  0  0  0  0  0  0  0  0  0  0
   -0.8708    1.8476   -2.5776 H   0  0  0  0  0  0  0  0  0  0  0  0
   -2.0696    1.7097   -3.8569 H   0  0  0  0  0  0  0  0  0  0  0  0
  1  7  1  0  0  0  0
  1 14  1  0  0  0  0
  2 16  1  0  0  0  0
  2 31  1  0  0  0  0
  3 24  1  0  0  0  0
  3 25  1  0  0  0  0
  4  9  1  0  0  0  0
  4 12  1  0  0  0  0
  4 13  1  0  0  0  0
  5 14  2  0  0  0  0
  5 17  1  0  0  0  0
  6 19  1  0  0  0  0
  6 20  1  0  0  0  0
  6 23  1  0  0  0  0
  7 17  2  0  0  0  0
  8 23  2  0  0  0  0
  8 30  1  0  0  0  0
  9 10  1  0  0  0  0
  9 14  1  0  0  0  0
  9 32  1  0  0  0  0
 10 11  1  0  0  0  0
 10 33  1  0  0  0  0
 10 34  1  0  0  0  0
 11 12  1  0  0  0  0
 11 35  1  0  0  0  0
 11 36  1  0  0  0  0
 12 37  1  0  0  0  0
 12 38  1  0  0  0  0
 13 15  1  0  0  0  0
 13 39  1  0  0  0  0
 13 40  1  0  0  0  0
 15 16  1  0  0  0  0
 15 18  2  0  0  0  0
 16 22  2  0  0  0  0
 17 21  1  0  0  0  0
 18 26  1  0  0  0  0
 18 41  1  0  0  0  0
 19 24  1  0  0  0  0
 19 42  1  0  0  0  0
 19 43  1  0  0  0  0
 20 25  1  0  0  0  0
 20 44  1  0  0  0  0
 20 45  1  0  0  0  0
 21 28  1  0  0  0  0
 21 30  2  0  0  0  0
 22 27  1  0  0  0  0
 22 46  1  0  0  0  0
 23 29  1  0  0  0  0
 24 47  1  0  0  0  0
 24 48  1  0  0  0  0
 25 49  1  0  0  0  0
 25 50  1  0  0  0  0
 26 27  2  0  0  0  0
 26 51  1  0  0  0  0
 27 52  1  0  0  0  0
 28 29  2  0  0  0  0
 28 53  1  0  0  0  0
 29 54  1  0  0  0  0
 30 55  1  0  0  0  0
 31 56  1  0  0  0  0
 31 57  1  0  0  0  0
 31 58  1  0  0  0  0
M  END
> <PUBCHEM_COMPOUND_CID>
45783515

> <PUBCHEM_CONFORMER_RMSD>
1

> <PUBCHEM_CONFORMER_DIVERSEORDER>
1
27
76
26
41
69
18
98
22
9
104
105
23
35
111
3
90
101
70
25
96
82
78
24
61
44
60
30
39
65
106
86
112
87
28
59
14
99
42
103
66
92
52
20
8
107
10
55
49
21
2
63
31
89
114
46
73
84
113
72
95
109
34
75
102
37
91
97
79
47
94
5
53
16
71
36
32
45
67
58
13
6
43
80
68
93
100
48
54
62
17
74
83
29
51
108
85
7
15
88
64
33
19
77
110
11
12
50
4
57
40
81
56
38

> <PUBCHEM_MMFF94_PARTIAL_CHARGES>
36
1 -0.02
12 0.27
13 0.41
14 0.3
15 -0.14
16 0.08
17 0.46
18 -0.15
19 0.37
2 -0.36
20 0.37
21 0.05
22 -0.15
23 0.41
24 0.28
25 0.28
26 -0.15
27 -0.15
28 -0.15
29 -0.15
3 -0.56
30 0.16
31 0.28
4 -0.81
41 0.15
46 0.15
5 -0.57
51 0.15
52 0.15
53 0.15
54 0.15
55 0.15
6 -0.84
7 -0.41
8 -0.62
9 0.45

> <PUBCHEM_EFFECTIVE_ROTOR_COUNT>
8.2

> <PUBCHEM_PHARMACOPHORE_FEATURES>
10
1 2 acceptor
1 3 acceptor
1 4 cation
3 5 7 17 cation
3 6 8 23 cation
5 1 5 7 14 17 rings
5 4 9 10 11 12 rings
6 15 16 18 22 26 27 rings
6 3 6 19 20 24 25 rings
6 8 21 23 28 29 30 rings

> <PUBCHEM_HEAVY_ATOM_COUNT>
31

> <PUBCHEM_ATOM_DEF_STEREO_COUNT>
1

> <PUBCHEM_ATOM_UDEF_STEREO_COUNT>
0

> <PUBCHEM_BOND_DEF_STEREO_COUNT>
0

> <PUBCHEM_BOND_UDEF_STEREO_COUNT>
0

> <PUBCHEM_ISOTOPIC_ATOM_COUNT>
0

> <PUBCHEM_COMPONENT_COUNT>
1

> <PUBCHEM_CACTVS_TAUTO_COUNT>
1

> <PUBCHEM_CONFORMER_ID>
02BA99DB00000001

> <PUBCHEM_MMFF94_ENERGY>
88.9928

> <PUBCHEM_FEATURE_SELFOVERLAP>
50.749

> <PUBCHEM_SHAPE_FINGERPRINT>
10454371 7 18412833495059622196
10670039 82 18334009506379613722
107951 10 17273421557006326897
11101153 10 18268434714488101128
11477941 20 18341887532704483324
11578080 2 17915201034322940046
12082328 90 17989208127871848788
12107698 1 18411697729486092252
12655364 131 14925039628182905984
13761468 95 18046346327535175548
13782708 43 17561083644307249110
13947920 75 18408601461418016515
14068700 675 18340202002642630765
14713325 29 18202003196800297959
14856354 85 18131636694310395101
15183329 4 18040716953425133306
15461852 350 18202286914540786342
15876981 60 18338804510789925773
16992828 155 17970629593229014781
17686467 74 18193271017507792176
17980427 23 18113913666677608102
21236236 1 18261112967721134844
21927370 108 17822872981940044699
23557571 272 18201715167798270283
255183 451 17766832107171145703
4169191 19 17168720759977790844
469060 322 17604165761320988145
531348 171 18201163144062789198
57527585 103 17532964725216605163
7237137 82 18411698790105416560

> <PUBCHEM_SHAPE_MULTIPOLES>
595.45
16.25
3.21
2.12
37.61
1.14
-0.47
-2.36
-5.13
-6.61
-0.18
-1.06
0.67
-1.75

> <PUBCHEM_SHAPE_SELFOVERLAP>
1290.651

> <PUBCHEM_SHAPE_VOLUME>
325.7

> <PUBCHEM_COORDINATE_TYPE>
2
5
10

$$$$
