51136911
  -OEChem-12032416403D

 52 57  0     1  0  0  0  0  0999 V2000
   -2.4006   -1.9998    1.7638 O   0  0  0  0  0  0  0  0  0  0  0  0
   -0.2492    2.8271   -1.2760 O   0  0  0  0  0  0  0  0  0  0  0  0
    0.0556    3.5020    1.0173 O   0  0  0  0  0  0  0  0  0  0  0  0
   -4.3927   -0.4886   -0.9292 N   0  0  1  0  0  0  0  0  0  0  0  0
   -1.5930   -1.1797   -0.1576 N   0  0  0  0  0  0  0  0  0  0  0  0
   -1.0114   -1.9233    1.9263 N   0  0  0  0  0  0  0  0  0  0  0  0
    3.0822   -1.2241    1.1710 N   0  0  0  0  0  0  0  0  0  0  0  0
    6.6258    0.7125   -1.2793 N   0  0  0  0  0  0  0  0  0  0  0  0
    7.1175   -1.1110    0.2174 N   0  0  0  0  0  0  0  0  0  0  0  0
   -4.1116   -1.5245    0.0847 C   0  0  1  0  0  0  0  0  0  0  0  0
   -4.5564   -2.8447   -0.5713 C   0  0  0  0  0  0  0  0  0  0  0  0
   -5.1286   -2.4440   -1.9236 C   0  0  0  0  0  0  0  0  0  0  0  0
   -5.5075   -0.9891   -1.7336 C   0  0  0  0  0  0  0  0  0  0  0  0
   -4.6770    0.8187   -0.3514 C   0  0  0  0  0  0  0  0  0  0  0  0
   -2.6584   -1.5436    0.5102 C   0  0  0  0  0  0  0  0  0  0  0  0
   -3.4181    1.5394    0.0517 C   0  0  0  0  0  0  0  0  0  0  0  0
   -2.4389    1.8134   -0.9063 C   0  0  0  0  0  0  0  0  0  0  0  0
   -3.2400    1.9329    1.3896 C   0  0  0  0  0  0  0  0  0  0  0  0
   -0.6071   -1.4307    0.7517 C   0  0  0  0  0  0  0  0  0  0  0  0
   -1.3037    2.4778   -0.4898 C   0  0  0  0  0  0  0  0  0  0  0  0
   -2.0809    2.6049    1.7851 C   0  0  0  0  0  0  0  0  0  0  0  0
   -1.1295    2.8631    0.8198 C   0  0  0  0  0  0  0  0  0  0  0  0
    0.7736   -1.1794    0.4545 C   0  0  0  0  0  0  0  0  0  0  0  0
    0.6080    3.4760   -0.3145 C   0  0  0  0  0  0  0  0  0  0  0  0
    1.1588   -0.6675   -0.7796 C   0  0  0  0  0  0  0  0  0  0  0  0
    1.7649   -1.4384    1.3872 C   0  0  0  0  0  0  0  0  0  0  0  0
    2.5046   -0.4336   -1.0395 C   0  0  0  0  0  0  0  0  0  0  0  0
    3.4186   -0.7261   -0.0399 C   0  0  0  0  0  0  0  0  0  0  0  0
    4.8320   -0.5097   -0.2392 C   0  0  0  0  0  0  0  0  0  0  0  0
    5.3131    0.4835   -1.0675 C   0  0  0  0  0  0  0  0  0  0  0  0
    5.7898   -1.2840    0.3832 C   0  0  0  0  0  0  0  0  0  0  0  0
    7.4603   -0.1096   -0.6151 C   0  0  0  0  0  0  0  0  0  0  0  0
   -4.7326   -1.3725    0.9789 H   0  0  0  0  0  0  0  0  0  0  0  0
   -3.7476   -3.5737   -0.6916 H   0  0  0  0  0  0  0  0  0  0  0  0
   -5.3421   -3.3113    0.0354 H   0  0  0  0  0  0  0  0  0  0  0  0
   -4.3574   -2.5406   -2.6979 H   0  0  0  0  0  0  0  0  0  0  0  0
   -5.9811   -3.0655   -2.2128 H   0  0  0  0  0  0  0  0  0  0  0  0
   -5.5919   -0.4672   -2.6918 H   0  0  0  0  0  0  0  0  0  0  0  0
   -6.4627   -0.9114   -1.1988 H   0  0  0  0  0  0  0  0  0  0  0  0
   -5.1662    1.4585   -1.0995 H   0  0  0  0  0  0  0  0  0  0  0  0
   -5.3868    0.7484    0.4833 H   0  0  0  0  0  0  0  0  0  0  0  0
   -2.5601    1.5217   -1.9441 H   0  0  0  0  0  0  0  0  0  0  0  0
   -4.0031    1.7166    2.1332 H   0  0  0  0  0  0  0  0  0  0  0  0
   -1.9394    2.9091    2.8159 H   0  0  0  0  0  0  0  0  0  0  0  0
    1.5671    2.9461   -0.2861 H   0  0  0  0  0  0  0  0  0  0  0  0
    0.7849    4.5070   -0.6415 H   0  0  0  0  0  0  0  0  0  0  0  0
    0.4330   -0.4451   -1.5577 H   0  0  0  0  0  0  0  0  0  0  0  0
    1.5481   -1.8381    2.3734 H   0  0  0  0  0  0  0  0  0  0  0  0
    2.7913   -0.0520   -2.0135 H   0  0  0  0  0  0  0  0  0  0  0  0
    4.6640    1.1730   -1.5981 H   0  0  0  0  0  0  0  0  0  0  0  0
    5.5328   -2.1016    1.0501 H   0  0  0  0  0  0  0  0  0  0  0  0
    8.5205    0.0519   -0.7667 H   0  0  0  0  0  0  0  0  0  0  0  0
  1  6  1  0  0  0  0
  1 15  1  0  0  0  0
  2 20  1  0  0  0  0
  2 24  1  0  0  0  0
  3 22  1  0  0  0  0
  3 24  1  0  0  0  0
  4 10  1  0  0  0  0
  4 13  1  0  0  0  0
  4 14  1  0  0  0  0
  5 15  2  0  0  0  0
  5 19  1  0  0  0  0
  6 19  2  0  0  0  0
  7 26  1  0  0  0  0
  7 28  2  0  0  0  0
  8 30  2  0  0  0  0
  8 32  1  0  0  0  0
  9 31  1  0  0  0  0
  9 32  2  0  0  0  0
 10 11  1  0  0  0  0
 10 15  1  0  0  0  0
 10 33  1  0  0  0  0
 11 12  1  0  0  0  0
 11 34  1  0  0  0  0
 11 35  1  0  0  0  0
 12 13  1  0  0  0  0
 12 36  1  0  0  0  0
 12 37  1  0  0  0  0
 13 38  1  0  0  0  0
 13 39  1  0  0  0  0
 14 16  1  0  0  0  0
 14 40  1  0  0  0  0
 14 41  1  0  0  0  0
 16 17  2  0  0  0  0
 16 18  1  0  0  0  0
 17 20  1  0  0  0  0
 17 42  1  0  0  0  0
 18 21  2  0  0  0  0
 18 43  1  0  0  0  0
 19 23  1  0  0  0  0
 20 22  2  0  0  0  0
 21 22  1  0  0  0  0
 21 44  1  0  0  0  0
 23 25  1  0  0  0  0
 23 26  2  0  0  0  0
 24 45  1  0  0  0  0
 24 46  1  0  0  0  0
 25 27  2  0  0  0  0
 25 47  1  0  0  0  0
 26 48  1  0  0  0  0
 27 28  1  0  0  0  0
 27 49  1  0  0  0  0
 28 29  1  0  0  0  0
 29 30  1  0  0  0  0
 29 31  2  0  0  0  0
 30 50  1  0  0  0  0
 31 51  1  0  0  0  0
 32 52  1  0  0  0  0
M  END
> <PUBCHEM_COMPOUND_CID>
51136911

> <PUBCHEM_CONFORMER_RMSD>
0.8

> <PUBCHEM_CONFORMER_DIVERSEORDER>
1
189
24
105
51
140
5
128
119
166
195
52
55
168
156
187
165
25
77
73
157
143
10
134
4
133
181
40
102
125
50
182
176
6
106
90
14
122
164
61
135
27
169
175
139
170
117
82
69
185
193
19
43
129
16
147
107
118
17
137
13
18
48
86
127
23
183
130
2
49
138
76
145
123
126
192
113
71
153
103
3
38
20
94
104
148
91
194
163
99
184
180
167
174
22
132
58
36
12
177
89
41
159
114
179
162
120
95
190
110
151
70
46
63
146
101
37
100
15
79
39
88
160
136
171
21
28
66
149
109
78
92
97
121
124
62
191
81
65
158
85
116
80
53
67
111
108
64
84
152
96
172
178
142
115
161
7
47
44
93
173
74
11
87
98
154
150
54
186
75
112
56
33
68
45
30
59
35
72
188
8
32
131
31
60
57
141
9
29
42
34
155
83
26
144

> <PUBCHEM_MMFF94_PARTIAL_CHARGES>
38
1 -0.02
10 0.45
13 0.27
14 0.41
15 0.3
16 -0.14
17 -0.15
18 -0.15
19 0.46
2 -0.36
20 0.08
21 -0.15
22 0.08
23 0.05
24 0.56
25 -0.15
26 0.16
27 -0.15
28 0.31
3 -0.36
30 0.16
31 0.16
32 0.47
4 -0.81
42 0.15
43 0.15
44 0.15
47 0.15
48 0.15
49 0.15
5 -0.57
50 0.15
51 0.15
52 0.15
6 -0.41
7 -0.62
8 -0.62
9 -0.62

> <PUBCHEM_EFFECTIVE_ROTOR_COUNT>
6.6

> <PUBCHEM_PHARMACOPHORE_FEATURES>
13
1 2 acceptor
1 3 acceptor
1 4 cation
1 7 acceptor
1 8 acceptor
3 5 6 19 cation
3 8 9 32 cation
5 1 5 6 15 19 rings
5 2 3 20 22 24 rings
5 4 10 11 12 13 rings
6 16 17 18 20 21 22 rings
6 7 23 25 26 27 28 rings
6 8 9 29 30 31 32 rings

> <PUBCHEM_HEAVY_ATOM_COUNT>
32

> <PUBCHEM_ATOM_DEF_STEREO_COUNT>
1

> <PUBCHEM_ATOM_UDEF_STEREO_COUNT>
0

> <PUBCHEM_BOND_DEF_STEREO_COUNT>
0

> <PUBCHEM_BOND_UDEF_STEREO_COUNT>
0

> <PUBCHEM_ISOTOPIC_ATOM_COUNT>
0

> <PUBCHEM_COMPONENT_COUNT>
1

> <PUBCHEM_CACTVS_TAUTO_COUNT>
1

> <PUBCHEM_CONFORMER_ID>
030C498F00000001

> <PUBCHEM_MMFF94_ENERGY>
74.9622

> <PUBCHEM_FEATURE_SELFOVERLAP>
66.131

> <PUBCHEM_SHAPE_FINGERPRINT>
10454371 7 18341341024444721740
10670039 82 18408884015148871930
10871710 139 18189896422943520273
11578080 2 16914844456092893797
12107698 1 18343018925868683340
12156800 1 15075310921337016809
12166972 35 17895196665806523759
12645989 146 18342178843710118262
12788726 201 18334568006346243546
13782708 43 17489315157534753750
13947920 75 18411415090214593547
14068700 675 18202280346660363621
14394314 77 18188777141376130805
14931854 50 18187915180136091007
15183329 4 18187085015046260754
15297060 5 17988364759071109619
15876981 60 18410578409337083951
17492 54 18114732760149265749
17686467 74 18270111452914597954
18336668 15 18041005041807695405
20721686 56 18338515373987483272
20775438 99 17189506090508486759
21236236 1 18409453561818560330
21304303 64 17530965740358172709
21344244 246 17838044163517563903
22899556 105 17766845301173100655
23559900 14 18117271661077800781
255183 451 17981881158331277143
392239 28 18338807727868551800
4280585 95 18409720772924284805
484989 97 17897447418556244931
5171179 24 18200586029043442985
57527585 103 17752237009044640731
7471813 234 18269833280124224543

> <PUBCHEM_SHAPE_MULTIPOLES>
611.05
14.85
3.82
1.61
25.38
3.1
0.2
-7.38
-5.94
-4.29
0.45
-1.03
-0.22
-1.92

> <PUBCHEM_SHAPE_SELFOVERLAP>
1370.324

> <PUBCHEM_SHAPE_VOLUME>
322.4

> <PUBCHEM_COORDINATE_TYPE>
2
5
10

$$$$
