7155442
  -OEChem-12032416113D

 55 59  0     1  0  0  0  0  0999 V2000
    1.6299   -1.3967    1.5312 S   0  0  0  0  0  0  0  0  0  0  0  0
    1.9563   -2.7864    1.7727 O   0  0  0  0  0  0  0  0  0  0  0  0
    1.1662   -0.5433    2.6048 O   0  0  0  0  0  0  0  0  0  0  0  0
   -3.8804   -3.5556    0.2762 O   0  0  0  0  0  0  0  0  0  0  0  0
    6.3502    1.1629   -0.9065 O   0  0  0  0  0  0  0  0  0  0  0  0
    0.5278   -1.2988    0.2262 N   0  0  2  0  0  0  0  0  0  0  0  0
   -2.5046   -1.8065   -0.4548 N   0  0  0  0  0  0  0  0  0  0  0  0
   -0.4156   -2.2446   -1.8757 C   0  0  1  0  0  0  0  0  0  0  0  0
   -0.9883    0.0493   -1.2148 C   0  0  2  0  0  0  0  0  0  0  0  0
   -0.6638   -0.8437   -2.4099 C   0  0  0  0  0  0  0  0  0  0  0  0
    0.7647   -2.2539   -0.8922 C   0  0  0  0  0  0  0  0  0  0  0  0
    0.2177    0.0788   -0.2555 C   0  0  0  0  0  0  0  0  0  0  0  0
   -1.7068   -2.7600   -1.2380 C   0  0  0  0  0  0  0  0  0  0  0  0
   -2.2502   -0.4209   -0.4858 C   0  0  0  0  0  0  0  0  0  0  0  0
   -3.1013    0.4370    0.1351 C   0  0  0  0  0  0  0  0  0  0  0  0
   -3.6036   -2.3566    0.2289 C   0  0  0  0  0  0  0  0  0  0  0  0
   -4.2434   -0.0945    0.8543 C   0  0  0  0  0  0  0  0  0  0  0  0
   -4.4946   -1.4014    0.9255 C   0  0  0  0  0  0  0  0  0  0  0  0
    3.0432   -0.6305    0.8010 C   0  0  0  0  0  0  0  0  0  0  0  0
   -2.8872    1.9006    0.1126 C   0  0  0  0  0  0  0  0  0  0  0  0
    3.2085    0.7397    0.9200 C   0  0  0  0  0  0  0  0  0  0  0  0
    3.9630   -1.4121    0.1215 C   0  0  0  0  0  0  0  0  0  0  0  0
   -2.1177    2.5016    1.1041 C   0  0  0  0  0  0  0  0  0  0  0  0
   -3.4561    2.6667   -0.9004 C   0  0  0  0  0  0  0  0  0  0  0  0
    4.3250    1.3453    0.3432 C   0  0  0  0  0  0  0  0  0  0  0  0
    5.0795   -0.8066   -0.4553 C   0  0  0  0  0  0  0  0  0  0  0  0
   -1.9152    3.8816    1.0827 C   0  0  0  0  0  0  0  0  0  0  0  0
   -3.2537    4.0466   -0.9219 C   0  0  0  0  0  0  0  0  0  0  0  0
    5.2604    0.5721   -0.3444 C   0  0  0  0  0  0  0  0  0  0  0  0
   -2.4832    4.6540    0.0697 C   0  0  0  0  0  0  0  0  0  0  0  0
    6.4734    2.5761   -0.7544 C   0  0  0  0  0  0  0  0  0  0  0  0
   -0.1541   -2.9110   -2.7074 H   0  0  0  0  0  0  0  0  0  0  0  0
   -1.1302    1.0608   -1.6117 H   0  0  0  0  0  0  0  0  0  0  0  0
   -1.4899   -0.8432   -3.1320 H   0  0  0  0  0  0  0  0  0  0  0  0
    0.2232   -0.4723   -2.9378 H   0  0  0  0  0  0  0  0  0  0  0  0
    0.8916   -3.2682   -0.4996 H   0  0  0  0  0  0  0  0  0  0  0  0
    1.6768   -1.9779   -1.4317 H   0  0  0  0  0  0  0  0  0  0  0  0
    1.0757    0.4906   -0.7975 H   0  0  0  0  0  0  0  0  0  0  0  0
    0.0082    0.7285    0.5978 H   0  0  0  0  0  0  0  0  0  0  0  0
   -2.3731   -3.1112   -2.0383 H   0  0  0  0  0  0  0  0  0  0  0  0
   -1.5007   -3.6394   -0.6146 H   0  0  0  0  0  0  0  0  0  0  0  0
   -4.9042    0.6046    1.3585 H   0  0  0  0  0  0  0  0  0  0  0  0
   -5.3474   -1.7900    1.4693 H   0  0  0  0  0  0  0  0  0  0  0  0
    2.4912    1.3594    1.4494 H   0  0  0  0  0  0  0  0  0  0  0  0
    3.8395   -2.4859    0.0210 H   0  0  0  0  0  0  0  0  0  0  0  0
   -1.6752    1.9148    1.9051 H   0  0  0  0  0  0  0  0  0  0  0  0
   -4.0581    2.2069   -1.6801 H   0  0  0  0  0  0  0  0  0  0  0  0
    4.4034    2.4201    0.4666 H   0  0  0  0  0  0  0  0  0  0  0  0
    5.8045   -1.4138   -0.9904 H   0  0  0  0  0  0  0  0  0  0  0  0
   -1.3167    4.3547    1.8556 H   0  0  0  0  0  0  0  0  0  0  0  0
   -3.6956    4.6481   -1.7108 H   0  0  0  0  0  0  0  0  0  0  0  0
   -2.3257    5.7285    0.0530 H   0  0  0  0  0  0  0  0  0  0  0  0
    7.3960    2.8766   -1.2618 H   0  0  0  0  0  0  0  0  0  0  0  0
    6.5807    2.8597    0.2982 H   0  0  0  0  0  0  0  0  0  0  0  0
    5.6510    3.1070   -1.2457 H   0  0  0  0  0  0  0  0  0  0  0  0
  1  2  2  0  0  0  0
  1  3  2  0  0  0  0
  1  6  1  0  0  0  0
  1 19  1  0  0  0  0
  4 16  2  0  0  0  0
  5 29  1  0  0  0  0
  5 31  1  0  0  0  0
  6 11  1  0  0  0  0
  6 12  1  0  0  0  0
  7 13  1  0  0  0  0
  7 14  1  0  0  0  0
  7 16  1  0  0  0  0
  8 10  1  0  0  0  0
  8 11  1  0  0  0  0
  8 13  1  0  0  0  0
  8 32  1  0  0  0  0
  9 10  1  0  0  0  0
  9 12  1  0  0  0  0
  9 14  1  0  0  0  0
  9 33  1  0  0  0  0
 10 34  1  0  0  0  0
 10 35  1  0  0  0  0
 11 36  1  0  0  0  0
 11 37  1  0  0  0  0
 12 38  1  0  0  0  0
 12 39  1  0  0  0  0
 13 40  1  0  0  0  0
 13 41  1  0  0  0  0
 14 15  2  0  0  0  0
 15 17  1  0  0  0  0
 15 20  1  0  0  0  0
 16 18  1  0  0  0  0
 17 18  2  0  0  0  0
 17 42  1  0  0  0  0
 18 43  1  0  0  0  0
 19 21  2  0  0  0  0
 19 22  1  0  0  0  0
 20 23  2  0  0  0  0
 20 24  1  0  0  0  0
 21 25  1  0  0  0  0
 21 44  1  0  0  0  0
 22 26  2  0  0  0  0
 22 45  1  0  0  0  0
 23 27  1  0  0  0  0
 23 46  1  0  0  0  0
 24 28  2  0  0  0  0
 24 47  1  0  0  0  0
 25 29  2  0  0  0  0
 25 48  1  0  0  0  0
 26 29  1  0  0  0  0
 26 49  1  0  0  0  0
 27 30  2  0  0  0  0
 27 50  1  0  0  0  0
 28 30  1  0  0  0  0
 28 51  1  0  0  0  0
 30 52  1  0  0  0  0
 31 53  1  0  0  0  0
 31 54  1  0  0  0  0
 31 55  1  0  0  0  0
M  END
> <PUBCHEM_COMPOUND_CID>
7155442

> <PUBCHEM_CONFORMER_RMSD>
0.8

> <PUBCHEM_CONFORMER_DIVERSEORDER>
1
3
5
4
6
8
2
7

> <PUBCHEM_MMFF94_PARTIAL_CHARGES>
40
1 1.45
11 0.36
12 0.36
13 0.3
14 -0.03
15 -0.03
16 0.62
17 -0.15
18 -0.14
19 -0.01
2 -0.65
20 0.03
21 -0.15
22 -0.15
23 -0.15
24 -0.15
25 -0.15
26 -0.15
27 -0.15
28 -0.15
29 0.08
3 -0.65
30 -0.15
31 0.28
4 -0.57
42 0.15
43 0.15
44 0.15
45 0.15
46 0.15
47 0.15
48 0.15
49 0.15
5 -0.36
50 0.15
51 0.15
52 0.15
6 -0.85
7 -0.47
9 0.14

> <PUBCHEM_EFFECTIVE_ROTOR_COUNT>
5

> <PUBCHEM_PHARMACOPHORE_FEATURES>
9
1 2 acceptor
1 3 acceptor
1 4 acceptor
1 5 acceptor
6 19 21 22 25 26 29 rings
6 20 23 24 27 28 30 rings
6 6 8 9 10 11 12 rings
6 7 14 15 16 17 18 rings
6 7 8 9 10 13 14 rings

> <PUBCHEM_HEAVY_ATOM_COUNT>
31

> <PUBCHEM_ATOM_DEF_STEREO_COUNT>
2

> <PUBCHEM_ATOM_UDEF_STEREO_COUNT>
0

> <PUBCHEM_BOND_DEF_STEREO_COUNT>
0

> <PUBCHEM_BOND_UDEF_STEREO_COUNT>
0

> <PUBCHEM_ISOTOPIC_ATOM_COUNT>
0

> <PUBCHEM_COMPONENT_COUNT>
1

> <PUBCHEM_CACTVS_TAUTO_COUNT>
1

> <PUBCHEM_CONFORMER_ID>
006D2EF200000001

> <PUBCHEM_MMFF94_ENERGY>
88.8817

> <PUBCHEM_FEATURE_SELFOVERLAP>
47.275

> <PUBCHEM_SHAPE_FINGERPRINT>
10165383 225 17489038131743169467
10670039 82 18341894125853445484
10906281 52 18199188400321541429
11578080 2 17630066870778963465
12107183 9 17757825637675190610
12156800 1 15548595886286221353
12633257 1 17539961776354425827
12788726 201 18335131055110292874
13726171 33 18272381827913946776
13761468 95 17988380177835403600
13965767 371 17247532369796991661
13994607 96 18271233929400495245
14251751 93 18341894065365012280
14279260 333 18336826387089212106
14713325 29 18342747311873055546
14787075 74 17970628708359281618
14856354 85 18267871777414469790
14955137 171 17978797036345986791
15444296 121 17615403658798890666
15575132 122 18411419501193667797
17349148 13 11097845260157391626
21033650 10 18265359307930380844
21796203 349 17541978663386271451
22907989 373 18269819983074443597
22956985 138 17035302913312063195
392239 28 17968954117800918987
4098825 35 18340778109156942142
469060 322 16877939447418343116
474 4 17550092668267082029
5081480 168 16415193512191060696
550186 7 18201447990662167844
57527585 21 17986940861581042797
7808743 9 18411698742702767496
9981440 41 17983278345387879835

> <PUBCHEM_SHAPE_MULTIPOLES>
608.38
11.33
5.01
1.7
17.35
4.24
0.05
5.44
-0.55
-5.76
-0.31
0.12
-0.64
-0.59

> <PUBCHEM_SHAPE_SELFOVERLAP>
1325.251

> <PUBCHEM_SHAPE_VOLUME>
331

> <PUBCHEM_COORDINATE_TYPE>
2
5
10

$$$$
