11884550
  -OEChem-12032416403D

 60 64  0     1  0  0  0  0  0999 V2000
    1.0060    2.9065    1.8010 O   0  0  0  0  0  0  0  0  0  0  0  0
   -3.5876    0.1666    2.0648 O   0  0  0  0  0  0  0  0  0  0  0  0
   -3.1244   -2.0192    0.8825 O   0  0  0  0  0  0  0  0  0  0  0  0
    3.0852   -0.3804   -1.0597 O   0  0  0  0  0  0  0  0  0  0  0  0
   -3.5383    1.5144    0.1727 N   0  0  0  0  0  0  0  0  0  0  0  0
   -0.6607    2.9082    0.1632 N   0  0  0  0  0  0  0  0  0  0  0  0
    2.7781    1.5351    0.2104 N   0  0  0  0  0  0  0  0  0  0  0  0
    4.7343    0.3569    0.4389 N   0  0  0  0  0  0  0  0  0  0  0  0
   -2.9803    3.9202    0.5487 C   0  0  1  0  0  0  0  0  0  0  0  0
   -2.4507    2.8680   -1.6097 C   0  0  2  0  0  0  0  0  0  0  0  0
   -2.9796    4.1442   -0.9586 C   0  0  0  0  0  0  0  0  0  0  0  0
   -3.8810    2.7282    0.9164 C   0  0  0  0  0  0  0  0  0  0  0  0
   -1.5356    3.7183    1.0211 C   0  0  0  0  0  0  0  0  0  0  0  0
   -3.3901    1.6917   -1.2796 C   0  0  0  0  0  0  0  0  0  0  0  0
   -1.0449    2.5535   -1.1338 C   0  0  0  0  0  0  0  0  0  0  0  0
   -0.1839    1.9128   -1.9423 C   0  0  0  0  0  0  0  0  0  0  0  0
    0.6167    2.6000    0.6732 C   0  0  0  0  0  0  0  0  0  0  0  0
   -3.4605    0.2942    0.8443 C   0  0  0  0  0  0  0  0  0  0  0  0
    1.5372    1.8639   -0.2503 C   0  0  0  0  0  0  0  0  0  0  0  0
    1.1319    1.5613   -1.4882 C   0  0  0  0  0  0  0  0  0  0  0  0
   -3.1962   -0.9263   -0.0006 C   0  0  0  0  0  0  0  0  0  0  0  0
    3.5018    0.4155   -0.2208 C   0  0  0  0  0  0  0  0  0  0  0  0
   -3.4668   -3.2573    0.3861 C   0  0  0  0  0  0  0  0  0  0  0  0
   -3.2569   -3.5349   -0.9564 C   0  0  0  0  0  0  0  0  0  0  0  0
   -4.0160   -4.2043    1.2374 C   0  0  0  0  0  0  0  0  0  0  0  0
    5.7540   -0.6120    0.2904 C   0  0  0  0  0  0  0  0  0  0  0  0
   -3.6045   -4.7887   -1.4594 C   0  0  0  0  0  0  0  0  0  0  0  0
   -4.3636   -5.4581    0.7344 C   0  0  0  0  0  0  0  0  0  0  0  0
   -4.1577   -5.7501   -0.6140 C   0  0  0  0  0  0  0  0  0  0  0  0
    6.9135   -0.4964    1.0399 C   0  0  0  0  0  0  0  0  0  0  0  0
    5.5724   -1.6572   -0.6007 C   0  0  0  0  0  0  0  0  0  0  0  0
    7.9191   -1.4520    0.8939 C   0  0  0  0  0  0  0  0  0  0  0  0
    6.5779   -2.6128   -0.7464 C   0  0  0  0  0  0  0  0  0  0  0  0
    7.7513   -2.5102    0.0009 C   0  0  0  0  0  0  0  0  0  0  0  0
   -3.3848    4.8074    1.0516 H   0  0  0  0  0  0  0  0  0  0  0  0
   -2.4491    3.0148   -2.6977 H   0  0  0  0  0  0  0  0  0  0  0  0
   -3.9935    4.3648   -1.3139 H   0  0  0  0  0  0  0  0  0  0  0  0
   -2.3521    5.0050   -1.2216 H   0  0  0  0  0  0  0  0  0  0  0  0
   -3.8435    2.5452    1.9956 H   0  0  0  0  0  0  0  0  0  0  0  0
   -4.9240    2.9623    0.6691 H   0  0  0  0  0  0  0  0  0  0  0  0
   -1.0498    4.7011    1.0932 H   0  0  0  0  0  0  0  0  0  0  0  0
   -1.5174    3.2987    2.0350 H   0  0  0  0  0  0  0  0  0  0  0  0
   -3.0354    0.7802   -1.7661 H   0  0  0  0  0  0  0  0  0  0  0  0
   -4.3937    1.8903   -1.6759 H   0  0  0  0  0  0  0  0  0  0  0  0
   -0.4611    1.6209   -2.9499 H   0  0  0  0  0  0  0  0  0  0  0  0
    1.7584    1.0844   -2.2323 H   0  0  0  0  0  0  0  0  0  0  0  0
   -4.0265   -1.0206   -0.7112 H   0  0  0  0  0  0  0  0  0  0  0  0
   -2.2350   -0.8125   -0.5119 H   0  0  0  0  0  0  0  0  0  0  0  0
    3.0813    1.9790    1.0731 H   0  0  0  0  0  0  0  0  0  0  0  0
    4.9289    1.0998    1.1055 H   0  0  0  0  0  0  0  0  0  0  0  0
   -2.8064   -2.8212   -1.6392 H   0  0  0  0  0  0  0  0  0  0  0  0
   -4.1776   -3.9794    2.2875 H   0  0  0  0  0  0  0  0  0  0  0  0
   -3.4393   -5.0186   -2.5079 H   0  0  0  0  0  0  0  0  0  0  0  0
   -4.7941   -6.2069    1.3927 H   0  0  0  0  0  0  0  0  0  0  0  0
   -4.4270   -6.7269   -1.0052 H   0  0  0  0  0  0  0  0  0  0  0  0
    7.0543    0.3236    1.7385 H   0  0  0  0  0  0  0  0  0  0  0  0
    4.6957   -1.8062   -1.2134 H   0  0  0  0  0  0  0  0  0  0  0  0
    8.8327   -1.3723    1.4758 H   0  0  0  0  0  0  0  0  0  0  0  0
    6.4488   -3.4375   -1.4414 H   0  0  0  0  0  0  0  0  0  0  0  0
    8.5342   -3.2543   -0.1126 H   0  0  0  0  0  0  0  0  0  0  0  0
  1 17  2  0  0  0  0
  2 18  2  0  0  0  0
  3 21  1  0  0  0  0
  3 23  1  0  0  0  0
  4 22  2  0  0  0  0
  5 12  1  0  0  0  0
  5 14  1  0  0  0  0
  5 18  1  0  0  0  0
  6 13  1  0  0  0  0
  6 15  1  0  0  0  0
  6 17  1  0  0  0  0
  7 19  1  0  0  0  0
  7 22  1  0  0  0  0
  7 49  1  0  0  0  0
  8 22  1  0  0  0  0
  8 26  1  0  0  0  0
  8 50  1  0  0  0  0
  9 11  1  0  0  0  0
  9 12  1  0  0  0  0
  9 13  1  0  0  0  0
  9 35  1  0  0  0  0
 10 11  1  0  0  0  0
 10 14  1  0  0  0  0
 10 15  1  0  0  0  0
 10 36  1  0  0  0  0
 11 37  1  0  0  0  0
 11 38  1  0  0  0  0
 12 39  1  0  0  0  0
 12 40  1  0  0  0  0
 13 41  1  0  0  0  0
 13 42  1  0  0  0  0
 14 43  1  0  0  0  0
 14 44  1  0  0  0  0
 15 16  2  0  0  0  0
 16 20  1  0  0  0  0
 16 45  1  0  0  0  0
 17 19  1  0  0  0  0
 18 21  1  0  0  0  0
 19 20  2  0  0  0  0
 20 46  1  0  0  0  0
 21 47  1  0  0  0  0
 21 48  1  0  0  0  0
 23 24  2  0  0  0  0
 23 25  1  0  0  0  0
 24 27  1  0  0  0  0
 24 51  1  0  0  0  0
 25 28  2  0  0  0  0
 25 52  1  0  0  0  0
 26 30  2  0  0  0  0
 26 31  1  0  0  0  0
 27 29  2  0  0  0  0
 27 53  1  0  0  0  0
 28 29  1  0  0  0  0
 28 54  1  0  0  0  0
 29 55  1  0  0  0  0
 30 32  1  0  0  0  0
 30 56  1  0  0  0  0
 31 33  2  0  0  0  0
 31 57  1  0  0  0  0
 32 34  2  0  0  0  0
 32 58  1  0  0  0  0
 33 34  1  0  0  0  0
 33 59  1  0  0  0  0
 34 60  1  0  0  0  0
M  END
> <PUBCHEM_COMPOUND_CID>
11884550

> <PUBCHEM_CONFORMER_RMSD>
1

> <PUBCHEM_CONFORMER_DIVERSEORDER>
1
46
53
36
43
9
21
24
35
37
12
22
44
34
48
11
29
62
16
57
40
45
27
32
20
49
51
59
25
23
42
6
8
60
30
26
38
56
28
41
7
13
14
61
2
58
15
47
54
4
3
33
10
55
17
52
50
19
31
39
18
5

> <PUBCHEM_MMFF94_PARTIAL_CHARGES>
46
1 -0.57
10 0.14
12 0.3
13 0.3
14 0.3
15 -0.03
16 -0.15
17 0.62
18 0.57
19 0.12
2 -0.57
20 -0.15
21 0.34
22 0.69
23 0.08
24 -0.15
25 -0.15
26 0.12
27 -0.15
28 -0.15
29 -0.15
3 -0.36
30 -0.15
31 -0.15
32 -0.15
33 -0.15
34 -0.15
4 -0.57
45 0.15
46 0.15
49 0.37
5 -0.66
50 0.37
51 0.15
52 0.15
53 0.15
54 0.15
55 0.15
56 0.15
57 0.15
58 0.15
59 0.15
6 -0.47
60 0.15
7 -0.54
8 -0.55

> <PUBCHEM_EFFECTIVE_ROTOR_COUNT>
9

> <PUBCHEM_PHARMACOPHORE_FEATURES>
11
1 1 acceptor
1 2 acceptor
1 3 acceptor
1 4 acceptor
1 7 donor
1 8 donor
6 23 24 25 27 28 29 rings
6 26 30 31 32 33 34 rings
6 5 9 10 11 12 14 rings
6 6 15 16 17 19 20 rings
6 6 9 10 11 13 15 rings

> <PUBCHEM_HEAVY_ATOM_COUNT>
34

> <PUBCHEM_ATOM_DEF_STEREO_COUNT>
2

> <PUBCHEM_ATOM_UDEF_STEREO_COUNT>
0

> <PUBCHEM_BOND_DEF_STEREO_COUNT>
0

> <PUBCHEM_BOND_UDEF_STEREO_COUNT>
0

> <PUBCHEM_ISOTOPIC_ATOM_COUNT>
0

> <PUBCHEM_COMPONENT_COUNT>
1

> <PUBCHEM_CACTVS_TAUTO_COUNT>
3

> <PUBCHEM_CONFORMER_ID>
00B5580600000001

> <PUBCHEM_MMFF94_ENERGY>
106.4658

> <PUBCHEM_FEATURE_SELFOVERLAP>
57.454

> <PUBCHEM_SHAPE_FINGERPRINT>
10290309 65 17903924357354038311
10622 236 18188493600387651902
11069576 57 17540257974684612853
11135609 149 17764569307850724335
11524674 6 18191588545178733385
11607047 403 17763740297595433136
11801155 225 18118115880304548002
12202916 173 18060132090761348749
13947947 140 18199759200573463599
14659021 117 18340194220372750301
14674994 50 18337680723832821832
14844126 61 18335707117862509129
14856354 85 18341896239014655724
15064981 113 16883544564465636092
15183329 4 12468940650110009936
15320294 125 18115037289961769479
15803439 3 17463657959000077397
15876981 60 18333734645204698774
16993438 75 18340481179949351886
19303781 99 17895195562432841762
19311894 1 18410292493227155730
19315092 285 17412759671416410755
19611394 137 18201997699906563936
20771845 38 18124040027405049009
20775530 9 17978808014392554671
21360442 33 17545597216383336327
22956985 138 18123182678491743368
23466295 7 18409167731655646029
23523787 8 17537956392042157013
2838139 119 9151179740480437812
3383291 50 18339366254226814569
397830 11 18412252949168573408
4017518 198 18119524337186101693
4073 2 18269270167811196280
4144715 1 18342454808391708440
437795 96 18199475372313540478
44426695 248 16343418527096298606
44880168 125 18410014364367449275
4616759 239 18058714803240657818
484985 159 18335695014623452853
49967989 163 18340778027299297502
5080951 261 17969211262173116404
56633871 153 18265910210315985443
6058803 2 18117019838144768157
6441014 3 18266176308709363778

> <PUBCHEM_SHAPE_MULTIPOLES>
656.3
16.74
8.53
1.58
45.47
9.76
0.11
19.79
-2.88
-17.5
0.47
-0.98
-0.44
0.42

> <PUBCHEM_SHAPE_SELFOVERLAP>
1434.644

> <PUBCHEM_SHAPE_VOLUME>
346.6

> <PUBCHEM_COORDINATE_TYPE>
2
5
10

$$$$
