7143710
  -OEChem-12032416113D

 56 60  0     1  0  0  0  0  0999 V2000
    0.3678   -1.3247   -1.8747 O   0  0  0  0  0  0  0  0  0  0  0  0
   -3.5531    2.2533   -1.2250 O   0  0  0  0  0  0  0  0  0  0  0  0
   -1.7009    3.7724   -0.0415 O   0  0  0  0  0  0  0  0  0  0  0  0
   -4.0118    0.3079   -0.0402 N   0  0  0  0  0  0  0  0  0  0  0  0
   -1.4664   -1.5749   -0.4562 N   0  0  0  0  0  0  0  0  0  0  0  0
   -3.8598   -1.8249   -1.3310 C   0  0  1  0  0  0  0  0  0  0  0  0
   -3.4375   -1.8321    1.0913 C   0  0  2  0  0  0  0  0  0  0  0  0
   -4.0998   -2.6074   -0.0456 C   0  0  0  0  0  0  0  0  0  0  0  0
   -4.4703   -0.4163   -1.2273 C   0  0  0  0  0  0  0  0  0  0  0  0
   -2.3528   -1.7807   -1.6100 C   0  0  0  0  0  0  0  0  0  0  0  0
   -4.0946   -0.4439    1.2210 C   0  0  0  0  0  0  0  0  0  0  0  0
   -1.9478   -1.6751    0.8513 C   0  0  0  0  0  0  0  0  0  0  0  0
   -1.0987   -1.6036    1.8886 C   0  0  0  0  0  0  0  0  0  0  0  0
   -0.0990   -1.3834   -0.7357 C   0  0  0  0  0  0  0  0  0  0  0  0
   -3.6158    1.6404   -0.1563 C   0  0  0  0  0  0  0  0  0  0  0  0
    0.8228   -1.2698    0.4485 C   0  0  0  0  0  0  0  0  0  0  0  0
    0.3055   -1.3925    1.6800 C   0  0  0  0  0  0  0  0  0  0  0  0
   -3.2396    2.3470    1.1215 C   0  0  0  0  0  0  0  0  0  0  0  0
    2.2644   -1.0218    0.2726 C   0  0  0  0  0  0  0  0  0  0  0  0
   -2.8388    3.7731    0.8115 C   0  0  0  0  0  0  0  0  0  0  0  0
    2.7481    0.2866    0.2240 C   0  0  0  0  0  0  0  0  0  0  0  0
    3.1456   -2.0933    0.1552 C   0  0  0  0  0  0  0  0  0  0  0  0
    4.1195    0.5390    0.0570 C   0  0  0  0  0  0  0  0  0  0  0  0
    4.5114   -1.8611   -0.0108 C   0  0  0  0  0  0  0  0  0  0  0  0
    5.0144   -0.5508   -0.0620 C   0  0  0  0  0  0  0  0  0  0  0  0
    4.6224    1.8493    0.0063 C   0  0  0  0  0  0  0  0  0  0  0  0
    6.3859   -0.2983   -0.2290 C   0  0  0  0  0  0  0  0  0  0  0  0
   -1.2773    5.0941   -0.3457 C   0  0  0  0  0  0  0  0  0  0  0  0
    5.9880    2.0818   -0.1602 C   0  0  0  0  0  0  0  0  0  0  0  0
    6.8679    1.0100   -0.2777 C   0  0  0  0  0  0  0  0  0  0  0  0
   -4.3491   -2.3363   -2.1692 H   0  0  0  0  0  0  0  0  0  0  0  0
   -3.6063   -2.3838    2.0253 H   0  0  0  0  0  0  0  0  0  0  0  0
   -3.6805   -3.6184   -0.1240 H   0  0  0  0  0  0  0  0  0  0  0  0
   -5.1749   -2.7186    0.1405 H   0  0  0  0  0  0  0  0  0  0  0  0
   -4.2573    0.1557   -2.1367 H   0  0  0  0  0  0  0  0  0  0  0  0
   -5.5618   -0.4910   -1.1460 H   0  0  0  0  0  0  0  0  0  0  0  0
   -2.0490   -2.7417   -2.0475 H   0  0  0  0  0  0  0  0  0  0  0  0
   -2.1242   -1.0198   -2.3668 H   0  0  0  0  0  0  0  0  0  0  0  0
   -5.1614   -0.5537    1.4523 H   0  0  0  0  0  0  0  0  0  0  0  0
   -3.6480    0.1056    2.0526 H   0  0  0  0  0  0  0  0  0  0  0  0
   -1.4475   -1.6685    2.9140 H   0  0  0  0  0  0  0  0  0  0  0  0
    0.9264   -1.3177    2.5681 H   0  0  0  0  0  0  0  0  0  0  0  0
   -2.3885    1.8217    1.5687 H   0  0  0  0  0  0  0  0  0  0  0  0
   -4.0895    2.3388    1.8108 H   0  0  0  0  0  0  0  0  0  0  0  0
   -2.5884    4.2875    1.7468 H   0  0  0  0  0  0  0  0  0  0  0  0
   -3.6625    4.3153    0.3309 H   0  0  0  0  0  0  0  0  0  0  0  0
    2.0534    1.1209    0.3155 H   0  0  0  0  0  0  0  0  0  0  0  0
    2.7846   -3.1184    0.1902 H   0  0  0  0  0  0  0  0  0  0  0  0
    5.1809   -2.7140   -0.1005 H   0  0  0  0  0  0  0  0  0  0  0  0
    3.9530    2.7023    0.0960 H   0  0  0  0  0  0  0  0  0  0  0  0
    7.0921   -1.1208   -0.3228 H   0  0  0  0  0  0  0  0  0  0  0  0
   -2.0682    5.6394   -0.8696 H   0  0  0  0  0  0  0  0  0  0  0  0
   -0.4036    5.0331   -1.0002 H   0  0  0  0  0  0  0  0  0  0  0  0
   -0.9928    5.6260    0.5673 H   0  0  0  0  0  0  0  0  0  0  0  0
    6.3639    3.1001   -0.1980 H   0  0  0  0  0  0  0  0  0  0  0  0
    7.9309    1.1918   -0.4073 H   0  0  0  0  0  0  0  0  0  0  0  0
  1 14  2  0  0  0  0
  2 15  2  0  0  0  0
  3 20  1  0  0  0  0
  3 28  1  0  0  0  0
  4  9  1  0  0  0  0
  4 11  1  0  0  0  0
  4 15  1  0  0  0  0
  5 10  1  0  0  0  0
  5 12  1  0  0  0  0
  5 14  1  0  0  0  0
  6  8  1  0  0  0  0
  6  9  1  0  0  0  0
  6 10  1  0  0  0  0
  6 31  1  0  0  0  0
  7  8  1  0  0  0  0
  7 11  1  0  0  0  0
  7 12  1  0  0  0  0
  7 32  1  0  0  0  0
  8 33  1  0  0  0  0
  8 34  1  0  0  0  0
  9 35  1  0  0  0  0
  9 36  1  0  0  0  0
 10 37  1  0  0  0  0
 10 38  1  0  0  0  0
 11 39  1  0  0  0  0
 11 40  1  0  0  0  0
 12 13  2  0  0  0  0
 13 17  1  0  0  0  0
 13 41  1  0  0  0  0
 14 16  1  0  0  0  0
 15 18  1  0  0  0  0
 16 17  2  0  0  0  0
 16 19  1  0  0  0  0
 17 42  1  0  0  0  0
 18 20  1  0  0  0  0
 18 43  1  0  0  0  0
 18 44  1  0  0  0  0
 19 21  2  0  0  0  0
 19 22  1  0  0  0  0
 20 45  1  0  0  0  0
 20 46  1  0  0  0  0
 21 23  1  0  0  0  0
 21 47  1  0  0  0  0
 22 24  2  0  0  0  0
 22 48  1  0  0  0  0
 23 25  1  0  0  0  0
 23 26  2  0  0  0  0
 24 25  1  0  0  0  0
 24 49  1  0  0  0  0
 25 27  2  0  0  0  0
 26 29  1  0  0  0  0
 26 50  1  0  0  0  0
 27 30  1  0  0  0  0
 27 51  1  0  0  0  0
 28 52  1  0  0  0  0
 28 53  1  0  0  0  0
 28 54  1  0  0  0  0
 29 30  2  0  0  0  0
 29 55  1  0  0  0  0
 30 56  1  0  0  0  0
M  END
> <PUBCHEM_COMPOUND_CID>
7143710

> <PUBCHEM_CONFORMER_RMSD>
0.8

> <PUBCHEM_CONFORMER_DIVERSEORDER>
1
21
29
30
24
27
18
12
25
33
5
20
15
34
11
13
3
7
31
17
14
22
28
4
23
26
10
8
16
6
35
2
32
19
9

> <PUBCHEM_MMFF94_PARTIAL_CHARGES>
35
1 -0.57
10 0.3
11 0.3
12 -0.03
13 -0.15
14 0.62
15 0.57
16 -0.01
17 -0.15
18 0.06
19 0.03
2 -0.57
20 0.28
21 -0.15
22 -0.15
24 -0.15
26 -0.15
27 -0.15
28 0.28
29 -0.15
3 -0.56
30 -0.15
4 -0.66
41 0.15
42 0.15
47 0.15
48 0.15
49 0.15
5 -0.47
50 0.15
51 0.15
55 0.15
56 0.15
7 0.14
9 0.3

> <PUBCHEM_EFFECTIVE_ROTOR_COUNT>
6

> <PUBCHEM_PHARMACOPHORE_FEATURES>
8
1 1 acceptor
1 2 acceptor
1 3 acceptor
6 19 21 22 23 24 25 rings
6 23 25 26 27 29 30 rings
6 4 6 7 8 9 11 rings
6 5 12 13 14 16 17 rings
6 5 6 7 8 10 12 rings

> <PUBCHEM_HEAVY_ATOM_COUNT>
30

> <PUBCHEM_ATOM_DEF_STEREO_COUNT>
2

> <PUBCHEM_ATOM_UDEF_STEREO_COUNT>
0

> <PUBCHEM_BOND_DEF_STEREO_COUNT>
0

> <PUBCHEM_BOND_UDEF_STEREO_COUNT>
0

> <PUBCHEM_ISOTOPIC_ATOM_COUNT>
0

> <PUBCHEM_COMPONENT_COUNT>
1

> <PUBCHEM_CACTVS_TAUTO_COUNT>
1

> <PUBCHEM_CONFORMER_ID>
006D011E00000001

> <PUBCHEM_MMFF94_ENERGY>
86.2991

> <PUBCHEM_FEATURE_SELFOVERLAP>
42.198

> <PUBCHEM_SHAPE_FINGERPRINT>
100830 39 18409167684891216072
10087517 78 18410572899052674784
10165383 225 17418101984295299587
10291535 26 18334581260631000395
10670039 82 18412260653870319072
11477941 20 18129929191418084389
11524674 6 10953725725568968017
11578080 2 17559416672519358551
12107183 9 17905041452841766202
12236239 1 17775293802608158450
12788726 201 18334848425040561296
14251764 38 18340491062821677548
14251764 75 17693665814159081977
14394314 77 18410860924103172201
14713325 29 18343305847085834935
15183329 4 18273496788971115286
15419008 145 18335971005755511160
15876981 60 18336547243567255919
15961568 22 18412548742458323460
17844677 252 18410860953903556166
21236236 1 18410294718146899656
22907989 373 18060129900269732083
22956985 138 16817724963938609035
23516275 100 18053088816817307840
23569943 247 16589406620171145522
2838139 119 18411136961618455320
3493558 16 18335710420792891436
497634 4 17274548723401001131
5104073 3 17676202455747711418
5171179 24 17916573388022686792
531348 171 18201439147240615478
550186 7 18200878378892619556
6036956 94 18334020471131713869
6201320 215 18342731894138735312
6608658 132 18340764939784892924
6700243 42 17556613089535431679
7808743 9 18268990895293249041

> <PUBCHEM_SHAPE_MULTIPOLES>
589.82
13.86
4.5
1.39
21.23
7.32
0.02
2.42
-1.62
-4.41
0.01
-1.53
-0.6
-0.54

> <PUBCHEM_SHAPE_SELFOVERLAP>
1297.517

> <PUBCHEM_SHAPE_VOLUME>
311.9

> <PUBCHEM_COORDINATE_TYPE>
2
5
10

$$$$
