11867238
  -OEChem-12032416113D

 61 65  0     1  0  0  0  0  0999 V2000
    1.7374    1.9982    1.3602 S   0  0  0  0  0  0  0  0  0  0  0  0
    2.6870   -4.6504    0.9139 F   0  0  0  0  0  0  0  0  0  0  0  0
   -1.2722    2.7391    1.7526 O   0  0  0  0  0  0  0  0  0  0  0  0
   -3.2303   -2.1336    1.6229 O   0  0  0  0  0  0  0  0  0  0  0  0
    2.0997    2.9001    2.4372 O   0  0  0  0  0  0  0  0  0  0  0  0
    0.9671    0.8006    1.6379 O   0  0  0  0  0  0  0  0  0  0  0  0
    6.7360    0.3042   -1.2701 O   0  0  0  0  0  0  0  0  0  0  0  0
   -4.0209   -0.9729   -0.2161 N   0  0  0  0  0  0  0  0  0  0  0  0
   -2.6046    1.8782    0.0282 N   0  0  0  0  0  0  0  0  0  0  0  0
   -2.2370   -2.5014   -0.4397 N   0  0  0  0  0  0  0  0  0  0  0  0
    1.0034    2.8700    0.1087 N   0  0  0  0  0  0  0  0  0  0  0  0
   -5.0583    1.2313    0.3496 C   0  0  1  0  0  0  0  0  0  0  0  0
   -3.9929    0.9141   -1.8424 C   0  0  2  0  0  0  0  0  0  0  0  0
   -5.1926    1.5397   -1.1362 C   0  0  0  0  0  0  0  0  0  0  0  0
   -5.0429   -0.2888    0.5814 C   0  0  0  0  0  0  0  0  0  0  0  0
   -3.7941    1.9101    0.8882 C   0  0  0  0  0  0  0  0  0  0  0  0
   -4.0095   -0.6166   -1.6467 C   0  0  0  0  0  0  0  0  0  0  0  0
   -2.6880    1.4819   -1.3133 C   0  0  0  0  0  0  0  0  0  0  0  0
   -1.6131    1.5709   -2.1180 C   0  0  0  0  0  0  0  0  0  0  0  0
   -1.4040    2.3624    0.5887 C   0  0  0  0  0  0  0  0  0  0  0  0
   -3.1536   -1.8914    0.4156 C   0  0  0  0  0  0  0  0  0  0  0  0
   -0.2481    2.4134   -0.3413 C   0  0  0  0  0  0  0  0  0  0  0  0
   -0.3523    2.0504   -1.6201 C   0  0  0  0  0  0  0  0  0  0  0  0
   -0.9773   -3.0497   -0.0940 C   0  0  0  0  0  0  0  0  0  0  0  0
    3.2369    1.4902    0.5715 C   0  0  0  0  0  0  0  0  0  0  0  0
   -0.2225   -3.7118   -1.0584 C   0  0  0  0  0  0  0  0  0  0  0  0
   -0.5021   -2.9247    1.2087 C   0  0  0  0  0  0  0  0  0  0  0  0
    3.2654    0.2880   -0.1130 C   0  0  0  0  0  0  0  0  0  0  0  0
    4.3525    2.3044    0.6542 C   0  0  0  0  0  0  0  0  0  0  0  0
    1.0171   -4.2531   -0.7174 C   0  0  0  0  0  0  0  0  0  0  0  0
    0.7375   -3.4659    1.5495 C   0  0  0  0  0  0  0  0  0  0  0  0
    1.4971   -4.1301    0.5866 C   0  0  0  0  0  0  0  0  0  0  0  0
    4.4478   -0.1129   -0.7351 C   0  0  0  0  0  0  0  0  0  0  0  0
    5.5348    1.9037    0.0321 C   0  0  0  0  0  0  0  0  0  0  0  0
    5.5824    0.6949   -0.6624 C   0  0  0  0  0  0  0  0  0  0  0  0
    6.7144   -0.9424   -1.9637 C   0  0  0  0  0  0  0  0  0  0  0  0
   -5.9227    1.6390    0.8883 H   0  0  0  0  0  0  0  0  0  0  0  0
   -4.0797    1.1261   -2.9162 H   0  0  0  0  0  0  0  0  0  0  0  0
   -6.1287    1.1262   -1.5308 H   0  0  0  0  0  0  0  0  0  0  0  0
   -5.2231    2.6234   -1.3051 H   0  0  0  0  0  0  0  0  0  0  0  0
   -4.9171   -0.5028    1.6477 H   0  0  0  0  0  0  0  0  0  0  0  0
   -6.0080   -0.7174    0.2835 H   0  0  0  0  0  0  0  0  0  0  0  0
   -3.5263    1.5019    1.8709 H   0  0  0  0  0  0  0  0  0  0  0  0
   -4.0102    2.9746    1.0530 H   0  0  0  0  0  0  0  0  0  0  0  0
   -3.1624   -1.0508   -2.1800 H   0  0  0  0  0  0  0  0  0  0  0  0
   -4.9198   -1.0431   -2.0853 H   0  0  0  0  0  0  0  0  0  0  0  0
   -1.6532    1.2580   -3.1562 H   0  0  0  0  0  0  0  0  0  0  0  0
    0.4825    2.0851   -2.3120 H   0  0  0  0  0  0  0  0  0  0  0  0
   -2.4894   -2.6101   -1.4159 H   0  0  0  0  0  0  0  0  0  0  0  0
    1.6357    3.1268   -0.6627 H   0  0  0  0  0  0  0  0  0  0  0  0
   -0.5853   -3.8141   -2.0777 H   0  0  0  0  0  0  0  0  0  0  0  0
   -1.0262   -2.3898    1.9908 H   0  0  0  0  0  0  0  0  0  0  0  0
    2.3899   -0.3502   -0.1864 H   0  0  0  0  0  0  0  0  0  0  0  0
    4.3330    3.2520    1.1835 H   0  0  0  0  0  0  0  0  0  0  0  0
    1.6090   -4.7701   -1.4668 H   0  0  0  0  0  0  0  0  0  0  0  0
    1.1163   -3.3632    2.5622 H   0  0  0  0  0  0  0  0  0  0  0  0
    4.4144   -1.0622   -1.2588 H   0  0  0  0  0  0  0  0  0  0  0  0
    6.4152    2.5379    0.0904 H   0  0  0  0  0  0  0  0  0  0  0  0
    6.0124   -0.9232   -2.8043 H   0  0  0  0  0  0  0  0  0  0  0  0
    7.7135   -1.0952   -2.3851 H   0  0  0  0  0  0  0  0  0  0  0  0
    6.5235   -1.7787   -1.2826 H   0  0  0  0  0  0  0  0  0  0  0  0
  1  5  2  0  0  0  0
  1  6  2  0  0  0  0
  1 11  1  0  0  0  0
  1 25  1  0  0  0  0
  2 32  1  0  0  0  0
  3 20  2  0  0  0  0
  4 21  2  0  0  0  0
  7 35  1  0  0  0  0
  7 36  1  0  0  0  0
  8 15  1  0  0  0  0
  8 17  1  0  0  0  0
  8 21  1  0  0  0  0
  9 16  1  0  0  0  0
  9 18  1  0  0  0  0
  9 20  1  0  0  0  0
 10 21  1  0  0  0  0
 10 24  1  0  0  0  0
 10 49  1  0  0  0  0
 11 22  1  0  0  0  0
 11 50  1  0  0  0  0
 12 14  1  0  0  0  0
 12 15  1  0  0  0  0
 12 16  1  0  0  0  0
 12 37  1  0  0  0  0
 13 14  1  0  0  0  0
 13 17  1  0  0  0  0
 13 18  1  0  0  0  0
 13 38  1  0  0  0  0
 14 39  1  0  0  0  0
 14 40  1  0  0  0  0
 15 41  1  0  0  0  0
 15 42  1  0  0  0  0
 16 43  1  0  0  0  0
 16 44  1  0  0  0  0
 17 45  1  0  0  0  0
 17 46  1  0  0  0  0
 18 19  2  0  0  0  0
 19 23  1  0  0  0  0
 19 47  1  0  0  0  0
 20 22  1  0  0  0  0
 22 23  2  0  0  0  0
 23 48  1  0  0  0  0
 24 26  2  0  0  0  0
 24 27  1  0  0  0  0
 25 28  2  0  0  0  0
 25 29  1  0  0  0  0
 26 30  1  0  0  0  0
 26 51  1  0  0  0  0
 27 31  2  0  0  0  0
 27 52  1  0  0  0  0
 28 33  1  0  0  0  0
 28 53  1  0  0  0  0
 29 34  2  0  0  0  0
 29 54  1  0  0  0  0
 30 32  2  0  0  0  0
 30 55  1  0  0  0  0
 31 32  1  0  0  0  0
 31 56  1  0  0  0  0
 33 35  2  0  0  0  0
 33 57  1  0  0  0  0
 34 35  1  0  0  0  0
 34 58  1  0  0  0  0
 36 59  1  0  0  0  0
 36 60  1  0  0  0  0
 36 61  1  0  0  0  0
M  END
> <PUBCHEM_COMPOUND_CID>
11867238

> <PUBCHEM_CONFORMER_RMSD>
1

> <PUBCHEM_CONFORMER_DIVERSEORDER>
1
37
88
17
26
47
73
81
44
78
19
64
57
91
22
68
60
5
28
23
35
36
63
85
87
70
59
50
45
4
52
92
18
40
10
65
38
30
83
14
74
21
84
79
56
53
77
15
25
75
32
41
27
89
43
9
54
58
71
29
20
82
86
61
39
69
11
46
90
31
8
51
24
49
2
34
48
67
76
33
6
3
7
16
12
62
13
66
72
42
80
55

> <PUBCHEM_MMFF94_PARTIAL_CHARGES>
46
1 1.45
10 -0.55
11 -0.75
13 0.14
15 0.3
16 0.3
17 0.3
18 -0.03
19 -0.15
2 -0.19
20 0.62
21 0.69
22 0.21
23 -0.15
24 0.12
25 -0.01
26 -0.15
27 -0.15
28 -0.15
29 -0.15
3 -0.57
30 -0.15
31 -0.15
32 0.19
33 -0.15
34 -0.15
35 0.08
36 0.28
4 -0.57
47 0.15
48 0.15
49 0.37
5 -0.65
50 0.42
51 0.15
52 0.15
53 0.15
54 0.15
55 0.15
56 0.15
57 0.15
58 0.15
6 -0.65
7 -0.36
8 -0.66
9 -0.47

> <PUBCHEM_EFFECTIVE_ROTOR_COUNT>
8

> <PUBCHEM_PHARMACOPHORE_FEATURES>
12
1 10 donor
1 11 donor
1 3 acceptor
1 4 acceptor
1 5 acceptor
1 6 acceptor
1 7 acceptor
6 24 26 27 30 31 32 rings
6 25 28 29 33 34 35 rings
6 8 12 13 14 15 17 rings
6 9 12 13 14 16 18 rings
6 9 18 19 20 22 23 rings

> <PUBCHEM_HEAVY_ATOM_COUNT>
36

> <PUBCHEM_ATOM_DEF_STEREO_COUNT>
2

> <PUBCHEM_ATOM_UDEF_STEREO_COUNT>
0

> <PUBCHEM_BOND_DEF_STEREO_COUNT>
0

> <PUBCHEM_BOND_UDEF_STEREO_COUNT>
0

> <PUBCHEM_ISOTOPIC_ATOM_COUNT>
0

> <PUBCHEM_COMPONENT_COUNT>
1

> <PUBCHEM_CACTVS_TAUTO_COUNT>
2

> <PUBCHEM_CONFORMER_ID>
00B5146600000001

> <PUBCHEM_MMFF94_ENERGY>
100.8823

> <PUBCHEM_FEATURE_SELFOVERLAP>
62.487

> <PUBCHEM_SHAPE_FINGERPRINT>
10305334 12 17629219120774615272
11200772 71 17826530043745554052
11285246 1 17694184040743501199
11578080 2 17827354385192585509
12156800 1 17463738381735348403
13402501 40 18340491157173678366
14251757 5 18046071729164504678
14279260 333 17986959557910870494
14840074 17 17748827410396095093
14930077 153 17605858021464445732
15274700 242 17096905053855359832
15351339 4 18338517431203212018
15927050 60 18412255135116834399
16067689 68 14619686484653094510
17627616 140 18264490581495318290
19958102 18 18408040723989710454
20764821 26 18195498511716934106
20775530 9 16461909858368225411
21133410 230 17751951178971462651
21344244 181 18343305864413150542
22899556 105 18128230421096126831
23559900 14 18270956963638941296
3298306 158 18409719647516239607
373842 8 18192421975562592642
463206 1 17618220603409692594
469060 322 16878217670724813879
50150288 127 17129602153856919953
5080951 261 17755264054950817824
508706 21 18265044928281079615
5265222 85 18189342418811176932
57676310 188 18262810554310451998

> <PUBCHEM_SHAPE_MULTIPOLES>
688.17
12.35
5.75
1.9
12.11
7.44
0.08
-4.71
4.74
1.61
-1.61
0.07
-0.48
1.22

> <PUBCHEM_SHAPE_SELFOVERLAP>
1491.837

> <PUBCHEM_SHAPE_VOLUME>
379.2

> <PUBCHEM_COORDINATE_TYPE>
2
5
10

$$$$
