45783588
  -OEChem-12032416203D

 59 63  0     1  0  0  0  0  0999 V2000
    4.3629   -3.6936    0.0742 O   0  0  0  0  0  0  0  0  0  0  0  0
    2.0276    1.6582    1.9213 O   0  0  0  0  0  0  0  0  0  0  0  0
   -4.5615   -0.2446   -1.3126 O   0  0  0  0  0  0  0  0  0  0  0  0
    4.5382    0.4640   -0.4820 N   0  0  1  0  0  0  0  0  0  0  0  0
    1.6042    0.8967   -0.1420 N   0  0  0  0  0  0  0  0  0  0  0  0
    0.6415    1.4685    1.8530 N   0  0  0  0  0  0  0  0  0  0  0  0
   -3.2079    0.5108    0.4134 N   0  0  0  0  0  0  0  0  0  0  0  0
    4.8365   -0.8538    0.0732 C   0  0  0  0  0  0  0  0  0  0  0  0
    4.0155    1.4135    0.5208 C   0  0  1  0  0  0  0  0  0  0  0  0
    5.7202    1.0938   -1.0708 C   0  0  0  0  0  0  0  0  0  0  0  0
    4.4466    2.8001    0.0085 C   0  0  0  0  0  0  0  0  0  0  0  0
    5.2561    2.5250   -1.2508 C   0  0  0  0  0  0  0  0  0  0  0  0
    5.4182   -1.7839   -0.9962 C   0  0  0  0  0  0  0  0  0  0  0  0
    3.5743   -1.4753    0.6777 C   0  0  0  0  0  0  0  0  0  0  0  0
    5.5980   -3.1900   -0.4346 C   0  0  0  0  0  0  0  0  0  0  0  0
    3.8561   -2.8986    1.1463 C   0  0  0  0  0  0  0  0  0  0  0  0
    2.5170    1.2985    0.7058 C   0  0  0  0  0  0  0  0  0  0  0  0
   -5.6362   -0.0599   -0.3975 C   0  0  0  0  0  0  0  0  0  0  0  0
   -6.9011    0.3263   -1.1633 C   0  0  0  0  0  0  0  0  0  0  0  0
   -5.8399   -1.3353    0.4187 C   0  0  0  0  0  0  0  0  0  0  0  0
   -8.1061    0.4406   -0.2353 C   0  0  0  0  0  0  0  0  0  0  0  0
   -7.0448   -1.2212    1.3469 C   0  0  0  0  0  0  0  0  0  0  0  0
   -8.3083   -0.8331    0.5823 C   0  0  0  0  0  0  0  0  0  0  0  0
    0.4698    1.0183    0.6065 C   0  0  0  0  0  0  0  0  0  0  0  0
   -0.8199    0.6833    0.0787 C   0  0  0  0  0  0  0  0  0  0  0  0
   -3.3064    0.0624   -0.8583 C   0  0  0  0  0  0  0  0  0  0  0  0
   -0.9615    0.2189   -1.2244 C   0  0  0  0  0  0  0  0  0  0  0  0
   -2.2252   -0.0996   -1.7094 C   0  0  0  0  0  0  0  0  0  0  0  0
   -1.9639    0.8103    0.8498 C   0  0  0  0  0  0  0  0  0  0  0  0
    5.5838   -0.7570    0.8747 H   0  0  0  0  0  0  0  0  0  0  0  0
    4.5014    1.2554    1.4942 H   0  0  0  0  0  0  0  0  0  0  0  0
    6.5863    1.0584   -0.3979 H   0  0  0  0  0  0  0  0  0  0  0  0
    5.9963    0.6653   -2.0390 H   0  0  0  0  0  0  0  0  0  0  0  0
    3.6090    3.4725   -0.2067 H   0  0  0  0  0  0  0  0  0  0  0  0
    5.0851    3.2870    0.7557 H   0  0  0  0  0  0  0  0  0  0  0  0
    4.6112    2.6108   -2.1342 H   0  0  0  0  0  0  0  0  0  0  0  0
    6.0887    3.2248   -1.3681 H   0  0  0  0  0  0  0  0  0  0  0  0
    6.3903   -1.4341   -1.3594 H   0  0  0  0  0  0  0  0  0  0  0  0
    4.7345   -1.8292   -1.8540 H   0  0  0  0  0  0  0  0  0  0  0  0
    2.7771   -1.5142   -0.0749 H   0  0  0  0  0  0  0  0  0  0  0  0
    3.2179   -0.9300    1.5550 H   0  0  0  0  0  0  0  0  0  0  0  0
    6.3546   -3.2099    0.3586 H   0  0  0  0  0  0  0  0  0  0  0  0
    5.9322   -3.8672   -1.2271 H   0  0  0  0  0  0  0  0  0  0  0  0
    2.9304   -3.3654    1.4979 H   0  0  0  0  0  0  0  0  0  0  0  0
    4.5700   -2.9119    1.9784 H   0  0  0  0  0  0  0  0  0  0  0  0
   -5.4479    0.7821    0.2829 H   0  0  0  0  0  0  0  0  0  0  0  0
   -6.7410    1.2741   -1.6914 H   0  0  0  0  0  0  0  0  0  0  0  0
   -7.1007   -0.4187   -1.9445 H   0  0  0  0  0  0  0  0  0  0  0  0
   -4.9439   -1.5641    1.0072 H   0  0  0  0  0  0  0  0  0  0  0  0
   -5.9729   -2.1880   -0.2599 H   0  0  0  0  0  0  0  0  0  0  0  0
   -9.0068    0.6474   -0.8241 H   0  0  0  0  0  0  0  0  0  0  0  0
   -7.9658    1.2910    0.4432 H   0  0  0  0  0  0  0  0  0  0  0  0
   -6.8405   -0.4697    2.1195 H   0  0  0  0  0  0  0  0  0  0  0  0
   -7.2048   -2.1746    1.8629 H   0  0  0  0  0  0  0  0  0  0  0  0
   -9.1363   -0.6918    1.2861 H   0  0  0  0  0  0  0  0  0  0  0  0
   -8.5945   -1.6535   -0.0874 H   0  0  0  0  0  0  0  0  0  0  0  0
   -0.1060    0.0950   -1.8834 H   0  0  0  0  0  0  0  0  0  0  0  0
   -2.3530   -0.4632   -2.7231 H   0  0  0  0  0  0  0  0  0  0  0  0
   -1.9398    1.1651    1.8759 H   0  0  0  0  0  0  0  0  0  0  0  0
  1 15  1  0  0  0  0
  1 16  1  0  0  0  0
  2  6  1  0  0  0  0
  2 17  1  0  0  0  0
  3 18  1  0  0  0  0
  3 26  1  0  0  0  0
  4  8  1  0  0  0  0
  4  9  1  0  0  0  0
  4 10  1  0  0  0  0
  5 17  2  0  0  0  0
  5 24  1  0  0  0  0
  6 24  2  0  0  0  0
  7 26  2  0  0  0  0
  7 29  1  0  0  0  0
  8 13  1  0  0  0  0
  8 14  1  0  0  0  0
  8 30  1  0  0  0  0
  9 11  1  0  0  0  0
  9 17  1  0  0  0  0
  9 31  1  0  0  0  0
 10 12  1  0  0  0  0
 10 32  1  0  0  0  0
 10 33  1  0  0  0  0
 11 12  1  0  0  0  0
 11 34  1  0  0  0  0
 11 35  1  0  0  0  0
 12 36  1  0  0  0  0
 12 37  1  0  0  0  0
 13 15  1  0  0  0  0
 13 38  1  0  0  0  0
 13 39  1  0  0  0  0
 14 16  1  0  0  0  0
 14 40  1  0  0  0  0
 14 41  1  0  0  0  0
 15 42  1  0  0  0  0
 15 43  1  0  0  0  0
 16 44  1  0  0  0  0
 16 45  1  0  0  0  0
 18 19  1  0  0  0  0
 18 20  1  0  0  0  0
 18 46  1  0  0  0  0
 19 21  1  0  0  0  0
 19 47  1  0  0  0  0
 19 48  1  0  0  0  0
 20 22  1  0  0  0  0
 20 49  1  0  0  0  0
 20 50  1  0  0  0  0
 21 23  1  0  0  0  0
 21 51  1  0  0  0  0
 21 52  1  0  0  0  0
 22 23  1  0  0  0  0
 22 53  1  0  0  0  0
 22 54  1  0  0  0  0
 23 55  1  0  0  0  0
 23 56  1  0  0  0  0
 24 25  1  0  0  0  0
 25 27  1  0  0  0  0
 25 29  2  0  0  0  0
 26 28  1  0  0  0  0
 27 28  2  0  0  0  0
 27 57  1  0  0  0  0
 28 58  1  0  0  0  0
 29 59  1  0  0  0  0
M  END
> <PUBCHEM_COMPOUND_CID>
45783588

> <PUBCHEM_CONFORMER_RMSD>
1

> <PUBCHEM_CONFORMER_DIVERSEORDER>
1
77
9
22
84
87
67
31
5
97
27
48
85
71
11
61
45
89
39
72
49
15
76
58
83
3
33
24
88
55
28
13
64
43
53
59
26
95
6
37
94
44
2
80
30
91
16
19
69
47
90
52
17
29
86
41
21
78
62
32
54
68
18
79
75
60
23
96
50
74
40
93
38
98
25
36
70
57
81
10
65
8
4
73
20
92
82
56
14
63
34
51
12
35
42
46
7
66

> <PUBCHEM_MMFF94_PARTIAL_CHARGES>
23
1 -0.56
10 0.27
15 0.28
16 0.28
17 0.3
18 0.28
2 -0.02
24 0.46
25 0.05
26 0.39
27 -0.15
28 -0.15
29 0.16
3 -0.36
4 -0.81
5 -0.57
57 0.15
58 0.15
59 0.15
6 -0.41
7 -0.62
8 0.27
9 0.45

> <PUBCHEM_EFFECTIVE_ROTOR_COUNT>
8.4

> <PUBCHEM_PHARMACOPHORE_FEATURES>
8
1 1 acceptor
1 4 cation
3 5 6 24 cation
5 2 5 6 17 24 rings
5 4 9 10 11 12 rings
6 1 8 13 14 15 16 rings
6 18 19 20 21 22 23 rings
6 7 25 26 27 28 29 rings

> <PUBCHEM_HEAVY_ATOM_COUNT>
29

> <PUBCHEM_ATOM_DEF_STEREO_COUNT>
1

> <PUBCHEM_ATOM_UDEF_STEREO_COUNT>
0

> <PUBCHEM_BOND_DEF_STEREO_COUNT>
0

> <PUBCHEM_BOND_UDEF_STEREO_COUNT>
0

> <PUBCHEM_ISOTOPIC_ATOM_COUNT>
0

> <PUBCHEM_COMPONENT_COUNT>
1

> <PUBCHEM_CACTVS_TAUTO_COUNT>
1

> <PUBCHEM_CONFORMER_ID>
02BA9A2400000001

> <PUBCHEM_MMFF94_ENERGY>
52.5302

> <PUBCHEM_FEATURE_SELFOVERLAP>
40.599

> <PUBCHEM_SHAPE_FINGERPRINT>
10258705 36 18260842501121515131
10319926 262 14836402566938827815
10673678 19 17971202666741845988
11181472 205 18341058428445149517
11409948 35 18337951174504702647
117089 54 17769384824978135278
11796584 16 17131266994913315252
11828532 37 15575007190693877168
12516196 113 16443338806696857757
12730499 353 18260547866094788184
13533116 47 18341891896195453242
13617811 41 15864072057453113887
13782708 43 18335977593612727127
14118638 360 18343024384630373728
14347424 109 15913606181549607800
14675020 138 18269259314355383392
15183329 4 17346601893838820429
15301273 46 18040431089060073967
15352257 5 18261111898533410275
15537594 2 18130784598589842798
17134984 74 18186804656460484018
18335252 98 18187650249410119457
20567600 75 18260545620042981853
21304303 94 18335419067581220106
21344244 181 18114186323723255923
21859007 373 12966862191149441219
22033318 11 17845396387540924449
220451 1 18201154455622777437
2303208 19 18113053831636945439
23081809 10 17774714355647969141
23516275 137 18198367128838078651
23522609 53 17916048874259215457
23559900 14 18336261336479720137
25269216 80 15647919135410720531
27425 322 16226899998619070288
2838139 119 10159435197507387035
3004659 81 18343299233041479398
3014965 18 18342733001437722837
328310 630 11674872257255409743
3411729 13 15911898713428395336
3472631 163 15141253173846385684
34797466 226 17385444349096530133
4073 2 18267301126251714443
4093350 32 18041000704086113220
4098825 35 18261392209304834869
4144715 1 18113339730704855757
4149490 64 18334290994542108538
437795 51 18334579048902658347
439807 62 18410576145583564415
4435113 14 18262251005190953427
46194498 28 18040149613725005300
513532 50 16805318882426501102
54039377 194 18129667388177832894
57816373 69 9726821356205638868
70251023 43 18336545994137908504
9831232 110 18188202092241074827

> <PUBCHEM_SHAPE_MULTIPOLES>
559.27
22.33
2.97
1.45
38.03
2.13
0.09
6.68
-2.39
-8.36
0.28
0.22
-0.25
0.54

> <PUBCHEM_SHAPE_SELFOVERLAP>
1196.7

> <PUBCHEM_SHAPE_VOLUME>
307.4

> <PUBCHEM_COORDINATE_TYPE>
2
5
10

$$$$
