71693195
  -OEChem-12032416403D

 64 66  0     1  0  0  0  0  0999 V2000
    4.2176   -0.3775   -1.7644 O   0  0  0  0  0  0  0  0  0  0  0  0
   -7.1029   -1.3600   -0.3685 O   0  0  0  0  0  0  0  0  0  0  0  0
    4.6942   -5.1551   -0.1656 O   0  0  0  0  0  0  0  0  0  0  0  0
    4.3660   -3.9711    1.7445 O   0  0  0  0  0  0  0  0  0  0  0  0
    3.8398    0.8729    0.1604 N   0  0  0  0  0  0  0  0  0  0  0  0
   -2.8302    0.2233    1.4245 N   0  0  0  0  0  0  0  0  0  0  0  0
   -1.6265   -0.7569   -0.1660 N   0  0  0  0  0  0  0  0  0  0  0  0
    1.2183    1.9453   -0.8503 C   0  0  1  0  0  0  0  0  0  0  0  0
    2.3449    2.7699   -0.1789 C   0  0  1  0  0  0  0  0  0  0  0  0
   -0.1441    2.2974   -0.2338 C   0  0  0  0  0  0  0  0  0  0  0  0
   -0.1831    2.0326    1.2831 C   0  0  2  0  0  0  0  0  0  0  0  0
    1.1755    2.1687   -2.3651 C   0  0  0  0  0  0  0  0  0  0  0  0
    1.0405    2.5883    1.9834 C   0  0  0  0  0  0  0  0  0  0  0  0
    2.1561    2.9247    1.3119 C   0  0  0  0  0  0  0  0  0  0  0  0
    3.7215    2.1560   -0.4583 C   0  0  0  0  0  0  0  0  0  0  0  0
   -0.3532    0.5383    1.5788 C   0  0  0  0  0  0  0  0  0  0  0  0
    0.5290    0.9751   -3.0610 C   0  0  0  0  0  0  0  0  0  0  0  0
    0.4261    3.4564   -2.6920 C   0  0  0  0  0  0  0  0  0  0  0  0
    0.9362    2.7916    3.4693 C   0  0  0  0  0  0  0  0  0  0  0  0
   -1.5830   -0.0152    0.9180 C   0  0  0  0  0  0  0  0  0  0  0  0
    4.0810   -0.3067   -0.5459 C   0  0  0  0  0  0  0  0  0  0  0  0
   -3.7390   -0.4061    0.6131 C   0  0  0  0  0  0  0  0  0  0  0  0
   -2.9631   -1.0107   -0.3719 C   0  0  0  0  0  0  0  0  0  0  0  0
    4.1560   -1.5153    0.3696 C   0  0  0  0  0  0  0  0  0  0  0  0
   -5.1308   -0.4958    0.6550 C   0  0  0  0  0  0  0  0  0  0  0  0
   -3.5963   -1.7529   -1.3830 C   0  0  0  0  0  0  0  0  0  0  0  0
    4.4193   -2.8094   -0.3935 C   0  0  0  0  0  0  0  0  0  0  0  0
   -5.7444   -1.2383   -0.3592 C   0  0  0  0  0  0  0  0  0  0  0  0
   -4.9928   -1.8566   -1.3609 C   0  0  0  0  0  0  0  0  0  0  0  0
    4.4846   -4.0053    0.5276 C   0  0  0  0  0  0  0  0  0  0  0  0
   -7.8174   -0.7077    0.6787 C   0  0  0  0  0  0  0  0  0  0  0  0
    1.4017    0.8798   -0.6661 H   0  0  0  0  0  0  0  0  0  0  0  0
    2.3519    3.7861   -0.5929 H   0  0  0  0  0  0  0  0  0  0  0  0
   -0.9668    1.7976   -0.7518 H   0  0  0  0  0  0  0  0  0  0  0  0
   -0.3378    3.3735   -0.3414 H   0  0  0  0  0  0  0  0  0  0  0  0
   -1.0631    2.5671    1.6691 H   0  0  0  0  0  0  0  0  0  0  0  0
    2.1901    2.2559   -2.7671 H   0  0  0  0  0  0  0  0  0  0  0  0
    2.9873    3.3635    1.8606 H   0  0  0  0  0  0  0  0  0  0  0  0
    4.5101    2.7852   -0.0280 H   0  0  0  0  0  0  0  0  0  0  0  0
    3.9288    2.0854   -1.5294 H   0  0  0  0  0  0  0  0  0  0  0  0
   -0.4349    0.3649    2.6591 H   0  0  0  0  0  0  0  0  0  0  0  0
    0.5199   -0.0347    1.2434 H   0  0  0  0  0  0  0  0  0  0  0  0
    1.0810    0.0528   -2.8501 H   0  0  0  0  0  0  0  0  0  0  0  0
    0.5319    1.1182   -4.1472 H   0  0  0  0  0  0  0  0  0  0  0  0
   -0.5103    0.8259   -2.7524 H   0  0  0  0  0  0  0  0  0  0  0  0
    0.8024    4.3181   -2.1327 H   0  0  0  0  0  0  0  0  0  0  0  0
    0.5647    3.6931   -3.7543 H   0  0  0  0  0  0  0  0  0  0  0  0
   -0.6560    3.3747   -2.5451 H   0  0  0  0  0  0  0  0  0  0  0  0
    0.0766    3.4268    3.7066 H   0  0  0  0  0  0  0  0  0  0  0  0
    1.8271    3.2767    3.8824 H   0  0  0  0  0  0  0  0  0  0  0  0
    0.8153    1.8341    3.9844 H   0  0  0  0  0  0  0  0  0  0  0  0
    3.7996    0.8260    1.1746 H   0  0  0  0  0  0  0  0  0  0  0  0
   -3.0465    0.7672    2.2494 H   0  0  0  0  0  0  0  0  0  0  0  0
    4.9519   -1.3422    1.1042 H   0  0  0  0  0  0  0  0  0  0  0  0
    3.2099   -1.5876    0.9201 H   0  0  0  0  0  0  0  0  0  0  0  0
   -5.6542    0.0064    1.4580 H   0  0  0  0  0  0  0  0  0  0  0  0
   -3.0210   -2.2366   -2.1658 H   0  0  0  0  0  0  0  0  0  0  0  0
    5.3715   -2.7389   -0.9312 H   0  0  0  0  0  0  0  0  0  0  0  0
    3.6183   -2.9814   -1.1214 H   0  0  0  0  0  0  0  0  0  0  0  0
   -5.4925   -2.4288   -2.1391 H   0  0  0  0  0  0  0  0  0  0  0  0
   -8.8817   -0.9081    0.5169 H   0  0  0  0  0  0  0  0  0  0  0  0
   -7.6890    0.3794    0.6387 H   0  0  0  0  0  0  0  0  0  0  0  0
   -7.5617   -1.1211    1.6603 H   0  0  0  0  0  0  0  0  0  0  0  0
    4.7372   -5.9360    0.4265 H   0  0  0  0  0  0  0  0  0  0  0  0
  1 21  2  0  0  0  0
  2 28  1  0  0  0  0
  2 31  1  0  0  0  0
  3 30  1  0  0  0  0
  3 64  1  0  0  0  0
  4 30  2  0  0  0  0
  5 15  1  0  0  0  0
  5 21  1  0  0  0  0
  5 52  1  0  0  0  0
  6 20  1  0  0  0  0
  6 22  1  0  0  0  0
  6 53  1  0  0  0  0
  7 20  2  0  0  0  0
  7 23  1  0  0  0  0
  8  9  1  0  0  0  0
  8 10  1  0  0  0  0
  8 12  1  0  0  0  0
  8 32  1  0  0  0  0
  9 14  1  0  0  0  0
  9 15  1  0  0  0  0
  9 33  1  0  0  0  0
 10 11  1  0  0  0  0
 10 34  1  0  0  0  0
 10 35  1  0  0  0  0
 11 13  1  0  0  0  0
 11 16  1  0  0  0  0
 11 36  1  0  0  0  0
 12 17  1  0  0  0  0
 12 18  1  0  0  0  0
 12 37  1  0  0  0  0
 13 14  2  0  0  0  0
 13 19  1  0  0  0  0
 14 38  1  0  0  0  0
 15 39  1  0  0  0  0
 15 40  1  0  0  0  0
 16 20  1  0  0  0  0
 16 41  1  0  0  0  0
 16 42  1  0  0  0  0
 17 43  1  0  0  0  0
 17 44  1  0  0  0  0
 17 45  1  0  0  0  0
 18 46  1  0  0  0  0
 18 47  1  0  0  0  0
 18 48  1  0  0  0  0
 19 49  1  0  0  0  0
 19 50  1  0  0  0  0
 19 51  1  0  0  0  0
 21 24  1  0  0  0  0
 22 23  2  0  0  0  0
 22 25  1  0  0  0  0
 23 26  1  0  0  0  0
 24 27  1  0  0  0  0
 24 54  1  0  0  0  0
 24 55  1  0  0  0  0
 25 28  2  0  0  0  0
 25 56  1  0  0  0  0
 26 29  2  0  0  0  0
 26 57  1  0  0  0  0
 27 30  1  0  0  0  0
 27 58  1  0  0  0  0
 27 59  1  0  0  0  0
 28 29  1  0  0  0  0
 29 60  1  0  0  0  0
 31 61  1  0  0  0  0
 31 62  1  0  0  0  0
 31 63  1  0  0  0  0
M  END
> <PUBCHEM_COMPOUND_CID>
71693195

> <PUBCHEM_CONFORMER_RMSD>
1

> <PUBCHEM_CONFORMER_DIVERSEORDER>
1
65
126
140
122
73
123
164
14
50
83
69
186
85
47
170
63
61
103
39
176
111
59
190
72
82
88
167
125
108
166
175
86
23
22
134
177
157
192
87
118
5
76
114
70
92
173
93
31
43
147
104
193
81
97
119
74
161
90
102
189
184
44
53
79
121
132
36
156
46
116
135
91
98
133
148
52
136
54
128
179
154
149
152
60
169
58
172
163
145
62
109
89
32
4
124
115
6
137
2
96
78
160
185
71
127
138
95
139
33
28
112
27
35
158
155
45
182
168
130
49
29
106
151
94
105
75
37
187
84
117
3
25
171
100
11
67
146
150
113
51
68
107
34
153
101
12
55
48
131
10
120
178
144
20
188
165
57
77
66
19
13
15
41
80
181
142
64
159
42
38
24
17
141
183
8
26
143
30
174
191
56
180
40
7
162
129
18
9
99
16
110
21

> <PUBCHEM_MMFF94_PARTIAL_CHARGES>
33
1 -0.57
11 0.14
13 -0.28
14 -0.29
15 0.3
16 0.18
19 0.14
2 -0.36
20 0.01
21 0.57
22 -0.15
23 0.23
24 0.06
25 -0.15
26 -0.15
27 0.06
28 0.08
29 -0.15
3 -0.65
30 0.66
31 0.28
38 0.15
4 -0.57
5 -0.73
52 0.37
53 0.27
56 0.15
57 0.15
6 0.03
60 0.15
64 0.5
7 -0.57
9 0.14

> <PUBCHEM_EFFECTIVE_ROTOR_COUNT>
10.8

> <PUBCHEM_PHARMACOPHORE_FEATURES>
12
1 1 acceptor
1 2 acceptor
1 3 acceptor
1 4 acceptor
1 5 donor
1 6 donor
3 12 17 18 hydrophobe
3 3 4 30 anion
3 6 7 20 cation
5 6 7 20 22 23 rings
6 22 23 25 26 28 29 rings
6 8 9 10 11 13 14 rings

> <PUBCHEM_HEAVY_ATOM_COUNT>
31

> <PUBCHEM_ATOM_DEF_STEREO_COUNT>
3

> <PUBCHEM_ATOM_UDEF_STEREO_COUNT>
0

> <PUBCHEM_BOND_DEF_STEREO_COUNT>
0

> <PUBCHEM_BOND_UDEF_STEREO_COUNT>
0

> <PUBCHEM_ISOTOPIC_ATOM_COUNT>
0

> <PUBCHEM_COMPONENT_COUNT>
1

> <PUBCHEM_CACTVS_TAUTO_COUNT>
6

> <PUBCHEM_CONFORMER_ID>
0445F38B00000001

> <PUBCHEM_MMFF94_ENERGY>
62.6028

> <PUBCHEM_FEATURE_SELFOVERLAP>
61.06

> <PUBCHEM_SHAPE_FINGERPRINT>
10622 236 18193278486287822938
11069576 57 18408893927923004246
11135609 149 18263622052902305367
11796584 16 17273707657261596525
12617007 42 17168144597903581100
131258 38 18057873826858625438
13165053 137 14367722085819085171
13533116 47 18342177812442621993
14068700 675 18201449038998158064
15183329 4 17560533910337034001
17349148 13 16056332729479341697
18681886 176 15265948860040190608
19315092 285 18341052926564799178
20775530 9 18190470350938910338
21285901 2 17749380486477997012
23559900 14 16414355757556025369
25222932 49 16911432976760844023
3004659 81 16987451982645549985
345986 75 18130790019081053048
4073 2 17840865501854075993
4093350 32 17896602980076456149
484985 159 17472980602238615670
70251023 43 18115306657853362874
8509985 295 17775291615883943749

> <PUBCHEM_SHAPE_MULTIPOLES>
599.55
13.78
5.23
2.59
23.81
4.93
-0.31
15.41
0.15
-10.85
0.83
-1.13
-2.61
-1.53

> <PUBCHEM_SHAPE_SELFOVERLAP>
1256.521

> <PUBCHEM_SHAPE_VOLUME>
337.9

> <PUBCHEM_COORDINATE_TYPE>
2
5
10

$$$$
