71693987
  -OEChem-12032416293D

 40 41  0     1  0  0  0  0  0999 V2000
   -5.2636    0.0234    0.6741 F   0  0  0  0  0  0  0  0  0  0  0  0
   -4.4705    1.7739   -0.3313 F   0  0  0  0  0  0  0  0  0  0  0  0
   -4.8063   -0.0602   -1.4500 F   0  0  0  0  0  0  0  0  0  0  0  0
    3.9190   -1.9589   -1.1074 O   0  0  0  0  0  0  0  0  0  0  0  0
    1.6758   -3.5418   -1.0631 O   0  0  0  0  0  0  0  0  0  0  0  0
    1.1365    1.7420   -1.0118 O   0  0  0  0  0  0  0  0  0  0  0  0
    2.3049    4.0531   -0.2763 O   0  0  0  0  0  0  0  0  0  0  0  0
    2.5907    0.4747    0.2880 N   0  0  0  0  0  0  0  0  0  0  0  0
   -2.4194    0.3866    1.2088 N   0  0  0  0  0  0  0  0  0  0  0  0
    0.9872   -1.2704    1.0079 C   0  0  2  0  0  0  0  0  0  0  0  0
    2.0447   -0.8214   -0.0257 C   0  0  2  0  0  0  0  0  0  0  0  0
    3.1041   -1.9200    0.0489 C   0  0  1  0  0  0  0  0  0  0  0  0
    1.1716   -2.8023    1.1627 C   0  0  0  0  0  0  0  0  0  0  0  0
    2.2748   -3.1918    0.1808 C   0  0  1  0  0  0  0  0  0  0  0  0
   -0.4187   -0.8454    0.6398 C   0  0  0  0  0  0  0  0  0  0  0  0
   -1.0054   -1.2635   -0.5495 C   0  0  0  0  0  0  0  0  0  0  0  0
   -1.1609   -0.0284    1.4771 C   0  0  0  0  0  0  0  0  0  0  0  0
    2.0852    1.6565   -0.2369 C   0  0  0  0  0  0  0  0  0  0  0  0
   -2.2985   -0.8574   -0.8606 C   0  0  0  0  0  0  0  0  0  0  0  0
    2.8473    2.8658    0.2615 C   0  0  0  0  0  0  0  0  0  0  0  0
   -2.9568   -0.0399    0.0439 C   0  0  0  0  0  0  0  0  0  0  0  0
   -4.3456    0.4163   -0.2573 C   0  0  0  0  0  0  0  0  0  0  0  0
    3.0038    5.2091    0.1765 C   0  0  0  0  0  0  0  0  0  0  0  0
    1.2308   -0.8227    1.9827 H   0  0  0  0  0  0  0  0  0  0  0  0
    1.6409   -0.7713   -1.0445 H   0  0  0  0  0  0  0  0  0  0  0  0
    3.7468   -1.7860    0.9282 H   0  0  0  0  0  0  0  0  0  0  0  0
    1.5116   -3.0072    2.1857 H   0  0  0  0  0  0  0  0  0  0  0  0
    0.2462   -3.3654    1.0019 H   0  0  0  0  0  0  0  0  0  0  0  0
    2.8714   -4.0440    0.5194 H   0  0  0  0  0  0  0  0  0  0  0  0
    3.3466    0.5246    0.9653 H   0  0  0  0  0  0  0  0  0  0  0  0
    4.4996   -2.7350   -1.0292 H   0  0  0  0  0  0  0  0  0  0  0  0
    1.1301   -4.3324   -0.9123 H   0  0  0  0  0  0  0  0  0  0  0  0
   -0.4759   -1.9069   -1.2451 H   0  0  0  0  0  0  0  0  0  0  0  0
   -0.7600    0.3327    2.4190 H   0  0  0  0  0  0  0  0  0  0  0  0
   -2.7571   -1.1834   -1.7876 H   0  0  0  0  0  0  0  0  0  0  0  0
    2.7839    2.8889    1.3557 H   0  0  0  0  0  0  0  0  0  0  0  0
    3.8959    2.7631   -0.0411 H   0  0  0  0  0  0  0  0  0  0  0  0
    2.9365    5.2939    1.2653 H   0  0  0  0  0  0  0  0  0  0  0  0
    4.0518    5.1684   -0.1357 H   0  0  0  0  0  0  0  0  0  0  0  0
    2.5379    6.0899   -0.2732 H   0  0  0  0  0  0  0  0  0  0  0  0
  1 22  1  0  0  0  0
  2 22  1  0  0  0  0
  3 22  1  0  0  0  0
  4 12  1  0  0  0  0
  4 31  1  0  0  0  0
  5 14  1  0  0  0  0
  5 32  1  0  0  0  0
  6 18  2  0  0  0  0
  7 20  1  0  0  0  0
  7 23  1  0  0  0  0
  8 11  1  0  0  0  0
  8 18  1  0  0  0  0
  8 30  1  0  0  0  0
  9 17  1  0  0  0  0
  9 21  2  0  0  0  0
 10 11  1  0  0  0  0
 10 13  1  0  0  0  0
 10 15  1  0  0  0  0
 10 24  1  0  0  0  0
 11 12  1  0  0  0  0
 11 25  1  0  0  0  0
 12 14  1  0  0  0  0
 12 26  1  0  0  0  0
 13 14  1  0  0  0  0
 13 27  1  0  0  0  0
 13 28  1  0  0  0  0
 14 29  1  0  0  0  0
 15 16  1  0  0  0  0
 15 17  2  0  0  0  0
 16 19  2  0  0  0  0
 16 33  1  0  0  0  0
 17 34  1  0  0  0  0
 18 20  1  0  0  0  0
 19 21  1  0  0  0  0
 19 35  1  0  0  0  0
 20 36  1  0  0  0  0
 20 37  1  0  0  0  0
 21 22  1  0  0  0  0
 23 38  1  0  0  0  0
 23 39  1  0  0  0  0
 23 40  1  0  0  0  0
M  END
> <PUBCHEM_COMPOUND_CID>
71693987

> <PUBCHEM_CONFORMER_RMSD>
0.8

> <PUBCHEM_CONFORMER_DIVERSEORDER>
1
44
4
18
45
32
14
20
16
3
43
34
35
47
40
42
29
8
46
2
41
31
19
12
24
15
36
6
22
9
39
37
11
10
13
7
26
25
23
33
21
5
17
27
38
30
28

> <PUBCHEM_MMFF94_PARTIAL_CHARGES>
28
1 -0.34
10 0.14
11 0.3
12 0.28
14 0.28
15 -0.14
16 -0.15
17 0.16
18 0.57
19 -0.15
2 -0.34
20 0.34
21 0.17
22 1.16
23 0.28
3 -0.34
30 0.37
31 0.4
32 0.4
33 0.15
34 0.15
35 0.15
4 -0.68
5 -0.68
6 -0.57
7 -0.56
8 -0.73
9 -0.62

> <PUBCHEM_EFFECTIVE_ROTOR_COUNT>
7

> <PUBCHEM_PHARMACOPHORE_FEATURES>
10
1 4 acceptor
1 4 donor
1 5 acceptor
1 5 donor
1 6 acceptor
1 7 acceptor
1 8 donor
1 9 acceptor
5 10 11 12 13 14 rings
6 9 15 16 17 19 21 rings

> <PUBCHEM_HEAVY_ATOM_COUNT>
23

> <PUBCHEM_ATOM_DEF_STEREO_COUNT>
4

> <PUBCHEM_ATOM_UDEF_STEREO_COUNT>
0

> <PUBCHEM_BOND_DEF_STEREO_COUNT>
0

> <PUBCHEM_BOND_UDEF_STEREO_COUNT>
0

> <PUBCHEM_ISOTOPIC_ATOM_COUNT>
0

> <PUBCHEM_COMPONENT_COUNT>
1

> <PUBCHEM_CACTVS_TAUTO_COUNT>
2

> <PUBCHEM_CONFORMER_ID>
0445F6A300000001

> <PUBCHEM_MMFF94_ENERGY>
53.6588

> <PUBCHEM_FEATURE_SELFOVERLAP>
50.766

> <PUBCHEM_SHAPE_FINGERPRINT>
10937287 8 18122621927223525532
11370993 70 18121494923615654344
11578080 2 17337844073270201082
116883 192 17475233501157889806
12293681 160 18117304509536430406
12788726 201 17541664911450138858
13134695 92 18263925436671047534
13140716 1 18189612916077779930
13583140 156 18261399897633846323
13590594 115 18194690263201455944
138480 1 18337952281783202288
14004458 79 17476371504477660606
14115302 16 17560794407860397775
14142880 1 17395279674006959292
15081414 286 18339645542764503944
15210252 30 17242188859265844556
15664445 248 18200042724787151630
17980427 23 18124280991928586914
1813 80 17983865483896232782
18186145 218 17749670671843516915
18335252 114 17905316339908694709
19930381 70 18336542841331687445
21304303 282 17407368787469840924
22289505 5 18116709608376944647
2255824 54 18413107264537884482
23559900 14 18409445869458709267
283562 15 17901393286588922586
3060560 45 18342455890153819782
474 4 18338228375086321840
5939293 188 18408879621139021082
6443956 14 18337110060392618484
7364860 26 18411699881011389290
81228 2 17467923965357862778
84936 182 18270677700554115704
9981440 41 17906445885588040024

> <PUBCHEM_SHAPE_MULTIPOLES>
418.07
8.02
5.16
1.15
10.7
4.84
-0.07
4.52
1.42
-9.2
0.27
0.39
-0.4
0.34

> <PUBCHEM_SHAPE_SELFOVERLAP>
876.069

> <PUBCHEM_SHAPE_VOLUME>
237.7

> <PUBCHEM_COORDINATE_TYPE>
2
5
10

$$$$
