7674758
  -OEChem-12032416213D

 56 60  0     1  0  0  0  0  0999 V2000
   -8.3255   -0.8603   -0.7877 F   0  0  0  0  0  0  0  0  0  0  0  0
   -6.4130   -0.4140   -1.7463 F   0  0  0  0  0  0  0  0  0  0  0  0
   -6.8556   -2.4586   -1.0336 F   0  0  0  0  0  0  0  0  0  0  0  0
   -1.1466    1.9320   -1.3245 O   0  0  0  0  0  0  0  0  0  0  0  0
    6.6726   -2.0365   -0.3852 O   0  0  0  0  0  0  0  0  0  0  0  0
   -6.4758   -0.8098    0.5053 O   0  0  0  0  0  0  0  0  0  0  0  0
    3.6887    0.6889   -0.8533 N   0  0  2  0  0  0  0  0  0  0  0  0
    0.8706    2.0108   -0.1573 N   0  0  0  0  0  0  0  0  0  0  0  0
    2.9889    3.0812   -1.1249 C   0  0  1  0  0  0  0  0  0  0  0  0
    3.0426    2.0887    1.1128 C   0  0  2  0  0  0  0  0  0  0  0  0
    3.3312    3.3674    0.3311 C   0  0  0  0  0  0  0  0  0  0  0  0
    3.8479    1.9116   -1.6504 C   0  0  0  0  0  0  0  0  0  0  0  0
    3.9302    0.9432    0.5748 C   0  0  0  0  0  0  0  0  0  0  0  0
    1.4837    2.8024   -1.2335 C   0  0  0  0  0  0  0  0  0  0  0  0
    1.5754    1.7150    1.0119 C   0  0  0  0  0  0  0  0  0  0  0  0
    4.5564   -0.3767   -1.3491 C   0  0  0  0  0  0  0  0  0  0  0  0
    0.9615    1.0887    2.0283 C   0  0  0  0  0  0  0  0  0  0  0  0
   -0.4835    1.6590   -0.3223 C   0  0  0  0  0  0  0  0  0  0  0  0
   -1.1350    0.9271    0.8203 C   0  0  0  0  0  0  0  0  0  0  0  0
   -0.4122    0.6855    1.9243 C   0  0  0  0  0  0  0  0  0  0  0  0
    4.3155   -1.6614   -0.6045 C   0  0  0  0  0  0  0  0  0  0  0  0
   -2.5341    0.4726    0.7374 C   0  0  0  0  0  0  0  0  0  0  0  0
    5.3865   -2.4262   -0.1602 C   0  0  0  0  0  0  0  0  0  0  0  0
    3.0069   -2.0659   -0.3711 C   0  0  0  0  0  0  0  0  0  0  0  0
   -3.5664    1.3062    1.1691 C   0  0  0  0  0  0  0  0  0  0  0  0
   -2.8280   -0.7926    0.2274 C   0  0  0  0  0  0  0  0  0  0  0  0
    5.1454   -3.6149    0.5288 C   0  0  0  0  0  0  0  0  0  0  0  0
    2.7659   -3.2545    0.3179 C   0  0  0  0  0  0  0  0  0  0  0  0
    3.8351   -4.0291    0.7678 C   0  0  0  0  0  0  0  0  0  0  0  0
   -4.8907    0.8752    1.0911 C   0  0  0  0  0  0  0  0  0  0  0  0
   -4.1524   -1.2234    0.1492 C   0  0  0  0  0  0  0  0  0  0  0  0
   -5.1837   -0.3895    0.5811 C   0  0  0  0  0  0  0  0  0  0  0  0
   -7.0027   -1.1420   -0.7744 C   0  0  0  0  0  0  0  0  0  0  0  0
    3.2211    3.9622   -1.7362 H   0  0  0  0  0  0  0  0  0  0  0  0
    3.3073    2.2662    2.1637 H   0  0  0  0  0  0  0  0  0  0  0  0
    2.7370    4.2063    0.7145 H   0  0  0  0  0  0  0  0  0  0  0  0
    4.3869    3.6484    0.4297 H   0  0  0  0  0  0  0  0  0  0  0  0
    3.5661    1.7091   -2.6913 H   0  0  0  0  0  0  0  0  0  0  0  0
    4.9005    2.2259   -1.6597 H   0  0  0  0  0  0  0  0  0  0  0  0
    4.9843    1.2072    0.7399 H   0  0  0  0  0  0  0  0  0  0  0  0
    3.7302    0.0599    1.1915 H   0  0  0  0  0  0  0  0  0  0  0  0
    0.9502    3.7629   -1.2337 H   0  0  0  0  0  0  0  0  0  0  0  0
    1.2478    2.3272   -2.1941 H   0  0  0  0  0  0  0  0  0  0  0  0
    5.6060   -0.0641   -1.2863 H   0  0  0  0  0  0  0  0  0  0  0  0
    4.3461   -0.5711   -2.4090 H   0  0  0  0  0  0  0  0  0  0  0  0
    1.4877    0.8413    2.9442 H   0  0  0  0  0  0  0  0  0  0  0  0
   -0.8334    0.1598    2.7763 H   0  0  0  0  0  0  0  0  0  0  0  0
    2.1574   -1.4881   -0.7250 H   0  0  0  0  0  0  0  0  0  0  0  0
   -3.3540    2.2952    1.5681 H   0  0  0  0  0  0  0  0  0  0  0  0
   -2.0349   -1.4543   -0.1125 H   0  0  0  0  0  0  0  0  0  0  0  0
    5.9688   -4.2283    0.8849 H   0  0  0  0  0  0  0  0  0  0  0  0
    1.7456   -3.5785    0.5013 H   0  0  0  0  0  0  0  0  0  0  0  0
    3.6471   -4.9549    1.3037 H   0  0  0  0  0  0  0  0  0  0  0  0
    7.2758   -2.6958   -0.0015 H   0  0  0  0  0  0  0  0  0  0  0  0
   -5.6900    1.5293    1.4285 H   0  0  0  0  0  0  0  0  0  0  0  0
   -4.3659   -2.2136   -0.2439 H   0  0  0  0  0  0  0  0  0  0  0  0
  1 33  1  0  0  0  0
  2 33  1  0  0  0  0
  3 33  1  0  0  0  0
  4 18  2  0  0  0  0
  5 23  1  0  0  0  0
  5 54  1  0  0  0  0
  6 32  1  0  0  0  0
  6 33  1  0  0  0  0
  7 12  1  0  0  0  0
  7 13  1  0  0  0  0
  7 16  1  0  0  0  0
  8 14  1  0  0  0  0
  8 15  1  0  0  0  0
  8 18  1  0  0  0  0
  9 11  1  0  0  0  0
  9 12  1  0  0  0  0
  9 14  1  0  0  0  0
  9 34  1  0  0  0  0
 10 11  1  0  0  0  0
 10 13  1  0  0  0  0
 10 15  1  0  0  0  0
 10 35  1  0  0  0  0
 11 36  1  0  0  0  0
 11 37  1  0  0  0  0
 12 38  1  0  0  0  0
 12 39  1  0  0  0  0
 13 40  1  0  0  0  0
 13 41  1  0  0  0  0
 14 42  1  0  0  0  0
 14 43  1  0  0  0  0
 15 17  2  0  0  0  0
 16 21  1  0  0  0  0
 16 44  1  0  0  0  0
 16 45  1  0  0  0  0
 17 20  1  0  0  0  0
 17 46  1  0  0  0  0
 18 19  1  0  0  0  0
 19 20  2  0  0  0  0
 19 22  1  0  0  0  0
 20 47  1  0  0  0  0
 21 23  1  0  0  0  0
 21 24  2  0  0  0  0
 22 25  2  0  0  0  0
 22 26  1  0  0  0  0
 23 27  2  0  0  0  0
 24 28  1  0  0  0  0
 24 48  1  0  0  0  0
 25 30  1  0  0  0  0
 25 49  1  0  0  0  0
 26 31  2  0  0  0  0
 26 50  1  0  0  0  0
 27 29  1  0  0  0  0
 27 51  1  0  0  0  0
 28 29  2  0  0  0  0
 28 52  1  0  0  0  0
 29 53  1  0  0  0  0
 30 32  2  0  0  0  0
 30 55  1  0  0  0  0
 31 32  1  0  0  0  0
 31 56  1  0  0  0  0
M  END
> <PUBCHEM_COMPOUND_CID>
7674758

> <PUBCHEM_CONFORMER_RMSD>
0.8

> <PUBCHEM_CONFORMER_DIVERSEORDER>
1
23
18
4
14
11
19
2
22
6
16
10
13
9
20
12
21
17
7
8
15
3
5

> <PUBCHEM_MMFF94_PARTIAL_CHARGES>
42
1 -0.34
10 0.14
12 0.27
13 0.27
14 0.3
15 -0.03
16 0.41
17 -0.15
18 0.62
19 -0.01
2 -0.34
20 -0.15
21 -0.14
22 0.03
23 0.08
24 -0.15
25 -0.15
26 -0.15
27 -0.15
28 -0.15
29 -0.15
3 -0.34
30 -0.15
31 -0.15
32 0.08
33 1.3
4 -0.57
46 0.15
47 0.15
48 0.15
49 0.15
5 -0.53
50 0.15
51 0.15
52 0.15
53 0.15
54 0.45
55 0.15
56 0.15
6 -0.36
7 -0.81
8 -0.47

> <PUBCHEM_EFFECTIVE_ROTOR_COUNT>
6

> <PUBCHEM_PHARMACOPHORE_FEATURES>
9
1 4 acceptor
1 5 donor
1 6 acceptor
1 7 cation
6 21 23 24 27 28 29 rings
6 22 25 26 30 31 32 rings
6 7 9 10 11 12 13 rings
6 8 15 17 18 19 20 rings
6 8 9 10 11 14 15 rings

> <PUBCHEM_HEAVY_ATOM_COUNT>
33

> <PUBCHEM_ATOM_DEF_STEREO_COUNT>
2

> <PUBCHEM_ATOM_UDEF_STEREO_COUNT>
0

> <PUBCHEM_BOND_DEF_STEREO_COUNT>
0

> <PUBCHEM_BOND_UDEF_STEREO_COUNT>
0

> <PUBCHEM_ISOTOPIC_ATOM_COUNT>
0

> <PUBCHEM_COMPONENT_COUNT>
1

> <PUBCHEM_CACTVS_TAUTO_COUNT>
3

> <PUBCHEM_CONFORMER_ID>
00751B8600000001

> <PUBCHEM_MMFF94_ENERGY>
99.6503

> <PUBCHEM_FEATURE_SELFOVERLAP>
47.225

> <PUBCHEM_SHAPE_FINGERPRINT>
10622 236 18268991990325410003
10693767 8 18335697234926814339
11135609 149 18262780900774461996
11796584 16 17774738505700707749
11963148 33 17982163724108465319
12107183 9 18125173632119743273
12147406 95 17604972767931541354
12522641 33 18265616658181836480
12717326 68 17610606537350160282
13533116 47 18271528684178636473
1361 2 18335425702973012386
13631057 29 18047764702942874766
13782708 43 17203331165384988217
14068700 675 18271810060729620410
14347332 77 18343302535892818945
15001296 14 18059289988970829631
15183329 4 18335423508677546005
15250474 111 18272091612720628583
15475509 35 18060696199838825586
17134984 74 18339364187651453070
19026451 147 18339646642550834938
19315092 285 18059858350651557392
19958102 18 18408879664394421919
20567600 247 18411984637116189442
20775438 99 18262232343325632090
20775530 9 18119533137748371794
21033650 10 16515964749324883061
21133410 171 16810077430991764914
21585483 132 18200578298719924215
21703447 108 18201717371043231944
23522609 53 17772222875295763601
23559900 14 18334302005999400800
23569914 152 17611435586180275519
23569943 247 18336830771829134083
3004659 81 18060149733927707252
397830 11 10879984796946873885
4015057 19 18261404338202275875
4066623 53 17313095324832983372
439807 62 18412827976142593667
46194498 28 17749394797245886268
463206 1 18262814973325163906
513532 50 17749665281300903360
5309563 4 18338239237580761622
5951187 136 14851899092236876446
59682541 52 18333732438028760333
70251023 43 18334016055967656016
9555976 147 17559687140001558713

> <PUBCHEM_SHAPE_MULTIPOLES>
629.73
17.31
4.48
1.55
31.55
1.87
0.06
15.1
-5.36
-8.06
-0.2
0.29
-0.66
-1.9

> <PUBCHEM_SHAPE_SELFOVERLAP>
1390.634

> <PUBCHEM_SHAPE_VOLUME>
337.2

> <PUBCHEM_COORDINATE_TYPE>
2
5
10

$$$$
