45360619
  -OEChem-12032416353D

 60 64  0     1  0  0  0  0  0999 V2000
   10.2376    1.7431   -0.8583 F   0  0  0  0  0  0  0  0  0  0  0  0
    8.9312    0.5392    0.4144 F   0  0  0  0  0  0  0  0  0  0  0  0
    9.2757   -0.0332   -1.6923 F   0  0  0  0  0  0  0  0  0  0  0  0
    1.1190    0.9604    1.9502 O   0  0  0  0  0  0  0  0  0  0  0  0
   -2.2759    0.2377    2.0709 O   0  0  0  0  0  0  0  0  0  0  0  0
    8.0150    1.8216   -1.2430 O   0  0  0  0  0  0  0  0  0  0  0  0
   -9.0838    1.2626   -1.1385 O   0  0  0  0  0  0  0  0  0  0  0  0
   -9.2296    0.9806    1.1415 O   0  0  0  0  0  0  0  0  0  0  0  0
   -1.0014   -0.9840    0.5615 N   0  0  0  0  0  0  0  0  0  0  0  0
    0.2240   -3.6445   -1.7681 N   0  0  0  0  0  0  0  0  0  0  0  0
    1.1056   -4.5524    0.0727 N   0  0  0  0  0  0  0  0  0  0  0  0
    2.3576   -0.4517    0.7303 N   0  0  0  0  0  0  0  0  0  0  0  0
   -2.9772    0.1068   -0.1404 N   0  0  0  0  0  0  0  0  0  0  0  0
    2.2940    1.6515    1.6283 N   0  0  0  0  0  0  0  0  0  0  0  0
    0.0687   -1.2302    1.5905 C   0  0  1  0  0  0  0  0  0  0  0  0
    0.4264   -2.7421    1.7075 C   0  0  0  0  0  0  0  0  0  0  0  0
   -0.7821   -1.5053   -0.8197 C   0  0  0  0  0  0  0  0  0  0  0  0
    0.4985   -3.3648    0.3693 C   0  0  0  0  0  0  0  0  0  0  0  0
   -0.0543   -2.7866   -0.7460 C   0  0  0  0  0  0  0  0  0  0  0  0
    1.2380   -0.2688    1.3836 C   0  0  0  0  0  0  0  0  0  0  0  0
   -2.1173   -0.1808    0.9219 C   0  0  0  0  0  0  0  0  0  0  0  0
    0.9231   -4.6931   -1.2249 C   0  0  0  0  0  0  0  0  0  0  0  0
    2.9728    0.7534    0.9084 C   0  0  0  0  0  0  0  0  0  0  0  0
   -4.3744    0.3337   -0.0802 C   0  0  0  0  0  0  0  0  0  0  0  0
    4.2672    1.0273    0.3547 C   0  0  0  0  0  0  0  0  0  0  0  0
   -5.0377    0.2802    1.1458 C   0  0  0  0  0  0  0  0  0  0  0  0
   -5.0869    0.6091   -1.2473 C   0  0  0  0  0  0  0  0  0  0  0  0
    4.9301    0.0500   -0.3877 C   0  0  0  0  0  0  0  0  0  0  0  0
    4.8638    2.2714    0.5599 C   0  0  0  0  0  0  0  0  0  0  0  0
   -6.4135    0.5021    1.2046 C   0  0  0  0  0  0  0  0  0  0  0  0
   -6.4627    0.8310   -1.1885 C   0  0  0  0  0  0  0  0  0  0  0  0
   -7.1260    0.7778    0.0375 C   0  0  0  0  0  0  0  0  0  0  0  0
    6.1895    0.3166   -0.9246 C   0  0  0  0  0  0  0  0  0  0  0  0
    6.1233    2.5381    0.0231 C   0  0  0  0  0  0  0  0  0  0  0  0
    6.7861    1.5606   -0.7191 C   0  0  0  0  0  0  0  0  0  0  0  0
   -8.5605    1.0087    0.1000 C   0  0  0  0  0  0  0  0  0  0  0  0
  -10.4926    1.5072   -1.2077 C   0  0  0  0  0  0  0  0  0  0  0  0
    9.1067    1.0015   -0.8418 C   0  0  0  0  0  0  0  0  0  0  0  0
  -10.8780    1.7653   -2.6488 C   0  0  0  0  0  0  0  0  0  0  0  0
   -0.3396   -0.9589    2.5733 H   0  0  0  0  0  0  0  0  0  0  0  0
    1.3663   -2.8780    2.2533 H   0  0  0  0  0  0  0  0  0  0  0  0
   -0.3648   -3.2517    2.2717 H   0  0  0  0  0  0  0  0  0  0  0  0
   -1.7376   -1.6620   -1.3273 H   0  0  0  0  0  0  0  0  0  0  0  0
   -0.2047   -0.7524   -1.3660 H   0  0  0  0  0  0  0  0  0  0  0  0
   -0.0325   -3.5338   -2.7402 H   0  0  0  0  0  0  0  0  0  0  0  0
    1.2675   -5.5210   -1.8282 H   0  0  0  0  0  0  0  0  0  0  0  0
   -2.5832    0.1274   -1.0761 H   0  0  0  0  0  0  0  0  0  0  0  0
   -4.5431    0.0457    2.0804 H   0  0  0  0  0  0  0  0  0  0  0  0
   -4.5816    0.6531   -2.2087 H   0  0  0  0  0  0  0  0  0  0  0  0
    4.4910   -0.9283   -0.5664 H   0  0  0  0  0  0  0  0  0  0  0  0
    4.3781    3.0574    1.1328 H   0  0  0  0  0  0  0  0  0  0  0  0
   -6.9125    0.4504    2.1688 H   0  0  0  0  0  0  0  0  0  0  0  0
   -6.9764    1.0418   -2.1222 H   0  0  0  0  0  0  0  0  0  0  0  0
    6.6919   -0.4510   -1.5066 H   0  0  0  0  0  0  0  0  0  0  0  0
    6.5836    3.5087    0.1864 H   0  0  0  0  0  0  0  0  0  0  0  0
  -10.7405    2.3806   -0.5946 H   0  0  0  0  0  0  0  0  0  0  0  0
  -11.0325    0.6322   -0.8295 H   0  0  0  0  0  0  0  0  0  0  0  0
  -11.9509    1.9565   -2.7385 H   0  0  0  0  0  0  0  0  0  0  0  0
  -10.6178    0.9068   -3.2768 H   0  0  0  0  0  0  0  0  0  0  0  0
  -10.3306    2.6266   -3.0456 H   0  0  0  0  0  0  0  0  0  0  0  0
  1 38  1  0  0  0  0
  2 38  1  0  0  0  0
  3 38  1  0  0  0  0
  4 14  1  0  0  0  0
  4 20  1  0  0  0  0
  5 21  2  0  0  0  0
  6 35  1  0  0  0  0
  6 38  1  0  0  0  0
  7 36  1  0  0  0  0
  7 37  1  0  0  0  0
  8 36  2  0  0  0  0
  9 15  1  0  0  0  0
  9 17  1  0  0  0  0
  9 21  1  0  0  0  0
 10 19  1  0  0  0  0
 10 22  1  0  0  0  0
 10 45  1  0  0  0  0
 11 18  1  0  0  0  0
 11 22  2  0  0  0  0
 12 20  2  0  0  0  0
 12 23  1  0  0  0  0
 13 21  1  0  0  0  0
 13 24  1  0  0  0  0
 13 47  1  0  0  0  0
 14 23  2  0  0  0  0
 15 16  1  0  0  0  0
 15 20  1  0  0  0  0
 15 40  1  0  0  0  0
 16 18  1  0  0  0  0
 16 41  1  0  0  0  0
 16 42  1  0  0  0  0
 17 19  1  0  0  0  0
 17 43  1  0  0  0  0
 17 44  1  0  0  0  0
 18 19  2  0  0  0  0
 22 46  1  0  0  0  0
 23 25  1  0  0  0  0
 24 26  2  0  0  0  0
 24 27  1  0  0  0  0
 25 28  2  0  0  0  0
 25 29  1  0  0  0  0
 26 30  1  0  0  0  0
 26 48  1  0  0  0  0
 27 31  2  0  0  0  0
 27 49  1  0  0  0  0
 28 33  1  0  0  0  0
 28 50  1  0  0  0  0
 29 34  2  0  0  0  0
 29 51  1  0  0  0  0
 30 32  2  0  0  0  0
 30 52  1  0  0  0  0
 31 32  1  0  0  0  0
 31 53  1  0  0  0  0
 32 36  1  0  0  0  0
 33 35  2  0  0  0  0
 33 54  1  0  0  0  0
 34 35  1  0  0  0  0
 34 55  1  0  0  0  0
 37 39  1  0  0  0  0
 37 56  1  0  0  0  0
 37 57  1  0  0  0  0
 39 58  1  0  0  0  0
 39 59  1  0  0  0  0
 39 60  1  0  0  0  0
M  END
> <PUBCHEM_COMPOUND_CID>
45360619

> <PUBCHEM_CONFORMER_RMSD>
1.2

> <PUBCHEM_CONFORMER_DIVERSEORDER>
1
21
17
19
9
15
14
12
13
3
25
22
4
6
27
18
5
7
2
26
24
8
10
11
16
23
20

> <PUBCHEM_MMFF94_PARTIAL_CHARGES>
49
1 -0.34
10 0.03
11 -0.57
12 -0.57
13 -0.55
14 -0.41
15 0.48
16 0.18
17 0.48
18 0.05
19 -0.33
2 -0.34
20 0.3
21 0.69
22 0.04
23 0.46
24 0.12
25 0.05
26 -0.15
27 -0.15
28 -0.15
29 -0.15
3 -0.34
30 -0.15
31 -0.15
32 0.09
33 -0.15
34 -0.15
35 0.08
36 0.63
37 0.28
38 1.3
4 -0.02
45 0.27
46 0.15
47 0.37
48 0.15
49 0.15
5 -0.57
50 0.15
51 0.15
52 0.15
53 0.15
54 0.15
55 0.15
6 -0.36
7 -0.43
8 -0.57
9 -0.66

> <PUBCHEM_EFFECTIVE_ROTOR_COUNT>
10.8

> <PUBCHEM_PHARMACOPHORE_FEATURES>
12
1 10 donor
1 13 donor
1 5 acceptor
1 6 acceptor
1 8 acceptor
3 10 11 22 cation
3 12 14 23 cation
5 10 11 18 19 22 rings
5 4 12 14 20 23 rings
6 24 26 27 30 31 32 rings
6 25 28 29 33 34 35 rings
6 9 15 16 17 18 19 rings

> <PUBCHEM_HEAVY_ATOM_COUNT>
39

> <PUBCHEM_ATOM_DEF_STEREO_COUNT>
1

> <PUBCHEM_ATOM_UDEF_STEREO_COUNT>
0

> <PUBCHEM_BOND_DEF_STEREO_COUNT>
0

> <PUBCHEM_BOND_UDEF_STEREO_COUNT>
0

> <PUBCHEM_ISOTOPIC_ATOM_COUNT>
0

> <PUBCHEM_COMPONENT_COUNT>
1

> <PUBCHEM_CACTVS_TAUTO_COUNT>
8

> <PUBCHEM_CONFORMER_ID>
02B425EB00000001

> <PUBCHEM_MMFF94_ENERGY>
99.9354

> <PUBCHEM_FEATURE_SELFOVERLAP>
61

> <PUBCHEM_SHAPE_FINGERPRINT>
10165383 225 18410857663451665900
10190206 1 17918002637506929657
10369192 42 18259983786332768965
10483366 6 16702305650119222838
10674148 151 16988843882302753320
11411753 29 12541512820068866888
11607047 141 16154255101667690952
12522641 33 18410012121899089799
13150687 139 18343309162826909486
13383668 362 11026670634360312605
13540713 4 12181212767645671658
13540713 5 17486787268501108211
14117953 113 18272664446158611500
14664723 55 18410863178459550341
15183329 4 17561368387173472592
15392192 104 15068621608331249776
15773216 30 18199472077746596215
15890870 6 18409730672718381172
16664035 7 12468353562609418303
16993427 108 9727366687986070229
1754911 235 18411133646036072133
20105231 36 16200146652202254159
2026 5 12679468577928680349
20505436 4 17967528017498590138
20721686 146 17676206875057555333
21344244 78 12468636093377644647
24771293 8 14056717959439551617
249057 3 18339084886925245712
2747138 104 8862951580874794240
45266715 3 18059870437233081214
45377200 153 15410031008108077677
4760202 170 18200032980135000720
4874694 18 18059861689017129694
5219985 9 8862944965818218866
57527306 92 17530965795644302948
59521660 218 18339646629365323811
6126387 218 8214152846167328419
9962374 69 8069731981027232185

> <PUBCHEM_SHAPE_MULTIPOLES>
721.55
33.5
3.82
1.86
23.91
6.56
-0.08
-36.82
-19.35
-3.65
-1.32
1.81
0.02
1.24

> <PUBCHEM_SHAPE_SELFOVERLAP>
1579.902

> <PUBCHEM_SHAPE_VOLUME>
391.4

> <PUBCHEM_COORDINATE_TYPE>
2
5
10

$$$$
