11882862
  -OEChem-12032416363D

 73 77  0     1  0  0  0  0  0999 V2000
   -0.6845    3.0267    0.4191 S   0  0  0  0  0  0  0  0  0  0  0  0
    7.8256    4.2273   -0.0093 F   0  0  0  0  0  0  0  0  0  0  0  0
   -7.8817    0.0547   -0.5775 O   0  0  0  0  0  0  0  0  0  0  0  0
   -7.6733    1.6796    1.1721 O   0  0  0  0  0  0  0  0  0  0  0  0
   -0.1178   -1.7800   -1.8432 O   0  0  0  0  0  0  0  0  0  0  0  0
    2.9702    0.2717   -0.4328 O   0  0  0  0  0  0  0  0  0  0  0  0
    0.0448    0.6133   -0.1607 N   0  0  0  0  0  0  0  0  0  0  0  0
    0.3009   -3.4676   -0.3010 N   0  0  0  0  0  0  0  0  0  0  0  0
    1.7974    2.2498    0.0837 N   0  0  0  0  0  0  0  0  0  0  0  0
   -3.6344   -0.4611    0.2606 C   0  0  2  0  0  0  0  0  0  0  0  0
   -4.1847    0.9539   -0.2196 C   0  0  1  0  0  0  0  0  0  0  0  0
   -5.7442    1.1783   -0.1449 C   0  0  1  0  0  0  0  0  0  0  0  0
   -2.1471   -0.6276   -0.2996 C   0  0  1  0  0  0  0  0  0  0  0  0
   -4.5128   -1.5878   -0.3426 C   0  0  0  0  0  0  0  0  0  0  0  0
   -6.4691   -0.0587   -0.7468 C   0  0  1  0  0  0  0  0  0  0  0  0
   -3.3533    2.1225    0.3854 C   0  0  0  0  0  0  0  0  0  0  0  0
   -6.0071   -1.3795   -0.1412 C   0  0  0  0  0  0  0  0  0  0  0  0
   -3.6237   -0.6105    1.8019 C   0  0  0  0  0  0  0  0  0  0  0  0
   -1.3339    0.6180   -0.0570 C   0  0  0  0  0  0  0  0  0  0  0  0
   -6.2787    1.4959    1.2691 C   0  0  0  0  0  0  0  0  0  0  0  0
   -6.1221    2.4068   -1.0201 C   0  0  0  0  0  0  0  0  0  0  0  0
   -1.8962    1.8450    0.2309 C   0  0  0  0  0  0  0  0  0  0  0  0
   -1.4152   -1.8818    0.1966 C   0  0  0  0  0  0  0  0  0  0  0  0
   -0.3540   -2.3407   -0.7764 C   0  0  0  0  0  0  0  0  0  0  0  0
    0.4950    1.8261    0.0774 C   0  0  0  0  0  0  0  0  0  0  0  0
    1.3630   -4.1278   -1.0250 C   0  0  0  0  0  0  0  0  0  0  0  0
    2.9368    1.4679   -0.1659 C   0  0  0  0  0  0  0  0  0  0  0  0
    2.6457   -4.1493   -0.2449 C   0  0  0  0  0  0  0  0  0  0  0  0
    4.2315    2.1980   -0.1237 C   0  0  0  0  0  0  0  0  0  0  0  0
    3.5603   -3.1044   -0.3778 C   0  0  0  0  0  0  0  0  0  0  0  0
    2.9231   -5.2140    0.6123 C   0  0  0  0  0  0  0  0  0  0  0  0
    5.3176    1.7356   -0.8669 C   0  0  0  0  0  0  0  0  0  0  0  0
    4.3597    3.3461    0.6581 C   0  0  0  0  0  0  0  0  0  0  0  0
    4.7523   -3.1244    0.3466 C   0  0  0  0  0  0  0  0  0  0  0  0
    4.1149   -5.2340    1.3368 C   0  0  0  0  0  0  0  0  0  0  0  0
    5.0295   -4.1892    1.2038 C   0  0  0  0  0  0  0  0  0  0  0  0
    6.5317    2.4209   -0.8282 C   0  0  0  0  0  0  0  0  0  0  0  0
    5.5739    4.0315    0.6969 C   0  0  0  0  0  0  0  0  0  0  0  0
    6.6599    3.5689   -0.0464 C   0  0  0  0  0  0  0  0  0  0  0  0
   -3.9645    0.9700   -1.3013 H   0  0  0  0  0  0  0  0  0  0  0  0
   -2.2477   -0.6934   -1.3935 H   0  0  0  0  0  0  0  0  0  0  0  0
   -4.3216   -1.6649   -1.4212 H   0  0  0  0  0  0  0  0  0  0  0  0
   -4.2464   -2.5610    0.0849 H   0  0  0  0  0  0  0  0  0  0  0  0
   -6.2834   -0.0887   -1.8287 H   0  0  0  0  0  0  0  0  0  0  0  0
   -3.5808    2.2556    1.4483 H   0  0  0  0  0  0  0  0  0  0  0  0
   -3.5967    3.0610   -0.1240 H   0  0  0  0  0  0  0  0  0  0  0  0
   -6.2783   -1.4364    0.9187 H   0  0  0  0  0  0  0  0  0  0  0  0
   -6.5518   -2.2054   -0.6168 H   0  0  0  0  0  0  0  0  0  0  0  0
   -3.2136   -1.5809    2.1029 H   0  0  0  0  0  0  0  0  0  0  0  0
   -4.6191   -0.5757    2.2399 H   0  0  0  0  0  0  0  0  0  0  0  0
   -3.0169    0.1545    2.2941 H   0  0  0  0  0  0  0  0  0  0  0  0
   -6.1106    0.6901    1.9791 H   0  0  0  0  0  0  0  0  0  0  0  0
   -5.8398    2.4129    1.6739 H   0  0  0  0  0  0  0  0  0  0  0  0
   -5.6949    2.3180   -2.0258 H   0  0  0  0  0  0  0  0  0  0  0  0
   -5.7571    3.3438   -0.5867 H   0  0  0  0  0  0  0  0  0  0  0  0
   -7.2054    2.5124   -1.1466 H   0  0  0  0  0  0  0  0  0  0  0  0
   -2.1060   -2.7238    0.3072 H   0  0  0  0  0  0  0  0  0  0  0  0
   -0.9449   -1.7074    1.1727 H   0  0  0  0  0  0  0  0  0  0  0  0
   -8.2929   -0.7139   -1.0083 H   0  0  0  0  0  0  0  0  0  0  0  0
   -8.0008    1.8887    2.0633 H   0  0  0  0  0  0  0  0  0  0  0  0
    0.0160   -3.8681    0.5884 H   0  0  0  0  0  0  0  0  0  0  0  0
    1.8986    3.2456    0.2533 H   0  0  0  0  0  0  0  0  0  0  0  0
    1.0258   -5.1508   -1.2284 H   0  0  0  0  0  0  0  0  0  0  0  0
    1.5179   -3.6515   -1.9998 H   0  0  0  0  0  0  0  0  0  0  0  0
    3.3581   -2.2764   -1.0507 H   0  0  0  0  0  0  0  0  0  0  0  0
    2.2181   -6.0332    0.7260 H   0  0  0  0  0  0  0  0  0  0  0  0
    5.2377    0.8460   -1.4864 H   0  0  0  0  0  0  0  0  0  0  0  0
    3.5536    3.7220    1.2807 H   0  0  0  0  0  0  0  0  0  0  0  0
    5.4649   -2.3115    0.2414 H   0  0  0  0  0  0  0  0  0  0  0  0
    4.3308   -6.0628    2.0046 H   0  0  0  0  0  0  0  0  0  0  0  0
    5.9577   -4.2049    1.7676 H   0  0  0  0  0  0  0  0  0  0  0  0
    7.3772    2.0619   -1.4075 H   0  0  0  0  0  0  0  0  0  0  0  0
    5.6772    4.9209    1.3115 H   0  0  0  0  0  0  0  0  0  0  0  0
  1 22  1  0  0  0  0
  1 25  1  0  0  0  0
  2 39  1  0  0  0  0
  3 15  1  0  0  0  0
  3 59  1  0  0  0  0
  4 20  1  0  0  0  0
  4 60  1  0  0  0  0
  5 24  2  0  0  0  0
  6 27  2  0  0  0  0
  7 19  1  0  0  0  0
  7 25  2  0  0  0  0
  8 24  1  0  0  0  0
  8 26  1  0  0  0  0
  8 61  1  0  0  0  0
  9 25  1  0  0  0  0
  9 27  1  0  0  0  0
  9 62  1  0  0  0  0
 10 11  1  0  0  0  0
 10 13  1  0  0  0  0
 10 14  1  0  0  0  0
 10 18  1  0  0  0  0
 11 12  1  0  0  0  0
 11 16  1  0  0  0  0
 11 40  1  0  0  0  0
 12 15  1  0  0  0  0
 12 20  1  0  0  0  0
 12 21  1  0  0  0  0
 13 19  1  0  0  0  0
 13 23  1  0  0  0  0
 13 41  1  0  0  0  0
 14 17  1  0  0  0  0
 14 42  1  0  0  0  0
 14 43  1  0  0  0  0
 15 17  1  0  0  0  0
 15 44  1  0  0  0  0
 16 22  1  0  0  0  0
 16 45  1  0  0  0  0
 16 46  1  0  0  0  0
 17 47  1  0  0  0  0
 17 48  1  0  0  0  0
 18 49  1  0  0  0  0
 18 50  1  0  0  0  0
 18 51  1  0  0  0  0
 19 22  2  0  0  0  0
 20 52  1  0  0  0  0
 20 53  1  0  0  0  0
 21 54  1  0  0  0  0
 21 55  1  0  0  0  0
 21 56  1  0  0  0  0
 23 24  1  0  0  0  0
 23 57  1  0  0  0  0
 23 58  1  0  0  0  0
 26 28  1  0  0  0  0
 26 63  1  0  0  0  0
 26 64  1  0  0  0  0
 27 29  1  0  0  0  0
 28 30  2  0  0  0  0
 28 31  1  0  0  0  0
 29 32  2  0  0  0  0
 29 33  1  0  0  0  0
 30 34  1  0  0  0  0
 30 65  1  0  0  0  0
 31 35  2  0  0  0  0
 31 66  1  0  0  0  0
 32 37  1  0  0  0  0
 32 67  1  0  0  0  0
 33 38  2  0  0  0  0
 33 68  1  0  0  0  0
 34 36  2  0  0  0  0
 34 69  1  0  0  0  0
 35 36  1  0  0  0  0
 35 70  1  0  0  0  0
 36 71  1  0  0  0  0
 37 39  2  0  0  0  0
 37 72  1  0  0  0  0
 38 39  1  0  0  0  0
 38 73  1  0  0  0  0
M  END
> <PUBCHEM_COMPOUND_CID>
11882862

> <PUBCHEM_CONFORMER_RMSD>
1.2

> <PUBCHEM_CONFORMER_DIVERSEORDER>
1
21
9
26
7
29
27
23
16
15
11
20
6
17
18
24
22
12
10
13
5
25
28
3
2
4
30
14
8
19

> <PUBCHEM_MMFF94_PARTIAL_CHARGES>
45
1 -0.08
13 0.18
15 0.28
16 0.18
19 0.05
2 -0.19
20 0.28
22 -0.14
23 0.06
24 0.57
25 0.44
26 0.44
27 0.54
28 -0.14
29 0.09
3 -0.68
30 -0.15
31 -0.15
32 -0.15
33 -0.15
34 -0.15
35 -0.15
36 -0.15
37 -0.15
38 -0.15
39 0.19
4 -0.68
5 -0.57
59 0.4
6 -0.57
60 0.4
61 0.37
62 0.37
65 0.15
66 0.15
67 0.15
68 0.15
69 0.15
7 -0.57
70 0.15
71 0.15
72 0.15
73 0.15
8 -0.73
9 -0.49

> <PUBCHEM_EFFECTIVE_ROTOR_COUNT>
10.2

> <PUBCHEM_PHARMACOPHORE_FEATURES>
13
1 3 acceptor
1 3 donor
1 4 acceptor
1 4 donor
1 5 acceptor
1 6 acceptor
1 8 donor
1 9 donor
5 1 7 19 22 25 rings
6 10 11 12 14 15 17 rings
6 10 11 13 16 19 22 rings
6 28 30 31 34 35 36 rings
6 29 32 33 37 38 39 rings

> <PUBCHEM_HEAVY_ATOM_COUNT>
39

> <PUBCHEM_ATOM_DEF_STEREO_COUNT>
5

> <PUBCHEM_ATOM_UDEF_STEREO_COUNT>
0

> <PUBCHEM_BOND_DEF_STEREO_COUNT>
0

> <PUBCHEM_BOND_UDEF_STEREO_COUNT>
0

> <PUBCHEM_ISOTOPIC_ATOM_COUNT>
0

> <PUBCHEM_COMPONENT_COUNT>
1

> <PUBCHEM_CACTVS_TAUTO_COUNT>
6

> <PUBCHEM_CONFORMER_ID>
00B5516E00000001

> <PUBCHEM_MMFF94_ENERGY>
117.9453

> <PUBCHEM_FEATURE_SELFOVERLAP>
66.119

> <PUBCHEM_SHAPE_FINGERPRINT>
10050765 1 18338516314427234261
10290309 65 18409721872768741732
11135609 187 18411981403217130369
11135926 11 18409439310901197516
11136131 41 18334850637202348538
11297750 10 17752479863738092852
11719270 70 18410006676666561400
11963148 33 18195520618594861743
12440605 4 18341334508753286123
12522641 126 18408322160159143958
12660671 118 18200880569779946142
12857493 111 17978219461659995613
12977781 61 17895495686088947883
13008946 113 18408608028381275500
14675020 138 18270386292351927160
15200665 1 17907859861651775594
15347591 1 18337952295580220525
15351339 4 18131638889487687240
15400415 2 18266176330574232904
15439362 3 18408882928194935875
15664458 105 17973446499448680395
15927050 60 18269552909044500934
16067689 302 18413111689261924775
17627616 140 18411696621121097462
19319366 153 18340204206704535060
21133665 82 18268715094944035788
21360443 120 18337110158876121084
21796203 349 17762376559769245282
22311459 1 18194682803280826455
23516275 137 18261969492096490752
23523788 1 17389697337614685043
23559900 14 18194954159351446267
3383291 50 18124315175209129691
4073 2 18337397152738081497
4149490 64 18335426738967706667
4403749 210 17975695305770698552
5265222 85 18049165759022577188
5385378 56 18411710872186355113
563151 97 18194955464473047182
57676310 188 18411134779131646854
5776283 40 18337686282554633374
6669772 16 18408324397320094718
9896288 288 17976261558485509130
99344 41 18411980282246503372
9961470 85 18340200908359828562

> <PUBCHEM_SHAPE_MULTIPOLES>
760.76
19.49
7.58
1.12
10.37
6.6
0.12
-14.17
0.89
-19.63
1.28
0.34
0.43
-1.69

> <PUBCHEM_SHAPE_SELFOVERLAP>
1630.631

> <PUBCHEM_SHAPE_VOLUME>
424.4

> <PUBCHEM_COORDINATE_TYPE>
2
5
10

$$$$
