11913294
  -OEChem-12032416383D

 56 59  0     1  0  0  0  0  0999 V2000
   -3.7509   -1.4676   -1.2004 S   0  0  0  0  0  0  0  0  0  0  0  0
    0.4868   -2.2820    0.7220 O   0  0  0  0  0  0  0  0  0  0  0  0
   -0.8737   -0.0342    2.4139 O   0  0  0  0  0  0  0  0  0  0  0  0
   -4.4182   -2.5981   -0.5835 O   0  0  0  0  0  0  0  0  0  0  0  0
   -3.8377   -1.2623   -2.6336 O   0  0  0  0  0  0  0  0  0  0  0  0
   -2.1153   -1.4593   -0.7451 N   0  0  0  0  0  0  0  0  0  0  0  0
    1.8996    0.9901    1.5105 N   0  0  0  0  0  0  0  0  0  0  0  0
    3.7321    0.1454    0.3129 N   0  0  0  0  0  0  0  0  0  0  0  0
    3.3944    2.5201    0.5459 N   0  0  0  0  0  0  0  0  0  0  0  0
   -2.3649    1.5702   -2.8921 N   0  0  0  0  0  0  0  0  0  0  0  0
   -0.8385   -0.3264    1.0070 C   0  0  1  0  0  0  0  0  0  0  0  0
    0.5498   -0.8464    0.6886 C   0  0  1  0  0  0  0  0  0  0  0  0
   -1.7494   -1.4879    0.6922 C   0  0  2  0  0  0  0  0  0  0  0  0
    1.4064   -0.3336    1.8222 C   0  0  2  0  0  0  0  0  0  0  0  0
   -0.8671   -2.6897    0.9681 C   0  0  0  0  0  0  0  0  0  0  0  0
    0.4249   -0.2694    2.9778 C   0  0  0  0  0  0  0  0  0  0  0  0
    3.0429    1.2256    0.7676 C   0  0  0  0  0  0  0  0  0  0  0  0
   -4.3515    0.0063   -0.4313 C   0  0  0  0  0  0  0  0  0  0  0  0
    5.6097   -0.7623   -0.9148 C   0  0  0  0  0  0  0  0  0  0  0  0
    4.8411    0.4115   -0.4079 C   0  0  0  0  0  0  0  0  0  0  0  0
   -3.9750    1.2614   -0.8860 C   0  0  0  0  0  0  0  0  0  0  0  0
   -5.2156   -0.1360    0.6453 C   0  0  0  0  0  0  0  0  0  0  0  0
    5.2845    1.6875   -0.6900 C   0  0  0  0  0  0  0  0  0  0  0  0
    4.5138    2.7133   -0.1822 C   0  0  0  0  0  0  0  0  0  0  0  0
    7.0685   -0.7640   -0.3623 C   0  0  0  0  0  0  0  0  0  0  0  0
    5.6963   -0.7518   -2.4724 C   0  0  0  0  0  0  0  0  0  0  0  0
    5.0206   -2.1626   -0.5399 C   0  0  0  0  0  0  0  0  0  0  0  0
   -4.4728    2.3992   -0.2508 C   0  0  0  0  0  0  0  0  0  0  0  0
   -5.7133    1.0018    1.2805 C   0  0  0  0  0  0  0  0  0  0  0  0
   -5.3420    2.2694    0.8324 C   0  0  0  0  0  0  0  0  0  0  0  0
   -3.0853    1.4320   -1.9946 C   0  0  0  0  0  0  0  0  0  0  0  0
   -1.0803    0.5985    0.4744 H   0  0  0  0  0  0  0  0  0  0  0  0
    0.8905   -0.5603   -0.3115 H   0  0  0  0  0  0  0  0  0  0  0  0
   -2.6411   -1.5264    1.3239 H   0  0  0  0  0  0  0  0  0  0  0  0
    2.2326   -1.0027    2.0890 H   0  0  0  0  0  0  0  0  0  0  0  0
   -0.9299   -2.9885    2.0202 H   0  0  0  0  0  0  0  0  0  0  0  0
   -1.1005   -3.5607    0.3480 H   0  0  0  0  0  0  0  0  0  0  0  0
    0.3791   -1.2287    3.5051 H   0  0  0  0  0  0  0  0  0  0  0  0
    0.6491    0.5130    3.7094 H   0  0  0  0  0  0  0  0  0  0  0  0
   -1.3854   -1.1979   -1.4187 H   0  0  0  0  0  0  0  0  0  0  0  0
    1.3652    1.8017    1.7993 H   0  0  0  0  0  0  0  0  0  0  0  0
   -5.5215   -1.1072    1.0211 H   0  0  0  0  0  0  0  0  0  0  0  0
    6.1739    1.9005   -1.2681 H   0  0  0  0  0  0  0  0  0  0  0  0
    4.7829    3.7503   -0.3518 H   0  0  0  0  0  0  0  0  0  0  0  0
    7.0691   -0.7763    0.7341 H   0  0  0  0  0  0  0  0  0  0  0  0
    7.6292    0.1207   -0.6834 H   0  0  0  0  0  0  0  0  0  0  0  0
    7.6249   -1.6426   -0.7090 H   0  0  0  0  0  0  0  0  0  0  0  0
    6.2220    0.1332   -2.8475 H   0  0  0  0  0  0  0  0  0  0  0  0
    6.2340   -1.6302   -2.8476 H   0  0  0  0  0  0  0  0  0  0  0  0
    4.6942   -0.7548   -2.9175 H   0  0  0  0  0  0  0  0  0  0  0  0
    4.0043   -2.2783   -0.9347 H   0  0  0  0  0  0  0  0  0  0  0  0
    4.9701   -2.2877    0.5481 H   0  0  0  0  0  0  0  0  0  0  0  0
    5.6306   -2.9793   -0.9424 H   0  0  0  0  0  0  0  0  0  0  0  0
   -4.1933    3.3951   -0.5868 H   0  0  0  0  0  0  0  0  0  0  0  0
   -6.3891    0.9011    2.1246 H   0  0  0  0  0  0  0  0  0  0  0  0
   -5.7292    3.1552    1.3274 H   0  0  0  0  0  0  0  0  0  0  0  0
  1  4  2  0  0  0  0
  1  5  2  0  0  0  0
  1  6  1  0  0  0  0
  1 18  1  0  0  0  0
  2 12  1  0  0  0  0
  2 15  1  0  0  0  0
  3 11  1  0  0  0  0
  3 16  1  0  0  0  0
  6 13  1  0  0  0  0
  6 40  1  0  0  0  0
  7 14  1  0  0  0  0
  7 17  1  0  0  0  0
  7 41  1  0  0  0  0
  8 17  1  0  0  0  0
  8 20  2  0  0  0  0
  9 17  2  0  0  0  0
  9 24  1  0  0  0  0
 10 31  3  0  0  0  0
 11 12  1  0  0  0  0
 11 13  1  0  0  0  0
 11 32  1  0  0  0  0
 12 14  1  0  0  0  0
 12 33  1  0  0  0  0
 13 15  1  0  0  0  0
 13 34  1  0  0  0  0
 14 16  1  0  0  0  0
 14 35  1  0  0  0  0
 15 36  1  0  0  0  0
 15 37  1  0  0  0  0
 16 38  1  0  0  0  0
 16 39  1  0  0  0  0
 18 21  1  0  0  0  0
 18 22  2  0  0  0  0
 19 20  1  0  0  0  0
 19 25  1  0  0  0  0
 19 26  1  0  0  0  0
 19 27  1  0  0  0  0
 20 23  1  0  0  0  0
 21 28  2  0  0  0  0
 21 31  1  0  0  0  0
 22 29  1  0  0  0  0
 22 42  1  0  0  0  0
 23 24  2  0  0  0  0
 23 43  1  0  0  0  0
 24 44  1  0  0  0  0
 25 45  1  0  0  0  0
 25 46  1  0  0  0  0
 25 47  1  0  0  0  0
 26 48  1  0  0  0  0
 26 49  1  0  0  0  0
 26 50  1  0  0  0  0
 27 51  1  0  0  0  0
 27 52  1  0  0  0  0
 27 53  1  0  0  0  0
 28 30  1  0  0  0  0
 28 54  1  0  0  0  0
 29 30  2  0  0  0  0
 29 55  1  0  0  0  0
 30 56  1  0  0  0  0
M  END
> <PUBCHEM_COMPOUND_CID>
11913294

> <PUBCHEM_CONFORMER_RMSD>
1

> <PUBCHEM_CONFORMER_DIVERSEORDER>
1
47
185
213
71
227
226
157
347
244
202
2
56
187
228
40
31
78
296
250
246
256
197
204
186
300
169
346
305
258
281
68
70
261
348
349
353
260
94
264
120
318
211
24
218
76
205
206
240
26
359
271
290
41
241
298
95
249
284
166
310
313
330
352
162
137
254
153
194
203
234
210
152
314
50
123
172
189
333
286
317
302
308
287
116
341
326
45
212
275
272
266
171
139
265
165
75
151
315
181
77
62
209
104
18
86
82
237
36
282
230
321
358
293
16
12
247
280
299
334
100
236
35
108
159
277
141
122
219
217
65
190
344
176
132
231
269
22
66
167
148
164
294
69
112
115
351
57
327
332
55
156
319
354
199
323
93
337
283
101
343
32
239
362
119
251
129
84
340
143
30
128
207
312
220
208
49
316
87
274
188
273
180
34
291
161
195
320
85
146
51
324
98
54
177
225
173
136
183
126
270
61
303
27
125
111
64
297
96
83
198
252
46
279
223
106
103
175
259
6
309
263
25
295
59
288
4
262
130
356
329
243
135
117
174
144
20
355
331
109
311
257
328
233
19
325
278
133
39
60
150
307
170
79
80
114
229
322
91
149
90
33
360
192
222
89
357
110
350
42
216
168
107
154
92
127
339
134
131
163
196
306
58
99
191
253
361
48
124
214
160
63
9
3
276
232
345
235
179
102
138
145
105
15
289
67
11
201
245
242
285
17
147
72
301
182
215
97
37
304
224
342
113
178
338
142
267
121
28
14
21
184
363
81
10
292
29
13
255
74
8
44
43
200
23
88
248
140
118
53
193
238
38
155
5
52
336
158
7
221
73
335
268

> <PUBCHEM_MMFF94_PARTIAL_CHARGES>
36
1 1.45
10 -0.56
11 0.28
12 0.28
13 0.36
14 0.37
15 0.28
16 0.28
17 0.72
18 -0.01
19 0.14
2 -0.56
20 0.17
21 0.07
22 -0.15
23 -0.15
24 0.16
28 -0.15
29 -0.15
3 -0.56
30 -0.15
31 0.48
4 -0.65
40 0.42
41 0.4
42 0.15
43 0.15
44 0.15
5 -0.65
54 0.15
55 0.15
56 0.15
6 -0.91
7 -0.87
8 -0.62
9 -0.62

> <PUBCHEM_EFFECTIVE_ROTOR_COUNT>
7.2

> <PUBCHEM_PHARMACOPHORE_FEATURES>
14
1 10 acceptor
1 2 acceptor
1 3 acceptor
1 4 acceptor
1 5 acceptor
1 6 donor
1 7 donor
1 8 acceptor
4 19 25 26 27 hydrophobe
4 7 8 9 17 cation
5 2 11 12 13 15 rings
5 3 11 12 14 16 rings
6 18 21 22 28 29 30 rings
6 8 9 17 20 23 24 rings

> <PUBCHEM_HEAVY_ATOM_COUNT>
31

> <PUBCHEM_ATOM_DEF_STEREO_COUNT>
4

> <PUBCHEM_ATOM_UDEF_STEREO_COUNT>
0

> <PUBCHEM_BOND_DEF_STEREO_COUNT>
0

> <PUBCHEM_BOND_UDEF_STEREO_COUNT>
0

> <PUBCHEM_ISOTOPIC_ATOM_COUNT>
0

> <PUBCHEM_COMPONENT_COUNT>
1

> <PUBCHEM_CACTVS_TAUTO_COUNT>
3

> <PUBCHEM_CONFORMER_ID>
00B5C84E00000001

> <PUBCHEM_MMFF94_ENERGY>
77.3377

> <PUBCHEM_FEATURE_SELFOVERLAP>
71.768

> <PUBCHEM_SHAPE_FINGERPRINT>
10165383 225 18201725003827025995
10613725 11 18131915940336209320
10670039 82 16877938313773505372
11135609 201 13768787823245984428
12596602 18 13334739028784959396
13627167 48 17749111127435568156
13690498 29 17631442522908202471
13761468 95 18118962499318694645
13994607 96 16515682256324514465
14279260 333 18059016051946371042
14713325 29 18189340228926514707
14840074 17 17458062668838178165
14848178 5 12463568499745097433
15003188 33 18272373104961546152
15183329 4 18410289203509020878
15575132 122 17603855698815193077
19377110 9 11097860722091755440
19958102 18 18409724101397488270
20775530 9 12964276324337442861
21458453 9 14129928975208499225
21756936 100 17312822666975484771
23536364 44 17775288248697947883
23559900 14 17346590876999799930
2838139 119 17967811643921183544
339767 52 14045739309644580004
3459 83 17703234996708535858
38570 142 18335709295442427233
4098825 35 18342741849218233832
437795 139 14332253365473324917
4394409 98 16559030450393530372
44062 13 16558743555468694261
463206 1 16128654154599380918
469060 322 16009027337068863945
59755656 520 17240489108525408202
6126387 218 18342453709132684322
613672 6 13542468687031543516
6443934 186 9583512110605323998
70251023 43 16052337190550182719

> <PUBCHEM_SHAPE_MULTIPOLES>
593.43
16.25
2.87
2.38
11.72
0.24
-0.32
3.7
-5.92
-0.55
-0.26
-0.88
-0.06
0.25

> <PUBCHEM_SHAPE_SELFOVERLAP>
1263.121

> <PUBCHEM_SHAPE_VOLUME>
333.3

> <PUBCHEM_COORDINATE_TYPE>
2
5
10

$$$$
