75536810
  -OEChem-12032416333D

 38 40  0     1  0  0  0  0  0999 V2000
    0.6773   -0.9791    1.4115 O   0  0  0  0  0  0  0  0  0  0  0  0
   -5.1350    0.8508   -0.5770 O   0  0  0  0  0  0  0  0  0  0  0  0
   -1.0620   -2.0977   -1.5260 O   0  0  0  0  0  0  0  0  0  0  0  0
    3.6303   -0.2848    1.2312 O   0  0  0  0  0  0  0  0  0  0  0  0
   -2.2038    0.5241   -0.2227 N   0  0  0  0  0  0  0  0  0  0  0  0
    2.5135   -0.7722   -0.7547 N   0  0  0  0  0  0  0  0  0  0  0  0
   -1.3939   -0.5485    0.3315 C   0  0  1  0  0  0  0  0  0  0  0  0
   -0.4332   -1.1651   -0.6683 C   0  0  1  0  0  0  0  0  0  0  0  0
    0.5684   -1.8354    0.2623 C   0  0  1  0  0  0  0  0  0  0  0  0
    3.8073    1.2627   -0.5318 C   0  0  0  0  0  0  0  0  0  0  0  0
    2.8081    2.2186   -1.0933 C   0  0  0  0  0  0  0  0  0  0  0  0
    3.5346    2.5478    0.1764 C   0  0  0  0  0  0  0  0  0  0  0  0
   -0.4376   -0.0703    1.4118 C   0  0  0  0  0  0  0  0  0  0  0  0
   -3.3785    0.7443    0.6306 C   0  0  0  0  0  0  0  0  0  0  0  0
    1.9371   -2.0271   -0.3665 C   0  0  0  0  0  0  0  0  0  0  0  0
    3.3137   -0.0059    0.0807 C   0  0  0  0  0  0  0  0  0  0  0  0
   -4.2470    1.8376    0.0084 C   0  0  0  0  0  0  0  0  0  0  0  0
   -4.4994   -0.1998    0.1959 C   0  0  0  0  0  0  0  0  0  0  0  0
   -2.0306   -1.3527    0.7266 H   0  0  0  0  0  0  0  0  0  0  0  0
    0.0264   -0.3849   -1.2855 H   0  0  0  0  0  0  0  0  0  0  0  0
    0.1962   -2.8094    0.6037 H   0  0  0  0  0  0  0  0  0  0  0  0
    4.7631    1.1812   -1.0386 H   0  0  0  0  0  0  0  0  0  0  0  0
    1.7515    1.9921   -1.0163 H   0  0  0  0  0  0  0  0  0  0  0  0
    3.0807    2.7667   -1.9871 H   0  0  0  0  0  0  0  0  0  0  0  0
    4.2944    3.3188    0.1367 H   0  0  0  0  0  0  0  0  0  0  0  0
    2.9658    2.5296    1.0981 H   0  0  0  0  0  0  0  0  0  0  0  0
   -0.8958   -0.0580    2.4053 H   0  0  0  0  0  0  0  0  0  0  0  0
   -0.0349    0.9283    1.2067 H   0  0  0  0  0  0  0  0  0  0  0  0
   -3.2014    0.8474    1.7042 H   0  0  0  0  0  0  0  0  0  0  0  0
   -1.6307    1.3546   -0.3676 H   0  0  0  0  0  0  0  0  0  0  0  0
    1.8733   -2.6576   -1.2590 H   0  0  0  0  0  0  0  0  0  0  0  0
    2.6114   -2.5077    0.3510 H   0  0  0  0  0  0  0  0  0  0  0  0
   -4.7857    2.4640    0.7273 H   0  0  0  0  0  0  0  0  0  0  0  0
   -3.7894    2.4772   -0.7527 H   0  0  0  0  0  0  0  0  0  0  0  0
   -4.2338   -1.0568   -0.4309 H   0  0  0  0  0  0  0  0  0  0  0  0
   -5.1564   -0.5371    1.0045 H   0  0  0  0  0  0  0  0  0  0  0  0
    2.3333   -0.4416   -1.6982 H   0  0  0  0  0  0  0  0  0  0  0  0
   -1.4882   -2.7781   -0.9779 H   0  0  0  0  0  0  0  0  0  0  0  0
  1  9  1  0  0  0  0
  1 13  1  0  0  0  0
  2 17  1  0  0  0  0
  2 18  1  0  0  0  0
  3  8  1  0  0  0  0
  3 38  1  0  0  0  0
  4 16  2  0  0  0  0
  5  7  1  0  0  0  0
  5 14  1  0  0  0  0
  5 30  1  0  0  0  0
  6 15  1  0  0  0  0
  6 16  1  0  0  0  0
  6 37  1  0  0  0  0
  7  8  1  0  0  0  0
  7 13  1  0  0  0  0
  7 19  1  0  0  0  0
  8  9  1  0  0  0  0
  8 20  1  0  0  0  0
  9 15  1  0  0  0  0
  9 21  1  0  0  0  0
 10 11  1  0  0  0  0
 10 12  1  0  0  0  0
 10 16  1  0  0  0  0
 10 22  1  0  0  0  0
 11 12  1  0  0  0  0
 11 23  1  0  0  0  0
 11 24  1  0  0  0  0
 12 25  1  0  0  0  0
 12 26  1  0  0  0  0
 13 27  1  0  0  0  0
 13 28  1  0  0  0  0
 14 17  1  0  0  0  0
 14 18  1  0  0  0  0
 14 29  1  0  0  0  0
 15 31  1  0  0  0  0
 15 32  1  0  0  0  0
 17 33  1  0  0  0  0
 17 34  1  0  0  0  0
 18 35  1  0  0  0  0
 18 36  1  0  0  0  0
M  END
> <PUBCHEM_COMPOUND_CID>
75536810

> <PUBCHEM_CONFORMER_RMSD>
0.8

> <PUBCHEM_CONFORMER_DIVERSEORDER>
1
33
17
98
55
81
20
2
78
65
28
95
97
29
86
11
100
27
104
46
47
70
14
63
50
39
99
31
92
85
93
52
59
79
83
96
101
56
42
90
69
64
82
41
35
24
87
18
13
3
12
44
36
26
88
45
34
58
40
74
66
102
51
80
68
67
48
5
21
76
53
89
15
72
32
22
49
38
4
6
84
23
60
91
19
25
75
10
62
73
71
37
94
7
103
77
43
105
30
54
61
8
9
57
16

> <PUBCHEM_MMFF94_PARTIAL_CHARGES>
26
1 -0.56
10 -0.1
11 -0.2
12 -0.2
13 0.28
14 0.21
15 0.3
16 0.63
17 0.26
18 0.26
2 -0.52
22 0.1
23 0.1
24 0.1
25 0.1
26 0.1
3 -0.68
30 0.36
37 0.37
38 0.4
4 -0.57
5 -0.84
6 -0.73
7 0.27
8 0.28
9 0.28

> <PUBCHEM_EFFECTIVE_ROTOR_COUNT>
8.4

> <PUBCHEM_PHARMACOPHORE_FEATURES>
10
1 1 acceptor
1 2 acceptor
1 3 acceptor
1 3 donor
1 4 acceptor
1 5 cation
1 5 donor
1 6 donor
4 2 14 17 18 rings
5 1 7 8 9 13 rings

> <PUBCHEM_HEAVY_ATOM_COUNT>
18

> <PUBCHEM_ATOM_DEF_STEREO_COUNT>
3

> <PUBCHEM_ATOM_UDEF_STEREO_COUNT>
0

> <PUBCHEM_BOND_DEF_STEREO_COUNT>
0

> <PUBCHEM_BOND_UDEF_STEREO_COUNT>
0

> <PUBCHEM_ISOTOPIC_ATOM_COUNT>
0

> <PUBCHEM_COMPONENT_COUNT>
1

> <PUBCHEM_CACTVS_TAUTO_COUNT>
2

> <PUBCHEM_CONFORMER_ID>
048099AA00000001

> <PUBCHEM_MMFF94_ENERGY>
36.3131

> <PUBCHEM_FEATURE_SELFOVERLAP>
50.748

> <PUBCHEM_SHAPE_FINGERPRINT>
11140007 195 14996559552043164354
11543360 7 18342175553564325771
12173636 292 18121218942081300934
122479 349 18261679271753993922
12403259 118 18336536153861431337
12596602 18 13479430378043916796
12633257 1 16009585931809837712
13583140 156 17967822630226130747
14026960 21 18334867133627750377
14115302 16 17775563122442156558
14123255 52 18339363066717573972
14251764 38 18114180787795475165
14251764 75 18195827368430716448
14252887 29 12179847191198998552
15342168 16 17895762931696328180
15848702 105 18342740753568797011
17134986 127 18342183284421062798
17980427 23 17914583225590912922
18186145 218 18058744497974829639
21041028 32 17463671114527141242
21250096 35 8142086446692349053
21475661 188 17749105578232326133
21524375 3 18410013238606027546
22620623 9 16700889591049401751
23227448 37 18338238292134159735
23557571 272 17130980044249148378
23559900 14 18337955558706339691
3060560 45 18270968934202886182
33382 64 11023810826106900949
351380 180 18187645782253903856
43658 37 18341894142553364112
44154327 71 18187370977720451228
474 4 18187367661593877884
49207404 50 17969238848373259201
4990 188 15267336314938446355
56616090 13 18335138725974559313
6333272 397 18335707147531582451
633830 44 18337110060440052239
88748 71 10807399397908458396
94968 8 10159700192404087948
960060 61 11959729378012159721

> <PUBCHEM_SHAPE_MULTIPOLES>
336.99
9.13
2.49
1.17
6.65
0.5
-0.1
6.23
0.51
-1.65
0.59
-0.26
-0.24
-0.4

> <PUBCHEM_SHAPE_SELFOVERLAP>
691.943

> <PUBCHEM_SHAPE_VOLUME>
196.5

> <PUBCHEM_COORDINATE_TYPE>
2
5
10

$$$$
