75537067
  -OEChem-12032416323D

 47 50  0     1  0  0  0  0  0999 V2000
   -6.2460    1.4099    0.0111 O   0  0  0  0  0  0  0  0  0  0  0  0
    1.9852   -2.7089   -0.7035 O   0  0  0  0  0  0  0  0  0  0  0  0
   -2.5195   -0.5206    0.1222 N   0  0  1  0  0  0  0  0  0  0  0  0
    0.0274   -1.7139    0.1308 N   0  0  0  0  0  0  0  0  0  0  0  0
    2.0017   -1.0375    0.9609 N   0  0  0  0  0  0  0  0  0  0  0  0
    4.8227    2.4949    0.1495 N   0  0  0  0  0  0  0  0  0  0  0  0
   -0.3213   -0.7955    1.1946 C   0  0  2  0  0  0  0  0  0  0  0  0
   -1.3744    0.2017    0.7125 C   0  0  0  0  0  0  0  0  0  0  0  0
   -3.5586    0.4213   -0.2870 C   0  0  0  0  0  0  0  0  0  0  0  0
   -2.0883   -1.3421   -1.0270 C   0  0  0  0  0  0  0  0  0  0  0  0
    1.0169   -0.1748    1.5908 C   0  0  0  0  0  0  0  0  0  0  0  0
   -1.0274   -2.3664   -0.6165 C   0  0  0  0  0  0  0  0  0  0  0  0
   -3.9780    1.3206    0.8801 C   0  0  0  0  0  0  0  0  0  0  0  0
   -4.7756   -0.3320   -0.8317 C   0  0  0  0  0  0  0  0  0  0  0  0
    1.4099   -1.9233    0.0381 C   0  0  0  0  0  0  0  0  0  0  0  0
   -5.1527    2.2033    0.4731 C   0  0  0  0  0  0  0  0  0  0  0  0
   -5.9062    0.6423   -1.1437 C   0  0  0  0  0  0  0  0  0  0  0  0
    3.4214   -0.8643    1.1753 C   0  0  0  0  0  0  0  0  0  0  0  0
    3.9889    0.2321    0.3210 C   0  0  0  0  0  0  0  0  0  0  0  0
    4.2080    0.0404   -1.0386 C   0  0  0  0  0  0  0  0  0  0  0  0
    4.3102    1.4667    0.8619 C   0  0  0  0  0  0  0  0  0  0  0  0
    4.7341    1.0746   -1.8049 C   0  0  0  0  0  0  0  0  0  0  0  0
    5.0218    2.2715   -1.1690 C   0  0  0  0  0  0  0  0  0  0  0  0
   -0.7147   -1.4000    2.0225 H   0  0  0  0  0  0  0  0  0  0  0  0
   -1.6535    0.7726    1.6022 H   0  0  0  0  0  0  0  0  0  0  0  0
   -0.9427    0.8977   -0.0193 H   0  0  0  0  0  0  0  0  0  0  0  0
   -3.1749    1.0712   -1.0876 H   0  0  0  0  0  0  0  0  0  0  0  0
   -1.6881   -0.7027   -1.8251 H   0  0  0  0  0  0  0  0  0  0  0  0
   -2.9063   -1.9323   -1.4474 H   0  0  0  0  0  0  0  0  0  0  0  0
    1.1424    0.8401    1.2000 H   0  0  0  0  0  0  0  0  0  0  0  0
    1.1613   -0.1697    2.6753 H   0  0  0  0  0  0  0  0  0  0  0  0
   -1.4619   -3.1323    0.0364 H   0  0  0  0  0  0  0  0  0  0  0  0
   -0.6004   -2.8683   -1.4905 H   0  0  0  0  0  0  0  0  0  0  0  0
   -3.1804    1.9972    1.2005 H   0  0  0  0  0  0  0  0  0  0  0  0
   -4.2745    0.7035    1.7381 H   0  0  0  0  0  0  0  0  0  0  0  0
   -5.1257   -1.0589   -0.0873 H   0  0  0  0  0  0  0  0  0  0  0  0
   -4.5629   -0.8695   -1.7599 H   0  0  0  0  0  0  0  0  0  0  0  0
   -5.5016    2.7801    1.3357 H   0  0  0  0  0  0  0  0  0  0  0  0
   -4.8652    2.9173   -0.3077 H   0  0  0  0  0  0  0  0  0  0  0  0
   -5.6372    1.3180   -1.9642 H   0  0  0  0  0  0  0  0  0  0  0  0
   -6.8001    0.0898   -1.4503 H   0  0  0  0  0  0  0  0  0  0  0  0
    3.9304   -1.8039    0.9285 H   0  0  0  0  0  0  0  0  0  0  0  0
    3.5936   -0.6765    2.2412 H   0  0  0  0  0  0  0  0  0  0  0  0
    3.9789   -0.9093   -1.5130 H   0  0  0  0  0  0  0  0  0  0  0  0
    4.1602    1.6782    1.9161 H   0  0  0  0  0  0  0  0  0  0  0  0
    4.9142    0.9475   -2.8662 H   0  0  0  0  0  0  0  0  0  0  0  0
    5.4338    3.1092   -1.7221 H   0  0  0  0  0  0  0  0  0  0  0  0
  1 16  1  0  0  0  0
  1 17  1  0  0  0  0
  2 15  2  0  0  0  0
  3  8  1  0  0  0  0
  3  9  1  0  0  0  0
  3 10  1  0  0  0  0
  4  7  1  0  0  0  0
  4 12  1  0  0  0  0
  4 15  1  0  0  0  0
  5 11  1  0  0  0  0
  5 15  1  0  0  0  0
  5 18  1  0  0  0  0
  6 21  1  0  0  0  0
  6 23  2  0  0  0  0
  7  8  1  0  0  0  0
  7 11  1  0  0  0  0
  7 24  1  0  0  0  0
  8 25  1  0  0  0  0
  8 26  1  0  0  0  0
  9 13  1  0  0  0  0
  9 14  1  0  0  0  0
  9 27  1  0  0  0  0
 10 12  1  0  0  0  0
 10 28  1  0  0  0  0
 10 29  1  0  0  0  0
 11 30  1  0  0  0  0
 11 31  1  0  0  0  0
 12 32  1  0  0  0  0
 12 33  1  0  0  0  0
 13 16  1  0  0  0  0
 13 34  1  0  0  0  0
 13 35  1  0  0  0  0
 14 17  1  0  0  0  0
 14 36  1  0  0  0  0
 14 37  1  0  0  0  0
 16 38  1  0  0  0  0
 16 39  1  0  0  0  0
 17 40  1  0  0  0  0
 17 41  1  0  0  0  0
 18 19  1  0  0  0  0
 18 42  1  0  0  0  0
 18 43  1  0  0  0  0
 19 20  1  0  0  0  0
 19 21  2  0  0  0  0
 20 22  2  0  0  0  0
 20 44  1  0  0  0  0
 21 45  1  0  0  0  0
 22 23  1  0  0  0  0
 22 46  1  0  0  0  0
 23 47  1  0  0  0  0
M  END
> <PUBCHEM_COMPOUND_CID>
75537067

> <PUBCHEM_CONFORMER_RMSD>
0.8

> <PUBCHEM_CONFORMER_DIVERSEORDER>
1
6
28
20
31
40
54
48
10
37
27
22
53
21
46
44
25
32
51
49
38
5
35
33
13
15
36
24
52
4
17
50
7
12
8
34
30
19
45
23
26
29
43
3
41
16
11
47
18
14
9
2
39
42

> <PUBCHEM_MMFF94_PARTIAL_CHARGES>
25
1 -0.56
10 0.27
11 0.3
12 0.3
15 0.69
16 0.28
17 0.28
18 0.44
19 -0.14
2 -0.57
20 -0.15
21 0.16
22 -0.15
23 0.16
3 -0.81
4 -0.66
44 0.15
45 0.15
46 0.15
47 0.15
5 -0.66
6 -0.62
7 0.3
8 0.27
9 0.27

> <PUBCHEM_EFFECTIVE_ROTOR_COUNT>
5.4

> <PUBCHEM_PHARMACOPHORE_FEATURES>
8
1 1 acceptor
1 2 acceptor
1 3 cation
1 6 acceptor
5 4 5 7 11 15 rings
6 1 9 13 14 16 17 rings
6 3 4 7 8 10 12 rings
6 6 19 20 21 22 23 rings

> <PUBCHEM_HEAVY_ATOM_COUNT>
23

> <PUBCHEM_ATOM_DEF_STEREO_COUNT>
1

> <PUBCHEM_ATOM_UDEF_STEREO_COUNT>
0

> <PUBCHEM_BOND_DEF_STEREO_COUNT>
0

> <PUBCHEM_BOND_UDEF_STEREO_COUNT>
0

> <PUBCHEM_ISOTOPIC_ATOM_COUNT>
0

> <PUBCHEM_COMPONENT_COUNT>
1

> <PUBCHEM_CACTVS_TAUTO_COUNT>
1

> <PUBCHEM_CONFORMER_ID>
04809AAB00000001

> <PUBCHEM_MMFF94_ENERGY>
53.032

> <PUBCHEM_FEATURE_SELFOVERLAP>
40.693

> <PUBCHEM_SHAPE_FINGERPRINT>
10319926 262 12902086670916814968
10498660 4 18271249434268992904
10554248 39 18124576614896498151
10591671 39 18340768234715911519
10670039 82 18270968951129612232
11796584 16 12463564071955445517
11961588 58 18201716296852332510
12596602 18 17676207949295394545
12633257 1 15358260515033911204
12839892 36 11891326543772228793
12892183 10 12685078320454101374
13782708 43 11887372722109121101
13955234 65 17605268484856886323
1420 369 9727639405682368796
14211702 104 10807346647716442421
14251751 18 9223234026992517535
14251764 38 17824251601574732181
14251764 75 17170698823745180404
14528608 73 18342173375541230917
14774955 27 18334011692059037997
14790565 3 18341896238866793233
14840074 17 18186243930957165949
14848178 5 10735882737900336684
15163728 17 18335997457810013230
15183329 4 15770062709376354593
15188451 53 9150900438187590236
15210252 30 18334579092232529120
15342168 16 18334294266542238271
15475509 35 10015571805450607453
15475509 8 15482400781126509481
15510800 12 12895079539485665252
15961568 22 18114184103409734509
17857418 61 9439396926518597265
17959699 21 18413672417788072370
18335252 114 18335696105613704972
193927 3 11600009872482125340
1979834 28 13551187753867796065
20567600 234 16298394582331454605
20567600 9 18341060614203097492
20626108 58 11527958833202743986
20715895 44 18413386558045729400
21033648 29 15647319836710865350
21637258 2 12103566355402247342
22061861 79 14476958982713663609
22079108 93 17095525110510635635
22849339 104 17345748724239314623
23366157 5 18053384293238956423
23559900 14 18200027322634052994
245318 6 17751375073179616892
25122255 55 12679166255153886477
270888 7 18041565870606519500
2838139 119 18334570231097156469
3004659 81 17987796294222086734
33382 64 12319454415559849559
3472631 163 18339081591972985316
34797466 226 16056582292880347609
351380 3 10663824087247764796
3886686 26 11029675530392001052
465052 167 8862939511051270152
474 4 18113618993118820138
5104073 3 17531243984843938538
543368 44 18410571816847555645
56616090 163 18412832390725590687
56633871 153 11314296269915156584
59682541 52 16056602010711570493
6034566 193 18116449217437076356
633830 44 18187080672385899314
7237137 82 18270672199360262663
76465 3 9655576305380355315
7970288 3 10087102733973406756
960060 61 15482675701709124464

> <PUBCHEM_SHAPE_MULTIPOLES>
441.67
14.15
2.6
1.43
7.92
0.12
-0.1
-11.9
-3.83
-1.23
-0.37
-0.92
-0.12
-1.32

> <PUBCHEM_SHAPE_SELFOVERLAP>
937.376

> <PUBCHEM_SHAPE_VOLUME>
245.8

> <PUBCHEM_COORDINATE_TYPE>
2
5
10

$$$$
