7144173
  -OEChem-12032416273D

 47 51  0     1  0  0  0  0  0999 V2000
   -2.8176   -2.6925    0.9331 S   0  0  0  0  0  0  0  0  0  0  0  0
    2.7271    1.5488   -0.8544 S   0  0  0  0  0  0  0  0  0  0  0  0
   -4.2458   -2.6466    1.1601 O   0  0  0  0  0  0  0  0  0  0  0  0
   -1.8746   -2.7246    2.0299 O   0  0  0  0  0  0  0  0  0  0  0  0
   -3.2761    3.3308    0.9116 O   0  0  0  0  0  0  0  0  0  0  0  0
   -2.3866   -1.4214   -0.1281 N   0  0  2  0  0  0  0  0  0  0  0  0
   -1.9833    1.6989   -0.1618 N   0  0  0  0  0  0  0  0  0  0  0  0
   -2.9885    0.1626   -1.9527 C   0  0  1  0  0  0  0  0  0  0  0  0
   -0.6365   -0.0937   -1.2986 C   0  0  2  0  0  0  0  0  0  0  0  0
   -1.5690    0.1034   -2.4912 C   0  0  0  0  0  0  0  0  0  0  0  0
   -3.3534   -1.1408   -1.2257 C   0  0  0  0  0  0  0  0  0  0  0  0
   -0.9719   -1.4273   -0.6018 C   0  0  0  0  0  0  0  0  0  0  0  0
   -3.1148    1.3875   -1.0462 C   0  0  0  0  0  0  0  0  0  0  0  0
   -0.7271    1.0746   -0.3094 C   0  0  0  0  0  0  0  0  0  0  0  0
    0.3321    1.5051    0.4280 C   0  0  0  0  0  0  0  0  0  0  0  0
   -2.2059    2.7425    0.7544 C   0  0  0  0  0  0  0  0  0  0  0  0
    0.1352    2.5759    1.3887 C   0  0  0  0  0  0  0  0  0  0  0  0
   -1.0468    3.1634    1.5718 C   0  0  0  0  0  0  0  0  0  0  0  0
    1.6285    0.9020    0.2767 C   0  0  0  0  0  0  0  0  0  0  0  0
   -2.4753   -4.0753   -0.1248 C   0  0  0  0  0  0  0  0  0  0  0  0
    2.1507   -0.1808    0.9427 C   0  0  0  0  0  0  0  0  0  0  0  0
    3.4867   -0.5011    0.5264 C   0  0  0  0  0  0  0  0  0  0  0  0
    3.9318    0.3777   -0.4661 C   0  0  0  0  0  0  0  0  0  0  0  0
    4.3649   -1.5249    0.9570 C   0  0  0  0  0  0  0  0  0  0  0  0
    5.2167    0.2601   -1.0317 C   0  0  0  0  0  0  0  0  0  0  0  0
    5.6402   -1.6442    0.3980 C   0  0  0  0  0  0  0  0  0  0  0  0
    6.0593   -0.7602   -0.5859 C   0  0  0  0  0  0  0  0  0  0  0  0
   -3.6907    0.2797   -2.7877 H   0  0  0  0  0  0  0  0  0  0  0  0
    0.3753   -0.1756   -1.7093 H   0  0  0  0  0  0  0  0  0  0  0  0
   -1.3190    1.0246   -3.0326 H   0  0  0  0  0  0  0  0  0  0  0  0
   -1.4636   -0.7248   -3.2026 H   0  0  0  0  0  0  0  0  0  0  0  0
   -4.3657   -1.0467   -0.8185 H   0  0  0  0  0  0  0  0  0  0  0  0
   -3.3507   -1.9665   -1.9453 H   0  0  0  0  0  0  0  0  0  0  0  0
   -0.8189   -2.2440   -1.3160 H   0  0  0  0  0  0  0  0  0  0  0  0
   -0.3008   -1.5884    0.2467 H   0  0  0  0  0  0  0  0  0  0  0  0
   -3.2440    2.2762   -1.6798 H   0  0  0  0  0  0  0  0  0  0  0  0
   -4.0263    1.3200   -0.4386 H   0  0  0  0  0  0  0  0  0  0  0  0
    0.9866    2.8933    1.9839 H   0  0  0  0  0  0  0  0  0  0  0  0
   -1.1833    3.9580    2.2955 H   0  0  0  0  0  0  0  0  0  0  0  0
   -1.4054   -4.1449   -0.3225 H   0  0  0  0  0  0  0  0  0  0  0  0
   -2.7871   -4.9755    0.4124 H   0  0  0  0  0  0  0  0  0  0  0  0
   -3.0534   -4.0020   -1.0456 H   0  0  0  0  0  0  0  0  0  0  0  0
    1.6098   -0.7304    1.7043 H   0  0  0  0  0  0  0  0  0  0  0  0
    4.0506   -2.2253    1.7269 H   0  0  0  0  0  0  0  0  0  0  0  0
    5.5534    0.9478   -1.8023 H   0  0  0  0  0  0  0  0  0  0  0  0
    6.3048   -2.4339    0.7369 H   0  0  0  0  0  0  0  0  0  0  0  0
    7.0527   -0.8609   -1.0149 H   0  0  0  0  0  0  0  0  0  0  0  0
  1  3  2  0  0  0  0
  1  4  2  0  0  0  0
  1  6  1  0  0  0  0
  1 20  1  0  0  0  0
  2 19  1  0  0  0  0
  2 23  1  0  0  0  0
  5 16  2  0  0  0  0
  6 11  1  0  0  0  0
  6 12  1  0  0  0  0
  7 13  1  0  0  0  0
  7 14  1  0  0  0  0
  7 16  1  0  0  0  0
  8 10  1  0  0  0  0
  8 11  1  0  0  0  0
  8 13  1  0  0  0  0
  8 28  1  0  0  0  0
  9 10  1  0  0  0  0
  9 12  1  0  0  0  0
  9 14  1  0  0  0  0
  9 29  1  0  0  0  0
 10 30  1  0  0  0  0
 10 31  1  0  0  0  0
 11 32  1  0  0  0  0
 11 33  1  0  0  0  0
 12 34  1  0  0  0  0
 12 35  1  0  0  0  0
 13 36  1  0  0  0  0
 13 37  1  0  0  0  0
 14 15  2  0  0  0  0
 15 17  1  0  0  0  0
 15 19  1  0  0  0  0
 16 18  1  0  0  0  0
 17 18  2  0  0  0  0
 17 38  1  0  0  0  0
 18 39  1  0  0  0  0
 19 21  2  0  0  0  0
 20 40  1  0  0  0  0
 20 41  1  0  0  0  0
 20 42  1  0  0  0  0
 21 22  1  0  0  0  0
 21 43  1  0  0  0  0
 22 23  1  0  0  0  0
 22 24  2  0  0  0  0
 23 25  2  0  0  0  0
 24 26  1  0  0  0  0
 24 44  1  0  0  0  0
 25 27  1  0  0  0  0
 25 45  1  0  0  0  0
 26 27  2  0  0  0  0
 26 46  1  0  0  0  0
 27 47  1  0  0  0  0
M  END
> <PUBCHEM_COMPOUND_CID>
7144173

> <PUBCHEM_CONFORMER_RMSD>
0.6

> <PUBCHEM_CONFORMER_DIVERSEORDER>
1
6
4
5
3
2

> <PUBCHEM_MMFF94_PARTIAL_CHARGES>
31
1 1.33
11 0.36
12 0.36
13 0.3
14 -0.03
15 0.05
16 0.62
17 -0.15
18 -0.14
19 -0.01
2 -0.08
20 0.11
21 -0.15
23 0.04
24 -0.15
25 -0.15
26 -0.15
27 -0.15
3 -0.65
38 0.15
39 0.15
4 -0.65
43 0.15
44 0.15
45 0.15
46 0.15
47 0.15
5 -0.57
6 -0.85
7 -0.47
9 0.14

> <PUBCHEM_EFFECTIVE_ROTOR_COUNT>
3

> <PUBCHEM_PHARMACOPHORE_FEATURES>
8
1 3 acceptor
1 4 acceptor
1 5 acceptor
5 2 19 21 22 23 rings
6 22 23 24 25 26 27 rings
6 6 8 9 10 11 12 rings
6 7 14 15 16 17 18 rings
6 7 8 9 10 13 14 rings

> <PUBCHEM_HEAVY_ATOM_COUNT>
27

> <PUBCHEM_ATOM_DEF_STEREO_COUNT>
2

> <PUBCHEM_ATOM_UDEF_STEREO_COUNT>
0

> <PUBCHEM_BOND_DEF_STEREO_COUNT>
0

> <PUBCHEM_BOND_UDEF_STEREO_COUNT>
0

> <PUBCHEM_ISOTOPIC_ATOM_COUNT>
0

> <PUBCHEM_COMPONENT_COUNT>
1

> <PUBCHEM_CACTVS_TAUTO_COUNT>
1

> <PUBCHEM_CONFORMER_ID>
006D02ED00000001

> <PUBCHEM_MMFF94_ENERGY>
69.2471

> <PUBCHEM_FEATURE_SELFOVERLAP>
42.258

> <PUBCHEM_SHAPE_FINGERPRINT>
107951 10 18126010364572894045
11552529 35 18336263543576387366
11595378 159 10231746821337579780
12156800 1 17393659831592293555
12160290 23 17773613632170112992
12236239 1 18266179431630031592
12363563 72 17916854820286477292
12422481 6 17274282576924848615
12553582 1 18129660928061274406
12633257 1 18057343870875665483
12714826 92 18188202229611131719
12760667 363 18411418448900403935
12788726 201 18199740358661939641
12969540 37 17329710336776465055
13103583 49 17985571045859237659
13135754 10 18057073295966347715
13140716 1 17989198244192784424
13631057 29 18262801899454997598
13726171 33 17843434940359788080
14114206 34 18194656234091199773
14251740 79 18113617893443993650
14251757 5 18409728456414730602
14251764 30 17751935854411917403
14844126 61 17774142518879477134
14866123 147 18341051835559009011
16752209 62 18130774625802375420
20101258 96 18201443601258864576
20775438 99 16831171939322112615
20775530 9 17899414469805207443
22393880 68 17676476260155151030
23559900 14 18189603020267525109
23598288 3 18272660064358299452
3383291 50 18130774647467512543
3411729 13 17337320671460673505
3737641 26 17974859676310745578
3759504 43 18266463105218541181
4058900 60 17827631449348470461
4073 2 18270680862821046714
437815 12 18266741458086382603
445580 42 18412823556082831888
484985 159 18408888412499544651
4921388 177 18334299742936660062
497634 4 18186526509850578934
5104073 3 18412257321265523560
59755656 520 18189340069479370113
70251023 43 17912904352459857407
9925002 15 8500927537047268897
9981440 41 17773594914596577359

> <PUBCHEM_SHAPE_MULTIPOLES>
535.78
9.99
4.06
1.77
15.77
0.77
0.35
5.44
0.97
-5.36
-2.37
-1.26
-0.05
-0.11

> <PUBCHEM_SHAPE_SELFOVERLAP>
1159.822

> <PUBCHEM_SHAPE_VOLUME>
295.1

> <PUBCHEM_COORDINATE_TYPE>
2
5
10

$$$$
