75536498
  -OEChem-12032416343D

 46 47  0     1  0  0  0  0  0999 V2000
    2.5350    1.1658    0.6707 O   0  0  0  0  0  0  0  0  0  0  0  0
    1.6376   -1.4561   -1.6153 O   0  0  0  0  0  0  0  0  0  0  0  0
   -6.2033   -1.7525    0.4552 O   0  0  0  0  0  0  0  0  0  0  0  0
    5.9876   -1.6605    0.1207 O   0  0  0  0  0  0  0  0  0  0  0  0
   -0.6753    0.5573   -0.9276 N   0  0  0  0  0  0  0  0  0  0  0  0
   -4.6079   -0.0640    0.4899 N   0  0  0  0  0  0  0  0  0  0  0  0
    5.2683    0.5528    0.0186 N   0  0  0  0  0  0  0  0  0  0  0  0
    0.5449    0.2178   -0.2138 C   0  0  1  0  0  0  0  0  0  0  0  0
   -1.8246    0.5431   -0.0259 C   0  0  0  0  0  0  0  0  0  0  0  0
    1.7068   -0.1310   -1.1254 C   0  0  1  0  0  0  0  0  0  0  0  0
    2.8874    0.0652   -0.1840 C   0  0  1  0  0  0  0  0  0  0  0  0
   -2.3071   -0.8970    0.1895 C   0  0  0  0  0  0  0  0  0  0  0  0
   -2.9549    1.4072   -0.6001 C   0  0  0  0  0  0  0  0  0  0  0  0
    1.1176    1.3881    0.5689 C   0  0  0  0  0  0  0  0  0  0  0  0
   -3.5669   -0.9264    1.0530 C   0  0  0  0  0  0  0  0  0  0  0  0
   -4.2032    1.3316    0.2791 C   0  0  0  0  0  0  0  0  0  0  0  0
    4.1870    0.3721   -0.9066 C   0  0  0  0  0  0  0  0  0  0  0  0
   -5.8768   -0.5832    0.2356 C   0  0  0  0  0  0  0  0  0  0  0  0
   -6.8918    0.3677   -0.3467 C   0  0  0  0  0  0  0  0  0  0  0  0
    6.0840   -0.4836    0.4584 C   0  0  0  0  0  0  0  0  0  0  0  0
    7.1556   -0.0143    1.4058 C   0  0  0  0  0  0  0  0  0  0  0  0
    0.3911   -0.6354    0.4585 H   0  0  0  0  0  0  0  0  0  0  0  0
   -1.5573    0.9786    0.9461 H   0  0  0  0  0  0  0  0  0  0  0  0
    1.7612    0.5585   -1.9770 H   0  0  0  0  0  0  0  0  0  0  0  0
    3.0235   -0.8157    0.4573 H   0  0  0  0  0  0  0  0  0  0  0  0
   -0.8274   -0.0960   -1.6953 H   0  0  0  0  0  0  0  0  0  0  0  0
   -1.5432   -1.5145    0.6731 H   0  0  0  0  0  0  0  0  0  0  0  0
   -2.5327   -1.3650   -0.7783 H   0  0  0  0  0  0  0  0  0  0  0  0
   -3.2102    1.0643   -1.6118 H   0  0  0  0  0  0  0  0  0  0  0  0
   -2.6301    2.4512   -0.6852 H   0  0  0  0  0  0  0  0  0  0  0  0
    0.9775    2.3440    0.0509 H   0  0  0  0  0  0  0  0  0  0  0  0
    0.6942    1.4756    1.5739 H   0  0  0  0  0  0  0  0  0  0  0  0
   -3.9241   -1.9567    1.1485 H   0  0  0  0  0  0  0  0  0  0  0  0
   -3.3490   -0.5604    2.0634 H   0  0  0  0  0  0  0  0  0  0  0  0
   -4.0006    1.7620    1.2671 H   0  0  0  0  0  0  0  0  0  0  0  0
   -4.9996    1.9253   -0.1729 H   0  0  0  0  0  0  0  0  0  0  0  0
    4.4399   -0.4332   -1.6046 H   0  0  0  0  0  0  0  0  0  0  0  0
    4.1038    1.3083   -1.4693 H   0  0  0  0  0  0  0  0  0  0  0  0
    1.5865   -2.0608   -0.8558 H   0  0  0  0  0  0  0  0  0  0  0  0
    5.4378    1.4917    0.3677 H   0  0  0  0  0  0  0  0  0  0  0  0
   -6.5460    0.7446   -1.3129 H   0  0  0  0  0  0  0  0  0  0  0  0
   -7.0764    1.1940    0.3448 H   0  0  0  0  0  0  0  0  0  0  0  0
   -7.8367   -0.1613   -0.5058 H   0  0  0  0  0  0  0  0  0  0  0  0
    6.7286    0.6461    2.1660 H   0  0  0  0  0  0  0  0  0  0  0  0
    7.6080   -0.8754    1.9054 H   0  0  0  0  0  0  0  0  0  0  0  0
    7.9252    0.5240    0.8461 H   0  0  0  0  0  0  0  0  0  0  0  0
  1 11  1  0  0  0  0
  1 14  1  0  0  0  0
  2 10  1  0  0  0  0
  2 39  1  0  0  0  0
  3 18  2  0  0  0  0
  4 20  2  0  0  0  0
  5  8  1  0  0  0  0
  5  9  1  0  0  0  0
  5 26  1  0  0  0  0
  6 15  1  0  0  0  0
  6 16  1  0  0  0  0
  6 18  1  0  0  0  0
  7 17  1  0  0  0  0
  7 20  1  0  0  0  0
  7 40  1  0  0  0  0
  8 10  1  0  0  0  0
  8 14  1  0  0  0  0
  8 22  1  0  0  0  0
  9 12  1  0  0  0  0
  9 13  1  0  0  0  0
  9 23  1  0  0  0  0
 10 11  1  0  0  0  0
 10 24  1  0  0  0  0
 11 17  1  0  0  0  0
 11 25  1  0  0  0  0
 12 15  1  0  0  0  0
 12 27  1  0  0  0  0
 12 28  1  0  0  0  0
 13 16  1  0  0  0  0
 13 29  1  0  0  0  0
 13 30  1  0  0  0  0
 14 31  1  0  0  0  0
 14 32  1  0  0  0  0
 15 33  1  0  0  0  0
 15 34  1  0  0  0  0
 16 35  1  0  0  0  0
 16 36  1  0  0  0  0
 17 37  1  0  0  0  0
 17 38  1  0  0  0  0
 18 19  1  0  0  0  0
 19 41  1  0  0  0  0
 19 42  1  0  0  0  0
 19 43  1  0  0  0  0
 20 21  1  0  0  0  0
 21 44  1  0  0  0  0
 21 45  1  0  0  0  0
 21 46  1  0  0  0  0
M  END
> <PUBCHEM_COMPOUND_CID>
75536498

> <PUBCHEM_CONFORMER_RMSD>
1

> <PUBCHEM_CONFORMER_DIVERSEORDER>
1
62
85
54
28
30
67
84
71
86
60
6
31
63
88
36
55
38
17
65
78
47
57
68
74
18
73
13
41
49
90
2
91
89
64
43
24
11
44
22
66
83
50
70
27
79
77
72
82
61
25
87
80
12
23
53
9
32
39
29
75
26
33
76
14
69
52
59
46
37
56
21
45
3
35
34
15
4
16
5
58
51
42
20
81
40
19
10
8
7
48

> <PUBCHEM_MMFF94_PARTIAL_CHARGES>
22
1 -0.56
10 0.28
11 0.28
14 0.28
15 0.3
16 0.3
17 0.3
18 0.57
19 0.06
2 -0.68
20 0.57
21 0.06
26 0.36
3 -0.57
39 0.4
4 -0.57
40 0.37
5 -0.9
6 -0.66
7 -0.73
8 0.27
9 0.27

> <PUBCHEM_EFFECTIVE_ROTOR_COUNT>
8.2

> <PUBCHEM_PHARMACOPHORE_FEATURES>
10
1 1 acceptor
1 2 acceptor
1 2 donor
1 3 acceptor
1 4 acceptor
1 5 cation
1 5 donor
1 7 donor
5 1 8 10 11 14 rings
6 6 9 12 13 15 16 rings

> <PUBCHEM_HEAVY_ATOM_COUNT>
21

> <PUBCHEM_ATOM_DEF_STEREO_COUNT>
3

> <PUBCHEM_ATOM_UDEF_STEREO_COUNT>
0

> <PUBCHEM_BOND_DEF_STEREO_COUNT>
0

> <PUBCHEM_BOND_UDEF_STEREO_COUNT>
0

> <PUBCHEM_ISOTOPIC_ATOM_COUNT>
0

> <PUBCHEM_COMPONENT_COUNT>
1

> <PUBCHEM_CACTVS_TAUTO_COUNT>
2

> <PUBCHEM_CONFORMER_ID>
0480987200000001

> <PUBCHEM_MMFF94_ENERGY>
32.4037

> <PUBCHEM_FEATURE_SELFOVERLAP>
50.747

> <PUBCHEM_SHAPE_FINGERPRINT>
10 15 18131064966018833464
10354089 29 16343708733276796692
106641 1 17561078146316099858
11315181 36 18334017203029904793
11646440 116 16702306767005755882
11719270 70 18273496749857811694
117890 112 11671780468769222768
11796584 16 17749113309357952050
12236239 1 16660368103646034333
12596602 18 15769784524202583607
12670543 26 12107781896268884528
12916748 109 14117807907467704728
13073987 5 17846224293330125817
13288520 33 18186802487538409213
13668630 136 15574716906253614699
13885169 127 18187641358395598885
13914758 101 16877655734926824389
14123256 10 11458423523186350106
14251752 14 17167856453016174117
14251764 18 18333731338701709812
14251764 46 18410572885639836361
14849402 71 16056023783764985536
15183329 4 17167865244967268466
15716309 27 18412824689764306788
17834072 8 13045945707359402224
18222031 100 14634868656967644364
19489759 90 18260831497387745945
200 152 17346604062950012713
20645477 56 9727637181416765169
20735858 18 17988922271585488102
21130935 74 18130792217967898722
21150785 3 14345801552430433886
21267235 1 13406797714197689677
21623969 137 18131635565061284006
21637258 2 17313096454498721098
22224240 67 17561358496169725478
23035841 295 16950280710844368649
23402539 116 18040151807878319293
23559900 14 18189334735800349657
26918003 58 18202286922423865137
29717793 49 16950004733715947254
300161 21 13470689217711238588
4072396 5 18060136518930542070
4340502 62 17846781797871943974
445580 37 10809333421950742391
465052 167 18412546505460603566
5104073 3 17702112369461239106
559249 180 17749390386688954387
59682541 35 18343296003521524426
59755656 215 16805601447586706482
59755656 520 16660641890937715075
7495541 125 18335988652863539204

> <PUBCHEM_SHAPE_MULTIPOLES>
393.75
18.64
1.41
1.09
5.08
0.16
0.12
4.72
-4.57
-0.78
-0.04
0.94
0.11
0.52

> <PUBCHEM_SHAPE_SELFOVERLAP>
791.711

> <PUBCHEM_SHAPE_VOLUME>
230.9

> <PUBCHEM_COORDINATE_TYPE>
2
5
10

$$$$
