25338986
  -OEChem-12032416193D

 57 60  0     1  0  0  0  0  0999 V2000
   -0.9768   -3.5558   -2.4669 O   0  0  0  0  0  0  0  0  0  0  0  0
   -0.3283   -1.3657   -2.1206 O   0  0  0  0  0  0  0  0  0  0  0  0
    2.8456   -2.6205   -0.3609 O   0  0  0  0  0  0  0  0  0  0  0  0
    4.0976   -0.5713    0.4331 O   0  0  0  0  0  0  0  0  0  0  0  0
   -3.5814    4.2914   -1.7653 O   0  0  0  0  0  0  0  0  0  0  0  0
    0.7150   -1.8862    0.2400 N   0  0  0  0  0  0  0  0  0  0  0  0
   -2.4145   -0.7433    1.9580 N   0  0  0  0  0  0  0  0  0  0  0  0
   -3.1142   -2.8392    1.6324 N   0  0  0  0  0  0  0  0  0  0  0  0
    0.0549   -3.0400   -0.4283 C   0  0  1  0  0  0  0  0  0  0  0  0
   -1.0820   -3.6906    0.3879 C   0  0  0  0  0  0  0  0  0  0  0  0
   -1.4183   -1.3794    1.2785 C   0  0  0  0  0  0  0  0  0  0  0  0
   -0.1352   -0.8117    0.8266 C   0  0  0  0  0  0  0  0  0  0  0  0
   -1.8734   -2.6597    1.0886 C   0  0  0  0  0  0  0  0  0  0  0  0
   -2.4334    0.6314    2.3955 C   0  0  0  0  0  0  0  0  0  0  0  0
   -0.4271   -2.5298   -1.7568 C   0  0  0  0  0  0  0  0  0  0  0  0
   -3.4141   -1.6640    2.1479 C   0  0  0  0  0  0  0  0  0  0  0  0
    2.1068   -1.7565    0.1179 C   0  0  0  0  0  0  0  0  0  0  0  0
   -2.7393    1.6073    1.2866 C   0  0  0  0  0  0  0  0  0  0  0  0
    2.7075   -0.4665    0.6207 C   0  0  0  0  0  0  0  0  0  0  0  0
   -1.8428    2.6355    0.9949 C   0  0  0  0  0  0  0  0  0  0  0  0
   -3.9188    1.4814    0.5528 C   0  0  0  0  0  0  0  0  0  0  0  0
   -1.4793   -3.2079   -3.7610 C   0  0  0  0  0  0  0  0  0  0  0  0
   -2.1259    3.5376   -0.0305 C   0  0  0  0  0  0  0  0  0  0  0  0
   -4.2020    2.3835   -0.4726 C   0  0  0  0  0  0  0  0  0  0  0  0
   -3.3056    3.4116   -0.7642 C   0  0  0  0  0  0  0  0  0  0  0  0
    4.8019    0.5988    0.2547 C   0  0  0  0  0  0  0  0  0  0  0  0
    4.3551    1.7795    0.8481 C   0  0  0  0  0  0  0  0  0  0  0  0
    5.9619    0.6034   -0.5199 C   0  0  0  0  0  0  0  0  0  0  0  0
    5.0681    2.9647    0.6668 C   0  0  0  0  0  0  0  0  0  0  0  0
    6.6751    1.7884   -0.7011 C   0  0  0  0  0  0  0  0  0  0  0  0
    6.2280    2.9691   -0.1077 C   0  0  0  0  0  0  0  0  0  0  0  0
   -4.8051    4.1045   -2.4750 C   0  0  0  0  0  0  0  0  0  0  0  0
    0.8102   -3.8039   -0.6489 H   0  0  0  0  0  0  0  0  0  0  0  0
   -0.6362   -4.3427    1.1495 H   0  0  0  0  0  0  0  0  0  0  0  0
   -1.7327   -4.3165   -0.2313 H   0  0  0  0  0  0  0  0  0  0  0  0
   -0.2849   -0.0459    0.0596 H   0  0  0  0  0  0  0  0  0  0  0  0
    0.3851   -0.3523    1.6704 H   0  0  0  0  0  0  0  0  0  0  0  0
   -1.4616    0.8395    2.8582 H   0  0  0  0  0  0  0  0  0  0  0  0
   -3.1869    0.7325    3.1861 H   0  0  0  0  0  0  0  0  0  0  0  0
   -4.3327   -1.4225    2.6655 H   0  0  0  0  0  0  0  0  0  0  0  0
    2.5043   -0.3586    1.6900 H   0  0  0  0  0  0  0  0  0  0  0  0
    2.2674    0.3536    0.0406 H   0  0  0  0  0  0  0  0  0  0  0  0
   -0.9195    2.7446    1.5574 H   0  0  0  0  0  0  0  0  0  0  0  0
   -4.6338    0.6934    0.7722 H   0  0  0  0  0  0  0  0  0  0  0  0
   -1.8895   -4.1111   -4.2205 H   0  0  0  0  0  0  0  0  0  0  0  0
   -0.6699   -2.8289   -4.3921 H   0  0  0  0  0  0  0  0  0  0  0  0
   -2.2785   -2.4662   -3.6695 H   0  0  0  0  0  0  0  0  0  0  0  0
   -1.4236    4.3361   -0.2536 H   0  0  0  0  0  0  0  0  0  0  0  0
   -5.1366    2.2290   -1.0009 H   0  0  0  0  0  0  0  0  0  0  0  0
    3.4698    1.8116    1.4763 H   0  0  0  0  0  0  0  0  0  0  0  0
    6.3143   -0.3134   -0.9847 H   0  0  0  0  0  0  0  0  0  0  0  0
    4.7234    3.8831    1.1329 H   0  0  0  0  0  0  0  0  0  0  0  0
    7.5785    1.7919   -1.3040 H   0  0  0  0  0  0  0  0  0  0  0  0
    6.7839    3.8915   -0.2478 H   0  0  0  0  0  0  0  0  0  0  0  0
   -4.8619    4.8915   -3.2341 H   0  0  0  0  0  0  0  0  0  0  0  0
   -5.6736    4.2294   -1.8194 H   0  0  0  0  0  0  0  0  0  0  0  0
   -4.8200    3.1467   -3.0060 H   0  0  0  0  0  0  0  0  0  0  0  0
  1 15  1  0  0  0  0
  1 22  1  0  0  0  0
  2 15  2  0  0  0  0
  3 17  2  0  0  0  0
  4 19  1  0  0  0  0
  4 26  1  0  0  0  0
  5 25  1  0  0  0  0
  5 32  1  0  0  0  0
  6  9  1  0  0  0  0
  6 12  1  0  0  0  0
  6 17  1  0  0  0  0
  7 11  1  0  0  0  0
  7 14  1  0  0  0  0
  7 16  1  0  0  0  0
  8 13  1  0  0  0  0
  8 16  2  0  0  0  0
  9 10  1  0  0  0  0
  9 15  1  0  0  0  0
  9 33  1  0  0  0  0
 10 13  1  0  0  0  0
 10 34  1  0  0  0  0
 10 35  1  0  0  0  0
 11 12  1  0  0  0  0
 11 13  2  0  0  0  0
 12 36  1  0  0  0  0
 12 37  1  0  0  0  0
 14 18  1  0  0  0  0
 14 38  1  0  0  0  0
 14 39  1  0  0  0  0
 16 40  1  0  0  0  0
 17 19  1  0  0  0  0
 18 20  2  0  0  0  0
 18 21  1  0  0  0  0
 19 41  1  0  0  0  0
 19 42  1  0  0  0  0
 20 23  1  0  0  0  0
 20 43  1  0  0  0  0
 21 24  2  0  0  0  0
 21 44  1  0  0  0  0
 22 45  1  0  0  0  0
 22 46  1  0  0  0  0
 22 47  1  0  0  0  0
 23 25  2  0  0  0  0
 23 48  1  0  0  0  0
 24 25  1  0  0  0  0
 24 49  1  0  0  0  0
 26 27  2  0  0  0  0
 26 28  1  0  0  0  0
 27 29  1  0  0  0  0
 27 50  1  0  0  0  0
 28 30  2  0  0  0  0
 28 51  1  0  0  0  0
 29 31  2  0  0  0  0
 29 52  1  0  0  0  0
 30 31  1  0  0  0  0
 30 53  1  0  0  0  0
 31 54  1  0  0  0  0
 32 55  1  0  0  0  0
 32 56  1  0  0  0  0
 32 57  1  0  0  0  0
M  END
> <PUBCHEM_COMPOUND_CID>
25338986

> <PUBCHEM_CONFORMER_RMSD>
1.2

> <PUBCHEM_CONFORMER_DIVERSEORDER>
1
60
29
52
59
79
6
8
26
66
62
35
74
41
9
57
20
63
12
38
37
84
56
16
5
31
64
54
14
70
43
82
81
83
86
30
22
69
80
58
85
61
44
48
33
11
71
65
18
49
75
45
78
53
67
77
47
73
34
7
25
3
4
50
21
76
46
17
72
15
55
28
32
51
19
40
2
10
42
24
23
68
13
27
39
36

> <PUBCHEM_MMFF94_PARTIAL_CHARGES>
42
1 -0.43
10 0.18
11 -0.33
12 0.48
13 0.05
14 0.4
15 0.66
16 0.04
17 0.57
18 -0.14
19 0.34
2 -0.57
20 -0.15
21 -0.15
22 0.28
23 -0.15
24 -0.15
25 0.08
26 0.08
27 -0.15
28 -0.15
29 -0.15
3 -0.57
30 -0.15
31 -0.15
32 0.28
4 -0.36
40 0.15
43 0.15
44 0.15
48 0.15
49 0.15
5 -0.36
50 0.15
51 0.15
52 0.15
53 0.15
54 0.15
6 -0.66
7 0.05
8 -0.57
9 0.36

> <PUBCHEM_EFFECTIVE_ROTOR_COUNT>
9.8

> <PUBCHEM_PHARMACOPHORE_FEATURES>
9
1 2 acceptor
1 3 acceptor
1 4 acceptor
1 5 acceptor
3 7 8 16 cation
5 7 8 11 13 16 rings
6 18 20 21 23 24 25 rings
6 26 27 28 29 30 31 rings
6 6 9 10 11 12 13 rings

> <PUBCHEM_HEAVY_ATOM_COUNT>
32

> <PUBCHEM_ATOM_DEF_STEREO_COUNT>
1

> <PUBCHEM_ATOM_UDEF_STEREO_COUNT>
0

> <PUBCHEM_BOND_DEF_STEREO_COUNT>
0

> <PUBCHEM_BOND_UDEF_STEREO_COUNT>
0

> <PUBCHEM_ISOTOPIC_ATOM_COUNT>
0

> <PUBCHEM_COMPONENT_COUNT>
1

> <PUBCHEM_CACTVS_TAUTO_COUNT>
1

> <PUBCHEM_CONFORMER_ID>
0182A46A00000001

> <PUBCHEM_MMFF94_ENERGY>
94.8362

> <PUBCHEM_FEATURE_SELFOVERLAP>
45.793

> <PUBCHEM_SHAPE_FINGERPRINT>
10670039 82 18193577759972771060
13761468 95 18057913327815167424
13911987 19 17775292646702105065
14040221 178 17972316218786037413
15264996 74 18127951174722165356
15513586 35 18053106417460294624
15575132 122 18337680835792147688
18603816 31 12534254939223895052
19309040 13 16771014024660454785
21033648 144 18338809913515859809
21860390 5 17476919056519632022
238 59 17838049300319587971
25019877 29 16699520677862163167
27425 322 17834395615086912853
376196 1 18118401744103331441
4046055 25 16911148207402286398
437795 139 13254227204590381188
4394409 98 15602280941435111577
44249763 50 18199179767389953632
57527585 21 17488751056097346673
5951187 136 17400634927337903541

> <PUBCHEM_SHAPE_MULTIPOLES>
614.26
12.23
6.5
2.56
24.4
1.85
-2.01
15.46
-0.8
-6.51
-3.85
-3.78
-1.57
2.59

> <PUBCHEM_SHAPE_SELFOVERLAP>
1326.79

> <PUBCHEM_SHAPE_VOLUME>
335.9

> <PUBCHEM_COORDINATE_TYPE>
2
5
10

$$$$
