51137535
  -OEChem-12032416223D

 55 58  0     1  0  0  0  0  0999 V2000
    0.7747    1.2635   -0.1212 O   0  0  0  0  0  0  0  0  0  0  0  0
   -3.2521    0.9197   -0.4724 N   0  0  1  0  0  0  0  0  0  0  0  0
   -6.3710   -1.7979    0.5025 N   0  0  0  0  0  0  0  0  0  0  0  0
    0.7522    3.3514    0.6818 N   0  0  0  0  0  0  0  0  0  0  0  0
    2.0371    2.8578    0.8111 N   0  0  0  0  0  0  0  0  0  0  0  0
    6.0822   -2.2200   -0.1480 N   0  0  0  0  0  0  0  0  0  0  0  0
   -3.9189   -0.3392   -0.1478 C   0  0  0  0  0  0  0  0  0  0  0  0
   -2.1950    1.2548    0.4842 C   0  0  0  0  0  0  0  0  0  0  0  0
   -1.4129    2.3566   -0.2433 C   0  0  2  0  0  0  0  0  0  0  0  0
   -2.5839    0.8770   -1.7731 C   0  0  0  0  0  0  0  0  0  0  0  0
   -1.6912    2.1107   -1.7365 C   0  0  0  0  0  0  0  0  0  0  0  0
   -4.5636   -0.2762    1.2400 C   0  0  0  0  0  0  0  0  0  0  0  0
   -4.9803   -0.6637   -1.2022 C   0  0  0  0  0  0  0  0  0  0  0  0
   -5.3551   -1.5527    1.5356 C   0  0  0  0  0  0  0  0  0  0  0  0
   -5.7581   -1.9278   -0.8268 C   0  0  0  0  0  0  0  0  0  0  0  0
    0.0503    2.3874    0.1332 C   0  0  0  0  0  0  0  0  0  0  0  0
   -7.1513   -2.9922    0.8252 C   0  0  0  0  0  0  0  0  0  0  0  0
    2.0033    1.6371    0.3300 C   0  0  0  0  0  0  0  0  0  0  0  0
    3.0416    0.6553    0.2084 C   0  0  0  0  0  0  0  0  0  0  0  0
    4.3338    0.9490    0.6438 C   0  0  0  0  0  0  0  0  0  0  0  0
    2.7591   -0.5936   -0.3450 C   0  0  0  0  0  0  0  0  0  0  0  0
    5.3435   -0.0061    0.5257 C   0  0  0  0  0  0  0  0  0  0  0  0
    3.7687   -1.5487   -0.4631 C   0  0  0  0  0  0  0  0  0  0  0  0
    5.0609   -1.2549   -0.0277 C   0  0  0  0  0  0  0  0  0  0  0  0
    7.4284   -1.9240    0.3003 C   0  0  0  0  0  0  0  0  0  0  0  0
    5.7976   -3.5234   -0.7147 C   0  0  0  0  0  0  0  0  0  0  0  0
   -3.1845   -1.1583   -0.1427 H   0  0  0  0  0  0  0  0  0  0  0  0
   -1.5585    0.3880    0.7060 H   0  0  0  0  0  0  0  0  0  0  0  0
   -2.5927    1.6426    1.4282 H   0  0  0  0  0  0  0  0  0  0  0  0
   -1.8410    3.3332    0.0227 H   0  0  0  0  0  0  0  0  0  0  0  0
   -3.2781    0.9446   -2.6163 H   0  0  0  0  0  0  0  0  0  0  0  0
   -1.9673   -0.0236   -1.8891 H   0  0  0  0  0  0  0  0  0  0  0  0
   -0.7836    1.9645   -2.3316 H   0  0  0  0  0  0  0  0  0  0  0  0
   -2.2255    2.9744   -2.1522 H   0  0  0  0  0  0  0  0  0  0  0  0
   -5.2340    0.5912    1.3100 H   0  0  0  0  0  0  0  0  0  0  0  0
   -3.8080   -0.1633    2.0258 H   0  0  0  0  0  0  0  0  0  0  0  0
   -5.6814    0.1751   -1.3101 H   0  0  0  0  0  0  0  0  0  0  0  0
   -4.5292   -0.8360   -2.1859 H   0  0  0  0  0  0  0  0  0  0  0  0
   -4.6658   -2.4037    1.6163 H   0  0  0  0  0  0  0  0  0  0  0  0
   -5.8411   -1.4341    2.5118 H   0  0  0  0  0  0  0  0  0  0  0  0
   -6.5392   -2.0840   -1.5808 H   0  0  0  0  0  0  0  0  0  0  0  0
   -5.0891   -2.7978   -0.8659 H   0  0  0  0  0  0  0  0  0  0  0  0
   -7.9420   -3.1476    0.0827 H   0  0  0  0  0  0  0  0  0  0  0  0
   -6.5309   -3.8949    0.8627 H   0  0  0  0  0  0  0  0  0  0  0  0
   -7.6501   -2.8759    1.7938 H   0  0  0  0  0  0  0  0  0  0  0  0
    4.5761    1.9159    1.0783 H   0  0  0  0  0  0  0  0  0  0  0  0
    1.7646   -0.8588   -0.6951 H   0  0  0  0  0  0  0  0  0  0  0  0
    6.3320    0.2707    0.8790 H   0  0  0  0  0  0  0  0  0  0  0  0
    3.4989   -2.5049   -0.9004 H   0  0  0  0  0  0  0  0  0  0  0  0
    7.8521   -1.0771   -0.2508 H   0  0  0  0  0  0  0  0  0  0  0  0
    7.4499   -1.7110    1.3749 H   0  0  0  0  0  0  0  0  0  0  0  0
    8.1048   -2.7705    0.1372 H   0  0  0  0  0  0  0  0  0  0  0  0
    5.0493   -4.0589   -0.1197 H   0  0  0  0  0  0  0  0  0  0  0  0
    5.4508   -3.4376   -1.7505 H   0  0  0  0  0  0  0  0  0  0  0  0
    6.6900   -4.1589   -0.7372 H   0  0  0  0  0  0  0  0  0  0  0  0
  1 16  1  0  0  0  0
  1 18  1  0  0  0  0
  2  7  1  0  0  0  0
  2  8  1  0  0  0  0
  2 10  1  0  0  0  0
  3 14  1  0  0  0  0
  3 15  1  0  0  0  0
  3 17  1  0  0  0  0
  4  5  1  0  0  0  0
  4 16  2  0  0  0  0
  5 18  2  0  0  0  0
  6 24  1  0  0  0  0
  6 25  1  0  0  0  0
  6 26  1  0  0  0  0
  7 12  1  0  0  0  0
  7 13  1  0  0  0  0
  7 27  1  0  0  0  0
  8  9  1  0  0  0  0
  8 28  1  0  0  0  0
  8 29  1  0  0  0  0
  9 11  1  0  0  0  0
  9 16  1  0  0  0  0
  9 30  1  0  0  0  0
 10 11  1  0  0  0  0
 10 31  1  0  0  0  0
 10 32  1  0  0  0  0
 11 33  1  0  0  0  0
 11 34  1  0  0  0  0
 12 14  1  0  0  0  0
 12 35  1  0  0  0  0
 12 36  1  0  0  0  0
 13 15  1  0  0  0  0
 13 37  1  0  0  0  0
 13 38  1  0  0  0  0
 14 39  1  0  0  0  0
 14 40  1  0  0  0  0
 15 41  1  0  0  0  0
 15 42  1  0  0  0  0
 17 43  1  0  0  0  0
 17 44  1  0  0  0  0
 17 45  1  0  0  0  0
 18 19  1  0  0  0  0
 19 20  2  0  0  0  0
 19 21  1  0  0  0  0
 20 22  1  0  0  0  0
 20 46  1  0  0  0  0
 21 23  2  0  0  0  0
 21 47  1  0  0  0  0
 22 24  2  0  0  0  0
 22 48  1  0  0  0  0
 23 24  1  0  0  0  0
 23 49  1  0  0  0  0
 25 50  1  0  0  0  0
 25 51  1  0  0  0  0
 25 52  1  0  0  0  0
 26 53  1  0  0  0  0
 26 54  1  0  0  0  0
 26 55  1  0  0  0  0
M  END
> <PUBCHEM_COMPOUND_CID>
51137535

> <PUBCHEM_CONFORMER_RMSD>
0.8

> <PUBCHEM_CONFORMER_DIVERSEORDER>
1
30
33
142
130
66
79
106
149
23
148
10
45
107
128
109
58
111
114
86
21
108
141
50
29
18
143
34
105
63
56
4
89
87
61
64
103
8
20
146
43
15
32
88
129
22
137
125
74
82
127
136
71
140
133
11
39
113
99
112
101
44
134
59
55
52
73
7
102
24
123
5
65
17
96
49
81
117
47
95
41
84
119
90
121
70
48
27
94
91
14
78
75
147
36
38
83
80
9
132
2
40
144
60
93
118
57
6
135
115
31
145
150
100
12
46
62
120
51
37
76
122
68
126
69
124
54
92
3
98
116
97
19
25
110
35
77
131
16
67
13
26
72
104
53
28
139
138
42
85

> <PUBCHEM_MMFF94_PARTIAL_CHARGES>
27
1 -0.28
10 0.27
14 0.27
15 0.27
16 0.3
17 0.27
18 0.43
19 0.05
2 -0.81
20 -0.15
21 -0.15
22 -0.15
23 -0.15
24 0.1
25 0.37
26 0.37
3 -0.81
4 -0.34
46 0.15
47 0.15
48 0.15
49 0.15
5 -0.34
6 -0.84
7 0.27
8 0.27
9 0.18

> <PUBCHEM_EFFECTIVE_ROTOR_COUNT>
6.2

> <PUBCHEM_PHARMACOPHORE_FEATURES>
7
1 2 cation
1 3 cation
1 6 cation
5 1 4 5 16 18 rings
5 2 8 9 10 11 rings
6 19 20 21 22 23 24 rings
6 3 7 12 13 14 15 rings

> <PUBCHEM_HEAVY_ATOM_COUNT>
26

> <PUBCHEM_ATOM_DEF_STEREO_COUNT>
1

> <PUBCHEM_ATOM_UDEF_STEREO_COUNT>
0

> <PUBCHEM_BOND_DEF_STEREO_COUNT>
0

> <PUBCHEM_BOND_UDEF_STEREO_COUNT>
0

> <PUBCHEM_ISOTOPIC_ATOM_COUNT>
0

> <PUBCHEM_COMPONENT_COUNT>
1

> <PUBCHEM_CACTVS_TAUTO_COUNT>
1

> <PUBCHEM_CONFORMER_ID>
030C4BFF00000001

> <PUBCHEM_MMFF94_ENERGY>
58.5475

> <PUBCHEM_FEATURE_SELFOVERLAP>
35.524

> <PUBCHEM_SHAPE_FINGERPRINT>
10319688 140 18264492965154915820
10571361 74 17698715145632709479
10669705 162 18336535067888820527
10740516 88 17969515981983144395
10864689 126 18113894979792770659
11409948 8 18270951445971276482
117089 54 18339932532226632342
11796584 16 18042954402967319968
11809386 21 18115579323514240424
11963148 33 18339636725630130126
12107183 9 18200889379143089329
12166972 35 18040439880335935132
12342043 65 18334571395550329677
12422481 6 16845014498567351740
12596602 18 16773518888194259521
12760667 363 18409729556490763411
13103583 49 17418098736756587585
13402501 40 18334858337651149691
13533116 47 18198063788814866409
13540713 4 18337933654257507565
1361 87 17822019743621061507
13673619 4 18333734619534744501
13782708 43 18259699003893623227
13911852 28 18341894077975522957
13955234 65 17984415506135561864
14123256 34 18408605868080959327
14251764 30 18411139129870382891
14420673 8 18410577241506937701
14647877 103 11887660811071463890
14950920 106 16773788234104412835
15064981 113 14562803310456004474
15510800 12 18187648050207899675
17780758 139 17846496972367146193
19246450 95 17916321454864136017
19438510 23 11024108737369364247
20165401 70 18198343064869366735
20398071 356 18411703175193601319
21033650 10 16443334344225973797
21095086 4 18408611356986399291
21196832 93 18114474435041454122
21307412 95 18188763947573526085
21344244 246 18187373168834468868
21401589 2 11024106560285253141
21585481 104 14346338053806870255
21585483 132 17388525022708885570
21682296 61 18336267933686857747
22149856 69 18272656736233424976
229767 8 18127419943155504942
23424784 1240 18129949953823035614
23522609 53 18122942851464936992
23559900 14 18337942485464187445
23569914 2 13409359722631520782
270888 7 9511463312037861083
2747138 104 18130219364636739266
2748736 6 8790880753241027438
2835820 33 18408598147069886602
2916195 48 10880000172718705693
3089732 80 18335421287451590155
314194 84 18271802462394617540
329604 57 18335987493580630404
3862424 121 17169855472794248819
393628 179 11170202007421328350
439807 62 18333732394636125231
445580 182 16988848229025609899
46194498 28 17822847697198768924
465052 167 18343023323741199196
474113 269 18059848507441128711
484985 159 18266178336376266193
5104073 3 17989486299254344320
54039377 194 18412830162402390598
54583773 228 18335709322330952734
5486654 36 18340773641600092169
56633871 153 18273212028007099167
5718773 13 18409446985770449890
636775 8 18269845221136153758
6431902 208 18269549456080185702
7970288 3 18341609300306664070
86090 222 18187645868380337755
8863177 126 18410011061041868578
9555976 147 17274279339485365955
9980921 7 17677347121527051180
999808 66 18410856542491997895

> <PUBCHEM_SHAPE_MULTIPOLES>
504.29
19.29
3.9
1.26
0.71
0.2
0.24
24.44
-2.38
1.07
-0.13
-1.63
-0.09
2.42

> <PUBCHEM_SHAPE_SELFOVERLAP>
1070.999

> <PUBCHEM_SHAPE_VOLUME>
285.3

> <PUBCHEM_COORDINATE_TYPE>
2
5
10

$$$$
