75366944
  -OEChem-12032416393D

 51 53  0     1  0  0  0  0  0999 V2000
   -6.6356   -0.6332    1.4539 F   0  0  0  0  0  0  0  0  0  0  0  0
    2.5227   -0.8580    0.5561 O   0  0  0  0  0  0  0  0  0  0  0  0
    4.9977   -1.6892    1.9243 O   0  0  0  0  0  0  0  0  0  0  0  0
   -1.3180   -0.3012   -1.8562 O   0  0  0  0  0  0  0  0  0  0  0  0
    1.3874    2.5272   -0.9493 O   0  0  0  0  0  0  0  0  0  0  0  0
    1.6786    1.7581    1.2238 N   0  0  0  0  0  0  0  0  0  0  0  0
   -0.0120   -0.5008   -2.2871 N   0  0  0  0  0  0  0  0  0  0  0  0
   -0.4015    2.4849    0.5277 N   0  0  0  0  0  0  0  0  0  0  0  0
    2.9101   -0.8766   -0.8200 C   0  0  1  0  0  0  0  0  0  0  0  0
    3.3277   -0.0296    1.4051 C   0  0  1  0  0  0  0  0  0  0  0  0
    4.8111   -0.4100    1.3126 C   0  0  2  0  0  0  0  0  0  0  0  0
    4.3503   -1.3648   -0.9678 C   0  0  0  0  0  0  0  0  0  0  0  0
    5.2969   -0.5090   -0.1309 C   0  0  0  0  0  0  0  0  0  0  0  0
    1.9461   -1.8000   -1.5550 C   0  0  0  0  0  0  0  0  0  0  0  0
    3.0735    1.4511    1.1306 C   0  0  0  0  0  0  0  0  0  0  0  0
    0.5178   -1.3505   -1.4025 C   0  0  0  0  0  0  0  0  0  0  0  0
   -0.3976   -1.7179   -0.4012 C   0  0  0  0  0  0  0  0  0  0  0  0
    0.9273    2.2805    0.1647 C   0  0  0  0  0  0  0  0  0  0  0  0
   -1.5357   -1.0312   -0.7325 C   0  0  0  0  0  0  0  0  0  0  0  0
   -2.8499   -0.9280   -0.1681 C   0  0  0  0  0  0  0  0  0  0  0  0
   -1.3884    3.0163   -0.3826 C   0  0  0  0  0  0  0  0  0  0  0  0
   -3.1719   -1.6426    0.9857 C   0  0  0  0  0  0  0  0  0  0  0  0
   -3.8068   -0.1134   -0.7737 C   0  0  0  0  0  0  0  0  0  0  0  0
   -1.2862    4.5235   -0.4933 C   0  0  0  0  0  0  0  0  0  0  0  0
   -4.4506   -1.5430    1.5338 C   0  0  0  0  0  0  0  0  0  0  0  0
   -5.0856   -0.0140   -0.2258 C   0  0  0  0  0  0  0  0  0  0  0  0
   -5.4075   -0.7287    0.9279 C   0  0  0  0  0  0  0  0  0  0  0  0
    2.8163    0.1325   -1.2369 H   0  0  0  0  0  0  0  0  0  0  0  0
    2.9800   -0.2509    2.4225 H   0  0  0  0  0  0  0  0  0  0  0  0
    5.4231    0.3047    1.8739 H   0  0  0  0  0  0  0  0  0  0  0  0
    4.6581   -1.3416   -2.0193 H   0  0  0  0  0  0  0  0  0  0  0  0
    4.4266   -2.4059   -0.6292 H   0  0  0  0  0  0  0  0  0  0  0  0
    6.3010   -0.9472   -0.1704 H   0  0  0  0  0  0  0  0  0  0  0  0
    5.3622    0.4932   -0.5701 H   0  0  0  0  0  0  0  0  0  0  0  0
    2.0227   -2.8194   -1.1542 H   0  0  0  0  0  0  0  0  0  0  0  0
    2.2054   -1.8535   -2.6196 H   0  0  0  0  0  0  0  0  0  0  0  0
    3.4513    1.7548    0.1502 H   0  0  0  0  0  0  0  0  0  0  0  0
    3.5881    2.0626    1.8799 H   0  0  0  0  0  0  0  0  0  0  0  0
    5.9485   -1.8912    1.8987 H   0  0  0  0  0  0  0  0  0  0  0  0
    1.2185    1.6309    2.1201 H   0  0  0  0  0  0  0  0  0  0  0  0
   -0.2418   -2.3848    0.4341 H   0  0  0  0  0  0  0  0  0  0  0  0
   -0.6901    2.2555    1.4737 H   0  0  0  0  0  0  0  0  0  0  0  0
   -1.2473    2.5576   -1.3666 H   0  0  0  0  0  0  0  0  0  0  0  0
   -2.3737    2.7289   -0.0036 H   0  0  0  0  0  0  0  0  0  0  0  0
   -2.4479   -2.2850    1.4802 H   0  0  0  0  0  0  0  0  0  0  0  0
   -3.5940    0.4597   -1.6726 H   0  0  0  0  0  0  0  0  0  0  0  0
   -2.0576    4.9095   -1.1666 H   0  0  0  0  0  0  0  0  0  0  0  0
   -0.3098    4.8298   -0.8828 H   0  0  0  0  0  0  0  0  0  0  0  0
   -1.4169    4.9974    0.4853 H   0  0  0  0  0  0  0  0  0  0  0  0
   -4.7019   -2.0991    2.4321 H   0  0  0  0  0  0  0  0  0  0  0  0
   -5.8311    0.6202   -0.6966 H   0  0  0  0  0  0  0  0  0  0  0  0
  1 27  1  0  0  0  0
  2  9  1  0  0  0  0
  2 10  1  0  0  0  0
  3 11  1  0  0  0  0
  3 39  1  0  0  0  0
  4  7  1  0  0  0  0
  4 19  1  0  0  0  0
  5 18  2  0  0  0  0
  6 15  1  0  0  0  0
  6 18  1  0  0  0  0
  6 40  1  0  0  0  0
  7 16  2  0  0  0  0
  8 18  1  0  0  0  0
  8 21  1  0  0  0  0
  8 42  1  0  0  0  0
  9 12  1  0  0  0  0
  9 14  1  0  0  0  0
  9 28  1  0  0  0  0
 10 11  1  0  0  0  0
 10 15  1  0  0  0  0
 10 29  1  0  0  0  0
 11 13  1  0  0  0  0
 11 30  1  0  0  0  0
 12 13  1  0  0  0  0
 12 31  1  0  0  0  0
 12 32  1  0  0  0  0
 13 33  1  0  0  0  0
 13 34  1  0  0  0  0
 14 16  1  0  0  0  0
 14 35  1  0  0  0  0
 14 36  1  0  0  0  0
 15 37  1  0  0  0  0
 15 38  1  0  0  0  0
 16 17  1  0  0  0  0
 17 19  2  0  0  0  0
 17 41  1  0  0  0  0
 19 20  1  0  0  0  0
 20 22  2  0  0  0  0
 20 23  1  0  0  0  0
 21 24  1  0  0  0  0
 21 43  1  0  0  0  0
 21 44  1  0  0  0  0
 22 25  1  0  0  0  0
 22 45  1  0  0  0  0
 23 26  2  0  0  0  0
 23 46  1  0  0  0  0
 24 47  1  0  0  0  0
 24 48  1  0  0  0  0
 24 49  1  0  0  0  0
 25 27  2  0  0  0  0
 25 50  1  0  0  0  0
 26 27  1  0  0  0  0
 26 51  1  0  0  0  0
M  END
> <PUBCHEM_COMPOUND_CID>
75366944

> <PUBCHEM_CONFORMER_RMSD>
1

> <PUBCHEM_CONFORMER_DIVERSEORDER>
1
72
107
50
146
159
17
150
13
14
118
48
98
103
67
144
16
131
142
143
11
96
86
149
133
58
84
85
64
106
152
174
164
97
79
109
65
12
34
100
94
55
158
80
44
69
161
63
160
38
21
32
105
148
171
104
39
145
47
88
155
101
2
123
167
124
108
168
60
115
178
49
180
73
112
62
132
122
138
9
18
45
175
153
127
5
66
156
129
87
151
126
70
117
141
179
43
111
31
137
33
78
92
27
10
121
74
42
28
19
177
166
113
22
154
51
20
71
110
169
77
170
89
128
163
23
116
54
119
102
81
35
136
157
125
173
15
57
40
99
52
41
3
135
130
59
176
134
24
46
36
114
26
90
147
93
29
76
83
172
68
4
120
139
91
30
140
8
61
95
56
25
165
6
7
37
82
53
162
75

> <PUBCHEM_MMFF94_PARTIAL_CHARGES>
32
1 -0.19
10 0.28
11 0.28
14 0.18
15 0.3
16 0.11
17 -0.15
18 0.69
19 0.09
2 -0.56
20 0.05
21 0.3
22 -0.15
23 -0.15
25 -0.15
26 -0.15
27 0.19
3 -0.68
39 0.4
4 -0.02
40 0.37
41 0.15
42 0.37
45 0.15
46 0.15
5 -0.57
50 0.15
51 0.15
6 -0.73
7 -0.41
8 -0.73
9 0.28

> <PUBCHEM_EFFECTIVE_ROTOR_COUNT>
9.2

> <PUBCHEM_PHARMACOPHORE_FEATURES>
10
1 2 acceptor
1 3 acceptor
1 3 donor
1 5 acceptor
1 6 donor
1 7 acceptor
1 8 donor
5 4 7 16 17 19 rings
6 2 9 10 11 12 13 rings
6 20 22 23 25 26 27 rings

> <PUBCHEM_HEAVY_ATOM_COUNT>
27

> <PUBCHEM_ATOM_DEF_STEREO_COUNT>
3

> <PUBCHEM_ATOM_UDEF_STEREO_COUNT>
0

> <PUBCHEM_BOND_DEF_STEREO_COUNT>
0

> <PUBCHEM_BOND_UDEF_STEREO_COUNT>
0

> <PUBCHEM_ISOTOPIC_ATOM_COUNT>
0

> <PUBCHEM_COMPONENT_COUNT>
1

> <PUBCHEM_CACTVS_TAUTO_COUNT>
3

> <PUBCHEM_CONFORMER_ID>
047E022000000001

> <PUBCHEM_MMFF94_ENERGY>
38.4718

> <PUBCHEM_FEATURE_SELFOVERLAP>
50.797

> <PUBCHEM_SHAPE_FINGERPRINT>
10076449 9 17631748075961769054
10688039 33 18408889511889625517
11387372 6 16967416338362603170
12236239 1 16056880221713758455
12422481 6 18059305270691172585
12596602 18 17458346329715533798
12633257 1 18338517546739885467
12788726 201 18334862679868224328
13075007 39 18266189503059030107
13402501 40 18271519797923040365
13726171 33 18340498772779240632
14363568 33 18195534919843868428
14790565 3 17548127192390812320
14840074 17 18201155572167068164
17357779 13 18272078362435141548
20739085 24 18269561696262329220
20775438 99 11747500621707361865
21033648 29 17845926347401963043
21304253 335 17059794234130338651
21360443 126 18191866713342226781
22182313 1 17845086265058047324
23516275 137 13624094128761194377
23559900 14 17168430484323186607
24893992 56 18186802466828593617
3052486 1 18263088712416869196
3187 122 18336541625280981980
3411729 13 18044388355229742852
3472631 163 14476961207448720627
474 4 17632579374543747447
508706 21 18267866069255084253
513532 50 15410349809422100308
5283268 108 18412269427818448785
56638632 10 16486104323779605400
58260988 393 18187644683396553200
7097593 13 17976535340884881933
8509985 295 18337960090217849637

> <PUBCHEM_SHAPE_MULTIPOLES>
509.95
11.62
3.42
1.78
5.52
5.43
0.04
-6.14
-6.07
0.64
0.52
-0.49
-0.65
1.21

> <PUBCHEM_SHAPE_SELFOVERLAP>
1073.622

> <PUBCHEM_SHAPE_VOLUME>
287.3

> <PUBCHEM_COORDINATE_TYPE>
2
5
10

$$$$
