75368505
  -OEChem-12032416393D

 53 56  0     1  0  0  0  0  0999 V2000
   -6.5100    2.8940    0.2394 O   0  0  0  0  0  0  0  0  0  0  0  0
   -4.2743   -2.4248   -0.2080 O   0  0  0  0  0  0  0  0  0  0  0  0
    2.6305   -2.7240   -0.2199 O   0  0  0  0  0  0  0  0  0  0  0  0
    6.1234    2.8958   -0.3815 O   0  0  0  0  0  0  0  0  0  0  0  0
   -3.6662   -0.1474   -0.1406 N   0  0  0  0  0  0  0  0  0  0  0  0
   -2.0432   -1.6935   -0.3001 N   0  0  0  0  0  0  0  0  0  0  0  0
    0.6703   -1.6163    0.2968 N   0  0  0  0  0  0  0  0  0  0  0  0
    2.6099   -0.4048   -0.2762 N   0  0  0  0  0  0  0  0  0  0  0  0
   -1.3491   -0.4199   -0.4044 C   0  0  1  0  0  0  0  0  0  0  0  0
   -2.4276    0.6084   -0.0744 C   0  0  0  0  0  0  0  0  0  0  0  0
   -4.9541    0.4839    0.0041 C   0  0  0  0  0  0  0  0  0  0  0  0
   -0.1426   -0.4042    0.5281 C   0  0  0  0  0  0  0  0  0  0  0  0
   -1.2957   -2.9366   -0.3889 C   0  0  0  0  0  0  0  0  0  0  0  0
   -3.4338   -1.5350   -0.2190 C   0  0  0  0  0  0  0  0  0  0  0  0
   -0.0626   -2.8744    0.5126 C   0  0  0  0  0  0  0  0  0  0  0  0
   -5.2594    1.3832   -1.1942 C   0  0  0  0  0  0  0  0  0  0  0  0
   -5.0328    1.2866    1.3036 C   0  0  0  0  0  0  0  0  0  0  0  0
   -6.5592    2.1471   -0.9761 C   0  0  0  0  0  0  0  0  0  0  0  0
   -6.3462    2.0543    1.3819 C   0  0  0  0  0  0  0  0  0  0  0  0
    2.0306   -1.6562   -0.0717 C   0  0  0  0  0  0  0  0  0  0  0  0
    3.9647   -0.0419   -0.0739 C   0  0  0  0  0  0  0  0  0  0  0  0
    4.3824    1.2643   -0.3294 C   0  0  0  0  0  0  0  0  0  0  0  0
    4.8808   -0.9910    0.3800 C   0  0  0  0  0  0  0  0  0  0  0  0
    5.7162    1.6215   -0.1309 C   0  0  0  0  0  0  0  0  0  0  0  0
    6.2145   -0.6338    0.5782 C   0  0  0  0  0  0  0  0  0  0  0  0
    6.6322    0.6725    0.3230 C   0  0  0  0  0  0  0  0  0  0  0  0
    7.5012    3.1925   -0.1586 C   0  0  0  0  0  0  0  0  0  0  0  0
   -1.0285   -0.3195   -1.4492 H   0  0  0  0  0  0  0  0  0  0  0  0
   -2.4250    1.4314   -0.7932 H   0  0  0  0  0  0  0  0  0  0  0  0
   -2.3038    1.0048    0.9380 H   0  0  0  0  0  0  0  0  0  0  0  0
   -5.7148   -0.3066    0.0402 H   0  0  0  0  0  0  0  0  0  0  0  0
    0.4210    0.5220    0.4122 H   0  0  0  0  0  0  0  0  0  0  0  0
   -0.4619   -0.4466    1.5775 H   0  0  0  0  0  0  0  0  0  0  0  0
   -0.9953   -3.0519   -1.4365 H   0  0  0  0  0  0  0  0  0  0  0  0
   -1.9422   -3.7787   -0.1238 H   0  0  0  0  0  0  0  0  0  0  0  0
   -0.3609   -2.8929    1.5677 H   0  0  0  0  0  0  0  0  0  0  0  0
    0.5748   -3.7453    0.3338 H   0  0  0  0  0  0  0  0  0  0  0  0
   -5.3160    0.7921   -2.1155 H   0  0  0  0  0  0  0  0  0  0  0  0
   -4.4556    2.1160   -1.3316 H   0  0  0  0  0  0  0  0  0  0  0  0
   -4.2199    2.0213    1.3460 H   0  0  0  0  0  0  0  0  0  0  0  0
   -4.9223    0.6286    2.1730 H   0  0  0  0  0  0  0  0  0  0  0  0
   -6.7180    2.8545   -1.7963 H   0  0  0  0  0  0  0  0  0  0  0  0
   -7.4206    1.4693   -0.9529 H   0  0  0  0  0  0  0  0  0  0  0  0
   -7.2019    1.3734    1.4602 H   0  0  0  0  0  0  0  0  0  0  0  0
   -6.3516    2.6943    2.2699 H   0  0  0  0  0  0  0  0  0  0  0  0
    2.0112    0.3538   -0.5844 H   0  0  0  0  0  0  0  0  0  0  0  0
    3.6739    2.0094   -0.6837 H   0  0  0  0  0  0  0  0  0  0  0  0
    4.6121   -2.0121    0.6209 H   0  0  0  0  0  0  0  0  0  0  0  0
    6.9265   -1.3714    0.9374 H   0  0  0  0  0  0  0  0  0  0  0  0
    7.6816    0.8820    0.4996 H   0  0  0  0  0  0  0  0  0  0  0  0
    7.6489    4.2483   -0.4083 H   0  0  0  0  0  0  0  0  0  0  0  0
    8.1504    2.6129   -0.8236 H   0  0  0  0  0  0  0  0  0  0  0  0
    7.7732    3.0723    0.8956 H   0  0  0  0  0  0  0  0  0  0  0  0
  1 18  1  0  0  0  0
  1 19  1  0  0  0  0
  2 14  2  0  0  0  0
  3 20  2  0  0  0  0
  4 24  1  0  0  0  0
  4 27  1  0  0  0  0
  5 10  1  0  0  0  0
  5 11  1  0  0  0  0
  5 14  1  0  0  0  0
  6  9  1  0  0  0  0
  6 13  1  0  0  0  0
  6 14  1  0  0  0  0
  7 12  1  0  0  0  0
  7 15  1  0  0  0  0
  7 20  1  0  0  0  0
  8 20  1  0  0  0  0
  8 21  1  0  0  0  0
  8 46  1  0  0  0  0
  9 10  1  0  0  0  0
  9 12  1  0  0  0  0
  9 28  1  0  0  0  0
 10 29  1  0  0  0  0
 10 30  1  0  0  0  0
 11 16  1  0  0  0  0
 11 17  1  0  0  0  0
 11 31  1  0  0  0  0
 12 32  1  0  0  0  0
 12 33  1  0  0  0  0
 13 15  1  0  0  0  0
 13 34  1  0  0  0  0
 13 35  1  0  0  0  0
 15 36  1  0  0  0  0
 15 37  1  0  0  0  0
 16 18  1  0  0  0  0
 16 38  1  0  0  0  0
 16 39  1  0  0  0  0
 17 19  1  0  0  0  0
 17 40  1  0  0  0  0
 17 41  1  0  0  0  0
 18 42  1  0  0  0  0
 18 43  1  0  0  0  0
 19 44  1  0  0  0  0
 19 45  1  0  0  0  0
 21 22  2  0  0  0  0
 21 23  1  0  0  0  0
 22 24  1  0  0  0  0
 22 47  1  0  0  0  0
 23 25  2  0  0  0  0
 23 48  1  0  0  0  0
 24 26  2  0  0  0  0
 25 26  1  0  0  0  0
 25 49  1  0  0  0  0
 26 50  1  0  0  0  0
 27 51  1  0  0  0  0
 27 52  1  0  0  0  0
 27 53  1  0  0  0  0
M  END
> <PUBCHEM_COMPOUND_CID>
75368505

> <PUBCHEM_CONFORMER_RMSD>
1

> <PUBCHEM_CONFORMER_DIVERSEORDER>
1
35
120
143
65
135
148
105
66
109
30
100
11
36
56
21
92
142
113
41
111
13
77
49
140
9
96
147
55
5
59
139
125
51
128
93
37
118
85
103
94
74
80
99
22
46
68
132
87
81
123
27
25
64
127
79
122
124
89
73
19
7
53
146
133
95
78
42
14
86
134
69
33
2
84
129
76
45
57
63
126
138
119
23
97
107
47
44
52
6
136
71
88
83
131
90
110
24
48
115
144
58
26
75
116
98
70
3
38
54
17
104
137
67
32
82
29
121
28
20
61
141
39
91
16
4
15
43
108
60
117
72
145
31
18
12
34
101
106
114
10
112
40
130
8
102
50
62

> <PUBCHEM_MMFF94_PARTIAL_CHARGES>
30
1 -0.56
10 0.3
11 0.3
12 0.3
13 0.3
14 0.69
15 0.3
18 0.28
19 0.28
2 -0.57
20 0.69
21 0.12
22 -0.15
23 -0.15
24 0.08
25 -0.15
26 -0.15
27 0.28
3 -0.57
4 -0.36
46 0.37
47 0.15
48 0.15
49 0.15
5 -0.66
50 0.15
6 -0.66
7 -0.66
8 -0.55
9 0.3

> <PUBCHEM_EFFECTIVE_ROTOR_COUNT>
7.4

> <PUBCHEM_PHARMACOPHORE_FEATURES>
9
1 1 acceptor
1 2 acceptor
1 3 acceptor
1 4 acceptor
1 8 donor
5 5 6 9 10 14 rings
6 1 11 16 17 18 19 rings
6 21 22 23 24 25 26 rings
6 6 7 9 12 13 15 rings

> <PUBCHEM_HEAVY_ATOM_COUNT>
27

> <PUBCHEM_ATOM_DEF_STEREO_COUNT>
1

> <PUBCHEM_ATOM_UDEF_STEREO_COUNT>
0

> <PUBCHEM_BOND_DEF_STEREO_COUNT>
0

> <PUBCHEM_BOND_UDEF_STEREO_COUNT>
0

> <PUBCHEM_ISOTOPIC_ATOM_COUNT>
0

> <PUBCHEM_COMPONENT_COUNT>
1

> <PUBCHEM_CACTVS_TAUTO_COUNT>
2

> <PUBCHEM_CONFORMER_ID>
047E083900000001

> <PUBCHEM_MMFF94_ENERGY>
81.5916

> <PUBCHEM_FEATURE_SELFOVERLAP>
45.771

> <PUBCHEM_SHAPE_FINGERPRINT>
10 15 18113344089827051449
10050765 1 18410573968067722799
10280341 67 18198892782028562448
10411042 1 17545601614239982191
10554248 39 18271799069560384406
10595046 47 18338793550260765238
10835480 77 18412821413179370868
10906281 52 17774450378320315419
11475781 23 18202008737745810756
12107183 9 18263070038806629298
12390115 104 18341905095041813179
12422481 6 17313106336912690365
12895837 130 18341053024621163845
13167372 99 18410009940672407456
13540713 4 18338538385963975198
13540713 5 18337933649983626251
13690498 29 17487888115964401143
13782708 43 11530477844148189364
13785724 45 18049435943263912162
13885169 86 18408610274580488833
14251764 75 18411985728354530083
14394314 77 18409734001551014500
14790565 3 18125446315487945265
15183329 4 18272369767555900312
15400415 2 18410008875526312382
15519825 34 15936985153241960177
1577012 14 18335699468868424932
15778101 99 18411702080119287651
15803439 3 16487257698824031206
15840311 113 18266186041589578949
16126227 98 18341899597768140865
17980427 23 18261113014496641310
18608769 82 18339926021915853475
19427546 20 18342733070653546215
20058555 10 18411699885185569985
20281389 69 18260266339103657789
20621476 66 18410856577378886536
20691028 202 18411133662609487416
20715895 44 18411418402156280346
21033648 144 18335132043638391519
21298829 104 18408886274101846204
21585482 111 18334012796415091236
270888 7 18410292510185303004
2748736 6 18412256229378751425
2838139 119 18335412426870313557
328310 630 18412546509381427301
3472631 163 18342176656975347318
397830 11 18187098238860019787
4073 2 18187367666168797234
465052 167 8142082078937202794
5104073 3 18113616798396261938
54039377 194 8862676703142476120
543368 44 18342739598950860721
5470011 282 12319444506943886016
59682541 52 16988572247660282846
6327066 14 18410852165977942967
6328613 192 18413388735045775641
636775 72 18051691337780367264
6608658 132 16558471868875640465
6697151 62 16886354886359219731
6712543 237 15430033245313594561
6898599 12 18201153355647562983
9980921 7 18113892797795968661

> <PUBCHEM_SHAPE_MULTIPOLES>
512.25
21.09
3.7
0.91
9.61
0.05
0.11
22.68
0.79
0.3
-0.17
-1.23
0.35
-1.05

> <PUBCHEM_SHAPE_SELFOVERLAP>
1084.899

> <PUBCHEM_SHAPE_VOLUME>
284.1

> <PUBCHEM_COORDINATE_TYPE>
2
5
10

$$$$
