56776123
  -OEChem-12032416223D

 77 81  0     1  0  0  0  0  0999 V2000
   -1.2081   -1.0837    0.0182 O   0  0  0  0  0  0  0  0  0  0  0  0
    6.2511    1.3769   -0.0514 O   0  0  0  0  0  0  0  0  0  0  0  0
   -0.0723    3.4927    1.6707 O   0  0  0  0  0  0  0  0  0  0  0  0
    8.6329   -2.8719    0.8059 O   0  0  0  0  0  0  0  0  0  0  0  0
    1.3229    2.6797    0.0069 N   0  0  0  0  0  0  0  0  0  0  0  0
    6.8959   -0.8526   -0.1141 N   0  0  0  0  0  0  0  0  0  0  0  0
   -1.7240    1.9191   -0.6157 N   0  0  0  0  0  0  0  0  0  0  0  0
   -6.7558   -0.8325    0.2248 N   0  0  0  0  0  0  0  0  0  0  0  0
   -9.6079   -0.7839    0.1127 N   0  0  0  0  0  0  0  0  0  0  0  0
    2.3436    0.8352   -1.3399 C   0  0  2  0  0  0  0  0  0  0  0  0
    3.6560    1.0352   -0.5351 C   0  0  1  0  0  0  0  0  0  0  0  0
    3.3565    1.5437    0.8818 C   0  0  0  0  0  0  0  0  0  0  0  0
    1.5724    2.1770   -1.3538 C   0  0  0  0  0  0  0  0  0  0  0  0
    1.4663   -0.3198   -0.7984 C   0  0  0  0  0  0  0  0  0  0  0  0
    2.5178    2.8173    0.8446 C   0  0  0  0  0  0  0  0  0  0  0  0
    4.5438   -0.2085   -0.4901 C   0  0  0  0  0  0  0  0  0  0  0  0
    0.3624   -0.7516   -1.7738 C   0  0  0  0  0  0  0  0  0  0  0  0
    5.9702    0.1849   -0.2003 C   0  0  0  0  0  0  0  0  0  0  0  0
    0.0964    3.1308    0.5005 C   0  0  0  0  0  0  0  0  0  0  0  0
   -0.6350   -1.7182   -1.1313 C   0  0  0  0  0  0  0  0  0  0  0  0
   -1.0769    3.2192   -0.4555 C   0  0  0  0  0  0  0  0  0  0  0  0
    8.3007   -0.5591    0.1689 C   0  0  0  0  0  0  0  0  0  0  0  0
    6.6230   -2.2633   -0.4095 C   0  0  0  0  0  0  0  0  0  0  0  0
    8.8420   -1.5189    1.2190 C   0  0  0  0  0  0  0  0  0  0  0  0
    7.2384   -3.1550    0.6618 C   0  0  0  0  0  0  0  0  0  0  0  0
   -2.3846    1.4408    0.6019 C   0  0  0  0  0  0  0  0  0  0  0  0
   -2.5764   -1.0447    0.0357 C   0  0  0  0  0  0  0  0  0  0  0  0
   -3.1909    0.1828    0.3445 C   0  0  0  0  0  0  0  0  0  0  0  0
   -5.3594   -0.9055    0.1670 C   0  0  0  0  0  0  0  0  0  0  0  0
   -4.5922    0.2381    0.3949 C   0  0  0  0  0  0  0  0  0  0  0  0
   -3.3471   -2.1945   -0.1688 C   0  0  0  0  0  0  0  0  0  0  0  0
   -7.4406    0.0694   -0.7114 C   0  0  0  0  0  0  0  0  0  0  0  0
   -7.5279   -2.0003    0.6626 C   0  0  0  0  0  0  0  0  0  0  0  0
   -4.7375   -2.1206   -0.1093 C   0  0  0  0  0  0  0  0  0  0  0  0
   -8.8353    0.4190   -0.1938 C   0  0  0  0  0  0  0  0  0  0  0  0
   -8.9205   -1.5773    1.1300 C   0  0  0  0  0  0  0  0  0  0  0  0
    2.6176    0.5938   -2.3757 H   0  0  0  0  0  0  0  0  0  0  0  0
    4.1964    1.8327   -1.0661 H   0  0  0  0  0  0  0  0  0  0  0  0
    4.2768    1.7492    1.4386 H   0  0  0  0  0  0  0  0  0  0  0  0
    2.8186    0.7748    1.4500 H   0  0  0  0  0  0  0  0  0  0  0  0
    0.6564    2.0883   -1.9349 H   0  0  0  0  0  0  0  0  0  0  0  0
    2.1757    2.9419   -1.8595 H   0  0  0  0  0  0  0  0  0  0  0  0
    1.0278   -0.0265    0.1614 H   0  0  0  0  0  0  0  0  0  0  0  0
    2.0840   -1.2020   -0.5971 H   0  0  0  0  0  0  0  0  0  0  0  0
    2.2490    3.1072    1.8654 H   0  0  0  0  0  0  0  0  0  0  0  0
    3.1061    3.6418    0.4236 H   0  0  0  0  0  0  0  0  0  0  0  0
    4.1989   -0.9066    0.2800 H   0  0  0  0  0  0  0  0  0  0  0  0
    4.5252   -0.7081   -1.4655 H   0  0  0  0  0  0  0  0  0  0  0  0
    0.8292   -1.2523   -2.6313 H   0  0  0  0  0  0  0  0  0  0  0  0
   -0.1726    0.1035   -2.1875 H   0  0  0  0  0  0  0  0  0  0  0  0
   -1.3800   -1.9972   -1.8867 H   0  0  0  0  0  0  0  0  0  0  0  0
   -0.1259   -2.6289   -0.7975 H   0  0  0  0  0  0  0  0  0  0  0  0
   -1.7905    3.9603   -0.0756 H   0  0  0  0  0  0  0  0  0  0  0  0
   -0.7460    3.6029   -1.4253 H   0  0  0  0  0  0  0  0  0  0  0  0
    8.4293    0.4770    0.4960 H   0  0  0  0  0  0  0  0  0  0  0  0
    8.8416   -0.6874   -0.7761 H   0  0  0  0  0  0  0  0  0  0  0  0
    7.0882   -2.4680   -1.3811 H   0  0  0  0  0  0  0  0  0  0  0  0
    5.5561   -2.4723   -0.4992 H   0  0  0  0  0  0  0  0  0  0  0  0
   -1.0338    1.2337   -0.8986 H   0  0  0  0  0  0  0  0  0  0  0  0
    9.9185   -1.3686    1.3470 H   0  0  0  0  0  0  0  0  0  0  0  0
    8.3623   -1.3598    2.1920 H   0  0  0  0  0  0  0  0  0  0  0  0
    6.7404   -3.0179    1.6291 H   0  0  0  0  0  0  0  0  0  0  0  0
    7.1368   -4.2072    0.3787 H   0  0  0  0  0  0  0  0  0  0  0  0
   -3.0483    2.2211    0.9946 H   0  0  0  0  0  0  0  0  0  0  0  0
   -1.6542    1.2234    1.3907 H   0  0  0  0  0  0  0  0  0  0  0  0
   -5.0803    1.1814    0.6316 H   0  0  0  0  0  0  0  0  0  0  0  0
   -2.8764   -3.1533   -0.3685 H   0  0  0  0  0  0  0  0  0  0  0  0
   -7.5129   -0.4185   -1.6920 H   0  0  0  0  0  0  0  0  0  0  0  0
   -6.8857    1.0034   -0.8559 H   0  0  0  0  0  0  0  0  0  0  0  0
   -7.0275   -2.5059    1.4979 H   0  0  0  0  0  0  0  0  0  0  0  0
   -7.6204   -2.7172   -0.1633 H   0  0  0  0  0  0  0  0  0  0  0  0
   -5.3042   -3.0289   -0.2931 H   0  0  0  0  0  0  0  0  0  0  0  0
   -9.3664    1.0005   -0.9553 H   0  0  0  0  0  0  0  0  0  0  0  0
   -8.7596    1.0522    0.6992 H   0  0  0  0  0  0  0  0  0  0  0  0
   -8.8481   -1.0047    2.0633 H   0  0  0  0  0  0  0  0  0  0  0  0
   -9.5140   -2.4717    1.3484 H   0  0  0  0  0  0  0  0  0  0  0  0
  -10.5270   -0.5134    0.4614 H   0  0  0  0  0  0  0  0  0  0  0  0
  1 20  1  0  0  0  0
  1 27  1  0  0  0  0
  2 18  2  0  0  0  0
  3 19  2  0  0  0  0
  4 24  1  0  0  0  0
  4 25  1  0  0  0  0
  5 13  1  0  0  0  0
  5 15  1  0  0  0  0
  5 19  1  0  0  0  0
  6 18  1  0  0  0  0
  6 22  1  0  0  0  0
  6 23  1  0  0  0  0
  7 21  1  0  0  0  0
  7 26  1  0  0  0  0
  7 59  1  0  0  0  0
  8 29  1  0  0  0  0
  8 32  1  0  0  0  0
  8 33  1  0  0  0  0
  9 35  1  0  0  0  0
  9 36  1  0  0  0  0
  9 77  1  0  0  0  0
 10 11  1  0  0  0  0
 10 13  1  0  0  0  0
 10 14  1  0  0  0  0
 10 37  1  0  0  0  0
 11 12  1  0  0  0  0
 11 16  1  0  0  0  0
 11 38  1  0  0  0  0
 12 15  1  0  0  0  0
 12 39  1  0  0  0  0
 12 40  1  0  0  0  0
 13 41  1  0  0  0  0
 13 42  1  0  0  0  0
 14 17  1  0  0  0  0
 14 43  1  0  0  0  0
 14 44  1  0  0  0  0
 15 45  1  0  0  0  0
 15 46  1  0  0  0  0
 16 18  1  0  0  0  0
 16 47  1  0  0  0  0
 16 48  1  0  0  0  0
 17 20  1  0  0  0  0
 17 49  1  0  0  0  0
 17 50  1  0  0  0  0
 19 21  1  0  0  0  0
 20 51  1  0  0  0  0
 20 52  1  0  0  0  0
 21 53  1  0  0  0  0
 21 54  1  0  0  0  0
 22 24  1  0  0  0  0
 22 55  1  0  0  0  0
 22 56  1  0  0  0  0
 23 25  1  0  0  0  0
 23 57  1  0  0  0  0
 23 58  1  0  0  0  0
 24 60  1  0  0  0  0
 24 61  1  0  0  0  0
 25 62  1  0  0  0  0
 25 63  1  0  0  0  0
 26 28  1  0  0  0  0
 26 64  1  0  0  0  0
 26 65  1  0  0  0  0
 27 28  2  0  0  0  0
 27 31  1  0  0  0  0
 28 30  1  0  0  0  0
 29 30  2  0  0  0  0
 29 34  1  0  0  0  0
 30 66  1  0  0  0  0
 31 34  2  0  0  0  0
 31 67  1  0  0  0  0
 32 35  1  0  0  0  0
 32 68  1  0  0  0  0
 32 69  1  0  0  0  0
 33 36  1  0  0  0  0
 33 70  1  0  0  0  0
 33 71  1  0  0  0  0
 34 72  1  0  0  0  0
 35 73  1  0  0  0  0
 35 74  1  0  0  0  0
 36 75  1  0  0  0  0
 36 76  1  0  0  0  0
M  END
> <PUBCHEM_COMPOUND_CID>
56776123

> <PUBCHEM_CONFORMER_RMSD>
1

> <PUBCHEM_CONFORMER_DIVERSEORDER>
1
141
86
111
55
131
37
58
50
26
77
132
64
97
49
52
71
119
28
70
43
137
125
36
29
128
120
13
134
59
98
60
11
114
5
63
143
85
53
89
54
57
40
127
23
51
75
135
30
99
84
102
139
113
87
140
123
25
116
65
7
117
4
94
68
95
46
118
42
47
107
24
61
14
39
16
106
122
93
96
130
48
124
108
9
110
80
72
66
19
31
103
83
121
136
112
101
100
3
35
33
44
20
15
21
138
115
79
90
78
73
56
129
17
142
18
22
109
2
81
6
74
104
10
69
133
32
88
126
38
91
41
76
12
45
8
62
82
34
92
27
67
105

> <PUBCHEM_MMFF94_PARTIAL_CHARGES>
36
1 -0.36
13 0.3
15 0.3
16 0.06
18 0.57
19 0.57
2 -0.57
20 0.28
21 0.33
22 0.3
23 0.3
24 0.28
25 0.28
26 0.41
27 0.08
28 -0.14
29 0.1
3 -0.57
30 -0.15
31 -0.15
32 0.37
33 0.37
34 -0.15
35 0.27
36 0.27
4 -0.56
5 -0.66
59 0.36
6 -0.66
66 0.15
67 0.15
7 -0.9
72 0.15
77 0.36
8 -0.84
9 -0.9

> <PUBCHEM_EFFECTIVE_ROTOR_COUNT>
8.6

> <PUBCHEM_PHARMACOPHORE_FEATURES>
13
1 1 acceptor
1 2 acceptor
1 3 acceptor
1 4 acceptor
1 7 cation
1 7 donor
1 8 cation
1 9 cation
1 9 donor
6 27 28 29 30 31 34 rings
6 4 6 22 23 24 25 rings
6 5 10 11 12 13 15 rings
6 8 9 32 33 35 36 rings

> <PUBCHEM_HEAVY_ATOM_COUNT>
36

> <PUBCHEM_ATOM_DEF_STEREO_COUNT>
2

> <PUBCHEM_ATOM_UDEF_STEREO_COUNT>
0

> <PUBCHEM_BOND_DEF_STEREO_COUNT>
0

> <PUBCHEM_BOND_UDEF_STEREO_COUNT>
0

> <PUBCHEM_ISOTOPIC_ATOM_COUNT>
0

> <PUBCHEM_COMPONENT_COUNT>
1

> <PUBCHEM_CACTVS_TAUTO_COUNT>
2

> <PUBCHEM_CONFORMER_ID>
036255BB00000001

> <PUBCHEM_MMFF94_ENERGY>
107.9278

> <PUBCHEM_FEATURE_SELFOVERLAP>
65.975

> <PUBCHEM_SHAPE_FINGERPRINT>
10533779 47 18335993021066969011
10674148 151 15285356224001810740
10930396 42 14979953662473471651
10939801 23 18271523191943775092
11297750 10 18412254047631343705
11456790 92 18272380784658120427
117089 54 18126290732240203630
11828532 37 18262529211507069363
12202916 173 18342178860357458367
12522641 33 9439406826460185147
12539745 222 18040712511922456732
12838863 1 18272928337064296135
13811026 1 18342458110318861829
14068700 675 18335706031426161004
14117953 113 18201727266810626301
14216079 64 18410856563950581134
14664723 55 8718542857211422554
14675019 173 17749389286629116925
14725015 67 18342174470884771633
15419008 145 18342178830688033889
16664035 1 18341896320218295713
16728300 4 18265606590261530350
19301679 30 18270403772673746614
19315958 150 18198901598984264040
19841028 212 18259983782328198866
21304304 249 18411140255188530061
21792934 111 18272082807715944616
21792965 78 18337379449631915991
22899556 56 17415563112972769072
24893992 56 18336549421780676379
249057 3 18342178899196565791
335352 9 18341335595542619885
3383291 50 18410854348265265826
4112364 45 13614232720044000930
439807 62 18408041814853472024
5718773 13 18409449172282979584
6081469 158 18260265244055796245
6138700 20 18408604773291268009

> <PUBCHEM_SHAPE_MULTIPOLES>
692.48
28.66
3.72
1.16
7.31
1.69
0.1
-25.31
-7.46
-3.58
-0.88
-0.46
0.18
-0.38

> <PUBCHEM_SHAPE_SELFOVERLAP>
1446.84

> <PUBCHEM_SHAPE_VOLUME>
385.2

> <PUBCHEM_COORDINATE_TYPE>
2
5
10

$$$$
