75536780
  -OEChem-12032416323D

 48 50  0     1  0  0  0  0  0999 V2000
   -0.3007   -1.1380   -0.0087 O   0  0  0  0  0  0  0  0  0  0  0  0
   -1.2081    2.2572    0.7358 O   0  0  0  0  0  0  0  0  0  0  0  0
    3.3427    1.3745    0.5934 O   0  0  0  0  0  0  0  0  0  0  0  0
   -3.6207    0.3435    0.1087 N   0  0  0  0  0  0  0  0  0  0  0  0
    2.2242   -0.5458    1.2347 N   0  0  0  0  0  0  0  0  0  0  0  0
   -6.5680   -0.8539   -0.0375 N   0  0  0  0  0  0  0  0  0  0  0  0
   -6.7415    1.1404   -0.9989 N   0  0  0  0  0  0  0  0  0  0  0  0
    4.3822   -0.7252    0.4478 N   0  0  0  0  0  0  0  0  0  0  0  0
   -2.2111    0.2549   -0.2362 C   0  0  1  0  0  0  0  0  0  0  0  0
   -1.2890    0.8473    0.8133 C   0  0  1  0  0  0  0  0  0  0  0  0
    0.0323    0.1822    0.4518 C   0  0  1  0  0  0  0  0  0  0  0  0
   -1.7077   -1.1776   -0.3048 C   0  0  0  0  0  0  0  0  0  0  0  0
    0.9975    0.0900    1.6202 C   0  0  0  0  0  0  0  0  0  0  0  0
   -4.4630    0.0786   -1.0516 C   0  0  0  0  0  0  0  0  0  0  0  0
   -5.9274    0.1498   -0.7093 C   0  0  0  0  0  0  0  0  0  0  0  0
    3.3354    0.1543    0.7376 C   0  0  0  0  0  0  0  0  0  0  0  0
   -7.8737   -0.4794    0.1107 C   0  0  0  0  0  0  0  0  0  0  0  0
   -5.9882   -2.0886    0.4360 C   0  0  0  0  0  0  0  0  0  0  0  0
   -7.9565    0.7544   -0.4905 C   0  0  0  0  0  0  0  0  0  0  0  0
    5.6617   -0.4119   -0.0675 C   0  0  0  0  0  0  0  0  0  0  0  0
    6.5887   -1.4284   -0.2979 C   0  0  0  0  0  0  0  0  0  0  0  0
    5.9965    0.9133   -0.3450 C   0  0  0  0  0  0  0  0  0  0  0  0
    7.8506   -1.1196   -0.8057 C   0  0  0  0  0  0  0  0  0  0  0  0
    7.2583    1.2222   -0.8529 C   0  0  0  0  0  0  0  0  0  0  0  0
    8.1854    0.2058   -1.0832 C   0  0  0  0  0  0  0  0  0  0  0  0
   -2.0203    0.7719   -1.1873 H   0  0  0  0  0  0  0  0  0  0  0  0
   -1.6097    0.5665    1.8243 H   0  0  0  0  0  0  0  0  0  0  0  0
    0.5157    0.7069   -0.3828 H   0  0  0  0  0  0  0  0  0  0  0  0
   -2.1781   -1.8210    0.4479 H   0  0  0  0  0  0  0  0  0  0  0  0
   -1.8580   -1.6319   -1.2888 H   0  0  0  0  0  0  0  0  0  0  0  0
    0.5733   -0.5233    2.4227 H   0  0  0  0  0  0  0  0  0  0  0  0
    1.2153    1.0855    2.0214 H   0  0  0  0  0  0  0  0  0  0  0  0
   -3.8217    1.2817    0.4559 H   0  0  0  0  0  0  0  0  0  0  0  0
   -4.2463   -0.9057   -1.4827 H   0  0  0  0  0  0  0  0  0  0  0  0
   -4.2658    0.8206   -1.8360 H   0  0  0  0  0  0  0  0  0  0  0  0
   -0.9248    2.4984   -0.1624 H   0  0  0  0  0  0  0  0  0  0  0  0
    2.2858   -1.5561    1.3141 H   0  0  0  0  0  0  0  0  0  0  0  0
   -8.6067   -1.0964    0.6116 H   0  0  0  0  0  0  0  0  0  0  0  0
   -5.5560   -2.6222   -0.4139 H   0  0  0  0  0  0  0  0  0  0  0  0
   -5.2236   -1.8538    1.1800 H   0  0  0  0  0  0  0  0  0  0  0  0
   -6.7679   -2.7033    0.8937 H   0  0  0  0  0  0  0  0  0  0  0  0
   -8.8290    1.3845   -0.5831 H   0  0  0  0  0  0  0  0  0  0  0  0
    4.2115   -1.7118    0.6256 H   0  0  0  0  0  0  0  0  0  0  0  0
    6.3405   -2.4653   -0.0860 H   0  0  0  0  0  0  0  0  0  0  0  0
    5.3344    1.7539   -0.1934 H   0  0  0  0  0  0  0  0  0  0  0  0
    8.5725   -1.9109   -0.9851 H   0  0  0  0  0  0  0  0  0  0  0  0
    7.5204    2.2539   -1.0694 H   0  0  0  0  0  0  0  0  0  0  0  0
    9.1679    0.4463   -1.4786 H   0  0  0  0  0  0  0  0  0  0  0  0
  1 11  1  0  0  0  0
  1 12  1  0  0  0  0
  2 10  1  0  0  0  0
  2 36  1  0  0  0  0
  3 16  2  0  0  0  0
  4  9  1  0  0  0  0
  4 14  1  0  0  0  0
  4 33  1  0  0  0  0
  5 13  1  0  0  0  0
  5 16  1  0  0  0  0
  5 37  1  0  0  0  0
  6 15  1  0  0  0  0
  6 17  1  0  0  0  0
  6 18  1  0  0  0  0
  7 15  2  0  0  0  0
  7 19  1  0  0  0  0
  8 16  1  0  0  0  0
  8 20  1  0  0  0  0
  8 43  1  0  0  0  0
  9 10  1  0  0  0  0
  9 12  1  0  0  0  0
  9 26  1  0  0  0  0
 10 11  1  0  0  0  0
 10 27  1  0  0  0  0
 11 13  1  0  0  0  0
 11 28  1  0  0  0  0
 12 29  1  0  0  0  0
 12 30  1  0  0  0  0
 13 31  1  0  0  0  0
 13 32  1  0  0  0  0
 14 15  1  0  0  0  0
 14 34  1  0  0  0  0
 14 35  1  0  0  0  0
 17 19  2  0  0  0  0
 17 38  1  0  0  0  0
 18 39  1  0  0  0  0
 18 40  1  0  0  0  0
 18 41  1  0  0  0  0
 19 42  1  0  0  0  0
 20 21  2  0  0  0  0
 20 22  1  0  0  0  0
 21 23  1  0  0  0  0
 21 44  1  0  0  0  0
 22 24  2  0  0  0  0
 22 45  1  0  0  0  0
 23 25  2  0  0  0  0
 23 46  1  0  0  0  0
 24 25  1  0  0  0  0
 24 47  1  0  0  0  0
 25 48  1  0  0  0  0
M  END
> <PUBCHEM_COMPOUND_CID>
75536780

> <PUBCHEM_CONFORMER_RMSD>
1.2

> <PUBCHEM_CONFORMER_DIVERSEORDER>
1
40
51
4
101
41
10
93
56
39
27
79
64
95
66
37
97
61
9
26
32
92
98
13
99
80
33
23
94
31
87
89
85
73
18
58
28
34
46
5
11
75
83
45
25
65
77
50
7
43
6
90
30
57
100
14
29
36
88
81
8
70
21
54
71
63
3
86
48
82
60
49
59
38
76
55
15
62
67
69
47
22
20
72
52
74
2
53
19
68
78
84
96
17
35
44
12
42
16
91
24
102

> <PUBCHEM_MMFF94_PARTIAL_CHARGES>
36
1 -0.56
10 0.28
11 0.28
12 0.28
13 0.3
14 0.45
15 0.01
16 0.69
17 -0.3
18 0.26
19 0.08
2 -0.68
20 0.12
21 -0.15
22 -0.15
23 -0.15
24 -0.15
25 -0.15
3 -0.57
33 0.36
36 0.4
37 0.37
38 0.15
4 -0.9
42 0.15
43 0.37
44 0.15
45 0.15
46 0.15
47 0.15
48 0.15
5 -0.73
6 0.05
7 -0.57
8 -0.55
9 0.27

> <PUBCHEM_EFFECTIVE_ROTOR_COUNT>
9

> <PUBCHEM_PHARMACOPHORE_FEATURES>
12
1 1 acceptor
1 2 acceptor
1 2 donor
1 3 acceptor
1 4 cation
1 4 donor
1 5 donor
1 8 donor
3 6 7 15 cation
5 1 9 10 11 12 rings
5 6 7 15 17 19 rings
6 20 21 22 23 24 25 rings

> <PUBCHEM_HEAVY_ATOM_COUNT>
25

> <PUBCHEM_ATOM_DEF_STEREO_COUNT>
3

> <PUBCHEM_ATOM_UDEF_STEREO_COUNT>
0

> <PUBCHEM_BOND_DEF_STEREO_COUNT>
0

> <PUBCHEM_BOND_UDEF_STEREO_COUNT>
0

> <PUBCHEM_ISOTOPIC_ATOM_COUNT>
0

> <PUBCHEM_COMPONENT_COUNT>
1

> <PUBCHEM_CACTVS_TAUTO_COUNT>
3

> <PUBCHEM_CONFORMER_ID>
0480998C00000001

> <PUBCHEM_MMFF94_ENERGY>
49.0333

> <PUBCHEM_FEATURE_SELFOVERLAP>
60.949

> <PUBCHEM_SHAPE_FINGERPRINT>
10 15 8430312442230470530
10066227 49 18271528585801090542
10162869 55 12757156813760947307
10299344 5 17918276445633966042
106641 1 11819281048709790877
10669705 176 18334574590430829445
11315181 36 17603302649468088221
11524674 6 14908176469353945957
11638347 137 9727639410325677828
12592606 108 16917342662960686455
13673619 4 16917065551396754032
13685833 64 15554446293389810586
13885169 127 12823302286399820779
14216079 64 14979961354807254636
14251764 18 10879990267859268619
14251764 46 18342738516639967342
14347424 109 12679453201955809770
14856354 85 18408884058378152263
14933364 13 18260545632548134029
15183329 4 17489587861575880262
15690457 1 12607397793343948981
15849732 13 18186802491079016070
16994733 274 15936681580516424101
1754911 235 17749387066177880063
18335252 98 18040438797820086267
20554085 129 14345790582963166920
21095086 128 17775280595673017663
21150785 3 18040154015522878268
21267235 1 18273215305082599737
21403212 168 11312059837699891861
21792934 111 10519984846341437898
221357 26 18411980252836080920
22224240 67 14417850341057372256
22956985 138 16125588571017216166
23559900 14 17773864466897061536
23576562 1 18191574449807926613
246663 6 17275105028644019111
24771293 8 13334734601011209791
28498 318 16056881316534364077
3004659 81 18343015601838374392
4107672 100 18408600353907070773
4325135 7 17312820481449151663
4339292 15 11531062798248320945
444769 64 16845289467154204351
5219985 9 16200433567926790720
5283156 175 18202566164123109308
5470011 282 18411140243042002700
5758199 1 16153706514126721249
59682541 35 13912330079563735781
6394761 36 16415479354969707695

> <PUBCHEM_SHAPE_MULTIPOLES>
471.98
28.27
1.52
1.1
3.05
0.06
-0.13
2.04
10.59
-0.24
-0.07
0.43
-0.12
0.5

> <PUBCHEM_SHAPE_SELFOVERLAP>
992.22

> <PUBCHEM_SHAPE_VOLUME>
265.5

> <PUBCHEM_COORDINATE_TYPE>
2
5
10

$$$$
