75536991
  -OEChem-12032416323D

 42 44  0     1  0  0  0  0  0999 V2000
    5.9737    2.0349   -1.7490 F   0  0  0  0  0  0  0  0  0  0  0  0
    1.3497   -2.9714    0.1046 O   0  0  0  0  0  0  0  0  0  0  0  0
   -5.0052   -0.4996   -1.5714 O   0  0  0  0  0  0  0  0  0  0  0  0
   -4.8829    0.9116    1.0251 O   0  0  0  0  0  0  0  0  0  0  0  0
   -4.5004    2.3874   -0.7307 O   0  0  0  0  0  0  0  0  0  0  0  0
   -0.5748   -1.6245    0.1459 N   0  0  0  0  0  0  0  0  0  0  0  0
    1.2520   -0.9071    1.2402 N   0  0  0  0  0  0  0  0  0  0  0  0
   -2.7702   -0.2673   -0.8848 N   0  0  0  0  0  0  0  0  0  0  0  0
   -1.0039   -0.4094    0.8163 C   0  0  1  0  0  0  0  0  0  0  0  0
    0.2908    0.1732    1.3776 C   0  0  0  0  0  0  0  0  0  0  0  0
   -1.7456    0.5027   -0.1571 C   0  0  0  0  0  0  0  0  0  0  0  0
   -1.5250   -2.3857   -0.6451 C   0  0  0  0  0  0  0  0  0  0  0  0
   -2.2752   -1.4543   -1.5938 C   0  0  0  0  0  0  0  0  0  0  0  0
    0.7497   -1.9637    0.4551 C   0  0  0  0  0  0  0  0  0  0  0  0
    2.5999   -0.8026    1.7535 C   0  0  0  0  0  0  0  0  0  0  0  0
   -4.1117    0.0740   -0.9626 C   0  0  0  0  0  0  0  0  0  0  0  0
    3.4996   -0.0458    0.8197 C   0  0  0  0  0  0  0  0  0  0  0  0
   -4.5208    1.2858   -0.2158 C   0  0  0  0  0  0  0  0  0  0  0  0
    4.2089   -0.7268   -0.1696 C   0  0  0  0  0  0  0  0  0  0  0  0
    3.6262    1.3380    0.9412 C   0  0  0  0  0  0  0  0  0  0  0  0
    5.0450   -0.0242   -1.0373 C   0  0  0  0  0  0  0  0  0  0  0  0
    4.4623    2.0407    0.0737 C   0  0  0  0  0  0  0  0  0  0  0  0
    5.1717    1.3596   -0.9156 C   0  0  0  0  0  0  0  0  0  0  0  0
   -5.3135    1.9746    1.8800 C   0  0  0  0  0  0  0  0  0  0  0  0
   -1.6708   -0.7181    1.6315 H   0  0  0  0  0  0  0  0  0  0  0  0
    0.6439    1.0346    0.8024 H   0  0  0  0  0  0  0  0  0  0  0  0
    0.1905    0.4531    2.4305 H   0  0  0  0  0  0  0  0  0  0  0  0
   -1.0631    0.9006   -0.9184 H   0  0  0  0  0  0  0  0  0  0  0  0
   -2.1701    1.3555    0.3773 H   0  0  0  0  0  0  0  0  0  0  0  0
   -2.2216   -2.8549    0.0588 H   0  0  0  0  0  0  0  0  0  0  0  0
   -1.0047   -3.1782   -1.1915 H   0  0  0  0  0  0  0  0  0  0  0  0
   -1.6026   -1.0937   -2.3814 H   0  0  0  0  0  0  0  0  0  0  0  0
   -3.0976   -1.9901   -2.0781 H   0  0  0  0  0  0  0  0  0  0  0  0
    2.9951   -1.8153    1.8994 H   0  0  0  0  0  0  0  0  0  0  0  0
    2.5667   -0.3312    2.7426 H   0  0  0  0  0  0  0  0  0  0  0  0
    4.1192   -1.8046   -0.2758 H   0  0  0  0  0  0  0  0  0  0  0  0
    3.0795    1.8802    1.7081 H   0  0  0  0  0  0  0  0  0  0  0  0
    5.5971   -0.5539   -1.8079 H   0  0  0  0  0  0  0  0  0  0  0  0
    4.5611    3.1181    0.1679 H   0  0  0  0  0  0  0  0  0  0  0  0
   -5.5811    1.5451    2.8491 H   0  0  0  0  0  0  0  0  0  0  0  0
   -6.1948    2.4672    1.4582 H   0  0  0  0  0  0  0  0  0  0  0  0
   -4.5023    2.6943    2.0265 H   0  0  0  0  0  0  0  0  0  0  0  0
  1 23  1  0  0  0  0
  2 14  2  0  0  0  0
  3 16  2  0  0  0  0
  4 18  1  0  0  0  0
  4 24  1  0  0  0  0
  5 18  2  0  0  0  0
  6  9  1  0  0  0  0
  6 12  1  0  0  0  0
  6 14  1  0  0  0  0
  7 10  1  0  0  0  0
  7 14  1  0  0  0  0
  7 15  1  0  0  0  0
  8 11  1  0  0  0  0
  8 13  1  0  0  0  0
  8 16  1  0  0  0  0
  9 10  1  0  0  0  0
  9 11  1  0  0  0  0
  9 25  1  0  0  0  0
 10 26  1  0  0  0  0
 10 27  1  0  0  0  0
 11 28  1  0  0  0  0
 11 29  1  0  0  0  0
 12 13  1  0  0  0  0
 12 30  1  0  0  0  0
 12 31  1  0  0  0  0
 13 32  1  0  0  0  0
 13 33  1  0  0  0  0
 15 17  1  0  0  0  0
 15 34  1  0  0  0  0
 15 35  1  0  0  0  0
 16 18  1  0  0  0  0
 17 19  2  0  0  0  0
 17 20  1  0  0  0  0
 19 21  1  0  0  0  0
 19 36  1  0  0  0  0
 20 22  2  0  0  0  0
 20 37  1  0  0  0  0
 21 23  2  0  0  0  0
 21 38  1  0  0  0  0
 22 23  1  0  0  0  0
 22 39  1  0  0  0  0
 24 40  1  0  0  0  0
 24 41  1  0  0  0  0
 24 42  1  0  0  0  0
M  END
> <PUBCHEM_COMPOUND_CID>
75536991

> <PUBCHEM_CONFORMER_RMSD>
0.8

> <PUBCHEM_CONFORMER_DIVERSEORDER>
1
69
76
70
58
74
51
54
22
33
68
18
23
59
31
55
64
29
73
46
44
75
52
24
65
6
3
49
62
16
48
61
63
7
25
53
50
36
56
13
21
34
47
60
66
4
12
67
45
20
9
40
11
57
32
41
28
30
5
19
72
15
27
39
42
35
2
14
26
37
8
10
17
38
71
43

> <PUBCHEM_MMFF94_PARTIAL_CHARGES>
28
1 -0.19
10 0.3
11 0.3
12 0.3
13 0.3
14 0.69
15 0.44
16 0.63
17 -0.14
18 0.72
19 -0.15
2 -0.57
20 -0.15
21 -0.15
22 -0.15
23 0.19
24 0.28
3 -0.57
36 0.15
37 0.15
38 0.15
39 0.15
4 -0.43
5 -0.57
6 -0.66
7 -0.66
8 -0.66
9 0.3

> <PUBCHEM_EFFECTIVE_ROTOR_COUNT>
6.2

> <PUBCHEM_PHARMACOPHORE_FEATURES>
6
1 2 acceptor
1 3 acceptor
1 5 acceptor
5 6 7 9 10 14 rings
6 17 19 20 21 22 23 rings
6 6 8 9 11 12 13 rings

> <PUBCHEM_HEAVY_ATOM_COUNT>
24

> <PUBCHEM_ATOM_DEF_STEREO_COUNT>
1

> <PUBCHEM_ATOM_UDEF_STEREO_COUNT>
0

> <PUBCHEM_BOND_DEF_STEREO_COUNT>
0

> <PUBCHEM_BOND_UDEF_STEREO_COUNT>
0

> <PUBCHEM_ISOTOPIC_ATOM_COUNT>
0

> <PUBCHEM_COMPONENT_COUNT>
1

> <PUBCHEM_CACTVS_TAUTO_COUNT>
1

> <PUBCHEM_CONFORMER_ID>
04809A5F00000001

> <PUBCHEM_MMFF94_ENERGY>
51.155

> <PUBCHEM_FEATURE_SELFOVERLAP>
30.547

> <PUBCHEM_SHAPE_FINGERPRINT>
10319926 262 12397117268843090976
10447042 23 10879986956945957136
10498660 4 18335979887167090736
10670039 82 18271803501634408144
11135609 201 17241897682185189544
11796584 16 14333119758822961228
12390115 104 18410017671191910955
12523318 42 13479131294313052749
12596602 18 13190341270890071348
12839892 36 12757150164877279697
12892183 10 13190323674471972814
13782708 43 13182156562642385117
13885169 86 17605004791551280532
1420 369 10519991482455676444
14251764 75 18261684769634503372
14528608 73 18409720772871335965
14790565 3 18342178838898166721
14840074 17 18334581222367165277
14848178 5 11384111942653363220
14950920 106 16009296592199460345
15163728 17 18335147518073463758
15183329 4 17489591147067755528
15188451 53 12252192896059857441
15210252 30 18113899412114682388
15575132 122 18334572400588800533
17857418 61 8862938377364448713
17959699 21 18411133632575786750
18222031 100 10737289017588179610
19377110 9 11747226796404196050
20621476 91 14273748377724138097
20645477 70 14764340596107679058
21304303 282 8644844710226262355
21315764 119 17059788719128820452
22079108 93 16950285117512417555
23366157 5 18122333580647729559
23559900 14 17845931815122755814
2838139 119 18187080672475440156
312425 83 15122923197787333945
32948 21 17131830949910078592
3459 110 16733561536292996505
3472631 163 18041840731195827382
38570 142 17774740662143205217
46194498 28 16843023484793757832
474 4 17822003225002325226
6034566 193 18335996362123866809
633830 44 18341603832966043262
76465 3 10087637113344750419
8988823 20 9511164236480662346
960060 61 15913326927192639432

> <PUBCHEM_SHAPE_MULTIPOLES>
448.21
13.47
2.57
1.66
0.59
0.43
-0.07
-10.08
4.09
-0.5
0.09
-0.08
-0.29
-2.16

> <PUBCHEM_SHAPE_SELFOVERLAP>
952.692

> <PUBCHEM_SHAPE_VOLUME>
251.2

> <PUBCHEM_COORDINATE_TYPE>
2
5
10

$$$$
