38028017
  -OEChem-12032416243D

 73 75  0     1  0  0  0  0  0999 V2000
    1.6284    3.3579   -0.0514 O   0  0  0  0  0  0  0  0  0  0  0  0
   -2.8007   -2.3983    1.5235 O   0  0  0  0  0  0  0  0  0  0  0  0
   -2.9366   -1.2063   -0.4742 N   0  0  0  0  0  0  0  0  0  0  0  0
    2.9137    1.4527   -0.3881 N   0  0  0  0  0  0  0  0  0  0  0  0
    5.0886   -0.2007    0.4744 N   0  0  0  0  0  0  0  0  0  0  0  0
   -2.0965    1.3808    0.8081 C   0  0  1  0  0  0  0  0  0  0  0  0
   -3.2758    1.1908   -0.1783 C   0  0  1  0  0  0  0  0  0  0  0  0
   -1.2454    2.5928    0.3993 C   0  0  0  0  0  0  0  0  0  0  0  0
   -0.6732    2.4495   -1.0237 C   0  0  2  0  0  0  0  0  0  0  0  0
   -2.5833    1.5518    2.2505 C   0  0  0  0  0  0  0  0  0  0  0  0
   -1.7296    1.9997   -2.0126 C   0  0  0  0  0  0  0  0  0  0  0  0
   -2.8919    1.4518   -1.6160 C   0  0  0  0  0  0  0  0  0  0  0  0
   -3.8772   -0.2140   -0.0574 C   0  0  0  0  0  0  0  0  0  0  0  0
    0.5330    1.5039   -1.0414 C   0  0  0  0  0  0  0  0  0  0  0  0
   -1.4908    1.1422    3.2330 C   0  0  0  0  0  0  0  0  0  0  0  0
   -3.0203    2.9923    2.4972 C   0  0  0  0  0  0  0  0  0  0  0  0
   -1.5111   -3.1428   -0.3410 C   0  0  0  0  0  0  0  0  0  0  0  0
   -1.4384    2.2363   -3.4685 C   0  0  0  0  0  0  0  0  0  0  0  0
    1.7355    2.1953   -0.4497 C   0  0  0  0  0  0  0  0  0  0  0  0
   -0.2955   -2.3531   -0.8282 C   0  0  0  0  0  0  0  0  0  0  0  0
   -1.1044   -4.2649    0.6158 C   0  0  0  0  0  0  0  0  0  0  0  0
   -2.4701   -2.2255    0.3532 C   0  0  0  0  0  0  0  0  0  0  0  0
    0.7548   -3.2697   -1.4504 C   0  0  0  0  0  0  0  0  0  0  0  0
   -0.0507   -5.1778   -0.0060 C   0  0  0  0  0  0  0  0  0  0  0  0
    1.1606   -4.3887   -0.4953 C   0  0  0  0  0  0  0  0  0  0  0  0
    4.1227    2.0503    0.1764 C   0  0  0  0  0  0  0  0  0  0  0  0
    3.1085    0.1218   -0.9708 C   0  0  0  0  0  0  0  0  0  0  0  0
    4.8232    1.0864    1.1335 C   0  0  0  0  0  0  0  0  0  0  0  0
    3.8338   -0.8065    0.0051 C   0  0  0  0  0  0  0  0  0  0  0  0
    5.7886   -1.1080    1.3828 C   0  0  0  0  0  0  0  0  0  0  0  0
   -1.4585    0.4905    0.7686 H   0  0  0  0  0  0  0  0  0  0  0  0
   -4.0721    1.9072    0.0600 H   0  0  0  0  0  0  0  0  0  0  0  0
   -0.4448    2.7674    1.1238 H   0  0  0  0  0  0  0  0  0  0  0  0
   -1.8556    3.5052    0.3812 H   0  0  0  0  0  0  0  0  0  0  0  0
   -0.3612    3.4542   -1.3423 H   0  0  0  0  0  0  0  0  0  0  0  0
   -3.4413    0.8998    2.4437 H   0  0  0  0  0  0  0  0  0  0  0  0
   -3.6336    1.1906   -2.3684 H   0  0  0  0  0  0  0  0  0  0  0  0
   -4.7485   -0.3106   -0.7165 H   0  0  0  0  0  0  0  0  0  0  0  0
   -4.2288   -0.4232    0.9566 H   0  0  0  0  0  0  0  0  0  0  0  0
    0.7914    1.2278   -2.0694 H   0  0  0  0  0  0  0  0  0  0  0  0
    0.3308    0.5892   -0.4789 H   0  0  0  0  0  0  0  0  0  0  0  0
   -0.5955    1.7653    3.1446 H   0  0  0  0  0  0  0  0  0  0  0  0
   -1.1948    0.0991    3.0766 H   0  0  0  0  0  0  0  0  0  0  0  0
   -1.8516    1.2296    4.2639 H   0  0  0  0  0  0  0  0  0  0  0  0
   -2.1802    3.6915    2.5654 H   0  0  0  0  0  0  0  0  0  0  0  0
   -3.5350    3.0511    3.4643 H   0  0  0  0  0  0  0  0  0  0  0  0
   -3.7307    3.3530    1.7476 H   0  0  0  0  0  0  0  0  0  0  0  0
   -2.0285   -3.5826   -1.2040 H   0  0  0  0  0  0  0  0  0  0  0  0
   -1.2068    3.2920   -3.6435 H   0  0  0  0  0  0  0  0  0  0  0  0
   -2.2921    1.9794   -4.1050 H   0  0  0  0  0  0  0  0  0  0  0  0
   -0.5894    1.6332   -3.8025 H   0  0  0  0  0  0  0  0  0  0  0  0
   -2.6751   -1.2179   -1.4553 H   0  0  0  0  0  0  0  0  0  0  0  0
    0.1538   -1.8065    0.0114 H   0  0  0  0  0  0  0  0  0  0  0  0
   -0.5777   -1.6001   -1.5725 H   0  0  0  0  0  0  0  0  0  0  0  0
   -1.9804   -4.8634    0.8955 H   0  0  0  0  0  0  0  0  0  0  0  0
   -0.6996   -3.8470    1.5474 H   0  0  0  0  0  0  0  0  0  0  0  0
    1.6389   -2.6874   -1.7307 H   0  0  0  0  0  0  0  0  0  0  0  0
    0.3553   -3.7060   -2.3742 H   0  0  0  0  0  0  0  0  0  0  0  0
   -0.4936   -5.7246   -0.8476 H   0  0  0  0  0  0  0  0  0  0  0  0
    0.2689   -5.9261    0.7280 H   0  0  0  0  0  0  0  0  0  0  0  0
    1.8631   -5.0642   -0.9961 H   0  0  0  0  0  0  0  0  0  0  0  0
    1.6884   -3.9591    0.3653 H   0  0  0  0  0  0  0  0  0  0  0  0
    3.8852    2.9823    0.6995 H   0  0  0  0  0  0  0  0  0  0  0  0
    4.7804    2.3054   -0.6637 H   0  0  0  0  0  0  0  0  0  0  0  0
    3.7030    0.2569   -1.8828 H   0  0  0  0  0  0  0  0  0  0  0  0
    2.1643   -0.3347   -1.2689 H   0  0  0  0  0  0  0  0  0  0  0  0
    4.2017    0.9411    2.0272 H   0  0  0  0  0  0  0  0  0  0  0  0
    5.7657    1.5438    1.4573 H   0  0  0  0  0  0  0  0  0  0  0  0
    4.0435   -1.7521   -0.5090 H   0  0  0  0  0  0  0  0  0  0  0  0
    3.1730   -1.0319    0.8530 H   0  0  0  0  0  0  0  0  0  0  0  0
    6.0240   -2.0513    0.8777 H   0  0  0  0  0  0  0  0  0  0  0  0
    5.1995   -1.3342    2.2790 H   0  0  0  0  0  0  0  0  0  0  0  0
    6.7440   -0.6743    1.6985 H   0  0  0  0  0  0  0  0  0  0  0  0
  1 19  2  0  0  0  0
  2 22  2  0  0  0  0
  3 13  1  0  0  0  0
  3 22  1  0  0  0  0
  3 52  1  0  0  0  0
  4 19  1  0  0  0  0
  4 26  1  0  0  0  0
  4 27  1  0  0  0  0
  5 28  1  0  0  0  0
  5 29  1  0  0  0  0
  5 30  1  0  0  0  0
  6  7  1  0  0  0  0
  6  8  1  0  0  0  0
  6 10  1  0  0  0  0
  6 31  1  0  0  0  0
  7 12  1  0  0  0  0
  7 13  1  0  0  0  0
  7 32  1  0  0  0  0
  8  9  1  0  0  0  0
  8 33  1  0  0  0  0
  8 34  1  0  0  0  0
  9 11  1  0  0  0  0
  9 14  1  0  0  0  0
  9 35  1  0  0  0  0
 10 15  1  0  0  0  0
 10 16  1  0  0  0  0
 10 36  1  0  0  0  0
 11 12  2  0  0  0  0
 11 18  1  0  0  0  0
 12 37  1  0  0  0  0
 13 38  1  0  0  0  0
 13 39  1  0  0  0  0
 14 19  1  0  0  0  0
 14 40  1  0  0  0  0
 14 41  1  0  0  0  0
 15 42  1  0  0  0  0
 15 43  1  0  0  0  0
 15 44  1  0  0  0  0
 16 45  1  0  0  0  0
 16 46  1  0  0  0  0
 16 47  1  0  0  0  0
 17 20  1  0  0  0  0
 17 21  1  0  0  0  0
 17 22  1  0  0  0  0
 17 48  1  0  0  0  0
 18 49  1  0  0  0  0
 18 50  1  0  0  0  0
 18 51  1  0  0  0  0
 20 23  1  0  0  0  0
 20 53  1  0  0  0  0
 20 54  1  0  0  0  0
 21 24  1  0  0  0  0
 21 55  1  0  0  0  0
 21 56  1  0  0  0  0
 23 25  1  0  0  0  0
 23 57  1  0  0  0  0
 23 58  1  0  0  0  0
 24 25  1  0  0  0  0
 24 59  1  0  0  0  0
 24 60  1  0  0  0  0
 25 61  1  0  0  0  0
 25 62  1  0  0  0  0
 26 28  1  0  0  0  0
 26 63  1  0  0  0  0
 26 64  1  0  0  0  0
 27 29  1  0  0  0  0
 27 65  1  0  0  0  0
 27 66  1  0  0  0  0
 28 67  1  0  0  0  0
 28 68  1  0  0  0  0
 29 69  1  0  0  0  0
 29 70  1  0  0  0  0
 30 71  1  0  0  0  0
 30 72  1  0  0  0  0
 30 73  1  0  0  0  0
M  END
> <PUBCHEM_COMPOUND_CID>
38028017

> <PUBCHEM_CONFORMER_RMSD>
1.2

> <PUBCHEM_CONFORMER_DIVERSEORDER>
1
125
73
70
138
71
81
53
145
80
140
111
48
139
105
13
72
45
117
14
144
101
16
34
60
94
25
59
92
38
98
63
36
19
29
54
79
69
12
116
112
65
15
119
118
83
135
8
143
132
5
87
27
61
57
40
51
52
106
47
130
67
91
136
78
102
115
137
85
20
35
31
64
108
82
128
21
24
109
62
17
66
3
142
134
28
121
76
56
90
32
50
2
10
133
18
68
58
7
110
127
49
89
95
107
103
37
43
88
6
141
75
120
41
99
97
114
46
123
23
113
55
9
126
122
124
26
44
39
86
74
100
22
77
129
11
146
33
104
30
4
93
96
131
84
42

> <PUBCHEM_MMFF94_PARTIAL_CHARGES>
22
1 -0.57
11 -0.28
12 -0.29
13 0.3
14 0.06
17 0.06
18 0.14
19 0.57
2 -0.57
22 0.57
26 0.3
27 0.3
28 0.27
29 0.27
3 -0.73
30 0.27
37 0.15
4 -0.66
5 -0.81
52 0.37
7 0.14
9 0.14

> <PUBCHEM_EFFECTIVE_ROTOR_COUNT>
11.2

> <PUBCHEM_PHARMACOPHORE_FEATURES>
8
1 1 acceptor
1 2 acceptor
1 3 donor
1 5 cation
3 10 15 16 hydrophobe
6 17 20 21 23 24 25 rings
6 4 5 26 27 28 29 rings
6 6 7 8 9 11 12 rings

> <PUBCHEM_HEAVY_ATOM_COUNT>
30

> <PUBCHEM_ATOM_DEF_STEREO_COUNT>
3

> <PUBCHEM_ATOM_UDEF_STEREO_COUNT>
0

> <PUBCHEM_BOND_DEF_STEREO_COUNT>
0

> <PUBCHEM_BOND_UDEF_STEREO_COUNT>
0

> <PUBCHEM_ISOTOPIC_ATOM_COUNT>
0

> <PUBCHEM_COMPONENT_COUNT>
1

> <PUBCHEM_CACTVS_TAUTO_COUNT>
2

> <PUBCHEM_CONFORMER_ID>
024442F100000001

> <PUBCHEM_MMFF94_ENERGY>
52.3763

> <PUBCHEM_FEATURE_SELFOVERLAP>
40.596

> <PUBCHEM_SHAPE_FINGERPRINT>
11014199 57 17471854075230027430
11552529 35 18126286578373162664
12422481 6 18263669358136457299
12633257 1 18339655455438506652
13122387 1 17761212107434125846
14028597 1 17845948351373950105
16120349 306 18339917109162051146
19930381 70 17976821982738807311
20764821 26 18193559956853411406
20775438 99 16256964137920552519
20775530 9 17329998408680530631
229767 44 18338220601855581394
238918 7 18341888555276120742
3027735 51 18338221696734034151
463206 1 17257947416059960986
7097593 13 17328589925917143214

> <PUBCHEM_SHAPE_MULTIPOLES>
590.7
8.17
6.31
2.47
12.12
9.18
-0.25
-3.56
-3.36
-0.18
0.32
-2.41
-2.13
0.18

> <PUBCHEM_SHAPE_SELFOVERLAP>
1200.494

> <PUBCHEM_SHAPE_VOLUME>
340.6

> <PUBCHEM_COORDINATE_TYPE>
2
5
10

$$$$
