7664141
  -OEChem-12032416113D

 58 62  0     1  0  0  0  0  0999 V2000
    0.0032    2.6844    1.8946 O   0  0  0  0  0  0  0  0  0  0  0  0
   -3.1058   -1.5133    1.7974 O   0  0  0  0  0  0  0  0  0  0  0  0
    2.8678    1.0357   -1.6520 O   0  0  0  0  0  0  0  0  0  0  0  0
    4.4610    2.8026    0.9092 O   0  0  0  0  0  0  0  0  0  0  0  0
    2.4149   -5.9991   -0.8232 O   0  0  0  0  0  0  0  0  0  0  0  0
   -3.8179   -0.0493    0.1531 N   0  0  0  0  0  0  0  0  0  0  0  0
   -1.7010    2.3310    0.3356 N   0  0  0  0  0  0  0  0  0  0  0  0
   -2.4949   -1.9230   -0.4013 N   0  0  0  0  0  0  0  0  0  0  0  0
    1.9873    2.3976    0.0154 N   0  0  0  0  0  0  0  0  0  0  0  0
   -4.1778    2.2828    0.9782 C   0  0  1  0  0  0  0  0  0  0  0  0
   -3.5176    1.9066   -1.3588 C   0  0  2  0  0  0  0  0  0  0  0  0
   -4.4168    2.7444   -0.4539 C   0  0  0  0  0  0  0  0  0  0  0  0
   -4.5240    0.7915    1.1244 C   0  0  0  0  0  0  0  0  0  0  0  0
   -2.7232    2.5780    1.3612 C   0  0  0  0  0  0  0  0  0  0  0  0
   -3.9011    0.4161   -1.2433 C   0  0  0  0  0  0  0  0  0  0  0  0
   -2.0550    2.0868   -0.9951 C   0  0  0  0  0  0  0  0  0  0  0  0
   -1.1041    1.9791   -1.9383 C   0  0  0  0  0  0  0  0  0  0  0  0
   -0.3561    2.4541    0.7392 C   0  0  0  0  0  0  0  0  0  0  0  0
   -3.1249   -1.1937    0.6059 C   0  0  0  0  0  0  0  0  0  0  0  0
    0.6735    2.3014   -0.3372 C   0  0  0  0  0  0  0  0  0  0  0  0
    0.2867    2.0876   -1.5993 C   0  0  0  0  0  0  0  0  0  0  0  0
   -1.3710   -2.7747   -0.2665 C   0  0  0  0  0  0  0  0  0  0  0  0
    3.0118    1.7555   -0.6668 C   0  0  0  0  0  0  0  0  0  0  0  0
   -0.7206   -2.8738    0.9604 C   0  0  0  0  0  0  0  0  0  0  0  0
   -0.9245   -3.5092   -1.3615 C   0  0  0  0  0  0  0  0  0  0  0  0
    4.3829    1.9984   -0.1477 C   0  0  0  0  0  0  0  0  0  0  0  0
    0.3848   -3.7141    1.0933 C   0  0  0  0  0  0  0  0  0  0  0  0
    0.1809   -4.3495   -1.2286 C   0  0  0  0  0  0  0  0  0  0  0  0
    0.8356   -4.4520   -0.0012 C   0  0  0  0  0  0  0  0  0  0  0  0
    5.5524    1.5278   -0.5857 C   0  0  0  0  0  0  0  0  0  0  0  0
    1.9891   -5.3269    0.1372 C   0  0  0  0  0  0  0  0  0  0  0  0
    6.5041    2.0961    0.2943 C   0  0  0  0  0  0  0  0  0  0  0  0
    5.7901    2.8631    1.1853 C   0  0  0  0  0  0  0  0  0  0  0  0
    2.7102   -5.4422    1.4757 C   0  0  0  0  0  0  0  0  0  0  0  0
   -4.8324    2.8423    1.6580 H   0  0  0  0  0  0  0  0  0  0  0  0
   -3.6832    2.2267   -2.3958 H   0  0  0  0  0  0  0  0  0  0  0  0
   -5.4700    2.6109   -0.7294 H   0  0  0  0  0  0  0  0  0  0  0  0
   -4.1895    3.8127   -0.5590 H   0  0  0  0  0  0  0  0  0  0  0  0
   -4.3248    0.4604    2.1488 H   0  0  0  0  0  0  0  0  0  0  0  0
   -5.5958    0.6417    0.9448 H   0  0  0  0  0  0  0  0  0  0  0  0
   -2.6362    3.6438    1.6132 H   0  0  0  0  0  0  0  0  0  0  0  0
   -2.4461    2.0302    2.2707 H   0  0  0  0  0  0  0  0  0  0  0  0
   -4.9396    0.2682   -1.5638 H   0  0  0  0  0  0  0  0  0  0  0  0
   -3.2715   -0.1653   -1.9184 H   0  0  0  0  0  0  0  0  0  0  0  0
   -1.3534    1.7813   -2.9757 H   0  0  0  0  0  0  0  0  0  0  0  0
    0.9642    2.0261   -2.4421 H   0  0  0  0  0  0  0  0  0  0  0  0
   -2.8855   -1.8878   -1.3364 H   0  0  0  0  0  0  0  0  0  0  0  0
    2.1962    2.8067    0.9229 H   0  0  0  0  0  0  0  0  0  0  0  0
   -0.9997   -2.3005    1.8355 H   0  0  0  0  0  0  0  0  0  0  0  0
   -1.4261   -3.4379   -2.3230 H   0  0  0  0  0  0  0  0  0  0  0  0
    0.8702   -3.7583    2.0634 H   0  0  0  0  0  0  0  0  0  0  0  0
    0.5134   -4.9139   -2.0958 H   0  0  0  0  0  0  0  0  0  0  0  0
    5.7415    0.8657   -1.4181 H   0  0  0  0  0  0  0  0  0  0  0  0
    7.5763    1.9633    0.2811 H   0  0  0  0  0  0  0  0  0  0  0  0
    6.0648    3.4803    2.0284 H   0  0  0  0  0  0  0  0  0  0  0  0
    3.5425   -6.1460    1.3742 H   0  0  0  0  0  0  0  0  0  0  0  0
    3.1218   -4.4728    1.7682 H   0  0  0  0  0  0  0  0  0  0  0  0
    2.0311   -5.8309    2.2390 H   0  0  0  0  0  0  0  0  0  0  0  0
  1 18  2  0  0  0  0
  2 19  2  0  0  0  0
  3 23  2  0  0  0  0
  4 26  1  0  0  0  0
  4 33  1  0  0  0  0
  5 31  2  0  0  0  0
  6 13  1  0  0  0  0
  6 15  1  0  0  0  0
  6 19  1  0  0  0  0
  7 14  1  0  0  0  0
  7 16  1  0  0  0  0
  7 18  1  0  0  0  0
  8 19  1  0  0  0  0
  8 22  1  0  0  0  0
  8 47  1  0  0  0  0
  9 20  1  0  0  0  0
  9 23  1  0  0  0  0
  9 48  1  0  0  0  0
 10 12  1  0  0  0  0
 10 13  1  0  0  0  0
 10 14  1  0  0  0  0
 10 35  1  0  0  0  0
 11 12  1  0  0  0  0
 11 15  1  0  0  0  0
 11 16  1  0  0  0  0
 11 36  1  0  0  0  0
 12 37  1  0  0  0  0
 12 38  1  0  0  0  0
 13 39  1  0  0  0  0
 13 40  1  0  0  0  0
 14 41  1  0  0  0  0
 14 42  1  0  0  0  0
 15 43  1  0  0  0  0
 15 44  1  0  0  0  0
 16 17  2  0  0  0  0
 17 21  1  0  0  0  0
 17 45  1  0  0  0  0
 18 20  1  0  0  0  0
 20 21  2  0  0  0  0
 21 46  1  0  0  0  0
 22 24  2  0  0  0  0
 22 25  1  0  0  0  0
 23 26  1  0  0  0  0
 24 27  1  0  0  0  0
 24 49  1  0  0  0  0
 25 28  2  0  0  0  0
 25 50  1  0  0  0  0
 26 30  2  0  0  0  0
 27 29  2  0  0  0  0
 27 51  1  0  0  0  0
 28 29  1  0  0  0  0
 28 52  1  0  0  0  0
 29 31  1  0  0  0  0
 30 32  1  0  0  0  0
 30 53  1  0  0  0  0
 31 34  1  0  0  0  0
 32 33  2  0  0  0  0
 32 54  1  0  0  0  0
 33 55  1  0  0  0  0
 34 56  1  0  0  0  0
 34 57  1  0  0  0  0
 34 58  1  0  0  0  0
M  END
> <PUBCHEM_COMPOUND_CID>
7664141

> <PUBCHEM_CONFORMER_RMSD>
1

> <PUBCHEM_CONFORMER_DIVERSEORDER>
1
13
36
22
29
31
24
7
15
30
32
33
27
23
21
20
10
34
25
19
37
6
9
35
16
17
5
14
28
18
12
26
2
11
38
3
8
4

> <PUBCHEM_MMFF94_PARTIAL_CHARGES>
43
1 -0.57
11 0.14
13 0.3
14 0.3
15 0.3
16 -0.03
17 -0.15
18 0.62
19 0.69
2 -0.57
20 0.12
21 -0.15
22 0.12
23 0.71
24 -0.15
25 -0.15
26 0.05
27 -0.15
28 -0.15
29 0.09
3 -0.57
30 -0.15
31 0.42
32 -0.15
33 -0.01
34 0.06
4 -0.28
45 0.15
46 0.15
47 0.37
48 0.37
49 0.15
5 -0.57
50 0.15
51 0.15
52 0.15
53 0.15
54 0.15
55 0.15
6 -0.66
7 -0.47
8 -0.55
9 -0.54

> <PUBCHEM_EFFECTIVE_ROTOR_COUNT>
8

> <PUBCHEM_PHARMACOPHORE_FEATURES>
12
1 1 acceptor
1 2 acceptor
1 3 acceptor
1 4 acceptor
1 5 acceptor
1 8 donor
1 9 donor
5 4 26 30 32 33 rings
6 22 24 25 27 28 29 rings
6 6 10 11 12 13 15 rings
6 7 10 11 12 14 16 rings
6 7 16 17 18 20 21 rings

> <PUBCHEM_HEAVY_ATOM_COUNT>
34

> <PUBCHEM_ATOM_DEF_STEREO_COUNT>
2

> <PUBCHEM_ATOM_UDEF_STEREO_COUNT>
0

> <PUBCHEM_BOND_DEF_STEREO_COUNT>
0

> <PUBCHEM_BOND_UDEF_STEREO_COUNT>
0

> <PUBCHEM_ISOTOPIC_ATOM_COUNT>
0

> <PUBCHEM_COMPONENT_COUNT>
1

> <PUBCHEM_CACTVS_TAUTO_COUNT>
18

> <PUBCHEM_CONFORMER_ID>
0074F20D00000001

> <PUBCHEM_MMFF94_ENERGY>
94.8394

> <PUBCHEM_FEATURE_SELFOVERLAP>
62.468

> <PUBCHEM_SHAPE_FINGERPRINT>
10290309 65 18410295822101103478
11513181 2 18343865524142561982
11524674 6 18411978091697254885
12712778 12 18122619724400999552
14020679 6 17774175598839768409
14028597 1 17845956056397768217
14114207 22 18334845117884270399
14363568 33 18122071896526410354
14415361 192 16667965458063049057
14659021 117 17763448913769870128
14844126 61 18121778601836241496
15320294 125 17896308289896227698
15927050 60 18413667998615047295
15961568 22 17619622484856955806
16120349 306 18410292514522611561
16719943 64 18337954614103087098
16993438 75 17985821773496937468
17627616 140 18410570652341751863
19311894 1 17759518168734221450
19611394 137 17841427335670954120
20609170 109 15962796365008703504
20764821 26 18339346505856605982
20771845 165 17752756940785422157
20775530 9 16970000735298473847
21133410 52 15028367788186701084
21344244 246 18264757793586960605
21796203 349 17116114333166048730
229767 44 18263927811956572322
23516275 137 18118142302831102544
3383291 50 18123469650936610203
3882209 13 16758294174239561382
463206 1 17328311242858487694
49967989 163 17832719233679908740
5080951 261 17753580689827145816
5171179 24 17758387479527101405
5265222 85 18263661703962092229
581034 39 18194658562543463490
6201320 77 15541865775892543540

> <PUBCHEM_SHAPE_MULTIPOLES>
650.43
10.43
8.82
1.67
10.24
16.44
0.04
-11.92
-1.88
9.7
-0.6
-0.56
-0.18
0.25

> <PUBCHEM_SHAPE_SELFOVERLAP>
1432.091

> <PUBCHEM_SHAPE_VOLUME>
342.6

> <PUBCHEM_COORDINATE_TYPE>
2
5
10

$$$$
