26743088
  -OEChem-12032416193D

 63 66  0     1  0  0  0  0  0999 V2000
    5.9389    2.6035    0.1283 S   0  0  0  0  0  0  0  0  0  0  0  0
   -3.4961   -1.8222   -0.4311 O   0  0  0  0  0  0  0  0  0  0  0  0
    3.1441    2.1952    1.9103 O   0  0  0  0  0  0  0  0  0  0  0  0
    1.5811   -3.2429   -0.0648 N   0  0  0  0  0  0  0  0  0  0  0  0
   -4.2921   -0.4110    1.2287 N   0  0  0  0  0  0  0  0  0  0  0  0
    1.9150    1.5467    1.9152 N   0  0  0  0  0  0  0  0  0  0  0  0
   -0.8234   -1.5917    0.1943 C   0  0  1  0  0  0  0  0  0  0  0  0
    0.5949   -0.9769    0.2711 C   0  0  2  0  0  0  0  0  0  0  0  0
   -0.8025   -3.0759    0.5897 C   0  0  0  0  0  0  0  0  0  0  0  0
    1.5764   -1.8542   -0.5283 C   0  0  0  0  0  0  0  0  0  0  0  0
    0.2563   -3.8486   -0.1961 C   0  0  0  0  0  0  0  0  0  0  0  0
   -1.8624   -0.8256    1.0118 C   0  0  0  0  0  0  0  0  0  0  0  0
    1.1008   -0.7618    1.7037 C   0  0  0  0  0  0  0  0  0  0  0  0
    2.2059    0.2535    1.7471 C   0  0  0  0  0  0  0  0  0  0  0  0
   -3.2804   -1.0748    0.5267 C   0  0  0  0  0  0  0  0  0  0  0  0
    3.5885    0.0282    1.6311 C   0  0  0  0  0  0  0  0  0  0  0  0
   -5.7050   -0.5484    0.8832 C   0  0  0  0  0  0  0  0  0  0  0  0
    4.1328    1.2805    1.7403 C   0  0  0  0  0  0  0  0  0  0  0  0
   -4.0126    0.4677    2.3578 C   0  0  0  0  0  0  0  0  0  0  0  0
   -6.1293    0.4503   -0.1545 C   0  0  0  0  0  0  0  0  0  0  0  0
    5.5060    1.7978    1.7110 C   0  0  0  0  0  0  0  0  0  0  0  0
   -6.6159    1.6977    0.2362 C   0  0  0  0  0  0  0  0  0  0  0  0
   -6.0370    0.1308   -1.5091 C   0  0  0  0  0  0  0  0  0  0  0  0
   -7.0103    2.6259   -0.7275 C   0  0  0  0  0  0  0  0  0  0  0  0
   -6.4313    1.0588   -2.4729 C   0  0  0  0  0  0  0  0  0  0  0  0
   -6.9180    2.3064   -2.0821 C   0  0  0  0  0  0  0  0  0  0  0  0
    5.5871    1.2900   -1.0312 C   0  0  0  0  0  0  0  0  0  0  0  0
    6.2639    0.0742   -0.9346 C   0  0  0  0  0  0  0  0  0  0  0  0
    4.6358    1.4810   -2.0333 C   0  0  0  0  0  0  0  0  0  0  0  0
    5.9894   -0.9508   -1.8402 C   0  0  0  0  0  0  0  0  0  0  0  0
    4.3613    0.4561   -2.9387 C   0  0  0  0  0  0  0  0  0  0  0  0
    5.0381   -0.7597   -2.8422 C   0  0  0  0  0  0  0  0  0  0  0  0
   -1.1109   -1.5440   -0.8665 H   0  0  0  0  0  0  0  0  0  0  0  0
    0.5457    0.0004   -0.2308 H   0  0  0  0  0  0  0  0  0  0  0  0
   -1.7787   -3.5413    0.4150 H   0  0  0  0  0  0  0  0  0  0  0  0
   -0.5981   -3.1754    1.6637 H   0  0  0  0  0  0  0  0  0  0  0  0
    1.3057   -1.8319   -1.5921 H   0  0  0  0  0  0  0  0  0  0  0  0
    2.5956   -1.4611   -0.4815 H   0  0  0  0  0  0  0  0  0  0  0  0
    0.3006   -4.8806    0.1692 H   0  0  0  0  0  0  0  0  0  0  0  0
   -0.0232   -3.9045   -1.2552 H   0  0  0  0  0  0  0  0  0  0  0  0
   -1.6687    0.2495    0.9156 H   0  0  0  0  0  0  0  0  0  0  0  0
   -1.7966   -1.1198    2.0650 H   0  0  0  0  0  0  0  0  0  0  0  0
    1.4388   -1.6909    2.1744 H   0  0  0  0  0  0  0  0  0  0  0  0
    0.2990   -0.3850    2.3488 H   0  0  0  0  0  0  0  0  0  0  0  0
    1.8808   -3.2864    0.9075 H   0  0  0  0  0  0  0  0  0  0  0  0
    4.1142   -0.9052    1.4937 H   0  0  0  0  0  0  0  0  0  0  0  0
   -6.3184   -0.4640    1.7885 H   0  0  0  0  0  0  0  0  0  0  0  0
   -5.8711   -1.5622    0.4978 H   0  0  0  0  0  0  0  0  0  0  0  0
   -4.3486    1.4783    2.1095 H   0  0  0  0  0  0  0  0  0  0  0  0
   -2.9644    0.5298    2.6443 H   0  0  0  0  0  0  0  0  0  0  0  0
   -4.5745    0.1079    3.2258 H   0  0  0  0  0  0  0  0  0  0  0  0
    5.6403    2.5411    2.5044 H   0  0  0  0  0  0  0  0  0  0  0  0
    6.2253    0.9965    1.9103 H   0  0  0  0  0  0  0  0  0  0  0  0
   -6.6973    1.9582    1.2881 H   0  0  0  0  0  0  0  0  0  0  0  0
   -5.6650   -0.8381   -1.8299 H   0  0  0  0  0  0  0  0  0  0  0  0
   -7.3901    3.5968   -0.4233 H   0  0  0  0  0  0  0  0  0  0  0  0
   -6.3605    0.8098   -3.5277 H   0  0  0  0  0  0  0  0  0  0  0  0
   -7.2254    3.0287   -2.8327 H   0  0  0  0  0  0  0  0  0  0  0  0
    7.0144   -0.0951   -0.1668 H   0  0  0  0  0  0  0  0  0  0  0  0
    4.0972    2.4212   -2.1231 H   0  0  0  0  0  0  0  0  0  0  0  0
    6.5168   -1.8973   -1.7657 H   0  0  0  0  0  0  0  0  0  0  0  0
    3.6196    0.6041   -3.7182 H   0  0  0  0  0  0  0  0  0  0  0  0
    4.8235   -1.5580   -3.5466 H   0  0  0  0  0  0  0  0  0  0  0  0
  1 21  1  0  0  0  0
  1 27  1  0  0  0  0
  2 15  2  0  0  0  0
  3  6  1  0  0  0  0
  3 18  1  0  0  0  0
  4 10  1  0  0  0  0
  4 11  1  0  0  0  0
  4 45  1  0  0  0  0
  5 15  1  0  0  0  0
  5 17  1  0  0  0  0
  5 19  1  0  0  0  0
  6 14  2  0  0  0  0
  7  8  1  0  0  0  0
  7  9  1  0  0  0  0
  7 12  1  0  0  0  0
  7 33  1  0  0  0  0
  8 10  1  0  0  0  0
  8 13  1  0  0  0  0
  8 34  1  0  0  0  0
  9 11  1  0  0  0  0
  9 35  1  0  0  0  0
  9 36  1  0  0  0  0
 10 37  1  0  0  0  0
 10 38  1  0  0  0  0
 11 39  1  0  0  0  0
 11 40  1  0  0  0  0
 12 15  1  0  0  0  0
 12 41  1  0  0  0  0
 12 42  1  0  0  0  0
 13 14  1  0  0  0  0
 13 43  1  0  0  0  0
 13 44  1  0  0  0  0
 14 16  1  0  0  0  0
 16 18  2  0  0  0  0
 16 46  1  0  0  0  0
 17 20  1  0  0  0  0
 17 47  1  0  0  0  0
 17 48  1  0  0  0  0
 18 21  1  0  0  0  0
 19 49  1  0  0  0  0
 19 50  1  0  0  0  0
 19 51  1  0  0  0  0
 20 22  2  0  0  0  0
 20 23  1  0  0  0  0
 21 52  1  0  0  0  0
 21 53  1  0  0  0  0
 22 24  1  0  0  0  0
 22 54  1  0  0  0  0
 23 25  2  0  0  0  0
 23 55  1  0  0  0  0
 24 26  2  0  0  0  0
 24 56  1  0  0  0  0
 25 26  1  0  0  0  0
 25 57  1  0  0  0  0
 26 58  1  0  0  0  0
 27 28  2  0  0  0  0
 27 29  1  0  0  0  0
 28 30  1  0  0  0  0
 28 59  1  0  0  0  0
 29 31  2  0  0  0  0
 29 60  1  0  0  0  0
 30 32  2  0  0  0  0
 30 61  1  0  0  0  0
 31 32  1  0  0  0  0
 31 62  1  0  0  0  0
 32 63  1  0  0  0  0
M  END
> <PUBCHEM_COMPOUND_CID>
26743088

> <PUBCHEM_CONFORMER_RMSD>
1.6

> <PUBCHEM_CONFORMER_DIVERSEORDER>
1
14
101
37
51
7
82
78
68
90
52
95
50
17
20
46
53
45
61
86
12
57
34
97
38
19
64
11
58
63
76
56
71
85
88
80
15
77
65
60
47
36
35
93
39
23
83
8
92
29
40
87
67
27
91
41
24
62
49
74
84
66
79
70
25
43
26
22
28
59
94
10
31
16
9
96
4
30
32
33
13
21
100
73
98
44
6
89
42
69
5
81
75
99
18
48
54
72
3
55
2

> <PUBCHEM_MMFF94_PARTIAL_CHARGES>
41
1 -0.33
10 0.27
11 0.27
12 0.06
13 0.18
14 0.11
15 0.57
16 -0.15
17 0.44
18 -0.04
19 0.3
2 -0.57
20 -0.14
21 0.41
22 -0.15
23 -0.15
24 -0.15
25 -0.15
26 -0.15
27 0.1
28 -0.15
29 -0.15
3 -0.02
30 -0.15
31 -0.15
32 -0.15
4 -0.9
45 0.36
46 0.15
5 -0.66
54 0.15
55 0.15
56 0.15
57 0.15
58 0.15
59 0.15
6 -0.41
60 0.15
61 0.15
62 0.15
63 0.15

> <PUBCHEM_EFFECTIVE_ROTOR_COUNT>
11.2

> <PUBCHEM_PHARMACOPHORE_FEATURES>
8
1 2 acceptor
1 4 cation
1 4 donor
1 6 acceptor
5 3 6 14 16 18 rings
6 20 22 23 24 25 26 rings
6 27 28 29 30 31 32 rings
6 4 7 8 9 10 11 rings

> <PUBCHEM_HEAVY_ATOM_COUNT>
32

> <PUBCHEM_ATOM_DEF_STEREO_COUNT>
2

> <PUBCHEM_ATOM_UDEF_STEREO_COUNT>
0

> <PUBCHEM_BOND_DEF_STEREO_COUNT>
0

> <PUBCHEM_BOND_UDEF_STEREO_COUNT>
0

> <PUBCHEM_ISOTOPIC_ATOM_COUNT>
0

> <PUBCHEM_COMPONENT_COUNT>
1

> <PUBCHEM_CACTVS_TAUTO_COUNT>
1

> <PUBCHEM_CONFORMER_ID>
0198113000000001

> <PUBCHEM_MMFF94_ENERGY>
64.6015

> <PUBCHEM_FEATURE_SELFOVERLAP>
40.597

> <PUBCHEM_SHAPE_FINGERPRINT>
10556698 54 18129380389250972861
10674148 151 16805899467964163622
10693767 8 16988846038603241246
11374522 79 13398634982870590909
12218070 45 13768498638143881209
12661589 4 12607104249746494229
12838862 33 17203607130340840048
12975358 362 17532656724970924085
13111901 137 18336263453461260669
13627167 48 18129101126730818385
13782708 43 12247672782209036593
14347332 77 14764634096971570371
14904385 31 17967806112314952629
14951699 99 16805324371088860813
15183329 4 15841557387509739944
15351334 14 18272363175181826991
16989378 47 15195282028041193429
17134984 74 14764340587449413276
19841028 212 8790012187349939625
19958102 18 16128368290324316421
20567600 247 14261354643504892373
20715895 44 18338527421497050478
21279426 13 18059587918278519730
21521239 73 16702302364506216210
21585482 310 9727630609367618568
21792934 111 11674867902132275219
22121540 332 18264201426842529772
22122407 14 16877952680038696621
2260408 40 12757151251456460743
2748736 6 18186796981168725181
3862424 121 15194418976518517941
4046055 4 17473826607422339899
4058900 60 18335140860832061291
4066623 53 18129667396593466196
437795 139 13758356652752554123
439807 62 13758071927066057173
504579 68 17560799893139887057
5104073 3 12613021769745372159
59682541 52 16917071044564693644
8863177 126 9943227295451058161

> <PUBCHEM_SHAPE_MULTIPOLES>
635.71
21.26
3.36
2.84
20.24
1.7
-0.67
-18.58
-9.05
0.85
-0.58
-2.88
-1.18
3

> <PUBCHEM_SHAPE_SELFOVERLAP>
1329.282

> <PUBCHEM_SHAPE_VOLUME>
360.8

> <PUBCHEM_COORDINATE_TYPE>
2
5
10

$$$$
