56775328
  -OEChem-12032416203D

 53 56  0     1  0  0  0  0  0999 V2000
   -4.1804    0.6997   -0.0756 S   0  0  0  0  0  0  0  0  0  0  0  0
    5.4435   -2.0980    1.0241 F   0  0  0  0  0  0  0  0  0  0  0  0
    6.0357   -0.2909   -0.0300 F   0  0  0  0  0  0  0  0  0  0  0  0
    4.9441   -0.1447    1.8383 F   0  0  0  0  0  0  0  0  0  0  0  0
   -0.8961    3.7106    1.2086 O   0  0  0  0  0  0  0  0  0  0  0  0
   -4.7062    0.9174   -1.4111 O   0  0  0  0  0  0  0  0  0  0  0  0
   -5.0665    0.7165    1.0742 O   0  0  0  0  0  0  0  0  0  0  0  0
    1.9333    4.2075   -0.9022 O   0  0  0  0  0  0  0  0  0  0  0  0
   -1.3793   -4.5143   -0.0963 O   0  0  0  0  0  0  0  0  0  0  0  0
   -2.8754    1.7509    0.2002 N   0  0  2  0  0  0  0  0  0  0  0  0
    0.6688    2.2788   -0.5923 N   0  0  0  0  0  0  0  0  0  0  0  0
   -0.4824    1.6500    0.0452 C   0  0  1  0  0  0  0  0  0  0  0  0
   -0.8733    2.2948    1.3642 C   0  0  2  0  0  0  0  0  0  0  0  0
   -1.7607    1.7657   -0.7910 C   0  0  0  0  0  0  0  0  0  0  0  0
   -2.2969    1.7964    1.5754 C   0  0  0  0  0  0  0  0  0  0  0  0
    1.0611    3.5821   -0.2970 C   0  0  0  0  0  0  0  0  0  0  0  0
    0.3936    4.2010    0.9198 C   0  0  0  0  0  0  0  0  0  0  0  0
    1.2994    1.5500   -1.6838 C   0  0  0  0  0  0  0  0  0  0  0  0
   -3.3437   -0.8576   -0.0818 C   0  0  0  0  0  0  0  0  0  0  0  0
    1.9292    0.2703   -1.2150 C   0  0  0  0  0  0  0  0  0  0  0  0
   -3.1869   -1.5698    1.1074 C   0  0  0  0  0  0  0  0  0  0  0  0
   -2.8406   -1.3743   -1.2758 C   0  0  0  0  0  0  0  0  0  0  0  0
    3.1343    0.3021   -0.5131 C   0  0  0  0  0  0  0  0  0  0  0  0
    1.3094   -0.9506   -1.4816 C   0  0  0  0  0  0  0  0  0  0  0  0
    3.7195   -0.8869   -0.0776 C   0  0  0  0  0  0  0  0  0  0  0  0
   -2.5270   -2.7988    1.1023 C   0  0  0  0  0  0  0  0  0  0  0  0
   -2.1805   -2.6031   -1.2807 C   0  0  0  0  0  0  0  0  0  0  0  0
    1.8946   -2.1396   -1.0463 C   0  0  0  0  0  0  0  0  0  0  0  0
   -2.0235   -3.3154   -0.0916 C   0  0  0  0  0  0  0  0  0  0  0  0
    3.0995   -2.1078   -0.3442 C   0  0  0  0  0  0  0  0  0  0  0  0
    5.0082   -0.8532    0.6724 C   0  0  0  0  0  0  0  0  0  0  0  0
   -1.2545   -5.1890    1.1547 C   0  0  0  0  0  0  0  0  0  0  0  0
   -0.2691    0.5931    0.2402 H   0  0  0  0  0  0  0  0  0  0  0  0
   -0.2170    2.0264    2.1996 H   0  0  0  0  0  0  0  0  0  0  0  0
   -1.8065    2.7285   -1.3155 H   0  0  0  0  0  0  0  0  0  0  0  0
   -1.8121    0.9936   -1.5557 H   0  0  0  0  0  0  0  0  0  0  0  0
   -2.8843    2.4805    2.1949 H   0  0  0  0  0  0  0  0  0  0  0  0
   -2.2749    0.8066    2.0336 H   0  0  0  0  0  0  0  0  0  0  0  0
    1.0485    4.0556    1.7867 H   0  0  0  0  0  0  0  0  0  0  0  0
    0.3031    5.2779    0.7446 H   0  0  0  0  0  0  0  0  0  0  0  0
    2.0657    2.1658   -2.1692 H   0  0  0  0  0  0  0  0  0  0  0  0
    0.5387    1.3602   -2.4507 H   0  0  0  0  0  0  0  0  0  0  0  0
   -3.5753   -1.1905    2.0482 H   0  0  0  0  0  0  0  0  0  0  0  0
   -2.9620   -0.8481   -2.2181 H   0  0  0  0  0  0  0  0  0  0  0  0
    3.6192    1.2529   -0.3045 H   0  0  0  0  0  0  0  0  0  0  0  0
    0.3735   -0.9885   -2.0314 H   0  0  0  0  0  0  0  0  0  0  0  0
   -2.4410   -3.2994    2.0607 H   0  0  0  0  0  0  0  0  0  0  0  0
   -1.7925   -3.0017   -2.2141 H   0  0  0  0  0  0  0  0  0  0  0  0
    1.4120   -3.0901   -1.2545 H   0  0  0  0  0  0  0  0  0  0  0  0
    3.5384   -3.0452   -0.0139 H   0  0  0  0  0  0  0  0  0  0  0  0
   -0.7168   -6.1238    0.9654 H   0  0  0  0  0  0  0  0  0  0  0  0
   -2.2331   -5.4604    1.5651 H   0  0  0  0  0  0  0  0  0  0  0  0
   -0.6519   -4.6119    1.8644 H   0  0  0  0  0  0  0  0  0  0  0  0
  1  6  2  0  0  0  0
  1  7  2  0  0  0  0
  1 10  1  0  0  0  0
  1 19  1  0  0  0  0
  2 31  1  0  0  0  0
  3 31  1  0  0  0  0
  4 31  1  0  0  0  0
  5 13  1  0  0  0  0
  5 17  1  0  0  0  0
  8 16  2  0  0  0  0
  9 29  1  0  0  0  0
  9 32  1  0  0  0  0
 10 14  1  0  0  0  0
 10 15  1  0  0  0  0
 11 12  1  0  0  0  0
 11 16  1  0  0  0  0
 11 18  1  0  0  0  0
 12 13  1  0  0  0  0
 12 14  1  0  0  0  0
 12 33  1  0  0  0  0
 13 15  1  0  0  0  0
 13 34  1  0  0  0  0
 14 35  1  0  0  0  0
 14 36  1  0  0  0  0
 15 37  1  0  0  0  0
 15 38  1  0  0  0  0
 16 17  1  0  0  0  0
 17 39  1  0  0  0  0
 17 40  1  0  0  0  0
 18 20  1  0  0  0  0
 18 41  1  0  0  0  0
 18 42  1  0  0  0  0
 19 21  2  0  0  0  0
 19 22  1  0  0  0  0
 20 23  2  0  0  0  0
 20 24  1  0  0  0  0
 21 26  1  0  0  0  0
 21 43  1  0  0  0  0
 22 27  2  0  0  0  0
 22 44  1  0  0  0  0
 23 25  1  0  0  0  0
 23 45  1  0  0  0  0
 24 28  2  0  0  0  0
 24 46  1  0  0  0  0
 25 30  2  0  0  0  0
 25 31  1  0  0  0  0
 26 29  2  0  0  0  0
 26 47  1  0  0  0  0
 27 29  1  0  0  0  0
 27 48  1  0  0  0  0
 28 30  1  0  0  0  0
 28 49  1  0  0  0  0
 30 50  1  0  0  0  0
 32 51  1  0  0  0  0
 32 52  1  0  0  0  0
 32 53  1  0  0  0  0
M  END
> <PUBCHEM_COMPOUND_CID>
56775328

> <PUBCHEM_CONFORMER_RMSD>
1

> <PUBCHEM_CONFORMER_DIVERSEORDER>
1
36
152
14
63
102
132
7
6
28
52
115
124
120
91
163
125
159
109
144
119
49
100
72
116
137
107
133
5
32
37
113
45
97
84
114
88
81
129
59
17
151
135
64
86
143
8
24
75
47
162
50
145
96
154
150
157
21
56
156
19
3
98
160
104
54
99
31
26
127
121
106
29
61
74
118
110
149
71
35
43
73
2
12
111
44
70
141
51
112
60
41
95
128
30
122
82
67
76
9
147
39
148
89
69
93
83
65
42
78
58
34
158
85
101
146
134
105
77
87
15
38
66
161
103
140
155
94
136
62
80
79
48
131
33
23
117
11
40
139
126
90
130
142
68
10
138
92
53
153
27
55
46
25
18
123
4
57
108
16
22
20
13

> <PUBCHEM_MMFF94_PARTIAL_CHARGES>
40
1 1.45
10 -0.85
11 -0.66
12 0.3
13 0.28
14 0.36
15 0.36
16 0.57
17 0.34
18 0.44
19 -0.01
2 -0.34
20 -0.14
21 -0.15
22 -0.15
23 -0.15
24 -0.15
25 -0.14
26 -0.15
27 -0.15
28 -0.15
29 0.08
3 -0.34
30 -0.15
31 1.16
32 0.28
4 -0.34
43 0.15
44 0.15
45 0.15
46 0.15
47 0.15
48 0.15
49 0.15
5 -0.56
50 0.15
6 -0.65
7 -0.65
8 -0.57
9 -0.36

> <PUBCHEM_EFFECTIVE_ROTOR_COUNT>
7.2

> <PUBCHEM_PHARMACOPHORE_FEATURES>
9
1 5 acceptor
1 6 acceptor
1 7 acceptor
1 8 acceptor
1 9 acceptor
5 10 12 13 14 15 rings
6 19 21 22 26 27 29 rings
6 20 23 24 25 28 30 rings
6 5 11 12 13 16 17 rings

> <PUBCHEM_HEAVY_ATOM_COUNT>
32

> <PUBCHEM_ATOM_DEF_STEREO_COUNT>
2

> <PUBCHEM_ATOM_UDEF_STEREO_COUNT>
0

> <PUBCHEM_BOND_DEF_STEREO_COUNT>
0

> <PUBCHEM_BOND_UDEF_STEREO_COUNT>
0

> <PUBCHEM_ISOTOPIC_ATOM_COUNT>
0

> <PUBCHEM_COMPONENT_COUNT>
1

> <PUBCHEM_CACTVS_TAUTO_COUNT>
2

> <PUBCHEM_CONFORMER_ID>
036252A000000001

> <PUBCHEM_MMFF94_ENERGY>
77.6485

> <PUBCHEM_FEATURE_SELFOVERLAP>
45.9

> <PUBCHEM_SHAPE_FINGERPRINT>
10006869 2 17548702881648911877
10675989 125 16820509455650734597
10930396 42 17979313605026304664
1100329 8 18411704317744144117
12156800 1 17472357359254530143
12553582 1 18270421411402661869
12633257 1 18340781419885390309
12788726 201 18268423529954932016
13122387 1 17618231602467847607
13140716 1 18270406129866694501
13947930 73 17896629291088277403
140371 6 18342748402900361020
14081887 123 18272646801704705514
14117953 113 18267306434710084044
14251757 17 12108054519260073872
14705955 166 17559667339875387208
14725015 67 18409725205958535043
15328829 1 17749691610263097742
16120349 306 18124597470703929315
19930381 70 14012813983042694805
20600515 1 18272379637364210245
20642791 13 17915177914920706437
20764821 26 18268718379660158475
20775530 9 17976552924502539207
21421861 104 18195550287368281017
21458453 9 17914028036664800784
21796203 349 17904245586748391096
22113638 7 18412546492185448239
23559900 14 18339637940361712544
3027735 51 17831577583495053669
3178227 256 18339092510618491801
3383291 50 18411138056830744267
35225 105 17621559901421783106
392239 28 17846768612216661792
463206 1 18338523048503158472
56638632 33 18342443859871042984
57091435 65 17691968580352791858
6004065 56 18272358760118904829
9795274 37 17977951507323897019

> <PUBCHEM_SHAPE_MULTIPOLES>
601.26
9.16
6.2
1.56
7.68
1.03
-0.06
3.91
-1.93
-1.57
-1.59
-0.06
-0.06
-0.56

> <PUBCHEM_SHAPE_SELFOVERLAP>
1287.559

> <PUBCHEM_SHAPE_VOLUME>
337.5

> <PUBCHEM_COORDINATE_TYPE>
2
5
10

$$$$
