51137850
  -OEChem-12032416253D

 48 51  0     1  0  0  0  0  0999 V2000
   -2.0173    0.8410   -0.3927 O   0  0  0  0  0  0  0  0  0  0  0  0
    1.5076    1.4730    2.7671 O   0  0  0  0  0  0  0  0  0  0  0  0
    2.5915   -2.8076   -0.4566 O   0  0  0  0  0  0  0  0  0  0  0  0
    5.1052   -1.8554   -1.1656 O   0  0  0  0  0  0  0  0  0  0  0  0
    0.6190    2.2529    0.7681 N   0  0  0  0  0  0  0  0  0  0  0  0
   -3.2025    2.2021   -1.7146 N   0  0  0  0  0  0  0  0  0  0  0  0
   -3.9642    1.0748   -1.4695 N   0  0  0  0  0  0  0  0  0  0  0  0
   -4.0564   -3.4880    0.9784 N   0  0  0  0  0  0  0  0  0  0  0  0
   -0.8599    2.9281   -0.9699 C   0  0  1  0  0  0  0  0  0  0  0  0
   -0.9726    3.9035    0.2120 C   0  0  0  0  0  0  0  0  0  0  0  0
    0.4855    2.2437   -0.6897 C   0  0  0  0  0  0  0  0  0  0  0  0
   -0.3612    3.1381    1.3777 C   0  0  0  0  0  0  0  0  0  0  0  0
   -2.0753    2.0221   -1.0666 C   0  0  0  0  0  0  0  0  0  0  0  0
    1.4802    1.4868    1.5381 C   0  0  0  0  0  0  0  0  0  0  0  0
    2.4262    0.6097    0.8308 C   0  0  0  0  0  0  0  0  0  0  0  0
   -3.2331    0.3084   -0.6942 C   0  0  0  0  0  0  0  0  0  0  0  0
    2.0620   -0.6995    0.5162 C   0  0  0  0  0  0  0  0  0  0  0  0
    3.6876    1.0873    0.4751 C   0  0  0  0  0  0  0  0  0  0  0  0
   -3.5126   -0.9785   -0.1265 C   0  0  0  0  0  0  0  0  0  0  0  0
    2.9591   -1.5311   -0.1544 C   0  0  0  0  0  0  0  0  0  0  0  0
    4.5847    0.2557   -0.1951 C   0  0  0  0  0  0  0  0  0  0  0  0
    4.2205   -1.0535   -0.5099 C   0  0  0  0  0  0  0  0  0  0  0  0
   -4.7294   -1.6029   -0.3775 C   0  0  0  0  0  0  0  0  0  0  0  0
   -2.5673   -1.6075    0.6763 C   0  0  0  0  0  0  0  0  0  0  0  0
   -4.9504   -2.8460    0.1933 C   0  0  0  0  0  0  0  0  0  0  0  0
   -2.8851   -2.8504    1.1999 C   0  0  0  0  0  0  0  0  0  0  0  0
    1.2847   -3.2172   -0.0578 C   0  0  0  0  0  0  0  0  0  0  0  0
    6.3732   -1.2897   -1.4924 C   0  0  0  0  0  0  0  0  0  0  0  0
   -0.8059    3.4781   -1.9172 H   0  0  0  0  0  0  0  0  0  0  0  0
   -0.3633    4.7925    0.0050 H   0  0  0  0  0  0  0  0  0  0  0  0
   -1.9934    4.2359    0.4245 H   0  0  0  0  0  0  0  0  0  0  0  0
    1.3161    2.8374   -1.0883 H   0  0  0  0  0  0  0  0  0  0  0  0
    0.5525    1.2289   -1.0910 H   0  0  0  0  0  0  0  0  0  0  0  0
   -1.1045    2.5167    1.8894 H   0  0  0  0  0  0  0  0  0  0  0  0
    0.1166    3.7902    2.1150 H   0  0  0  0  0  0  0  0  0  0  0  0
    1.0681   -1.0126    0.8187 H   0  0  0  0  0  0  0  0  0  0  0  0
    3.9800    2.1063    0.7157 H   0  0  0  0  0  0  0  0  0  0  0  0
    5.5458    0.6943   -0.4398 H   0  0  0  0  0  0  0  0  0  0  0  0
   -5.4955   -1.1491   -0.9979 H   0  0  0  0  0  0  0  0  0  0  0  0
   -1.6017   -1.1700    0.9073 H   0  0  0  0  0  0  0  0  0  0  0  0
   -5.8832   -3.3751    0.0284 H   0  0  0  0  0  0  0  0  0  0  0  0
   -2.1817   -3.3831    1.8316 H   0  0  0  0  0  0  0  0  0  0  0  0
    1.1711   -3.2032    1.0316 H   0  0  0  0  0  0  0  0  0  0  0  0
    0.5074   -2.6364   -0.5661 H   0  0  0  0  0  0  0  0  0  0  0  0
    1.1620   -4.2577   -0.3761 H   0  0  0  0  0  0  0  0  0  0  0  0
    6.2733   -0.4509   -2.1897 H   0  0  0  0  0  0  0  0  0  0  0  0
    6.9387   -1.0203   -0.5939 H   0  0  0  0  0  0  0  0  0  0  0  0
    6.9484   -2.0653   -2.0090 H   0  0  0  0  0  0  0  0  0  0  0  0
  1 13  1  0  0  0  0
  1 16  1  0  0  0  0
  2 14  2  0  0  0  0
  3 20  1  0  0  0  0
  3 27  1  0  0  0  0
  4 22  1  0  0  0  0
  4 28  1  0  0  0  0
  5 11  1  0  0  0  0
  5 12  1  0  0  0  0
  5 14  1  0  0  0  0
  6  7  1  0  0  0  0
  6 13  2  0  0  0  0
  7 16  2  0  0  0  0
  8 25  2  0  0  0  0
  8 26  1  0  0  0  0
  9 10  1  0  0  0  0
  9 11  1  0  0  0  0
  9 13  1  0  0  0  0
  9 29  1  0  0  0  0
 10 12  1  0  0  0  0
 10 30  1  0  0  0  0
 10 31  1  0  0  0  0
 11 32  1  0  0  0  0
 11 33  1  0  0  0  0
 12 34  1  0  0  0  0
 12 35  1  0  0  0  0
 14 15  1  0  0  0  0
 15 17  2  0  0  0  0
 15 18  1  0  0  0  0
 16 19  1  0  0  0  0
 17 20  1  0  0  0  0
 17 36  1  0  0  0  0
 18 21  2  0  0  0  0
 18 37  1  0  0  0  0
 19 23  2  0  0  0  0
 19 24  1  0  0  0  0
 20 22  2  0  0  0  0
 21 22  1  0  0  0  0
 21 38  1  0  0  0  0
 23 25  1  0  0  0  0
 23 39  1  0  0  0  0
 24 26  2  0  0  0  0
 24 40  1  0  0  0  0
 25 41  1  0  0  0  0
 26 42  1  0  0  0  0
 27 43  1  0  0  0  0
 27 44  1  0  0  0  0
 27 45  1  0  0  0  0
 28 46  1  0  0  0  0
 28 47  1  0  0  0  0
 28 48  1  0  0  0  0
M  END
> <PUBCHEM_COMPOUND_CID>
51137850

> <PUBCHEM_CONFORMER_RMSD>
0.8

> <PUBCHEM_CONFORMER_DIVERSEORDER>
1
130
70
177
92
149
138
217
215
152
43
73
185
202
160
104
167
182
134
14
146
220
16
192
23
57
174
15
53
129
216
163
27
161
114
226
187
108
68
112
209
28
110
94
136
46
184
89
148
124
132
186
47
69
204
85
84
176
203
24
78
49
120
157
170
172
74
214
60
67
8
107
141
137
151
59
119
162
188
164
144
125
102
139
143
101
54
195
10
181
222
29
98
2
153
51
116
115
206
113
191
33
42
126
225
213
180
128
205
154
175
18
159
210
87
189
199
86
55
196
165
178
31
221
61
169
7
36
179
20
211
142
95
218
105
156
38
83
100
103
17
158
166
145
81
183
93
131
45
109
96
224
32
6
21
201
223
35
168
66
117
19
193
208
25
4
99
207
64
39
200
171
30
37
77
12
50
76
62
133
58
135
122
44
9
198
155
123
65
127
219
52
194
197
90
41
71
40
80
75
227
48
82
173
22
111
118
11
34
72
140
13
3
121
91
150
56
97
212
190
147
5
88
106
63
26
79

> <PUBCHEM_MMFF94_PARTIAL_CHARGES>
34
1 -0.28
11 0.3
12 0.3
13 0.3
14 0.54
15 0.09
16 0.43
17 -0.15
18 -0.15
19 0.05
2 -0.57
20 0.08
21 -0.15
22 0.08
23 -0.15
24 -0.15
25 0.16
26 0.16
27 0.28
28 0.28
3 -0.36
36 0.15
37 0.15
38 0.15
39 0.15
4 -0.36
40 0.15
41 0.15
42 0.15
5 -0.66
6 -0.34
7 -0.34
8 -0.62
9 0.18

> <PUBCHEM_EFFECTIVE_ROTOR_COUNT>
7

> <PUBCHEM_PHARMACOPHORE_FEATURES>
8
1 2 acceptor
1 3 acceptor
1 4 acceptor
1 8 acceptor
5 1 6 7 13 16 rings
5 5 9 10 11 12 rings
6 15 17 18 20 21 22 rings
6 8 19 23 24 25 26 rings

> <PUBCHEM_HEAVY_ATOM_COUNT>
28

> <PUBCHEM_ATOM_DEF_STEREO_COUNT>
1

> <PUBCHEM_ATOM_UDEF_STEREO_COUNT>
0

> <PUBCHEM_BOND_DEF_STEREO_COUNT>
0

> <PUBCHEM_BOND_UDEF_STEREO_COUNT>
0

> <PUBCHEM_ISOTOPIC_ATOM_COUNT>
0

> <PUBCHEM_COMPONENT_COUNT>
1

> <PUBCHEM_CACTVS_TAUTO_COUNT>
1

> <PUBCHEM_CONFORMER_ID>
030C4D3A00000001

> <PUBCHEM_MMFF94_ENERGY>
88.5031

> <PUBCHEM_FEATURE_SELFOVERLAP>
40.604

> <PUBCHEM_SHAPE_FINGERPRINT>
10366900 7 18270105812725707087
10764073 3 10950958190720685656
107951 10 17909266875837587181
12156800 1 11533308180056305269
12788726 201 17055831435009909608
13135754 10 17201387103481959056
13402501 40 18410572924516653307
13533116 47 17981608475352347091
1361 2 17472130052690985603
13631057 29 18411141295156236630
13911882 115 18340761663052055744
13989917 61 17616254023922675451
14251757 5 18334017151083777567
14363568 33 17903936782546303881
14931854 50 18122053209202346807
14950920 106 13110372669130731436
15420108 30 16609683113003477681
17357779 13 18337943593016396015
17909252 39 18265342892096435200
17974551 9 17775569724097048457
1979834 28 17616533299964639035
20775530 9 18410291441097525923
221357 26 18411981381589637815
23536364 44 18056493759588207870
23559900 14 18189609626607461493
255183 313 17189507194220188552
329604 57 18409173229466797886
3493558 16 15651861043488741302
3737641 26 18272657852518369054
4280585 95 18187072937181337100
437815 12 18343864433494635461
445580 102 18271808952285621222
46194498 28 17970627626206818997
484985 159 18270691848481772225
484989 97 18341900680574945366
508706 21 18334285496715112767
5309563 4 18340485668437855455
6287921 2 17836365226304941915
6823239 73 18336538421313974353
9862886 166 18338232666407620122
9980921 177 17977420367191534147

> <PUBCHEM_SHAPE_MULTIPOLES>
532.83
10.91
4.94
1.55
4.98
0.61
0.45
-10.24
-3.8
-3.26
0.44
0.28
0.76
3.04

> <PUBCHEM_SHAPE_SELFOVERLAP>
1161.828

> <PUBCHEM_SHAPE_VOLUME>
290.5

> <PUBCHEM_COORDINATE_TYPE>
2
5
10

$$$$
