11939798
  -OEChem-12032416343D

 61 65  0     1  0  0  0  0  0999 V2000
    0.3989    1.5591    1.7990 O   0  0  0  0  0  0  0  0  0  0  0  0
    0.1718    4.3020    0.3713 O   0  0  0  0  0  0  0  0  0  0  0  0
   -4.3052    2.2911    1.7411 O   0  0  0  0  0  0  0  0  0  0  0  0
   -2.4135    1.6872    0.5431 N   0  0  0  0  0  0  0  0  0  0  0  0
    2.4398    2.6991   -1.0090 N   0  0  0  0  0  0  0  0  0  0  0  0
    3.4873    0.6205   -0.7116 N   0  0  0  0  0  0  0  0  0  0  0  0
    3.5925    1.7675   -2.8283 N   0  0  0  0  0  0  0  0  0  0  0  0
   -6.5937   -2.7457   -1.3676 N   0  0  0  0  0  0  0  0  0  0  0  0
    2.2640   -3.4985    3.4015 N   0  0  0  0  0  0  0  0  0  0  0  0
   -0.4070    3.0129    0.1016 C   0  0  1  0  0  0  0  0  0  0  0  0
    0.6411    1.9715    0.4419 C   0  0  1  0  0  0  0  0  0  0  0  0
   -1.5369    2.7321    1.0679 C   0  0  2  0  0  0  0  0  0  0  0  0
    1.9484    2.7226    0.3514 C   0  0  2  0  0  0  0  0  0  0  0  0
   -0.7859    2.2095    2.2830 C   0  0  0  0  0  0  0  0  0  0  0  0
    1.5485    4.1339    0.7422 C   0  0  0  0  0  0  0  0  0  0  0  0
   -3.7391    1.5594    0.9333 C   0  0  0  0  0  0  0  0  0  0  0  0
    3.1956    1.6649   -1.5320 C   0  0  0  0  0  0  0  0  0  0  0  0
   -4.4896    0.4291    0.3279 C   0  0  0  0  0  0  0  0  0  0  0  0
   -5.5507   -0.1135    1.0226 C   0  0  0  0  0  0  0  0  0  0  0  0
   -4.1013   -0.0428   -0.9089 C   0  0  0  0  0  0  0  0  0  0  0  0
    4.2258   -0.3699   -1.2538 C   0  0  0  0  0  0  0  0  0  0  0  0
    4.3278    0.7419   -3.3055 C   0  0  0  0  0  0  0  0  0  0  0  0
    4.6781   -0.3633   -2.5575 C   0  0  0  0  0  0  0  0  0  0  0  0
   -6.2550   -1.1754    0.4551 C   0  0  0  0  0  0  0  0  0  0  0  0
   -4.8056   -1.1047   -1.4763 C   0  0  0  0  0  0  0  0  0  0  0  0
   -5.8824   -1.6710   -0.7943 C   0  0  0  0  0  0  0  0  0  0  0  0
    4.5229   -1.4688   -0.3666 C   0  0  0  0  0  0  0  0  0  0  0  0
    3.6317   -1.8081    0.6538 C   0  0  0  0  0  0  0  0  0  0  0  0
    5.7036   -2.1975   -0.5261 C   0  0  0  0  0  0  0  0  0  0  0  0
   -5.9297   -3.6689   -2.2662 C   0  0  0  0  0  0  0  0  0  0  0  0
   -8.0011   -2.9326   -1.0765 C   0  0  0  0  0  0  0  0  0  0  0  0
    3.9200   -2.8706    1.5104 C   0  0  0  0  0  0  0  0  0  0  0  0
    5.9919   -3.2599    0.3305 C   0  0  0  0  0  0  0  0  0  0  0  0
    5.1001   -3.5964    1.3489 C   0  0  0  0  0  0  0  0  0  0  0  0
    3.0066   -3.2169    2.5535 C   0  0  0  0  0  0  0  0  0  0  0  0
   -0.7021    2.9975   -0.9525 H   0  0  0  0  0  0  0  0  0  0  0  0
    0.5764    1.0781   -0.1871 H   0  0  0  0  0  0  0  0  0  0  0  0
   -2.1348    3.6134    1.3208 H   0  0  0  0  0  0  0  0  0  0  0  0
    2.7144    2.3610    1.0470 H   0  0  0  0  0  0  0  0  0  0  0  0
   -1.3609    1.5056    2.8923 H   0  0  0  0  0  0  0  0  0  0  0  0
   -0.4625    3.0357    2.9259 H   0  0  0  0  0  0  0  0  0  0  0  0
    2.1493    4.9148    0.2659 H   0  0  0  0  0  0  0  0  0  0  0  0
    1.6086    4.2701    1.8277 H   0  0  0  0  0  0  0  0  0  0  0  0
   -1.9819    0.9796   -0.0421 H   0  0  0  0  0  0  0  0  0  0  0  0
    2.1843    3.4470   -1.6439 H   0  0  0  0  0  0  0  0  0  0  0  0
   -5.8482    0.2555    1.9996 H   0  0  0  0  0  0  0  0  0  0  0  0
   -3.2933    0.3938   -1.4867 H   0  0  0  0  0  0  0  0  0  0  0  0
    4.6327    0.8338   -4.3425 H   0  0  0  0  0  0  0  0  0  0  0  0
    5.2506   -1.1619   -3.0114 H   0  0  0  0  0  0  0  0  0  0  0  0
   -7.0800   -1.6023    1.0184 H   0  0  0  0  0  0  0  0  0  0  0  0
   -4.5019   -1.4541   -2.4591 H   0  0  0  0  0  0  0  0  0  0  0  0
    2.7006   -1.2598    0.7882 H   0  0  0  0  0  0  0  0  0  0  0  0
    6.4384   -1.9543   -1.2890 H   0  0  0  0  0  0  0  0  0  0  0  0
   -5.8434   -3.2395   -3.2698 H   0  0  0  0  0  0  0  0  0  0  0  0
   -4.9310   -3.9356   -1.9022 H   0  0  0  0  0  0  0  0  0  0  0  0
   -6.4915   -4.6055   -2.3559 H   0  0  0  0  0  0  0  0  0  0  0  0
   -8.5432   -1.9803   -1.0883 H   0  0  0  0  0  0  0  0  0  0  0  0
   -8.4779   -3.5751   -1.8252 H   0  0  0  0  0  0  0  0  0  0  0  0
   -8.1355   -3.4102   -0.1002 H   0  0  0  0  0  0  0  0  0  0  0  0
    6.9135   -3.8216    0.2087 H   0  0  0  0  0  0  0  0  0  0  0  0
    5.3395   -4.4264    2.0094 H   0  0  0  0  0  0  0  0  0  0  0  0
  1 11  1  0  0  0  0
  1 14  1  0  0  0  0
  2 10  1  0  0  0  0
  2 15  1  0  0  0  0
  3 16  2  0  0  0  0
  4 12  1  0  0  0  0
  4 16  1  0  0  0  0
  4 44  1  0  0  0  0
  5 13  1  0  0  0  0
  5 17  1  0  0  0  0
  5 45  1  0  0  0  0
  6 17  1  0  0  0  0
  6 21  2  0  0  0  0
  7 17  2  0  0  0  0
  7 22  1  0  0  0  0
  8 26  1  0  0  0  0
  8 30  1  0  0  0  0
  8 31  1  0  0  0  0
  9 35  3  0  0  0  0
 10 11  1  0  0  0  0
 10 12  1  0  0  0  0
 10 36  1  0  0  0  0
 11 13  1  0  0  0  0
 11 37  1  0  0  0  0
 12 14  1  0  0  0  0
 12 38  1  0  0  0  0
 13 15  1  0  0  0  0
 13 39  1  0  0  0  0
 14 40  1  0  0  0  0
 14 41  1  0  0  0  0
 15 42  1  0  0  0  0
 15 43  1  0  0  0  0
 16 18  1  0  0  0  0
 18 19  2  0  0  0  0
 18 20  1  0  0  0  0
 19 24  1  0  0  0  0
 19 46  1  0  0  0  0
 20 25  2  0  0  0  0
 20 47  1  0  0  0  0
 21 23  1  0  0  0  0
 21 27  1  0  0  0  0
 22 23  2  0  0  0  0
 22 48  1  0  0  0  0
 23 49  1  0  0  0  0
 24 26  2  0  0  0  0
 24 50  1  0  0  0  0
 25 26  1  0  0  0  0
 25 51  1  0  0  0  0
 27 28  1  0  0  0  0
 27 29  2  0  0  0  0
 28 32  2  0  0  0  0
 28 52  1  0  0  0  0
 29 33  1  0  0  0  0
 29 53  1  0  0  0  0
 30 54  1  0  0  0  0
 30 55  1  0  0  0  0
 30 56  1  0  0  0  0
 31 57  1  0  0  0  0
 31 58  1  0  0  0  0
 31 59  1  0  0  0  0
 32 34  1  0  0  0  0
 32 35  1  0  0  0  0
 33 34  2  0  0  0  0
 33 60  1  0  0  0  0
 34 61  1  0  0  0  0
M  END
> <PUBCHEM_COMPOUND_CID>
11939798

> <PUBCHEM_CONFORMER_RMSD>
1

> <PUBCHEM_CONFORMER_DIVERSEORDER>
1
26
227
92
127
181
78
90
145
125
68
246
218
211
122
133
118
112
149
135
238
110
195
76
21
174
156
210
73
164
23
219
231
247
37
77
64
161
146
232
129
113
252
213
108
85
24
98
63
69
185
251
157
170
154
222
123
47
101
209
15
74
196
115
163
72
109
58
184
12
88
223
99
84
167
22
150
100
114
9
16
244
81
42
190
91
173
152
131
248
199
48
215
182
186
132
94
214
249
80
28
52
60
86
229
212
70
198
253
45
175
67
172
233
187
107
79
193
243
39
117
151
71
236
25
234
250
17
230
36
148
159
105
18
65
165
20
197
144
245
13
41
240
55
153
228
102
217
128
29
155
83
38
116
19
204
44
191
206
8
136
207
62
242
34
177
10
200
40
120
57
203
162
208
95
178
7
124
180
241
176
6
106
31
226
235
158
141
140
220
97
111
103
137
221
54
189
224
205
183
239
14
33
46
143
216
225
202
27
89
166
56
201
147
53
168
121
188
104
138
237
30
4
61
169
134
75
5
142
130
59
119
82
50
126
11
93
96
2
3
179
160
43
139
171
66
194
192
87
49
32
51
35

> <PUBCHEM_MMFF94_PARTIAL_CHARGES>
46
1 -0.56
10 0.28
11 0.28
12 0.3
13 0.37
14 0.28
15 0.28
16 0.54
17 0.72
18 0.09
19 -0.15
2 -0.56
20 -0.15
21 0.31
22 0.16
23 -0.15
24 -0.15
25 -0.15
26 0.1
28 -0.15
29 -0.15
3 -0.57
30 0.37
31 0.37
32 0.07
33 -0.15
34 -0.15
35 0.48
4 -0.73
44 0.37
45 0.4
46 0.15
47 0.15
48 0.15
49 0.15
5 -0.87
50 0.15
51 0.15
52 0.15
53 0.15
6 -0.62
60 0.15
61 0.15
7 -0.62
8 -0.84
9 -0.56

> <PUBCHEM_EFFECTIVE_ROTOR_COUNT>
8.2

> <PUBCHEM_PHARMACOPHORE_FEATURES>
14
1 1 acceptor
1 2 acceptor
1 3 acceptor
1 4 donor
1 5 donor
1 6 acceptor
1 8 cation
1 9 acceptor
4 5 6 7 17 cation
5 1 10 11 12 14 rings
5 2 10 11 13 15 rings
6 18 19 20 24 25 26 rings
6 27 28 29 32 33 34 rings
6 6 7 17 21 22 23 rings

> <PUBCHEM_HEAVY_ATOM_COUNT>
35

> <PUBCHEM_ATOM_DEF_STEREO_COUNT>
4

> <PUBCHEM_ATOM_UDEF_STEREO_COUNT>
0

> <PUBCHEM_BOND_DEF_STEREO_COUNT>
0

> <PUBCHEM_BOND_UDEF_STEREO_COUNT>
0

> <PUBCHEM_ISOTOPIC_ATOM_COUNT>
0

> <PUBCHEM_COMPONENT_COUNT>
1

> <PUBCHEM_CACTVS_TAUTO_COUNT>
6

> <PUBCHEM_CONFORMER_ID>
00B62FD600000001

> <PUBCHEM_MMFF94_ENERGY>
118.8471

> <PUBCHEM_FEATURE_SELFOVERLAP>
71.758

> <PUBCHEM_SHAPE_FINGERPRINT>
10581848 197 16986561365362898754
10622 236 18189619337048612408
10908659 184 18269288897752994819
10928967 22 18411144627739589177
11069576 57 17969236546925046102
11227150 75 17751054952435330066
11227688 84 18188788261483290867
11607047 403 18199735016482513048
11796584 16 18059305253195428425
14040221 126 16902690828945709463
14340393 91 17605258611264480583
14347332 77 18343587369713387301
14480069 147 18114195098694167699
15001296 14 18128818732319214095
15320294 125 18125452908294542481
15968369 26 17971754638689416544
17138139 8 18339938068786843980
19303781 99 17896888651436499946
19315092 285 18259985942422176038
19841028 212 17915458510209850175
20737093 269 14803978669027077363
20775438 99 18191583253768196586
208703 8 18342172241548857782
21458453 9 16055724643629853336
21585483 132 18411975897417697247
21599406 157 17313387885315729463
21792938 131 18341887537885829675
24983565 74 17699563955824839919
25222932 49 18342738542193857452
2838139 119 13046222865725799205
394071 54 11167952371948776039
4112364 45 10087650321007515283
4394409 98 18124302814936915029
45266715 3 18191863637643917744
463206 1 18263095348499817232
50009960 94 18199730544593187198
504843 32 17185599560033825640
59025328 239 17386573440955423300
6201460 15 18192988223455103627
636783 263 18053921104380540095
6636735 143 14979953658537239271
9831354 38 18335694005248954363

> <PUBCHEM_SHAPE_MULTIPOLES>
672.79
18.55
6.09
2.87
24.75
0.33
0.47
-23.92
7.5
-1.8
-2.27
-2.92
-1.25
-7.51

> <PUBCHEM_SHAPE_SELFOVERLAP>
1472.047

> <PUBCHEM_SHAPE_VOLUME>
362.2

> <PUBCHEM_COORDINATE_TYPE>
2
5
10

$$$$
