45783819
  -OEChem-12032416263D

 61 64  0     1  0  0  0  0  0999 V2000
   -1.5341   -1.6511    2.1918 O   0  0  0  0  0  0  0  0  0  0  0  0
    0.4500    1.8332   -2.4096 O   0  0  0  0  0  0  0  0  0  0  0  0
   -1.0833    3.4840    1.8166 O   0  0  0  0  0  0  0  0  0  0  0  0
    0.8426    3.4189   -0.1731 O   0  0  0  0  0  0  0  0  0  0  0  0
   -3.5760   -1.0928   -0.8122 N   0  0  1  0  0  0  0  0  0  0  0  0
   -0.7590   -1.4781    0.0975 N   0  0  0  0  0  0  0  0  0  0  0  0
   -0.1443   -1.5148    2.3008 N   0  0  0  0  0  0  0  0  0  0  0  0
    3.9308   -1.0572    1.3025 N   0  0  0  0  0  0  0  0  0  0  0  0
    5.6086   -0.8148   -0.3713 N   0  0  0  0  0  0  0  0  0  0  0  0
   -3.2701   -1.7497    0.4744 C   0  0  1  0  0  0  0  0  0  0  0  0
   -3.7052   -3.2139    0.2791 C   0  0  0  0  0  0  0  0  0  0  0  0
   -4.2978   -3.2692   -1.1218 C   0  0  0  0  0  0  0  0  0  0  0  0
   -4.6933   -1.8329   -1.3989 C   0  0  0  0  0  0  0  0  0  0  0  0
   -3.8707    0.3279   -0.6760 C   0  0  0  0  0  0  0  0  0  0  0  0
   -1.8120   -1.6199    0.8621 C   0  0  0  0  0  0  0  0  0  0  0  0
   -2.6167    1.1503   -0.5419 C   0  0  0  0  0  0  0  0  0  0  0  0
   -2.4222    1.9470    0.5863 C   0  0  0  0  0  0  0  0  0  0  0  0
   -1.6490    1.1151   -1.5460 C   0  0  0  0  0  0  0  0  0  0  0  0
    0.2403   -1.4182    1.0247 C   0  0  0  0  0  0  0  0  0  0  0  0
   -0.4871    1.8768   -1.4219 C   0  0  0  0  0  0  0  0  0  0  0  0
   -1.2602    2.7086    0.7105 C   0  0  0  0  0  0  0  0  0  0  0  0
   -0.2927    2.6736   -0.2936 C   0  0  0  0  0  0  0  0  0  0  0  0
    1.6142   -1.2626    0.6425 C   0  0  0  0  0  0  0  0  0  0  0  0
    1.9792   -1.1667   -0.6958 C   0  0  0  0  0  0  0  0  0  0  0  0
    2.6189   -1.2028    1.5947 C   0  0  0  0  0  0  0  0  0  0  0  0
    3.3191   -1.0162   -1.0360 C   0  0  0  0  0  0  0  0  0  0  0  0
    4.2475   -0.9674   -0.0087 C   0  0  0  0  0  0  0  0  0  0  0  0
    0.1732    0.9932   -3.5287 C   0  0  0  0  0  0  0  0  0  0  0  0
   -2.1204    3.4623    2.7956 C   0  0  0  0  0  0  0  0  0  0  0  0
    1.9554    2.8027    0.4711 C   0  0  0  0  0  0  0  0  0  0  0  0
    6.6307   -0.7486    0.6498 C   0  0  0  0  0  0  0  0  0  0  0  0
    5.9837   -0.7166   -1.7645 C   0  0  0  0  0  0  0  0  0  0  0  0
   -3.8827   -1.3263    1.2828 H   0  0  0  0  0  0  0  0  0  0  0  0
   -2.8884   -3.9361    0.3848 H   0  0  0  0  0  0  0  0  0  0  0  0
   -4.4779   -3.4698    1.0143 H   0  0  0  0  0  0  0  0  0  0  0  0
   -5.1453   -3.9579   -1.1856 H   0  0  0  0  0  0  0  0  0  0  0  0
   -3.5342   -3.6006   -1.8366 H   0  0  0  0  0  0  0  0  0  0  0  0
   -5.6433   -1.5973   -0.9024 H   0  0  0  0  0  0  0  0  0  0  0  0
   -4.7953   -1.6438   -2.4719 H   0  0  0  0  0  0  0  0  0  0  0  0
   -4.3757    0.6919   -1.5820 H   0  0  0  0  0  0  0  0  0  0  0  0
   -4.5722    0.5196    0.1464 H   0  0  0  0  0  0  0  0  0  0  0  0
   -3.2065    1.9334    1.3353 H   0  0  0  0  0  0  0  0  0  0  0  0
   -1.8570    0.4854   -2.4044 H   0  0  0  0  0  0  0  0  0  0  0  0
    1.2419   -1.2146   -1.4915 H   0  0  0  0  0  0  0  0  0  0  0  0
    2.4181   -1.2693    2.6599 H   0  0  0  0  0  0  0  0  0  0  0  0
    3.5596   -0.9462   -2.0898 H   0  0  0  0  0  0  0  0  0  0  0  0
    1.0310    1.0664   -4.2053 H   0  0  0  0  0  0  0  0  0  0  0  0
   -0.7021    1.3438   -4.0863 H   0  0  0  0  0  0  0  0  0  0  0  0
    0.0867   -0.0593   -3.2406 H   0  0  0  0  0  0  0  0  0  0  0  0
   -3.0612    3.8566    2.3965 H   0  0  0  0  0  0  0  0  0  0  0  0
   -2.2378    2.4668    3.2374 H   0  0  0  0  0  0  0  0  0  0  0  0
   -1.8133    4.1336    3.6044 H   0  0  0  0  0  0  0  0  0  0  0  0
    2.7246    3.5637    0.6285 H   0  0  0  0  0  0  0  0  0  0  0  0
    2.3700    2.0153   -0.1645 H   0  0  0  0  0  0  0  0  0  0  0  0
    1.6685    2.3894    1.4435 H   0  0  0  0  0  0  0  0  0  0  0  0
    7.6330   -0.6335    0.2237 H   0  0  0  0  0  0  0  0  0  0  0  0
    6.6378   -1.6643    1.2512 H   0  0  0  0  0  0  0  0  0  0  0  0
    6.4603    0.1064    1.3133 H   0  0  0  0  0  0  0  0  0  0  0  0
    7.0679   -0.6041   -1.8800 H   0  0  0  0  0  0  0  0  0  0  0  0
    5.5338    0.1622   -2.2401 H   0  0  0  0  0  0  0  0  0  0  0  0
    5.7111   -1.6221   -2.3184 H   0  0  0  0  0  0  0  0  0  0  0  0
  1  7  1  0  0  0  0
  1 15  1  0  0  0  0
  2 20  1  0  0  0  0
  2 28  1  0  0  0  0
  3 21  1  0  0  0  0
  3 29  1  0  0  0  0
  4 22  1  0  0  0  0
  4 30  1  0  0  0  0
  5 10  1  0  0  0  0
  5 13  1  0  0  0  0
  5 14  1  0  0  0  0
  6 15  2  0  0  0  0
  6 19  1  0  0  0  0
  7 19  2  0  0  0  0
  8 25  1  0  0  0  0
  8 27  2  0  0  0  0
  9 27  1  0  0  0  0
  9 31  1  0  0  0  0
  9 32  1  0  0  0  0
 10 11  1  0  0  0  0
 10 15  1  0  0  0  0
 10 33  1  0  0  0  0
 11 12  1  0  0  0  0
 11 34  1  0  0  0  0
 11 35  1  0  0  0  0
 12 13  1  0  0  0  0
 12 36  1  0  0  0  0
 12 37  1  0  0  0  0
 13 38  1  0  0  0  0
 13 39  1  0  0  0  0
 14 16  1  0  0  0  0
 14 40  1  0  0  0  0
 14 41  1  0  0  0  0
 16 17  2  0  0  0  0
 16 18  1  0  0  0  0
 17 21  1  0  0  0  0
 17 42  1  0  0  0  0
 18 20  2  0  0  0  0
 18 43  1  0  0  0  0
 19 23  1  0  0  0  0
 20 22  1  0  0  0  0
 21 22  2  0  0  0  0
 23 24  1  0  0  0  0
 23 25  2  0  0  0  0
 24 26  2  0  0  0  0
 24 44  1  0  0  0  0
 25 45  1  0  0  0  0
 26 27  1  0  0  0  0
 26 46  1  0  0  0  0
 28 47  1  0  0  0  0
 28 48  1  0  0  0  0
 28 49  1  0  0  0  0
 29 50  1  0  0  0  0
 29 51  1  0  0  0  0
 29 52  1  0  0  0  0
 30 53  1  0  0  0  0
 30 54  1  0  0  0  0
 30 55  1  0  0  0  0
 31 56  1  0  0  0  0
 31 57  1  0  0  0  0
 31 58  1  0  0  0  0
 32 59  1  0  0  0  0
 32 60  1  0  0  0  0
 32 61  1  0  0  0  0
M  END
> <PUBCHEM_COMPOUND_CID>
45783819

> <PUBCHEM_CONFORMER_RMSD>
1

> <PUBCHEM_CONFORMER_DIVERSEORDER>
1
90
34
65
89
38
83
121
99
23
30
134
122
49
71
100
130
98
47
96
17
5
61
41
115
3
103
32
136
101
108
119
127
132
93
124
84
4
91
67
26
16
2
128
79
123
36
60
6
57
120
102
40
131
56
37
118
28
95
109
15
126
87
52
18
13
44
107
104
24
64
85
59
72
9
27
63
55
94
106
14
77
114
133
31
68
21
76
129
75
50
53
86
92
113
80
45
78
33
19
81
42
46
11
58
43
7
54
20
66
70
88
125
112
8
35
51
10
110
69
111
22
82
117
12
105
97
74
73
62
39
48
116
25
29
135

> <PUBCHEM_MMFF94_PARTIAL_CHARGES>
35
1 -0.02
10 0.45
13 0.27
14 0.41
15 0.3
16 -0.14
17 -0.15
18 -0.15
19 0.46
2 -0.36
20 0.08
21 0.08
22 0.08
23 0.05
24 -0.15
25 0.16
26 -0.15
27 0.41
28 0.28
29 0.28
3 -0.36
30 0.28
31 0.37
32 0.37
4 -0.36
42 0.15
43 0.15
44 0.15
45 0.15
46 0.15
5 -0.81
6 -0.57
7 -0.41
8 -0.62
9 -0.84

> <PUBCHEM_EFFECTIVE_ROTOR_COUNT>
9

> <PUBCHEM_PHARMACOPHORE_FEATURES>
10
1 2 acceptor
1 3 acceptor
1 4 acceptor
1 5 cation
3 6 7 19 cation
3 8 9 27 cation
5 1 6 7 15 19 rings
5 5 10 11 12 13 rings
6 16 17 18 20 21 22 rings
6 8 23 24 25 26 27 rings

> <PUBCHEM_HEAVY_ATOM_COUNT>
32

> <PUBCHEM_ATOM_DEF_STEREO_COUNT>
1

> <PUBCHEM_ATOM_UDEF_STEREO_COUNT>
0

> <PUBCHEM_BOND_DEF_STEREO_COUNT>
0

> <PUBCHEM_BOND_UDEF_STEREO_COUNT>
0

> <PUBCHEM_ISOTOPIC_ATOM_COUNT>
0

> <PUBCHEM_COMPONENT_COUNT>
1

> <PUBCHEM_CACTVS_TAUTO_COUNT>
1

> <PUBCHEM_CONFORMER_ID>
02BA9B0B00000001

> <PUBCHEM_MMFF94_ENERGY>
112.0194

> <PUBCHEM_FEATURE_SELFOVERLAP>
50.757

> <PUBCHEM_SHAPE_FINGERPRINT>
10871710 139 17677045725167720335
1100329 8 18411416190385714905
12156800 1 12707450125998358045
12166972 35 16805889605474903694
13782708 43 17774451491007860158
14068700 675 18412541050113620367
14713325 29 18058733494084293250
14840074 17 17606140397598661668
151778 21 8981015021228820424
16090146 7 18131077039747649443
17492 54 17531238440252239719
20691752 17 17241307171262638137
20775438 99 17185012412071180559
20775530 9 18261389009432600487
20905425 154 18120091942905144535
21304303 64 16732985289194472423
21623110 236 18187096065564532028
21792965 270 15097915462964397466
23419403 2 17687979427782065045
23557571 272 18343016670752766614
23559900 14 18190168178161125629
27425 322 17411912673553585040
392239 28 18411139126108243808
469060 322 17169294592328631737
57527295 17 17908160011726161175

> <PUBCHEM_SHAPE_MULTIPOLES>
610.16
10.03
4.36
2.47
14.82
2.98
-0.63
-8.49
-1.92
-4.41
1.5
-0.18
1.04
-1.23

> <PUBCHEM_SHAPE_SELFOVERLAP>
1308.771

> <PUBCHEM_SHAPE_VOLUME>
341.2

> <PUBCHEM_COORDINATE_TYPE>
2
5
10

$$$$
