75367112
  -OEChem-12032416383D

 46 47  0     1  0  0  0  0  0999 V2000
    0.0100    0.1822   -0.0707 O   0  0  0  0  0  0  0  0  0  0  0  0
   -5.9558    1.6834   -0.4154 O   0  0  0  0  0  0  0  0  0  0  0  0
   -1.7714   -2.7950    0.8613 O   0  0  0  0  0  0  0  0  0  0  0  0
    2.3987    0.1418   -1.9468 O   0  0  0  0  0  0  0  0  0  0  0  0
   -3.5800   -0.4034   -0.0798 N   0  0  0  0  0  0  0  0  0  0  0  0
    2.3455   -1.4953   -0.2983 N   0  0  0  0  0  0  0  0  0  0  0  0
   -2.2252   -0.4322    0.4469 C   0  0  1  0  0  0  0  0  0  0  0  0
   -1.4473   -1.6761    0.0590 C   0  0  1  0  0  0  0  0  0  0  0  0
   -0.0158   -1.2097    0.2870 C   0  0  1  0  0  0  0  0  0  0  0  0
   -4.3278    0.6941    0.5467 C   0  0  0  0  0  0  0  0  0  0  0  0
   -1.3438    0.6649   -0.1271 C   0  0  0  0  0  0  0  0  0  0  0  0
    1.0031   -1.9716   -0.5417 C   0  0  0  0  0  0  0  0  0  0  0  0
   -5.8240    0.4548    0.3451 C   0  0  0  0  0  0  0  0  0  0  0  0
   -4.5124    1.8207   -0.4698 C   0  0  0  0  0  0  0  0  0  0  0  0
    4.4677    0.9455    0.4899 C   0  0  0  0  0  0  0  0  0  0  0  0
    4.3523   -0.1658   -0.5805 C   0  0  0  0  0  0  0  0  0  0  0  0
    2.9319   -0.4736   -1.0257 C   0  0  0  0  0  0  0  0  0  0  0  0
    5.9365    1.1990    0.8688 C   0  0  0  0  0  0  0  0  0  0  0  0
    3.6704    0.5928    1.7562 C   0  0  0  0  0  0  0  0  0  0  0  0
    3.8873    2.2434   -0.1052 C   0  0  0  0  0  0  0  0  0  0  0  0
   -2.2430   -0.3730    1.5445 H   0  0  0  0  0  0  0  0  0  0  0  0
   -1.6165   -1.9349   -0.9936 H   0  0  0  0  0  0  0  0  0  0  0  0
    0.2549   -1.2790    1.3489 H   0  0  0  0  0  0  0  0  0  0  0  0
   -4.0576    0.9912    1.5644 H   0  0  0  0  0  0  0  0  0  0  0  0
   -1.5656    0.8707   -1.1805 H   0  0  0  0  0  0  0  0  0  0  0  0
   -1.4185    1.6030    0.4313 H   0  0  0  0  0  0  0  0  0  0  0  0
   -4.0041   -1.3171    0.0848 H   0  0  0  0  0  0  0  0  0  0  0  0
    0.7911   -1.8576   -1.6109 H   0  0  0  0  0  0  0  0  0  0  0  0
    0.9852   -3.0380   -0.2954 H   0  0  0  0  0  0  0  0  0  0  0  0
   -6.1323   -0.4084   -0.2542 H   0  0  0  0  0  0  0  0  0  0  0  0
   -6.4220    0.4903    1.2609 H   0  0  0  0  0  0  0  0  0  0  0  0
   -4.1938    2.8081   -0.1226 H   0  0  0  0  0  0  0  0  0  0  0  0
   -4.1441    1.6577   -1.4882 H   0  0  0  0  0  0  0  0  0  0  0  0
   -1.6192   -2.5584    1.7919 H   0  0  0  0  0  0  0  0  0  0  0  0
    2.8692   -1.9349    0.4528 H   0  0  0  0  0  0  0  0  0  0  0  0
    4.8150   -1.0881   -0.2056 H   0  0  0  0  0  0  0  0  0  0  0  0
    4.9217    0.1094   -1.4781 H   0  0  0  0  0  0  0  0  0  0  0  0
    6.0274    2.0055    1.6050 H   0  0  0  0  0  0  0  0  0  0  0  0
    6.5273    1.4801   -0.0101 H   0  0  0  0  0  0  0  0  0  0  0  0
    6.3887    0.2992    1.3006 H   0  0  0  0  0  0  0  0  0  0  0  0
    3.9968   -0.3675    2.1703 H   0  0  0  0  0  0  0  0  0  0  0  0
    3.8130    1.3529    2.5332 H   0  0  0  0  0  0  0  0  0  0  0  0
    2.5945    0.5328    1.5638 H   0  0  0  0  0  0  0  0  0  0  0  0
    4.0296    3.0851    0.5830 H   0  0  0  0  0  0  0  0  0  0  0  0
    4.3803    2.5042   -1.0485 H   0  0  0  0  0  0  0  0  0  0  0  0
    2.8113    2.1673   -0.2937 H   0  0  0  0  0  0  0  0  0  0  0  0
  1  9  1  0  0  0  0
  1 11  1  0  0  0  0
  2 13  1  0  0  0  0
  2 14  1  0  0  0  0
  3  8  1  0  0  0  0
  3 34  1  0  0  0  0
  4 17  2  0  0  0  0
  5  7  1  0  0  0  0
  5 10  1  0  0  0  0
  5 27  1  0  0  0  0
  6 12  1  0  0  0  0
  6 17  1  0  0  0  0
  6 35  1  0  0  0  0
  7  8  1  0  0  0  0
  7 11  1  0  0  0  0
  7 21  1  0  0  0  0
  8  9  1  0  0  0  0
  8 22  1  0  0  0  0
  9 12  1  0  0  0  0
  9 23  1  0  0  0  0
 10 13  1  0  0  0  0
 10 14  1  0  0  0  0
 10 24  1  0  0  0  0
 11 25  1  0  0  0  0
 11 26  1  0  0  0  0
 12 28  1  0  0  0  0
 12 29  1  0  0  0  0
 13 30  1  0  0  0  0
 13 31  1  0  0  0  0
 14 32  1  0  0  0  0
 14 33  1  0  0  0  0
 15 16  1  0  0  0  0
 15 18  1  0  0  0  0
 15 19  1  0  0  0  0
 15 20  1  0  0  0  0
 16 17  1  0  0  0  0
 16 36  1  0  0  0  0
 16 37  1  0  0  0  0
 18 38  1  0  0  0  0
 18 39  1  0  0  0  0
 18 40  1  0  0  0  0
 19 41  1  0  0  0  0
 19 42  1  0  0  0  0
 19 43  1  0  0  0  0
 20 44  1  0  0  0  0
 20 45  1  0  0  0  0
 20 46  1  0  0  0  0
M  END
> <PUBCHEM_COMPOUND_CID>
75367112

> <PUBCHEM_CONFORMER_RMSD>
1

> <PUBCHEM_CONFORMER_DIVERSEORDER>
1
74
27
3
50
102
118
111
52
100
81
117
79
15
67
99
115
91
24
92
30
93
73
105
53
16
103
22
116
21
84
86
113
47
83
88
9
77
31
66
33
17
90
43
82
46
35
108
6
106
18
72
68
76
112
101
34
25
26
97
69
63
98
14
11
85
109
55
8
104
48
89
61
96
80
95
65
45
13
40
71
23
58
51
54
60
38
119
12
4
20
114
28
44
37
87
39
107
57
64
110
94
59
75
49
62
32
56
41
5
42
29
70
36
7
78
2
10
19

> <PUBCHEM_MMFF94_PARTIAL_CHARGES>
19
1 -0.56
10 0.21
11 0.28
12 0.3
13 0.26
14 0.26
16 0.06
17 0.57
2 -0.52
27 0.36
3 -0.68
34 0.4
35 0.37
4 -0.57
5 -0.84
6 -0.73
7 0.27
8 0.28
9 0.28

> <PUBCHEM_EFFECTIVE_ROTOR_COUNT>
8.8

> <PUBCHEM_PHARMACOPHORE_FEATURES>
11
1 1 acceptor
1 2 acceptor
1 3 acceptor
1 3 donor
1 4 acceptor
1 5 cation
1 5 donor
1 6 donor
4 15 18 19 20 hydrophobe
4 2 10 13 14 rings
5 1 7 8 9 11 rings

> <PUBCHEM_HEAVY_ATOM_COUNT>
20

> <PUBCHEM_ATOM_DEF_STEREO_COUNT>
3

> <PUBCHEM_ATOM_UDEF_STEREO_COUNT>
0

> <PUBCHEM_BOND_DEF_STEREO_COUNT>
0

> <PUBCHEM_BOND_UDEF_STEREO_COUNT>
0

> <PUBCHEM_ISOTOPIC_ATOM_COUNT>
0

> <PUBCHEM_COMPONENT_COUNT>
1

> <PUBCHEM_CACTVS_TAUTO_COUNT>
2

> <PUBCHEM_CONFORMER_ID>
047E02C800000001

> <PUBCHEM_MMFF94_ENERGY>
44.674

> <PUBCHEM_FEATURE_SELFOVERLAP>
55.822

> <PUBCHEM_SHAPE_FINGERPRINT>
10014705 185 18342177790973248587
10498660 4 18272377502928663184
11128504 68 16487252153942187745
11543360 7 16343980299901099079
11595378 159 17095797720538171285
12403259 118 17676497159291790629
12596602 18 16370734754599378320
12633257 1 15791734134988598986
12670546 177 16630521826134537733
12778500 126 17458898228897944792
12969540 114 18060128822032493853
13402501 40 18343017796266547376
13533116 47 18338237038278600322
13914758 101 13334729138566741223
13955234 65 18194970647241090835
14123256 34 11963661185055510320
14211702 104 11747809520546168569
14251758 9 10665220437572514743
14251764 38 18194399128621691868
14252887 29 8142076542587552598
14366163 111 16774078453528822033
14528608 73 17846493729777327781
15238133 3 18187367684013135420
15375358 24 18341898501786693054
173720 79 17894346683573884211
17834072 33 16774071878229414301
17959699 21 18202284671550006121
17980427 23 18115587196400102870
1813 80 11671776061821905019
18222031 100 9367054529046482155
20388580 30 9871745815082760466
20567600 254 18412256225241864232
20621476 21 8286198378940726401
20645477 56 18334017189875659271
20645477 70 17274833415271124734
20715895 44 18410854347790304096
21150785 3 17418083331173068861
212916 134 18260826003380899523
21452121 103 18336262345248492906
21475661 188 18201147875743877808
21618674 25 18342176656838339798
22950370 63 9511463337897374687
23016692 55 9943807802629067425
23227448 37 18340769342316028319
23557571 272 18200039580496602398
23559900 14 18342183241529723886
23590187 173 18343302569898791276
2767999 5 18260544515962327197
2838139 119 18060410327016420688
2916195 48 18411418402072053177
3060560 45 15698001851632923156
345986 75 13046208494585736372
3472631 163 18409447028936147220
34797466 226 17561086882727973013
3680242 22 18335139756819562168
465052 167 7997679922168154265
474 4 18343304781627750208
495365 180 18060415794483421166
5104073 3 18116159879118610537
53917941 68 18409438203316612831
653340 110 18118400648718892413
960060 61 13830131680554442237

> <PUBCHEM_SHAPE_MULTIPOLES>
378.15
13.63
2.23
1.14
5.78
0.58
-0.04
-9.52
1.35
0.4
0.09
-1.13
-0.03
1.21

> <PUBCHEM_SHAPE_SELFOVERLAP>
758.665

> <PUBCHEM_SHAPE_VOLUME>
225.4

> <PUBCHEM_COORDINATE_TYPE>
2
5
10

$$$$
