45783333
  -OEChem-12032416203D

 63 68  0     1  0  0  0  0  0999 V2000
   -3.5412    0.5807   -2.2508 O   0  0  0  0  0  0  0  0  0  0  0  0
   -2.0682   -0.6938    1.9557 O   0  0  0  0  0  0  0  0  0  0  0  0
    6.9450    0.8472    0.2318 O   0  0  0  0  0  0  0  0  0  0  0  0
   -3.9276    1.4777    1.2919 N   0  0  1  0  0  0  0  0  0  0  0  0
    3.1282    0.1533   -0.4047 N   0  0  0  0  0  0  0  0  0  0  0  0
   -1.8710    0.8997   -0.7929 N   0  0  0  0  0  0  0  0  0  0  0  0
   -2.3826    0.1014   -2.8750 N   0  0  0  0  0  0  0  0  0  0  0  0
    2.6236   -0.6805   -2.5623 N   0  0  0  0  0  0  0  0  0  0  0  0
    6.5067    2.6779    1.5549 N   0  0  0  0  0  0  0  0  0  0  0  0
   -4.2371    1.6093   -0.1458 C   0  0  1  0  0  0  0  0  0  0  0  0
   -4.4428    3.1195   -0.3650 C   0  0  0  0  0  0  0  0  0  0  0  0
   -4.2899    3.7460    1.0137 C   0  0  0  0  0  0  0  0  0  0  0  0
   -4.5852    2.6005    1.9608 C   0  0  0  0  0  0  0  0  0  0  0  0
    5.0478    0.7644    1.6860 C   0  0  0  0  0  0  0  0  0  0  0  0
   -4.3311    0.1940    1.8513 C   0  0  0  0  0  0  0  0  0  0  0  0
    4.8520   -0.6561    1.1606 C   0  0  0  0  0  0  0  0  0  0  0  0
    3.8019    1.6176    1.4567 C   0  0  0  0  0  0  0  0  0  0  0  0
   -3.1515    1.0327   -1.0301 C   0  0  0  0  0  0  0  0  0  0  0  0
    4.3064   -0.7075   -0.2681 C   0  0  0  0  0  0  0  0  0  0  0  0
    3.2926    1.5498    0.0173 C   0  0  0  0  0  0  0  0  0  0  0  0
   -3.3419   -0.8942    1.5278 C   0  0  0  0  0  0  0  0  0  0  0  0
    2.1948   -0.1098   -1.4141 C   0  0  0  0  0  0  0  0  0  0  0  0
    6.2531    1.4154    1.0730 C   0  0  0  0  0  0  0  0  0  0  0  0
   -1.4412    0.3239   -1.9531 C   0  0  0  0  0  0  0  0  0  0  0  0
   -3.4507   -2.0958    0.8669 C   0  0  0  0  0  0  0  0  0  0  0  0
    0.8768    0.2381   -1.1660 C   0  0  0  0  0  0  0  0  0  0  0  0
   -0.0617   -0.0158   -2.1602 C   0  0  0  0  0  0  0  0  0  0  0  0
   -2.1573   -2.6812    0.8852 C   0  0  0  0  0  0  0  0  0  0  0  0
   -1.3443   -1.7806    1.5659 C   0  0  0  0  0  0  0  0  0  0  0  0
    0.3410   -0.6017   -3.3552 C   0  0  0  0  0  0  0  0  0  0  0  0
    1.6830   -0.9121   -3.5054 C   0  0  0  0  0  0  0  0  0  0  0  0
   -1.5846   -3.8708    0.4026 C   0  0  0  0  0  0  0  0  0  0  0  0
    0.0142   -1.9801    1.8044 C   0  0  0  0  0  0  0  0  0  0  0  0
   -0.2200   -4.0996    0.6267 C   0  0  0  0  0  0  0  0  0  0  0  0
    0.5629   -3.1696    1.3157 C   0  0  0  0  0  0  0  0  0  0  0  0
   -5.1843    1.1067   -0.3874 H   0  0  0  0  0  0  0  0  0  0  0  0
   -3.7366    3.5640   -1.0747 H   0  0  0  0  0  0  0  0  0  0  0  0
   -5.4570    3.3026   -0.7404 H   0  0  0  0  0  0  0  0  0  0  0  0
   -4.9638    4.5954    1.1593 H   0  0  0  0  0  0  0  0  0  0  0  0
   -3.2605    4.0998    1.1502 H   0  0  0  0  0  0  0  0  0  0  0  0
   -4.1726    2.7863    2.9573 H   0  0  0  0  0  0  0  0  0  0  0  0
   -5.6684    2.4462    2.0453 H   0  0  0  0  0  0  0  0  0  0  0  0
    5.2422    0.7072    2.7655 H   0  0  0  0  0  0  0  0  0  0  0  0
   -5.3406   -0.0975    1.5357 H   0  0  0  0  0  0  0  0  0  0  0  0
   -4.3578    0.2613    2.9475 H   0  0  0  0  0  0  0  0  0  0  0  0
    5.7829   -1.2329    1.2185 H   0  0  0  0  0  0  0  0  0  0  0  0
    4.1334   -1.1648    1.8177 H   0  0  0  0  0  0  0  0  0  0  0  0
    3.0081    1.2399    2.1161 H   0  0  0  0  0  0  0  0  0  0  0  0
    3.9489    2.6660    1.7358 H   0  0  0  0  0  0  0  0  0  0  0  0
    4.0449   -1.7498   -0.4909 H   0  0  0  0  0  0  0  0  0  0  0  0
    5.0699   -0.4044   -0.9933 H   0  0  0  0  0  0  0  0  0  0  0  0
    3.9972    2.0500   -0.6590 H   0  0  0  0  0  0  0  0  0  0  0  0
    2.3545    2.1141   -0.0348 H   0  0  0  0  0  0  0  0  0  0  0  0
   -4.3497   -2.5013    0.4242 H   0  0  0  0  0  0  0  0  0  0  0  0
    0.5858    0.6765   -0.2158 H   0  0  0  0  0  0  0  0  0  0  0  0
    7.2959    3.2143    1.2100 H   0  0  0  0  0  0  0  0  0  0  0  0
    5.9611    3.1069    2.2948 H   0  0  0  0  0  0  0  0  0  0  0  0
   -0.3456   -0.8235   -4.1655 H   0  0  0  0  0  0  0  0  0  0  0  0
    2.0485   -1.3706   -4.4184 H   0  0  0  0  0  0  0  0  0  0  0  0
   -2.1803   -4.6024   -0.1349 H   0  0  0  0  0  0  0  0  0  0  0  0
    0.6159   -1.2527    2.3363 H   0  0  0  0  0  0  0  0  0  0  0  0
    0.2355   -5.0149    0.2575 H   0  0  0  0  0  0  0  0  0  0  0  0
    1.6195   -3.3722    1.4726 H   0  0  0  0  0  0  0  0  0  0  0  0
  1  7  1  0  0  0  0
  1 18  1  0  0  0  0
  2 21  1  0  0  0  0
  2 29  1  0  0  0  0
  3 23  2  0  0  0  0
  4 10  1  0  0  0  0
  4 13  1  0  0  0  0
  4 15  1  0  0  0  0
  5 19  1  0  0  0  0
  5 20  1  0  0  0  0
  5 22  1  0  0  0  0
  6 18  2  0  0  0  0
  6 24  1  0  0  0  0
  7 24  2  0  0  0  0
  8 22  2  0  0  0  0
  8 31  1  0  0  0  0
  9 23  1  0  0  0  0
  9 56  1  0  0  0  0
  9 57  1  0  0  0  0
 10 11  1  0  0  0  0
 10 18  1  0  0  0  0
 10 36  1  0  0  0  0
 11 12  1  0  0  0  0
 11 37  1  0  0  0  0
 11 38  1  0  0  0  0
 12 13  1  0  0  0  0
 12 39  1  0  0  0  0
 12 40  1  0  0  0  0
 13 41  1  0  0  0  0
 13 42  1  0  0  0  0
 14 16  1  0  0  0  0
 14 17  1  0  0  0  0
 14 23  1  0  0  0  0
 14 43  1  0  0  0  0
 15 21  1  0  0  0  0
 15 44  1  0  0  0  0
 15 45  1  0  0  0  0
 16 19  1  0  0  0  0
 16 46  1  0  0  0  0
 16 47  1  0  0  0  0
 17 20  1  0  0  0  0
 17 48  1  0  0  0  0
 17 49  1  0  0  0  0
 19 50  1  0  0  0  0
 19 51  1  0  0  0  0
 20 52  1  0  0  0  0
 20 53  1  0  0  0  0
 21 25  2  0  0  0  0
 22 26  1  0  0  0  0
 24 27  1  0  0  0  0
 25 28  1  0  0  0  0
 25 54  1  0  0  0  0
 26 27  2  0  0  0  0
 26 55  1  0  0  0  0
 27 30  1  0  0  0  0
 28 29  1  0  0  0  0
 28 32  2  0  0  0  0
 29 33  2  0  0  0  0
 30 31  2  0  0  0  0
 30 58  1  0  0  0  0
 31 59  1  0  0  0  0
 32 34  1  0  0  0  0
 32 60  1  0  0  0  0
 33 35  1  0  0  0  0
 33 61  1  0  0  0  0
 34 35  2  0  0  0  0
 34 62  1  0  0  0  0
 35 63  1  0  0  0  0
M  END
> <PUBCHEM_COMPOUND_CID>
45783333

> <PUBCHEM_CONFORMER_RMSD>
1.2

> <PUBCHEM_CONFORMER_DIVERSEORDER>
1
75
109
84
140
122
113
104
56
12
49
112
96
45
3
134
72
47
115
91
65
81
67
61
39
99
43
41
33
123
139
30
101
83
121
52
60
79
48
66
138
68
24
116
55
59
108
71
13
90
89
20
131
70
16
28
40
63
133
57
50
136
27
76
130
132
118
98
34
128
127
17
100
21
107
95
58
73
103
64
10
46
137
35
114
51
119
69
92
85
29
74
88
120
4
105
87
106
53
26
102
82
125
15
31
42
36
62
135
97
38
25
117
19
86
129
78
111
2
54
126
93
124
7
32
80
8
44
37
23
6
77
110
22
11
94
14
9
5
18

> <PUBCHEM_MMFF94_PARTIAL_CHARGES>
40
1 -0.02
10 0.45
13 0.27
14 0.06
15 0.45
18 0.3
19 0.37
2 -0.28
20 0.37
21 -0.04
22 0.41
23 0.57
24 0.46
25 -0.15
26 -0.15
27 0.05
29 0.14
3 -0.57
30 -0.15
31 0.16
32 -0.15
33 -0.15
34 -0.15
35 -0.15
4 -0.81
5 -0.84
54 0.15
55 0.15
56 0.37
57 0.37
58 0.15
59 0.15
6 -0.57
60 0.15
61 0.15
62 0.15
63 0.15
7 -0.41
8 -0.62
9 -0.8

> <PUBCHEM_EFFECTIVE_ROTOR_COUNT>
8.2

> <PUBCHEM_PHARMACOPHORE_FEATURES>
12
1 2 acceptor
1 3 acceptor
1 4 cation
1 9 donor
3 5 8 22 cation
3 6 7 24 cation
5 1 6 7 18 24 rings
5 2 21 25 28 29 rings
5 4 10 11 12 13 rings
6 28 29 32 33 34 35 rings
6 5 14 16 17 19 20 rings
6 8 22 26 27 30 31 rings

> <PUBCHEM_HEAVY_ATOM_COUNT>
35

> <PUBCHEM_ATOM_DEF_STEREO_COUNT>
1

> <PUBCHEM_ATOM_UDEF_STEREO_COUNT>
0

> <PUBCHEM_BOND_DEF_STEREO_COUNT>
0

> <PUBCHEM_BOND_UDEF_STEREO_COUNT>
0

> <PUBCHEM_ISOTOPIC_ATOM_COUNT>
0

> <PUBCHEM_COMPONENT_COUNT>
1

> <PUBCHEM_CACTVS_TAUTO_COUNT>
2

> <PUBCHEM_CONFORMER_ID>
02BA992500000001

> <PUBCHEM_MMFF94_ENERGY>
76.1934

> <PUBCHEM_FEATURE_SELFOVERLAP>
61.001

> <PUBCHEM_SHAPE_FINGERPRINT>
10032420 55 17201910660307298770
11112241 14 18336538305735043957
11582403 64 17987509334439679159
1200032 147 17130715968390910385
12422481 6 17241333451787772947
12633257 1 18262807405170509024
12788726 201 17683563819366043631
13642711 20 18129105524301809561
14068700 675 17972868439605236607
14395042 24 17605011376311009459
14468879 13 17775571914081683081
14705955 166 18339920549261751386
14932701 244 18129935797636980551
20554085 129 18190184486606109725
21033648 29 18340225002398352273
21796203 349 16081958961088824836
21987440 362 17827635846835928876
244849 19 18129685013984916526
4112364 45 17909549463743570921
469060 322 16187173758200993664
484985 159 14852151975489404555
5265222 85 17682724775903834022
550186 7 18128830792302544448
5951187 136 17483408417423779193
7064713 232 18040725722962075883
9862522 239 17749098972583017971

> <PUBCHEM_SHAPE_MULTIPOLES>
672.79
12.54
4.1
3.21
16.39
2.1
2.99
-12.34
-7.66
-3.89
-2.55
0.1
0.05
1.39

> <PUBCHEM_SHAPE_SELFOVERLAP>
1483.312

> <PUBCHEM_SHAPE_VOLUME>
362.1

> <PUBCHEM_COORDINATE_TYPE>
2
5
10

$$$$
