26743556
  -OEChem-12032416283D

 43 46  0     1  0  0  0  0  0999 V2000
   -4.6656   -4.0700    0.5319 F   0  0  0  0  0  0  0  0  0  0  0  0
   -2.3754    4.2561    1.8128 O   0  0  0  0  0  0  0  0  0  0  0  0
    1.8030    2.1937   -1.4698 O   0  0  0  0  0  0  0  0  0  0  0  0
   -1.5147    1.3742   -0.1172 N   0  0  1  0  0  0  0  0  0  0  0  0
    1.3699    0.6249    0.0689 N   0  0  0  0  0  0  0  0  0  0  0  0
    2.9706    1.4287   -1.3543 N   0  0  0  0  0  0  0  0  0  0  0  0
   -0.4510    2.3110   -0.5326 C   0  0  1  0  0  0  0  0  0  0  0  0
   -0.5113    3.4562    0.4953 C   0  0  0  0  0  0  0  0  0  0  0  0
   -1.6681    3.0964    1.4193 C   0  0  2  0  0  0  0  0  0  0  0  0
   -2.5249    2.1744    0.5726 C   0  0  0  0  0  0  0  0  0  0  0  0
   -2.0789    0.6170   -1.2268 C   0  0  0  0  0  0  0  0  0  0  0  0
    0.9116    1.6539   -0.5980 C   0  0  0  0  0  0  0  0  0  0  0  0
   -2.7701   -0.6354   -0.7571 C   0  0  0  0  0  0  0  0  0  0  0  0
   -2.0546   -1.8280   -0.6484 C   0  0  0  0  0  0  0  0  0  0  0  0
   -4.1258   -0.6032   -0.4307 C   0  0  0  0  0  0  0  0  0  0  0  0
    2.6364    0.5245   -0.4287 C   0  0  0  0  0  0  0  0  0  0  0  0
   -2.6951   -2.9883   -0.2135 C   0  0  0  0  0  0  0  0  0  0  0  0
   -4.7662   -1.7634    0.0041 C   0  0  0  0  0  0  0  0  0  0  0  0
    3.5445   -0.4906    0.0214 C   0  0  0  0  0  0  0  0  0  0  0  0
   -4.0511   -2.9560    0.1127 C   0  0  0  0  0  0  0  0  0  0  0  0
    3.1394   -1.4068    0.9920 C   0  0  0  0  0  0  0  0  0  0  0  0
    4.8318   -0.5616   -0.5106 C   0  0  0  0  0  0  0  0  0  0  0  0
    4.0219   -2.3941    1.4306 C   0  0  0  0  0  0  0  0  0  0  0  0
    5.7142   -1.5487   -0.0722 C   0  0  0  0  0  0  0  0  0  0  0  0
    5.3094   -2.4650    0.8985 C   0  0  0  0  0  0  0  0  0  0  0  0
   -0.6827    2.7348   -1.5202 H   0  0  0  0  0  0  0  0  0  0  0  0
    0.4137    3.5711    1.0721 H   0  0  0  0  0  0  0  0  0  0  0  0
   -0.6981    4.4112   -0.0116 H   0  0  0  0  0  0  0  0  0  0  0  0
   -1.3030    2.5767    2.3137 H   0  0  0  0  0  0  0  0  0  0  0  0
   -3.1817    1.5746    1.2106 H   0  0  0  0  0  0  0  0  0  0  0  0
   -3.1542    2.7547   -0.1151 H   0  0  0  0  0  0  0  0  0  0  0  0
   -1.2817    0.3065   -1.9167 H   0  0  0  0  0  0  0  0  0  0  0  0
   -2.7588    1.2247   -1.8395 H   0  0  0  0  0  0  0  0  0  0  0  0
   -1.7503    4.8340    2.2828 H   0  0  0  0  0  0  0  0  0  0  0  0
   -0.9971   -1.8661   -0.8965 H   0  0  0  0  0  0  0  0  0  0  0  0
   -4.6971    0.3172   -0.5162 H   0  0  0  0  0  0  0  0  0  0  0  0
   -2.1383   -3.9168   -0.1277 H   0  0  0  0  0  0  0  0  0  0  0  0
   -5.8220   -1.7388    0.2573 H   0  0  0  0  0  0  0  0  0  0  0  0
    2.1429   -1.3779    1.4258 H   0  0  0  0  0  0  0  0  0  0  0  0
    5.1827    0.1348   -1.2681 H   0  0  0  0  0  0  0  0  0  0  0  0
    3.7069   -3.1078    2.1862 H   0  0  0  0  0  0  0  0  0  0  0  0
    6.7168   -1.6044   -0.4862 H   0  0  0  0  0  0  0  0  0  0  0  0
    5.9965   -3.2337    1.2399 H   0  0  0  0  0  0  0  0  0  0  0  0
  1 20  1  0  0  0  0
  2  9  1  0  0  0  0
  2 34  1  0  0  0  0
  3  6  1  0  0  0  0
  3 12  1  0  0  0  0
  4  7  1  0  0  0  0
  4 10  1  0  0  0  0
  4 11  1  0  0  0  0
  5 12  2  0  0  0  0
  5 16  1  0  0  0  0
  6 16  2  0  0  0  0
  7  8  1  0  0  0  0
  7 12  1  0  0  0  0
  7 26  1  0  0  0  0
  8  9  1  0  0  0  0
  8 27  1  0  0  0  0
  8 28  1  0  0  0  0
  9 10  1  0  0  0  0
  9 29  1  0  0  0  0
 10 30  1  0  0  0  0
 10 31  1  0  0  0  0
 11 13  1  0  0  0  0
 11 32  1  0  0  0  0
 11 33  1  0  0  0  0
 13 14  2  0  0  0  0
 13 15  1  0  0  0  0
 14 17  1  0  0  0  0
 14 35  1  0  0  0  0
 15 18  2  0  0  0  0
 15 36  1  0  0  0  0
 16 19  1  0  0  0  0
 17 20  2  0  0  0  0
 17 37  1  0  0  0  0
 18 20  1  0  0  0  0
 18 38  1  0  0  0  0
 19 21  2  0  0  0  0
 19 22  1  0  0  0  0
 21 23  1  0  0  0  0
 21 39  1  0  0  0  0
 22 24  2  0  0  0  0
 22 40  1  0  0  0  0
 23 25  2  0  0  0  0
 23 41  1  0  0  0  0
 24 25  1  0  0  0  0
 24 42  1  0  0  0  0
 25 43  1  0  0  0  0
M  END
> <PUBCHEM_COMPOUND_CID>
26743556

> <PUBCHEM_CONFORMER_RMSD>
0.8

> <PUBCHEM_CONFORMER_DIVERSEORDER>
1
20
37
26
38
11
17
16
30
7
31
6
24
36
27
5
25
21
39
14
15
3
23
4
29
22
9
8
28
32
13
35
34
18
12
2
19
10
33

> <PUBCHEM_MMFF94_PARTIAL_CHARGES>
34
1 -0.19
10 0.27
11 0.41
12 0.3
13 -0.14
14 -0.15
15 -0.15
16 0.46
17 -0.15
18 -0.15
19 0.05
2 -0.68
20 0.19
21 -0.15
22 -0.15
23 -0.15
24 -0.15
25 -0.15
3 -0.02
34 0.4
35 0.15
36 0.15
37 0.15
38 0.15
39 0.15
4 -0.81
40 0.15
41 0.15
42 0.15
43 0.15
5 -0.57
6 -0.41
7 0.45
9 0.28

> <PUBCHEM_EFFECTIVE_ROTOR_COUNT>
5

> <PUBCHEM_PHARMACOPHORE_FEATURES>
8
1 2 acceptor
1 2 donor
1 4 cation
3 5 6 16 cation
5 3 5 6 12 16 rings
5 4 7 8 9 10 rings
6 13 14 15 17 18 20 rings
6 19 21 22 23 24 25 rings

> <PUBCHEM_HEAVY_ATOM_COUNT>
25

> <PUBCHEM_ATOM_DEF_STEREO_COUNT>
2

> <PUBCHEM_ATOM_UDEF_STEREO_COUNT>
0

> <PUBCHEM_BOND_DEF_STEREO_COUNT>
0

> <PUBCHEM_BOND_UDEF_STEREO_COUNT>
0

> <PUBCHEM_ISOTOPIC_ATOM_COUNT>
0

> <PUBCHEM_COMPONENT_COUNT>
1

> <PUBCHEM_CACTVS_TAUTO_COUNT>
1

> <PUBCHEM_CONFORMER_ID>
0198130400000001

> <PUBCHEM_MMFF94_ENERGY>
53.6645

> <PUBCHEM_FEATURE_SELFOVERLAP>
40.597

> <PUBCHEM_SHAPE_FINGERPRINT>
10074138 170 18058456409176245609
11315621 246 18191311468981679750
114674 6 17329709237380680467
11552529 35 18268985398061800480
12107183 9 18341065103055825979
12553582 1 18058170711876833013
12760667 363 18412537717783676807
12788726 201 18270133390716151556
12824470 246 18407759256891258621
13004483 165 18272367602950119285
13009979 54 18410579474483873340
13583140 156 16629097881657370984
13631057 29 18410012174139862468
13968360 50 17761208809664809101
14178342 30 18198346147990149254
14844126 61 18271797987112405219
14866123 147 18339927018168222867
15042514 8 18340491062769001517
15099037 8 18408041810152641316
15250474 111 18189893120251079754
15352361 1 18335415789993749550
15475509 35 17614291382961021971
15842332 3 18190203246611867348
16728300 4 18188508873960893523
17909252 39 18337955692388129962
19319366 153 17616259516683615980
19784866 135 18342455941560804961
20291156 8 18335696173953483742
20775530 9 18334847363814574998
23559900 14 18336532919561374157
23598288 3 18343021094885411373
23728640 28 18196375827374639745
25222932 49 17837775890854012566
3004659 81 18114455742684119774
345986 75 18057617653634176827
4435113 14 17484532140262829430
463206 1 18192992853324080410
484985 159 18263919943450015471
5486654 36 18338238154948589304
58807428 26 17622736318908378777
6679774 75 17398148995934899795
7970288 3 18408600379145092138
79837 15 17911810067712425889
88748 71 18261111941171742719

> <PUBCHEM_SHAPE_MULTIPOLES>
480.53
11.31
5.16
1.27
9.98
0.96
0.19
-12.23
1.3
-6.03
2.07
0.23
0.74
-2.32

> <PUBCHEM_SHAPE_SELFOVERLAP>
1049.674

> <PUBCHEM_SHAPE_VOLUME>
263.4

> <PUBCHEM_COORDINATE_TYPE>
2
5
10

$$$$
