56775892
  -OEChem-12032416213D

 43 46  0     1  0  0  0  0  0999 V2000
    5.3639    3.8561    0.0222 S   0  0  0  0  0  0  0  0  0  0  0  0
   -7.2942    0.2873    0.6442 F   0  0  0  0  0  0  0  0  0  0  0  0
   -6.7125    1.8844   -0.7118 F   0  0  0  0  0  0  0  0  0  0  0  0
   -6.9833   -0.1307   -1.4668 F   0  0  0  0  0  0  0  0  0  0  0  0
    3.9461   -3.4058   -0.6800 O   0  0  0  0  0  0  0  0  0  0  0  0
    3.4768   -0.5998   -0.3544 N   0  0  1  0  0  0  0  0  0  0  0  0
   -0.0856   -0.9516   -0.2748 N   0  0  0  0  0  0  0  0  0  0  0  0
    1.0488   -0.9133    1.6339 N   0  0  0  0  0  0  0  0  0  0  0  0
    4.4744    1.6918    0.9179 N   0  0  0  0  0  0  0  0  0  0  0  0
    5.2217    2.7309    1.2551 N   0  0  0  0  0  0  0  0  0  0  0  0
    2.3528   -1.5664   -0.4435 C   0  0  1  0  0  0  0  0  0  0  0  0
    4.6623   -1.1309   -1.0508 C   0  0  0  0  0  0  0  0  0  0  0  0
    2.8072   -2.9534    0.0519 C   0  0  0  0  0  0  0  0  0  0  0  0
    1.1199   -1.1416    0.3413 C   0  0  0  0  0  0  0  0  0  0  0  0
    5.0370   -2.5039   -0.5097 C   0  0  0  0  0  0  0  0  0  0  0  0
    3.1291    0.7066   -0.9254 C   0  0  0  0  0  0  0  0  0  0  0  0
   -0.9826   -0.5785    0.6861 C   0  0  0  0  0  0  0  0  0  0  0  0
    3.9995    1.8068   -0.3790 C   0  0  0  0  0  0  0  0  0  0  0  0
   -0.2592   -0.5619    1.8553 C   0  0  0  0  0  0  0  0  0  0  0  0
   -2.3649   -0.2889    0.4097 C   0  0  0  0  0  0  0  0  0  0  0  0
    4.3840    2.9481   -1.0541 C   0  0  0  0  0  0  0  0  0  0  0  0
   -3.3348   -0.5232    1.3845 C   0  0  0  0  0  0  0  0  0  0  0  0
   -2.7350    0.2267   -0.8325 C   0  0  0  0  0  0  0  0  0  0  0  0
   -5.0446    0.2731   -0.1253 C   0  0  0  0  0  0  0  0  0  0  0  0
   -4.6746   -0.2424    1.1170 C   0  0  0  0  0  0  0  0  0  0  0  0
   -4.0748    0.5075   -1.1000 C   0  0  0  0  0  0  0  0  0  0  0  0
   -6.4773    0.5729   -0.4112 C   0  0  0  0  0  0  0  0  0  0  0  0
    2.0788   -1.6683   -1.5042 H   0  0  0  0  0  0  0  0  0  0  0  0
    5.5210   -0.4626   -0.9202 H   0  0  0  0  0  0  0  0  0  0  0  0
    4.4622   -1.2172   -2.1272 H   0  0  0  0  0  0  0  0  0  0  0  0
    2.0089   -3.6892   -0.0990 H   0  0  0  0  0  0  0  0  0  0  0  0
    3.0429   -2.9509    1.1243 H   0  0  0  0  0  0  0  0  0  0  0  0
    5.8897   -2.9044   -1.0674 H   0  0  0  0  0  0  0  0  0  0  0  0
    5.3232   -2.4613    0.5483 H   0  0  0  0  0  0  0  0  0  0  0  0
    2.1077    0.9999   -0.6547 H   0  0  0  0  0  0  0  0  0  0  0  0
    3.1603    0.6926   -2.0227 H   0  0  0  0  0  0  0  0  0  0  0  0
   -0.2726   -1.0772   -1.2611 H   0  0  0  0  0  0  0  0  0  0  0  0
   -0.6037   -0.3127    2.8492 H   0  0  0  0  0  0  0  0  0  0  0  0
    4.1523    3.2704   -2.0591 H   0  0  0  0  0  0  0  0  0  0  0  0
   -3.0736   -0.9297    2.3585 H   0  0  0  0  0  0  0  0  0  0  0  0
   -2.0020    0.4312   -1.6089 H   0  0  0  0  0  0  0  0  0  0  0  0
   -5.4148   -0.4333    1.8892 H   0  0  0  0  0  0  0  0  0  0  0  0
   -4.3536    0.9111   -2.0698 H   0  0  0  0  0  0  0  0  0  0  0  0
  1 10  1  0  0  0  0
  1 21  1  0  0  0  0
  2 27  1  0  0  0  0
  3 27  1  0  0  0  0
  4 27  1  0  0  0  0
  5 13  1  0  0  0  0
  5 15  1  0  0  0  0
  6 11  1  0  0  0  0
  6 12  1  0  0  0  0
  6 16  1  0  0  0  0
  7 14  1  0  0  0  0
  7 17  1  0  0  0  0
  7 37  1  0  0  0  0
  8 14  2  0  0  0  0
  8 19  1  0  0  0  0
  9 10  2  0  0  0  0
  9 18  1  0  0  0  0
 11 13  1  0  0  0  0
 11 14  1  0  0  0  0
 11 28  1  0  0  0  0
 12 15  1  0  0  0  0
 12 29  1  0  0  0  0
 12 30  1  0  0  0  0
 13 31  1  0  0  0  0
 13 32  1  0  0  0  0
 15 33  1  0  0  0  0
 15 34  1  0  0  0  0
 16 18  1  0  0  0  0
 16 35  1  0  0  0  0
 16 36  1  0  0  0  0
 17 19  2  0  0  0  0
 17 20  1  0  0  0  0
 18 21  2  0  0  0  0
 19 38  1  0  0  0  0
 20 22  2  0  0  0  0
 20 23  1  0  0  0  0
 21 39  1  0  0  0  0
 22 25  1  0  0  0  0
 22 40  1  0  0  0  0
 23 26  2  0  0  0  0
 23 41  1  0  0  0  0
 24 25  2  0  0  0  0
 24 26  1  0  0  0  0
 24 27  1  0  0  0  0
 25 42  1  0  0  0  0
 26 43  1  0  0  0  0
M  END
> <PUBCHEM_COMPOUND_CID>
56775892

> <PUBCHEM_CONFORMER_RMSD>
0.8

> <PUBCHEM_CONFORMER_DIVERSEORDER>
1
84
70
47
23
63
37
60
92
59
4
90
87
45
6
7
14
75
38
35
32
100
94
24
83
105
86
69
28
50
21
31
17
82
58
39
73
48
51
29
33
3
68
79
2
103
85
54
66
5
42
30
16
36
101
55
18
99
20
93
62
41
71
13
98
46
52
89
27
40
53
107
104
95
88
25
43
97
49
19
80
76
67
12
106
61
77
22
72
91
102
9
64
34
78
15
74
81
57
11
8
10
96
26
44
65
56

> <PUBCHEM_MMFF94_PARTIAL_CHARGES>
34
1 0.18
10 -0.22
11 0.45
12 0.27
13 0.28
14 0.01
15 0.28
16 0.45
17 -0.2
18 0.05
19 0.08
2 -0.34
20 0.05
21 -0.11
22 -0.15
23 -0.15
24 -0.14
25 -0.15
26 -0.15
27 1.16
3 -0.34
37 0.27
38 0.15
39 0.15
4 -0.34
40 0.15
41 0.15
42 0.15
43 0.15
5 -0.56
6 -0.81
7 0.03
8 -0.57
9 -0.23

> <PUBCHEM_EFFECTIVE_ROTOR_COUNT>
6.2

> <PUBCHEM_PHARMACOPHORE_FEATURES>
8
1 5 acceptor
1 6 cation
1 7 donor
3 7 8 14 cation
5 1 9 10 18 21 rings
5 7 8 14 17 19 rings
6 20 22 23 24 25 26 rings
6 5 6 11 12 13 15 rings

> <PUBCHEM_HEAVY_ATOM_COUNT>
27

> <PUBCHEM_ATOM_DEF_STEREO_COUNT>
1

> <PUBCHEM_ATOM_UDEF_STEREO_COUNT>
0

> <PUBCHEM_BOND_DEF_STEREO_COUNT>
0

> <PUBCHEM_BOND_UDEF_STEREO_COUNT>
0

> <PUBCHEM_ISOTOPIC_ATOM_COUNT>
0

> <PUBCHEM_COMPONENT_COUNT>
1

> <PUBCHEM_CACTVS_TAUTO_COUNT>
2

> <PUBCHEM_CONFORMER_ID>
036254D400000001

> <PUBCHEM_MMFF94_ENERGY>
44.2925

> <PUBCHEM_FEATURE_SELFOVERLAP>
40.598

> <PUBCHEM_SHAPE_FINGERPRINT>
10411042 1 18050852109971698998
10638233 991 18273221876509325673
10670039 82 15864920798382513926
11059845 2 13842754014207233748
11135609 127 18342729715592939157
11211813 74 18334570214951593757
12166972 35 17987800688173902266
12236239 1 17560802074392715435
12403259 415 18041012759773969402
12769317 202 18271527623696423344
13533116 47 18412830161747983348
13540713 4 18117016540179291410
13617811 41 15482673464147195025
13673619 4 10951785087630261328
13726171 33 16915668192118399927
13878862 14 18336817646076092244
13955234 65 18262515897050559634
14170010 4 18413107239474806554
14461889 52 18114748256243811355
14739800 52 17676753315204761305
15684393 108 18199165452511818407
15840311 113 18335425609201864885
16120349 189 18122625230829070276
17844677 252 18339648824119349293
1813 80 14620795985478027507
1979834 28 18187650245036492684
20157964 124 18412265051647440948
20554085 129 16732699445687440786
20612939 158 18272655636146504466
20715895 44 18336545018880048272
21033648 29 17676497171606980330
21033650 10 15338303193442036730
21304303 282 17555999631784863270
2132832 1 18058173826213406352
21403212 168 18271517685779994720
21792934 111 16009296614734262109
21968339 14 18272085020046153784
221357 26 18189056408300879166
23081809 10 17632579332231819347
23516275 100 18041272283311319557
23522609 53 17488483952550641985
23559900 14 17603879870316452582
23569914 2 17537671700083324037
249057 25 17775292612305443523
249057 3 18341898463818459094
3004659 81 17561084657518513574
34797466 226 18410295805116406431
397830 11 18115038518865891435
4093350 32 18412263917533384247
44317340 157 18411425011863282435
44555599 121 18129672876961414473
46194498 28 18339924809832632510
495365 180 18409735088693756586
5109719 28 17822867488682362009
5470011 282 18341037593969786551
57091435 61 18259702311087474136
6327066 14 18122344842584606324
7471813 234 17916590830728108122
9658208 31 17313117366220310594

> <PUBCHEM_SHAPE_MULTIPOLES>
506.9
17.79
3.5
1.37
24.56
1.02
-0.33
9.93
3.55
-10.03
0.38
0.42
0.06
1.77

> <PUBCHEM_SHAPE_SELFOVERLAP>
1088.253

> <PUBCHEM_SHAPE_VOLUME>
285

> <PUBCHEM_COORDINATE_TYPE>
2
5
10

$$$$
