51137893
  -OEChem-12032416243D

 46 49  0     1  0  0  0  0  0999 V2000
   -1.6198   -0.0727    0.0261 N   0  0  1  0  0  0  0  0  0  0  0  0
    2.9313   -1.1039    0.2913 N   0  0  0  0  0  0  0  0  0  0  0  0
    2.5580    1.0870    0.2637 N   0  0  0  0  0  0  0  0  0  0  0  0
    0.5745   -0.3682    0.7989 C   0  0  1  0  0  0  0  0  0  0  0  0
   -0.1129    0.7416    1.6132 C   0  0  0  0  0  0  0  0  0  0  0  0
   -0.3156   -0.5506   -0.4378 C   0  0  0  0  0  0  0  0  0  0  0  0
   -1.3274    1.1427    0.7860 C   0  0  0  0  0  0  0  0  0  0  0  0
    2.0197   -0.0974    0.4500 C   0  0  0  0  0  0  0  0  0  0  0  0
   -2.5450    0.1689   -1.0712 C   0  0  0  0  0  0  0  0  0  0  0  0
   -3.9729    0.2293   -0.5976 C   0  0  0  0  0  0  0  0  0  0  0  0
    4.1380   -0.5309   -0.0180 C   0  0  0  0  0  0  0  0  0  0  0  0
    3.8789    0.8369   -0.0292 C   0  0  0  0  0  0  0  0  0  0  0  0
    2.6735   -2.5200    0.4250 C   0  0  0  0  0  0  0  0  0  0  0  0
   -4.6708   -0.9335   -0.2720 C   0  0  0  0  0  0  0  0  0  0  0  0
    5.3956   -1.0750   -0.2809 C   0  0  0  0  0  0  0  0  0  0  0  0
   -4.5973    1.4716   -0.4865 C   0  0  0  0  0  0  0  0  0  0  0  0
    4.9249    1.7297   -0.3178 C   0  0  0  0  0  0  0  0  0  0  0  0
   -5.9931   -0.8542    0.1648 C   0  0  0  0  0  0  0  0  0  0  0  0
    6.4251   -0.1719   -0.5664 C   0  0  0  0  0  0  0  0  0  0  0  0
    6.1961    1.2059   -0.5850 C   0  0  0  0  0  0  0  0  0  0  0  0
   -4.0236   -2.2749   -0.3830 C   0  0  0  0  0  0  0  0  0  0  0  0
   -5.9197    1.5512   -0.0497 C   0  0  0  0  0  0  0  0  0  0  0  0
   -6.6175    0.3883    0.2760 C   0  0  0  0  0  0  0  0  0  0  0  0
    0.5208   -1.2788    1.4114 H   0  0  0  0  0  0  0  0  0  0  0  0
   -0.4381    0.3333    2.5787 H   0  0  0  0  0  0  0  0  0  0  0  0
    0.5272    1.6044    1.8231 H   0  0  0  0  0  0  0  0  0  0  0  0
   -0.3581   -1.5995   -0.7500 H   0  0  0  0  0  0  0  0  0  0  0  0
    0.0545    0.0462   -1.2825 H   0  0  0  0  0  0  0  0  0  0  0  0
   -1.0643    1.9835    0.1314 H   0  0  0  0  0  0  0  0  0  0  0  0
   -2.1578    1.4466    1.4309 H   0  0  0  0  0  0  0  0  0  0  0  0
   -2.2831    1.0809   -1.6260 H   0  0  0  0  0  0  0  0  0  0  0  0
   -2.4695   -0.6303   -1.8201 H   0  0  0  0  0  0  0  0  0  0  0  0
    3.5213   -3.0978    0.0527 H   0  0  0  0  0  0  0  0  0  0  0  0
    1.7888   -2.7756   -0.1630 H   0  0  0  0  0  0  0  0  0  0  0  0
    2.5124   -2.7397    1.4833 H   0  0  0  0  0  0  0  0  0  0  0  0
    5.5828   -2.1424   -0.2665 H   0  0  0  0  0  0  0  0  0  0  0  0
   -4.0661    2.3867   -0.7347 H   0  0  0  0  0  0  0  0  0  0  0  0
    4.7572    2.8019   -0.3346 H   0  0  0  0  0  0  0  0  0  0  0  0
   -6.5517   -1.7500    0.4228 H   0  0  0  0  0  0  0  0  0  0  0  0
    7.4223   -0.5504   -0.7771 H   0  0  0  0  0  0  0  0  0  0  0  0
    7.0162    1.8828   -0.8100 H   0  0  0  0  0  0  0  0  0  0  0  0
   -4.7155   -3.0772   -0.1022 H   0  0  0  0  0  0  0  0  0  0  0  0
   -3.1624   -2.3538    0.2871 H   0  0  0  0  0  0  0  0  0  0  0  0
   -3.7119   -2.4760   -1.4127 H   0  0  0  0  0  0  0  0  0  0  0  0
   -6.4057    2.5185    0.0373 H   0  0  0  0  0  0  0  0  0  0  0  0
   -7.6471    0.4503    0.6163 H   0  0  0  0  0  0  0  0  0  0  0  0
  1  6  1  0  0  0  0
  1  7  1  0  0  0  0
  1  9  1  0  0  0  0
  2  8  1  0  0  0  0
  2 11  1  0  0  0  0
  2 13  1  0  0  0  0
  3  8  2  0  0  0  0
  3 12  1  0  0  0  0
  4  5  1  0  0  0  0
  4  6  1  0  0  0  0
  4  8  1  0  0  0  0
  4 24  1  0  0  0  0
  5  7  1  0  0  0  0
  5 25  1  0  0  0  0
  5 26  1  0  0  0  0
  6 27  1  0  0  0  0
  6 28  1  0  0  0  0
  7 29  1  0  0  0  0
  7 30  1  0  0  0  0
  9 10  1  0  0  0  0
  9 31  1  0  0  0  0
  9 32  1  0  0  0  0
 10 14  1  0  0  0  0
 10 16  2  0  0  0  0
 11 12  1  0  0  0  0
 11 15  2  0  0  0  0
 12 17  2  0  0  0  0
 13 33  1  0  0  0  0
 13 34  1  0  0  0  0
 13 35  1  0  0  0  0
 14 18  2  0  0  0  0
 14 21  1  0  0  0  0
 15 19  1  0  0  0  0
 15 36  1  0  0  0  0
 16 22  1  0  0  0  0
 16 37  1  0  0  0  0
 17 20  1  0  0  0  0
 17 38  1  0  0  0  0
 18 23  1  0  0  0  0
 18 39  1  0  0  0  0
 19 20  2  0  0  0  0
 19 40  1  0  0  0  0
 20 41  1  0  0  0  0
 21 42  1  0  0  0  0
 21 43  1  0  0  0  0
 21 44  1  0  0  0  0
 22 23  2  0  0  0  0
 22 45  1  0  0  0  0
 23 46  1  0  0  0  0
M  END
> <PUBCHEM_COMPOUND_CID>
51137893

> <PUBCHEM_CONFORMER_RMSD>
0.6

> <PUBCHEM_CONFORMER_DIVERSEORDER>
1
82
78
118
44
112
108
119
83
111
57
123
95
103
56
48
85
89
104
69
98
65
107
99
105
88
96
37
76
30
86
63
46
71
81
62
38
60
126
23
27
40
5
122
114
32
120
12
66
100
26
50
18
8
54
97
91
3
79
52
124
31
33
80
121
41
109
59
51
75
19
72
36
58
84
87
55
17
10
68
21
113
110
47
39
24
67
125
74
61
117
92
45
101
7
73
25
11
102
16
14
70
29
35
13
94
43
34
53
15
2
28
64
49
106
4
9
22
20
42
116
90
115
6
93
77

> <PUBCHEM_MMFF94_PARTIAL_CHARGES>
30
1 -0.81
10 -0.14
11 -0.15
12 0.23
13 0.26
14 -0.14
15 -0.15
16 -0.15
17 -0.15
18 -0.15
19 -0.15
2 0.05
20 -0.15
21 0.14
22 -0.15
23 -0.15
3 -0.57
36 0.15
37 0.15
38 0.15
39 0.15
4 0.18
40 0.15
41 0.15
45 0.15
46 0.15
6 0.27
7 0.27
8 0.01
9 0.41

> <PUBCHEM_EFFECTIVE_ROTOR_COUNT>
4

> <PUBCHEM_PHARMACOPHORE_FEATURES>
6
1 1 cation
3 2 3 8 cation
5 1 4 5 6 7 rings
5 2 3 8 11 12 rings
6 10 14 16 18 22 23 rings
6 11 12 15 17 19 20 rings

> <PUBCHEM_HEAVY_ATOM_COUNT>
23

> <PUBCHEM_ATOM_DEF_STEREO_COUNT>
1

> <PUBCHEM_ATOM_UDEF_STEREO_COUNT>
0

> <PUBCHEM_BOND_DEF_STEREO_COUNT>
0

> <PUBCHEM_BOND_UDEF_STEREO_COUNT>
0

> <PUBCHEM_ISOTOPIC_ATOM_COUNT>
0

> <PUBCHEM_COMPONENT_COUNT>
1

> <PUBCHEM_CACTVS_TAUTO_COUNT>
1

> <PUBCHEM_CONFORMER_ID>
030C4D6500000001

> <PUBCHEM_MMFF94_ENERGY>
53.5281

> <PUBCHEM_FEATURE_SELFOVERLAP>
30.556

> <PUBCHEM_SHAPE_FINGERPRINT>
10 15 11025804232293095318
10066227 112 18409444748825744213
10299344 5 18342740728358318087
10595046 47 18408602548208149233
11089746 13 11527946751201153879
11287383 113 18260547835497046234
11315181 36 16917068876160012833
11524674 6 16559032714353245447
11545043 162 13901897964562720895
11646440 116 15791737390442285348
11719270 70 18342452613515733346
12107183 9 17618220607514749913
12166972 35 18186523215632508676
12236239 1 18342176661159453492
12516196 113 15051729798376746561
12730499 353 18041001722093160138
12788726 201 17632298908968202267
12916748 109 15285357293300922068
13533116 47 16443616905760410064
13690498 29 18129091394324162199
14251752 14 18273495654318968697
14251764 18 18060138748282215171
14341114 176 18410014325691773789
14528608 73 18335421287820433004
14856354 85 18060144267183257117
14933364 13 18409168809502435989
15183329 4 18412824659963520121
15537594 2 17561078103250623095
15788980 27 17561078116330346157
16993438 75 18043258039823084163
17844677 252 18410579483089865925
18222031 100 15410891864364686840
18335252 98 18187372038825013835
19489759 90 10592046864886023495
200 152 18272651246895558770
21267235 1 18201726132970946862
21315764 268 9655569695684779923
221357 26 18410292493644335092
22950370 63 18272367581675450619
23035841 295 18413107260321759203
23198884 109 18186522098882404545
23516275 137 18128560205227444955
23522609 53 17916047774636668449
23536379 177 18409166601720304209
23559900 14 18271517684551094361
23569914 2 17541604665834251805
23569943 247 16807278108572521306
23622692 88 10953460726223675474
29717793 49 17846785083695823124
3004659 81 18413107243384574066
34797466 226 18343590650287394300
3545911 37 18335421265881392293
4073 2 17968383437006909754
4098825 35 18187926114901059116
4325135 7 18260267464653971973
4340502 62 17458062655795092154
4463277 17 18273495680194274089
5265222 85 18270684289165712575
5283156 175 17846219917565670006
53794403 172 17387424647417727084
542803 24 18260544524056200949
59755656 215 16486982760792799636
59755656 520 16950280723687475786
6328613 192 18341614789881529889
999808 66 18187375376357754307

> <PUBCHEM_SHAPE_MULTIPOLES>
458.39
18.03
1.89
0.94
2.02
0.65
0.15
-2.42
-3.27
-0.02
-0.01
0.07
-0.11
-0.42

> <PUBCHEM_SHAPE_SELFOVERLAP>
1001.219

> <PUBCHEM_SHAPE_VOLUME>
251.1

> <PUBCHEM_COORDINATE_TYPE>
2
5
10

$$$$
