38031212
  -OEChem-12032416283D

 65 67  0     1  0  0  0  0  0999 V2000
    2.7704   -0.9231   -0.1605 O   0  0  0  0  0  0  0  0  0  0  0  0
   -2.9615    0.8713    0.3127 N   0  0  0  0  0  0  0  0  0  0  0  0
    3.4249   -0.3016   -2.2075 N   0  0  0  0  0  0  0  0  0  0  0  0
    4.5008   -0.8995   -1.5783 N   0  0  0  0  0  0  0  0  0  0  0  0
   -4.5952   -3.3809    0.9269 N   0  0  0  0  0  0  0  0  0  0  0  0
   -0.2109    1.9233    0.9130 C   0  0  1  0  0  0  0  0  0  0  0  0
   -1.3609    2.7338    0.2644 C   0  0  1  0  0  0  0  0  0  0  0  0
    1.0947    2.1231    0.1283 C   0  0  0  0  0  0  0  0  0  0  0  0
    0.9619    1.6896   -1.3438 C   0  0  2  0  0  0  0  0  0  0  0  0
    0.0011    2.3107    2.3798 C   0  0  0  0  0  0  0  0  0  0  0  0
   -0.3002    2.2358   -1.9799 C   0  0  0  0  0  0  0  0  0  0  0  0
   -1.3221    2.7105   -1.2456 C   0  0  0  0  0  0  0  0  0  0  0  0
   -2.7284    2.2375    0.7479 C   0  0  0  0  0  0  0  0  0  0  0  0
    1.0284    0.1642   -1.4786 C   0  0  0  0  0  0  0  0  0  0  0  0
    0.6591    1.1655    3.1429 C   0  0  0  0  0  0  0  0  0  0  0  0
    0.8412    3.5799    2.4788 C   0  0  0  0  0  0  0  0  0  0  0  0
   -0.3426    2.2662   -3.4825 C   0  0  0  0  0  0  0  0  0  0  0  0
    2.4376   -0.3376   -1.3433 C   0  0  0  0  0  0  0  0  0  0  0  0
   -4.2559    0.3863    0.7767 C   0  0  0  0  0  0  0  0  0  0  0  0
    4.0731   -1.2461   -0.3866 C   0  0  0  0  0  0  0  0  0  0  0  0
    4.7884   -1.9201    0.7042 C   0  0  0  0  0  0  0  0  0  0  0  0
   -4.5083   -1.0349    0.3489 C   0  0  0  0  0  0  0  0  0  0  0  0
    6.3223   -1.5911    0.6941 C   0  0  0  0  0  0  0  0  0  0  0  0
    4.6618   -3.4812    0.6156 C   0  0  0  0  0  0  0  0  0  0  0  0
    4.3180   -1.5676    2.1653 C   0  0  0  0  0  0  0  0  0  0  0  0
   -4.8708   -1.3362   -0.9593 C   0  0  0  0  0  0  0  0  0  0  0  0
   -4.3849   -2.0840    1.2457 C   0  0  0  0  0  0  0  0  0  0  0  0
   -5.0958   -2.6586   -1.3254 C   0  0  0  0  0  0  0  0  0  0  0  0
   -4.9460   -3.6350   -0.3538 C   0  0  0  0  0  0  0  0  0  0  0  0
   -0.4668    0.8577    0.8781 H   0  0  0  0  0  0  0  0  0  0  0  0
   -1.2752    3.7888    0.5543 H   0  0  0  0  0  0  0  0  0  0  0  0
    1.9316    1.5984    0.6009 H   0  0  0  0  0  0  0  0  0  0  0  0
    1.3688    3.1858    0.0990 H   0  0  0  0  0  0  0  0  0  0  0  0
    1.8150    2.1320   -1.8785 H   0  0  0  0  0  0  0  0  0  0  0  0
   -0.9591    2.5030    2.8688 H   0  0  0  0  0  0  0  0  0  0  0  0
   -2.1840    3.1349   -1.7572 H   0  0  0  0  0  0  0  0  0  0  0  0
   -3.5117    2.8941    0.3452 H   0  0  0  0  0  0  0  0  0  0  0  0
   -2.7987    2.3066    1.8382 H   0  0  0  0  0  0  0  0  0  0  0  0
    0.6808   -0.1593   -2.4668 H   0  0  0  0  0  0  0  0  0  0  0  0
    0.3821   -0.3423   -0.7536 H   0  0  0  0  0  0  0  0  0  0  0  0
    1.6500    0.9179    2.7494 H   0  0  0  0  0  0  0  0  0  0  0  0
    0.0422    0.2613    3.1006 H   0  0  0  0  0  0  0  0  0  0  0  0
    0.7816    1.4300    4.1990 H   0  0  0  0  0  0  0  0  0  0  0  0
    1.8971    3.4169    2.2383 H   0  0  0  0  0  0  0  0  0  0  0  0
    0.8248    3.9421    3.5143 H   0  0  0  0  0  0  0  0  0  0  0  0
    0.4514    4.3944    1.8611 H   0  0  0  0  0  0  0  0  0  0  0  0
    0.5230    2.8089   -3.8760 H   0  0  0  0  0  0  0  0  0  0  0  0
   -1.2410    2.7680   -3.8579 H   0  0  0  0  0  0  0  0  0  0  0  0
   -0.3369    1.2541   -3.8967 H   0  0  0  0  0  0  0  0  0  0  0  0
   -2.9286    0.8178   -0.7047 H   0  0  0  0  0  0  0  0  0  0  0  0
   -5.0677    1.0155    0.3887 H   0  0  0  0  0  0  0  0  0  0  0  0
   -4.3109    0.4470    1.8712 H   0  0  0  0  0  0  0  0  0  0  0  0
    6.8525   -2.1063    1.5028 H   0  0  0  0  0  0  0  0  0  0  0  0
    6.7799   -1.8973   -0.2539 H   0  0  0  0  0  0  0  0  0  0  0  0
    6.4877   -0.5135    0.8090 H   0  0  0  0  0  0  0  0  0  0  0  0
    5.2201   -3.9796    1.4158 H   0  0  0  0  0  0  0  0  0  0  0  0
    3.6121   -3.7892    0.6865 H   0  0  0  0  0  0  0  0  0  0  0  0
    5.0477   -3.8450   -0.3438 H   0  0  0  0  0  0  0  0  0  0  0  0
    4.9151   -2.0873    2.9228 H   0  0  0  0  0  0  0  0  0  0  0  0
    4.4012   -0.4892    2.3430 H   0  0  0  0  0  0  0  0  0  0  0  0
    3.2678   -1.8444    2.3129 H   0  0  0  0  0  0  0  0  0  0  0  0
   -4.9812   -0.5495   -1.7005 H   0  0  0  0  0  0  0  0  0  0  0  0
   -4.1027   -1.9143    2.2802 H   0  0  0  0  0  0  0  0  0  0  0  0
   -5.3792   -2.9169   -2.3391 H   0  0  0  0  0  0  0  0  0  0  0  0
   -5.1099   -4.6816   -0.5884 H   0  0  0  0  0  0  0  0  0  0  0  0
  1 18  1  0  0  0  0
  1 20  1  0  0  0  0
  2 13  1  0  0  0  0
  2 19  1  0  0  0  0
  2 50  1  0  0  0  0
  3  4  1  0  0  0  0
  3 18  2  0  0  0  0
  4 20  2  0  0  0  0
  5 27  1  0  0  0  0
  5 29  2  0  0  0  0
  6  7  1  0  0  0  0
  6  8  1  0  0  0  0
  6 10  1  0  0  0  0
  6 30  1  0  0  0  0
  7 12  1  0  0  0  0
  7 13  1  0  0  0  0
  7 31  1  0  0  0  0
  8  9  1  0  0  0  0
  8 32  1  0  0  0  0
  8 33  1  0  0  0  0
  9 11  1  0  0  0  0
  9 14  1  0  0  0  0
  9 34  1  0  0  0  0
 10 15  1  0  0  0  0
 10 16  1  0  0  0  0
 10 35  1  0  0  0  0
 11 12  2  0  0  0  0
 11 17  1  0  0  0  0
 12 36  1  0  0  0  0
 13 37  1  0  0  0  0
 13 38  1  0  0  0  0
 14 18  1  0  0  0  0
 14 39  1  0  0  0  0
 14 40  1  0  0  0  0
 15 41  1  0  0  0  0
 15 42  1  0  0  0  0
 15 43  1  0  0  0  0
 16 44  1  0  0  0  0
 16 45  1  0  0  0  0
 16 46  1  0  0  0  0
 17 47  1  0  0  0  0
 17 48  1  0  0  0  0
 17 49  1  0  0  0  0
 19 22  1  0  0  0  0
 19 51  1  0  0  0  0
 19 52  1  0  0  0  0
 20 21  1  0  0  0  0
 21 23  1  0  0  0  0
 21 24  1  0  0  0  0
 21 25  1  0  0  0  0
 22 26  1  0  0  0  0
 22 27  2  0  0  0  0
 23 53  1  0  0  0  0
 23 54  1  0  0  0  0
 23 55  1  0  0  0  0
 24 56  1  0  0  0  0
 24 57  1  0  0  0  0
 24 58  1  0  0  0  0
 25 59  1  0  0  0  0
 25 60  1  0  0  0  0
 25 61  1  0  0  0  0
 26 28  2  0  0  0  0
 26 62  1  0  0  0  0
 27 63  1  0  0  0  0
 28 29  1  0  0  0  0
 28 64  1  0  0  0  0
 29 65  1  0  0  0  0
M  END
> <PUBCHEM_COMPOUND_CID>
38031212

> <PUBCHEM_CONFORMER_RMSD>
1

> <PUBCHEM_CONFORMER_DIVERSEORDER>
1
122
66
152
153
40
33
134
81
132
50
4
149
118
129
147
24
92
124
158
73
57
110
7
126
144
95
100
83
161
138
120
65
148
38
166
91
154
48
143
45
82
52
39
77
28
18
94
59
133
42
49
162
79
46
155
51
90
167
142
163
14
41
63
160
5
109
125
128
93
150
19
56
165
113
130
114
84
54
43
139
37
104
123
26
11
146
30
34
115
99
76
141
20
127
16
21
15
23
136
69
3
80
121
101
108
36
156
97
85
164
96
145
8
35
102
71
61
62
60
78
103
117
68
31
137
58
55
87
17
47
89
25
44
27
135
88
116
140
64
86
67
6
157
106
112
119
53
74
9
105
72
10
151
22
2
70
107
75
13
111
29
98
32
131
12
159

> <PUBCHEM_MMFF94_PARTIAL_CHARGES>
27
1 -0.28
11 -0.28
12 -0.29
13 0.27
14 0.18
17 0.14
18 0.3
19 0.41
2 -0.9
20 0.3
21 0.18
22 -0.14
26 -0.15
27 0.16
28 -0.15
29 0.16
3 -0.34
36 0.15
4 -0.34
5 -0.62
50 0.36
62 0.15
63 0.15
64 0.15
65 0.15
7 0.14
9 0.14

> <PUBCHEM_EFFECTIVE_ROTOR_COUNT>
8.8

> <PUBCHEM_PHARMACOPHORE_FEATURES>
8
1 2 cation
1 2 donor
1 5 acceptor
3 10 15 16 hydrophobe
4 21 23 24 25 hydrophobe
5 1 3 4 18 20 rings
6 5 22 26 27 28 29 rings
6 6 7 8 9 11 12 rings

> <PUBCHEM_HEAVY_ATOM_COUNT>
29

> <PUBCHEM_ATOM_DEF_STEREO_COUNT>
3

> <PUBCHEM_ATOM_UDEF_STEREO_COUNT>
0

> <PUBCHEM_BOND_DEF_STEREO_COUNT>
0

> <PUBCHEM_BOND_UDEF_STEREO_COUNT>
0

> <PUBCHEM_ISOTOPIC_ATOM_COUNT>
0

> <PUBCHEM_COMPONENT_COUNT>
1

> <PUBCHEM_CACTVS_TAUTO_COUNT>
1

> <PUBCHEM_CONFORMER_ID>
02444F6C00000001

> <PUBCHEM_MMFF94_ENERGY>
59.7795

> <PUBCHEM_FEATURE_SELFOVERLAP>
40.596

> <PUBCHEM_SHAPE_FINGERPRINT>
10074138 170 17414734067761563209
10622 236 18114185220106310687
11285246 1 17968107407922396659
11720765 8 18041562576150176501
12104220 4 11455619841018028194
12633257 1 16558200427037296189
13383661 66 16232557110377198555
14480069 147 17677070026298909979
14848178 5 18334852822791620895
15163728 17 8070028891288229337
19315092 285 18409456907767356788
19611394 137 17988357075670120210
20775530 9 18266192784593268503
21049683 118 15760493375890765544
21458453 9 17346586517465666858
21987440 362 11749153230522377438
23559900 14 18117272765412143879
2838139 119 8214138547382527578
4015057 19 16444215091562574972
46194498 28 14708926356708044319
66674814 147 17530970180753236410

> <PUBCHEM_SHAPE_MULTIPOLES>
571.01
12.34
4.97
2.91
1.65
1
0.21
19.01
-1.2
-3.02
-1.09
1.19
-2.39
-0.54

> <PUBCHEM_SHAPE_SELFOVERLAP>
1181.203

> <PUBCHEM_SHAPE_VOLUME>
327.4

> <PUBCHEM_COORDINATE_TYPE>
2
5
10

$$$$
