45361626
  -OEChem-12032416353D

 70 73  0     1  0  0  0  0  0999 V2000
    4.6242    1.8312   -2.5707 Cl  0  0  0  0  0  0  0  0  0  0  0  0
    0.2769   -2.3062   -1.4621 O   0  0  0  0  0  0  0  0  0  0  0  0
    5.1335   -2.4060    0.7682 O   0  0  0  0  0  0  0  0  0  0  0  0
   -5.0027    2.0634   -1.0520 O   0  0  0  0  0  0  0  0  0  0  0  0
   -4.2949    0.1622    0.0703 N   0  0  0  0  0  0  0  0  0  0  0  0
    4.6534   -1.2342   -1.1751 N   0  0  0  0  0  0  0  0  0  0  0  0
   -8.9948    1.1372   -0.1221 N   0  0  0  0  0  0  0  0  0  0  0  0
   -8.2898   -1.1644   -0.0110 N   0  0  0  0  0  0  0  0  0  0  0  0
   -0.1646    0.3175    1.2759 C   0  0  1  0  0  0  0  0  0  0  0  0
   -0.4973   -0.5038   -0.0140 C   0  0  2  0  0  0  0  0  0  0  0  0
   -2.0285   -0.8488   -0.0775 C   0  0  1  0  0  0  0  0  0  0  0  0
    0.4677   -1.7133   -0.1767 C   0  0  2  0  0  0  0  0  0  0  0  0
    1.3243    0.7368    1.2509 C   0  0  0  0  0  0  0  0  0  0  0  0
   -1.0166    1.6077    1.2860 C   0  0  0  0  0  0  0  0  0  0  0  0
    1.9562   -1.3014   -0.0966 C   0  0  1  0  0  0  0  0  0  0  0  0
   -2.8774    0.4507    0.0091 C   0  0  2  0  0  0  0  0  0  0  0  0
    2.2735   -0.4481    1.1313 C   0  0  0  0  0  0  0  0  0  0  0  0
   -2.5119    1.3370    1.1995 C   0  0  0  0  0  0  0  0  0  0  0  0
   -0.4346   -0.4823    2.5756 C   0  0  0  0  0  0  0  0  0  0  0  0
    2.8864   -2.5203   -0.1277 C   0  0  2  0  0  0  0  0  0  0  0  0
   -2.4314   -1.6329   -1.3379 C   0  0  0  0  0  0  0  0  0  0  0  0
    2.5780   -3.4460    1.0439 C   0  0  0  0  0  0  0  0  0  0  0  0
    4.3420   -2.0642   -0.1080 C   0  0  0  0  0  0  0  0  0  0  0  0
   -5.2466    1.0074   -0.4741 C   0  0  0  0  0  0  0  0  0  0  0  0
   -6.6600    0.5824   -0.3047 C   0  0  0  0  0  0  0  0  0  0  0  0
    5.9703   -0.6735   -1.3704 C   0  0  0  0  0  0  0  0  0  0  0  0
   -7.7008    1.4876   -0.2744 C   0  0  0  0  0  0  0  0  0  0  0  0
   -7.0174   -0.7434   -0.1668 C   0  0  0  0  0  0  0  0  0  0  0  0
    6.1380    0.6319   -0.6478 C   0  0  0  0  0  0  0  0  0  0  0  0
    5.5630    1.8106   -1.1223 C   0  0  0  0  0  0  0  0  0  0  0  0
    6.8914    0.6467    0.5261 C   0  0  0  0  0  0  0  0  0  0  0  0
   -9.2145   -0.1856    0.0021 C   0  0  0  0  0  0  0  0  0  0  0  0
    5.7410    3.0043   -0.4231 C   0  0  0  0  0  0  0  0  0  0  0  0
    7.0697    1.8405    1.2253 C   0  0  0  0  0  0  0  0  0  0  0  0
    6.4945    3.0193    0.7507 C   0  0  0  0  0  0  0  0  0  0  0  0
   -0.3099    0.1523   -0.8793 H   0  0  0  0  0  0  0  0  0  0  0  0
   -2.2829   -1.4907    0.7755 H   0  0  0  0  0  0  0  0  0  0  0  0
    0.1944   -2.4605    0.5701 H   0  0  0  0  0  0  0  0  0  0  0  0
    1.5038    1.4137    0.4046 H   0  0  0  0  0  0  0  0  0  0  0  0
    1.5740    1.3065    2.1553 H   0  0  0  0  0  0  0  0  0  0  0  0
   -0.8107    2.1922    2.1917 H   0  0  0  0  0  0  0  0  0  0  0  0
   -0.7307    2.2450    0.4384 H   0  0  0  0  0  0  0  0  0  0  0  0
    2.1528   -0.6808   -0.9811 H   0  0  0  0  0  0  0  0  0  0  0  0
   -2.6960    1.0320   -0.9056 H   0  0  0  0  0  0  0  0  0  0  0  0
    2.2293   -1.0160    2.0630 H   0  0  0  0  0  0  0  0  0  0  0  0
    3.2910   -0.0445    1.0733 H   0  0  0  0  0  0  0  0  0  0  0  0
   -3.0403    2.2963    1.1246 H   0  0  0  0  0  0  0  0  0  0  0  0
   -2.8672    0.8828    2.1325 H   0  0  0  0  0  0  0  0  0  0  0  0
   -1.4879   -0.7460    2.7005 H   0  0  0  0  0  0  0  0  0  0  0  0
   -0.1468    0.1046    3.4557 H   0  0  0  0  0  0  0  0  0  0  0  0
    0.1255   -1.4207    2.6141 H   0  0  0  0  0  0  0  0  0  0  0  0
    2.7425   -3.0811   -1.0603 H   0  0  0  0  0  0  0  0  0  0  0  0
   -2.0498   -2.6573   -1.3044 H   0  0  0  0  0  0  0  0  0  0  0  0
   -2.0651   -1.1422   -2.2454 H   0  0  0  0  0  0  0  0  0  0  0  0
   -3.5180   -1.7299   -1.4293 H   0  0  0  0  0  0  0  0  0  0  0  0
   -4.5798   -0.6413    0.6210 H   0  0  0  0  0  0  0  0  0  0  0  0
    0.4630   -1.6315   -2.1371 H   0  0  0  0  0  0  0  0  0  0  0  0
    2.7197   -2.9893    2.0261 H   0  0  0  0  0  0  0  0  0  0  0  0
    3.2688   -4.2990    1.0175 H   0  0  0  0  0  0  0  0  0  0  0  0
    1.5786   -3.8837    0.9946 H   0  0  0  0  0  0  0  0  0  0  0  0
    3.9568   -1.0411   -1.8874 H   0  0  0  0  0  0  0  0  0  0  0  0
    6.7156   -1.4033   -1.0311 H   0  0  0  0  0  0  0  0  0  0  0  0
    6.1356   -0.5526   -2.4466 H   0  0  0  0  0  0  0  0  0  0  0  0
   -7.5320    2.5556   -0.3704 H   0  0  0  0  0  0  0  0  0  0  0  0
   -6.2942   -1.5513   -0.1982 H   0  0  0  0  0  0  0  0  0  0  0  0
    7.3453   -0.2625    0.9113 H   0  0  0  0  0  0  0  0  0  0  0  0
  -10.2449   -0.4953    0.1259 H   0  0  0  0  0  0  0  0  0  0  0  0
    5.2992    3.9314   -0.7794 H   0  0  0  0  0  0  0  0  0  0  0  0
    7.6558    1.8521    2.1396 H   0  0  0  0  0  0  0  0  0  0  0  0
    6.6330    3.9486    1.2955 H   0  0  0  0  0  0  0  0  0  0  0  0
  1 30  1  0  0  0  0
  2 12  1  0  0  0  0
  2 57  1  0  0  0  0
  3 23  2  0  0  0  0
  4 24  2  0  0  0  0
  5 16  1  0  0  0  0
  5 24  1  0  0  0  0
  5 56  1  0  0  0  0
  6 23  1  0  0  0  0
  6 26  1  0  0  0  0
  6 61  1  0  0  0  0
  7 27  2  0  0  0  0
  7 32  1  0  0  0  0
  8 28  1  0  0  0  0
  8 32  2  0  0  0  0
  9 10  1  0  0  0  0
  9 13  1  0  0  0  0
  9 14  1  0  0  0  0
  9 19  1  0  0  0  0
 10 11  1  0  0  0  0
 10 12  1  0  0  0  0
 10 36  1  0  0  0  0
 11 16  1  0  0  0  0
 11 21  1  0  0  0  0
 11 37  1  0  0  0  0
 12 15  1  0  0  0  0
 12 38  1  0  0  0  0
 13 17  1  0  0  0  0
 13 39  1  0  0  0  0
 13 40  1  0  0  0  0
 14 18  1  0  0  0  0
 14 41  1  0  0  0  0
 14 42  1  0  0  0  0
 15 17  1  0  0  0  0
 15 20  1  0  0  0  0
 15 43  1  0  0  0  0
 16 18  1  0  0  0  0
 16 44  1  0  0  0  0
 17 45  1  0  0  0  0
 17 46  1  0  0  0  0
 18 47  1  0  0  0  0
 18 48  1  0  0  0  0
 19 49  1  0  0  0  0
 19 50  1  0  0  0  0
 19 51  1  0  0  0  0
 20 22  1  0  0  0  0
 20 23  1  0  0  0  0
 20 52  1  0  0  0  0
 21 53  1  0  0  0  0
 21 54  1  0  0  0  0
 21 55  1  0  0  0  0
 22 58  1  0  0  0  0
 22 59  1  0  0  0  0
 22 60  1  0  0  0  0
 24 25  1  0  0  0  0
 25 27  1  0  0  0  0
 25 28  2  0  0  0  0
 26 29  1  0  0  0  0
 26 62  1  0  0  0  0
 26 63  1  0  0  0  0
 27 64  1  0  0  0  0
 28 65  1  0  0  0  0
 29 30  1  0  0  0  0
 29 31  2  0  0  0  0
 30 33  2  0  0  0  0
 31 34  1  0  0  0  0
 31 66  1  0  0  0  0
 32 67  1  0  0  0  0
 33 35  1  0  0  0  0
 33 68  1  0  0  0  0
 34 35  2  0  0  0  0
 34 69  1  0  0  0  0
 35 70  1  0  0  0  0
M  END
> <PUBCHEM_COMPOUND_CID>
45361626

> <PUBCHEM_CONFORMER_RMSD>
1.2

> <PUBCHEM_CONFORMER_DIVERSEORDER>
1
45
63
90
91
123
128
44
85
70
77
120
28
108
92
5
43
75
132
62
18
55
135
94
121
37
16
78
66
56
82
117
42
126
65
50
64
40
58
35
19
109
12
72
48
93
3
97
134
106
21
101
81
118
129
83
20
100
22
112
133
104
124
88
131
2
53
54
87
89
110
24
96
47
46
125
4
68
79
8
98
59
11
115
13
95
51
107
114
15
86
60
32
111
29
74
27
102
84
127
26
119
61
71
23
113
6
57
122
41
69
10
130
30
73
39
76
14
103
25
67
17
36
49
34
9
52
7
116
33
80
105
99
31
38

> <PUBCHEM_MMFF94_PARTIAL_CHARGES>
34
1 -0.18
12 0.28
16 0.3
2 -0.68
20 0.06
23 0.57
24 0.54
25 0.09
26 0.44
27 0.16
28 0.16
29 -0.14
3 -0.57
30 0.18
31 -0.15
32 0.47
33 -0.15
34 -0.15
35 -0.15
4 -0.57
5 -0.73
56 0.37
57 0.4
6 -0.73
61 0.37
64 0.15
65 0.15
66 0.15
67 0.15
68 0.15
69 0.15
7 -0.62
70 0.15
8 -0.62

> <PUBCHEM_EFFECTIVE_ROTOR_COUNT>
9.6

> <PUBCHEM_PHARMACOPHORE_FEATURES>
13
1 2 acceptor
1 2 donor
1 22 hydrophobe
1 3 acceptor
1 4 acceptor
1 5 donor
1 6 donor
1 7 acceptor
3 7 8 32 cation
6 29 30 31 33 34 35 rings
6 7 8 25 27 28 32 rings
6 9 10 11 14 16 18 rings
6 9 10 12 13 15 17 rings

> <PUBCHEM_HEAVY_ATOM_COUNT>
35

> <PUBCHEM_ATOM_DEF_STEREO_COUNT>
6

> <PUBCHEM_ATOM_UDEF_STEREO_COUNT>
1

> <PUBCHEM_BOND_DEF_STEREO_COUNT>
0

> <PUBCHEM_BOND_UDEF_STEREO_COUNT>
0

> <PUBCHEM_ISOTOPIC_ATOM_COUNT>
0

> <PUBCHEM_COMPONENT_COUNT>
1

> <PUBCHEM_CACTVS_TAUTO_COUNT>
4

> <PUBCHEM_CONFORMER_ID>
02B429DA00000001

> <PUBCHEM_MMFF94_ENERGY>
101.9197

> <PUBCHEM_FEATURE_SELFOVERLAP>
65.986

> <PUBCHEM_SHAPE_FINGERPRINT>
10533779 47 9871470963388842949
10673678 19 18413110550208900406
10677351 14 18342167866348241885
11007060 377 18335147479703127313
11135609 187 18198341956551052512
11211813 74 18411979148644513257
11456790 92 12829487039284676647
13165053 68 18117564148762621903
13617811 41 18343580759310800784
13811026 1 18259988188415881577
13947947 19 17775276193489632815
14117953 113 18409455808857246116
14675020 138 15574713573459343666
15183329 4 18202572786630974504
15301273 46 11169905095951703789
15361156 5 18413666925479793559
15840311 113 18411139130381794006
15890870 6 18337675313187352392
16728300 4 7997430290379656448
16992787 43 18059857289800078665
17324776 126 14903162524954797716
17686467 74 18186804695726501965
18608769 82 18341048618660301943
19319366 153 18412258411644735118
20511986 3 18272643576548276580
20715895 44 18409729599952314644
21049683 271 18272931639921020937
21150785 3 18408887326399695953
21521721 280 18411422795776384459
21781055 127 15123526817650912779
22149856 69 17346042151893770835
23522609 53 17702687470215089329
23569914 2 17172318262370124020
3044373 193 17385445414833604878
34797466 226 17917998256760976478
3552219 110 17703800206543002881
4073 2 18333732434172279979
4098825 35 18335137549728572005
4149490 64 18187363216509118162
439807 62 13182748026862598212
44317340 157 18342457049973785686
4625314 4 18337955593398231607
5109719 28 18262246611248855640
5265222 85 18342737434335108983
5372103 7 15625080119313491632
9831232 110 11959730456239010772
9849439 229 18189058745770871244

> <PUBCHEM_SHAPE_MULTIPOLES>
684.62
25.15
3.13
1.64
40.23
0.66
0.01
-12.7
-4.4
-5.45
-0.06
-1.9
-0.3
-0.19

> <PUBCHEM_SHAPE_SELFOVERLAP>
1442.649

> <PUBCHEM_SHAPE_VOLUME>
382.2

> <PUBCHEM_COORDINATE_TYPE>
2
5
10

$$$$
