7155405
  -OEChem-12032416233D

 56 60  0     1  0  0  0  0  0999 V2000
   -6.0760   -0.0200    0.3216 S   0  0  0  0  0  0  0  0  0  0  0  0
    3.3718    2.7224   -2.0159 O   0  0  0  0  0  0  0  0  0  0  0  0
    1.4949   -2.4614   -0.2976 O   0  0  0  0  0  0  0  0  0  0  0  0
    1.6370   -4.0087   -2.9880 O   0  0  0  0  0  0  0  0  0  0  0  0
    2.0160   -0.4526    1.5813 N   0  0  2  0  0  0  0  0  0  0  0  0
    1.8672    2.0779   -0.3410 N   0  0  0  0  0  0  0  0  0  0  0  0
    2.5734    1.9255    2.1209 C   0  0  1  0  0  0  0  0  0  0  0  0
    0.2853    1.3505    1.4704 C   0  0  2  0  0  0  0  0  0  0  0  0
    1.1122    2.2341    2.4010 C   0  0  0  0  0  0  0  0  0  0  0  0
    2.8662    0.4343    2.3834 C   0  0  0  0  0  0  0  0  0  0  0  0
    0.5928   -0.1368    1.7669 C   0  0  0  0  0  0  0  0  0  0  0  0
    2.8900    2.3393    0.6818 C   0  0  0  0  0  0  0  0  0  0  0  0
    0.5592    1.6806    0.0003 C   0  0  0  0  0  0  0  0  0  0  0  0
    2.2851   -1.8552    1.8890 C   0  0  0  0  0  0  0  0  0  0  0  0
   -0.3929    1.5868   -0.9640 C   0  0  0  0  0  0  0  0  0  0  0  0
    2.2491    2.3585   -1.6648 C   0  0  0  0  0  0  0  0  0  0  0  0
   -0.0348    1.8639   -2.3421 C   0  0  0  0  0  0  0  0  0  0  0  0
    1.2002    2.2151   -2.6998 C   0  0  0  0  0  0  0  0  0  0  0  0
    1.5006   -2.7841    1.0083 C   0  0  0  0  0  0  0  0  0  0  0  0
   -1.7837    1.1936   -0.6495 C   0  0  0  0  0  0  0  0  0  0  0  0
    0.7854   -3.9025    1.2747 C   0  0  0  0  0  0  0  0  0  0  0  0
   -2.1404   -0.1513   -0.6601 C   0  0  0  0  0  0  0  0  0  0  0  0
   -2.7258    2.1713   -0.3449 C   0  0  0  0  0  0  0  0  0  0  0  0
    0.7405   -3.4162   -0.9022 C   0  0  0  0  0  0  0  0  0  0  0  0
    0.2809   -4.3256    0.0219 C   0  0  0  0  0  0  0  0  0  0  0  0
   -3.4520   -0.5221   -0.3634 C   0  0  0  0  0  0  0  0  0  0  0  0
   -4.0374    1.8005   -0.0483 C   0  0  0  0  0  0  0  0  0  0  0  0
   -4.4004    0.4538   -0.0576 C   0  0  0  0  0  0  0  0  0  0  0  0
    0.5752   -3.2899   -2.3569 C   0  0  0  0  0  0  0  0  0  0  0  0
   -5.8396   -1.0816    1.7748 C   0  0  0  0  0  0  0  0  0  0  0  0
    3.2087    2.5107    2.7974 H   0  0  0  0  0  0  0  0  0  0  0  0
   -0.7662    1.5355    1.7177 H   0  0  0  0  0  0  0  0  0  0  0  0
    0.8954    3.2960    2.2307 H   0  0  0  0  0  0  0  0  0  0  0  0
    0.8694    2.0204    3.4492 H   0  0  0  0  0  0  0  0  0  0  0  0
    3.9209    0.2375    2.1542 H   0  0  0  0  0  0  0  0  0  0  0  0
    2.7283    0.2306    3.4541 H   0  0  0  0  0  0  0  0  0  0  0  0
    0.2863   -0.3599    2.7986 H   0  0  0  0  0  0  0  0  0  0  0  0
   -0.0359   -0.7508    1.1168 H   0  0  0  0  0  0  0  0  0  0  0  0
    3.0535    3.4259    0.6617 H   0  0  0  0  0  0  0  0  0  0  0  0
    3.8357    1.8893    0.3535 H   0  0  0  0  0  0  0  0  0  0  0  0
    2.0675   -2.0785    2.9418 H   0  0  0  0  0  0  0  0  0  0  0  0
    3.3481   -2.0735    1.7253 H   0  0  0  0  0  0  0  0  0  0  0  0
   -0.8043    1.7680   -3.1025 H   0  0  0  0  0  0  0  0  0  0  0  0
    1.4601    2.4154   -3.7324 H   0  0  0  0  0  0  0  0  0  0  0  0
    0.6333   -4.3694    2.2369 H   0  0  0  0  0  0  0  0  0  0  0  0
   -1.4154   -0.9227   -0.9062 H   0  0  0  0  0  0  0  0  0  0  0  0
   -2.4567    3.2245   -0.3331 H   0  0  0  0  0  0  0  0  0  0  0  0
   -0.3404   -5.1866   -0.1797 H   0  0  0  0  0  0  0  0  0  0  0  0
   -3.7136   -1.5770   -0.3853 H   0  0  0  0  0  0  0  0  0  0  0  0
   -4.7625    2.5753    0.1882 H   0  0  0  0  0  0  0  0  0  0  0  0
   -0.3729   -3.7250   -2.6865 H   0  0  0  0  0  0  0  0  0  0  0  0
    0.6088   -2.2472   -2.6876 H   0  0  0  0  0  0  0  0  0  0  0  0
    2.4684   -3.5513   -2.7734 H   0  0  0  0  0  0  0  0  0  0  0  0
   -5.2927   -1.9891    1.5069 H   0  0  0  0  0  0  0  0  0  0  0  0
   -6.8173   -1.3702    2.1698 H   0  0  0  0  0  0  0  0  0  0  0  0
   -5.2927   -0.5436    2.5538 H   0  0  0  0  0  0  0  0  0  0  0  0
  1 28  1  0  0  0  0
  1 30  1  0  0  0  0
  2 16  2  0  0  0  0
  3 19  1  0  0  0  0
  3 24  1  0  0  0  0
  4 29  1  0  0  0  0
  4 53  1  0  0  0  0
  5 10  1  0  0  0  0
  5 11  1  0  0  0  0
  5 14  1  0  0  0  0
  6 12  1  0  0  0  0
  6 13  1  0  0  0  0
  6 16  1  0  0  0  0
  7  9  1  0  0  0  0
  7 10  1  0  0  0  0
  7 12  1  0  0  0  0
  7 31  1  0  0  0  0
  8  9  1  0  0  0  0
  8 11  1  0  0  0  0
  8 13  1  0  0  0  0
  8 32  1  0  0  0  0
  9 33  1  0  0  0  0
  9 34  1  0  0  0  0
 10 35  1  0  0  0  0
 10 36  1  0  0  0  0
 11 37  1  0  0  0  0
 11 38  1  0  0  0  0
 12 39  1  0  0  0  0
 12 40  1  0  0  0  0
 13 15  2  0  0  0  0
 14 19  1  0  0  0  0
 14 41  1  0  0  0  0
 14 42  1  0  0  0  0
 15 17  1  0  0  0  0
 15 20  1  0  0  0  0
 16 18  1  0  0  0  0
 17 18  2  0  0  0  0
 17 43  1  0  0  0  0
 18 44  1  0  0  0  0
 19 21  2  0  0  0  0
 20 22  2  0  0  0  0
 20 23  1  0  0  0  0
 21 25  1  0  0  0  0
 21 45  1  0  0  0  0
 22 26  1  0  0  0  0
 22 46  1  0  0  0  0
 23 27  2  0  0  0  0
 23 47  1  0  0  0  0
 24 25  2  0  0  0  0
 24 29  1  0  0  0  0
 25 48  1  0  0  0  0
 26 28  2  0  0  0  0
 26 49  1  0  0  0  0
 27 28  1  0  0  0  0
 27 50  1  0  0  0  0
 29 51  1  0  0  0  0
 29 52  1  0  0  0  0
 30 54  1  0  0  0  0
 30 55  1  0  0  0  0
 30 56  1  0  0  0  0
M  END
> <PUBCHEM_COMPOUND_CID>
7155405

> <PUBCHEM_CONFORMER_RMSD>
0.8

> <PUBCHEM_CONFORMER_DIVERSEORDER>
1
8
11
3
15
12
7
4
10
5
14
2
9
13
6

> <PUBCHEM_MMFF94_PARTIAL_CHARGES>
37
1 -0.33
10 0.27
11 0.27
12 0.3
13 -0.03
14 0.45
15 -0.03
16 0.62
17 -0.15
18 -0.14
19 -0.04
2 -0.57
20 0.03
21 -0.15
22 -0.15
23 -0.15
24 -0.04
25 -0.15
26 -0.15
27 -0.15
28 0.1
29 0.46
3 -0.28
30 0.23
4 -0.68
43 0.15
44 0.15
45 0.15
46 0.15
47 0.15
48 0.15
49 0.15
5 -0.81
50 0.15
53 0.4
6 -0.47
8 0.14

> <PUBCHEM_EFFECTIVE_ROTOR_COUNT>
6

> <PUBCHEM_PHARMACOPHORE_FEATURES>
11
1 2 acceptor
1 3 acceptor
1 30 hydrophobe
1 4 acceptor
1 4 donor
1 5 cation
5 3 19 21 24 25 rings
6 20 22 23 26 27 28 rings
6 5 7 8 9 10 11 rings
6 6 13 15 16 17 18 rings
6 6 7 8 9 12 13 rings

> <PUBCHEM_HEAVY_ATOM_COUNT>
30

> <PUBCHEM_ATOM_DEF_STEREO_COUNT>
2

> <PUBCHEM_ATOM_UDEF_STEREO_COUNT>
0

> <PUBCHEM_BOND_DEF_STEREO_COUNT>
0

> <PUBCHEM_BOND_UDEF_STEREO_COUNT>
0

> <PUBCHEM_ISOTOPIC_ATOM_COUNT>
0

> <PUBCHEM_COMPONENT_COUNT>
1

> <PUBCHEM_CACTVS_TAUTO_COUNT>
1

> <PUBCHEM_CONFORMER_ID>
006D2ECD00000001

> <PUBCHEM_MMFF94_ENERGY>
71.7986

> <PUBCHEM_FEATURE_SELFOVERLAP>
57.371

> <PUBCHEM_SHAPE_FINGERPRINT>
10064457 181 18196631098782244992
11421498 54 18198367128985271705
12156800 1 15579262411840410315
12160290 23 17618487123120608959
12422481 6 18046873109763630984
12788726 201 17109039465314418670
13583140 156 17914866847756613001
14468879 13 8209006082812147535
14863182 85 18335699476999820169
15324884 4 17467019217712688104
15664445 248 18045511807094624556
17492 54 17750257862518471822
1813 80 17608940780995412497
18681886 176 17897451815806346525
19301679 30 18114472236745478387
1979834 28 18334852844862348953
20600515 1 17618503177623789701
22956985 138 18261385603624411539
23559900 14 18261681351261795031
27425 322 17842832493681196153
3493558 16 7991471766180252225
35225 105 17697880628378907171
6287921 2 18408877426194422587

> <PUBCHEM_SHAPE_MULTIPOLES>
593.67
7.48
5.41
2.9
16.37
6.66
-0.87
-1.75
3.13
-4.58
-2.39
-2.57
0
0.5

> <PUBCHEM_SHAPE_SELFOVERLAP>
1285.411

> <PUBCHEM_SHAPE_VOLUME>
328

> <PUBCHEM_COORDINATE_TYPE>
2
5
10

$$$$
