45783442
  -OEChem-12032416263D

 49 52  0     1  0  0  0  0  0999 V2000
   -2.5437   -2.1479    0.6992 O   0  0  0  0  0  0  0  0  0  0  0  0
   -1.0630    2.2450    0.6499 O   0  0  0  0  0  0  0  0  0  0  0  0
    3.8468   -0.2537   -1.2367 O   0  0  0  0  0  0  0  0  0  0  0  0
    5.3256    1.8876   -0.1996 O   0  0  0  0  0  0  0  0  0  0  0  0
   -3.4306    1.1374   -0.6886 N   0  0  1  0  0  0  0  0  0  0  0  0
   -1.1512   -0.7658   -0.3815 N   0  0  0  0  0  0  0  0  0  0  0  0
   -1.2536   -2.6500    0.9120 N   0  0  0  0  0  0  0  0  0  0  0  0
    1.4691   -2.9525    0.8447 N   0  0  0  0  0  0  0  0  0  0  0  0
   -3.6614   -0.3007   -0.4464 C   0  0  1  0  0  0  0  0  0  0  0  0
   -4.2885   -0.8218   -1.7528 C   0  0  0  0  0  0  0  0  0  0  0  0
   -4.4268    0.4042   -2.6441 C   0  0  0  0  0  0  0  0  0  0  0  0
   -4.4369    1.5592   -1.6631 C   0  0  0  0  0  0  0  0  0  0  0  0
   -3.4750    1.9391    0.5273 C   0  0  0  0  0  0  0  0  0  0  0  0
   -2.3934   -1.0389   -0.0715 C   0  0  0  0  0  0  0  0  0  0  0  0
   -2.1878    1.8523    1.3036 C   0  0  0  0  0  0  0  0  0  0  0  0
   -1.8864    1.4460    2.5828 C   0  0  0  0  0  0  0  0  0  0  0  0
   -0.4886   -1.7814    0.2441 C   0  0  0  0  0  0  0  0  0  0  0  0
   -0.4866    1.5993    2.7243 C   0  0  0  0  0  0  0  0  0  0  0  0
   -0.0323    2.0879    1.5213 C   0  0  0  0  0  0  0  0  0  0  0  0
    0.9394   -1.9006    0.1809 C   0  0  0  0  0  0  0  0  0  0  0  0
    1.6877   -0.9737   -0.5269 C   0  0  0  0  0  0  0  0  0  0  0  0
    3.0683   -1.1368   -0.5551 C   0  0  0  0  0  0  0  0  0  0  0  0
    2.8142   -3.0785    0.7946 C   0  0  0  0  0  0  0  0  0  0  0  0
    3.6502   -2.2068    0.1157 C   0  0  0  0  0  0  0  0  0  0  0  0
    3.3738    1.0896   -1.3332 C   0  0  0  0  0  0  0  0  0  0  0  0
    4.5625    2.0297   -1.3916 C   0  0  0  0  0  0  0  0  0  0  0  0
    6.4682    2.7319   -0.2093 C   0  0  0  0  0  0  0  0  0  0  0  0
   -4.3977   -0.4468    0.3565 H   0  0  0  0  0  0  0  0  0  0  0  0
   -3.6965   -1.5987   -2.2488 H   0  0  0  0  0  0  0  0  0  0  0  0
   -5.2819   -1.2375   -1.5445 H   0  0  0  0  0  0  0  0  0  0  0  0
   -5.3304    0.3684   -3.2597 H   0  0  0  0  0  0  0  0  0  0  0  0
   -3.5607    0.4780   -3.3134 H   0  0  0  0  0  0  0  0  0  0  0  0
   -5.4292    1.6611   -1.2055 H   0  0  0  0  0  0  0  0  0  0  0  0
   -4.1702    2.5023   -2.1499 H   0  0  0  0  0  0  0  0  0  0  0  0
   -4.3279    1.6776    1.1661 H   0  0  0  0  0  0  0  0  0  0  0  0
   -3.5988    2.9990    0.2660 H   0  0  0  0  0  0  0  0  0  0  0  0
   -2.5863    1.0832    3.3217 H   0  0  0  0  0  0  0  0  0  0  0  0
    0.1162    1.3796    3.5934 H   0  0  0  0  0  0  0  0  0  0  0  0
    0.9429    2.3606    1.1457 H   0  0  0  0  0  0  0  0  0  0  0  0
    1.2000   -0.1668   -1.0635 H   0  0  0  0  0  0  0  0  0  0  0  0
    3.2183   -3.9289    1.3338 H   0  0  0  0  0  0  0  0  0  0  0  0
    4.7240   -2.3584    0.1108 H   0  0  0  0  0  0  0  0  0  0  0  0
    2.7827    1.3655   -0.4507 H   0  0  0  0  0  0  0  0  0  0  0  0
    2.7656    1.1953   -2.2379 H   0  0  0  0  0  0  0  0  0  0  0  0
    5.1945    1.7730   -2.2498 H   0  0  0  0  0  0  0  0  0  0  0  0
    4.2175    3.0647   -1.4919 H   0  0  0  0  0  0  0  0  0  0  0  0
    7.1301    2.4727   -1.0412 H   0  0  0  0  0  0  0  0  0  0  0  0
    6.1688    3.7822   -0.2785 H   0  0  0  0  0  0  0  0  0  0  0  0
    7.0123    2.5854    0.7276 H   0  0  0  0  0  0  0  0  0  0  0  0
  1  7  1  0  0  0  0
  1 14  1  0  0  0  0
  2 15  1  0  0  0  0
  2 19  1  0  0  0  0
  3 22  1  0  0  0  0
  3 25  1  0  0  0  0
  4 26  1  0  0  0  0
  4 27  1  0  0  0  0
  5  9  1  0  0  0  0
  5 12  1  0  0  0  0
  5 13  1  0  0  0  0
  6 14  2  0  0  0  0
  6 17  1  0  0  0  0
  7 17  2  0  0  0  0
  8 20  2  0  0  0  0
  8 23  1  0  0  0  0
  9 10  1  0  0  0  0
  9 14  1  0  0  0  0
  9 28  1  0  0  0  0
 10 11  1  0  0  0  0
 10 29  1  0  0  0  0
 10 30  1  0  0  0  0
 11 12  1  0  0  0  0
 11 31  1  0  0  0  0
 11 32  1  0  0  0  0
 12 33  1  0  0  0  0
 12 34  1  0  0  0  0
 13 15  1  0  0  0  0
 13 35  1  0  0  0  0
 13 36  1  0  0  0  0
 15 16  2  0  0  0  0
 16 18  1  0  0  0  0
 16 37  1  0  0  0  0
 17 20  1  0  0  0  0
 18 19  2  0  0  0  0
 18 38  1  0  0  0  0
 19 39  1  0  0  0  0
 20 21  1  0  0  0  0
 21 22  2  0  0  0  0
 21 40  1  0  0  0  0
 22 24  1  0  0  0  0
 23 24  2  0  0  0  0
 23 41  1  0  0  0  0
 24 42  1  0  0  0  0
 25 26  1  0  0  0  0
 25 43  1  0  0  0  0
 25 44  1  0  0  0  0
 26 45  1  0  0  0  0
 26 46  1  0  0  0  0
 27 47  1  0  0  0  0
 27 48  1  0  0  0  0
 27 49  1  0  0  0  0
M  END
> <PUBCHEM_COMPOUND_CID>
45783442

> <PUBCHEM_CONFORMER_RMSD>
1

> <PUBCHEM_CONFORMER_DIVERSEORDER>
1
146
91
138
43
51
142
151
9
94
97
33
18
124
34
125
83
123
106
160
44
52
141
25
89
150
74
121
157
67
86
162
73
7
81
58
26
15
105
139
70
32
145
107
29
102
116
49
54
78
60
84
55
56
118
132
134
66
30
154
104
53
144
24
4
130
93
19
148
40
122
112
99
92
95
87
90
120
109
133
36
140
110
45
155
47
115
159
111
128
23
156
41
38
62
88
21
63
149
161
31
117
103
22
113
143
3
100
13
64
137
20
59
8
96
17
101
35
57
135
42
131
28
2
77
6
108
126
72
37
65
147
153
5
80
98
71
129
79
75
152
114
127
68
158
11
10
119
39
27
136
50
16
82
46
76
48
12
14
69
61
85

> <PUBCHEM_MMFF94_PARTIAL_CHARGES>
31
1 -0.02
12 0.27
13 0.45
14 0.3
15 -0.04
16 -0.15
17 0.46
18 -0.15
19 -0.01
2 -0.28
20 0.36
21 -0.15
22 0.08
23 0.16
24 -0.15
25 0.28
26 0.28
27 0.28
3 -0.36
37 0.15
38 0.15
39 0.15
4 -0.56
40 0.15
41 0.15
42 0.15
5 -0.81
6 -0.57
7 -0.41
8 -0.62
9 0.45

> <PUBCHEM_EFFECTIVE_ROTOR_COUNT>
9

> <PUBCHEM_PHARMACOPHORE_FEATURES>
10
1 2 acceptor
1 3 acceptor
1 4 acceptor
1 5 cation
1 8 acceptor
3 6 7 17 cation
5 1 6 7 14 17 rings
5 2 15 16 18 19 rings
5 5 9 10 11 12 rings
6 8 20 21 22 23 24 rings

> <PUBCHEM_HEAVY_ATOM_COUNT>
27

> <PUBCHEM_ATOM_DEF_STEREO_COUNT>
1

> <PUBCHEM_ATOM_UDEF_STEREO_COUNT>
0

> <PUBCHEM_BOND_DEF_STEREO_COUNT>
0

> <PUBCHEM_BOND_UDEF_STEREO_COUNT>
0

> <PUBCHEM_ISOTOPIC_ATOM_COUNT>
0

> <PUBCHEM_COMPONENT_COUNT>
1

> <PUBCHEM_CACTVS_TAUTO_COUNT>
1

> <PUBCHEM_CONFORMER_ID>
02BA999200000001

> <PUBCHEM_MMFF94_ENERGY>
49.9805

> <PUBCHEM_FEATURE_SELFOVERLAP>
50.752

> <PUBCHEM_SHAPE_FINGERPRINT>
11582403 64 16588567782386140349
11725454 13 16515966948184328599
12166972 35 18047735027737408290
12422481 6 11169900672172370572
12788726 201 17559968623151706241
13583140 156 17097232557273654667
14468879 13 17313110751975604589
14931854 50 18343864441509915132
17349148 13 18124871253115124650
17980427 23 18126841591496228210
1813 80 16414898821689267191
192875 21 18121491358660631075
20775438 99 17122492952955683031
21033648 144 18260830384400522726
21033648 29 16805885091695741415
21095088 737 18343309175432125992
212916 134 14201684087868735735
2132832 1 18123456195014711226
22907989 373 17917439700290235683
23557571 272 16772088251831537035
23559900 14 18336541600149715298
394222 165 17894903032205068938
469060 322 17681019540389192651
5265222 85 17408206589265900713
57527295 17 18130491020917440573
6034566 193 17535217697503615068
9981440 41 18187930646408418938

> <PUBCHEM_SHAPE_MULTIPOLES>
512.25
10.84
3.79
2.19
9.81
0.78
-0.33
-6.7
7.07
3.41
-1.38
-2.1
-1.26
-1.67

> <PUBCHEM_SHAPE_SELFOVERLAP>
1099.318

> <PUBCHEM_SHAPE_VOLUME>
285.4

> <PUBCHEM_COORDINATE_TYPE>
2
5
10

$$$$
