71692863
  -OEChem-12032416403D

 77 80  0     1  0  0  0  0  0999 V2000
   -1.1653    1.4639   -1.7437 O   0  0  0  0  0  0  0  0  0  0  0  0
    0.2891    4.2825    0.0184 O   0  0  0  0  0  0  0  0  0  0  0  0
    5.7941   -0.6042    1.4586 O   0  0  0  0  0  0  0  0  0  0  0  0
   -7.6709   -2.9061    1.1856 O   0  0  0  0  0  0  0  0  0  0  0  0
    1.8268    2.7620    0.8476 N   0  0  0  0  0  0  0  0  0  0  0  0
    5.7984   -2.5100    0.1367 N   0  0  0  0  0  0  0  0  0  0  0  0
   -1.1506    1.9477    1.5118 N   0  0  0  0  0  0  0  0  0  0  0  0
   -5.6087   -1.2811    0.1826 N   0  0  0  0  0  0  0  0  0  0  0  0
    3.0115    1.5241   -0.9357 C   0  0  2  0  0  0  0  0  0  0  0  0
    3.7421    0.6945    0.1581 C   0  0  1  0  0  0  0  0  0  0  0  0
    2.8787    0.5737    1.4262 C   0  0  0  0  0  0  0  0  0  0  0  0
    2.6968    2.9047   -0.3245 C   0  0  0  0  0  0  0  0  0  0  0  0
    1.7408    0.8146   -1.4625 C   0  0  0  0  0  0  0  0  0  0  0  0
    2.3882    1.9348    1.9249 C   0  0  0  0  0  0  0  0  0  0  0  0
    4.1932   -0.6844   -0.3233 C   0  0  0  0  0  0  0  0  0  0  0  0
    1.0424    1.5109   -2.6405 C   0  0  0  0  0  0  0  0  0  0  0  0
    0.6125    3.4505    0.8742 C   0  0  0  0  0  0  0  0  0  0  0  0
    5.3308   -1.2461    0.5122 C   0  0  0  0  0  0  0  0  0  0  0  0
   -0.3727    0.9502   -2.8175 C   0  0  0  0  0  0  0  0  0  0  0  0
   -0.3857    3.1106    1.9661 C   0  0  0  0  0  0  0  0  0  0  0  0
    6.8843   -3.1821    0.8395 C   0  0  0  0  0  0  0  0  0  0  0  0
    5.2337   -3.2517   -0.9884 C   0  0  0  0  0  0  0  0  0  0  0  0
   -2.2874    2.3370    0.6692 C   0  0  0  0  0  0  0  0  0  0  0  0
   -2.2666    0.7592   -1.3390 C   0  0  0  0  0  0  0  0  0  0  0  0
   -2.8429    1.1672   -0.1161 C   0  0  0  0  0  0  0  0  0  0  0  0
    8.2315   -2.8348    0.2406 C   0  0  0  0  0  0  0  0  0  0  0  0
    4.0853   -4.1362   -0.5490 C   0  0  0  0  0  0  0  0  0  0  0  0
   -3.9556    0.4732    0.3832 C   0  0  0  0  0  0  0  0  0  0  0  0
   -4.5074   -0.5884   -0.3311 C   0  0  0  0  0  0  0  0  0  0  0  0
   -2.8420   -0.2927   -2.0588 C   0  0  0  0  0  0  0  0  0  0  0  0
   -3.9561   -0.9645   -1.5526 C   0  0  0  0  0  0  0  0  0  0  0  0
   -5.4647   -1.9439    1.4860 C   0  0  0  0  0  0  0  0  0  0  0  0
   -6.5727   -1.9034   -0.7315 C   0  0  0  0  0  0  0  0  0  0  0  0
   -6.8410   -2.1846    2.0959 C   0  0  0  0  0  0  0  0  0  0  0  0
   -7.8897   -2.1473   -0.0033 C   0  0  0  0  0  0  0  0  0  0  0  0
    3.6986    1.6714   -1.7789 H   0  0  0  0  0  0  0  0  0  0  0  0
    4.6382    1.2732    0.4263 H   0  0  0  0  0  0  0  0  0  0  0  0
    3.4356    0.0865    2.2342 H   0  0  0  0  0  0  0  0  0  0  0  0
    2.0100   -0.0659    1.2278 H   0  0  0  0  0  0  0  0  0  0  0  0
    2.2534    3.5706   -1.0689 H   0  0  0  0  0  0  0  0  0  0  0  0
    3.6192    3.3945    0.0123 H   0  0  0  0  0  0  0  0  0  0  0  0
    1.9988   -0.1983   -1.7940 H   0  0  0  0  0  0  0  0  0  0  0  0
    1.0246    0.6864   -0.6439 H   0  0  0  0  0  0  0  0  0  0  0  0
    1.6817    1.7745    2.7380 H   0  0  0  0  0  0  0  0  0  0  0  0
    3.2304    2.4997    2.3427 H   0  0  0  0  0  0  0  0  0  0  0  0
    4.5658   -0.5758   -1.3482 H   0  0  0  0  0  0  0  0  0  0  0  0
    3.3507   -1.3798   -0.3211 H   0  0  0  0  0  0  0  0  0  0  0  0
    0.9733    2.5896   -2.4754 H   0  0  0  0  0  0  0  0  0  0  0  0
    1.6263    1.3460   -3.5527 H   0  0  0  0  0  0  0  0  0  0  0  0
   -0.7995    1.2980   -3.7641 H   0  0  0  0  0  0  0  0  0  0  0  0
   -0.3224   -0.1447   -2.8147 H   0  0  0  0  0  0  0  0  0  0  0  0
    0.1072    2.9100    2.9176 H   0  0  0  0  0  0  0  0  0  0  0  0
   -1.0312    3.9779    2.1522 H   0  0  0  0  0  0  0  0  0  0  0  0
   -1.5094    1.4441    2.3232 H   0  0  0  0  0  0  0  0  0  0  0  0
    6.8713   -2.8597    1.8868 H   0  0  0  0  0  0  0  0  0  0  0  0
    6.7181   -4.2646    0.8295 H   0  0  0  0  0  0  0  0  0  0  0  0
    6.0224   -3.8640   -1.4410 H   0  0  0  0  0  0  0  0  0  0  0  0
    4.8931   -2.5758   -1.7755 H   0  0  0  0  0  0  0  0  0  0  0  0
   -2.0175    3.1244   -0.0446 H   0  0  0  0  0  0  0  0  0  0  0  0
   -3.0764    2.7716    1.2968 H   0  0  0  0  0  0  0  0  0  0  0  0
    9.0342   -3.3314    0.7943 H   0  0  0  0  0  0  0  0  0  0  0  0
    8.4116   -1.7551    0.2738 H   0  0  0  0  0  0  0  0  0  0  0  0
    8.2947   -3.1495   -0.8060 H   0  0  0  0  0  0  0  0  0  0  0  0
    3.6641   -4.6651   -1.4098 H   0  0  0  0  0  0  0  0  0  0  0  0
    3.2812   -3.5674   -0.0742 H   0  0  0  0  0  0  0  0  0  0  0  0
    4.4221   -4.8873    0.1733 H   0  0  0  0  0  0  0  0  0  0  0  0
   -4.3972    0.7846    1.3277 H   0  0  0  0  0  0  0  0  0  0  0  0
   -2.4498   -0.6112   -3.0198 H   0  0  0  0  0  0  0  0  0  0  0  0
   -4.3577   -1.7898   -2.1341 H   0  0  0  0  0  0  0  0  0  0  0  0
   -4.8670   -1.3535    2.1889 H   0  0  0  0  0  0  0  0  0  0  0  0
   -4.9534   -2.9026    1.3339 H   0  0  0  0  0  0  0  0  0  0  0  0
   -6.1709   -2.8623   -1.0815 H   0  0  0  0  0  0  0  0  0  0  0  0
   -6.7665   -1.2647   -1.6013 H   0  0  0  0  0  0  0  0  0  0  0  0
   -6.7456   -2.7811    3.0087 H   0  0  0  0  0  0  0  0  0  0  0  0
   -7.3296   -1.2404    2.3652 H   0  0  0  0  0  0  0  0  0  0  0  0
   -8.3849   -1.2029    0.2536 H   0  0  0  0  0  0  0  0  0  0  0  0
   -8.5715   -2.7150   -0.6444 H   0  0  0  0  0  0  0  0  0  0  0  0
  1 19  1  0  0  0  0
  1 24  1  0  0  0  0
  2 17  2  0  0  0  0
  3 18  2  0  0  0  0
  4 34  1  0  0  0  0
  4 35  1  0  0  0  0
  5 12  1  0  0  0  0
  5 14  1  0  0  0  0
  5 17  1  0  0  0  0
  6 18  1  0  0  0  0
  6 21  1  0  0  0  0
  6 22  1  0  0  0  0
  7 20  1  0  0  0  0
  7 23  1  0  0  0  0
  7 54  1  0  0  0  0
  8 29  1  0  0  0  0
  8 32  1  0  0  0  0
  8 33  1  0  0  0  0
  9 10  1  0  0  0  0
  9 12  1  0  0  0  0
  9 13  1  0  0  0  0
  9 36  1  0  0  0  0
 10 11  1  0  0  0  0
 10 15  1  0  0  0  0
 10 37  1  0  0  0  0
 11 14  1  0  0  0  0
 11 38  1  0  0  0  0
 11 39  1  0  0  0  0
 12 40  1  0  0  0  0
 12 41  1  0  0  0  0
 13 16  1  0  0  0  0
 13 42  1  0  0  0  0
 13 43  1  0  0  0  0
 14 44  1  0  0  0  0
 14 45  1  0  0  0  0
 15 18  1  0  0  0  0
 15 46  1  0  0  0  0
 15 47  1  0  0  0  0
 16 19  1  0  0  0  0
 16 48  1  0  0  0  0
 16 49  1  0  0  0  0
 17 20  1  0  0  0  0
 19 50  1  0  0  0  0
 19 51  1  0  0  0  0
 20 52  1  0  0  0  0
 20 53  1  0  0  0  0
 21 26  1  0  0  0  0
 21 55  1  0  0  0  0
 21 56  1  0  0  0  0
 22 27  1  0  0  0  0
 22 57  1  0  0  0  0
 22 58  1  0  0  0  0
 23 25  1  0  0  0  0
 23 59  1  0  0  0  0
 23 60  1  0  0  0  0
 24 25  2  0  0  0  0
 24 30  1  0  0  0  0
 25 28  1  0  0  0  0
 26 61  1  0  0  0  0
 26 62  1  0  0  0  0
 26 63  1  0  0  0  0
 27 64  1  0  0  0  0
 27 65  1  0  0  0  0
 27 66  1  0  0  0  0
 28 29  2  0  0  0  0
 28 67  1  0  0  0  0
 29 31  1  0  0  0  0
 30 31  2  0  0  0  0
 30 68  1  0  0  0  0
 31 69  1  0  0  0  0
 32 34  1  0  0  0  0
 32 70  1  0  0  0  0
 32 71  1  0  0  0  0
 33 35  1  0  0  0  0
 33 72  1  0  0  0  0
 33 73  1  0  0  0  0
 34 74  1  0  0  0  0
 34 75  1  0  0  0  0
 35 76  1  0  0  0  0
 35 77  1  0  0  0  0
M  END
> <PUBCHEM_COMPOUND_CID>
71692863

> <PUBCHEM_CONFORMER_RMSD>
1

> <PUBCHEM_CONFORMER_DIVERSEORDER>
2
59
85
114
138
104
99
52
116
87
82
42
10
74
161
22
28
102
77
58
40
86
71
140
135
93
23
101
53
107
17
55
29
155
98
115
57
129
118
127
9
89
83
6
164
91
136
121
46
73
16
105
137
54
131
106
84
90
150
120
35
15
24
144
70
19
92
3
34
126
130
153
48
66
108
156
5
60
7
69
112
18
72
96
146
113
50
88
13
147
78
51
12
128
133
97
141
117
160
41
27
25
111
65
64
166
68
80
44
47
110
21
163
139
39
142
159
158
100
30
67
56
31
132
152
4
94
45
20
157
33
124
143
8
43
76
119
122
11
63
154
26
75
151
36
149
32
165
162
103
134
1
79
62
148
123
109
125
14
95
61
38
81
145
49
37

> <PUBCHEM_MMFF94_PARTIAL_CHARGES>
32
1 -0.36
12 0.3
14 0.3
15 0.06
17 0.57
18 0.57
19 0.28
2 -0.57
20 0.33
21 0.3
22 0.3
23 0.41
24 0.08
25 -0.14
28 -0.15
29 0.1
3 -0.57
30 -0.15
31 -0.15
32 0.37
33 0.37
34 0.28
35 0.28
4 -0.56
5 -0.66
54 0.36
6 -0.66
67 0.15
68 0.15
69 0.15
7 -0.9
8 -0.84

> <PUBCHEM_EFFECTIVE_ROTOR_COUNT>
9.4

> <PUBCHEM_PHARMACOPHORE_FEATURES>
10
1 1 acceptor
1 2 acceptor
1 3 acceptor
1 4 acceptor
1 7 cation
1 7 donor
1 8 cation
6 24 25 28 29 30 31 rings
6 4 8 32 33 34 35 rings
6 5 9 10 11 12 14 rings

> <PUBCHEM_HEAVY_ATOM_COUNT>
35

> <PUBCHEM_ATOM_DEF_STEREO_COUNT>
2

> <PUBCHEM_ATOM_UDEF_STEREO_COUNT>
0

> <PUBCHEM_BOND_DEF_STEREO_COUNT>
0

> <PUBCHEM_BOND_UDEF_STEREO_COUNT>
0

> <PUBCHEM_ISOTOPIC_ATOM_COUNT>
0

> <PUBCHEM_COMPONENT_COUNT>
1

> <PUBCHEM_CACTVS_TAUTO_COUNT>
2

> <PUBCHEM_CONFORMER_ID>
0445F23F00000002

> <PUBCHEM_MMFF94_ENERGY>
104.9449

> <PUBCHEM_FEATURE_SELFOVERLAP>
50.747

> <PUBCHEM_SHAPE_FINGERPRINT>
10190108 129 18129656530516397704
10319688 140 18265899236200244864
10533779 1 9223226304531595402
10533779 47 18191036797766338603
11607047 141 17823432651071136397
117089 54 18411707551644190674
12013929 112 17241027822996710495
12166972 35 18187368748220519429
12342043 65 18187076273980328781
12422481 6 16773520971079577796
12633257 1 17631453535050913725
12895837 130 10087053281413440442
13150687 139 11097852952991776072
13383661 66 18187367593106945482
13533116 47 18337391659828168949
13782708 43 18260828228717180127
13947930 73 18334289915756906266
13947947 140 18336266734768951135
15475509 35 18341049721759768488
15510800 12 18187640310602985218
15728490 83 18270122288294789283
15803439 3 13695595438144035280
16728300 4 18271520888575663367
17492 54 13623525749214566965
19246450 95 17774447066974448465
19303781 99 18337377284710370234
19319366 153 17983291822880184668
20775530 9 18337093597524581470
208703 8 18410570661031744594
22223350 30 17975421527322836211
2838139 119 9294702309052960550
3472631 163 10880003449625901789
3680242 22 18059015107085019815
3862424 121 16661511617441209411
3886686 26 17550680911003192271
392239 28 17917709136806048815
4435113 14 17752498813255986419
4461854 278 17775282768853448582
474113 269 18272079523073395791
484985 159 17902784168370473140
513202 73 18412266147465741873
513532 50 16444462579840950037
5372103 7 9511463324881227667
57816373 69 18263076772940679255
58260988 114 18125720089783141608
6431902 208 18198895921453709918
7970288 3 18413105039628676834
86090 222 17967811678075804819

> <PUBCHEM_SHAPE_MULTIPOLES>
676.88
19.89
5.15
2.24
7.68
0.2
-0.72
32.29
6.69
-4.48
1.47
1.19
-0.77
1.31

> <PUBCHEM_SHAPE_SELFOVERLAP>
1395.583

> <PUBCHEM_SHAPE_VOLUME>
382.6

> <PUBCHEM_COORDINATE_TYPE>
2
5
10

$$$$
