45783392
  -OEChem-12032416263D

 54 57  0     1  0  0  0  0  0999 V2000
   -3.3174   -2.2611    2.6207 O   0  0  0  0  0  0  0  0  0  0  0  0
   -0.0801   -1.4287   -2.5116 O   0  0  0  0  0  0  0  0  0  0  0  0
    0.4425    3.0969    1.3397 O   0  0  0  0  0  0  0  0  0  0  0  0
   -2.5370    0.4288   -0.5068 N   0  0  1  0  0  0  0  0  0  0  0  0
    0.3724   -0.2152   -0.6843 N   0  0  0  0  0  0  0  0  0  0  0  0
    1.2323   -1.7522   -2.1445 N   0  0  0  0  0  0  0  0  0  0  0  0
    2.3473    1.2964    0.3408 N   0  0  0  0  0  0  0  0  0  0  0  0
    4.2826    0.1386    1.0573 N   0  0  0  0  0  0  0  0  0  0  0  0
   -3.1659   -0.6650    0.2295 C   0  0  0  0  0  0  0  0  0  0  0  0
   -1.9247   -0.0023   -1.7793 C   0  0  1  0  0  0  0  0  0  0  0  0
   -3.4910    1.4855   -0.8442 C   0  0  0  0  0  0  0  0  0  0  0  0
   -1.9937    1.2395   -2.6873 C   0  0  0  0  0  0  0  0  0  0  0  0
   -2.7140    2.2962   -1.8617 C   0  0  0  0  0  0  0  0  0  0  0  0
   -2.1337   -1.7464    0.5614 C   0  0  0  0  0  0  0  0  0  0  0  0
   -3.8247   -0.1567    1.5157 C   0  0  0  0  0  0  0  0  0  0  0  0
   -2.7608   -2.8277    1.4344 C   0  0  0  0  0  0  0  0  0  0  0  0
   -4.3581   -1.3262    2.3358 C   0  0  0  0  0  0  0  0  0  0  0  0
   -0.5121   -0.5178   -1.6006 C   0  0  0  0  0  0  0  0  0  0  0  0
    1.4262   -0.9969   -1.0591 C   0  0  0  0  0  0  0  0  0  0  0  0
    2.6602   -0.9987   -0.3281 C   0  0  0  0  0  0  0  0  0  0  0  0
    3.1246    0.1105    0.3602 C   0  0  0  0  0  0  0  0  0  0  0  0
    3.4341   -2.1537   -0.2991 C   0  0  0  0  0  0  0  0  0  0  0  0
    4.6318   -2.1637    0.4073 C   0  0  0  0  0  0  0  0  0  0  0  0
    2.7434    2.4867    1.0189 C   0  0  0  0  0  0  0  0  0  0  0  0
    5.0079   -1.0022    1.0627 C   0  0  0  0  0  0  0  0  0  0  0  0
    1.6879    3.5642    0.8370 C   0  0  0  0  0  0  0  0  0  0  0  0
   -0.5801    4.0711    1.1853 C   0  0  0  0  0  0  0  0  0  0  0  0
   -3.9508   -1.1243   -0.3895 H   0  0  0  0  0  0  0  0  0  0  0  0
   -2.5277   -0.7907   -2.2519 H   0  0  0  0  0  0  0  0  0  0  0  0
   -3.7541    2.1138    0.0121 H   0  0  0  0  0  0  0  0  0  0  0  0
   -4.4073    1.0866   -1.2974 H   0  0  0  0  0  0  0  0  0  0  0  0
   -1.0136    1.6033   -3.0143 H   0  0  0  0  0  0  0  0  0  0  0  0
   -2.5833    1.0092   -3.5831 H   0  0  0  0  0  0  0  0  0  0  0  0
   -3.3607    2.9302   -2.4754 H   0  0  0  0  0  0  0  0  0  0  0  0
   -1.9807    2.9396   -1.3627 H   0  0  0  0  0  0  0  0  0  0  0  0
   -1.7574   -2.2538   -0.3301 H   0  0  0  0  0  0  0  0  0  0  0  0
   -1.2927   -1.3068    1.1119 H   0  0  0  0  0  0  0  0  0  0  0  0
   -3.0847    0.3892    2.1156 H   0  0  0  0  0  0  0  0  0  0  0  0
   -4.6574    0.5238    1.3090 H   0  0  0  0  0  0  0  0  0  0  0  0
   -3.5401   -3.3771    0.8930 H   0  0  0  0  0  0  0  0  0  0  0  0
   -1.9971   -3.5510    1.7378 H   0  0  0  0  0  0  0  0  0  0  0  0
   -4.7496   -0.9627    3.2912 H   0  0  0  0  0  0  0  0  0  0  0  0
   -5.1765   -1.8385    1.8162 H   0  0  0  0  0  0  0  0  0  0  0  0
    3.1274   -3.0632   -0.8098 H   0  0  0  0  0  0  0  0  0  0  0  0
    1.7166    1.4023   -0.4471 H   0  0  0  0  0  0  0  0  0  0  0  0
    5.2505   -3.0529    0.4455 H   0  0  0  0  0  0  0  0  0  0  0  0
    2.8547    2.2781    2.0897 H   0  0  0  0  0  0  0  0  0  0  0  0
    3.7039    2.8511    0.6374 H   0  0  0  0  0  0  0  0  0  0  0  0
    5.9329   -0.9583    1.6281 H   0  0  0  0  0  0  0  0  0  0  0  0
    1.9879    4.4680    1.3797 H   0  0  0  0  0  0  0  0  0  0  0  0
    1.5817    3.8120   -0.2263 H   0  0  0  0  0  0  0  0  0  0  0  0
   -0.3546    4.9570    1.7868 H   0  0  0  0  0  0  0  0  0  0  0  0
   -0.6931    4.3515    0.1340 H   0  0  0  0  0  0  0  0  0  0  0  0
   -1.5219    3.6406    1.5363 H   0  0  0  0  0  0  0  0  0  0  0  0
  1 16  1  0  0  0  0
  1 17  1  0  0  0  0
  2  6  1  0  0  0  0
  2 18  1  0  0  0  0
  3 26  1  0  0  0  0
  3 27  1  0  0  0  0
  4  9  1  0  0  0  0
  4 10  1  0  0  0  0
  4 11  1  0  0  0  0
  5 18  2  0  0  0  0
  5 19  1  0  0  0  0
  6 19  2  0  0  0  0
  7 21  1  0  0  0  0
  7 24  1  0  0  0  0
  7 45  1  0  0  0  0
  8 21  1  0  0  0  0
  8 25  2  0  0  0  0
  9 14  1  0  0  0  0
  9 15  1  0  0  0  0
  9 28  1  0  0  0  0
 10 12  1  0  0  0  0
 10 18  1  0  0  0  0
 10 29  1  0  0  0  0
 11 13  1  0  0  0  0
 11 30  1  0  0  0  0
 11 31  1  0  0  0  0
 12 13  1  0  0  0  0
 12 32  1  0  0  0  0
 12 33  1  0  0  0  0
 13 34  1  0  0  0  0
 13 35  1  0  0  0  0
 14 16  1  0  0  0  0
 14 36  1  0  0  0  0
 14 37  1  0  0  0  0
 15 17  1  0  0  0  0
 15 38  1  0  0  0  0
 15 39  1  0  0  0  0
 16 40  1  0  0  0  0
 16 41  1  0  0  0  0
 17 42  1  0  0  0  0
 17 43  1  0  0  0  0
 19 20  1  0  0  0  0
 20 21  2  0  0  0  0
 20 22  1  0  0  0  0
 22 23  2  0  0  0  0
 22 44  1  0  0  0  0
 23 25  1  0  0  0  0
 23 46  1  0  0  0  0
 24 26  1  0  0  0  0
 24 47  1  0  0  0  0
 24 48  1  0  0  0  0
 25 49  1  0  0  0  0
 26 50  1  0  0  0  0
 26 51  1  0  0  0  0
 27 52  1  0  0  0  0
 27 53  1  0  0  0  0
 27 54  1  0  0  0  0
M  END
> <PUBCHEM_COMPOUND_CID>
45783392

> <PUBCHEM_CONFORMER_RMSD>
1

> <PUBCHEM_CONFORMER_DIVERSEORDER>
1
92
7
52
66
39
24
61
85
64
14
76
79
78
16
57
46
59
82
5
87
63
29
25
44
36
71
77
38
56
55
27
9
13
60
32
65
12
80
62
68
91
10
31
45
69
37
35
72
18
81
51
40
58
74
34
54
75
90
17
86
70
67
84
53
20
3
6
41
33
30
48
88
73
43
50
8
26
11
89
22
83
47
28
49
23
42
15
2
4
19
21

> <PUBCHEM_MMFF94_PARTIAL_CHARGES>
27
1 -0.56
10 0.45
11 0.27
16 0.28
17 0.28
18 0.3
19 0.46
2 -0.02
20 0.05
21 0.41
22 -0.15
23 -0.15
24 0.37
25 0.16
26 0.28
27 0.28
3 -0.56
4 -0.81
44 0.15
45 0.4
46 0.15
49 0.15
5 -0.57
6 -0.41
7 -0.87
8 -0.62
9 0.27

> <PUBCHEM_EFFECTIVE_ROTOR_COUNT>
9.2

> <PUBCHEM_PHARMACOPHORE_FEATURES>
11
1 1 acceptor
1 3 acceptor
1 4 cation
1 7 cation
1 7 donor
1 8 acceptor
3 5 6 19 cation
5 2 5 6 18 19 rings
5 4 10 11 12 13 rings
6 1 9 14 15 16 17 rings
6 8 20 21 22 23 25 rings

> <PUBCHEM_HEAVY_ATOM_COUNT>
27

> <PUBCHEM_ATOM_DEF_STEREO_COUNT>
1

> <PUBCHEM_ATOM_UDEF_STEREO_COUNT>
0

> <PUBCHEM_BOND_DEF_STEREO_COUNT>
0

> <PUBCHEM_BOND_UDEF_STEREO_COUNT>
0

> <PUBCHEM_ISOTOPIC_ATOM_COUNT>
0

> <PUBCHEM_COMPONENT_COUNT>
1

> <PUBCHEM_CACTVS_TAUTO_COUNT>
8

> <PUBCHEM_CONFORMER_ID>
02BA996000000001

> <PUBCHEM_MMFF94_ENERGY>
61.5735

> <PUBCHEM_FEATURE_SELFOVERLAP>
55.822

> <PUBCHEM_SHAPE_FINGERPRINT>
10366900 7 18188195550868408526
11370993 144 18409170982671491923
11552529 35 17676202468236921686
11640471 11 15626230061418945775
12293681 4 18339075969686558920
12403259 327 18260823748617916991
12422481 6 17487631731463336376
12633257 1 18341344373991731195
12788726 201 17836347277857722920
13583140 156 18409158926830342526
14363568 33 18268716189628569528
14790565 3 17909241909963160088
15295992 7 18410565167773678733
20554085 129 17244956296011237757
20600515 1 18042975259286143348
23559900 14 17749106716202987135
3459 110 18266175213307210043
469060 322 17330529447079254839
539174 4 17700129095524934409
602551 16 17386003927954479706

> <PUBCHEM_SHAPE_MULTIPOLES>
513.13
8.75
4.04
2.55
4.78
3.7
-0.67
-4.45
4.15
-0.1
2.26
-2.54
-0.28
3.22

> <PUBCHEM_SHAPE_SELFOVERLAP>
1086.435

> <PUBCHEM_SHAPE_VOLUME>
287.6

> <PUBCHEM_COORDINATE_TYPE>
2
5
10

$$$$
