11884011
  -OEChem-12032416383D

 54 58  0     1  0  0  0  0  0999 V2000
    8.0311   -2.5766   -1.6584 Cl  0  0  0  0  0  0  0  0  0  0  0  0
    4.7082    2.1438    0.7544 S   0  0  0  0  0  0  0  0  0  0  0  0
    0.2837    0.4719    1.1893 O   0  0  0  0  0  0  0  0  0  0  0  0
    2.0893   -1.9302    0.5326 O   0  0  0  0  0  0  0  0  0  0  0  0
   -1.4308   -1.4195    0.1046 O   0  0  0  0  0  0  0  0  0  0  0  0
    4.9817    2.2019    2.1776 O   0  0  0  0  0  0  0  0  0  0  0  0
    4.9504    3.3029   -0.0831 O   0  0  0  0  0  0  0  0  0  0  0  0
   -1.8363    0.1471   -1.5114 O   0  0  0  0  0  0  0  0  0  0  0  0
    3.1145    1.6136    0.5061 N   0  0  0  0  0  0  0  0  0  0  0  0
   -3.5393   -0.6496   -0.1165 N   0  0  0  0  0  0  0  0  0  0  0  0
    2.0926   -0.5674    0.0585 C   0  0  1  0  0  0  0  0  0  0  0  0
    0.6432   -0.1396   -0.0607 C   0  0  1  0  0  0  0  0  0  0  0  0
    2.6557    0.3447    1.1199 C   0  0  2  0  0  0  0  0  0  0  0  0
   -0.0712   -1.4537   -0.2664 C   0  0  1  0  0  0  0  0  0  0  0  0
    1.4553    0.6096    2.0077 C   0  0  0  0  0  0  0  0  0  0  0  0
    0.7328   -2.3926    0.6041 C   0  0  0  0  0  0  0  0  0  0  0  0
    5.6470    0.8102    0.0728 C   0  0  0  0  0  0  0  0  0  0  0  0
   -2.2486   -0.5614   -0.6012 C   0  0  0  0  0  0  0  0  0  0  0  0
    6.0186   -0.2424    0.8912 C   0  0  0  0  0  0  0  0  0  0  0  0
    5.9936    0.8431   -1.2669 C   0  0  0  0  0  0  0  0  0  0  0  0
   -4.6835    0.0552   -0.5546 C   0  0  0  0  0  0  0  0  0  0  0  0
    6.7595   -1.2947    0.3533 C   0  0  0  0  0  0  0  0  0  0  0  0
    6.7345   -0.2091   -1.8048 C   0  0  0  0  0  0  0  0  0  0  0  0
   -5.9321   -0.1451    0.0404 C   0  0  0  0  0  0  0  0  0  0  0  0
    7.1174   -1.2781   -0.9946 C   0  0  0  0  0  0  0  0  0  0  0  0
   -4.5103    0.9522   -1.6010 C   0  0  0  0  0  0  0  0  0  0  0  0
   -7.0422    0.5888   -0.4411 C   0  0  0  0  0  0  0  0  0  0  0  0
   -6.1139   -1.0505    1.0985 C   0  0  0  0  0  0  0  0  0  0  0  0
   -5.6021    1.6740   -2.0741 C   0  0  0  0  0  0  0  0  0  0  0  0
   -6.8605    1.4945   -1.4989 C   0  0  0  0  0  0  0  0  0  0  0  0
   -8.3016    0.3955    0.1497 C   0  0  0  0  0  0  0  0  0  0  0  0
   -7.3724   -1.2301    1.6733 C   0  0  0  0  0  0  0  0  0  0  0  0
   -8.4642   -0.5084    1.1998 C   0  0  0  0  0  0  0  0  0  0  0  0
    2.6314   -0.5489   -0.8940 H   0  0  0  0  0  0  0  0  0  0  0  0
    0.4857    0.5994   -0.8507 H   0  0  0  0  0  0  0  0  0  0  0  0
    3.4419   -0.1168    1.7190 H   0  0  0  0  0  0  0  0  0  0  0  0
    0.0263   -1.7765   -1.3117 H   0  0  0  0  0  0  0  0  0  0  0  0
    1.4580    1.6012    2.4706 H   0  0  0  0  0  0  0  0  0  0  0  0
    1.3824   -0.1410    2.8024 H   0  0  0  0  0  0  0  0  0  0  0  0
    0.4062   -2.3736    1.6500 H   0  0  0  0  0  0  0  0  0  0  0  0
    0.6795   -3.4292    0.2578 H   0  0  0  0  0  0  0  0  0  0  0  0
    2.5420    2.0142   -0.2465 H   0  0  0  0  0  0  0  0  0  0  0  0
   -3.6531   -1.3067    0.6462 H   0  0  0  0  0  0  0  0  0  0  0  0
    5.7587   -0.2725    1.9446 H   0  0  0  0  0  0  0  0  0  0  0  0
    5.6982    1.6616   -1.9159 H   0  0  0  0  0  0  0  0  0  0  0  0
    7.0524   -2.1204    0.9968 H   0  0  0  0  0  0  0  0  0  0  0  0
    7.0046   -0.1839   -2.8574 H   0  0  0  0  0  0  0  0  0  0  0  0
   -3.5819    1.1603   -2.1088 H   0  0  0  0  0  0  0  0  0  0  0  0
   -5.3071   -1.6443    1.5156 H   0  0  0  0  0  0  0  0  0  0  0  0
   -5.4769    2.3782   -2.8918 H   0  0  0  0  0  0  0  0  0  0  0  0
   -7.6998    2.0694   -1.8849 H   0  0  0  0  0  0  0  0  0  0  0  0
   -9.1690    0.9489   -0.2042 H   0  0  0  0  0  0  0  0  0  0  0  0
   -7.5005   -1.9333    2.4910 H   0  0  0  0  0  0  0  0  0  0  0  0
   -9.4437   -0.6486    1.6478 H   0  0  0  0  0  0  0  0  0  0  0  0
  1 25  1  0  0  0  0
  2  6  2  0  0  0  0
  2  7  2  0  0  0  0
  2  9  1  0  0  0  0
  2 17  1  0  0  0  0
  3 12  1  0  0  0  0
  3 15  1  0  0  0  0
  4 11  1  0  0  0  0
  4 16  1  0  0  0  0
  5 14  1  0  0  0  0
  5 18  1  0  0  0  0
  8 18  2  0  0  0  0
  9 13  1  0  0  0  0
  9 42  1  0  0  0  0
 10 18  1  0  0  0  0
 10 21  1  0  0  0  0
 10 43  1  0  0  0  0
 11 12  1  0  0  0  0
 11 13  1  0  0  0  0
 11 34  1  0  0  0  0
 12 14  1  0  0  0  0
 12 35  1  0  0  0  0
 13 15  1  0  0  0  0
 13 36  1  0  0  0  0
 14 16  1  0  0  0  0
 14 37  1  0  0  0  0
 15 38  1  0  0  0  0
 15 39  1  0  0  0  0
 16 40  1  0  0  0  0
 16 41  1  0  0  0  0
 17 19  2  0  0  0  0
 17 20  1  0  0  0  0
 19 22  1  0  0  0  0
 19 44  1  0  0  0  0
 20 23  2  0  0  0  0
 20 45  1  0  0  0  0
 21 24  1  0  0  0  0
 21 26  2  0  0  0  0
 22 25  2  0  0  0  0
 22 46  1  0  0  0  0
 23 25  1  0  0  0  0
 23 47  1  0  0  0  0
 24 27  1  0  0  0  0
 24 28  2  0  0  0  0
 26 29  1  0  0  0  0
 26 48  1  0  0  0  0
 27 30  1  0  0  0  0
 27 31  2  0  0  0  0
 28 32  1  0  0  0  0
 28 49  1  0  0  0  0
 29 30  2  0  0  0  0
 29 50  1  0  0  0  0
 30 51  1  0  0  0  0
 31 33  1  0  0  0  0
 31 52  1  0  0  0  0
 32 33  2  0  0  0  0
 32 53  1  0  0  0  0
 33 54  1  0  0  0  0
M  END
> <PUBCHEM_COMPOUND_CID>
11884011

> <PUBCHEM_CONFORMER_RMSD>
1

> <PUBCHEM_CONFORMER_DIVERSEORDER>
1
142
69
166
50
111
203
165
29
52
146
198
122
87
17
95
127
68
137
56
170
153
40
74
44
208
39
186
160
109
164
206
22
150
151
62
14
182
162
79
172
157
26
119
43
191
27
7
60
148
147
158
83
178
48
159
54
134
13
89
205
3
10
121
201
132
88
114
35
189
101
107
86
91
152
15
66
207
116
179
154
98
9
30
199
90
176
2
96
149
84
55
196
45
23
36
112
80
138
77
71
210
6
195
209
204
123
34
129
92
21
184
118
187
115
135
193
46
75
130
194
38
177
167
12
37
161
156
70
141
61
24
175
128
105
53
168
185
67
124
28
31
78
103
8
180
120
145
93
11
73
5
174
190
4
173
25
85
171
108
81
197
33
49
58
181
99
163
100
42
144
18
82
192
97
139
76
117
57
155
51
41
65
125
126
32
20
183
47
72
16
59
113
188
202
104
131
64
200
133
140
110
19
106
136
102
63
94
143
169

> <PUBCHEM_MMFF94_PARTIAL_CHARGES>
44
1 -0.18
10 -0.55
11 0.28
12 0.28
13 0.36
14 0.28
15 0.28
16 0.28
17 -0.01
18 0.78
19 -0.15
2 1.45
20 -0.15
21 0.12
22 -0.15
23 -0.15
25 0.18
26 -0.15
28 -0.15
29 -0.15
3 -0.56
30 -0.15
31 -0.15
32 -0.15
33 -0.15
4 -0.56
42 0.42
43 0.37
44 0.15
45 0.15
46 0.15
47 0.15
48 0.15
49 0.15
5 -0.43
50 0.15
51 0.15
52 0.15
53 0.15
54 0.15
6 -0.65
7 -0.65
8 -0.57
9 -0.91

> <PUBCHEM_EFFECTIVE_ROTOR_COUNT>
8.2

> <PUBCHEM_PHARMACOPHORE_FEATURES>
12
1 10 donor
1 3 acceptor
1 4 acceptor
1 6 acceptor
1 7 acceptor
1 8 acceptor
1 9 donor
5 3 11 12 13 15 rings
5 4 11 12 14 16 rings
6 17 19 20 22 23 25 rings
6 21 24 26 27 29 30 rings
6 24 27 28 31 32 33 rings

> <PUBCHEM_HEAVY_ATOM_COUNT>
33

> <PUBCHEM_ATOM_DEF_STEREO_COUNT>
4

> <PUBCHEM_ATOM_UDEF_STEREO_COUNT>
0

> <PUBCHEM_BOND_DEF_STEREO_COUNT>
0

> <PUBCHEM_BOND_UDEF_STEREO_COUNT>
0

> <PUBCHEM_ISOTOPIC_ATOM_COUNT>
0

> <PUBCHEM_COMPONENT_COUNT>
1

> <PUBCHEM_CACTVS_TAUTO_COUNT>
2

> <PUBCHEM_CONFORMER_ID>
00B555EB00000001

> <PUBCHEM_MMFF94_ENERGY>
90.2502

> <PUBCHEM_FEATURE_SELFOVERLAP>
61.656

> <PUBCHEM_SHAPE_FINGERPRINT>
10 15 18040149631057562451
10554248 39 17489308624456764964
10842051 180 12973609928221277862
11135926 11 17775284937658412575
11146346 171 17968386658095543475
11315181 36 10737284646229408767
11374522 175 17986399888790984190
11796584 16 13254793568277781653
11828422 8 16984888007276527384
11991303 11 18130502049961557807
12144600 37 18339367477781407947
12373685 5 15625643012894136726
13835254 42 11747480719261454542
13914758 101 14549020979098247299
14068700 675 14548737317898787963
14251764 18 15068623794843427585
1454969 45 14634869755856915971
14849402 71 15719402762423629901
14933364 13 18186236238643877137
150020 25 18259985955412553005
15119646 104 15985109595909925116
15183329 4 15913333523777206649
15301273 46 17967813855744828007
15328684 2 15502647157453666237
15328829 1 17060343980827317154
15728490 51 12107796215378970656
1577012 14 16558747970210186817
17686467 74 16153717552815118773
18608769 82 18187086170181252435
19309040 13 17911519019628685420
19377110 9 14851598860989881285
19611394 137 17677062347224094273
20105231 36 18408609145167938715
21033648 29 18263634242531486480
21781051 124 18113059333442930122
21792961 116 18339643343356288971
22224240 67 13262399964022661512
3009799 131 10952053359661147935
3986486 107 17168157689865804278
44317340 157 18200874084315719444
44426699 60 17385447597310780306
4760202 70 15575572399805656631
5085150 59 12535346805272080629
5104073 3 17896027772929222673
5223283 242 18341618109996731636
5758199 1 15140963945715123265
6698420 124 17988650718173558115
9689198 14 18259985993861770373

> <PUBCHEM_SHAPE_MULTIPOLES>
639.67
28.24
2.32
1.82
16.78
0.51
0.06
-1.56
4.37
-3.66
-0.04
-0.37
0.42
4.46

> <PUBCHEM_SHAPE_SELFOVERLAP>
1386.653

> <PUBCHEM_SHAPE_VOLUME>
351

> <PUBCHEM_COORDINATE_TYPE>
2
5
10

$$$$
