11913093
  -OEChem-12032416123D

 59 62  0     1  0  0  0  0  0999 V2000
    0.1883   -0.3251   -1.4422 O   0  0  0  0  0  0  0  0  0  0  0  0
   -1.5774   -2.3734    0.0068 O   0  0  0  0  0  0  0  0  0  0  0  0
    1.9420   -1.7293    0.1869 O   0  0  0  0  0  0  0  0  0  0  0  0
    2.3527    0.2910    1.1766 O   0  0  0  0  0  0  0  0  0  0  0  0
    8.7228   -0.1081   -0.6277 O   0  0  0  0  0  0  0  0  0  0  0  0
   -2.6300    0.9487   -1.1251 N   0  0  0  0  0  0  0  0  0  0  0  0
   -4.7118    0.2864   -0.2690 N   0  0  0  0  0  0  0  0  0  0  0  0
   -4.1646    2.6192   -0.5248 N   0  0  0  0  0  0  0  0  0  0  0  0
    4.0448   -0.9183    0.1018 N   0  0  0  0  0  0  0  0  0  0  0  0
   -1.5892   -0.9303    0.0061 C   0  0  1  0  0  0  0  0  0  0  0  0
   -0.1432   -0.4797   -0.0526 C   0  0  1  0  0  0  0  0  0  0  0  0
   -2.1840   -0.4187   -1.2849 C   0  0  2  0  0  0  0  0  0  0  0  0
    0.5881   -1.6445    0.5704 C   0  0  1  0  0  0  0  0  0  0  0  0
   -0.9996   -0.4792   -2.2339 C   0  0  0  0  0  0  0  0  0  0  0  0
   -0.2176   -2.8260    0.0791 C   0  0  0  0  0  0  0  0  0  0  0  0
   -3.8727    1.2952   -0.6246 C   0  0  0  0  0  0  0  0  0  0  0  0
    2.7602   -0.6797    0.5502 C   0  0  0  0  0  0  0  0  0  0  0  0
   -6.8480   -0.4347    0.6104 C   0  0  0  0  0  0  0  0  0  0  0  0
   -5.9145    0.6598    0.2151 C   0  0  0  0  0  0  0  0  0  0  0  0
   -6.3092    1.9745    0.3573 C   0  0  0  0  0  0  0  0  0  0  0  0
   -5.3841    2.9211   -0.0328 C   0  0  0  0  0  0  0  0  0  0  0  0
   -7.2257   -0.3377    2.1210 C   0  0  0  0  0  0  0  0  0  0  0  0
   -6.3022   -1.8872    0.4101 C   0  0  0  0  0  0  0  0  0  0  0  0
   -8.1729   -0.3717   -0.2109 C   0  0  0  0  0  0  0  0  0  0  0  0
    5.1874   -0.1011    0.2590 C   0  0  0  0  0  0  0  0  0  0  0  0
    6.3990   -0.5184   -0.2688 C   0  0  0  0  0  0  0  0  0  0  0  0
    5.0735    1.1021    0.9371 C   0  0  0  0  0  0  0  0  0  0  0  0
    7.5261    0.2886   -0.1144 C   0  0  0  0  0  0  0  0  0  0  0  0
    6.2006    1.9091    1.0915 C   0  0  0  0  0  0  0  0  0  0  0  0
    7.4270    1.5023    0.5659 C   0  0  0  0  0  0  0  0  0  0  0  0
    9.8341    0.7654   -0.4334 C   0  0  0  0  0  0  0  0  0  0  0  0
   -2.1039   -0.6061    0.9161 H   0  0  0  0  0  0  0  0  0  0  0  0
    0.0184    0.4837    0.4382 H   0  0  0  0  0  0  0  0  0  0  0  0
   -2.9912   -1.0472   -1.6785 H   0  0  0  0  0  0  0  0  0  0  0  0
    0.5087   -1.5981    1.6649 H   0  0  0  0  0  0  0  0  0  0  0  0
   -0.9377   -1.4597   -2.7189 H   0  0  0  0  0  0  0  0  0  0  0  0
   -1.0157    0.2877   -3.0145 H   0  0  0  0  0  0  0  0  0  0  0  0
    0.0979   -3.1607   -0.9155 H   0  0  0  0  0  0  0  0  0  0  0  0
   -0.1518   -3.6839    0.7550 H   0  0  0  0  0  0  0  0  0  0  0  0
   -1.9933    1.7084   -1.3377 H   0  0  0  0  0  0  0  0  0  0  0  0
    4.1888   -1.7887   -0.4044 H   0  0  0  0  0  0  0  0  0  0  0  0
   -7.2737    2.2736    0.7455 H   0  0  0  0  0  0  0  0  0  0  0  0
   -7.7471    0.5973    2.3537 H   0  0  0  0  0  0  0  0  0  0  0  0
   -7.8869   -1.1593    2.4199 H   0  0  0  0  0  0  0  0  0  0  0  0
   -6.3285   -0.3816    2.7496 H   0  0  0  0  0  0  0  0  0  0  0  0
   -5.3897   -2.0470    0.9965 H   0  0  0  0  0  0  0  0  0  0  0  0
   -6.0568   -2.0716   -0.6424 H   0  0  0  0  0  0  0  0  0  0  0  0
   -7.0349   -2.6413    0.7196 H   0  0  0  0  0  0  0  0  0  0  0  0
   -7.9676   -0.4407   -1.2858 H   0  0  0  0  0  0  0  0  0  0  0  0
   -8.7182    0.5625   -0.0377 H   0  0  0  0  0  0  0  0  0  0  0  0
   -8.8470   -1.1937    0.0565 H   0  0  0  0  0  0  0  0  0  0  0  0
   -5.6044    3.9806    0.0418 H   0  0  0  0  0  0  0  0  0  0  0  0
    6.4811   -1.4634   -0.7998 H   0  0  0  0  0  0  0  0  0  0  0  0
    4.1604    1.4834    1.3706 H   0  0  0  0  0  0  0  0  0  0  0  0
    6.1236    2.8544    1.6211 H   0  0  0  0  0  0  0  0  0  0  0  0
    8.2615    2.1773    0.7221 H   0  0  0  0  0  0  0  0  0  0  0  0
   10.7023    0.2936   -0.9051 H   0  0  0  0  0  0  0  0  0  0  0  0
    9.6819    1.7276   -0.9340 H   0  0  0  0  0  0  0  0  0  0  0  0
   10.0724    0.8832    0.6291 H   0  0  0  0  0  0  0  0  0  0  0  0
  1 11  1  0  0  0  0
  1 14  1  0  0  0  0
  2 10  1  0  0  0  0
  2 15  1  0  0  0  0
  3 13  1  0  0  0  0
  3 17  1  0  0  0  0
  4 17  2  0  0  0  0
  5 28  1  0  0  0  0
  5 31  1  0  0  0  0
  6 12  1  0  0  0  0
  6 16  1  0  0  0  0
  6 40  1  0  0  0  0
  7 16  1  0  0  0  0
  7 19  2  0  0  0  0
  8 16  2  0  0  0  0
  8 21  1  0  0  0  0
  9 17  1  0  0  0  0
  9 25  1  0  0  0  0
  9 41  1  0  0  0  0
 10 11  1  0  0  0  0
 10 12  1  0  0  0  0
 10 32  1  0  0  0  0
 11 13  1  0  0  0  0
 11 33  1  0  0  0  0
 12 14  1  0  0  0  0
 12 34  1  0  0  0  0
 13 15  1  0  0  0  0
 13 35  1  0  0  0  0
 14 36  1  0  0  0  0
 14 37  1  0  0  0  0
 15 38  1  0  0  0  0
 15 39  1  0  0  0  0
 18 19  1  0  0  0  0
 18 22  1  0  0  0  0
 18 23  1  0  0  0  0
 18 24  1  0  0  0  0
 19 20  1  0  0  0  0
 20 21  2  0  0  0  0
 20 42  1  0  0  0  0
 21 52  1  0  0  0  0
 22 43  1  0  0  0  0
 22 44  1  0  0  0  0
 22 45  1  0  0  0  0
 23 46  1  0  0  0  0
 23 47  1  0  0  0  0
 23 48  1  0  0  0  0
 24 49  1  0  0  0  0
 24 50  1  0  0  0  0
 24 51  1  0  0  0  0
 25 26  2  0  0  0  0
 25 27  1  0  0  0  0
 26 28  1  0  0  0  0
 26 53  1  0  0  0  0
 27 29  2  0  0  0  0
 27 54  1  0  0  0  0
 28 30  2  0  0  0  0
 29 30  1  0  0  0  0
 29 55  1  0  0  0  0
 30 56  1  0  0  0  0
 31 57  1  0  0  0  0
 31 58  1  0  0  0  0
 31 59  1  0  0  0  0
M  END
> <PUBCHEM_COMPOUND_CID>
11913093

> <PUBCHEM_CONFORMER_RMSD>
1.2

> <PUBCHEM_CONFORMER_DIVERSEORDER>
1
28
173
117
139
65
199
168
73
64
194
113
63
227
181
12
165
68
76
228
241
122
128
120
27
197
224
230
226
103
82
46
207
127
185
67
56
118
49
223
176
175
209
6
41
144
39
86
242
164
59
97
134
115
111
141
183
233
55
213
162
208
131
238
116
78
153
42
91
172
51
106
157
210
222
79
205
87
100
155
192
119
156
191
5
186
229
75
235
190
37
152
138
105
62
29
221
232
206
219
132
110
19
148
80
166
25
231
33
201
8
145
17
99
149
9
90
243
23
112
24
60
40
236
85
20
187
239
161
214
129
167
184
225
240
13
77
237
196
180
95
44
195
50
217
189
89
193
171
21
34
178
35
160
150
102
146
198
94
61
10
125
81
204
163
140
7
218
136
158
104
137
234
174
170
38
212
203
66
130
220
83
93
135
47
151
45
16
98
216
188
70
72
4
215
92
147
54
43
123
108
48
109
169
14
11
53
200
126
32
142
15
69
143
30
71
18
26
74
107
182
177
36
101
133
159
179
154
124
96
88
58
31
211
2
52
114
121
57
84
202
22
3

> <PUBCHEM_MMFF94_PARTIAL_CHARGES>
36
1 -0.56
10 0.28
11 0.28
12 0.37
13 0.28
14 0.28
15 0.28
16 0.72
17 0.78
18 0.14
19 0.17
2 -0.56
20 -0.15
21 0.16
25 0.12
26 -0.15
27 -0.15
28 0.08
29 -0.15
3 -0.43
30 -0.15
31 0.28
4 -0.57
40 0.4
41 0.37
42 0.15
5 -0.36
52 0.15
53 0.15
54 0.15
55 0.15
56 0.15
6 -0.87
7 -0.62
8 -0.62
9 -0.55

> <PUBCHEM_EFFECTIVE_ROTOR_COUNT>
9.2

> <PUBCHEM_PHARMACOPHORE_FEATURES>
13
1 1 acceptor
1 2 acceptor
1 4 acceptor
1 5 acceptor
1 6 donor
1 7 acceptor
1 9 donor
4 18 22 23 24 hydrophobe
4 6 7 8 16 cation
5 1 10 11 12 14 rings
5 2 10 11 13 15 rings
6 25 26 27 28 29 30 rings
6 7 8 16 19 20 21 rings

> <PUBCHEM_HEAVY_ATOM_COUNT>
31

> <PUBCHEM_ATOM_DEF_STEREO_COUNT>
4

> <PUBCHEM_ATOM_UDEF_STEREO_COUNT>
0

> <PUBCHEM_BOND_DEF_STEREO_COUNT>
0

> <PUBCHEM_BOND_UDEF_STEREO_COUNT>
0

> <PUBCHEM_ISOTOPIC_ATOM_COUNT>
0

> <PUBCHEM_COMPONENT_COUNT>
1

> <PUBCHEM_CACTVS_TAUTO_COUNT>
6

> <PUBCHEM_CONFORMER_ID>
00B5C78500000001

> <PUBCHEM_MMFF94_ENERGY>
110.8597

> <PUBCHEM_FEATURE_SELFOVERLAP>
66.687

> <PUBCHEM_SHAPE_FINGERPRINT>
10 15 18187363224924290387
10165383 225 18409448089714078018
10369192 42 18272086089260441055
10577160 183 12895086080124497607
106641 1 17458347450564932411
10670039 82 14979958039350900427
10674148 151 12535347891523986647
11135609 99 16516545437783439563
11200772 48 12103842371950837677
11211813 128 18341054099086375651
11315181 36 18187081738175676181
11456790 92 18337660942062763408
11991303 11 17203319057234170863
12104220 1 18261107504945221423
12144600 37 18339646646255283086
12202916 173 9367345942631114208
12539745 222 16271363158152480119
12643181 29 9943804482857205073
13740195 50 17967535718258419608
13914758 101 12103851159052445808
14251764 18 17821446867881647650
14279260 333 10159706785416114821
14294032 229 18040428893509210462
14849402 71 18337392741902328469
14856354 85 18270675480847360191
14933364 13 18341892987322913608
15183329 4 16200428053072704752
15188451 53 10807939267614218906
15728490 51 16950567705049480739
15849732 13 18409730668428708180
16126227 98 18410572928853318544
18603816 31 12901834960622811217
18608769 82 18412543249495767083
19611394 137 18115035224536122881
21365058 27 17418093218051115479
21585482 111 18265613169687762645
21756936 100 18342167873909619319
21792961 116 17917715682499640418
22224240 67 17749106686154260867
24771293 8 18187368701181757373
249057 3 16845569842708671552
3009799 131 11455888065898712814
3092352 35 17131833174946303087
4098825 35 18202844353328954726
4403749 210 18186514385616896223
444769 64 10879994688124570935
5104073 3 18042114380278310307
5385378 56 18113893815967026354
563151 40 16343411887034342535
5758199 1 18259703389102978299
59521660 218 16916798331775351182
59682541 35 17676210190513981177
6126387 218 8214146252390475846
6703917 75 18335428971306221290
9689198 14 18271808999361131300
9953998 17 18187368714820974409

> <PUBCHEM_SHAPE_MULTIPOLES>
588.69
28.27
2.41
1.28
31.96
0.4
-0.15
10.83
4.48
-2.66
0.17
-0.99
-0.01
1.22

> <PUBCHEM_SHAPE_SELFOVERLAP>
1263.075

> <PUBCHEM_SHAPE_VOLUME>
325.4

> <PUBCHEM_COORDINATE_TYPE>
2
5
10

$$$$
