56775959
  -OEChem-12032416273D

 36 38  0     1  0  0  0  0  0999 V2000
    6.8087   -1.0449   -0.2728 F   0  0  0  0  0  0  0  0  0  0  0  0
    5.2524   -0.0178   -1.4123 F   0  0  0  0  0  0  0  0  0  0  0  0
    6.2702    1.0045    0.2621 F   0  0  0  0  0  0  0  0  0  0  0  0
   -6.1274   -1.2092   -0.8979 O   0  0  0  0  0  0  0  0  0  0  0  0
    4.8151   -0.6979    0.7271 O   0  0  0  0  0  0  0  0  0  0  0  0
   -4.9312    0.4744    1.0658 N   0  0  0  0  0  0  0  0  0  0  0  0
   -1.5971   -0.2974    0.2384 N   0  0  0  0  0  0  0  0  0  0  0  0
   -2.5497    1.4892   -0.6740 N   0  0  0  0  0  0  0  0  0  0  0  0
   -4.1103   -0.3303    0.1444 C   0  0  1  0  0  0  0  0  0  0  0  0
   -4.8757   -0.5721   -1.1652 C   0  0  0  0  0  0  0  0  0  0  0  0
   -2.7652    0.3198   -0.1138 C   0  0  0  0  0  0  0  0  0  0  0  0
   -6.2340   -0.1585    1.2807 C   0  0  0  0  0  0  0  0  0  0  0  0
   -6.9376   -0.3957   -0.0488 C   0  0  0  0  0  0  0  0  0  0  0  0
   -0.5716    0.5315   -0.1201 C   0  0  0  0  0  0  0  0  0  0  0  0
   -1.1842    1.6273   -0.6810 C   0  0  0  0  0  0  0  0  0  0  0  0
    0.8155    0.2151    0.0968 C   0  0  0  0  0  0  0  0  0  0  0  0
    1.7388    1.2382    0.3134 C   0  0  0  0  0  0  0  0  0  0  0  0
    1.2366   -1.1147    0.0913 C   0  0  0  0  0  0  0  0  0  0  0  0
    3.0830    0.9315    0.5243 C   0  0  0  0  0  0  0  0  0  0  0  0
    2.5809   -1.4215    0.3021 C   0  0  0  0  0  0  0  0  0  0  0  0
    3.5040   -0.3983    0.5186 C   0  0  0  0  0  0  0  0  0  0  0  0
    5.7790   -0.1731   -0.1790 C   0  0  0  0  0  0  0  0  0  0  0  0
   -3.9375   -1.3023    0.6272 H   0  0  0  0  0  0  0  0  0  0  0  0
   -5.0522    0.3583   -1.7206 H   0  0  0  0  0  0  0  0  0  0  0  0
   -4.3029   -1.2359   -1.8225 H   0  0  0  0  0  0  0  0  0  0  0  0
   -5.0819    1.3961    0.6536 H   0  0  0  0  0  0  0  0  0  0  0  0
   -6.8483    0.4797    1.9242 H   0  0  0  0  0  0  0  0  0  0  0  0
   -6.0873   -1.1093    1.8068 H   0  0  0  0  0  0  0  0  0  0  0  0
   -7.1729    0.5465   -0.5585 H   0  0  0  0  0  0  0  0  0  0  0  0
   -7.8806   -0.9260    0.1182 H   0  0  0  0  0  0  0  0  0  0  0  0
   -1.5164   -1.1980    0.6921 H   0  0  0  0  0  0  0  0  0  0  0  0
   -0.7204    2.5117   -1.0946 H   0  0  0  0  0  0  0  0  0  0  0  0
    1.4353    2.2821    0.3302 H   0  0  0  0  0  0  0  0  0  0  0  0
    0.5441   -1.9339   -0.0855 H   0  0  0  0  0  0  0  0  0  0  0  0
    3.7900    1.7374    0.7004 H   0  0  0  0  0  0  0  0  0  0  0  0
    2.9039   -2.4589    0.2944 H   0  0  0  0  0  0  0  0  0  0  0  0
  1 22  1  0  0  0  0
  2 22  1  0  0  0  0
  3 22  1  0  0  0  0
  4 10  1  0  0  0  0
  4 13  1  0  0  0  0
  5 21  1  0  0  0  0
  5 22  1  0  0  0  0
  6  9  1  0  0  0  0
  6 12  1  0  0  0  0
  6 26  1  0  0  0  0
  7 11  1  0  0  0  0
  7 14  1  0  0  0  0
  7 31  1  0  0  0  0
  8 11  2  0  0  0  0
  8 15  1  0  0  0  0
  9 10  1  0  0  0  0
  9 11  1  0  0  0  0
  9 23  1  0  0  0  0
 10 24  1  0  0  0  0
 10 25  1  0  0  0  0
 12 13  1  0  0  0  0
 12 27  1  0  0  0  0
 12 28  1  0  0  0  0
 13 29  1  0  0  0  0
 13 30  1  0  0  0  0
 14 15  2  0  0  0  0
 14 16  1  0  0  0  0
 15 32  1  0  0  0  0
 16 17  2  0  0  0  0
 16 18  1  0  0  0  0
 17 19  1  0  0  0  0
 17 33  1  0  0  0  0
 18 20  2  0  0  0  0
 18 34  1  0  0  0  0
 19 21  2  0  0  0  0
 19 35  1  0  0  0  0
 20 21  1  0  0  0  0
 20 36  1  0  0  0  0
M  END
> <PUBCHEM_COMPOUND_CID>
56775959

> <PUBCHEM_CONFORMER_RMSD>
0.8

> <PUBCHEM_CONFORMER_DIVERSEORDER>
1
12
14
13
9
8
18
4
16
5
11
10
17
6
15
3
2
7

> <PUBCHEM_MMFF94_PARTIAL_CHARGES>
29
1 -0.34
10 0.28
11 0.01
12 0.27
13 0.28
14 -0.2
15 0.08
16 0.05
17 -0.15
18 -0.15
19 -0.15
2 -0.34
20 -0.15
21 0.08
22 1.3
26 0.36
3 -0.34
31 0.27
32 0.15
33 0.15
34 0.15
35 0.15
36 0.15
4 -0.56
5 -0.36
6 -0.9
7 0.03
8 -0.57
9 0.45

> <PUBCHEM_EFFECTIVE_ROTOR_COUNT>
5.2

> <PUBCHEM_PHARMACOPHORE_FEATURES>
9
1 4 acceptor
1 5 acceptor
1 6 cation
1 6 donor
1 7 donor
3 7 8 11 cation
5 7 8 11 14 15 rings
6 16 17 18 19 20 21 rings
6 4 6 9 10 12 13 rings

> <PUBCHEM_HEAVY_ATOM_COUNT>
22

> <PUBCHEM_ATOM_DEF_STEREO_COUNT>
1

> <PUBCHEM_ATOM_UDEF_STEREO_COUNT>
0

> <PUBCHEM_BOND_DEF_STEREO_COUNT>
0

> <PUBCHEM_BOND_UDEF_STEREO_COUNT>
0

> <PUBCHEM_ISOTOPIC_ATOM_COUNT>
0

> <PUBCHEM_COMPONENT_COUNT>
1

> <PUBCHEM_CACTVS_TAUTO_COUNT>
2

> <PUBCHEM_CONFORMER_ID>
0362551700000001

> <PUBCHEM_MMFF94_ENERGY>
46.3626

> <PUBCHEM_FEATURE_SELFOVERLAP>
45.673

> <PUBCHEM_SHAPE_FINGERPRINT>
10 15 18041553741819199312
10087517 78 11242240849631840255
10299344 5 18131071536680583566
10366900 7 18260546723116471297
10968037 39 18114180843903524359
11089746 13 11530485527501842743
11315181 36 17846779633587844865
11524674 6 16343699950279979335
11796584 16 12751231519998045724
11963148 33 18186515531472390522
12091667 2 18335138683620744809
12107183 9 17339859473947156915
12166972 35 18201439198716906864
12236239 1 17418375804648297408
12403259 415 18339067246487122528
12516196 113 18408039619735085957
12596602 18 16917345969932744475
12616971 3 14836112290983621889
12916748 109 18410011023157419680
13288520 33 18341891901302829773
13862211 1 18409724050232082578
14123256 10 18113617889407099030
1420 363 18187085052740324995
14251718 22 15936410039534674793
14251764 18 17988925595473482769
14251764 46 17603867805953297546
14350574 20 18408319986335817292
14617045 38 18409168805065342651
14849402 71 17702660106994589160
14933364 13 16415479363163990794
15142383 8 14764350409949597538
15348495 7 15123214585458937831
15537594 2 18410288112471751023
15716309 27 18273214196833214103
18006028 8 18409165515774281237
18222031 100 18113609110193629461
19489759 90 13479132385134129623
200 152 18411974754939864121
20281389 69 12535624972960072275
20645477 56 12607402183264580121
21150785 3 15140962867989574635
21267235 1 18410577279391373669
21344244 181 17774453707052865878
21521721 280 18341896333487572536
21641784 216 17895487925067505500
22224240 67 18201715167497784922
23035841 295 18131069329020083038
23402539 116 17749387036086838725
23522609 53 18195837156755960552
23536379 177 16271930406354495379
23559900 14 18041278893259620721
246663 6 18343869896793373390
2767999 5 9439403523319215075
3009799 131 13551192190542352879
34797466 226 18411146848781150140
351380 3 18412258441534666343
4325135 7 18260267442957842838
4340502 62 14836126559128587132
4463277 17 18409448081176773881
5104073 3 18263635165590772376
5385378 56 10591779691855458021
542803 24 16917064460327100712
59755656 215 18334294245036058334
59755656 520 13830123980432851261
9862886 166 16443353095831044427

> <PUBCHEM_SHAPE_MULTIPOLES>
404.25
18.16
1.3
0.98
1.33
0.18
0.04
-4.36
0.14
-0.36
0.11
0.74
-0.02
-0.15

> <PUBCHEM_SHAPE_SELFOVERLAP>
872.847

> <PUBCHEM_SHAPE_VOLUME>
223.3

> <PUBCHEM_COORDINATE_TYPE>
2
5
10

$$$$
