38028091
  -OEChem-12032416413D

 67 69  0     1  0  0  0  0  0999 V2000
    2.6030    0.3911   -0.2914 S   0  0  0  0  0  0  0  0  0  0  0  0
   -4.9139   -0.6949    0.2918 O   0  0  0  0  0  0  0  0  0  0  0  0
   -4.7912    4.2487    0.3683 O   0  0  0  0  0  0  0  0  0  0  0  0
    2.5397    0.5790    1.1447 O   0  0  0  0  0  0  0  0  0  0  0  0
    2.5473    1.5271   -1.1914 O   0  0  0  0  0  0  0  0  0  0  0  0
    1.4249   -0.7468   -0.7777 N   0  0  0  0  0  0  0  0  0  0  0  0
   -4.5086    1.5198   -0.2750 N   0  0  0  0  0  0  0  0  0  0  0  0
   -0.8161   -1.8890    0.8511 C   0  0  1  0  0  0  0  0  0  0  0  0
    0.0504   -2.6762   -0.1638 C   0  0  1  0  0  0  0  0  0  0  0  0
   -2.3079   -2.1654    0.6102 C   0  0  0  0  0  0  0  0  0  0  0  0
   -2.7500   -1.7773   -0.8134 C   0  0  2  0  0  0  0  0  0  0  0  0
   -0.4516   -2.2345    2.2984 C   0  0  0  0  0  0  0  0  0  0  0  0
   -1.7877   -2.2956   -1.8629 C   0  0  0  0  0  0  0  0  0  0  0  0
   -0.5452   -2.7055   -1.5518 C   0  0  0  0  0  0  0  0  0  0  0  0
    1.4739   -2.1116   -0.2306 C   0  0  0  0  0  0  0  0  0  0  0  0
   -2.9353   -0.2610   -0.9400 C   0  0  0  0  0  0  0  0  0  0  0  0
   -0.8353   -1.0903    3.2313 C   0  0  0  0  0  0  0  0  0  0  0  0
   -1.1333   -3.5310    2.7236 C   0  0  0  0  0  0  0  0  0  0  0  0
   -2.3025   -2.3752   -3.2731 C   0  0  0  0  0  0  0  0  0  0  0  0
   -4.2095    0.1593   -0.2520 C   0  0  0  0  0  0  0  0  0  0  0  0
   -3.7637    2.5425   -1.0172 C   0  0  0  0  0  0  0  0  0  0  0  0
   -5.7235    2.0136    0.3730 C   0  0  0  0  0  0  0  0  0  0  0  0
    4.0932   -0.5060   -0.6606 C   0  0  0  0  0  0  0  0  0  0  0  0
   -3.5443    3.7722   -0.1448 C   0  0  0  0  0  0  0  0  0  0  0  0
   -5.4192    3.2611    1.1902 C   0  0  0  0  0  0  0  0  0  0  0  0
    5.2536    0.3641   -0.2875 C   0  0  0  0  0  0  0  0  0  0  0  0
    5.5749    0.5593    1.0558 C   0  0  0  0  0  0  0  0  0  0  0  0
    6.0130    0.9790   -1.2827 C   0  0  0  0  0  0  0  0  0  0  0  0
    6.6557    1.3697    1.4039 C   0  0  0  0  0  0  0  0  0  0  0  0
    7.0938    1.7893   -0.9348 C   0  0  0  0  0  0  0  0  0  0  0  0
    7.4151    1.9846    0.4086 C   0  0  0  0  0  0  0  0  0  0  0  0
   -0.6395   -0.8167    0.7045 H   0  0  0  0  0  0  0  0  0  0  0  0
    0.1301   -3.7225    0.1568 H   0  0  0  0  0  0  0  0  0  0  0  0
   -2.9229   -1.6584    1.3593 H   0  0  0  0  0  0  0  0  0  0  0  0
   -2.5222   -3.2381    0.7033 H   0  0  0  0  0  0  0  0  0  0  0  0
   -3.7080   -2.2842   -0.9969 H   0  0  0  0  0  0  0  0  0  0  0  0
    0.6296   -2.3731    2.3991 H   0  0  0  0  0  0  0  0  0  0  0  0
    0.0865   -3.1127   -2.3390 H   0  0  0  0  0  0  0  0  0  0  0  0
    2.0943   -2.7290   -0.8913 H   0  0  0  0  0  0  0  0  0  0  0  0
    1.9425   -2.1160    0.7566 H   0  0  0  0  0  0  0  0  0  0  0  0
   -3.0293    0.0274   -1.9927 H   0  0  0  0  0  0  0  0  0  0  0  0
   -2.0898    0.2848   -0.5104 H   0  0  0  0  0  0  0  0  0  0  0  0
   -1.9123   -0.8961    3.2319 H   0  0  0  0  0  0  0  0  0  0  0  0
   -0.3237   -0.1647    2.9462 H   0  0  0  0  0  0  0  0  0  0  0  0
   -0.5429   -1.3227    4.2613 H   0  0  0  0  0  0  0  0  0  0  0  0
   -2.2097   -3.4172    2.8896 H   0  0  0  0  0  0  0  0  0  0  0  0
   -0.7172   -3.8572    3.6849 H   0  0  0  0  0  0  0  0  0  0  0  0
   -0.9609   -4.3502    2.0193 H   0  0  0  0  0  0  0  0  0  0  0  0
   -3.2255   -2.9631   -3.3084 H   0  0  0  0  0  0  0  0  0  0  0  0
   -1.5837   -2.8553   -3.9460 H   0  0  0  0  0  0  0  0  0  0  0  0
   -2.5086   -1.3785   -3.6732 H   0  0  0  0  0  0  0  0  0  0  0  0
    1.1531   -0.7066   -1.7688 H   0  0  0  0  0  0  0  0  0  0  0  0
   -4.3824    2.8027   -1.8842 H   0  0  0  0  0  0  0  0  0  0  0  0
   -2.8057    2.1758   -1.3885 H   0  0  0  0  0  0  0  0  0  0  0  0
   -6.1743    1.2432    1.0056 H   0  0  0  0  0  0  0  0  0  0  0  0
   -6.4303    2.2506   -0.4309 H   0  0  0  0  0  0  0  0  0  0  0  0
    4.1204   -1.4312   -0.0787 H   0  0  0  0  0  0  0  0  0  0  0  0
    4.0908   -0.7514   -1.7271 H   0  0  0  0  0  0  0  0  0  0  0  0
   -3.0947    4.5764   -0.7354 H   0  0  0  0  0  0  0  0  0  0  0  0
   -2.8699    3.5524    0.6915 H   0  0  0  0  0  0  0  0  0  0  0  0
   -4.7678    3.0325    2.0421 H   0  0  0  0  0  0  0  0  0  0  0  0
   -6.3466    3.6898    1.5824 H   0  0  0  0  0  0  0  0  0  0  0  0
    5.0097    0.0715    1.8449 H   0  0  0  0  0  0  0  0  0  0  0  0
    5.7729    0.8369   -2.3330 H   0  0  0  0  0  0  0  0  0  0  0  0
    6.9090    1.5178    2.4496 H   0  0  0  0  0  0  0  0  0  0  0  0
    7.6852    2.2683   -1.7096 H   0  0  0  0  0  0  0  0  0  0  0  0
    8.2572    2.6146    0.6794 H   0  0  0  0  0  0  0  0  0  0  0  0
  1  4  2  0  0  0  0
  1  5  2  0  0  0  0
  1  6  1  0  0  0  0
  1 23  1  0  0  0  0
  2 20  2  0  0  0  0
  3 24  1  0  0  0  0
  3 25  1  0  0  0  0
  6 15  1  0  0  0  0
  6 52  1  0  0  0  0
  7 20  1  0  0  0  0
  7 21  1  0  0  0  0
  7 22  1  0  0  0  0
  8  9  1  0  0  0  0
  8 10  1  0  0  0  0
  8 12  1  0  0  0  0
  8 32  1  0  0  0  0
  9 14  1  0  0  0  0
  9 15  1  0  0  0  0
  9 33  1  0  0  0  0
 10 11  1  0  0  0  0
 10 34  1  0  0  0  0
 10 35  1  0  0  0  0
 11 13  1  0  0  0  0
 11 16  1  0  0  0  0
 11 36  1  0  0  0  0
 12 17  1  0  0  0  0
 12 18  1  0  0  0  0
 12 37  1  0  0  0  0
 13 14  2  0  0  0  0
 13 19  1  0  0  0  0
 14 38  1  0  0  0  0
 15 39  1  0  0  0  0
 15 40  1  0  0  0  0
 16 20  1  0  0  0  0
 16 41  1  0  0  0  0
 16 42  1  0  0  0  0
 17 43  1  0  0  0  0
 17 44  1  0  0  0  0
 17 45  1  0  0  0  0
 18 46  1  0  0  0  0
 18 47  1  0  0  0  0
 18 48  1  0  0  0  0
 19 49  1  0  0  0  0
 19 50  1  0  0  0  0
 19 51  1  0  0  0  0
 21 24  1  0  0  0  0
 21 53  1  0  0  0  0
 21 54  1  0  0  0  0
 22 25  1  0  0  0  0
 22 55  1  0  0  0  0
 22 56  1  0  0  0  0
 23 26  1  0  0  0  0
 23 57  1  0  0  0  0
 23 58  1  0  0  0  0
 24 59  1  0  0  0  0
 24 60  1  0  0  0  0
 25 61  1  0  0  0  0
 25 62  1  0  0  0  0
 26 27  2  0  0  0  0
 26 28  1  0  0  0  0
 27 29  1  0  0  0  0
 27 63  1  0  0  0  0
 28 30  2  0  0  0  0
 28 64  1  0  0  0  0
 29 31  2  0  0  0  0
 29 65  1  0  0  0  0
 30 31  1  0  0  0  0
 30 66  1  0  0  0  0
 31 67  1  0  0  0  0
M  END
> <PUBCHEM_COMPOUND_CID>
38028091

> <PUBCHEM_CONFORMER_RMSD>
1.4

> <PUBCHEM_CONFORMER_DIVERSEORDER>
1
35
63
88
38
94
12
52
92
97
9
2
28
32
49
104
80
30
51
89
22
84
14
16
64
50
72
40
37
91
85
33
48
59
47
6
81
43
21
76
65
61
86
15
93
20
102
79
77
17
7
73
74
24
62
54
70
57
25
75
90
3
100
4
95
23
19
83
78
29
44
71
53
101
68
55
60
31
39
41
98
56
42
99
58
82
103
46
66
96
13
67
87
26
36
18
45
69
10
27
11
34
8
5

> <PUBCHEM_MMFF94_PARTIAL_CHARGES>
33
1 1.33
11 0.14
13 -0.28
14 -0.29
15 0.36
16 0.06
19 0.14
2 -0.57
20 0.57
21 0.3
22 0.3
23 0.25
24 0.28
25 0.28
26 -0.14
27 -0.15
28 -0.15
29 -0.15
3 -0.56
30 -0.15
31 -0.15
38 0.15
4 -0.65
5 -0.65
52 0.42
6 -0.91
63 0.15
64 0.15
65 0.15
66 0.15
67 0.15
7 -0.66
9 0.14

> <PUBCHEM_EFFECTIVE_ROTOR_COUNT>
11

> <PUBCHEM_PHARMACOPHORE_FEATURES>
9
1 2 acceptor
1 3 acceptor
1 4 acceptor
1 5 acceptor
1 6 donor
3 12 17 18 hydrophobe
6 26 27 28 29 30 31 rings
6 3 7 21 22 24 25 rings
6 8 9 10 11 13 14 rings

> <PUBCHEM_HEAVY_ATOM_COUNT>
31

> <PUBCHEM_ATOM_DEF_STEREO_COUNT>
3

> <PUBCHEM_ATOM_UDEF_STEREO_COUNT>
0

> <PUBCHEM_BOND_DEF_STEREO_COUNT>
0

> <PUBCHEM_BOND_UDEF_STEREO_COUNT>
0

> <PUBCHEM_ISOTOPIC_ATOM_COUNT>
0

> <PUBCHEM_COMPONENT_COUNT>
1

> <PUBCHEM_CACTVS_TAUTO_COUNT>
1

> <PUBCHEM_CONFORMER_ID>
0244433B00000001

> <PUBCHEM_MMFF94_ENERGY>
65.3855

> <PUBCHEM_FEATURE_SELFOVERLAP>
45.69

> <PUBCHEM_SHAPE_FINGERPRINT>
10165383 225 17489594485212457999
10369192 42 17561093492919842669
10816530 145 17096081523323495932
11135609 201 18130514025142138185
1200032 147 18200039417604019089
12633257 1 16877946078642177926
12895836 83 17988921154915142279
12895837 130 18271526497839868388
12988421 55 17749100084773890727
13726171 33 18129669578542387529
13947920 24 17917712383463617089
14020679 6 18040157344312820264
14251764 30 9151166545940225104
14251764 75 18127136260459757905
14294032 229 18060136562017651055
14713325 29 18339082695990998731
15392192 29 17895747410808634154
15444296 121 18115035207493767060
15513586 35 17534635007759214836
15803439 3 16487246639262391861
15968369 153 18124879220294945101
17980427 26 18116422649081308079
19438510 23 18409732824449374491
21401589 2 18260553290480039257
21424621 283 18335141968595473904
21756936 100 18333728052403297811
23191077 185 18270387288262158655
23559900 14 15841270484401554698
24180151 214 17897419857703854275
2838139 119 18272081669644290382
4112364 45 17825944824223152681
4280585 95 10807929336716244999
44249763 50 17631718487457007388
44802255 64 17917436470490842614
5283173 99 18201995577744527936
6086070 43 17489583498864878530
6376802 137 17534641592387548483
7288768 16 18113622261631318819
999808 66 12901534742313549792

> <PUBCHEM_SHAPE_MULTIPOLES>
608.38
16.53
4.78
2.43
26.82
2.29
0.71
20.35
0.14
-7.93
0.68
-1.06
-2.48
-0.94

> <PUBCHEM_SHAPE_SELFOVERLAP>
1242.507

> <PUBCHEM_SHAPE_VOLUME>
353.1

> <PUBCHEM_COORDINATE_TYPE>
2
5
10

$$$$
