51136890
  -OEChem-12032416223D

 60 64  0     1  0  0  0  0  0999 V2000
   -5.2064   -3.6487   -1.2863 O   0  0  0  0  0  0  0  0  0  0  0  0
   -3.8243    2.3181   -1.2587 O   0  0  0  0  0  0  0  0  0  0  0  0
    3.6295   -1.0576    1.5289 O   0  0  0  0  0  0  0  0  0  0  0  0
    9.7353   -0.7456   -0.0008 O   0  0  0  0  0  0  0  0  0  0  0  0
   -5.6009   -0.0786    0.8874 N   0  0  1  0  0  0  0  0  0  0  0  0
   -2.8725    0.9338    0.2226 N   0  0  0  0  0  0  0  0  0  0  0  0
   -2.4491    2.3519   -1.5220 N   0  0  0  0  0  0  0  0  0  0  0  0
    1.6967    1.5938   -1.2973 N   0  0  0  0  0  0  0  0  0  0  0  0
    3.4960    0.4669   -0.2549 N   0  0  0  0  0  0  0  0  0  0  0  0
   -5.9064   -1.1305   -0.0793 C   0  0  0  0  0  0  0  0  0  0  0  0
   -5.4067    1.2460    0.2644 C   0  0  1  0  0  0  0  0  0  0  0  0
   -6.6639    0.0831    1.8795 C   0  0  0  0  0  0  0  0  0  0  0  0
   -5.8238    2.2543    1.3509 C   0  0  0  0  0  0  0  0  0  0  0  0
   -6.2941    1.4043    2.5228 C   0  0  0  0  0  0  0  0  0  0  0  0
   -4.7699   -1.2654   -1.0967 C   0  0  0  0  0  0  0  0  0  0  0  0
   -6.1441   -2.4715    0.6221 C   0  0  0  0  0  0  0  0  0  0  0  0
   -5.0306   -2.4427   -2.0297 C   0  0  0  0  0  0  0  0  0  0  0  0
   -6.3287   -3.5819   -0.4064 C   0  0  0  0  0  0  0  0  0  0  0  0
   -3.9873    1.4601   -0.2178 C   0  0  0  0  0  0  0  0  0  0  0  0
   -1.9563    1.5106   -0.6080 C   0  0  0  0  0  0  0  0  0  0  0  0
   -0.5549    1.2259   -0.4973 C   0  0  0  0  0  0  0  0  0  0  0  0
   -0.0763    0.3459    0.4670 C   0  0  0  0  0  0  0  0  0  0  0  0
    0.3645    1.8186   -1.3477 C   0  0  0  0  0  0  0  0  0  0  0  0
    1.2878    0.0892    0.5503 C   0  0  0  0  0  0  0  0  0  0  0  0
    2.1248    0.7327   -0.3470 C   0  0  0  0  0  0  0  0  0  0  0  0
    4.1468   -0.3825    0.6454 C   0  0  0  0  0  0  0  0  0  0  0  0
    5.6203   -0.4785    0.4740 C   0  0  0  0  0  0  0  0  0  0  0  0
    6.2950   -1.6326    0.8724 C   0  0  0  0  0  0  0  0  0  0  0  0
    6.3284    0.5857   -0.0842 C   0  0  0  0  0  0  0  0  0  0  0  0
    7.6777   -1.7223    0.7129 C   0  0  0  0  0  0  0  0  0  0  0  0
    7.7112    0.4961   -0.2436 C   0  0  0  0  0  0  0  0  0  0  0  0
    8.3858   -0.6579    0.1549 C   0  0  0  0  0  0  0  0  0  0  0  0
   10.3964    0.3794   -0.5779 C   0  0  0  0  0  0  0  0  0  0  0  0
   -6.8242   -0.8729   -0.6284 H   0  0  0  0  0  0  0  0  0  0  0  0
   -6.0892    1.3773   -0.5874 H   0  0  0  0  0  0  0  0  0  0  0  0
   -6.6713   -0.7107    2.6325 H   0  0  0  0  0  0  0  0  0  0  0  0
   -7.6559    0.1525    1.4153 H   0  0  0  0  0  0  0  0  0  0  0  0
   -6.6567    2.8670    0.9849 H   0  0  0  0  0  0  0  0  0  0  0  0
   -5.0193    2.9308    1.6592 H   0  0  0  0  0  0  0  0  0  0  0  0
   -5.4721    1.2666    3.2364 H   0  0  0  0  0  0  0  0  0  0  0  0
   -7.1334    1.8618    3.0548 H   0  0  0  0  0  0  0  0  0  0  0  0
   -4.6735   -0.3845   -1.7360 H   0  0  0  0  0  0  0  0  0  0  0  0
   -3.8200   -1.4437   -0.5776 H   0  0  0  0  0  0  0  0  0  0  0  0
   -7.0319   -2.4479    1.2626 H   0  0  0  0  0  0  0  0  0  0  0  0
   -5.2793   -2.7133    1.2538 H   0  0  0  0  0  0  0  0  0  0  0  0
   -4.1751   -2.5853   -2.6977 H   0  0  0  0  0  0  0  0  0  0  0  0
   -5.9138   -2.2690   -2.6559 H   0  0  0  0  0  0  0  0  0  0  0  0
   -7.2437   -3.4358   -0.9925 H   0  0  0  0  0  0  0  0  0  0  0  0
   -6.4119   -4.5485    0.1006 H   0  0  0  0  0  0  0  0  0  0  0  0
   -0.7440   -0.1530    1.1650 H   0  0  0  0  0  0  0  0  0  0  0  0
    0.0732    2.5165   -2.1271 H   0  0  0  0  0  0  0  0  0  0  0  0
    1.5808   -0.6029    1.3222 H   0  0  0  0  0  0  0  0  0  0  0  0
    4.0374    0.9396   -0.9720 H   0  0  0  0  0  0  0  0  0  0  0  0
    5.7618   -2.4752    1.3047 H   0  0  0  0  0  0  0  0  0  0  0  0
    5.8512    1.5172   -0.3733 H   0  0  0  0  0  0  0  0  0  0  0  0
    8.1979   -2.6241    1.0240 H   0  0  0  0  0  0  0  0  0  0  0  0
    8.2005    1.3623   -0.6760 H   0  0  0  0  0  0  0  0  0  0  0  0
   10.0608    0.5604   -1.6047 H   0  0  0  0  0  0  0  0  0  0  0  0
   10.3011    1.2695    0.0531 H   0  0  0  0  0  0  0  0  0  0  0  0
   11.4629    0.1365   -0.6286 H   0  0  0  0  0  0  0  0  0  0  0  0
  1 17  1  0  0  0  0
  1 18  1  0  0  0  0
  2  7  1  0  0  0  0
  2 19  1  0  0  0  0
  3 26  2  0  0  0  0
  4 32  1  0  0  0  0
  4 33  1  0  0  0  0
  5 10  1  0  0  0  0
  5 11  1  0  0  0  0
  5 12  1  0  0  0  0
  6 19  2  0  0  0  0
  6 20  1  0  0  0  0
  7 20  2  0  0  0  0
  8 23  1  0  0  0  0
  8 25  2  0  0  0  0
  9 25  1  0  0  0  0
  9 26  1  0  0  0  0
  9 53  1  0  0  0  0
 10 15  1  0  0  0  0
 10 16  1  0  0  0  0
 10 34  1  0  0  0  0
 11 13  1  0  0  0  0
 11 19  1  0  0  0  0
 11 35  1  0  0  0  0
 12 14  1  0  0  0  0
 12 36  1  0  0  0  0
 12 37  1  0  0  0  0
 13 14  1  0  0  0  0
 13 38  1  0  0  0  0
 13 39  1  0  0  0  0
 14 40  1  0  0  0  0
 14 41  1  0  0  0  0
 15 17  1  0  0  0  0
 15 42  1  0  0  0  0
 15 43  1  0  0  0  0
 16 18  1  0  0  0  0
 16 44  1  0  0  0  0
 16 45  1  0  0  0  0
 17 46  1  0  0  0  0
 17 47  1  0  0  0  0
 18 48  1  0  0  0  0
 18 49  1  0  0  0  0
 20 21  1  0  0  0  0
 21 22  1  0  0  0  0
 21 23  2  0  0  0  0
 22 24  2  0  0  0  0
 22 50  1  0  0  0  0
 23 51  1  0  0  0  0
 24 25  1  0  0  0  0
 24 52  1  0  0  0  0
 26 27  1  0  0  0  0
 27 28  2  0  0  0  0
 27 29  1  0  0  0  0
 28 30  1  0  0  0  0
 28 54  1  0  0  0  0
 29 31  2  0  0  0  0
 29 55  1  0  0  0  0
 30 32  2  0  0  0  0
 30 56  1  0  0  0  0
 31 32  1  0  0  0  0
 31 57  1  0  0  0  0
 33 58  1  0  0  0  0
 33 59  1  0  0  0  0
 33 60  1  0  0  0  0
M  END
> <PUBCHEM_COMPOUND_CID>
51136890

> <PUBCHEM_CONFORMER_RMSD>
1

> <PUBCHEM_CONFORMER_DIVERSEORDER>
1
20
21
18
9
15
7
13
4
12
19
5
10
11
17
8
16
3
14
2
6

> <PUBCHEM_MMFF94_PARTIAL_CHARGES>
37
1 -0.56
10 0.27
11 0.45
12 0.27
17 0.28
18 0.28
19 0.3
2 -0.02
20 0.46
21 0.05
22 -0.15
23 0.16
24 -0.15
25 0.43
26 0.54
27 0.09
28 -0.15
29 -0.15
3 -0.57
30 -0.15
31 -0.15
32 0.08
33 0.28
4 -0.36
5 -0.81
50 0.15
51 0.15
52 0.15
53 0.37
54 0.15
55 0.15
56 0.15
57 0.15
6 -0.57
7 -0.41
8 -0.62
9 -0.55

> <PUBCHEM_EFFECTIVE_ROTOR_COUNT>
9.2

> <PUBCHEM_PHARMACOPHORE_FEATURES>
11
1 1 acceptor
1 3 acceptor
1 4 acceptor
1 5 cation
1 9 donor
3 6 7 20 cation
5 2 6 7 19 20 rings
5 5 11 12 13 14 rings
6 1 10 15 16 17 18 rings
6 27 28 29 30 31 32 rings
6 8 21 22 23 24 25 rings

> <PUBCHEM_HEAVY_ATOM_COUNT>
33

> <PUBCHEM_ATOM_DEF_STEREO_COUNT>
1

> <PUBCHEM_ATOM_UDEF_STEREO_COUNT>
0

> <PUBCHEM_BOND_DEF_STEREO_COUNT>
0

> <PUBCHEM_BOND_UDEF_STEREO_COUNT>
0

> <PUBCHEM_ISOTOPIC_ATOM_COUNT>
0

> <PUBCHEM_COMPONENT_COUNT>
1

> <PUBCHEM_CACTVS_TAUTO_COUNT>
14

> <PUBCHEM_CONFORMER_ID>
030C497A00000001

> <PUBCHEM_MMFF94_ENERGY>
88.8717

> <PUBCHEM_FEATURE_SELFOVERLAP>
55.823

> <PUBCHEM_SHAPE_FINGERPRINT>
10 15 15482673442160700873
10299344 5 18410856551719755170
10462385 53 18186524280557649130
11103572 155 18201440212450748086
11497681 19 18260544546264345372
11607047 191 17773611425848874073
11621639 183 16557923208189164617
12104220 1 17988927743226462081
12106331 60 17458058262001454049
12522641 126 17823705346760681260
12539745 222 17703792561443251411
12559416 138 17967810574775800731
13782708 43 18409439302369031840
14040221 310 16660353788578183205
14142895 15 17967821574777206892
14344974 204 18059010717297265119
14671636 106 18337390539095197902
14856354 85 17988639688496964493
15021287 119 18040721376798382309
15183329 4 17822004324387768810
15289351 153 10159694669534912742
15320294 125 18341332288581845903
15352257 5 18273493460050012726
15461852 350 18408326584386538766
15728490 51 18334857225718473302
16989713 51 18409439306669228847
17324776 126 16983470745515591039
1754908 1 18130497588217998010
17780758 139 18202566177366902385
19315958 150 18199757930058761281
19611394 137 17060338556267194411
21362267 20 18412541008162298142
21792938 703 17823702064803845059
21795232 338 17845926446592483598
22164985 6 14996284700038042440
23522609 53 18119841150890979933
23523788 1 16915396605090511471
335507 130 18113624473686993860
3383291 50 17022914448912182569
397638 5 8646768868844095470
397830 11 17988348382128941808
437795 83 10737284645454162799
44389302 135 18265886975187291714
44802255 64 13190337976702760441
44880568 143 13045942365864979110
45377200 153 18273218608551507678
4625314 4 18409164385960609788
4760202 70 18192711374484400164
484985 159 18337660998103306711
5028188 123 18342179973196527988
5104073 3 18060137695488227097
54039377 194 18186803625831713523
58260988 114 18336830892488604959
6009941 240 17418379060861164569
636775 72 9511456732317593742
6691757 9 18059860537765655369
68570916 9 18341334491288079692
9953998 17 18202284693462653585
9962374 69 18040997376045361252
999808 66 17676213454942268953

> <PUBCHEM_SHAPE_MULTIPOLES>
630.74
30.37
3.04
1.6
61.95
2.3
-0.22
12.15
-5.72
-8.05
0.99
-2.95
-0.22
-3.44

> <PUBCHEM_SHAPE_SELFOVERLAP>
1369.218

> <PUBCHEM_SHAPE_VOLUME>
343.8

> <PUBCHEM_COORDINATE_TYPE>
2
5
10

$$$$
