75536976
  -OEChem-12032416413D

 49 52  0     1  0  0  0  0  0999 V2000
    2.9279   -1.1939   -0.5624 S   0  0  0  0  0  0  0  0  0  0  0  0
   -3.3258   -2.1205    1.6296 O   0  0  0  0  0  0  0  0  0  0  0  0
    3.1067   -0.8372   -1.9521 O   0  0  0  0  0  0  0  0  0  0  0  0
    3.8137   -2.1200    0.1070 O   0  0  0  0  0  0  0  0  0  0  0  0
   -1.3872   -2.0742    0.3030 N   0  0  0  0  0  0  0  0  0  0  0  0
    1.3116   -1.7166   -0.3332 N   0  0  2  0  0  0  0  0  0  0  0  0
   -3.2685   -1.1689   -0.5270 N   0  0  0  0  0  0  0  0  0  0  0  0
   -4.9817    3.0824   -0.8218 N   0  0  0  0  0  0  0  0  0  0  0  0
   -1.0410   -1.6962   -1.0539 C   0  0  2  0  0  0  0  0  0  0  0  0
    0.2734   -0.9237   -1.0724 C   0  0  0  0  0  0  0  0  0  0  0  0
   -2.2536   -0.8997   -1.5305 C   0  0  0  0  0  0  0  0  0  0  0  0
   -0.4009   -2.7303    1.1386 C   0  0  0  0  0  0  0  0  0  0  0  0
    0.9157   -1.9613    1.0941 C   0  0  0  0  0  0  0  0  0  0  0  0
   -2.7354   -1.8283    0.5979 C   0  0  0  0  0  0  0  0  0  0  0  0
   -4.6228   -0.6786   -0.6568 C   0  0  0  0  0  0  0  0  0  0  0  0
    2.8773    0.3033    0.3876 C   0  0  0  0  0  0  0  0  0  0  0  0
   -4.7466    0.7526   -0.2203 C   0  0  0  0  0  0  0  0  0  0  0  0
    4.2333    0.9350    0.3156 C   0  0  0  0  0  0  0  0  0  0  0  0
   -4.7422    1.0936    1.1277 C   0  0  0  0  0  0  0  0  0  0  0  0
   -4.8677    1.7752   -1.1474 C   0  0  0  0  0  0  0  0  0  0  0  0
    4.6479    1.5655   -0.8576 C   0  0  0  0  0  0  0  0  0  0  0  0
    5.0816    0.8927    1.4218 C   0  0  0  0  0  0  0  0  0  0  0  0
   -4.8574    2.4277    1.5021 C   0  0  0  0  0  0  0  0  0  0  0  0
    5.9110    2.1536   -0.9245 C   0  0  0  0  0  0  0  0  0  0  0  0
    6.3447    1.4809    1.3552 C   0  0  0  0  0  0  0  0  0  0  0  0
   -4.9735    3.3754    0.4979 C   0  0  0  0  0  0  0  0  0  0  0  0
    6.7594    2.1113    0.1819 C   0  0  0  0  0  0  0  0  0  0  0  0
   -0.9461   -2.6272   -1.6275 H   0  0  0  0  0  0  0  0  0  0  0  0
    0.5757   -0.7644   -2.1120 H   0  0  0  0  0  0  0  0  0  0  0  0
    0.1493    0.0522   -0.5895 H   0  0  0  0  0  0  0  0  0  0  0  0
   -2.0664    0.1786   -1.5571 H   0  0  0  0  0  0  0  0  0  0  0  0
   -2.6015   -1.2338   -2.5127 H   0  0  0  0  0  0  0  0  0  0  0  0
   -0.2670   -3.7431    0.7419 H   0  0  0  0  0  0  0  0  0  0  0  0
   -0.7791   -2.8126    2.1622 H   0  0  0  0  0  0  0  0  0  0  0  0
    1.6863   -2.5396    1.6127 H   0  0  0  0  0  0  0  0  0  0  0  0
    0.7781   -1.0057    1.6109 H   0  0  0  0  0  0  0  0  0  0  0  0
   -5.2802   -1.2959   -0.0327 H   0  0  0  0  0  0  0  0  0  0  0  0
   -4.9464   -0.8140   -1.6951 H   0  0  0  0  0  0  0  0  0  0  0  0
    2.1273    0.9822   -0.0253 H   0  0  0  0  0  0  0  0  0  0  0  0
    2.6278    0.0719    1.4249 H   0  0  0  0  0  0  0  0  0  0  0  0
   -4.6551    0.3314    1.8964 H   0  0  0  0  0  0  0  0  0  0  0  0
   -4.8753    1.5732   -2.2141 H   0  0  0  0  0  0  0  0  0  0  0  0
    3.9937    1.6272   -1.7227 H   0  0  0  0  0  0  0  0  0  0  0  0
    4.7733    0.4033    2.3418 H   0  0  0  0  0  0  0  0  0  0  0  0
   -4.8575    2.7166    2.5468 H   0  0  0  0  0  0  0  0  0  0  0  0
    6.2321    2.6487   -1.8363 H   0  0  0  0  0  0  0  0  0  0  0  0
    7.0055    1.4477    2.2164 H   0  0  0  0  0  0  0  0  0  0  0  0
    7.7424    2.5701    0.1303 H   0  0  0  0  0  0  0  0  0  0  0  0
   -5.0662    4.4296    0.7373 H   0  0  0  0  0  0  0  0  0  0  0  0
  1  3  2  0  0  0  0
  1  4  2  0  0  0  0
  1  6  1  0  0  0  0
  1 16  1  0  0  0  0
  2 14  2  0  0  0  0
  5  9  1  0  0  0  0
  5 12  1  0  0  0  0
  5 14  1  0  0  0  0
  6 10  1  0  0  0  0
  6 13  1  0  0  0  0
  7 11  1  0  0  0  0
  7 14  1  0  0  0  0
  7 15  1  0  0  0  0
  8 20  1  0  0  0  0
  8 26  2  0  0  0  0
  9 10  1  0  0  0  0
  9 11  1  0  0  0  0
  9 28  1  0  0  0  0
 10 29  1  0  0  0  0
 10 30  1  0  0  0  0
 11 31  1  0  0  0  0
 11 32  1  0  0  0  0
 12 13  1  0  0  0  0
 12 33  1  0  0  0  0
 12 34  1  0  0  0  0
 13 35  1  0  0  0  0
 13 36  1  0  0  0  0
 15 17  1  0  0  0  0
 15 37  1  0  0  0  0
 15 38  1  0  0  0  0
 16 18  1  0  0  0  0
 16 39  1  0  0  0  0
 16 40  1  0  0  0  0
 17 19  1  0  0  0  0
 17 20  2  0  0  0  0
 18 21  2  0  0  0  0
 18 22  1  0  0  0  0
 19 23  2  0  0  0  0
 19 41  1  0  0  0  0
 20 42  1  0  0  0  0
 21 24  1  0  0  0  0
 21 43  1  0  0  0  0
 22 25  2  0  0  0  0
 22 44  1  0  0  0  0
 23 26  1  0  0  0  0
 23 45  1  0  0  0  0
 24 27  2  0  0  0  0
 24 46  1  0  0  0  0
 25 27  1  0  0  0  0
 25 47  1  0  0  0  0
 26 49  1  0  0  0  0
 27 48  1  0  0  0  0
M  END
> <PUBCHEM_COMPOUND_CID>
75536976

> <PUBCHEM_CONFORMER_RMSD>
0.8

> <PUBCHEM_CONFORMER_DIVERSEORDER>
1
348
84
227
116
350
16
79
107
367
280
206
110
318
345
244
362
340
272
63
46
342
294
289
305
97
370
145
185
113
253
186
191
290
70
119
311
359
333
72
372
218
315
351
91
44
64
234
39
27
275
139
293
365
55
48
210
324
203
237
273
172
188
352
373
343
126
235
100
166
214
88
121
325
292
321
130
101
43
337
83
241
196
323
149
184
178
302
159
248
313
295
251
54
114
49
42
357
156
19
163
71
122
147
254
131
13
152
299
369
66
220
187
334
76
255
14
285
201
223
90
161
200
133
270
45
199
170
18
320
240
127
375
354
169
7
266
157
179
175
277
212
286
105
118
374
57
328
297
358
197
264
28
314
247
167
355
85
213
291
202
17
307
112
229
144
233
181
115
296
120
86
366
33
135
306
260
69
193
205
141
155
164
208
106
309
288
21
308
162
268
349
245
15
160
259
58
249
176
51
332
134
217
317
335
62
326
371
239
319
192
82
165
221
61
123
224
298
304
194
32
158
195
94
252
360
215
336
190
368
60
329
154
81
322
242
204
256
129
111
104
207
3
136
34
341
38
338
344
182
226
231
148
228
174
222
265
364
50
168
330
124
150
243
108
103
301
102
230
279
75
30
146
143
303
310
347
216
24
78
98
353
125
284
93
346
263
117
262
316
339
282
258
257
271
41
53
31
140
20
211
269
80
23
287
10
327
312
77
142
151
128
109
68
246
177
274
92
300
173
261
36
236
219
171
52
132
11
40
95
73
56
89
238
6
281
29
9
183
59
278
37
232
356
67
198
5
96
99
250
276
12
26
189
22
331
361
180
8
74
25
138
47
137
267
87
153
363
209
225
65
2
4
283
35

> <PUBCHEM_MMFF94_PARTIAL_CHARGES>
36
1 1.33
10 0.36
11 0.3
12 0.3
13 0.36
14 0.69
15 0.44
16 0.25
17 -0.14
18 -0.14
19 -0.15
2 -0.57
20 0.16
21 -0.15
22 -0.15
23 -0.15
24 -0.15
25 -0.15
26 0.16
27 -0.15
3 -0.65
4 -0.65
41 0.15
42 0.15
43 0.15
44 0.15
45 0.15
46 0.15
47 0.15
48 0.15
49 0.15
5 -0.66
6 -0.85
7 -0.66
8 -0.62
9 0.3

> <PUBCHEM_EFFECTIVE_ROTOR_COUNT>
6.2

> <PUBCHEM_PHARMACOPHORE_FEATURES>
8
1 2 acceptor
1 3 acceptor
1 4 acceptor
1 8 acceptor
5 5 7 9 11 14 rings
6 18 21 22 24 25 27 rings
6 5 6 9 10 12 13 rings
6 8 17 19 20 23 26 rings

> <PUBCHEM_HEAVY_ATOM_COUNT>
27

> <PUBCHEM_ATOM_DEF_STEREO_COUNT>
1

> <PUBCHEM_ATOM_UDEF_STEREO_COUNT>
0

> <PUBCHEM_BOND_DEF_STEREO_COUNT>
0

> <PUBCHEM_BOND_UDEF_STEREO_COUNT>
0

> <PUBCHEM_ISOTOPIC_ATOM_COUNT>
0

> <PUBCHEM_COMPONENT_COUNT>
1

> <PUBCHEM_CACTVS_TAUTO_COUNT>
1

> <PUBCHEM_CONFORMER_ID>
04809A5000000001

> <PUBCHEM_MMFF94_ENERGY>
62.415

> <PUBCHEM_FEATURE_SELFOVERLAP>
40.713

> <PUBCHEM_SHAPE_FINGERPRINT>
10042902 136 9295285058035489552
11135609 201 18411983576855581195
11477941 20 17702365421098986413
11578821 258 17979069712011809880
11796584 16 8430056260221434862
12107183 9 18114444705536190914
12390115 104 18261399974215172974
12422481 6 17167857522135970436
12633257 1 15430045361152305835
13690498 29 16413774111172108655
14211702 104 8574422119594565884
14251764 30 10447631505598782829
14251764 38 18340490057736299633
14251764 75 18340492175170994577
14347329 18 18412822512538057456
14466204 15 18408881866969287688
14739800 52 18339065038852457155
14848178 5 8862643678515749405
14848178 96 18339641131753800825
14950920 106 14779559980167062965
14951699 99 18334021596612598284
15163728 17 17988932128472285103
15183329 4 16271941440890298534
17780758 139 12252174165454031983
19438510 23 18340771459787750401
20691028 202 18268156366400816249
21033648 29 17531524257810054733
21302155 148 18410012117567419957
21307412 95 9727349096770541473
21401589 2 18411144615229065185
22122407 14 18189058775472067416
22393880 68 16844719971412141078
22956985 138 16818567198868060163
23559900 14 17773599308485907630
23569914 152 16840249095267362660
25122255 55 8070028856722502549
2748736 6 18411409601262518712
2838139 119 18130497613433776656
316301 35 8646480813159750924
3459 39 18336531772815746472
3525247 154 17846493764396771144
3680242 22 18040991830989159992
3862424 121 11958576055304323325
392239 28 17022896900029010436
44249763 50 17416951993315240236
474113 269 12901843752790462609
484985 159 10737279148449632589
5104073 3 17966969417809053658
636775 72 18196647622181529992
7288768 16 18113901567565136379
7808743 9 18410006654568803891
8863177 126 8214140750927636204
999808 66 13190325860832211016

> <PUBCHEM_SHAPE_MULTIPOLES>
521.96
16.87
3.73
1.57
11.35
1.2
0.03
17.81
1.6
-3.09
0.64
-0.13
-0.06
0.06

> <PUBCHEM_SHAPE_SELFOVERLAP>
1106.012

> <PUBCHEM_SHAPE_VOLUME>
293.4

> <PUBCHEM_COORDINATE_TYPE>
2
5
10

$$$$
