44716903
  -OEChem-12032416133D

 76 79  0     1  0  0  0  0  0999 V2000
    2.0125   -1.3766    0.2129 O   0  0  0  0  0  0  0  0  0  0  0  0
   -5.1086   -2.6376    0.6104 O   0  0  0  0  0  0  0  0  0  0  0  0
    1.4240   -4.0573    0.1404 O   0  0  0  0  0  0  0  0  0  0  0  0
   -6.6371    0.6351    0.1634 O   0  0  0  0  0  0  0  0  0  0  0  0
    2.6142    0.7031   -0.5238 O   0  0  0  0  0  0  0  0  0  0  0  0
   -4.1950    5.0693    0.9018 O   0  0  0  0  0  0  0  0  0  0  0  0
    9.0065    1.9215   -0.0628 O   0  0  0  0  0  0  0  0  0  0  0  0
   -5.0276    2.2817   -0.0304 N   0  0  0  0  0  0  0  0  0  0  0  0
    4.1804   -0.8222    0.3135 N   0  0  0  0  0  0  0  0  0  0  0  0
   -2.3106   -1.2090    0.5624 C   0  0  2  0  0  0  0  0  0  0  0  0
   -1.6665   -2.0068   -0.6366 C   0  0  1  0  0  0  0  0  0  0  0  0
   -0.1374   -2.3682   -0.5057 C   0  0  1  0  0  0  0  0  0  0  0  0
   -3.7251   -0.6925    0.0675 C   0  0  1  0  0  0  0  0  0  0  0  0
   -1.4057    0.0109    0.8834 C   0  0  0  0  0  0  0  0  0  0  0  0
   -2.5719   -3.1820   -1.0665 C   0  0  0  0  0  0  0  0  0  0  0  0
    0.6514   -1.0853   -0.1036 C   0  0  1  0  0  0  0  0  0  0  0  0
   -4.6424   -1.8206   -0.4588 C   0  0  1  0  0  0  0  0  0  0  0  0
    0.0605   -0.3493    1.0939 C   0  0  0  0  0  0  0  0  0  0  0  0
   -3.9506   -2.6880   -1.5066 C   0  0  0  0  0  0  0  0  0  0  0  0
   -2.4602   -2.0474    1.8553 C   0  0  0  0  0  0  0  0  0  0  0  0
    0.1539   -3.5339    0.4614 C   0  0  0  0  0  0  0  0  0  0  0  0
   -4.4903    0.1705    1.0838 C   0  0  0  0  0  0  0  0  0  0  0  0
    0.3976   -2.8276   -1.8932 C   0  0  0  0  0  0  0  0  0  0  0  0
   -5.4904    1.0390    0.3637 C   0  0  0  0  0  0  0  0  0  0  0  0
    2.9214   -0.3828   -0.0474 C   0  0  0  0  0  0  0  0  0  0  0  0
   -3.6841    2.8204    0.1815 C   0  0  0  0  0  0  0  0  0  0  0  0
   -5.8738    3.2366   -0.7297 C   0  0  0  0  0  0  0  0  0  0  0  0
   -3.7937    4.2876   -0.2179 C   0  0  1  0  0  0  0  0  0  0  0  0
   -4.9087    4.2897   -1.2576 C   0  0  0  0  0  0  0  0  0  0  0  0
    5.4061   -0.1248    0.2177 C   0  0  0  0  0  0  0  0  0  0  0  0
    6.5893   -0.7346    0.6349 C   0  0  0  0  0  0  0  0  0  0  0  0
    5.4328    1.1725   -0.2940 C   0  0  0  0  0  0  0  0  0  0  0  0
    7.7991   -0.0469    0.5408 C   0  0  0  0  0  0  0  0  0  0  0  0
    6.6426    1.8603   -0.3881 C   0  0  0  0  0  0  0  0  0  0  0  0
    7.8258    1.2506    0.0293 C   0  0  0  0  0  0  0  0  0  0  0  0
    8.9613    3.2446   -0.5951 C   0  0  0  0  0  0  0  0  0  0  0  0
   -1.6954   -1.3025   -1.4854 H   0  0  0  0  0  0  0  0  0  0  0  0
   -3.5176   -0.0568   -0.8069 H   0  0  0  0  0  0  0  0  0  0  0  0
   -1.4560    0.7308    0.0582 H   0  0  0  0  0  0  0  0  0  0  0  0
   -1.7519    0.5342    1.7811 H   0  0  0  0  0  0  0  0  0  0  0  0
   -2.1335   -3.7199   -1.9129 H   0  0  0  0  0  0  0  0  0  0  0  0
   -2.6843   -3.9156   -0.2627 H   0  0  0  0  0  0  0  0  0  0  0  0
    0.6084   -0.4088   -0.9696 H   0  0  0  0  0  0  0  0  0  0  0  0
   -5.5318   -1.3867   -0.9283 H   0  0  0  0  0  0  0  0  0  0  0  0
    0.6219    0.5760    1.2752 H   0  0  0  0  0  0  0  0  0  0  0  0
    0.1970   -0.9340    2.0103 H   0  0  0  0  0  0  0  0  0  0  0  0
   -3.8365   -2.1078   -2.4310 H   0  0  0  0  0  0  0  0  0  0  0  0
   -4.5729   -3.5580   -1.7481 H   0  0  0  0  0  0  0  0  0  0  0  0
   -2.9555   -3.0055    1.6895 H   0  0  0  0  0  0  0  0  0  0  0  0
   -3.0400   -1.5071    2.6113 H   0  0  0  0  0  0  0  0  0  0  0  0
   -1.5029   -2.2719    2.3260 H   0  0  0  0  0  0  0  0  0  0  0  0
   -0.5708   -4.3448    0.3529 H   0  0  0  0  0  0  0  0  0  0  0  0
    0.1728   -3.2220    1.5063 H   0  0  0  0  0  0  0  0  0  0  0  0
   -5.0481   -0.4503    1.7955 H   0  0  0  0  0  0  0  0  0  0  0  0
   -3.8383    0.7773    1.7087 H   0  0  0  0  0  0  0  0  0  0  0  0
    1.4929   -2.8398   -1.9387 H   0  0  0  0  0  0  0  0  0  0  0  0
    0.0687   -2.1417   -2.6829 H   0  0  0  0  0  0  0  0  0  0  0  0
    0.0448   -3.8293   -2.1613 H   0  0  0  0  0  0  0  0  0  0  0  0
   -5.7028   -3.3083    0.2331 H   0  0  0  0  0  0  0  0  0  0  0  0
    1.5966   -4.7936    0.7514 H   0  0  0  0  0  0  0  0  0  0  0  0
   -3.3669    2.6970    1.2189 H   0  0  0  0  0  0  0  0  0  0  0  0
   -3.0108    2.2860   -0.4934 H   0  0  0  0  0  0  0  0  0  0  0  0
   -6.5734    3.6591    0.0001 H   0  0  0  0  0  0  0  0  0  0  0  0
   -6.4462    2.7441   -1.5214 H   0  0  0  0  0  0  0  0  0  0  0  0
   -2.8550    4.6961   -0.6029 H   0  0  0  0  0  0  0  0  0  0  0  0
   -4.5114    3.9706   -2.2284 H   0  0  0  0  0  0  0  0  0  0  0  0
   -5.3983    5.2608   -1.3744 H   0  0  0  0  0  0  0  0  0  0  0  0
    4.2358   -1.7632    0.6954 H   0  0  0  0  0  0  0  0  0  0  0  0
   -3.4886    5.0084    1.5673 H   0  0  0  0  0  0  0  0  0  0  0  0
    6.5824   -1.7451    1.0354 H   0  0  0  0  0  0  0  0  0  0  0  0
    4.5574    1.7071   -0.6360 H   0  0  0  0  0  0  0  0  0  0  0  0
    8.7176   -0.5269    0.8673 H   0  0  0  0  0  0  0  0  0  0  0  0
    6.5928    2.8648   -0.7947 H   0  0  0  0  0  0  0  0  0  0  0  0
    9.9870    3.6278   -0.5957 H   0  0  0  0  0  0  0  0  0  0  0  0
    8.3706    3.9138    0.0396 H   0  0  0  0  0  0  0  0  0  0  0  0
    8.6183    3.2484   -1.6353 H   0  0  0  0  0  0  0  0  0  0  0  0
  1 16  1  0  0  0  0
  1 25  1  0  0  0  0
  2 17  1  0  0  0  0
  2 59  1  0  0  0  0
  3 21  1  0  0  0  0
  3 60  1  0  0  0  0
  4 24  2  0  0  0  0
  5 25  2  0  0  0  0
  6 28  1  0  0  0  0
  6 69  1  0  0  0  0
  7 35  1  0  0  0  0
  7 36  1  0  0  0  0
  8 24  1  0  0  0  0
  8 26  1  0  0  0  0
  8 27  1  0  0  0  0
  9 25  1  0  0  0  0
  9 30  1  0  0  0  0
  9 68  1  0  0  0  0
 10 11  1  0  0  0  0
 10 13  1  0  0  0  0
 10 14  1  0  0  0  0
 10 20  1  0  0  0  0
 11 12  1  0  0  0  0
 11 15  1  0  0  0  0
 11 37  1  0  0  0  0
 12 16  1  0  0  0  0
 12 21  1  0  0  0  0
 12 23  1  0  0  0  0
 13 17  1  0  0  0  0
 13 22  1  0  0  0  0
 13 38  1  0  0  0  0
 14 18  1  0  0  0  0
 14 39  1  0  0  0  0
 14 40  1  0  0  0  0
 15 19  1  0  0  0  0
 15 41  1  0  0  0  0
 15 42  1  0  0  0  0
 16 18  1  0  0  0  0
 16 43  1  0  0  0  0
 17 19  1  0  0  0  0
 17 44  1  0  0  0  0
 18 45  1  0  0  0  0
 18 46  1  0  0  0  0
 19 47  1  0  0  0  0
 19 48  1  0  0  0  0
 20 49  1  0  0  0  0
 20 50  1  0  0  0  0
 20 51  1  0  0  0  0
 21 52  1  0  0  0  0
 21 53  1  0  0  0  0
 22 24  1  0  0  0  0
 22 54  1  0  0  0  0
 22 55  1  0  0  0  0
 23 56  1  0  0  0  0
 23 57  1  0  0  0  0
 23 58  1  0  0  0  0
 26 28  1  0  0  0  0
 26 61  1  0  0  0  0
 26 62  1  0  0  0  0
 27 29  1  0  0  0  0
 27 63  1  0  0  0  0
 27 64  1  0  0  0  0
 28 29  1  0  0  0  0
 28 65  1  0  0  0  0
 29 66  1  0  0  0  0
 29 67  1  0  0  0  0
 30 31  2  0  0  0  0
 30 32  1  0  0  0  0
 31 33  1  0  0  0  0
 31 70  1  0  0  0  0
 32 34  2  0  0  0  0
 32 71  1  0  0  0  0
 33 35  2  0  0  0  0
 33 72  1  0  0  0  0
 34 35  1  0  0  0  0
 34 73  1  0  0  0  0
 36 74  1  0  0  0  0
 36 75  1  0  0  0  0
 36 76  1  0  0  0  0
M  END
> <PUBCHEM_COMPOUND_CID>
44716903

> <PUBCHEM_CONFORMER_RMSD>
1.2

> <PUBCHEM_CONFORMER_DIVERSEORDER>
2
42
47
53
23
65
15
40
55
39
61
44
63
60
64
57
45
12
33
28
56
21
38
19
14
22
41
34
49
58
7
25
16
13
26
31
51
43
29
46
48
54
6
50
36
17
24
27
5
59
52
35
18
10
30
3
11
4
8
62
1
9
37
20
32

> <PUBCHEM_MMFF94_PARTIAL_CHARGES>
33
1 -0.43
16 0.28
17 0.28
2 -0.68
21 0.28
22 0.06
24 0.57
25 0.78
26 0.3
27 0.3
28 0.28
3 -0.68
30 0.12
31 -0.15
32 -0.15
33 -0.15
34 -0.15
35 0.08
36 0.28
4 -0.57
5 -0.57
59 0.4
6 -0.68
60 0.4
68 0.37
69 0.4
7 -0.36
70 0.15
71 0.15
72 0.15
73 0.15
8 -0.66
9 -0.55

> <PUBCHEM_EFFECTIVE_ROTOR_COUNT>
11.6

> <PUBCHEM_PHARMACOPHORE_FEATURES>
14
1 2 acceptor
1 2 donor
1 3 acceptor
1 3 donor
1 4 acceptor
1 5 acceptor
1 6 acceptor
1 6 donor
1 7 acceptor
1 9 donor
5 8 26 27 28 29 rings
6 10 11 12 14 16 18 rings
6 10 11 13 15 17 19 rings
6 30 31 32 33 34 35 rings

> <PUBCHEM_HEAVY_ATOM_COUNT>
36

> <PUBCHEM_ATOM_DEF_STEREO_COUNT>
6

> <PUBCHEM_ATOM_UDEF_STEREO_COUNT>
1

> <PUBCHEM_BOND_DEF_STEREO_COUNT>
0

> <PUBCHEM_BOND_UDEF_STEREO_COUNT>
0

> <PUBCHEM_ISOTOPIC_ATOM_COUNT>
0

> <PUBCHEM_COMPONENT_COUNT>
1

> <PUBCHEM_CACTVS_TAUTO_COUNT>
2

> <PUBCHEM_CONFORMER_ID>
02AA536700000002

> <PUBCHEM_MMFF94_ENERGY>
132.7258

> <PUBCHEM_FEATURE_SELFOVERLAP>
71.065

> <PUBCHEM_SHAPE_FINGERPRINT>
10050765 1 18338233743648664459
100830 39 18410573976604351280
10165383 225 18060706074933996643
10190206 1 18341598352856663071
10411042 1 17764586912938306423
10670039 82 18341607161628663161
10675989 125 17619633480151763433
10939801 23 18334296483405122500
11408170 253 18341624762748742024
11409948 8 18188787055294839241
11578080 2 18267303136476127639
11621639 148 18339092540905029913
11621639 254 18342446051006074973
13347071 3 18412828005986624148
13726171 33 18268717104646359097
13911987 19 17704070651821741267
14790565 3 18409730685983045482
15064981 113 17417818306015748916
15183329 4 18263915696344720134
15448158 71 18340495461026444197
15604295 49 18198619029619373096
1577012 14 18410854400252739962
15876981 60 18262238932279412421
16989713 51 17487891422530179991
16992828 155 18410005520845826573
19053607 189 18195231226969707281
19304152 47 18334301972183163435
19309040 13 17557141697706449837
19611394 137 17971485241773250339
20609170 109 17387720373507337505
20771845 165 18200886058452497671
21033648 144 18271248210583498243
21792964 463 18041295335175470428
21859007 373 18272357673312902504
22122407 14 17968109663281132680
2838139 119 18410007741148076436
3525247 154 18130500834655196264
3918712 181 18190454966155572637
437795 83 18412818097269557149
44249763 50 17988345057850472232
44802255 64 18130791182648549175
5171179 24 17914882356630058233
5265222 85 18341049731125117770
5372103 7 17533761717119147933
563151 97 18410285900326444167
5776283 40 18342451556457900465
6201320 215 18341046337943302792
6327066 14 18265327314455592893
636775 72 18336547205134771176
9831232 110 18130516224456265502
99344 41 18409727323461398914

> <PUBCHEM_SHAPE_MULTIPOLES>
689.82
22.4
5.85
1.19
53.17
4.73
-0.09
23.54
-0.66
-8.75
-1.33
-0.98
-0.52
-0.62

> <PUBCHEM_SHAPE_SELFOVERLAP>
1452.094

> <PUBCHEM_SHAPE_VOLUME>
384.5

> <PUBCHEM_COORDINATE_TYPE>
2
5
10

$$$$
