51137866
  -OEChem-12032416203D

 52 55  0     1  0  0  0  0  0999 V2000
    6.0778    2.9936   -0.2291 O   0  0  0  0  0  0  0  0  0  0  0  0
   -1.2627   -0.4935   -0.2591 N   0  0  1  0  0  0  0  0  0  0  0  0
    3.2435   -2.0500    0.2245 N   0  0  0  0  0  0  0  0  0  0  0  0
    2.8984    0.1439    0.1397 N   0  0  0  0  0  0  0  0  0  0  0  0
   -7.5962    0.1247    0.3392 N   0  0  0  0  0  0  0  0  0  0  0  0
    3.8150    2.6712   -0.0448 N   0  0  0  0  0  0  0  0  0  0  0  0
    0.8466   -1.3158    0.3527 C   0  0  1  0  0  0  0  0  0  0  0  0
    0.1636   -0.6869    1.5797 C   0  0  0  0  0  0  0  0  0  0  0  0
    0.0437   -0.7964   -0.8475 C   0  0  0  0  0  0  0  0  0  0  0  0
   -0.9602    0.1688    1.0097 C   0  0  0  0  0  0  0  0  0  0  0  0
    2.3271   -1.0356    0.2369 C   0  0  0  0  0  0  0  0  0  0  0  0
   -2.0871    0.3299   -1.1313 C   0  0  0  0  0  0  0  0  0  0  0  0
   -3.5410    0.2756   -0.7438 C   0  0  0  0  0  0  0  0  0  0  0  0
    4.4891   -1.4877    0.1116 C   0  0  0  0  0  0  0  0  0  0  0  0
    4.2470   -0.1178    0.0605 C   0  0  0  0  0  0  0  0  0  0  0  0
   -4.3080   -0.8437   -1.0673 C   0  0  0  0  0  0  0  0  0  0  0  0
   -4.1208    1.3446   -0.0607 C   0  0  0  0  0  0  0  0  0  0  0  0
    5.3332    0.7657   -0.0571 C   0  0  0  0  0  0  0  0  0  0  0  0
    5.7677   -2.0429    0.0516 C   0  0  0  0  0  0  0  0  0  0  0  0
   -5.6548   -0.8939   -0.7079 C   0  0  0  0  0  0  0  0  0  0  0  0
   -5.4675    1.2946    0.2988 C   0  0  0  0  0  0  0  0  0  0  0  0
   -6.2345    0.1754   -0.0248 C   0  0  0  0  0  0  0  0  0  0  0  0
    6.6260    0.2308   -0.1191 C   0  0  0  0  0  0  0  0  0  0  0  0
    6.8372   -1.1489   -0.0656 C   0  0  0  0  0  0  0  0  0  0  0  0
    5.1247    2.2011   -0.1109 C   0  0  0  0  0  0  0  0  0  0  0  0
   -8.2059    1.2273    1.0558 C   0  0  0  0  0  0  0  0  0  0  0  0
   -8.4018   -1.0338    0.0084 C   0  0  0  0  0  0  0  0  0  0  0  0
    0.7025   -2.4040    0.4198 H   0  0  0  0  0  0  0  0  0  0  0  0
    0.8434   -0.0913    2.1982 H   0  0  0  0  0  0  0  0  0  0  0  0
   -0.2515   -1.4816    2.2122 H   0  0  0  0  0  0  0  0  0  0  0  0
    0.5058    0.1013   -1.2798 H   0  0  0  0  0  0  0  0  0  0  0  0
   -0.0312   -1.5556   -1.6337 H   0  0  0  0  0  0  0  0  0  0  0  0
   -1.8183    0.1919    1.6887 H   0  0  0  0  0  0  0  0  0  0  0  0
   -0.6015    1.1956    0.8615 H   0  0  0  0  0  0  0  0  0  0  0  0
   -2.0217   -0.0413   -2.1640 H   0  0  0  0  0  0  0  0  0  0  0  0
   -1.7312    1.3680   -1.1781 H   0  0  0  0  0  0  0  0  0  0  0  0
    3.0428   -3.0393    0.2872 H   0  0  0  0  0  0  0  0  0  0  0  0
   -3.8671   -1.6828   -1.5992 H   0  0  0  0  0  0  0  0  0  0  0  0
   -3.5333    2.2214    0.1986 H   0  0  0  0  0  0  0  0  0  0  0  0
    5.9291   -3.1140    0.0935 H   0  0  0  0  0  0  0  0  0  0  0  0
   -6.2085   -1.7864   -0.9820 H   0  0  0  0  0  0  0  0  0  0  0  0
   -5.8714    2.1512    0.8292 H   0  0  0  0  0  0  0  0  0  0  0  0
    7.4932    0.8811   -0.2097 H   0  0  0  0  0  0  0  0  0  0  0  0
    7.8517   -1.5367   -0.1157 H   0  0  0  0  0  0  0  0  0  0  0  0
   -7.7193    1.3873    2.0244 H   0  0  0  0  0  0  0  0  0  0  0  0
   -8.1673    2.1511    0.4680 H   0  0  0  0  0  0  0  0  0  0  0  0
   -9.2641    1.0371    1.2670 H   0  0  0  0  0  0  0  0  0  0  0  0
   -8.4525   -1.1844   -1.0758 H   0  0  0  0  0  0  0  0  0  0  0  0
   -8.0100   -1.9382    0.4871 H   0  0  0  0  0  0  0  0  0  0  0  0
   -9.4351   -0.9208    0.3550 H   0  0  0  0  0  0  0  0  0  0  0  0
    3.6287    3.6680   -0.0858 H   0  0  0  0  0  0  0  0  0  0  0  0
    3.0021    2.0721    0.0448 H   0  0  0  0  0  0  0  0  0  0  0  0
  1 25  2  0  0  0  0
  2  9  1  0  0  0  0
  2 10  1  0  0  0  0
  2 12  1  0  0  0  0
  3 11  1  0  0  0  0
  3 14  1  0  0  0  0
  3 37  1  0  0  0  0
  4 11  2  0  0  0  0
  4 15  1  0  0  0  0
  5 22  1  0  0  0  0
  5 26  1  0  0  0  0
  5 27  1  0  0  0  0
  6 25  1  0  0  0  0
  6 51  1  0  0  0  0
  6 52  1  0  0  0  0
  7  8  1  0  0  0  0
  7  9  1  0  0  0  0
  7 11  1  0  0  0  0
  7 28  1  0  0  0  0
  8 10  1  0  0  0  0
  8 29  1  0  0  0  0
  8 30  1  0  0  0  0
  9 31  1  0  0  0  0
  9 32  1  0  0  0  0
 10 33  1  0  0  0  0
 10 34  1  0  0  0  0
 12 13  1  0  0  0  0
 12 35  1  0  0  0  0
 12 36  1  0  0  0  0
 13 16  2  0  0  0  0
 13 17  1  0  0  0  0
 14 15  1  0  0  0  0
 14 19  2  0  0  0  0
 15 18  2  0  0  0  0
 16 20  1  0  0  0  0
 16 38  1  0  0  0  0
 17 21  2  0  0  0  0
 17 39  1  0  0  0  0
 18 23  1  0  0  0  0
 18 25  1  0  0  0  0
 19 24  1  0  0  0  0
 19 40  1  0  0  0  0
 20 22  2  0  0  0  0
 20 41  1  0  0  0  0
 21 22  1  0  0  0  0
 21 42  1  0  0  0  0
 23 24  2  0  0  0  0
 23 43  1  0  0  0  0
 24 44  1  0  0  0  0
 26 45  1  0  0  0  0
 26 46  1  0  0  0  0
 26 47  1  0  0  0  0
 27 48  1  0  0  0  0
 27 49  1  0  0  0  0
 27 50  1  0  0  0  0
M  END
> <PUBCHEM_COMPOUND_CID>
51137866

> <PUBCHEM_CONFORMER_RMSD>
0.8

> <PUBCHEM_CONFORMER_DIVERSEORDER>
1
125
75
9
87
41
127
12
136
146
89
56
104
135
124
111
68
142
34
93
81
117
95
123
31
105
64
83
32
122
137
27
91
121
72
84
119
86
138
35
38
134
76
101
120
33
143
133
21
116
63
97
73
65
118
24
28
110
115
131
2
113
39
46
85
144
15
82
54
94
98
80
49
140
13
8
126
102
112
107
69
25
145
45
52
10
106
20
23
67
79
5
57
78
88
90
22
132
108
14
44
47
141
70
7
139
3
130
61
96
42
16
109
55
58
129
26
74
48
99
30
6
128
53
114
50
19
100
71
29
62
4
60
17
37
66
43
40
92
11
18
36
103
59
51
77

> <PUBCHEM_MMFF94_PARTIAL_CHARGES>
36
1 -0.57
10 0.27
11 0.01
12 0.41
13 -0.14
14 -0.15
15 0.23
16 -0.15
17 -0.15
18 0.09
19 -0.15
2 -0.81
20 -0.15
21 -0.15
22 0.1
23 -0.15
24 -0.15
25 0.54
26 0.37
27 0.37
3 0.03
37 0.27
38 0.15
39 0.15
4 -0.57
40 0.15
41 0.15
42 0.15
43 0.15
44 0.15
5 -0.84
51 0.37
52 0.37
6 -0.8
7 0.18
9 0.27

> <PUBCHEM_EFFECTIVE_ROTOR_COUNT>
6

> <PUBCHEM_PHARMACOPHORE_FEATURES>
10
1 1 acceptor
1 2 cation
1 3 donor
1 5 cation
1 6 donor
3 3 4 11 cation
5 2 7 8 9 10 rings
5 3 4 11 14 15 rings
6 13 16 17 20 21 22 rings
6 14 15 18 19 23 24 rings

> <PUBCHEM_HEAVY_ATOM_COUNT>
27

> <PUBCHEM_ATOM_DEF_STEREO_COUNT>
1

> <PUBCHEM_ATOM_UDEF_STEREO_COUNT>
0

> <PUBCHEM_BOND_DEF_STEREO_COUNT>
0

> <PUBCHEM_BOND_UDEF_STEREO_COUNT>
0

> <PUBCHEM_ISOTOPIC_ATOM_COUNT>
0

> <PUBCHEM_COMPONENT_COUNT>
1

> <PUBCHEM_CACTVS_TAUTO_COUNT>
12

> <PUBCHEM_CONFORMER_ID>
030C4D4A00000001

> <PUBCHEM_MMFF94_ENERGY>
78.3475

> <PUBCHEM_FEATURE_SELFOVERLAP>
50.854

> <PUBCHEM_SHAPE_FINGERPRINT>
10 15 15140967274388682670
10299344 5 18201718453617128295
10411042 1 18049157767059233922
10595046 47 18413385440884467543
10638233 991 18343300379302336361
106641 1 14490197124439786758
10673678 19 18201161056850594876
11315181 36 18411981352805968905
11646440 116 17240486896427430797
11796584 16 13398618468367591438
12166972 35 18334296457387399164
12236239 1 18202280303415135806
12717326 120 15503801804483527961
12730499 353 18040433266055209170
13167372 99 18342458101998173232
13533116 47 17095794418135335842
13617811 41 15769781259805711064
14170010 4 17967816063157766388
14251764 18 18060416915928509639
14294032 229 16629142969586151617
14849402 71 18339082700222902849
14856354 85 17489869354444480543
14933364 13 18410573972604185445
15003188 100 18260268555902829484
15183329 4 16845579729090566441
15419008 47 16805317795357067541
15461852 350 12612764501747524571
15475509 8 14117527549214224507
1577012 14 18201996663732898645
15840311 113 18408888442806714165
16120349 18 18411695500719818981
17844677 252 18339082592357369669
20157964 124 18410011040242193842
20165401 70 7997701882721755840
20554085 129 16008742520006516313
20567600 75 11240005537827774011
21033648 29 16950551169456825356
21315763 28 18410855425879355659
21521721 280 18334859424483454771
21641784 216 16702032953992609176
21792961 116 17202763687860868687
221357 26 18335979792836371308
22224240 67 17749389269844489635
23081809 10 17989196062728647535
23424782 7 18186804720721177163
23516275 137 17915761807399128351
23522609 53 17917165965240459177
23536379 177 18342736286745027022
23569943 247 17244415301303243746
255183 451 17842848724869172966
2747138 104 17312830372716921957
3004659 81 18059853940221303566
335352 9 18408890629899771630
34797466 226 18272656739831832487
397830 11 17677626417604654769
4073 2 18115028618359950242
4325135 7 18412544306126085671
44317340 157 18272928345311430136
4625314 4 18409165498810456199
5265222 85 17774436226087175055
5283156 175 17346882209200812774
53794403 172 17749960002331711172
5758199 1 18186241719169963643
59682541 35 17603309275874684329

> <PUBCHEM_SHAPE_MULTIPOLES>
524.87
24.58
2.17
0.97
24.12
1.23
-0.09
3.1
-1.12
-3.99
0.02
0.86
-0.07
-1.09

> <PUBCHEM_SHAPE_SELFOVERLAP>
1142.925

> <PUBCHEM_SHAPE_VOLUME>
288

> <PUBCHEM_COORDINATE_TYPE>
2
5
10

$$$$
