45784257
  -OEChem-12032416203D

 43 46  0     1  0  0  0  0  0999 V2000
    7.0361   -0.6507    1.1049 F   0  0  0  0  0  0  0  0  0  0  0  0
    7.3652    0.7346   -0.5383 F   0  0  0  0  0  0  0  0  0  0  0  0
    6.8593   -1.3409   -0.9435 F   0  0  0  0  0  0  0  0  0  0  0  0
   -3.0024   -0.2772   -0.0646 N   0  0  1  0  0  0  0  0  0  0  0  0
    1.6706   -1.1202    0.5767 N   0  0  0  0  0  0  0  0  0  0  0  0
    1.0534    0.9186   -0.0576 N   0  0  0  0  0  0  0  0  0  0  0  0
   -0.7961   -0.6592    0.6322 C   0  0  1  0  0  0  0  0  0  0  0  0
   -1.5292    0.1888    1.6862 C   0  0  0  0  0  0  0  0  0  0  0  0
   -1.6797   -0.5723   -0.6195 C   0  0  0  0  0  0  0  0  0  0  0  0
   -2.7613    0.7277    0.9709 C   0  0  0  0  0  0  0  0  0  0  0  0
    0.6355   -0.2508    0.3723 C   0  0  0  0  0  0  0  0  0  0  0  0
   -3.9392    0.1852   -1.0780 C   0  0  0  0  0  0  0  0  0  0  0  0
   -5.3675    0.0680   -0.6164 C   0  0  0  0  0  0  0  0  0  0  0  0
    2.8341   -0.4685    0.2569 C   0  0  0  0  0  0  0  0  0  0  0  0
    2.4223    0.8020   -0.1359 C   0  0  0  0  0  0  0  0  0  0  0  0
    4.1704   -0.8689    0.2770 C   0  0  0  0  0  0  0  0  0  0  0  0
    3.3875    1.7418   -0.5354 C   0  0  0  0  0  0  0  0  0  0  0  0
   -6.0856   -1.1027   -0.8600 C   0  0  0  0  0  0  0  0  0  0  0  0
   -5.9727    1.1305    0.0546 C   0  0  0  0  0  0  0  0  0  0  0  0
    5.1177    0.0790   -0.1237 C   0  0  0  0  0  0  0  0  0  0  0  0
    4.7353    1.3618   -0.5230 C   0  0  0  0  0  0  0  0  0  0  0  0
   -7.4090   -1.2109   -0.4324 C   0  0  0  0  0  0  0  0  0  0  0  0
   -7.2959    1.0224    0.4822 C   0  0  0  0  0  0  0  0  0  0  0  0
    6.5652   -0.2895   -0.1242 C   0  0  0  0  0  0  0  0  0  0  0  0
   -8.0141   -0.1484    0.2386 C   0  0  0  0  0  0  0  0  0  0  0  0
   -0.8022   -1.7000    0.9876 H   0  0  0  0  0  0  0  0  0  0  0  0
   -1.8299   -0.4526    2.5241 H   0  0  0  0  0  0  0  0  0  0  0  0
   -0.9175    1.0012    2.0929 H   0  0  0  0  0  0  0  0  0  0  0  0
   -1.3414    0.2260   -1.2936 H   0  0  0  0  0  0  0  0  0  0  0  0
   -1.6740   -1.5159   -1.1759 H   0  0  0  0  0  0  0  0  0  0  0  0
   -3.5969    0.8279    1.6700 H   0  0  0  0  0  0  0  0  0  0  0  0
   -2.5373    1.7136    0.5436 H   0  0  0  0  0  0  0  0  0  0  0  0
   -3.7252    1.2115   -1.4066 H   0  0  0  0  0  0  0  0  0  0  0  0
   -3.8371   -0.4294   -1.9836 H   0  0  0  0  0  0  0  0  0  0  0  0
    1.5960   -2.0741    0.9044 H   0  0  0  0  0  0  0  0  0  0  0  0
    4.4566   -1.8676    0.5890 H   0  0  0  0  0  0  0  0  0  0  0  0
    3.1002    2.7408   -0.8474 H   0  0  0  0  0  0  0  0  0  0  0  0
   -5.6256   -1.9389   -1.3798 H   0  0  0  0  0  0  0  0  0  0  0  0
   -5.4273    2.0508    0.2461 H   0  0  0  0  0  0  0  0  0  0  0  0
    5.4777    2.0931   -0.8332 H   0  0  0  0  0  0  0  0  0  0  0  0
   -7.9681   -2.1227   -0.6216 H   0  0  0  0  0  0  0  0  0  0  0  0
   -7.7676    1.8501    1.0037 H   0  0  0  0  0  0  0  0  0  0  0  0
   -9.0445   -0.2325    0.5714 H   0  0  0  0  0  0  0  0  0  0  0  0
  1 24  1  0  0  0  0
  2 24  1  0  0  0  0
  3 24  1  0  0  0  0
  4  9  1  0  0  0  0
  4 10  1  0  0  0  0
  4 12  1  0  0  0  0
  5 11  1  0  0  0  0
  5 14  1  0  0  0  0
  5 35  1  0  0  0  0
  6 11  2  0  0  0  0
  6 15  1  0  0  0  0
  7  8  1  0  0  0  0
  7  9  1  0  0  0  0
  7 11  1  0  0  0  0
  7 26  1  0  0  0  0
  8 10  1  0  0  0  0
  8 27  1  0  0  0  0
  8 28  1  0  0  0  0
  9 29  1  0  0  0  0
  9 30  1  0  0  0  0
 10 31  1  0  0  0  0
 10 32  1  0  0  0  0
 12 13  1  0  0  0  0
 12 33  1  0  0  0  0
 12 34  1  0  0  0  0
 13 18  2  0  0  0  0
 13 19  1  0  0  0  0
 14 15  2  0  0  0  0
 14 16  1  0  0  0  0
 15 17  1  0  0  0  0
 16 20  2  0  0  0  0
 16 36  1  0  0  0  0
 17 21  2  0  0  0  0
 17 37  1  0  0  0  0
 18 22  1  0  0  0  0
 18 38  1  0  0  0  0
 19 23  2  0  0  0  0
 19 39  1  0  0  0  0
 20 21  1  0  0  0  0
 20 24  1  0  0  0  0
 21 40  1  0  0  0  0
 22 25  2  0  0  0  0
 22 41  1  0  0  0  0
 23 25  1  0  0  0  0
 23 42  1  0  0  0  0
 25 43  1  0  0  0  0
M  END
> <PUBCHEM_COMPOUND_CID>
45784257

> <PUBCHEM_CONFORMER_RMSD>
0.8

> <PUBCHEM_CONFORMER_DIVERSEORDER>
1
48
39
27
44
15
33
26
32
43
46
41
45
16
37
30
9
4
49
38
5
20
12
29
22
31
25
10
23
47
18
34
35
28
13
3
14
8
36
6
17
40
19
2
42
21
7
24
11

> <PUBCHEM_MMFF94_PARTIAL_CHARGES>
33
1 -0.34
10 0.27
11 0.01
12 0.41
13 -0.14
14 -0.15
15 0.23
16 -0.15
17 -0.15
18 -0.15
19 -0.15
2 -0.34
20 -0.14
21 -0.15
22 -0.15
23 -0.15
24 1.16
25 -0.15
3 -0.34
35 0.27
36 0.15
37 0.15
38 0.15
39 0.15
4 -0.81
40 0.15
41 0.15
42 0.15
43 0.15
5 0.03
6 -0.57
7 0.18
9 0.27

> <PUBCHEM_EFFECTIVE_ROTOR_COUNT>
5

> <PUBCHEM_PHARMACOPHORE_FEATURES>
7
1 4 cation
1 5 donor
3 5 6 11 cation
5 4 7 8 9 10 rings
5 5 6 11 14 15 rings
6 13 18 19 22 23 25 rings
6 14 15 16 17 20 21 rings

> <PUBCHEM_HEAVY_ATOM_COUNT>
25

> <PUBCHEM_ATOM_DEF_STEREO_COUNT>
1

> <PUBCHEM_ATOM_UDEF_STEREO_COUNT>
0

> <PUBCHEM_BOND_DEF_STEREO_COUNT>
0

> <PUBCHEM_BOND_UDEF_STEREO_COUNT>
0

> <PUBCHEM_ISOTOPIC_ATOM_COUNT>
0

> <PUBCHEM_COMPONENT_COUNT>
1

> <PUBCHEM_CACTVS_TAUTO_COUNT>
2

> <PUBCHEM_CONFORMER_ID>
02BA9CC100000001

> <PUBCHEM_MMFF94_ENERGY>
47.7105

> <PUBCHEM_FEATURE_SELFOVERLAP>
35.63

> <PUBCHEM_SHAPE_FINGERPRINT>
10 15 13190343482312593894
10066227 49 17988649528151346510
10299344 5 18413107273554840295
10670039 82 16226319335761961773
11315181 36 11169912780687043487
11408170 108 18059014957469079254
11524674 6 15410891882172115831
11646440 116 16805045112262839661
11719270 70 17775567524799602950
12091667 2 18334858312666803161
12166972 35 18335702762581651885
12236239 1 18273495680241636325
12730499 353 17458344126281513739
12838862 33 13254791287966606341
13533116 47 16878493553870162568
13668630 136 18273498961733982774
13914758 101 18411421678631122225
14170010 4 18113899377490511124
14251752 14 17775286062844417225
14251764 18 18040433287002076448
14251764 46 18343864420150726231
14294032 229 17559129674526624585
14856354 85 18202565112452377063
14933364 13 18408323289793357021
15183329 4 18259697896214060595
15419008 47 15864063287245616069
15716309 27 11815897851030151857
15840311 113 11386374742569766606
15849732 13 18131349717338205373
18006028 8 12679461984884160251
18335252 98 18410298017267605411
18681886 176 18130498712555021171
20238998 120 14045742621122778243
20281389 69 16008745810325783724
20567600 254 15647046076028005931
21033648 29 17313948662084167032
21095086 128 18334856143650731583
21150785 3 18410856568498814474
21267235 1 18411140229429386045
21315763 28 18412262857130292277
21792961 116 17775004553950930481
221357 26 18187079555288194604
22224240 67 9871746884281541420
23035841 295 17846779624723772463
23198884 109 18408041823612244305
23536379 177 18412261731975292313
23559900 14 16916489458568872731
23576562 1 17678192683552663622
23622692 88 13695870337457015355
249057 3 18335983150735879775
29717793 49 18131074831463747348
3004659 81 18342736325330888296
335352 9 18186805786347560270
3545911 37 17458344143524393603
4073 2 17749676301875963323
4098825 35 18337671919418961373
4325135 7 18408321095370855023
4339292 15 16773222012499145255
5283156 175 17704076174490274699
5758199 1 17821729421122035763
59755656 215 17748826298010036890
59755656 520 17603581958985333683
9663363 56 15985099709274933211

> <PUBCHEM_SHAPE_MULTIPOLES>
477.72
23.97
1.3
1.03
5.63
0.17
-0.17
-1.64
2.95
-0.25
0.14
0.27
-0.01
-1

> <PUBCHEM_SHAPE_SELFOVERLAP>
1050.64

> <PUBCHEM_SHAPE_VOLUME>
262.1

> <PUBCHEM_COORDINATE_TYPE>
2
5
10

$$$$
