44716858
  -OEChem-12032416333D

 76 80  0     1  0  0  0  0  0999 V2000
   -0.1105   -3.0314   -0.3490 S   0  0  0  0  0  0  0  0  0  0  0  0
    8.4759   -3.4940   -0.0414 F   0  0  0  0  0  0  0  0  0  0  0  0
   -7.5571   -0.7551    0.6470 O   0  0  0  0  0  0  0  0  0  0  0  0
   -7.2076   -2.4169   -1.0445 O   0  0  0  0  0  0  0  0  0  0  0  0
    0.0006    1.8909    1.7223 O   0  0  0  0  0  0  0  0  0  0  0  0
    3.3216    0.0748    0.3459 O   0  0  0  0  0  0  0  0  0  0  0  0
    0.3801   -0.5373    0.1322 N   0  0  0  0  0  0  0  0  0  0  0  0
    0.2303    3.5503    0.1115 N   0  0  0  0  0  0  0  0  0  0  0  0
    2.2847   -1.9994   -0.0784 N   0  0  0  0  0  0  0  0  0  0  0  0
   -3.3926    0.1490   -0.2737 C   0  0  2  0  0  0  0  0  0  0  0  0
   -3.7929   -1.2946    0.2661 C   0  0  1  0  0  0  0  0  0  0  0  0
   -5.3229   -1.6760    0.2238 C   0  0  1  0  0  0  0  0  0  0  0  0
   -1.9230    0.4841    0.2564 C   0  0  1  0  0  0  0  0  0  0  0  0
   -4.3723    1.2043    0.3022 C   0  0  0  0  0  0  0  0  0  0  0  0
   -6.1611   -0.4953    0.7910 C   0  0  1  0  0  0  0  0  0  0  0  0
   -2.8560   -2.3964   -0.3090 C   0  0  0  0  0  0  0  0  0  0  0  0
   -5.8404    0.8412    0.1310 C   0  0  0  0  0  0  0  0  0  0  0  0
   -3.4160    0.2406   -1.8193 C   0  0  0  0  0  0  0  0  0  0  0  0
   -0.9923   -0.6829    0.0482 C   0  0  0  0  0  0  0  0  0  0  0  0
   -5.8395   -2.0991   -1.1691 C   0  0  0  0  0  0  0  0  0  0  0  0
   -5.5656   -2.9016    1.1494 C   0  0  0  0  0  0  0  0  0  0  0  0
   -1.4322   -1.9697   -0.1863 C   0  0  0  0  0  0  0  0  0  0  0  0
   -1.3259    1.7844   -0.2984 C   0  0  0  0  0  0  0  0  0  0  0  0
   -0.3035    2.3839    0.6394 C   0  0  0  0  0  0  0  0  0  0  0  0
    0.9466   -1.7074   -0.0685 C   0  0  0  0  0  0  0  0  0  0  0  0
    1.2318    4.3398    0.7934 C   0  0  0  0  0  0  0  0  0  0  0  0
    1.0736    5.8292    0.4699 C   0  0  0  0  0  0  0  0  0  0  0  0
    2.6435    3.8458    0.4597 C   0  0  0  0  0  0  0  0  0  0  0  0
    1.4910    6.1643   -0.9620 C   0  0  0  0  0  0  0  0  0  0  0  0
    3.0584    4.1842   -0.9720 C   0  0  0  0  0  0  0  0  0  0  0  0
    2.9029    5.6730   -1.2665 C   0  0  0  0  0  0  0  0  0  0  0  0
    3.3852   -1.1293    0.1220 C   0  0  0  0  0  0  0  0  0  0  0  0
    4.7329   -1.7550    0.0783 C   0  0  0  0  0  0  0  0  0  0  0  0
    5.7910   -1.1817    0.7835 C   0  0  0  0  0  0  0  0  0  0  0  0
    4.9394   -2.9157   -0.6673 C   0  0  0  0  0  0  0  0  0  0  0  0
    7.0556   -1.7687    0.7430 C   0  0  0  0  0  0  0  0  0  0  0  0
    6.2040   -3.5029   -0.7079 C   0  0  0  0  0  0  0  0  0  0  0  0
    7.2620   -2.9294   -0.0028 C   0  0  0  0  0  0  0  0  0  0  0  0
   -3.5594   -1.2479    1.3441 H   0  0  0  0  0  0  0  0  0  0  0  0
   -2.0166    0.5823    1.3484 H   0  0  0  0  0  0  0  0  0  0  0  0
   -4.1774    1.3400    1.3742 H   0  0  0  0  0  0  0  0  0  0  0  0
   -4.2092    2.1827   -0.1637 H   0  0  0  0  0  0  0  0  0  0  0  0
   -5.9672   -0.4063    1.8682 H   0  0  0  0  0  0  0  0  0  0  0  0
   -3.0809   -2.5908   -1.3630 H   0  0  0  0  0  0  0  0  0  0  0  0
   -2.9985   -3.3348    0.2371 H   0  0  0  0  0  0  0  0  0  0  0  0
   -6.1280    0.8309   -0.9261 H   0  0  0  0  0  0  0  0  0  0  0  0
   -6.4595    1.6260    0.5845 H   0  0  0  0  0  0  0  0  0  0  0  0
   -2.7410   -0.4776   -2.2929 H   0  0  0  0  0  0  0  0  0  0  0  0
   -3.1097    1.2352   -2.1619 H   0  0  0  0  0  0  0  0  0  0  0  0
   -4.4080    0.0894   -2.2398 H   0  0  0  0  0  0  0  0  0  0  0  0
   -5.3157   -2.9826   -1.5465 H   0  0  0  0  0  0  0  0  0  0  0  0
   -5.7611   -1.3083   -1.9108 H   0  0  0  0  0  0  0  0  0  0  0  0
   -5.1136   -3.8135    0.7453 H   0  0  0  0  0  0  0  0  0  0  0  0
   -6.6313   -3.1098    1.2962 H   0  0  0  0  0  0  0  0  0  0  0  0
   -5.1379   -2.7323    2.1444 H   0  0  0  0  0  0  0  0  0  0  0  0
   -0.8526    1.6191   -1.2746 H   0  0  0  0  0  0  0  0  0  0  0  0
   -2.0982    2.5490   -0.4295 H   0  0  0  0  0  0  0  0  0  0  0  0
   -8.0382   -0.0155    1.0556 H   0  0  0  0  0  0  0  0  0  0  0  0
   -7.5225   -2.6915   -1.9225 H   0  0  0  0  0  0  0  0  0  0  0  0
   -0.0527    3.8360   -0.8213 H   0  0  0  0  0  0  0  0  0  0  0  0
    1.0710    4.2056    1.8704 H   0  0  0  0  0  0  0  0  0  0  0  0
    2.4704   -2.9881   -0.2170 H   0  0  0  0  0  0  0  0  0  0  0  0
    0.0355    6.1451    0.6289 H   0  0  0  0  0  0  0  0  0  0  0  0
    1.6933    6.4123    1.1630 H   0  0  0  0  0  0  0  0  0  0  0  0
    3.3562    4.3129    1.1515 H   0  0  0  0  0  0  0  0  0  0  0  0
    2.7180    2.7635    0.6134 H   0  0  0  0  0  0  0  0  0  0  0  0
    1.4427    7.2493   -1.1104 H   0  0  0  0  0  0  0  0  0  0  0  0
    0.7860    5.7199   -1.6741 H   0  0  0  0  0  0  0  0  0  0  0  0
    2.4519    3.6054   -1.6793 H   0  0  0  0  0  0  0  0  0  0  0  0
    4.1008    3.8854   -1.1313 H   0  0  0  0  0  0  0  0  0  0  0  0
    3.6234    6.2401   -0.6642 H   0  0  0  0  0  0  0  0  0  0  0  0
    3.1429    5.8683   -2.3177 H   0  0  0  0  0  0  0  0  0  0  0  0
    5.6505   -0.2806    1.3747 H   0  0  0  0  0  0  0  0  0  0  0  0
    4.1532   -3.3762   -1.2578 H   0  0  0  0  0  0  0  0  0  0  0  0
    7.8795   -1.3235    1.2928 H   0  0  0  0  0  0  0  0  0  0  0  0
    6.3675   -4.4024   -1.2940 H   0  0  0  0  0  0  0  0  0  0  0  0
  1 22  1  0  0  0  0
  1 25  1  0  0  0  0
  2 38  1  0  0  0  0
  3 15  1  0  0  0  0
  3 58  1  0  0  0  0
  4 20  1  0  0  0  0
  4 59  1  0  0  0  0
  5 24  2  0  0  0  0
  6 32  2  0  0  0  0
  7 19  1  0  0  0  0
  7 25  2  0  0  0  0
  8 24  1  0  0  0  0
  8 26  1  0  0  0  0
  8 60  1  0  0  0  0
  9 25  1  0  0  0  0
  9 32  1  0  0  0  0
  9 62  1  0  0  0  0
 10 11  1  0  0  0  0
 10 13  1  0  0  0  0
 10 14  1  0  0  0  0
 10 18  1  0  0  0  0
 11 12  1  0  0  0  0
 11 16  1  0  0  0  0
 11 39  1  0  0  0  0
 12 15  1  0  0  0  0
 12 20  1  0  0  0  0
 12 21  1  0  0  0  0
 13 19  1  0  0  0  0
 13 23  1  0  0  0  0
 13 40  1  0  0  0  0
 14 17  1  0  0  0  0
 14 41  1  0  0  0  0
 14 42  1  0  0  0  0
 15 17  1  0  0  0  0
 15 43  1  0  0  0  0
 16 22  1  0  0  0  0
 16 44  1  0  0  0  0
 16 45  1  0  0  0  0
 17 46  1  0  0  0  0
 17 47  1  0  0  0  0
 18 48  1  0  0  0  0
 18 49  1  0  0  0  0
 18 50  1  0  0  0  0
 19 22  2  0  0  0  0
 20 51  1  0  0  0  0
 20 52  1  0  0  0  0
 21 53  1  0  0  0  0
 21 54  1  0  0  0  0
 21 55  1  0  0  0  0
 23 24  1  0  0  0  0
 23 56  1  0  0  0  0
 23 57  1  0  0  0  0
 26 27  1  0  0  0  0
 26 28  1  0  0  0  0
 26 61  1  0  0  0  0
 27 29  1  0  0  0  0
 27 63  1  0  0  0  0
 27 64  1  0  0  0  0
 28 30  1  0  0  0  0
 28 65  1  0  0  0  0
 28 66  1  0  0  0  0
 29 31  1  0  0  0  0
 29 67  1  0  0  0  0
 29 68  1  0  0  0  0
 30 31  1  0  0  0  0
 30 69  1  0  0  0  0
 30 70  1  0  0  0  0
 31 71  1  0  0  0  0
 31 72  1  0  0  0  0
 32 33  1  0  0  0  0
 33 34  2  0  0  0  0
 33 35  1  0  0  0  0
 34 36  1  0  0  0  0
 34 73  1  0  0  0  0
 35 37  2  0  0  0  0
 35 74  1  0  0  0  0
 36 38  2  0  0  0  0
 36 75  1  0  0  0  0
 37 38  1  0  0  0  0
 37 76  1  0  0  0  0
M  END
> <PUBCHEM_COMPOUND_CID>
44716858

> <PUBCHEM_CONFORMER_RMSD>
1.2

> <PUBCHEM_CONFORMER_DIVERSEORDER>
1
13
21
5
16
4
18
23
9
19
3
11
15
10
24
17
14
2
8
6
7
12
22
20

> <PUBCHEM_MMFF94_PARTIAL_CHARGES>
34
1 -0.08
13 0.18
15 0.28
16 0.18
19 0.05
2 -0.19
20 0.28
22 -0.14
23 0.06
24 0.57
25 0.44
26 0.3
3 -0.68
32 0.54
33 0.09
34 -0.15
35 -0.15
36 -0.15
37 -0.15
38 0.19
4 -0.68
5 -0.57
58 0.4
59 0.4
6 -0.57
60 0.37
62 0.37
7 -0.57
73 0.15
74 0.15
75 0.15
76 0.15
8 -0.73
9 -0.49

> <PUBCHEM_EFFECTIVE_ROTOR_COUNT>
10.4

> <PUBCHEM_PHARMACOPHORE_FEATURES>
13
1 3 acceptor
1 3 donor
1 4 acceptor
1 4 donor
1 5 acceptor
1 6 acceptor
1 8 donor
1 9 donor
5 1 7 19 22 25 rings
6 10 11 12 14 15 17 rings
6 10 11 13 16 19 22 rings
6 26 27 28 29 30 31 rings
6 33 34 35 36 37 38 rings

> <PUBCHEM_HEAVY_ATOM_COUNT>
38

> <PUBCHEM_ATOM_DEF_STEREO_COUNT>
5

> <PUBCHEM_ATOM_UDEF_STEREO_COUNT>
0

> <PUBCHEM_BOND_DEF_STEREO_COUNT>
0

> <PUBCHEM_BOND_UDEF_STEREO_COUNT>
0

> <PUBCHEM_ISOTOPIC_ATOM_COUNT>
0

> <PUBCHEM_COMPONENT_COUNT>
1

> <PUBCHEM_CACTVS_TAUTO_COUNT>
6

> <PUBCHEM_CONFORMER_ID>
02AA533A00000001

> <PUBCHEM_MMFF94_ENERGY>
104.7292

> <PUBCHEM_FEATURE_SELFOVERLAP>
66.119

> <PUBCHEM_SHAPE_FINGERPRINT>
10032420 55 17386275507183557155
10050765 1 18194403523280759219
10411042 1 18411136909862641402
11059845 2 17037793878917599730
11445158 3 18342731966308381431
11756154 67 18339928104547126272
12166972 35 18040722446165949078
12522641 126 18264485272598826941
14040222 275 18268170715949498670
14068700 675 18342460305511490624
14114211 68 17754195368276815204
14394314 77 18267024964561415091
14415361 192 17459169838303010492
14790565 3 17473828806154795441
14849402 71 18338239378623936693
14937079 2 18411421726450463507
14955137 171 18411421708880489947
15021287 119 18343580750725854599
15198563 99 18194962946601658108
15347591 1 18266179616930569979
15419008 47 18040991817539607012
15927050 60 17764594613223012503
16087824 20 18050849919332669097
17686467 74 18342167819019199290
18608769 82 18270678667412620786
18681886 176 18411975849998925434
19611394 137 18261688037862231067
21360443 120 18048042053875801260
21716022 299 18335997432262561044
21779490 112 16749891719682160036
21796203 349 17976298765353918265
21927370 108 18266194858529865914
22311459 1 18411136940192020479
23523788 1 16595653245647647475
23559900 14 18340479050314784387
24771750 20 17901955463205611796
25019877 29 16988559078758297422
3103668 31 18119528734979963644
3418910 222 18409175394768650892
4046055 25 18265897960910813052
469060 322 18196667210766770352
6057620 51 18261682472576170514
6700243 42 17698753345070683972

> <PUBCHEM_SHAPE_MULTIPOLES>
740.18
18.36
8.22
1.09
3.97
16.71
-0.13
-25.13
0.49
13.27
-1.53
-0.46
0.39
-0.64

> <PUBCHEM_SHAPE_SELFOVERLAP>
1569.086

> <PUBCHEM_SHAPE_VOLUME>
416.9

> <PUBCHEM_COORDINATE_TYPE>
2
5
10

$$$$
