28961662
  -OEChem-12032416133D

 53 54  0     1  0  0  0  0  0999 V2000
    0.7872   -1.5295   -0.6031 O   0  0  0  0  0  0  0  0  0  0  0  0
   -1.3234   -2.0283    1.4621 O   0  0  0  0  0  0  0  0  0  0  0  0
    1.8245   -4.1259   -0.3072 O   0  0  0  0  0  0  0  0  0  0  0  0
    3.1391   -0.2599    0.9385 O   0  0  0  0  0  0  0  0  0  0  0  0
   -2.4696    0.1035   -0.0845 N   0  0  0  0  0  0  0  0  0  0  0  0
   -4.8552    1.7292   -0.2430 N   0  0  0  0  0  0  0  0  0  0  0  0
    1.5815    1.2921    0.1880 N   0  0  0  0  0  0  0  0  0  0  0  0
    3.8390    1.7493    0.0128 N   0  0  0  0  0  0  0  0  0  0  0  0
   -1.4847   -0.8203   -0.6436 C   0  0  1  0  0  0  0  0  0  0  0  0
   -0.0285   -0.3377   -0.6484 C   0  0  1  0  0  0  0  0  0  0  0  0
   -1.3958   -2.1713    0.0494 C   0  0  1  0  0  0  0  0  0  0  0  0
   -0.0699   -2.6829   -0.5013 C   0  0  2  0  0  0  0  0  0  0  0  0
   -2.4829    1.3668   -0.8321 C   0  0  0  0  0  0  0  0  0  0  0  0
   -3.8070   -0.5019   -0.0769 C   0  0  0  0  0  0  0  0  0  0  0  0
    0.4017    0.5488    0.5150 C   0  0  0  0  0  0  0  0  0  0  0  0
   -3.5182    2.3353   -0.2497 C   0  0  0  0  0  0  0  0  0  0  0  0
   -4.8413    0.4669    0.5063 C   0  0  0  0  0  0  0  0  0  0  0  0
    0.6184   -3.7458    0.3355 C   0  0  0  0  0  0  0  0  0  0  0  0
   -5.8411    2.6530    0.3143 C   0  0  0  0  0  0  0  0  0  0  0  0
    2.8798    0.8283    0.4265 C   0  0  0  0  0  0  0  0  0  0  0  0
    5.2576    1.5150    0.1463 C   0  0  0  0  0  0  0  0  0  0  0  0
    5.9923    2.8298    0.3731 C   0  0  0  0  0  0  0  0  0  0  0  0
    5.7966    0.7856   -1.0780 C   0  0  0  0  0  0  0  0  0  0  0  0
   -1.7485   -1.0283   -1.6933 H   0  0  0  0  0  0  0  0  0  0  0  0
    0.1814    0.1714   -1.5979 H   0  0  0  0  0  0  0  0  0  0  0  0
   -2.2235   -2.8453   -0.1939 H   0  0  0  0  0  0  0  0  0  0  0  0
   -0.2015   -3.0471   -1.5284 H   0  0  0  0  0  0  0  0  0  0  0  0
   -2.7230    1.1811   -1.8888 H   0  0  0  0  0  0  0  0  0  0  0  0
   -1.5161    1.8770   -0.8253 H   0  0  0  0  0  0  0  0  0  0  0  0
   -3.8294   -1.4003    0.5493 H   0  0  0  0  0  0  0  0  0  0  0  0
   -4.1104   -0.7995   -1.0899 H   0  0  0  0  0  0  0  0  0  0  0  0
    0.6162   -0.0590    1.4019 H   0  0  0  0  0  0  0  0  0  0  0  0
   -0.3397    1.2934    0.8067 H   0  0  0  0  0  0  0  0  0  0  0  0
   -3.2159    2.6329    0.7636 H   0  0  0  0  0  0  0  0  0  0  0  0
   -3.5279    3.2416   -0.8673 H   0  0  0  0  0  0  0  0  0  0  0  0
   -5.8287   -0.0076    0.4501 H   0  0  0  0  0  0  0  0  0  0  0  0
   -4.6239    0.6441    1.5685 H   0  0  0  0  0  0  0  0  0  0  0  0
   -0.0166   -4.6297    0.4486 H   0  0  0  0  0  0  0  0  0  0  0  0
    0.8906   -3.3612    1.3236 H   0  0  0  0  0  0  0  0  0  0  0  0
   -1.3769   -2.9178    1.8508 H   0  0  0  0  0  0  0  0  0  0  0  0
    1.4693    2.2011   -0.2504 H   0  0  0  0  0  0  0  0  0  0  0  0
   -6.8441    2.2137    0.2759 H   0  0  0  0  0  0  0  0  0  0  0  0
   -5.8795    3.5756   -0.2754 H   0  0  0  0  0  0  0  0  0  0  0  0
   -5.6202    2.9177    1.3547 H   0  0  0  0  0  0  0  0  0  0  0  0
    2.2416   -4.8077    0.2465 H   0  0  0  0  0  0  0  0  0  0  0  0
    3.5270    2.5876   -0.4683 H   0  0  0  0  0  0  0  0  0  0  0  0
    5.4165    0.8760    1.0233 H   0  0  0  0  0  0  0  0  0  0  0  0
    5.6117    3.3380    1.2660 H   0  0  0  0  0  0  0  0  0  0  0  0
    5.8609    3.5112   -0.4749 H   0  0  0  0  0  0  0  0  0  0  0  0
    7.0652    2.6604    0.5113 H   0  0  0  0  0  0  0  0  0  0  0  0
    5.2874   -0.1742   -1.2182 H   0  0  0  0  0  0  0  0  0  0  0  0
    5.6441    1.3743   -1.9894 H   0  0  0  0  0  0  0  0  0  0  0  0
    6.8684    0.5867   -0.9751 H   0  0  0  0  0  0  0  0  0  0  0  0
  1 10  1  0  0  0  0
  1 12  1  0  0  0  0
  2 11  1  0  0  0  0
  2 40  1  0  0  0  0
  3 18  1  0  0  0  0
  3 45  1  0  0  0  0
  4 20  2  0  0  0  0
  5  9  1  0  0  0  0
  5 13  1  0  0  0  0
  5 14  1  0  0  0  0
  6 16  1  0  0  0  0
  6 17  1  0  0  0  0
  6 19  1  0  0  0  0
  7 15  1  0  0  0  0
  7 20  1  0  0  0  0
  7 41  1  0  0  0  0
  8 20  1  0  0  0  0
  8 21  1  0  0  0  0
  8 46  1  0  0  0  0
  9 10  1  0  0  0  0
  9 11  1  0  0  0  0
  9 24  1  0  0  0  0
 10 15  1  0  0  0  0
 10 25  1  0  0  0  0
 11 12  1  0  0  0  0
 11 26  1  0  0  0  0
 12 18  1  0  0  0  0
 12 27  1  0  0  0  0
 13 16  1  0  0  0  0
 13 28  1  0  0  0  0
 13 29  1  0  0  0  0
 14 17  1  0  0  0  0
 14 30  1  0  0  0  0
 14 31  1  0  0  0  0
 15 32  1  0  0  0  0
 15 33  1  0  0  0  0
 16 34  1  0  0  0  0
 16 35  1  0  0  0  0
 17 36  1  0  0  0  0
 17 37  1  0  0  0  0
 18 38  1  0  0  0  0
 18 39  1  0  0  0  0
 19 42  1  0  0  0  0
 19 43  1  0  0  0  0
 19 44  1  0  0  0  0
 21 22  1  0  0  0  0
 21 23  1  0  0  0  0
 21 47  1  0  0  0  0
 22 48  1  0  0  0  0
 22 49  1  0  0  0  0
 22 50  1  0  0  0  0
 23 51  1  0  0  0  0
 23 52  1  0  0  0  0
 23 53  1  0  0  0  0
M  END
> <PUBCHEM_COMPOUND_CID>
28961662

> <PUBCHEM_CONFORMER_RMSD>
1

> <PUBCHEM_CONFORMER_DIVERSEORDER>
1
67
27
15
103
65
87
4
68
26
83
102
24
73
81
31
56
19
38
53
18
16
78
86
34
60
22
71
46
52
21
80
96
99
25
64
28
58
11
42
61
51
8
88
20
10
57
89
95
37
90
6
97
29
45
7
93
17
54
33
75
72
92
69
76
9
43
5
62
85
48
50
77
13
82
3
2
30
79
84
74
66
44
63
35
100
40
98
94
12
70
23
55
91
36
41
59
101
32
39
49
47
14

> <PUBCHEM_MMFF94_PARTIAL_CHARGES>
25
1 -0.56
10 0.28
11 0.28
12 0.28
13 0.27
14 0.27
15 0.3
16 0.27
17 0.27
18 0.28
19 0.27
2 -0.68
20 0.69
21 0.3
3 -0.68
4 -0.57
40 0.4
41 0.37
45 0.4
46 0.37
5 -0.81
6 -0.81
7 -0.73
8 -0.73
9 0.27

> <PUBCHEM_EFFECTIVE_ROTOR_COUNT>
9.2

> <PUBCHEM_PHARMACOPHORE_FEATURES>
13
1 1 acceptor
1 2 acceptor
1 2 donor
1 3 acceptor
1 3 donor
1 4 acceptor
1 5 cation
1 6 cation
1 7 donor
1 8 donor
3 21 22 23 hydrophobe
5 1 9 10 11 12 rings
6 5 6 13 14 16 17 rings

> <PUBCHEM_HEAVY_ATOM_COUNT>
23

> <PUBCHEM_ATOM_DEF_STEREO_COUNT>
4

> <PUBCHEM_ATOM_UDEF_STEREO_COUNT>
0

> <PUBCHEM_BOND_DEF_STEREO_COUNT>
0

> <PUBCHEM_BOND_UDEF_STEREO_COUNT>
0

> <PUBCHEM_ISOTOPIC_ATOM_COUNT>
0

> <PUBCHEM_COMPONENT_COUNT>
1

> <PUBCHEM_CACTVS_TAUTO_COUNT>
3

> <PUBCHEM_CONFORMER_ID>
01B9EB7E00000001

> <PUBCHEM_MMFF94_ENERGY>
44.7007

> <PUBCHEM_FEATURE_SELFOVERLAP>
66.026

> <PUBCHEM_SHAPE_FINGERPRINT>
10411042 1 17402894423237416054
10493431 412 18409164454342222780
107951 10 18340211885937593342
12166972 35 12103564208171943880
12173636 292 18266730466889954332
12293681 160 17847064384891841264
12390115 104 18341903999608842385
12788726 201 18051112985150991243
14713325 29 18263646332548205867
14790565 3 18410858776070566684
15042514 8 17975981186935513619
15230672 131 18408045118327427390
15664445 248 17554058636240862287
15927050 60 18412826897515693039
167882 2 18339360751851787050
17980427 26 18191010219532712119
18785283 64 18263076609462799002
19784866 170 18335986393942785213
200 152 11311783886024620072
20374829 77 9583519815455094541
20554085 129 17988342820225265568
20621476 66 18341617035521905416
20681677 155 18338794641319108440
21033648 29 18199741595913792760
21279426 13 18272662233775356094
21756936 100 18340760550481381180
22224240 67 18410014356052132449
23419403 2 17828803596877574907
23559900 14 18123185702042834595
283562 15 18194390320060895375
293599 30 18411701006382809864
3298306 158 18343306972477958822
3411729 13 18336544898277780315
3759504 43 18336546118048375178
469060 322 11819832011214447512
474 4 18339920412023244385
5265222 85 18194134129967450628
5385378 56 18339929194973148785
56616090 46 18411989074281558702
6327066 14 18408878551391919485
633830 44 18343577413076693469
7364860 26 18196368109687608679
77188 2 17474669447081700054
7808743 9 18338512049144602496
9981440 41 18336269023991249411

> <PUBCHEM_SHAPE_MULTIPOLES>
429.93
12.43
4.23
0.9
7.59
3.92
-0.03
-15.59
-0.16
0.63
-0.2
0.19
0.11
0.38

> <PUBCHEM_SHAPE_SELFOVERLAP>
860.596

> <PUBCHEM_SHAPE_VOLUME>
253.9

> <PUBCHEM_COORDINATE_TYPE>
2
5
10

$$$$
