25339565
  -OEChem-12032416193D

 86 90  0     1  0  0  0  0  0999 V2000
   -0.0679   -4.4490   -1.2055 O   0  0  0  0  0  0  0  0  0  0  0  0
   -1.2782    1.6429   -2.3150 O   0  0  0  0  0  0  0  0  0  0  0  0
    3.2884    0.1983   -0.2668 N   0  0  0  0  0  0  0  0  0  0  0  0
   -2.9995    0.0964   -2.5012 N   0  0  0  0  0  0  0  0  0  0  0  0
   -4.5052    3.1598    0.7343 N   0  0  0  0  0  0  0  0  0  0  0  0
    1.2775   -1.3322   -0.5268 C   0  0  1  0  0  0  0  0  0  0  0  0
    0.4303   -2.0927    0.5481 C   0  0  2  0  0  0  0  0  0  0  0  0
    0.5180   -1.2004    1.8494 C   0  0  0  0  0  0  0  0  0  0  0  0
    2.4373   -0.8080    0.3528 C   0  0  2  0  0  0  0  0  0  0  0  0
    1.7362   -0.2666    1.6083 C   0  0  0  0  0  0  0  0  0  0  0  0
    1.7350   -2.2144   -1.7120 C   0  0  0  0  0  0  0  0  0  0  0  0
    0.9185   -3.5433    0.7893 C   0  0  0  0  0  0  0  0  0  0  0  0
    1.1635   -4.3431   -0.4910 C   0  0  2  0  0  0  0  0  0  0  0  0
    0.4778   -0.1641   -1.1629 C   0  0  0  0  0  0  0  0  0  0  0  0
    2.2041   -3.6151   -1.3428 C   0  0  0  0  0  0  0  0  0  0  0  0
   -0.7766   -0.3791    2.0254 C   0  0  0  0  0  0  0  0  0  0  0  0
    0.7151   -1.9699    3.1710 C   0  0  0  0  0  0  0  0  0  0  0  0
   -0.9159   -0.6217   -1.5392 C   0  0  0  0  0  0  0  0  0  0  0  0
    1.6364   -5.7594   -0.1564 C   0  0  0  0  0  0  0  0  0  0  0  0
    4.5398    0.3129    0.4780 C   0  0  0  0  0  0  0  0  0  0  0  0
    5.4086    1.4421   -0.0729 C   0  0  0  0  0  0  0  0  0  0  0  0
   -1.7212    0.5088   -2.1540 C   0  0  0  0  0  0  0  0  0  0  0  0
    4.6852    2.7903    0.0471 C   0  0  0  0  0  0  0  0  0  0  0  0
    6.7638    1.4833    0.6462 C   0  0  0  0  0  0  0  0  0  0  0  0
    5.5555    3.9429   -0.4486 C   0  0  0  0  0  0  0  0  0  0  0  0
    7.6305    2.6382    0.1495 C   0  0  0  0  0  0  0  0  0  0  0  0
    6.9049    3.9754    0.2621 C   0  0  0  0  0  0  0  0  0  0  0  0
   -3.9606    0.9894   -3.1037 C   0  0  0  0  0  0  0  0  0  0  0  0
   -5.2252    1.1433   -2.2622 C   0  0  0  0  0  0  0  0  0  0  0  0
   -4.9552    1.7203   -0.8943 C   0  0  0  0  0  0  0  0  0  0  0  0
   -4.9231    1.0050    0.3355 C   0  0  0  0  0  0  0  0  0  0  0  0
   -4.6946    3.0423   -0.6166 C   0  0  0  0  0  0  0  0  0  0  0  0
   -4.6389    1.9314    1.3412 C   0  0  0  0  0  0  0  0  0  0  0  0
   -5.1092   -0.3458    0.6906 C   0  0  0  0  0  0  0  0  0  0  0  0
   -4.5310    1.5730    2.6896 C   0  0  0  0  0  0  0  0  0  0  0  0
   -5.0043   -0.7188    2.0356 C   0  0  0  0  0  0  0  0  0  0  0  0
   -4.7195    0.2275    3.0180 C   0  0  0  0  0  0  0  0  0  0  0  0
   -0.6119   -2.2355    0.2666 H   0  0  0  0  0  0  0  0  0  0  0  0
    3.0541   -1.6702    0.6413 H   0  0  0  0  0  0  0  0  0  0  0  0
    2.4199   -0.2602    2.4652 H   0  0  0  0  0  0  0  0  0  0  0  0
    1.4124    0.7723    1.4678 H   0  0  0  0  0  0  0  0  0  0  0  0
    2.5413   -1.7153   -2.2638 H   0  0  0  0  0  0  0  0  0  0  0  0
    0.9312   -2.3383   -2.4449 H   0  0  0  0  0  0  0  0  0  0  0  0
    1.8535   -3.5411    1.3611 H   0  0  0  0  0  0  0  0  0  0  0  0
    0.1685   -4.0598    1.4027 H   0  0  0  0  0  0  0  0  0  0  0  0
    0.4056    0.6992   -0.4941 H   0  0  0  0  0  0  0  0  0  0  0  0
    1.0012    0.2143   -2.0518 H   0  0  0  0  0  0  0  0  0  0  0  0
    2.3803   -4.1708   -2.2725 H   0  0  0  0  0  0  0  0  0  0  0  0
    3.1647   -3.5613   -0.8164 H   0  0  0  0  0  0  0  0  0  0  0  0
   -1.6454   -1.0389    2.1269 H   0  0  0  0  0  0  0  0  0  0  0  0
   -0.9682    0.2981    1.1912 H   0  0  0  0  0  0  0  0  0  0  0  0
   -0.7263    0.2444    2.9259 H   0  0  0  0  0  0  0  0  0  0  0  0
   -0.0862   -2.6992    3.3307 H   0  0  0  0  0  0  0  0  0  0  0  0
    0.7065   -1.2841    4.0270 H   0  0  0  0  0  0  0  0  0  0  0  0
    1.6752   -2.4936    3.2084 H   0  0  0  0  0  0  0  0  0  0  0  0
    3.5003   -0.0606   -1.2290 H   0  0  0  0  0  0  0  0  0  0  0  0
   -1.5208   -0.9070   -0.6768 H   0  0  0  0  0  0  0  0  0  0  0  0
   -0.9156   -1.4516   -2.2510 H   0  0  0  0  0  0  0  0  0  0  0  0
    0.8911   -6.2895    0.4475 H   0  0  0  0  0  0  0  0  0  0  0  0
    2.5836   -5.7515    0.3927 H   0  0  0  0  0  0  0  0  0  0  0  0
    1.7703   -6.3489   -1.0706 H   0  0  0  0  0  0  0  0  0  0  0  0
    4.3492    0.5063    1.5403 H   0  0  0  0  0  0  0  0  0  0  0  0
    5.0959   -0.6311    0.4124 H   0  0  0  0  0  0  0  0  0  0  0  0
   -0.7138   -4.8926   -0.6295 H   0  0  0  0  0  0  0  0  0  0  0  0
    5.6006    1.2485   -1.1380 H   0  0  0  0  0  0  0  0  0  0  0  0
    4.4071    2.9741    1.0930 H   0  0  0  0  0  0  0  0  0  0  0  0
    3.7551    2.7868   -0.5329 H   0  0  0  0  0  0  0  0  0  0  0  0
    7.2989    0.5388    0.4915 H   0  0  0  0  0  0  0  0  0  0  0  0
    6.6101    1.5879    1.7279 H   0  0  0  0  0  0  0  0  0  0  0  0
    5.0333    4.8933   -0.2904 H   0  0  0  0  0  0  0  0  0  0  0  0
    5.7142    3.8416   -1.5294 H   0  0  0  0  0  0  0  0  0  0  0  0
    7.9096    2.4611   -0.8965 H   0  0  0  0  0  0  0  0  0  0  0  0
    8.5614    2.6746    0.7265 H   0  0  0  0  0  0  0  0  0  0  0  0
    7.5275    4.7701   -0.1641 H   0  0  0  0  0  0  0  0  0  0  0  0
    6.7538    4.2204    1.3207 H   0  0  0  0  0  0  0  0  0  0  0  0
   -3.2690   -0.8732   -2.3621 H   0  0  0  0  0  0  0  0  0  0  0  0
   -4.2225    0.5591   -4.0764 H   0  0  0  0  0  0  0  0  0  0  0  0
   -3.5032    1.9674   -3.2898 H   0  0  0  0  0  0  0  0  0  0  0  0
   -5.9312    1.7969   -2.7894 H   0  0  0  0  0  0  0  0  0  0  0  0
   -5.7203    0.1700   -2.1600 H   0  0  0  0  0  0  0  0  0  0  0  0
   -4.6260    3.9102   -1.2576 H   0  0  0  0  0  0  0  0  0  0  0  0
   -4.2969    4.0230    1.2169 H   0  0  0  0  0  0  0  0  0  0  0  0
   -5.3291   -1.0978   -0.0616 H   0  0  0  0  0  0  0  0  0  0  0  0
   -4.3087    2.3088    3.4550 H   0  0  0  0  0  0  0  0  0  0  0  0
   -5.1452   -1.7596    2.3152 H   0  0  0  0  0  0  0  0  0  0  0  0
   -4.6412   -0.0845    4.0563 H   0  0  0  0  0  0  0  0  0  0  0  0
  1 13  1  0  0  0  0
  1 64  1  0  0  0  0
  2 22  2  0  0  0  0
  3  9  1  0  0  0  0
  3 20  1  0  0  0  0
  3 56  1  0  0  0  0
  4 22  1  0  0  0  0
  4 28  1  0  0  0  0
  4 76  1  0  0  0  0
  5 32  1  0  0  0  0
  5 33  1  0  0  0  0
  5 82  1  0  0  0  0
  6  7  1  0  0  0  0
  6  9  1  0  0  0  0
  6 11  1  0  0  0  0
  6 14  1  0  0  0  0
  7  8  1  0  0  0  0
  7 12  1  0  0  0  0
  7 38  1  0  0  0  0
  8 10  1  0  0  0  0
  8 16  1  0  0  0  0
  8 17  1  0  0  0  0
  9 10  1  0  0  0  0
  9 39  1  0  0  0  0
 10 40  1  0  0  0  0
 10 41  1  0  0  0  0
 11 15  1  0  0  0  0
 11 42  1  0  0  0  0
 11 43  1  0  0  0  0
 12 13  1  0  0  0  0
 12 44  1  0  0  0  0
 12 45  1  0  0  0  0
 13 15  1  0  0  0  0
 13 19  1  0  0  0  0
 14 18  1  0  0  0  0
 14 46  1  0  0  0  0
 14 47  1  0  0  0  0
 15 48  1  0  0  0  0
 15 49  1  0  0  0  0
 16 50  1  0  0  0  0
 16 51  1  0  0  0  0
 16 52  1  0  0  0  0
 17 53  1  0  0  0  0
 17 54  1  0  0  0  0
 17 55  1  0  0  0  0
 18 22  1  0  0  0  0
 18 57  1  0  0  0  0
 18 58  1  0  0  0  0
 19 59  1  0  0  0  0
 19 60  1  0  0  0  0
 19 61  1  0  0  0  0
 20 21  1  0  0  0  0
 20 62  1  0  0  0  0
 20 63  1  0  0  0  0
 21 23  1  0  0  0  0
 21 24  1  0  0  0  0
 21 65  1  0  0  0  0
 23 25  1  0  0  0  0
 23 66  1  0  0  0  0
 23 67  1  0  0  0  0
 24 26  1  0  0  0  0
 24 68  1  0  0  0  0
 24 69  1  0  0  0  0
 25 27  1  0  0  0  0
 25 70  1  0  0  0  0
 25 71  1  0  0  0  0
 26 27  1  0  0  0  0
 26 72  1  0  0  0  0
 26 73  1  0  0  0  0
 27 74  1  0  0  0  0
 27 75  1  0  0  0  0
 28 29  1  0  0  0  0
 28 77  1  0  0  0  0
 28 78  1  0  0  0  0
 29 30  1  0  0  0  0
 29 79  1  0  0  0  0
 29 80  1  0  0  0  0
 30 31  1  0  0  0  0
 30 32  2  0  0  0  0
 31 33  1  0  0  0  0
 31 34  2  0  0  0  0
 32 81  1  0  0  0  0
 33 35  2  0  0  0  0
 34 36  1  0  0  0  0
 34 83  1  0  0  0  0
 35 37  1  0  0  0  0
 35 84  1  0  0  0  0
 36 37  2  0  0  0  0
 36 85  1  0  0  0  0
 37 86  1  0  0  0  0
M  END
> <PUBCHEM_COMPOUND_CID>
25339565

> <PUBCHEM_CONFORMER_RMSD>
1.2

> <PUBCHEM_CONFORMER_DIVERSEORDER>
1
50
97
71
98
96
84
105
147
24
43
102
128
75
69
83
127
103
63
151
44
58
148
153
149
25
92
78
19
61
68
114
145
108
59
104
60
134
73
72
67
62
42
56
120
6
21
76
41
100
132
143
87
138
30
111
17
2
109
45
89
122
139
23
53
79
129
8
101
55
110
66
94
107
117
131
40
74
140
54
28
137
116
123
16
124
85
49
142
70
150
22
7
130
121
29
12
133
64
141
32
126
99
88
37
35
34
38
95
65
106
112
125
91
5
152
93
86
27
51
47
80
82
36
77
39
18
90
11
144
9
3
14
146
135
113
81
33
13
118
136
10
20
115
57
119
48
46
31
4
52
15
26

> <PUBCHEM_MMFF94_PARTIAL_CHARGES>
28
1 -0.68
13 0.28
18 0.06
2 -0.57
20 0.27
22 0.57
28 0.3
29 0.18
3 -0.9
30 -0.18
32 -0.3
33 -0.15
34 -0.15
35 -0.15
36 -0.15
37 -0.15
4 -0.73
5 0.03
56 0.36
64 0.4
76 0.37
81 0.15
82 0.27
83 0.15
84 0.15
85 0.15
86 0.15
9 0.27

> <PUBCHEM_EFFECTIVE_ROTOR_COUNT>
12.6

> <PUBCHEM_PHARMACOPHORE_FEATURES>
14
1 1 acceptor
1 1 donor
1 2 acceptor
1 3 cation
1 3 donor
1 4 donor
1 5 cation
1 5 donor
3 8 16 17 hydrophobe
5 5 30 31 32 33 rings
5 6 7 8 9 10 rings
6 21 23 24 25 26 27 rings
6 31 33 34 35 36 37 rings
6 6 7 11 12 13 15 rings

> <PUBCHEM_HEAVY_ATOM_COUNT>
37

> <PUBCHEM_ATOM_DEF_STEREO_COUNT>
4

> <PUBCHEM_ATOM_UDEF_STEREO_COUNT>
0

> <PUBCHEM_BOND_DEF_STEREO_COUNT>
0

> <PUBCHEM_BOND_UDEF_STEREO_COUNT>
0

> <PUBCHEM_ISOTOPIC_ATOM_COUNT>
0

> <PUBCHEM_COMPONENT_COUNT>
1

> <PUBCHEM_CACTVS_TAUTO_COUNT>
2

> <PUBCHEM_CONFORMER_ID>
0182A6AD00000001

> <PUBCHEM_MMFF94_ENERGY>
90.0377

> <PUBCHEM_FEATURE_SELFOVERLAP>
71.258

> <PUBCHEM_SHAPE_FINGERPRINT>
10010297 198 18128535960004261469
10369192 42 18338242655747235328
11007060 377 18045768237943302988
11135609 201 18270961361732132400
11479125 193 18413103974825141960
11621639 307 17702963421669276808
11720765 8 17688033007167488139
1200032 147 16629426682773351867
12422481 6 15719388408716804976
14347329 18 15123504775071673589
15183329 4 15482953856470660004
15320295 40 16082493478690841987
15419009 47 9871205920629503883
15684970 41 17323502004504928386
17913733 40 18334858307491036828
19309040 13 18058745580855552905
21458453 9 17167853201610626720
23536364 44 13614528467149841749
24941158 1 18192999209833103711
255183 313 18188771789782654190
392239 28 16443065014678115405
4058900 60 18342172276398816470
4173938 306 15937228063944534405

> <PUBCHEM_SHAPE_MULTIPOLES>
734.76
15.84
5.99
2.97
12.4
6.24
-0.32
-24.4
-2.69
7.64
1.14
-5.15
0.12
1.04

> <PUBCHEM_SHAPE_SELFOVERLAP>
1550.302

> <PUBCHEM_SHAPE_VOLUME>
411.9

> <PUBCHEM_COORDINATE_TYPE>
2
5
10

$$$$
