86769004
  -OEChem-12032416323D

 43 45  0     1  0  0  0  0  0999 V2000
    7.3218    1.6345    0.3981 F   0  0  0  0  0  0  0  0  0  0  0  0
   -0.9050    0.9030   -0.5605 O   0  0  0  0  0  0  0  0  0  0  0  0
   -2.3715   -2.2425    0.3674 O   0  0  0  0  0  0  0  0  0  0  0  0
    2.2175   -2.0585    0.6717 O   0  0  0  0  0  0  0  0  0  0  0  0
   -4.4280    0.0208   -0.3570 N   0  0  0  0  0  0  0  0  0  0  0  0
    1.5364   -0.5678   -0.9682 N   0  0  0  0  0  0  0  0  0  0  0  0
   -6.6830    0.8969   -0.0563 C   0  0  0  0  0  0  0  0  0  0  0  0
   -7.7962    1.2284    0.8987 C   0  0  0  0  0  0  0  0  0  0  0  0
   -7.5968   -0.1892    0.4399 C   0  0  0  0  0  0  0  0  0  0  0  0
   -5.2605    0.9494    0.3984 C   0  0  0  0  0  0  0  0  0  0  0  0
   -3.0423    0.0870    0.0780 C   0  0  1  0  0  0  0  0  0  0  0  0
   -2.1949   -1.0736   -0.4093 C   0  0  1  0  0  0  0  0  0  0  0  0
   -0.7935   -0.4976   -0.2576 C   0  0  1  0  0  0  0  0  0  0  0  0
   -2.2941    1.2728   -0.5086 C   0  0  0  0  0  0  0  0  0  0  0  0
    0.2242   -1.1432   -1.1810 C   0  0  0  0  0  0  0  0  0  0  0  0
    2.4300   -1.0849   -0.0463 C   0  0  0  0  0  0  0  0  0  0  0  0
    3.7240   -0.3648    0.0714 C   0  0  0  0  0  0  0  0  0  0  0  0
    4.4367   -0.4032    1.2699 C   0  0  0  0  0  0  0  0  0  0  0  0
    4.2267    0.3490   -1.0164 C   0  0  0  0  0  0  0  0  0  0  0  0
    5.6519    0.2724    1.3806 C   0  0  0  0  0  0  0  0  0  0  0  0
    5.4420    1.0247   -0.9058 C   0  0  0  0  0  0  0  0  0  0  0  0
    6.1546    0.9864    0.2928 C   0  0  0  0  0  0  0  0  0  0  0  0
   -6.8006    1.2223   -1.0841 H   0  0  0  0  0  0  0  0  0  0  0  0
   -8.6502    1.7686    0.5090 H   0  0  0  0  0  0  0  0  0  0  0  0
   -7.5473    1.4646    1.9259 H   0  0  0  0  0  0  0  0  0  0  0  0
   -7.2145   -0.9015    1.1606 H   0  0  0  0  0  0  0  0  0  0  0  0
   -8.3164   -0.5994   -0.2579 H   0  0  0  0  0  0  0  0  0  0  0  0
   -5.2005    0.7226    1.4705 H   0  0  0  0  0  0  0  0  0  0  0  0
   -4.9054    1.9773    0.2617 H   0  0  0  0  0  0  0  0  0  0  0  0
   -2.9894    0.1083    1.1758 H   0  0  0  0  0  0  0  0  0  0  0  0
   -2.4138   -1.3096   -1.4582 H   0  0  0  0  0  0  0  0  0  0  0  0
   -4.7778   -0.9268   -0.2129 H   0  0  0  0  0  0  0  0  0  0  0  0
   -0.4518   -0.5807    0.7827 H   0  0  0  0  0  0  0  0  0  0  0  0
   -2.6067    1.4966   -1.5351 H   0  0  0  0  0  0  0  0  0  0  0  0
   -2.4047    2.1811    0.0914 H   0  0  0  0  0  0  0  0  0  0  0  0
   -0.0266   -0.9553   -2.2305 H   0  0  0  0  0  0  0  0  0  0  0  0
    0.2714   -2.2247   -1.0167 H   0  0  0  0  0  0  0  0  0  0  0  0
   -2.1772   -2.0256    1.2949 H   0  0  0  0  0  0  0  0  0  0  0  0
    1.7466    0.2836   -1.4776 H   0  0  0  0  0  0  0  0  0  0  0  0
    4.0598   -0.9501    2.1301 H   0  0  0  0  0  0  0  0  0  0  0  0
    3.7213    0.3786   -1.9770 H   0  0  0  0  0  0  0  0  0  0  0  0
    6.2068    0.2437    2.3137 H   0  0  0  0  0  0  0  0  0  0  0  0
    5.8377    1.5748   -1.7545 H   0  0  0  0  0  0  0  0  0  0  0  0
  1 22  1  0  0  0  0
  2 13  1  0  0  0  0
  2 14  1  0  0  0  0
  3 12  1  0  0  0  0
  3 38  1  0  0  0  0
  4 16  2  0  0  0  0
  5 10  1  0  0  0  0
  5 11  1  0  0  0  0
  5 32  1  0  0  0  0
  6 15  1  0  0  0  0
  6 16  1  0  0  0  0
  6 39  1  0  0  0  0
  7  8  1  0  0  0  0
  7  9  1  0  0  0  0
  7 10  1  0  0  0  0
  7 23  1  0  0  0  0
  8  9  1  0  0  0  0
  8 24  1  0  0  0  0
  8 25  1  0  0  0  0
  9 26  1  0  0  0  0
  9 27  1  0  0  0  0
 10 28  1  0  0  0  0
 10 29  1  0  0  0  0
 11 12  1  0  0  0  0
 11 14  1  0  0  0  0
 11 30  1  0  0  0  0
 12 13  1  0  0  0  0
 12 31  1  0  0  0  0
 13 15  1  0  0  0  0
 13 33  1  0  0  0  0
 14 34  1  0  0  0  0
 14 35  1  0  0  0  0
 15 36  1  0  0  0  0
 15 37  1  0  0  0  0
 16 17  1  0  0  0  0
 17 18  2  0  0  0  0
 17 19  1  0  0  0  0
 18 20  1  0  0  0  0
 18 40  1  0  0  0  0
 19 21  2  0  0  0  0
 19 41  1  0  0  0  0
 20 22  2  0  0  0  0
 20 42  1  0  0  0  0
 21 22  1  0  0  0  0
 21 43  1  0  0  0  0
M  END
> <PUBCHEM_COMPOUND_CID>
86769004

> <PUBCHEM_CONFORMER_RMSD>
0.8

> <PUBCHEM_CONFORMER_DIVERSEORDER>
1
136
98
11
41
118
46
116
72
139
54
113
49
23
76
45
140
15
31
112
141
74
67
70
58
124
65
109
142
36
135
114
93
123
24
13
143
12
19
131
77
125
106
80
5
126
133
34
84
8
68
86
4
25
59
69
66
26
63
122
129
108
88
27
64
111
60
62
119
47
144
52
78
132
35
100
79
107
55
97
22
104
18
115
103
75
120
137
40
101
2
51
38
83
42
96
87
94
138
92
32
128
17
43
3
16
71
29
145
44
99
30
7
10
90
9
37
110
95
50
127
130
85
20
39
53
33
89
105
57
91
14
82
6
134
21
102
48
28
121
56
81
73
117
61

> <PUBCHEM_MMFF94_PARTIAL_CHARGES>
34
1 -0.19
10 0.37
11 0.27
12 0.28
13 0.28
14 0.28
15 0.3
16 0.54
17 0.09
18 -0.15
19 -0.15
2 -0.56
20 -0.15
21 -0.15
22 0.19
23 0.1
24 0.1
25 0.1
26 0.1
27 0.1
3 -0.68
32 0.36
38 0.4
39 0.37
4 -0.57
40 0.15
41 0.15
42 0.15
43 0.15
5 -0.9
6 -0.73
7 -0.19
8 -0.2
9 -0.2

> <PUBCHEM_EFFECTIVE_ROTOR_COUNT>
8.6

> <PUBCHEM_PHARMACOPHORE_FEATURES>
9
1 2 acceptor
1 3 acceptor
1 3 donor
1 4 acceptor
1 5 cation
1 5 donor
1 6 donor
5 2 11 12 13 14 rings
6 17 18 19 20 21 22 rings

> <PUBCHEM_HEAVY_ATOM_COUNT>
22

> <PUBCHEM_ATOM_DEF_STEREO_COUNT>
3

> <PUBCHEM_ATOM_UDEF_STEREO_COUNT>
0

> <PUBCHEM_BOND_DEF_STEREO_COUNT>
0

> <PUBCHEM_BOND_UDEF_STEREO_COUNT>
0

> <PUBCHEM_ISOTOPIC_ATOM_COUNT>
0

> <PUBCHEM_COMPONENT_COUNT>
1

> <PUBCHEM_CACTVS_TAUTO_COUNT>
2

> <PUBCHEM_CONFORMER_ID>
052BFD6C00000001

> <PUBCHEM_MMFF94_ENERGY>
48.4917

> <PUBCHEM_FEATURE_SELFOVERLAP>
45.672

> <PUBCHEM_SHAPE_FINGERPRINT>
10 15 18113620092345585217
10162869 55 18187924023995746031
10354089 29 17821445764639548628
106641 1 17603870026414596225
10906281 52 18341344339927261863
11638347 137 17168144511708283971
11724838 91 18260829323432570543
125118 31 18341051801131043001
12596602 18 17313382284377624017
12730499 353 17203896240503430326
12954195 1 9222963556186827251
13073987 5 18042405738565456213
13533116 47 18200877249348446687
13668630 136 8214142958293166361
13685833 64 12684811108641800524
13862211 1 7925908180248037797
13899415 154 17489870436248978497
14251752 14 9943808868308542419
14251764 18 18261111894195556133
14341114 176 18040148497059660514
14341114 328 18186235139443349506
14461889 52 18260274066072031979
14933364 13 16128657444776366153
15048467 5 18130787850164831177
15183329 4 11455894663200393239
15188451 53 12829203369516451540
15690457 1 13406795545086620841
1768 124 14634866440047426832
17980427 23 18335419122914492543
20281389 69 18410855434485244385
21033648 29 17703212027724408802
21130935 74 18336272220228029147
21130983 4 18130788953945130465
21150785 3 15051733092790897933
21304304 249 11818988566085686424
221357 26 13901907799942889594
2215653 11 11095879375999641765
22224240 67 17676486168148863402
23035841 295 9007053561820609397
28498 318 7925916972088303705
29717793 49 9943804499831008218
3004659 81 10447923966848096590
3472631 163 18059574741387310604
4340502 62 17458346320862206267
445580 37 15410621346524671441
5104073 3 17678169395912858425
5758199 1 18202006504526190955
59682541 35 18187366562477915417
59682541 52 13758359973099949148
59755656 215 9439406822181555281
6438161 24 10231757760709291684

> <PUBCHEM_SHAPE_MULTIPOLES>
417.91
21.62
1.6
1.09
15.98
0.42
0.08
-11.12
5.9
-0.21
0.09
-1.06
0.01
-0.39

> <PUBCHEM_SHAPE_SELFOVERLAP>
872.121

> <PUBCHEM_SHAPE_VOLUME>
239.1

> <PUBCHEM_COORDINATE_TYPE>
2
5
10

$$$$
