75536746
  -OEChem-12032416323D

 50 52  0     1  0  0  0  0  0999 V2000
    0.1394    0.9455    0.4982 O   0  0  0  0  0  0  0  0  0  0  0  0
    1.2926   -2.4522    0.3214 O   0  0  0  0  0  0  0  0  0  0  0  0
    7.2018    0.3975   -1.0333 O   0  0  0  0  0  0  0  0  0  0  0  0
   -7.0769    1.1856   -0.5803 O   0  0  0  0  0  0  0  0  0  0  0  0
   -3.1604   -1.8372   -0.5060 O   0  0  0  0  0  0  0  0  0  0  0  0
    3.5303   -0.3161    0.8737 N   0  0  0  0  0  0  0  0  0  0  0  0
   -2.4972   -0.1530    0.9039 N   0  0  0  0  0  0  0  0  0  0  0  0
   -4.5018    0.0474   -0.3328 N   0  0  0  0  0  0  0  0  0  0  0  0
    2.2126   -0.1914    0.2723 C   0  0  1  0  0  0  0  0  0  0  0  0
    1.1855   -1.1459    0.8528 C   0  0  1  0  0  0  0  0  0  0  0  0
   -0.1129   -0.4682    0.4364 C   0  0  1  0  0  0  0  0  0  0  0  0
    4.5422    0.3634    0.0683 C   0  0  0  0  0  0  0  0  0  0  0  0
    1.5617    1.1543    0.5471 C   0  0  0  0  0  0  0  0  0  0  0  0
    5.7785    0.6736    0.9172 C   0  0  0  0  0  0  0  0  0  0  0  0
    4.9389   -0.4818   -1.1462 C   0  0  0  0  0  0  0  0  0  0  0  0
   -1.2876   -0.8196    1.3317 C   0  0  0  0  0  0  0  0  0  0  0  0
    6.8811    1.2707    0.0497 C   0  0  0  0  0  0  0  0  0  0  0  0
    6.0880    0.1794   -1.8993 C   0  0  0  0  0  0  0  0  0  0  0  0
   -3.3731   -0.7254   -0.0110 C   0  0  0  0  0  0  0  0  0  0  0  0
   -5.4748   -0.4759   -1.2946 C   0  0  0  0  0  0  0  0  0  0  0  0
   -4.7531    1.4326    0.0897 C   0  0  0  0  0  0  0  0  0  0  0  0
   -6.8979   -0.2096   -0.8300 C   0  0  0  0  0  0  0  0  0  0  0  0
   -6.2168    1.6263    0.4712 C   0  0  0  0  0  0  0  0  0  0  0  0
    2.2484   -0.3708   -0.8092 H   0  0  0  0  0  0  0  0  0  0  0  0
    1.2704   -1.2004    1.9453 H   0  0  0  0  0  0  0  0  0  0  0  0
   -0.3608   -0.7103   -0.6054 H   0  0  0  0  0  0  0  0  0  0  0  0
    4.1577    1.3291   -0.2862 H   0  0  0  0  0  0  0  0  0  0  0  0
    1.7975    1.5345    1.5478 H   0  0  0  0  0  0  0  0  0  0  0  0
    1.8385    1.9180   -0.1858 H   0  0  0  0  0  0  0  0  0  0  0  0
    3.7762   -1.3000    0.9780 H   0  0  0  0  0  0  0  0  0  0  0  0
    6.1510   -0.2538    1.3720 H   0  0  0  0  0  0  0  0  0  0  0  0
    5.5279    1.3632    1.7315 H   0  0  0  0  0  0  0  0  0  0  0  0
    4.1031   -0.6295   -1.8370 H   0  0  0  0  0  0  0  0  0  0  0  0
    5.2672   -1.4741   -0.8097 H   0  0  0  0  0  0  0  0  0  0  0  0
   -1.4537   -1.9020    1.3489 H   0  0  0  0  0  0  0  0  0  0  0  0
   -1.1029   -0.4820    2.3576 H   0  0  0  0  0  0  0  0  0  0  0  0
    6.5915    2.2514   -0.3457 H   0  0  0  0  0  0  0  0  0  0  0  0
    7.7887    1.4096    0.6456 H   0  0  0  0  0  0  0  0  0  0  0  0
    5.7785    1.1329   -2.3434 H   0  0  0  0  0  0  0  0  0  0  0  0
    6.4223   -0.4713   -2.7136 H   0  0  0  0  0  0  0  0  0  0  0  0
    1.2190   -2.3959   -0.6464 H   0  0  0  0  0  0  0  0  0  0  0  0
   -2.6602    0.7632    1.2955 H   0  0  0  0  0  0  0  0  0  0  0  0
   -5.3267   -1.5465   -1.4648 H   0  0  0  0  0  0  0  0  0  0  0  0
   -5.2833    0.0461   -2.2397 H   0  0  0  0  0  0  0  0  0  0  0  0
   -4.5087    2.0596   -0.7760 H   0  0  0  0  0  0  0  0  0  0  0  0
   -4.1276    1.7555    0.9199 H   0  0  0  0  0  0  0  0  0  0  0  0
   -7.6092   -0.5066   -1.6069 H   0  0  0  0  0  0  0  0  0  0  0  0
   -7.1365   -0.7759    0.0782 H   0  0  0  0  0  0  0  0  0  0  0  0
   -6.4619    1.0812    1.3907 H   0  0  0  0  0  0  0  0  0  0  0  0
   -6.4198    2.6870    0.6491 H   0  0  0  0  0  0  0  0  0  0  0  0
  1 11  1  0  0  0  0
  1 13  1  0  0  0  0
  2 10  1  0  0  0  0
  2 41  1  0  0  0  0
  3 17  1  0  0  0  0
  3 18  1  0  0  0  0
  4 22  1  0  0  0  0
  4 23  1  0  0  0  0
  5 19  2  0  0  0  0
  6  9  1  0  0  0  0
  6 12  1  0  0  0  0
  6 30  1  0  0  0  0
  7 16  1  0  0  0  0
  7 19  1  0  0  0  0
  7 42  1  0  0  0  0
  8 19  1  0  0  0  0
  8 20  1  0  0  0  0
  8 21  1  0  0  0  0
  9 10  1  0  0  0  0
  9 13  1  0  0  0  0
  9 24  1  0  0  0  0
 10 11  1  0  0  0  0
 10 25  1  0  0  0  0
 11 16  1  0  0  0  0
 11 26  1  0  0  0  0
 12 14  1  0  0  0  0
 12 15  1  0  0  0  0
 12 27  1  0  0  0  0
 13 28  1  0  0  0  0
 13 29  1  0  0  0  0
 14 17  1  0  0  0  0
 14 31  1  0  0  0  0
 14 32  1  0  0  0  0
 15 18  1  0  0  0  0
 15 33  1  0  0  0  0
 15 34  1  0  0  0  0
 16 35  1  0  0  0  0
 16 36  1  0  0  0  0
 17 37  1  0  0  0  0
 17 38  1  0  0  0  0
 18 39  1  0  0  0  0
 18 40  1  0  0  0  0
 20 22  1  0  0  0  0
 20 43  1  0  0  0  0
 20 44  1  0  0  0  0
 21 23  1  0  0  0  0
 21 45  1  0  0  0  0
 21 46  1  0  0  0  0
 22 47  1  0  0  0  0
 22 48  1  0  0  0  0
 23 49  1  0  0  0  0
 23 50  1  0  0  0  0
M  END
> <PUBCHEM_COMPOUND_CID>
75536746

> <PUBCHEM_CONFORMER_RMSD>
1

> <PUBCHEM_CONFORMER_DIVERSEORDER>
1
30
8
22
21
24
9
6
36
32
42
27
20
39
26
33
19
29
28
43
25
13
31
37
34
5
14
41
12
38
7
11
16
4
23
15
35
10
40
3
2
18
17

> <PUBCHEM_MMFF94_PARTIAL_CHARGES>
24
1 -0.56
10 0.28
11 0.28
12 0.27
13 0.28
16 0.3
17 0.28
18 0.28
19 0.69
2 -0.68
20 0.3
21 0.3
22 0.28
23 0.28
3 -0.56
30 0.36
4 -0.56
41 0.4
42 0.37
5 -0.57
6 -0.9
7 -0.73
8 -0.66
9 0.27

> <PUBCHEM_EFFECTIVE_ROTOR_COUNT>
9.4

> <PUBCHEM_PHARMACOPHORE_FEATURES>
12
1 1 acceptor
1 2 acceptor
1 2 donor
1 3 acceptor
1 4 acceptor
1 5 acceptor
1 6 cation
1 6 donor
1 7 donor
5 1 9 10 11 13 rings
6 3 12 14 15 17 18 rings
6 4 8 20 21 22 23 rings

> <PUBCHEM_HEAVY_ATOM_COUNT>
23

> <PUBCHEM_ATOM_DEF_STEREO_COUNT>
3

> <PUBCHEM_ATOM_UDEF_STEREO_COUNT>
0

> <PUBCHEM_BOND_DEF_STEREO_COUNT>
0

> <PUBCHEM_BOND_UDEF_STEREO_COUNT>
0

> <PUBCHEM_ISOTOPIC_ATOM_COUNT>
0

> <PUBCHEM_COMPONENT_COUNT>
1

> <PUBCHEM_CACTVS_TAUTO_COUNT>
2

> <PUBCHEM_CONFORMER_ID>
0480996A00000001

> <PUBCHEM_MMFF94_ENERGY>
39.8436

> <PUBCHEM_FEATURE_SELFOVERLAP>
60.898

> <PUBCHEM_SHAPE_FINGERPRINT>
10 15 14345798248861851541
106641 1 15357705193390865369
10906281 52 18041009413930934488
11315181 36 16558752338608223251
11646440 116 11530481121108087862
12166972 35 12391508702373369930
125118 31 15068618262419291934
12670543 26 18272655627820378658
13167372 99 15936401235379304084
13533116 47 17968086479342782946
13668630 136 16200433576284512429
13673619 4 12607404386071451194
13862211 1 11600005444597663928
14251752 14 16845570894643271933
14251764 18 17168143468205342931
15048467 5 17312822688714032558
15183329 4 17988926639129358739
15348495 7 12324253783957750604
15475509 35 13326575091257307142
15706992 2 15357994351789561092
15716309 27 10879993566399491513
1577012 14 18338510851555316329
17834072 8 18131633395754360318
18222031 100 15482670174175801290
18681886 176 17632004338662495019
20281389 69 16298382465880631052
20735858 18 8142086459471788368
21150785 3 17703790336127569092
21267235 1 18201719596421047507
21521239 73 17131839750878713270
21637258 2 13614522939547920570
22224240 67 12901545750072500241
22393880 68 18130216159716001451
23035841 295 12103844570799655469
23081809 10 17749663065002943762
23198884 109 18202001015230899881
23559900 14 16343409709153593755
2767999 5 17821726143645257156
2838139 119 16805599308745467958
29717793 49 17561367292278571776
3009799 131 18131632296316761160
34797466 226 17417809582209462456
4073 2 18040437677218913091
4340502 62 14345791643787908384
465052 167 13398632771009645392
59682541 35 10881691216974819060
59682541 52 17917721167505245670
5969126 39 14117522021775872947
59755656 215 18202847634398768358
9953998 17 12251902590867620285

> <PUBCHEM_SHAPE_MULTIPOLES>
429.04
21.41
1.55
1.26
1.86
0.25
-0.31
-7.92
-8.55
1.01
0.19
-0.98
0.14
-0.18

> <PUBCHEM_SHAPE_SELFOVERLAP>
873.519

> <PUBCHEM_SHAPE_VOLUME>
248.1

> <PUBCHEM_COORDINATE_TYPE>
2
5
10

$$$$
