28959913
  -OEChem-12032416343D

 69 72  0     1  0  0  0  0  0999 V2000
   -8.2759   -1.8341    0.9899 F   0  0  0  0  0  0  0  0  0  0  0  0
    2.9899    3.2717    1.3739 O   0  0  0  0  0  0  0  0  0  0  0  0
    6.3044   -4.3051    0.8808 O   0  0  0  0  0  0  0  0  0  0  0  0
    7.3056   -2.2952    0.5087 O   0  0  0  0  0  0  0  0  0  0  0  0
    0.8791    3.8493    0.1089 O   0  0  0  0  0  0  0  0  0  0  0  0
    3.7199    1.6000   -0.0648 N   0  0  0  0  0  0  0  0  0  0  0  0
   -0.0768   -1.7019   -0.7232 N   0  0  0  0  0  0  0  0  0  0  0  0
   -2.8986   -1.6579   -0.2827 N   0  0  0  0  0  0  0  0  0  0  0  0
    3.5856   -0.7060   -0.9801 C   0  0  2  0  0  0  0  0  0  0  0  0
    4.8405   -1.0701   -0.1462 C   0  0  1  0  0  0  0  0  0  0  0  0
    3.5835    0.8020   -1.2900 C   0  0  0  0  0  0  0  0  0  0  0  0
    4.9709   -0.1769    1.0990 C   0  0  0  0  0  0  0  0  0  0  0  0
    2.2612   -1.1168   -0.3245 C   0  0  0  0  0  0  0  0  0  0  0  0
    4.9122    1.3029    0.7286 C   0  0  0  0  0  0  0  0  0  0  0  0
    1.1789   -1.3283   -1.3734 C   0  0  0  0  0  0  0  0  0  0  0  0
    4.8959   -2.5474    0.2420 C   0  0  0  0  0  0  0  0  0  0  0  0
   -0.9893   -2.3287   -1.6870 C   0  0  0  0  0  0  0  0  0  0  0  0
   -0.7161   -0.5242   -0.1233 C   0  0  0  0  0  0  0  0  0  0  0  0
    2.8384    2.5967    0.3524 C   0  0  0  0  0  0  0  0  0  0  0  0
   -2.2858   -2.7756   -1.0071 C   0  0  0  0  0  0  0  0  0  0  0  0
   -2.0027   -0.9115    0.6095 C   0  0  0  0  0  0  0  0  0  0  0  0
    6.3007   -2.9890    0.5465 C   0  0  0  0  0  0  0  0  0  0  0  0
    1.6322    2.8403   -0.5190 C   0  0  0  0  0  0  0  0  0  0  0  0
   -4.2597   -1.7025    0.0394 C   0  0  0  0  0  0  0  0  0  0  0  0
   -4.8826   -2.9296    0.2675 C   0  0  0  0  0  0  0  0  0  0  0  0
   -4.9934   -0.5199    0.1326 C   0  0  0  0  0  0  0  0  0  0  0  0
   -6.2393   -2.9741    0.5885 C   0  0  0  0  0  0  0  0  0  0  0  0
   -6.3501   -0.5643    0.4537 C   0  0  0  0  0  0  0  0  0  0  0  0
   -0.4896    3.7989   -0.0349 C   0  0  0  0  0  0  0  0  0  0  0  0
   -6.9729   -1.7914    0.6816 C   0  0  0  0  0  0  0  0  0  0  0  0
   -1.0502    3.2487   -1.1876 C   0  0  0  0  0  0  0  0  0  0  0  0
   -1.3154    4.2981    0.9723 C   0  0  0  0  0  0  0  0  0  0  0  0
   -2.4365    3.1978   -1.3332 C   0  0  0  0  0  0  0  0  0  0  0  0
   -2.7017    4.2470    0.8269 C   0  0  0  0  0  0  0  0  0  0  0  0
   -3.2623    3.6969   -0.3259 C   0  0  0  0  0  0  0  0  0  0  0  0
    3.6766   -1.2402   -1.9360 H   0  0  0  0  0  0  0  0  0  0  0  0
    5.7043   -0.8501   -0.7911 H   0  0  0  0  0  0  0  0  0  0  0  0
    4.4483    1.0486   -1.9191 H   0  0  0  0  0  0  0  0  0  0  0  0
    2.7012    1.0823   -1.8665 H   0  0  0  0  0  0  0  0  0  0  0  0
    5.9101   -0.3728    1.6274 H   0  0  0  0  0  0  0  0  0  0  0  0
    4.1587   -0.4021    1.8018 H   0  0  0  0  0  0  0  0  0  0  0  0
    1.9762   -0.3761    0.4277 H   0  0  0  0  0  0  0  0  0  0  0  0
    2.3737   -2.0620    0.2174 H   0  0  0  0  0  0  0  0  0  0  0  0
    4.9373    1.9110    1.6384 H   0  0  0  0  0  0  0  0  0  0  0  0
    5.7846    1.5817    0.1259 H   0  0  0  0  0  0  0  0  0  0  0  0
    1.5109   -2.1444   -2.0289 H   0  0  0  0  0  0  0  0  0  0  0  0
    1.0465   -0.4475   -2.0127 H   0  0  0  0  0  0  0  0  0  0  0  0
    4.2785   -2.7491    1.1242 H   0  0  0  0  0  0  0  0  0  0  0  0
    4.5408   -3.1636   -0.5926 H   0  0  0  0  0  0  0  0  0  0  0  0
   -0.5193   -3.2137   -2.1331 H   0  0  0  0  0  0  0  0  0  0  0  0
   -1.2229   -1.6346   -2.5058 H   0  0  0  0  0  0  0  0  0  0  0  0
   -0.9509    0.2191   -0.8959 H   0  0  0  0  0  0  0  0  0  0  0  0
   -0.0665   -0.0379    0.6103 H   0  0  0  0  0  0  0  0  0  0  0  0
   -2.9631   -3.1533   -1.7833 H   0  0  0  0  0  0  0  0  0  0  0  0
   -2.0714   -3.5982   -0.3127 H   0  0  0  0  0  0  0  0  0  0  0  0
   -1.7674   -1.5307    1.4848 H   0  0  0  0  0  0  0  0  0  0  0  0
   -2.4716    0.0073    0.9805 H   0  0  0  0  0  0  0  0  0  0  0  0
    1.0828    1.8954   -0.5836 H   0  0  0  0  0  0  0  0  0  0  0  0
    1.9549    3.1852   -1.5063 H   0  0  0  0  0  0  0  0  0  0  0  0
    7.2078   -4.6275    1.0866 H   0  0  0  0  0  0  0  0  0  0  0  0
   -4.3396   -3.8690    0.2176 H   0  0  0  0  0  0  0  0  0  0  0  0
   -4.5301    0.4451   -0.0556 H   0  0  0  0  0  0  0  0  0  0  0  0
   -6.7243   -3.9288    0.7692 H   0  0  0  0  0  0  0  0  0  0  0  0
   -6.9224    0.3560    0.5232 H   0  0  0  0  0  0  0  0  0  0  0  0
   -0.4406    2.8732   -2.0044 H   0  0  0  0  0  0  0  0  0  0  0  0
   -0.8841    4.7273    1.8725 H   0  0  0  0  0  0  0  0  0  0  0  0
   -2.8733    2.7730   -2.2323 H   0  0  0  0  0  0  0  0  0  0  0  0
   -3.3448    4.6352    1.6113 H   0  0  0  0  0  0  0  0  0  0  0  0
   -4.3417    3.6567   -0.4391 H   0  0  0  0  0  0  0  0  0  0  0  0
  1 30  1  0  0  0  0
  2 19  2  0  0  0  0
  3 22  1  0  0  0  0
  3 60  1  0  0  0  0
  4 22  2  0  0  0  0
  5 23  1  0  0  0  0
  5 29  1  0  0  0  0
  6 11  1  0  0  0  0
  6 14  1  0  0  0  0
  6 19  1  0  0  0  0
  7 15  1  0  0  0  0
  7 17  1  0  0  0  0
  7 18  1  0  0  0  0
  8 20  1  0  0  0  0
  8 21  1  0  0  0  0
  8 24  1  0  0  0  0
  9 10  1  0  0  0  0
  9 11  1  0  0  0  0
  9 13  1  0  0  0  0
  9 36  1  0  0  0  0
 10 12  1  0  0  0  0
 10 16  1  0  0  0  0
 10 37  1  0  0  0  0
 11 38  1  0  0  0  0
 11 39  1  0  0  0  0
 12 14  1  0  0  0  0
 12 40  1  0  0  0  0
 12 41  1  0  0  0  0
 13 15  1  0  0  0  0
 13 42  1  0  0  0  0
 13 43  1  0  0  0  0
 14 44  1  0  0  0  0
 14 45  1  0  0  0  0
 15 46  1  0  0  0  0
 15 47  1  0  0  0  0
 16 22  1  0  0  0  0
 16 48  1  0  0  0  0
 16 49  1  0  0  0  0
 17 20  1  0  0  0  0
 17 50  1  0  0  0  0
 17 51  1  0  0  0  0
 18 21  1  0  0  0  0
 18 52  1  0  0  0  0
 18 53  1  0  0  0  0
 19 23  1  0  0  0  0
 20 54  1  0  0  0  0
 20 55  1  0  0  0  0
 21 56  1  0  0  0  0
 21 57  1  0  0  0  0
 23 58  1  0  0  0  0
 23 59  1  0  0  0  0
 24 25  2  0  0  0  0
 24 26  1  0  0  0  0
 25 27  1  0  0  0  0
 25 61  1  0  0  0  0
 26 28  2  0  0  0  0
 26 62  1  0  0  0  0
 27 30  2  0  0  0  0
 27 63  1  0  0  0  0
 28 30  1  0  0  0  0
 28 64  1  0  0  0  0
 29 31  2  0  0  0  0
 29 32  1  0  0  0  0
 31 33  1  0  0  0  0
 31 65  1  0  0  0  0
 32 34  2  0  0  0  0
 32 66  1  0  0  0  0
 33 35  2  0  0  0  0
 33 67  1  0  0  0  0
 34 35  1  0  0  0  0
 34 68  1  0  0  0  0
 35 69  1  0  0  0  0
M  END
> <PUBCHEM_COMPOUND_CID>
28959913

> <PUBCHEM_CONFORMER_RMSD>
1.2

> <PUBCHEM_CONFORMER_DIVERSEORDER>
1
19
47
38
35
24
30
23
26
10
25
46
11
37
43
34
36
48
52
49
44
4
17
21
42
16
51
28
12
9
32
50
27
13
14
31
33
40
22
8
7
29
6
2
45
15
39
3
41
18
5
20

> <PUBCHEM_MMFF94_PARTIAL_CHARGES>
41
1 -0.19
11 0.3
14 0.3
15 0.27
16 0.06
17 0.27
18 0.27
19 0.57
2 -0.57
20 0.37
21 0.37
22 0.66
23 0.34
24 0.1
25 -0.15
26 -0.15
27 -0.15
28 -0.15
29 0.08
3 -0.65
30 0.19
31 -0.15
32 -0.15
33 -0.15
34 -0.15
35 -0.15
4 -0.57
5 -0.36
6 -0.66
60 0.5
61 0.15
62 0.15
63 0.15
64 0.15
65 0.15
66 0.15
67 0.15
68 0.15
69 0.15
7 -0.81
8 -0.84

> <PUBCHEM_EFFECTIVE_ROTOR_COUNT>
12.4

> <PUBCHEM_PHARMACOPHORE_FEATURES>
11
1 2 acceptor
1 3 acceptor
1 4 acceptor
1 5 acceptor
1 7 cation
1 8 cation
3 3 4 22 anion
6 24 25 26 27 28 30 rings
6 29 31 32 33 34 35 rings
6 6 9 10 11 12 14 rings
6 7 8 17 18 20 21 rings

> <PUBCHEM_HEAVY_ATOM_COUNT>
35

> <PUBCHEM_ATOM_DEF_STEREO_COUNT>
2

> <PUBCHEM_ATOM_UDEF_STEREO_COUNT>
0

> <PUBCHEM_BOND_DEF_STEREO_COUNT>
0

> <PUBCHEM_BOND_UDEF_STEREO_COUNT>
0

> <PUBCHEM_ISOTOPIC_ATOM_COUNT>
0

> <PUBCHEM_COMPONENT_COUNT>
1

> <PUBCHEM_CACTVS_TAUTO_COUNT>
1

> <PUBCHEM_CONFORMER_ID>
01B9E4A900000001

> <PUBCHEM_MMFF94_ENERGY>
96.9496

> <PUBCHEM_FEATURE_SELFOVERLAP>
55.898

> <PUBCHEM_SHAPE_FINGERPRINT>
10169797 241 18202562900112008204
12422481 6 18341617040338702993
13165054 54 17752483157693776939
13560911 43 18410859875934882144
13782708 43 17387131073771363659
14114211 80 17108475416061107316
14725015 67 18409445865300644849
150020 26 17615981336595829737
15264996 154 17972612248710471030
15419008 145 18339356358427349786
15475509 84 18411138013595455134
15968369 153 18059849567570413981
19301679 30 18266741282204252710
21057603 10 17968392212152564907
21133410 90 17417797414393533992
373842 8 18340210808042908097
3886686 26 17616249178782502658
4144715 1 18044381762993052547
513532 50 17628942280078180093

> <PUBCHEM_SHAPE_MULTIPOLES>
674.59
17.25
6.84
1.22
4.9
6.15
0.24
-21.07
-6.8
1.04
-0.82
-0.19
0.11
0.18

> <PUBCHEM_SHAPE_SELFOVERLAP>
1419.695

> <PUBCHEM_SHAPE_VOLUME>
378

> <PUBCHEM_COORDINATE_TYPE>
2
5
10

$$$$
