45784230
  -OEChem-12032416363D

 41 44  0     1  0  0  0  0  0999 V2000
    8.0283   -0.1073   -0.0702 F   0  0  0  0  0  0  0  0  0  0  0  0
   -1.3761   -0.6493   -0.0917 N   0  0  1  0  0  0  0  0  0  0  0  0
    3.3253   -1.1493    0.6867 N   0  0  0  0  0  0  0  0  0  0  0  0
    2.6090    0.7619   -0.1931 N   0  0  0  0  0  0  0  0  0  0  0  0
   -7.2553    2.6101    0.4741 N   0  0  0  0  0  0  0  0  0  0  0  0
    0.8369   -0.8226    0.6648 C   0  0  1  0  0  0  0  0  0  0  0  0
    0.0431    0.1030    1.6032 C   0  0  0  0  0  0  0  0  0  0  0  0
   -0.0311   -0.9346   -0.5958 C   0  0  0  0  0  0  0  0  0  0  0  0
   -1.2054    0.4835    0.8180 C   0  0  0  0  0  0  0  0  0  0  0  0
    2.2481   -0.3693    0.3702 C   0  0  0  0  0  0  0  0  0  0  0  0
   -2.3210   -0.3637   -1.1612 C   0  0  0  0  0  0  0  0  0  0  0  0
   -3.7477   -0.5041   -0.7012 C   0  0  0  0  0  0  0  0  0  0  0  0
    4.4567   -0.4767    0.3018 C   0  0  0  0  0  0  0  0  0  0  0  0
    3.9831    0.7129   -0.2444 C   0  0  0  0  0  0  0  0  0  0  0  0
   -4.5122    0.6326   -0.4382 C   0  0  0  0  0  0  0  0  0  0  0  0
   -4.3054   -1.7724   -0.5395 C   0  0  0  0  0  0  0  0  0  0  0  0
    5.8123   -0.7973    0.3820 C   0  0  0  0  0  0  0  0  0  0  0  0
    4.9023    1.6504   -0.7449 C   0  0  0  0  0  0  0  0  0  0  0  0
    6.7132    0.1472   -0.1210 C   0  0  0  0  0  0  0  0  0  0  0  0
   -5.8343    0.5011   -0.0134 C   0  0  0  0  0  0  0  0  0  0  0  0
    6.2684    1.3499   -0.6748 C   0  0  0  0  0  0  0  0  0  0  0  0
   -5.6276   -1.9039   -0.1150 C   0  0  0  0  0  0  0  0  0  0  0  0
   -6.3921   -0.7673    0.1483 C   0  0  0  0  0  0  0  0  0  0  0  0
   -6.6185    1.6649    0.2556 C   0  0  0  0  0  0  0  0  0  0  0  0
    0.8817   -1.8123    1.1422 H   0  0  0  0  0  0  0  0  0  0  0  0
   -0.2355   -0.4497    2.5092 H   0  0  0  0  0  0  0  0  0  0  0  0
    0.6036    0.9906    1.9152 H   0  0  0  0  0  0  0  0  0  0  0  0
    0.2738   -0.2048   -1.3578 H   0  0  0  0  0  0  0  0  0  0  0  0
    0.0340   -1.9360   -1.0351 H   0  0  0  0  0  0  0  0  0  0  0  0
   -1.0275    1.4216    0.2765 H   0  0  0  0  0  0  0  0  0  0  0  0
   -2.0616    0.6212    1.4857 H   0  0  0  0  0  0  0  0  0  0  0  0
   -2.1486    0.6227   -1.6130 H   0  0  0  0  0  0  0  0  0  0  0  0
   -2.1819   -1.0818   -1.9819 H   0  0  0  0  0  0  0  0  0  0  0  0
    3.2972   -2.0599    1.1260 H   0  0  0  0  0  0  0  0  0  0  0  0
   -4.0750    1.6211   -0.5638 H   0  0  0  0  0  0  0  0  0  0  0  0
   -3.7203   -2.6658   -0.7414 H   0  0  0  0  0  0  0  0  0  0  0  0
    6.1553   -1.7312    0.8123 H   0  0  0  0  0  0  0  0  0  0  0  0
    4.5668    2.5877   -1.1771 H   0  0  0  0  0  0  0  0  0  0  0  0
    6.9929    2.0641   -1.0575 H   0  0  0  0  0  0  0  0  0  0  0  0
   -6.0618   -2.8915    0.0107 H   0  0  0  0  0  0  0  0  0  0  0  0
   -7.4213   -0.8862    0.4785 H   0  0  0  0  0  0  0  0  0  0  0  0
  1 19  1  0  0  0  0
  2  8  1  0  0  0  0
  2  9  1  0  0  0  0
  2 11  1  0  0  0  0
  3 10  1  0  0  0  0
  3 13  1  0  0  0  0
  3 34  1  0  0  0  0
  4 10  2  0  0  0  0
  4 14  1  0  0  0  0
  5 24  3  0  0  0  0
  6  7  1  0  0  0  0
  6  8  1  0  0  0  0
  6 10  1  0  0  0  0
  6 25  1  0  0  0  0
  7  9  1  0  0  0  0
  7 26  1  0  0  0  0
  7 27  1  0  0  0  0
  8 28  1  0  0  0  0
  8 29  1  0  0  0  0
  9 30  1  0  0  0  0
  9 31  1  0  0  0  0
 11 12  1  0  0  0  0
 11 32  1  0  0  0  0
 11 33  1  0  0  0  0
 12 15  2  0  0  0  0
 12 16  1  0  0  0  0
 13 14  2  0  0  0  0
 13 17  1  0  0  0  0
 14 18  1  0  0  0  0
 15 20  1  0  0  0  0
 15 35  1  0  0  0  0
 16 22  2  0  0  0  0
 16 36  1  0  0  0  0
 17 19  2  0  0  0  0
 17 37  1  0  0  0  0
 18 21  2  0  0  0  0
 18 38  1  0  0  0  0
 19 21  1  0  0  0  0
 20 23  2  0  0  0  0
 20 24  1  0  0  0  0
 21 39  1  0  0  0  0
 22 23  1  0  0  0  0
 22 40  1  0  0  0  0
 23 41  1  0  0  0  0
M  END
> <PUBCHEM_COMPOUND_CID>
45784230

> <PUBCHEM_CONFORMER_RMSD>
0.8

> <PUBCHEM_CONFORMER_DIVERSEORDER>
1
85
74
96
30
80
62
58
84
79
55
91
31
70
81
10
8
88
35
65
27
48
59
46
20
56
13
40
94
64
18
76
26
90
77
25
92
78
89
32
54
14
60
95
57
71
44
66
22
53
82
7
9
33
87
83
69
6
28
61
73
68
86
4
21
75
45
43
47
36
3
2
41
38
39
29
51
17
93
16
37
5
15
11
42
34
67
12
52
49
50
72
23
24
63
97
19

> <PUBCHEM_MMFF94_PARTIAL_CHARGES>
31
1 -0.19
10 0.01
11 0.41
12 -0.14
13 -0.15
14 0.23
15 -0.15
16 -0.15
17 -0.15
18 -0.15
19 0.19
2 -0.81
20 0.07
21 -0.15
22 -0.15
23 -0.15
24 0.48
3 0.03
34 0.27
35 0.15
36 0.15
37 0.15
38 0.15
39 0.15
4 -0.57
40 0.15
41 0.15
5 -0.56
6 0.18
8 0.27
9 0.27

> <PUBCHEM_EFFECTIVE_ROTOR_COUNT>
4

> <PUBCHEM_PHARMACOPHORE_FEATURES>
8
1 2 cation
1 3 donor
1 5 acceptor
3 3 4 10 cation
5 2 6 7 8 9 rings
5 3 4 10 13 14 rings
6 12 15 16 20 22 23 rings
6 13 14 17 18 19 21 rings

> <PUBCHEM_HEAVY_ATOM_COUNT>
24

> <PUBCHEM_ATOM_DEF_STEREO_COUNT>
1

> <PUBCHEM_ATOM_UDEF_STEREO_COUNT>
0

> <PUBCHEM_BOND_DEF_STEREO_COUNT>
0

> <PUBCHEM_BOND_UDEF_STEREO_COUNT>
0

> <PUBCHEM_ISOTOPIC_ATOM_COUNT>
0

> <PUBCHEM_COMPONENT_COUNT>
1

> <PUBCHEM_CACTVS_TAUTO_COUNT>
2

> <PUBCHEM_CONFORMER_ID>
02BA9CA600000001

> <PUBCHEM_MMFF94_ENERGY>
45.2845

> <PUBCHEM_FEATURE_SELFOVERLAP>
40.704

> <PUBCHEM_SHAPE_FINGERPRINT>
10 15 13045950118063935950
10299344 5 18334856129916484159
10595046 47 18334009501752434483
106641 1 12107795116310110116
10730089 173 18343302548582580729
10835480 77 13757775071510837834
11315181 36 17060339639189789699
11646440 116 15936130763618351444
11719270 70 17846779581653430390
12091667 2 18273213119260893503
12166972 35 18040715896394037876
12236239 1 18410292518817526566
12730499 353 16732980904143847114
12788726 201 17632017455366341691
12838862 33 15338827639509112070
13167372 99 18408604747073428580
13533116 47 16660630827254350328
13964095 4 17989207036132516585
14251752 14 18202282502401429033
14849402 71 17823427156716559693
14856354 85 18341334487515183343
14933364 13 18408604768495179829
15048467 5 18410573968541411149
15183329 4 18334287673740824647
15198563 99 16128389129110544576
1577012 14 18335698338558809542
15778101 99 18412263926772139405
17093844 174 17632289095258236491
18006028 8 14046024104646886778
19489759 90 9511464433636469591
21792961 116 17775008972971494955
220451 1 17894344475533634218
2215653 11 14692571022112338812
22224240 67 16443066097705732577
23081809 10 18410846677194770447
23198884 109 18260266373748271883
23522609 53 18042425615178691877
23536379 177 18409165519351674355
23569943 247 16879331321569896442
23576562 1 17416667220205248733
23622692 88 13479132415157066274
29717793 49 18201725055287492790
3004659 81 18412824699124537042
314173 85 15482675696976210179
3545911 37 17095239233424645618
4073 2 17895480327069761930
4098825 35 18335981982689222478
4325135 7 18186799201614153855
445580 37 18130796641910548009
5265222 85 18128537252536391862
5283156 175 17917996058144012674
5758199 1 17748827418748367002
59682541 35 14418142833068568653
59755656 215 16128382558179144382
59755656 520 17167858698989249362
6328613 192 18411418393709309777

> <PUBCHEM_SHAPE_MULTIPOLES>
466.71
22.21
1.74
0.97
3.92
0.56
0.1
6.21
-1.26
-2.75
-0.03
-0.03
0.01
-1.5

> <PUBCHEM_SHAPE_SELFOVERLAP>
1026.867

> <PUBCHEM_SHAPE_VOLUME>
255.1

> <PUBCHEM_COORDINATE_TYPE>
2
5
10

$$$$
