44716832
  -OEChem-12032416163D

 67 70  0     1  0  0  0  0  0999 V2000
    4.0766    2.7502   -0.2089 S   0  0  0  0  0  0  0  0  0  0  0  0
   -5.3827   -0.1703   -1.1811 S   0  0  0  0  0  0  0  0  0  0  0  0
    0.0314    0.5113    1.9357 O   0  0  0  0  0  0  0  0  0  0  0  0
   -3.5753    3.4153    0.9409 O   0  0  0  0  0  0  0  0  0  0  0  0
    4.2160    3.2321    1.1521 O   0  0  0  0  0  0  0  0  0  0  0  0
    5.0204    3.1642   -1.2295 O   0  0  0  0  0  0  0  0  0  0  0  0
   -3.4157   -1.4540    2.2754 O   0  0  0  0  0  0  0  0  0  0  0  0
   -1.5432    2.3806    0.3956 N   0  0  0  0  0  0  0  0  0  0  0  0
    2.5022    3.0628   -0.7616 N   0  0  0  0  0  0  0  0  0  0  0  0
   -1.2389   -0.9707    0.6671 N   0  0  0  0  0  0  0  0  0  0  0  0
   -3.4996    1.4873   -1.8045 N   0  0  0  0  0  0  0  0  0  0  0  0
    4.0983    0.2247   -1.3107 N   0  0  0  0  0  0  0  0  0  0  0  0
    4.1456   -1.0911    0.4776 N   0  0  0  0  0  0  0  0  0  0  0  0
   -2.0184   -2.4393    3.8094 N   0  0  0  0  0  0  0  0  0  0  0  0
    1.3365    2.5859    0.0218 C   0  0  2  0  0  0  0  0  0  0  0  0
    0.5055    1.6284   -0.8341 C   0  0  0  0  0  0  0  0  0  0  0  0
   -0.8184    1.2322   -0.1773 C   0  0  1  0  0  0  0  0  0  0  0  0
    0.4980    3.7840    0.4567 C   0  0  0  0  0  0  0  0  0  0  0  0
   -0.7541    3.3259    1.1932 C   0  0  0  0  0  0  0  0  0  0  0  0
   -0.6238    0.2408    0.9327 C   0  0  0  0  0  0  0  0  0  0  0  0
   -2.9355    2.5410    0.3583 C   0  0  0  0  0  0  0  0  0  0  0  0
   -1.1825   -2.1001    1.5669 C   0  0  2  0  0  0  0  0  0  0  0  0
   -3.7204    1.5975   -0.4455 C   0  0  0  0  0  0  0  0  0  0  0  0
    4.1044    0.9833   -0.1668 C   0  0  0  0  0  0  0  0  0  0  0  0
   -1.3052   -3.4372    0.8274 C   0  0  0  0  0  0  0  0  0  0  0  0
   -2.3230   -1.9378    2.5613 C   0  0  0  0  0  0  0  0  0  0  0  0
    4.1335    0.1891    0.9553 C   0  0  0  0  0  0  0  0  0  0  0  0
   -4.7019    0.7798    0.0740 C   0  0  0  0  0  0  0  0  0  0  0  0
   -0.2142   -3.6411   -0.1954 C   0  0  0  0  0  0  0  0  0  0  0  0
    4.1240   -1.0196   -0.8874 C   0  0  0  0  0  0  0  0  0  0  0  0
   -4.3193    0.5849   -2.2963 C   0  0  0  0  0  0  0  0  0  0  0  0
   -0.3990   -3.2073   -1.5081 C   0  0  0  0  0  0  0  0  0  0  0  0
    0.9790   -4.2632    0.1720 C   0  0  0  0  0  0  0  0  0  0  0  0
    4.1758   -2.2974    1.2683 C   0  0  0  0  0  0  0  0  0  0  0  0
   -4.3747    0.1929   -3.7214 C   0  0  0  0  0  0  0  0  0  0  0  0
    0.6091   -3.3957   -2.4536 C   0  0  0  0  0  0  0  0  0  0  0  0
    1.9872   -4.4516   -0.7733 C   0  0  0  0  0  0  0  0  0  0  0  0
    1.8023   -4.0178   -2.0861 C   0  0  0  0  0  0  0  0  0  0  0  0
    1.6901    2.0720    0.9213 H   0  0  0  0  0  0  0  0  0  0  0  0
    1.0929    0.7336   -1.0744 H   0  0  0  0  0  0  0  0  0  0  0  0
    0.2794    2.1146   -1.7934 H   0  0  0  0  0  0  0  0  0  0  0  0
   -1.4140    0.7667   -0.9628 H   0  0  0  0  0  0  0  0  0  0  0  0
    1.0873    4.4463    1.1021 H   0  0  0  0  0  0  0  0  0  0  0  0
    0.2098    4.3762   -0.4220 H   0  0  0  0  0  0  0  0  0  0  0  0
   -0.5011    2.8552    2.1480 H   0  0  0  0  0  0  0  0  0  0  0  0
   -1.3607    4.2049    1.4373 H   0  0  0  0  0  0  0  0  0  0  0  0
    2.3459    3.1784   -1.7708 H   0  0  0  0  0  0  0  0  0  0  0  0
   -1.8362   -1.0562   -0.1498 H   0  0  0  0  0  0  0  0  0  0  0  0
   -0.2267   -2.0545    2.1044 H   0  0  0  0  0  0  0  0  0  0  0  0
   -2.2820   -3.5079    0.3287 H   0  0  0  0  0  0  0  0  0  0  0  0
   -1.2912   -4.2672    1.5462 H   0  0  0  0  0  0  0  0  0  0  0  0
    4.1439    0.4131    2.0131 H   0  0  0  0  0  0  0  0  0  0  0  0
   -5.0450    0.6952    1.0955 H   0  0  0  0  0  0  0  0  0  0  0  0
    4.1314   -1.8979   -1.5178 H   0  0  0  0  0  0  0  0  0  0  0  0
   -1.3248   -2.7252   -1.8105 H   0  0  0  0  0  0  0  0  0  0  0  0
    1.1357   -4.6030    1.1922 H   0  0  0  0  0  0  0  0  0  0  0  0
   -1.1186   -2.8567    4.0249 H   0  0  0  0  0  0  0  0  0  0  0  0
   -2.6968   -2.4068    4.5631 H   0  0  0  0  0  0  0  0  0  0  0  0
    4.8668   -2.1517    2.1027 H   0  0  0  0  0  0  0  0  0  0  0  0
    4.5201   -3.1286    0.6486 H   0  0  0  0  0  0  0  0  0  0  0  0
    3.1661   -2.4861    1.6396 H   0  0  0  0  0  0  0  0  0  0  0  0
   -5.3649    0.3889   -4.1453 H   0  0  0  0  0  0  0  0  0  0  0  0
   -3.6438    0.7625   -4.3047 H   0  0  0  0  0  0  0  0  0  0  0  0
   -4.1439   -0.8701   -3.8454 H   0  0  0  0  0  0  0  0  0  0  0  0
    0.4651   -3.0581   -3.4757 H   0  0  0  0  0  0  0  0  0  0  0  0
    2.9160   -4.9365   -0.4878 H   0  0  0  0  0  0  0  0  0  0  0  0
    2.5877   -4.1638   -2.8218 H   0  0  0  0  0  0  0  0  0  0  0  0
  1  5  2  0  0  0  0
  1  6  2  0  0  0  0
  1  9  1  0  0  0  0
  1 24  1  0  0  0  0
  2 28  1  0  0  0  0
  2 31  1  0  0  0  0
  3 20  2  0  0  0  0
  4 21  2  0  0  0  0
  7 26  2  0  0  0  0
  8 17  1  0  0  0  0
  8 19  1  0  0  0  0
  8 21  1  0  0  0  0
  9 15  1  0  0  0  0
  9 47  1  0  0  0  0
 10 20  1  0  0  0  0
 10 22  1  0  0  0  0
 10 48  1  0  0  0  0
 11 23  1  0  0  0  0
 11 31  2  0  0  0  0
 12 24  1  0  0  0  0
 12 30  2  0  0  0  0
 13 27  1  0  0  0  0
 13 30  1  0  0  0  0
 13 34  1  0  0  0  0
 14 26  1  0  0  0  0
 14 57  1  0  0  0  0
 14 58  1  0  0  0  0
 15 16  1  0  0  0  0
 15 18  1  0  0  0  0
 15 39  1  0  0  0  0
 16 17  1  0  0  0  0
 16 40  1  0  0  0  0
 16 41  1  0  0  0  0
 17 20  1  0  0  0  0
 17 42  1  0  0  0  0
 18 19  1  0  0  0  0
 18 43  1  0  0  0  0
 18 44  1  0  0  0  0
 19 45  1  0  0  0  0
 19 46  1  0  0  0  0
 21 23  1  0  0  0  0
 22 25  1  0  0  0  0
 22 26  1  0  0  0  0
 22 49  1  0  0  0  0
 23 28  2  0  0  0  0
 24 27  2  0  0  0  0
 25 29  1  0  0  0  0
 25 50  1  0  0  0  0
 25 51  1  0  0  0  0
 27 52  1  0  0  0  0
 28 53  1  0  0  0  0
 29 32  2  0  0  0  0
 29 33  1  0  0  0  0
 30 54  1  0  0  0  0
 31 35  1  0  0  0  0
 32 36  1  0  0  0  0
 32 55  1  0  0  0  0
 33 37  2  0  0  0  0
 33 56  1  0  0  0  0
 34 59  1  0  0  0  0
 34 60  1  0  0  0  0
 34 61  1  0  0  0  0
 35 62  1  0  0  0  0
 35 63  1  0  0  0  0
 35 64  1  0  0  0  0
 36 38  2  0  0  0  0
 36 65  1  0  0  0  0
 37 38  1  0  0  0  0
 37 66  1  0  0  0  0
 38 67  1  0  0  0  0
M  END
> <PUBCHEM_COMPOUND_CID>
44716832

> <PUBCHEM_CONFORMER_RMSD>
1.2

> <PUBCHEM_CONFORMER_DIVERSEORDER>
1
65
32
34
97
54
17
19
25
72
96
89
50
95
103
16
49
61
66
15
44
83
86
106
79
77
80
100
56
46
52
104
73
105
21
6
45
87
12
31
82
30
13
59
2
43
27
37
92
58
88
35
4
98
93
78
76
5
24
22
40
101
11
48
99
63
74
71
28
9
84
85
47
51
64
94
38
75
90
57
29
8
18
41
26
23
20
60
14
67
33
36
7
39
55
91
102
70
68
62
53
81
3
42
69
10

> <PUBCHEM_MMFF94_PARTIAL_CHARGES>
48
1 1.5
10 -0.73
11 -0.57
12 -0.57
13 0.05
14 -0.8
15 0.36
17 0.36
19 0.3
2 -0.08
20 0.57
21 0.72
22 0.36
23 0.14
24 0.16
25 0.14
26 0.57
27 -0.3
28 -0.11
29 -0.14
3 -0.57
30 0.04
31 0.2
32 -0.15
33 -0.15
34 0.26
35 0.18
36 -0.15
37 -0.15
38 -0.15
4 -0.57
47 0.42
48 0.37
5 -0.65
52 0.15
53 0.15
54 0.15
55 0.15
56 0.15
57 0.37
58 0.37
6 -0.65
65 0.15
66 0.15
67 0.15
7 -0.57
8 -0.66
9 -0.91

> <PUBCHEM_EFFECTIVE_ROTOR_COUNT>
12.2

> <PUBCHEM_PHARMACOPHORE_FEATURES>
14
1 10 donor
1 11 acceptor
1 14 donor
1 3 acceptor
1 4 acceptor
1 5 acceptor
1 6 acceptor
1 7 acceptor
1 9 donor
3 12 13 30 cation
5 12 13 24 27 30 rings
5 2 11 23 28 31 rings
6 29 32 33 36 37 38 rings
6 8 15 16 17 18 19 rings

> <PUBCHEM_HEAVY_ATOM_COUNT>
38

> <PUBCHEM_ATOM_DEF_STEREO_COUNT>
3

> <PUBCHEM_ATOM_UDEF_STEREO_COUNT>
0

> <PUBCHEM_BOND_DEF_STEREO_COUNT>
0

> <PUBCHEM_BOND_UDEF_STEREO_COUNT>
0

> <PUBCHEM_ISOTOPIC_ATOM_COUNT>
0

> <PUBCHEM_COMPONENT_COUNT>
1

> <PUBCHEM_CACTVS_TAUTO_COUNT>
4

> <PUBCHEM_CONFORMER_ID>
02AA532000000001

> <PUBCHEM_MMFF94_ENERGY>
78.4857

> <PUBCHEM_FEATURE_SELFOVERLAP>
71.068

> <PUBCHEM_SHAPE_FINGERPRINT>
12422481 6 17898605130984565425
1361 2 18341886377347081316
13642711 20 18188199893444737599
15484559 13 17971720382093898205
20764821 26 18341332291942609943
21344244 181 17838885281581256767
3380486 145 17329714730939543761
354706 35 18199175368857593852
463206 1 17764599715749252430

> <PUBCHEM_SHAPE_MULTIPOLES>
725.51
9.68
6.7
2.73
0.09
2.84
0.2
-5.1
-3.55
-4.54
-0.31
3.02
2.2
0.87

> <PUBCHEM_SHAPE_SELFOVERLAP>
1516.646

> <PUBCHEM_SHAPE_VOLUME>
412.8

> <PUBCHEM_COORDINATE_TYPE>
2
5
10

$$$$
