45361365
  -OEChem-12032416143D

 71 73  0     1  0  0  0  0  0999 V2000
   -0.0593    0.7298   -0.9008 O   0  0  0  0  0  0  0  0  0  0  0  0
    2.3946   -3.8772   -0.2825 O   0  0  0  0  0  0  0  0  0  0  0  0
   -6.2527    2.5102    1.5612 O   0  0  0  0  0  0  0  0  0  0  0  0
   -5.3900    1.5285   -0.3648 N   0  0  0  0  0  0  0  0  0  0  0  0
    3.4532   -2.0327    0.6292 N   0  0  0  0  0  0  0  0  0  0  0  0
   -2.6857   -1.7460    0.3434 C   0  0  1  0  0  0  0  0  0  0  0  0
   -2.0471   -0.3598   -0.0027 C   0  0  2  0  0  0  0  0  0  0  0  0
   -3.1058    0.5940   -0.6638 C   0  0  1  0  0  0  0  0  0  0  0  0
   -0.7179   -0.5330   -0.7928 C   0  0  2  0  0  0  0  0  0  0  0  0
   -1.6510   -2.6180    1.0932 C   0  0  0  0  0  0  0  0  0  0  0  0
    0.2724   -1.4892   -0.0882 C   0  0  1  0  0  0  0  0  0  0  0  0
   -3.8885   -1.5249    1.2895 C   0  0  0  0  0  0  0  0  0  0  0  0
   -4.3439    0.7492    0.2634 C   0  0  2  0  0  0  0  0  0  0  0  0
   -0.3637   -2.8223    0.3055 C   0  0  0  0  0  0  0  0  0  0  0  0
   -4.9379   -0.5857    0.7124 C   0  0  0  0  0  0  0  0  0  0  0  0
   -3.1620   -2.5119   -0.9169 C   0  0  0  0  0  0  0  0  0  0  0  0
    1.5186   -1.7490   -0.9435 C   0  0  2  0  0  0  0  0  0  0  0  0
   -2.5513    1.9876   -1.0045 C   0  0  0  0  0  0  0  0  0  0  0  0
    1.1027   -2.3896   -2.2689 C   0  0  0  0  0  0  0  0  0  0  0  0
    2.4929   -2.6493   -0.1797 C   0  0  0  0  0  0  0  0  0  0  0  0
   -6.2541    2.3425    0.3445 C   0  0  0  0  0  0  0  0  0  0  0  0
   -7.2272    3.0571   -0.5546 C   0  0  0  0  0  0  0  0  0  0  0  0
    3.6590   -0.5934    0.7785 C   0  0  0  0  0  0  0  0  0  0  0  0
    4.3830   -2.8626    1.3877 C   0  0  0  0  0  0  0  0  0  0  0  0
    4.6570   -0.0361   -0.2337 C   0  0  0  0  0  0  0  0  0  0  0  0
    4.8964    1.4448   -0.0698 C   0  0  0  0  0  0  0  0  0  0  0  0
    4.1014    2.3600   -0.7597 C   0  0  0  0  0  0  0  0  0  0  0  0
    5.9124    1.8983    0.7713 C   0  0  0  0  0  0  0  0  0  0  0  0
    4.3225    3.7290   -0.6084 C   0  0  0  0  0  0  0  0  0  0  0  0
    6.1335    3.2671    0.9226 C   0  0  0  0  0  0  0  0  0  0  0  0
    5.3385    4.1825    0.2326 C   0  0  0  0  0  0  0  0  0  0  0  0
   -1.7729    0.1233    0.9490 H   0  0  0  0  0  0  0  0  0  0  0  0
   -3.4333    0.1551   -1.6147 H   0  0  0  0  0  0  0  0  0  0  0  0
   -0.9698   -0.8553   -1.8045 H   0  0  0  0  0  0  0  0  0  0  0  0
   -1.4011   -2.1489    2.0546 H   0  0  0  0  0  0  0  0  0  0  0  0
   -2.0834   -3.5975    1.3352 H   0  0  0  0  0  0  0  0  0  0  0  0
    0.6001   -1.0029    0.8417 H   0  0  0  0  0  0  0  0  0  0  0  0
   -4.3622   -2.4844    1.5328 H   0  0  0  0  0  0  0  0  0  0  0  0
   -3.5363   -1.1067    2.2422 H   0  0  0  0  0  0  0  0  0  0  0  0
   -4.0257    1.2911    1.1649 H   0  0  0  0  0  0  0  0  0  0  0  0
   -0.5865   -3.4642   -0.5483 H   0  0  0  0  0  0  0  0  0  0  0  0
    0.3075   -3.3943    0.9556 H   0  0  0  0  0  0  0  0  0  0  0  0
   -5.7114   -0.4111    1.4717 H   0  0  0  0  0  0  0  0  0  0  0  0
   -5.4570   -1.0692   -0.1241 H   0  0  0  0  0  0  0  0  0  0  0  0
   -2.3546   -2.6789   -1.6352 H   0  0  0  0  0  0  0  0  0  0  0  0
   -3.5611   -3.4953   -0.6418 H   0  0  0  0  0  0  0  0  0  0  0  0
   -3.9539   -1.9879   -1.4581 H   0  0  0  0  0  0  0  0  0  0  0  0
    2.0127   -0.8082   -1.1995 H   0  0  0  0  0  0  0  0  0  0  0  0
   -2.0486    2.4371   -0.1419 H   0  0  0  0  0  0  0  0  0  0  0  0
   -3.3409    2.6757   -1.3233 H   0  0  0  0  0  0  0  0  0  0  0  0
   -1.8511    1.9396   -1.8432 H   0  0  0  0  0  0  0  0  0  0  0  0
   -5.5256    1.4226   -1.3663 H   0  0  0  0  0  0  0  0  0  0  0  0
    0.1306    1.0497   -0.0023 H   0  0  0  0  0  0  0  0  0  0  0  0
    0.5167   -1.7190   -2.9017 H   0  0  0  0  0  0  0  0  0  0  0  0
    2.0081   -2.6198   -2.8462 H   0  0  0  0  0  0  0  0  0  0  0  0
    0.5749   -3.3406   -2.1745 H   0  0  0  0  0  0  0  0  0  0  0  0
   -7.7679    2.3338   -1.1717 H   0  0  0  0  0  0  0  0  0  0  0  0
   -7.9489    3.6131    0.0501 H   0  0  0  0  0  0  0  0  0  0  0  0
   -6.6869    3.7557   -1.1995 H   0  0  0  0  0  0  0  0  0  0  0  0
    4.0005   -0.3983    1.8031 H   0  0  0  0  0  0  0  0  0  0  0  0
    2.7023   -0.0717    0.6835 H   0  0  0  0  0  0  0  0  0  0  0  0
    4.2662   -2.6407    2.4527 H   0  0  0  0  0  0  0  0  0  0  0  0
    4.2012   -3.9290    1.2326 H   0  0  0  0  0  0  0  0  0  0  0  0
    5.4057   -2.6335    1.0755 H   0  0  0  0  0  0  0  0  0  0  0  0
    4.3155   -0.2382   -1.2570 H   0  0  0  0  0  0  0  0  0  0  0  0
    5.6157   -0.5640   -0.1484 H   0  0  0  0  0  0  0  0  0  0  0  0
    3.3050    2.0183   -1.4155 H   0  0  0  0  0  0  0  0  0  0  0  0
    6.5368    1.1949    1.3156 H   0  0  0  0  0  0  0  0  0  0  0  0
    3.7030    4.4417   -1.1449 H   0  0  0  0  0  0  0  0  0  0  0  0
    6.9242    3.6205    1.5779 H   0  0  0  0  0  0  0  0  0  0  0  0
    5.5105    5.2483    0.3507 H   0  0  0  0  0  0  0  0  0  0  0  0
  1  9  1  0  0  0  0
  1 53  1  0  0  0  0
  2 20  2  0  0  0  0
  3 21  2  0  0  0  0
  4 13  1  0  0  0  0
  4 21  1  0  0  0  0
  4 52  1  0  0  0  0
  5 20  1  0  0  0  0
  5 23  1  0  0  0  0
  5 24  1  0  0  0  0
  6  7  1  0  0  0  0
  6 10  1  0  0  0  0
  6 12  1  0  0  0  0
  6 16  1  0  0  0  0
  7  8  1  0  0  0  0
  7  9  1  0  0  0  0
  7 32  1  0  0  0  0
  8 13  1  0  0  0  0
  8 18  1  0  0  0  0
  8 33  1  0  0  0  0
  9 11  1  0  0  0  0
  9 34  1  0  0  0  0
 10 14  1  0  0  0  0
 10 35  1  0  0  0  0
 10 36  1  0  0  0  0
 11 14  1  0  0  0  0
 11 17  1  0  0  0  0
 11 37  1  0  0  0  0
 12 15  1  0  0  0  0
 12 38  1  0  0  0  0
 12 39  1  0  0  0  0
 13 15  1  0  0  0  0
 13 40  1  0  0  0  0
 14 41  1  0  0  0  0
 14 42  1  0  0  0  0
 15 43  1  0  0  0  0
 15 44  1  0  0  0  0
 16 45  1  0  0  0  0
 16 46  1  0  0  0  0
 16 47  1  0  0  0  0
 17 19  1  0  0  0  0
 17 20  1  0  0  0  0
 17 48  1  0  0  0  0
 18 49  1  0  0  0  0
 18 50  1  0  0  0  0
 18 51  1  0  0  0  0
 19 54  1  0  0  0  0
 19 55  1  0  0  0  0
 19 56  1  0  0  0  0
 21 22  1  0  0  0  0
 22 57  1  0  0  0  0
 22 58  1  0  0  0  0
 22 59  1  0  0  0  0
 23 25  1  0  0  0  0
 23 60  1  0  0  0  0
 23 61  1  0  0  0  0
 24 62  1  0  0  0  0
 24 63  1  0  0  0  0
 24 64  1  0  0  0  0
 25 26  1  0  0  0  0
 25 65  1  0  0  0  0
 25 66  1  0  0  0  0
 26 27  2  0  0  0  0
 26 28  1  0  0  0  0
 27 29  1  0  0  0  0
 27 67  1  0  0  0  0
 28 30  2  0  0  0  0
 28 68  1  0  0  0  0
 29 31  2  0  0  0  0
 29 69  1  0  0  0  0
 30 31  1  0  0  0  0
 30 70  1  0  0  0  0
 31 71  1  0  0  0  0
M  END
> <PUBCHEM_COMPOUND_CID>
45361365

> <PUBCHEM_CONFORMER_RMSD>
1

> <PUBCHEM_CONFORMER_DIVERSEORDER>
1
149
11
100
133
92
114
225
70
76
189
170
119
107
176
250
236
42
223
258
112
65
241
64
224
244
32
134
231
164
213
233
175
238
85
6
86
201
105
99
93
36
229
129
120
117
84
80
61
142
15
195
143
122
174
211
128
262
237
121
26
108
163
53
226
162
136
94
109
235
188
118
209
232
145
205
123
46
60
16
185
230
216
249
257
203
248
159
228
98
202
34
263
169
81
104
2
182
252
219
253
242
234
260
215
102
218
69
247
91
180
178
59
239
177
150
111
173
124
67
135
184
243
57
157
95
155
139
259
82
29
101
256
179
158
193
113
96
246
40
160
24
208
87
181
151
198
39
116
83
56
79
125
138
106
132
186
166
214
7
71
172
68
22
207
197
88
194
254
167
4
62
51
245
73
240
126
261
212
196
25
144
200
21
153
10
156
130
38
63
97
147
152
146
115
140
89
14
77
28
27
255
3
141
191
41
55
13
103
192
168
137
47
5
222
90
171
66
227
190
251
37
199
127
50
44
161
183
58
30
33
220
45
9
52
78
48
75
210
217
206
131
74
187
19
35
165
12
110
17
204
148
43
18
31
8
221
72
54
154
49
23
20

> <PUBCHEM_MMFF94_PARTIAL_CHARGES>
27
1 -0.68
13 0.3
17 0.06
2 -0.57
20 0.57
21 0.57
22 0.06
23 0.3
24 0.3
25 0.14
26 -0.14
27 -0.15
28 -0.15
29 -0.15
3 -0.57
30 -0.15
31 -0.15
4 -0.73
5 -0.66
52 0.37
53 0.4
67 0.15
68 0.15
69 0.15
70 0.15
71 0.15
9 0.28

> <PUBCHEM_EFFECTIVE_ROTOR_COUNT>
9.6

> <PUBCHEM_PHARMACOPHORE_FEATURES>
9
1 1 acceptor
1 1 donor
1 19 hydrophobe
1 2 acceptor
1 3 acceptor
1 4 donor
6 26 27 28 29 30 31 rings
6 6 7 8 12 13 15 rings
6 6 7 9 10 11 14 rings

> <PUBCHEM_HEAVY_ATOM_COUNT>
31

> <PUBCHEM_ATOM_DEF_STEREO_COUNT>
6

> <PUBCHEM_ATOM_UDEF_STEREO_COUNT>
1

> <PUBCHEM_BOND_DEF_STEREO_COUNT>
0

> <PUBCHEM_BOND_UDEF_STEREO_COUNT>
0

> <PUBCHEM_ISOTOPIC_ATOM_COUNT>
0

> <PUBCHEM_COMPONENT_COUNT>
1

> <PUBCHEM_CACTVS_TAUTO_COUNT>
2

> <PUBCHEM_CONFORMER_ID>
02B428D500000001

> <PUBCHEM_MMFF94_ENERGY>
92.1103

> <PUBCHEM_FEATURE_SELFOVERLAP>
45.685

> <PUBCHEM_SHAPE_FINGERPRINT>
10673678 19 18343023289275881136
10675989 125 18267307534237451361
10864689 126 18270685389442783360
11578080 2 18341900684252611027
12422481 6 17822013129044338973
12925494 130 18409444825460000257
14251764 75 18339926025746694224
14790565 3 18122064471092204536
20715895 44 18411981364958076720
21315764 268 18116429246097255431
21756936 100 18053658359876479790
21859007 373 17169823376556166357
21987483 16 18113623391914749691
22122407 14 18340215106545555656
23559900 14 18267593415972596014
2748736 6 18412537738710166209
2838139 119 18269272533979694638
3388396 114 16254465012704984612
3411729 13 18410294713735783868
3459 39 17984682666829631264
345986 75 12613037158423400614
3472631 163 18340768139931387847
397830 11 18261686904696759089
44344687 77 11023822929399133925
5104073 3 18114180834796937643
5219985 13 18198345246426994030
550186 72 18123470750616516623
57634706 306 18261663776261264869
57724786 102 18412259511034322442
6036956 94 17830456442158982109
7808743 9 18051971713207857826
9981440 41 18263365965641428626

> <PUBCHEM_SHAPE_MULTIPOLES>
610.4
16.74
5.56
1.31
4.95
1.71
0.18
21.68
-4.25
-4.12
-0.15
0.1
-0.48
0.15

> <PUBCHEM_SHAPE_SELFOVERLAP>
1259.768

> <PUBCHEM_SHAPE_VOLUME>
346.2

> <PUBCHEM_COORDINATE_TYPE>
2
5
10

$$$$
