11941631
  -OEChem-12032416383D

 46 49  0     1  0  0  0  0  0999 V2000
    6.3883   -0.4076    2.5073 Cl  0  0  0  0  0  0  0  0  0  0  0  0
   -5.9891   -1.8635    0.1657 O   0  0  0  0  0  0  0  0  0  0  0  0
   -4.1716    2.3419   -0.0492 O   0  0  0  0  0  0  0  0  0  0  0  0
   -1.0410   -1.4841    1.7966 O   0  0  0  0  0  0  0  0  0  0  0  0
    3.1324   -0.3988   -2.3821 O   0  0  0  0  0  0  0  0  0  0  0  0
   -2.6932   -0.5617    0.4905 N   0  0  0  0  0  0  0  0  0  0  0  0
   -1.8994    2.2468    0.0993 N   0  0  0  0  0  0  0  0  0  0  0  0
   -3.1323    0.2474   -0.6279 C   0  0  1  0  0  0  0  0  0  0  0  0
   -4.5150   -0.3012   -0.9734 C   0  0  0  0  0  0  0  0  0  0  0  0
   -5.0295   -0.8441    0.3589 C   0  0  2  0  0  0  0  0  0  0  0  0
   -3.7699   -1.3938    1.0081 C   0  0  0  0  0  0  0  0  0  0  0  0
   -3.1352    1.6807   -0.1361 C   0  0  0  0  0  0  0  0  0  0  0  0
   -1.3973   -0.6691    0.9458 C   0  0  0  0  0  0  0  0  0  0  0  0
   -0.3839    0.2702    0.3980 C   0  0  0  0  0  0  0  0  0  0  0  0
   -0.6325    1.6225    0.1063 C   0  0  0  0  0  0  0  0  0  0  0  0
    0.9343   -0.2184    0.3415 C   0  0  0  0  0  0  0  0  0  0  0  0
    0.4571    2.4670   -0.1709 C   0  0  0  0  0  0  0  0  0  0  0  0
   -7.1192   -1.3955   -0.5635 C   0  0  0  0  0  0  0  0  0  0  0  0
    1.9964    0.6247    0.0183 C   0  0  0  0  0  0  0  0  0  0  0  0
    1.7594    1.9710   -0.2257 C   0  0  0  0  0  0  0  0  0  0  0  0
    3.3448    0.1035   -0.0409 C   0  0  0  0  0  0  0  0  0  0  0  0
    3.8710   -0.3910   -1.2358 C   0  0  0  0  0  0  0  0  0  0  0  0
    4.1255    0.0980    1.1165 C   0  0  0  0  0  0  0  0  0  0  0  0
    5.1732   -0.8893   -1.2732 C   0  0  0  0  0  0  0  0  0  0  0  0
    5.4277   -0.4003    1.0793 C   0  0  0  0  0  0  0  0  0  0  0  0
    5.9516   -0.8940   -0.1156 C   0  0  0  0  0  0  0  0  0  0  0  0
    2.3473   -1.5610   -2.6377 C   0  0  0  0  0  0  0  0  0  0  0  0
   -2.4480    0.1539   -1.4785 H   0  0  0  0  0  0  0  0  0  0  0  0
   -5.1822    0.4465   -1.4137 H   0  0  0  0  0  0  0  0  0  0  0  0
   -4.4182   -1.1185   -1.7004 H   0  0  0  0  0  0  0  0  0  0  0  0
   -5.4478   -0.0382    0.9755 H   0  0  0  0  0  0  0  0  0  0  0  0
   -3.7988   -1.3400    2.1011 H   0  0  0  0  0  0  0  0  0  0  0  0
   -3.5730   -2.4349    0.7271 H   0  0  0  0  0  0  0  0  0  0  0  0
   -1.8956    3.2594    0.1973 H   0  0  0  0  0  0  0  0  0  0  0  0
    1.1370   -1.2641    0.5697 H   0  0  0  0  0  0  0  0  0  0  0  0
    0.2969    3.5241   -0.3756 H   0  0  0  0  0  0  0  0  0  0  0  0
   -7.8985   -2.1606   -0.5011 H   0  0  0  0  0  0  0  0  0  0  0  0
   -6.8761   -1.2552   -1.6204 H   0  0  0  0  0  0  0  0  0  0  0  0
   -7.5123   -0.4695   -0.1321 H   0  0  0  0  0  0  0  0  0  0  0  0
    2.5742    2.6505   -0.4639 H   0  0  0  0  0  0  0  0  0  0  0  0
    3.7203    0.4822    2.0511 H   0  0  0  0  0  0  0  0  0  0  0  0
    5.5884   -1.2752   -2.2004 H   0  0  0  0  0  0  0  0  0  0  0  0
    6.9647   -1.2855   -0.1595 H   0  0  0  0  0  0  0  0  0  0  0  0
    2.0001   -2.0421   -1.7182 H   0  0  0  0  0  0  0  0  0  0  0  0
    2.9410   -2.2748   -3.2169 H   0  0  0  0  0  0  0  0  0  0  0  0
    1.4777   -1.2656   -3.2311 H   0  0  0  0  0  0  0  0  0  0  0  0
  1 25  1  0  0  0  0
  2 10  1  0  0  0  0
  2 18  1  0  0  0  0
  3 12  2  0  0  0  0
  4 13  2  0  0  0  0
  5 22  1  0  0  0  0
  5 27  1  0  0  0  0
  6  8  1  0  0  0  0
  6 11  1  0  0  0  0
  6 13  1  0  0  0  0
  7 12  1  0  0  0  0
  7 15  1  0  0  0  0
  7 34  1  0  0  0  0
  8  9  1  0  0  0  0
  8 12  1  0  0  0  0
  8 28  1  0  0  0  0
  9 10  1  0  0  0  0
  9 29  1  0  0  0  0
  9 30  1  0  0  0  0
 10 11  1  0  0  0  0
 10 31  1  0  0  0  0
 11 32  1  0  0  0  0
 11 33  1  0  0  0  0
 13 14  1  0  0  0  0
 14 15  2  0  0  0  0
 14 16  1  0  0  0  0
 15 17  1  0  0  0  0
 16 19  2  0  0  0  0
 16 35  1  0  0  0  0
 17 20  2  0  0  0  0
 17 36  1  0  0  0  0
 18 37  1  0  0  0  0
 18 38  1  0  0  0  0
 18 39  1  0  0  0  0
 19 20  1  0  0  0  0
 19 21  1  0  0  0  0
 20 40  1  0  0  0  0
 21 22  2  0  0  0  0
 21 23  1  0  0  0  0
 22 24  1  0  0  0  0
 23 25  2  0  0  0  0
 23 41  1  0  0  0  0
 24 26  2  0  0  0  0
 24 42  1  0  0  0  0
 25 26  1  0  0  0  0
 26 43  1  0  0  0  0
 27 44  1  0  0  0  0
 27 45  1  0  0  0  0
 27 46  1  0  0  0  0
M  END
> <PUBCHEM_COMPOUND_CID>
11941631

> <PUBCHEM_CONFORMER_RMSD>
0.8

> <PUBCHEM_CONFORMER_DIVERSEORDER>
1
10
6
3
8
12
9
2
11
5
4
7

> <PUBCHEM_MMFF94_PARTIAL_CHARGES>
31
1 -0.18
10 0.28
11 0.3
12 0.57
13 0.54
14 0.09
15 0.12
16 -0.15
17 -0.15
18 0.28
2 -0.56
20 -0.15
22 0.08
23 -0.15
24 -0.15
25 0.18
26 -0.15
27 0.28
3 -0.57
34 0.37
35 0.15
36 0.15
4 -0.57
40 0.15
41 0.15
42 0.15
43 0.15
5 -0.36
6 -0.66
7 -0.55
8 0.36

> <PUBCHEM_EFFECTIVE_ROTOR_COUNT>
3.8

> <PUBCHEM_PHARMACOPHORE_FEATURES>
9
1 2 acceptor
1 3 acceptor
1 4 acceptor
1 5 acceptor
1 7 donor
5 6 8 9 10 11 rings
6 14 15 16 17 19 20 rings
6 21 22 23 24 25 26 rings
7 6 7 8 12 13 14 15 rings

> <PUBCHEM_HEAVY_ATOM_COUNT>
27

> <PUBCHEM_ATOM_DEF_STEREO_COUNT>
2

> <PUBCHEM_ATOM_UDEF_STEREO_COUNT>
0

> <PUBCHEM_BOND_DEF_STEREO_COUNT>
0

> <PUBCHEM_BOND_UDEF_STEREO_COUNT>
0

> <PUBCHEM_ISOTOPIC_ATOM_COUNT>
0

> <PUBCHEM_COMPONENT_COUNT>
1

> <PUBCHEM_CACTVS_TAUTO_COUNT>
3

> <PUBCHEM_CONFORMER_ID>
00B636FF00000001

> <PUBCHEM_MMFF94_ENERGY>
113.905

> <PUBCHEM_FEATURE_SELFOVERLAP>
45.732

> <PUBCHEM_SHAPE_FINGERPRINT>
10 15 18130773591595972288
12166972 35 17240482524308738612
12236239 1 17312821550880106200
12363563 72 18338529594270466916
12516196 113 18272087218953104896
13583140 156 15697718099490096184
13782708 43 17916593012693268758
13862211 1 18260824903800537715
14294032 229 17606113988494047413
14347332 77 18260824904327869631
146900 427 15267052667072534282
14790565 3 17330563042773289585
14849402 71 14764331762125388658
15183329 4 16660363667098090510
16752209 62 18186524297562704056
17349148 13 18040723537003083216
1813 80 18272102598867170365
18222031 100 18341338863669651952
18335252 114 15140949686914973911
20028762 73 18271806864820985935
20403669 9 18411987983180647103
20511986 3 17313099787746764140
21033648 29 17560505232006916904
21033650 10 17826257119668680852
21267235 1 18334298695470931603
21315764 119 16515395275205414411
21623969 137 17346882243075040502
21781051 124 17240773942826148307
22079108 93 15913036647859889642
22182313 1 18058740095464416756
22224240 67 16988554745652966922
23402539 116 18334573503878014692
23522609 53 18045533930498468749
23557571 272 18342748377367836348
23559900 14 18114742771122245809
25147074 1 17750224825614057377
2838139 119 14923937917383460135
3004659 81 17603586322945970970
335352 9 18333729122799460509
3383291 50 18335135427656558579
3411729 13 18192989542764132136
4340502 62 16415759751999557862
463206 1 17845370115030899335
5104073 3 17703229486471236778
59682541 52 14345783925668289370
59755656 215 18261108574049368539
86090 222 17416991494272615142
9658208 31 17624713262374599464

> <PUBCHEM_SHAPE_MULTIPOLES>
524.08
15.49
2.09
1.77
3.47
1.16
0.24
-7.95
-2.49
2
0.36
-2.92
-0.94
1.05

> <PUBCHEM_SHAPE_SELFOVERLAP>
1143.848

> <PUBCHEM_SHAPE_VOLUME>
286

> <PUBCHEM_COORDINATE_TYPE>
2
5
10

$$$$
