7113944
  -OEChem-12032416223D

 62 67  0     1  0  0  0  0  0999 V2000
    1.0204   -3.6297    0.8301 S   0  0  0  0  0  0  0  0  0  0  0  0
   -0.5886   -5.7630   -0.3561 S   0  0  0  0  0  0  0  0  0  0  0  0
    3.6168   -1.9037    0.7047 O   0  0  0  0  0  0  0  0  0  0  0  0
    1.5394    2.4017    2.7036 O   0  0  0  0  0  0  0  0  0  0  0  0
    1.7783   -4.7304    1.3947 O   0  0  0  0  0  0  0  0  0  0  0  0
    0.8386   -2.4045    1.5853 O   0  0  0  0  0  0  0  0  0  0  0  0
    2.2212    2.8911    0.5195 N   0  0  0  0  0  0  0  0  0  0  0  0
    3.2770    0.0783   -0.4975 N   0  0  0  0  0  0  0  0  0  0  0  0
    1.6091   -3.2648   -0.7143 N   0  0  0  0  0  0  0  0  0  0  0  0
    4.5628    2.2399   -0.0177 C   0  0  1  0  0  0  0  0  0  0  0  0
    2.8466    2.2030   -1.7832 C   0  0  2  0  0  0  0  0  0  0  0  0
    4.3042    2.5529   -1.4877 C   0  0  0  0  0  0  0  0  0  0  0  0
    3.6273    3.0689    0.8810 C   0  0  0  0  0  0  0  0  0  0  0  0
    4.3900    0.7321    0.2039 C   0  0  0  0  0  0  0  0  0  0  0  0
    1.9198    3.0722   -0.9099 C   0  0  0  0  0  0  0  0  0  0  0  0
    2.5718    0.7349   -1.5155 C   0  0  0  0  0  0  0  0  0  0  0  0
    1.6322    0.0828   -2.2245 C   0  0  0  0  0  0  0  0  0  0  0  0
    3.0228   -1.2691   -0.1661 C   0  0  0  0  0  0  0  0  0  0  0  0
    1.2938    2.5545    1.5084 C   0  0  0  0  0  0  0  0  0  0  0  0
    1.9592   -1.9268   -0.9662 C   0  0  0  0  0  0  0  0  0  0  0  0
    1.3124   -1.2904   -1.9433 C   0  0  0  0  0  0  0  0  0  0  0  0
   -0.0986    2.3414    1.1005 C   0  0  0  0  0  0  0  0  0  0  0  0
   -0.5242    1.0693    0.7269 C   0  0  0  0  0  0  0  0  0  0  0  0
   -0.9889    3.4122    1.0892 C   0  0  0  0  0  0  0  0  0  0  0  0
   -1.8488    0.8664    0.3393 C   0  0  0  0  0  0  0  0  0  0  0  0
   -2.3133    3.2094    0.7017 C   0  0  0  0  0  0  0  0  0  0  0  0
   -2.7433    1.9365    0.3268 C   0  0  0  0  0  0  0  0  0  0  0  0
   -0.5881   -4.2474    0.4313 C   0  0  0  0  0  0  0  0  0  0  0  0
   -4.1174    1.7262   -0.0746 C   0  0  0  0  0  0  0  0  0  0  0  0
   -1.8512   -3.7529    0.6265 C   0  0  0  0  0  0  0  0  0  0  0  0
   -2.8477   -4.6360    0.1194 C   0  0  0  0  0  0  0  0  0  0  0  0
   -4.4811    1.8609   -1.4144 C   0  0  0  0  0  0  0  0  0  0  0  0
   -5.0784    1.3885    0.8783 C   0  0  0  0  0  0  0  0  0  0  0  0
   -2.2988   -5.7680   -0.4419 C   0  0  0  0  0  0  0  0  0  0  0  0
   -5.8058    1.6579   -1.8014 C   0  0  0  0  0  0  0  0  0  0  0  0
   -6.4030    1.1855    0.4914 C   0  0  0  0  0  0  0  0  0  0  0  0
   -6.7667    1.3203   -0.8485 C   0  0  0  0  0  0  0  0  0  0  0  0
    5.5944    2.5100    0.2398 H   0  0  0  0  0  0  0  0  0  0  0  0
    2.6460    2.4323   -2.8377 H   0  0  0  0  0  0  0  0  0  0  0  0
    4.4927    3.6140   -1.6918 H   0  0  0  0  0  0  0  0  0  0  0  0
    4.9813    1.9765   -2.1306 H   0  0  0  0  0  0  0  0  0  0  0  0
    3.7919    2.8163    1.9338 H   0  0  0  0  0  0  0  0  0  0  0  0
    3.8511    4.1367    0.7671 H   0  0  0  0  0  0  0  0  0  0  0  0
    5.2979    0.2201   -0.1430 H   0  0  0  0  0  0  0  0  0  0  0  0
    4.3085    0.5074    1.2749 H   0  0  0  0  0  0  0  0  0  0  0  0
    0.8727    2.8562   -1.1355 H   0  0  0  0  0  0  0  0  0  0  0  0
    2.0794    4.1342   -1.1345 H   0  0  0  0  0  0  0  0  0  0  0  0
    1.0653    0.5772   -3.0064 H   0  0  0  0  0  0  0  0  0  0  0  0
    0.5337   -1.7590   -2.5355 H   0  0  0  0  0  0  0  0  0  0  0  0
    1.1150   -3.7225   -1.4928 H   0  0  0  0  0  0  0  0  0  0  0  0
    0.1629    0.2292    0.7409 H   0  0  0  0  0  0  0  0  0  0  0  0
   -0.6633    4.4077    1.3791 H   0  0  0  0  0  0  0  0  0  0  0  0
   -2.1669   -0.1329    0.0512 H   0  0  0  0  0  0  0  0  0  0  0  0
   -2.9976    4.0546    0.6974 H   0  0  0  0  0  0  0  0  0  0  0  0
   -2.0604   -2.8060    1.1070 H   0  0  0  0  0  0  0  0  0  0  0  0
   -3.9130   -4.4501    0.1636 H   0  0  0  0  0  0  0  0  0  0  0  0
   -3.7444    2.1234   -2.1702 H   0  0  0  0  0  0  0  0  0  0  0  0
   -4.8119    1.2792    1.9269 H   0  0  0  0  0  0  0  0  0  0  0  0
   -2.8202   -6.5974   -0.8983 H   0  0  0  0  0  0  0  0  0  0  0  0
   -6.0891    1.7628   -2.8446 H   0  0  0  0  0  0  0  0  0  0  0  0
   -7.1514    0.9225    1.2333 H   0  0  0  0  0  0  0  0  0  0  0  0
   -7.7981    1.1622   -1.1497 H   0  0  0  0  0  0  0  0  0  0  0  0
  1  5  2  0  0  0  0
  1  6  2  0  0  0  0
  1  9  1  0  0  0  0
  1 28  1  0  0  0  0
  2 28  1  0  0  0  0
  2 34  1  0  0  0  0
  3 18  2  0  0  0  0
  4 19  2  0  0  0  0
  7 13  1  0  0  0  0
  7 15  1  0  0  0  0
  7 19  1  0  0  0  0
  8 14  1  0  0  0  0
  8 16  1  0  0  0  0
  8 18  1  0  0  0  0
  9 20  1  0  0  0  0
  9 50  1  0  0  0  0
 10 12  1  0  0  0  0
 10 13  1  0  0  0  0
 10 14  1  0  0  0  0
 10 38  1  0  0  0  0
 11 12  1  0  0  0  0
 11 15  1  0  0  0  0
 11 16  1  0  0  0  0
 11 39  1  0  0  0  0
 12 40  1  0  0  0  0
 12 41  1  0  0  0  0
 13 42  1  0  0  0  0
 13 43  1  0  0  0  0
 14 44  1  0  0  0  0
 14 45  1  0  0  0  0
 15 46  1  0  0  0  0
 15 47  1  0  0  0  0
 16 17  2  0  0  0  0
 17 21  1  0  0  0  0
 17 48  1  0  0  0  0
 18 20  1  0  0  0  0
 19 22  1  0  0  0  0
 20 21  2  0  0  0  0
 21 49  1  0  0  0  0
 22 23  2  0  0  0  0
 22 24  1  0  0  0  0
 23 25  1  0  0  0  0
 23 51  1  0  0  0  0
 24 26  2  0  0  0  0
 24 52  1  0  0  0  0
 25 27  2  0  0  0  0
 25 53  1  0  0  0  0
 26 27  1  0  0  0  0
 26 54  1  0  0  0  0
 27 29  1  0  0  0  0
 28 30  2  0  0  0  0
 29 32  2  0  0  0  0
 29 33  1  0  0  0  0
 30 31  1  0  0  0  0
 30 55  1  0  0  0  0
 31 34  2  0  0  0  0
 31 56  1  0  0  0  0
 32 35  1  0  0  0  0
 32 57  1  0  0  0  0
 33 36  2  0  0  0  0
 33 58  1  0  0  0  0
 34 59  1  0  0  0  0
 35 37  2  0  0  0  0
 35 60  1  0  0  0  0
 36 37  1  0  0  0  0
 36 61  1  0  0  0  0
 37 62  1  0  0  0  0
M  END
> <PUBCHEM_COMPOUND_CID>
7113944

> <PUBCHEM_CONFORMER_RMSD>
1

> <PUBCHEM_CONFORMER_DIVERSEORDER>
1
5
48
25
13
15
37
52
34
19
27
54
58
43
41
55
32
42
24
29
50
11
49
57
28
31
21
40
39
14
9
26
2
35
46
16
38
3
51
47
36
10
53
20
44
23
22
17
45
4
7
18
30
12
56
6
8
33

> <PUBCHEM_MMFF94_PARTIAL_CHARGES>
48
1 1.5
11 0.14
13 0.3
14 0.3
15 0.3
16 -0.03
17 -0.15
18 0.62
19 0.54
2 -0.08
20 0.21
21 -0.15
22 0.09
23 -0.15
24 -0.15
25 -0.15
26 -0.15
28 -0.02
3 -0.57
30 -0.15
31 -0.15
32 -0.15
33 -0.15
34 -0.11
35 -0.15
36 -0.15
37 -0.15
4 -0.57
48 0.15
49 0.15
5 -0.65
50 0.42
51 0.15
52 0.15
53 0.15
54 0.15
55 0.15
56 0.15
57 0.15
58 0.15
59 0.15
6 -0.65
60 0.15
61 0.15
62 0.15
7 -0.66
8 -0.47
9 -0.75

> <PUBCHEM_EFFECTIVE_ROTOR_COUNT>
7

> <PUBCHEM_PHARMACOPHORE_FEATURES>
11
1 3 acceptor
1 4 acceptor
1 5 acceptor
1 6 acceptor
1 9 donor
5 2 28 30 31 34 rings
6 22 23 24 25 26 27 rings
6 29 32 33 35 36 37 rings
6 7 10 11 12 13 15 rings
6 8 10 11 12 14 16 rings
6 8 16 17 18 20 21 rings

> <PUBCHEM_HEAVY_ATOM_COUNT>
37

> <PUBCHEM_ATOM_DEF_STEREO_COUNT>
2

> <PUBCHEM_ATOM_UDEF_STEREO_COUNT>
0

> <PUBCHEM_BOND_DEF_STEREO_COUNT>
0

> <PUBCHEM_BOND_UDEF_STEREO_COUNT>
0

> <PUBCHEM_ISOTOPIC_ATOM_COUNT>
0

> <PUBCHEM_COMPONENT_COUNT>
1

> <PUBCHEM_CACTVS_TAUTO_COUNT>
1

> <PUBCHEM_CONFORMER_ID>
006C8CD800000001

> <PUBCHEM_MMFF94_ENERGY>
105.0616

> <PUBCHEM_FEATURE_SELFOVERLAP>
57.425

> <PUBCHEM_SHAPE_FINGERPRINT>
10462674 296 17115505144070095415
1100329 8 18410855430623066642
11014199 57 17041486012465989955
11285246 1 17050245907187251823
11828042 226 18194106651527437839
12156800 1 18124290943378056338
14068700 675 17765993900778157666
14705955 166 17545017760484396584
15264996 19 18118412971110829190
15475509 84 17905321081229984642
15483637 11 18194402423135868795
16993438 75 18054787553274185247
19319366 153 18340760456276859863
20764821 26 18411411835030303683
20775438 99 18202278113103466143
20775530 9 17542801801856122770
21133410 52 18051963728642946598
23516275 137 16485597440297812509
25223398 141 18119812670714309349
3882209 13 16963767054747751347
4066623 53 17546436139401645127
463206 1 18343864441573315397
513532 50 16226052163079463800
653340 110 18050567644578697151
6669772 16 18340755009905069177
9777508 108 18266741474754178735

> <PUBCHEM_SHAPE_MULTIPOLES>
730.72
10.64
8.5
1.82
14
15.96
-0.25
-10.59
-3.02
3.31
1.62
-0.65
-0.87
0.21

> <PUBCHEM_SHAPE_SELFOVERLAP>
1594.842

> <PUBCHEM_SHAPE_VOLUME>
395.8

> <PUBCHEM_COORDINATE_TYPE>
2
5
10

$$$$
