51137379
  -OEChem-12032416253D

 56 60  0     1  0  0  0  0  0999 V2000
   -1.5984    1.4264   -0.2860 O   0  0  0  0  0  0  0  0  0  0  0  0
    7.7754   -1.7632    0.3086 O   0  0  0  0  0  0  0  0  0  0  0  0
    2.2037    0.7551    0.9573 N   0  0  1  0  0  0  0  0  0  0  0  0
    5.8186   -0.8422   -0.5401 N   0  0  0  0  0  0  0  0  0  0  0  0
   -1.7042    3.5384    0.4439 N   0  0  0  0  0  0  0  0  0  0  0  0
   -2.8170    3.3016   -0.3413 N   0  0  0  0  0  0  0  0  0  0  0  0
   -6.2369   -0.5705    0.2421 N   0  0  0  0  0  0  0  0  0  0  0  0
    3.1239   -0.0287    0.1368 C   0  0  0  0  0  0  0  0  0  0  0  0
    1.3891    1.6747    0.1601 C   0  0  0  0  0  0  0  0  0  0  0  0
    0.2804    2.0846    1.1388 C   0  0  2  0  0  0  0  0  0  0  0  0
    1.2390   -0.0837    1.6684 C   0  0  0  0  0  0  0  0  0  0  0  0
    0.2004    0.9235    2.1452 C   0  0  0  0  0  0  0  0  0  0  0  0
    4.0778    0.9035   -0.6215 C   0  0  0  0  0  0  0  0  0  0  0  0
    3.9151   -1.0037    1.0181 C   0  0  0  0  0  0  0  0  0  0  0  0
    5.1119    0.1032   -1.4133 C   0  0  0  0  0  0  0  0  0  0  0  0
    4.9511   -1.7659    0.1938 C   0  0  0  0  0  0  0  0  0  0  0  0
   -1.0220    2.4171    0.4481 C   0  0  0  0  0  0  0  0  0  0  0  0
    7.2034   -0.9353   -0.4052 C   0  0  0  0  0  0  0  0  0  0  0  0
   -2.7134    2.0572   -0.7459 C   0  0  0  0  0  0  0  0  0  0  0  0
    8.0270    0.0532   -1.1913 C   0  0  0  0  0  0  0  0  0  0  0  0
   -3.6136    1.2736   -1.6011 C   0  0  0  0  0  0  0  0  0  0  0  0
   -4.5097    0.2918   -0.8534 C   0  0  0  0  0  0  0  0  0  0  0  0
   -4.2062   -1.0625   -0.5397 C   0  0  0  0  0  0  0  0  0  0  0  0
   -5.7647    0.5648   -0.3598 C   0  0  0  0  0  0  0  0  0  0  0  0
   -5.3061   -1.5805    0.1475 C   0  0  0  0  0  0  0  0  0  0  0  0
   -3.0979   -1.9001   -0.7752 C   0  0  0  0  0  0  0  0  0  0  0  0
   -5.3532   -2.8993    0.6129 C   0  0  0  0  0  0  0  0  0  0  0  0
   -3.1309   -3.2216   -0.3155 C   0  0  0  0  0  0  0  0  0  0  0  0
   -4.2423   -3.7115    0.3677 C   0  0  0  0  0  0  0  0  0  0  0  0
    2.5604   -0.6165   -0.6026 H   0  0  0  0  0  0  0  0  0  0  0  0
    0.9783    1.1844   -0.7322 H   0  0  0  0  0  0  0  0  0  0  0  0
    1.9469    2.5622   -0.1576 H   0  0  0  0  0  0  0  0  0  0  0  0
    0.6007    2.9826    1.6854 H   0  0  0  0  0  0  0  0  0  0  0  0
    0.7654   -0.8187    1.0048 H   0  0  0  0  0  0  0  0  0  0  0  0
    1.6720   -0.6058    2.5271 H   0  0  0  0  0  0  0  0  0  0  0  0
    0.4642    1.2917    3.1446 H   0  0  0  0  0  0  0  0  0  0  0  0
   -0.7944    0.4701    2.2106 H   0  0  0  0  0  0  0  0  0  0  0  0
    3.5399    1.5421   -1.3307 H   0  0  0  0  0  0  0  0  0  0  0  0
    4.5995    1.5631    0.0848 H   0  0  0  0  0  0  0  0  0  0  0  0
    4.4273   -0.4551    1.8198 H   0  0  0  0  0  0  0  0  0  0  0  0
    3.2609   -1.7434    1.4924 H   0  0  0  0  0  0  0  0  0  0  0  0
    5.7973    0.7911   -1.9114 H   0  0  0  0  0  0  0  0  0  0  0  0
    4.6202   -0.4863   -2.1965 H   0  0  0  0  0  0  0  0  0  0  0  0
    4.4576   -2.4084   -0.5452 H   0  0  0  0  0  0  0  0  0  0  0  0
    5.5394   -2.4148    0.8502 H   0  0  0  0  0  0  0  0  0  0  0  0
    9.0894   -0.1190   -0.9928 H   0  0  0  0  0  0  0  0  0  0  0  0
    7.8550   -0.0787   -2.2628 H   0  0  0  0  0  0  0  0  0  0  0  0
    7.7850    1.0746   -0.8857 H   0  0  0  0  0  0  0  0  0  0  0  0
   -4.2537    1.9584   -2.1720 H   0  0  0  0  0  0  0  0  0  0  0  0
   -3.0270    0.7229   -2.3469 H   0  0  0  0  0  0  0  0  0  0  0  0
   -6.3645    1.4641   -0.3818 H   0  0  0  0  0  0  0  0  0  0  0  0
   -7.1381   -0.6557    0.6914 H   0  0  0  0  0  0  0  0  0  0  0  0
   -2.2228   -1.5341   -1.3046 H   0  0  0  0  0  0  0  0  0  0  0  0
   -6.2179   -3.2816    1.1449 H   0  0  0  0  0  0  0  0  0  0  0  0
   -2.2786   -3.8720   -0.4937 H   0  0  0  0  0  0  0  0  0  0  0  0
   -4.2466   -4.7412    0.7161 H   0  0  0  0  0  0  0  0  0  0  0  0
  1 17  1  0  0  0  0
  1 19  1  0  0  0  0
  2 18  2  0  0  0  0
  3  8  1  0  0  0  0
  3  9  1  0  0  0  0
  3 11  1  0  0  0  0
  4 15  1  0  0  0  0
  4 16  1  0  0  0  0
  4 18  1  0  0  0  0
  5  6  1  0  0  0  0
  5 17  2  0  0  0  0
  6 19  2  0  0  0  0
  7 24  1  0  0  0  0
  7 25  1  0  0  0  0
  7 52  1  0  0  0  0
  8 13  1  0  0  0  0
  8 14  1  0  0  0  0
  8 30  1  0  0  0  0
  9 10  1  0  0  0  0
  9 31  1  0  0  0  0
  9 32  1  0  0  0  0
 10 12  1  0  0  0  0
 10 17  1  0  0  0  0
 10 33  1  0  0  0  0
 11 12  1  0  0  0  0
 11 34  1  0  0  0  0
 11 35  1  0  0  0  0
 12 36  1  0  0  0  0
 12 37  1  0  0  0  0
 13 15  1  0  0  0  0
 13 38  1  0  0  0  0
 13 39  1  0  0  0  0
 14 16  1  0  0  0  0
 14 40  1  0  0  0  0
 14 41  1  0  0  0  0
 15 42  1  0  0  0  0
 15 43  1  0  0  0  0
 16 44  1  0  0  0  0
 16 45  1  0  0  0  0
 18 20  1  0  0  0  0
 19 21  1  0  0  0  0
 20 46  1  0  0  0  0
 20 47  1  0  0  0  0
 20 48  1  0  0  0  0
 21 22  1  0  0  0  0
 21 49  1  0  0  0  0
 21 50  1  0  0  0  0
 22 23  1  0  0  0  0
 22 24  2  0  0  0  0
 23 25  1  0  0  0  0
 23 26  2  0  0  0  0
 24 51  1  0  0  0  0
 25 27  2  0  0  0  0
 26 28  1  0  0  0  0
 26 53  1  0  0  0  0
 27 29  1  0  0  0  0
 27 54  1  0  0  0  0
 28 29  2  0  0  0  0
 28 55  1  0  0  0  0
 29 56  1  0  0  0  0
M  END
> <PUBCHEM_COMPOUND_CID>
51137379

> <PUBCHEM_CONFORMER_RMSD>
1.2

> <PUBCHEM_CONFORMER_DIVERSEORDER>
1
13
85
59
57
30
19
4
76
26
35
120
90
69
82
117
109
8
119
42
67
92
46
101
118
84
5
63
9
45
112
72
100
50
44
16
91
74
36
10
24
2
21
14
102
68
98
75
62
104
86
88
56
107
87
61
116
96
11
53
105
106
41
7
89
113
110
65
95
15
23
32
39
99
43
17
58
18
93
34
115
77
94
52
3
12
22
78
80
47
55
108
64
73
31
25
111
70
79
114
54
29
20
97
6
71
38
27
33
103
49
60
37
83
40
81
28
48
51
66

> <PUBCHEM_MMFF94_PARTIAL_CHARGES>
31
1 -0.28
10 0.18
11 0.27
15 0.3
16 0.3
17 0.3
18 0.57
19 0.3
2 -0.57
20 0.06
21 0.36
22 -0.18
24 -0.3
25 -0.15
26 -0.15
27 -0.15
28 -0.15
29 -0.15
3 -0.81
4 -0.66
5 -0.34
51 0.15
52 0.27
53 0.15
54 0.15
55 0.15
56 0.15
6 -0.34
7 0.03
8 0.27
9 0.27

> <PUBCHEM_EFFECTIVE_ROTOR_COUNT>
7.2

> <PUBCHEM_PHARMACOPHORE_FEATURES>
9
1 2 acceptor
1 3 cation
1 7 cation
1 7 donor
5 1 5 6 17 19 rings
5 3 9 10 11 12 rings
5 7 22 23 24 25 rings
6 23 25 26 27 28 29 rings
6 4 8 13 14 15 16 rings

> <PUBCHEM_HEAVY_ATOM_COUNT>
29

> <PUBCHEM_ATOM_DEF_STEREO_COUNT>
1

> <PUBCHEM_ATOM_UDEF_STEREO_COUNT>
0

> <PUBCHEM_BOND_DEF_STEREO_COUNT>
0

> <PUBCHEM_BOND_UDEF_STEREO_COUNT>
0

> <PUBCHEM_ISOTOPIC_ATOM_COUNT>
0

> <PUBCHEM_COMPONENT_COUNT>
1

> <PUBCHEM_CACTVS_TAUTO_COUNT>
1

> <PUBCHEM_CONFORMER_ID>
030C4B6300000001

> <PUBCHEM_MMFF94_ENERGY>
42.6714

> <PUBCHEM_FEATURE_SELFOVERLAP>
45.765

> <PUBCHEM_SHAPE_FINGERPRINT>
10577160 103 17896610672979983320
10674148 151 18342173337319237513
10928967 22 18189601904209459899
11135609 99 18413103945324639630
11315621 246 18334010575446935429
117089 54 18044946911685477443
11756154 5 18412819200917649042
11756154 67 18336828710497934855
11763389 116 17917434181711701934
12633257 1 15912767314397236573
12643181 29 18410569574605283527
12645989 146 18198901603616990815
12760667 363 18131066030870126797
12969540 114 14707209911556393720
13103583 49 14548732932489342509
13257819 101 11891330950281924536
13402501 40 18272932722046810687
1361 4 18339925914225231334
13673619 4 18131631196789569073
13690498 29 18113051645498904045
13911987 19 13912319088621105893
14114206 34 18116406246821627383
14150023 24 17695074297402686593
14251757 5 18333731346943965723
14251764 30 18339926034162230695
14279260 333 18261665975111096794
14420673 8 18410858802520527683
14951699 99 10231758907422971698
15082195 135 17750812111274801252
15183329 4 18259981578604040586
15230672 131 18189889812619683971
15320295 44 18187938321419888820
17686467 74 18273205380342022552
17909252 39 18341051908351822696
19309040 13 12542065899803014491
20505436 4 17388255637685037681
20737093 193 12848542374515969874
21196832 93 18409733997613976734
21223535 225 15502646066710814798
21307412 95 18338784711676551951
22288116 15 18410020910282586926
2260408 40 13614526264517629092
23379529 103 18339642351471791387
23559900 14 18339913917817220361
25223398 141 18341609296443992684
2838139 119 15357698561571165620
3004659 81 18261388970909633810
3117164 225 10375606884014243636
329604 57 18411140242662265780
3737641 26 18194117645535023025
4058900 60 17548978863157560809
4098825 35 18259987106627474462
4107672 100 18040431067226801501
437795 160 18337659851489418178
437815 12 17989486342440841361
439807 62 18407761438771353734
4435113 14 17630622132177098734
445580 160 18413388722387376286
44880168 125 18059289985034954471
484985 159 18413110542204294273
484989 97 18340492257407843178
5028188 123 10591747824131694464
54039377 194 18334864926057024683
54583773 228 18336552712089355932
58902169 19 17531253825072845500
6371380 46 18272363128291003697
70634741 139 18412545405859551776
8863177 126 18270959154029037690
9862886 166 18413388722540207606
999808 66 17917994953978455644

> <PUBCHEM_SHAPE_MULTIPOLES>
560.16
19.38
3.83
1.36
28.29
0.27
-0.28
13.35
5.68
-5.91
-0.37
0.56
-0.34
0.67

> <PUBCHEM_SHAPE_SELFOVERLAP>
1213.849

> <PUBCHEM_SHAPE_VOLUME>
308.2

> <PUBCHEM_COORDINATE_TYPE>
2
5
10

$$$$
