75536981
  -OEChem-12032416303D

 46 49  0     1  0  0  0  0  0999 V2000
   -3.7255   -0.8175    0.7848 S   0  0  0  0  0  0  0  0  0  0  0  0
    2.2153   -2.0536   -2.0349 O   0  0  0  0  0  0  0  0  0  0  0  0
   -3.7910   -0.7430    2.2280 O   0  0  0  0  0  0  0  0  0  0  0  0
   -4.7709   -1.4646    0.0223 O   0  0  0  0  0  0  0  0  0  0  0  0
    0.3726   -2.0397   -0.5773 N   0  0  0  0  0  0  0  0  0  0  0  0
   -2.2129   -1.4822    0.3285 N   0  0  2  0  0  0  0  0  0  0  0  0
    2.4026   -1.5761    0.2666 N   0  0  0  0  0  0  0  0  0  0  0  0
    4.4134    0.8387    1.3695 N   0  0  0  0  0  0  0  0  0  0  0  0
    0.1526   -1.9137    0.8508 C   0  0  2  0  0  0  0  0  0  0  0  0
   -1.0370   -1.0010    1.1278 C   0  0  0  0  0  0  0  0  0  0  0  0
    1.4881   -1.3961    1.3805 C   0  0  0  0  0  0  0  0  0  0  0  0
   -0.7376   -2.3747   -1.4472 C   0  0  0  0  0  0  0  0  0  0  0  0
   -1.9286   -1.4706   -1.1455 C   0  0  0  0  0  0  0  0  0  0  0  0
    1.7252   -1.9114   -0.9223 C   0  0  0  0  0  0  0  0  0  0  0  0
    3.8173   -1.3007    0.3850 C   0  0  0  0  0  0  0  0  0  0  0  0
   -3.5382    0.8249    0.1659 C   0  0  0  0  0  0  0  0  0  0  0  0
    4.1194    0.1625    0.2364 C   0  0  0  0  0  0  0  0  0  0  0  0
   -3.9350    1.1288   -1.1363 C   0  0  0  0  0  0  0  0  0  0  0  0
   -2.9901    1.8179    0.9777 C   0  0  0  0  0  0  0  0  0  0  0  0
    4.0845    0.7379   -1.0236 C   0  0  0  0  0  0  0  0  0  0  0  0
   -3.7836    2.4258   -1.6269 C   0  0  0  0  0  0  0  0  0  0  0  0
   -2.8388    3.1149    0.4873 C   0  0  0  0  0  0  0  0  0  0  0  0
   -3.2354    3.4188   -0.8151 C   0  0  0  0  0  0  0  0  0  0  0  0
    4.3703    2.0948   -1.1273 C   0  0  0  0  0  0  0  0  0  0  0  0
    4.6856    2.1555    1.2294 C   0  0  0  0  0  0  0  0  0  0  0  0
    4.6776    2.8243    0.0159 C   0  0  0  0  0  0  0  0  0  0  0  0
   -0.0434   -2.9243    1.2314 H   0  0  0  0  0  0  0  0  0  0  0  0
   -1.2603   -1.0240    2.1987 H   0  0  0  0  0  0  0  0  0  0  0  0
   -0.7970    0.0282    0.8388 H   0  0  0  0  0  0  0  0  0  0  0  0
    1.4578   -0.3323    1.6376 H   0  0  0  0  0  0  0  0  0  0  0  0
    1.8347   -1.9704    2.2450 H   0  0  0  0  0  0  0  0  0  0  0  0
   -0.9926   -3.4227   -1.2527 H   0  0  0  0  0  0  0  0  0  0  0  0
   -0.4274   -2.2880   -2.4931 H   0  0  0  0  0  0  0  0  0  0  0  0
   -1.6845   -0.4535   -1.4695 H   0  0  0  0  0  0  0  0  0  0  0  0
   -2.7967   -1.8286   -1.7072 H   0  0  0  0  0  0  0  0  0  0  0  0
    4.3519   -1.8587   -0.3929 H   0  0  0  0  0  0  0  0  0  0  0  0
    4.1644   -1.6767    1.3539 H   0  0  0  0  0  0  0  0  0  0  0  0
   -4.3629    0.3718   -1.7873 H   0  0  0  0  0  0  0  0  0  0  0  0
   -2.6709    1.6034    1.9936 H   0  0  0  0  0  0  0  0  0  0  0  0
    3.8512    0.1631   -1.9127 H   0  0  0  0  0  0  0  0  0  0  0  0
   -4.0918    2.6624   -2.6411 H   0  0  0  0  0  0  0  0  0  0  0  0
   -2.4110    3.8880    1.1188 H   0  0  0  0  0  0  0  0  0  0  0  0
   -3.1170    4.4285   -1.1972 H   0  0  0  0  0  0  0  0  0  0  0  0
    4.3551    2.5825   -2.0973 H   0  0  0  0  0  0  0  0  0  0  0  0
    4.9189    2.6791    2.1506 H   0  0  0  0  0  0  0  0  0  0  0  0
    4.9039    3.8828   -0.0412 H   0  0  0  0  0  0  0  0  0  0  0  0
  1  3  2  0  0  0  0
  1  4  2  0  0  0  0
  1  6  1  0  0  0  0
  1 16  1  0  0  0  0
  2 14  2  0  0  0  0
  5  9  1  0  0  0  0
  5 12  1  0  0  0  0
  5 14  1  0  0  0  0
  6 10  1  0  0  0  0
  6 13  1  0  0  0  0
  7 11  1  0  0  0  0
  7 14  1  0  0  0  0
  7 15  1  0  0  0  0
  8 17  1  0  0  0  0
  8 25  2  0  0  0  0
  9 10  1  0  0  0  0
  9 11  1  0  0  0  0
  9 27  1  0  0  0  0
 10 28  1  0  0  0  0
 10 29  1  0  0  0  0
 11 30  1  0  0  0  0
 11 31  1  0  0  0  0
 12 13  1  0  0  0  0
 12 32  1  0  0  0  0
 12 33  1  0  0  0  0
 13 34  1  0  0  0  0
 13 35  1  0  0  0  0
 15 17  1  0  0  0  0
 15 36  1  0  0  0  0
 15 37  1  0  0  0  0
 16 18  2  0  0  0  0
 16 19  1  0  0  0  0
 17 20  2  0  0  0  0
 18 21  1  0  0  0  0
 18 38  1  0  0  0  0
 19 22  2  0  0  0  0
 19 39  1  0  0  0  0
 20 24  1  0  0  0  0
 20 40  1  0  0  0  0
 21 23  2  0  0  0  0
 21 41  1  0  0  0  0
 22 23  1  0  0  0  0
 22 42  1  0  0  0  0
 23 43  1  0  0  0  0
 24 26  2  0  0  0  0
 24 44  1  0  0  0  0
 25 26  1  0  0  0  0
 25 45  1  0  0  0  0
 26 46  1  0  0  0  0
M  END
> <PUBCHEM_COMPOUND_CID>
75536981

> <PUBCHEM_CONFORMER_RMSD>
0.8

> <PUBCHEM_CONFORMER_DIVERSEORDER>
1
126
39
87
108
105
45
111
83
66
89
57
72
95
144
78
47
77
130
68
110
61
88
122
70
13
121
59
118
125
114
146
20
19
97
75
116
67
142
22
93
90
127
48
58
138
102
14
92
81
123
103
134
104
119
147
139
7
51
38
80
79
52
29
141
63
99
109
36
84
106
50
16
100
23
145
96
120
69
124
49
42
21
101
12
71
60
26
140
6
62
74
34
76
8
56
44
136
132
85
98
53
28
112
133
54
10
18
113
43
86
137
37
129
15
31
9
30
25
117
73
33
143
46
27
135
131
11
17
94
24
2
82
65
107
91
64
3
115
55
128
32
35
41
4
5
40

> <PUBCHEM_MMFF94_PARTIAL_CHARGES>
35
1 1.45
10 0.36
11 0.3
12 0.3
13 0.36
14 0.69
15 0.44
16 -0.01
17 0.17
18 -0.15
19 -0.15
2 -0.57
20 -0.15
21 -0.15
22 -0.15
23 -0.15
24 -0.15
25 0.16
26 -0.15
3 -0.65
38 0.15
39 0.15
4 -0.65
40 0.15
41 0.15
42 0.15
43 0.15
44 0.15
45 0.15
46 0.15
5 -0.66
6 -0.85
7 -0.66
8 -0.62
9 0.3

> <PUBCHEM_EFFECTIVE_ROTOR_COUNT>
5.2

> <PUBCHEM_PHARMACOPHORE_FEATURES>
8
1 2 acceptor
1 3 acceptor
1 4 acceptor
1 8 acceptor
5 5 7 9 11 14 rings
6 16 18 19 21 22 23 rings
6 5 6 9 10 12 13 rings
6 8 17 20 24 25 26 rings

> <PUBCHEM_HEAVY_ATOM_COUNT>
26

> <PUBCHEM_ATOM_DEF_STEREO_COUNT>
1

> <PUBCHEM_ATOM_UDEF_STEREO_COUNT>
0

> <PUBCHEM_BOND_DEF_STEREO_COUNT>
0

> <PUBCHEM_BOND_UDEF_STEREO_COUNT>
0

> <PUBCHEM_ISOTOPIC_ATOM_COUNT>
0

> <PUBCHEM_COMPONENT_COUNT>
1

> <PUBCHEM_CACTVS_TAUTO_COUNT>
1

> <PUBCHEM_CONFORMER_ID>
04809A5500000001

> <PUBCHEM_MMFF94_ENERGY>
53.9665

> <PUBCHEM_FEATURE_SELFOVERLAP>
40.714

> <PUBCHEM_SHAPE_FINGERPRINT>
10498660 4 18340764841142880985
10670039 82 18335715974354339220
10928967 22 8429729739290692080
11135609 149 16843625777512807268
12403259 118 18336252458265354938
12596602 18 16516246387209651176
12978246 48 18336827601689490628
13103583 49 12469212181398219093
13583140 156 18116438037801014683
14251751 93 18410853299770609769
14251764 38 18337110060002449188
14739800 52 18115292410908258987
14840074 17 18269285719254973889
14848178 5 9367077631601818348
14848178 96 18336262345380595476
14950920 106 17385995187626941754
14957384 54 18263072215436896682
15163728 17 18270412688809101278
15575132 122 18410575127945347357
15961568 22 18335988674063991452
17868525 174 18045211649337464218
20764821 26 18054495078992445248
21033648 144 18200314450240684758
21095088 737 18339913849477155829
21315764 268 18334573491034999005
21475661 188 18188486861499360444
21623110 236 18410015425267114345
21641784 216 17914039061165445223
21860390 5 17982728572183282318
21864079 5 18408597067914308042
22907989 373 18060125523814186351
22956985 138 16238730966782979819
23227448 37 18270116953923879822
23398203 216 17981907245630512281
23559900 14 18054506907158071034
2838139 119 18265601118171943221
341906 21 17967538956162542124
3459 39 17843944053187636168
44062 13 11095889263257047681
497634 4 17632588175385053923
5081480 168 17415026585346455460
5486654 36 8069761731595505486
6086070 43 18121214286215757694
6608658 132 17979070814819820972
7808743 9 18124597741777433336

> <PUBCHEM_SHAPE_MULTIPOLES>
501.39
11.31
3.99
1.71
5.51
2.42
-0.07
8.03
0.69
-0.67
-0.83
-0.27
-0.27
1.16

> <PUBCHEM_SHAPE_SELFOVERLAP>
1065.865

> <PUBCHEM_SHAPE_VOLUME>
280.7

> <PUBCHEM_COORDINATE_TYPE>
2
5
10

$$$$
