26744252
  -OEChem-12032416193D

 40 43  0     1  0  0  0  0  0999 V2000
    5.2710    2.5080    0.7211 F   0  0  0  0  0  0  0  0  0  0  0  0
   -3.1399   -0.7571   -1.2017 O   0  0  0  0  0  0  0  0  0  0  0  0
    0.2719   -4.6321    1.2120 O   0  0  0  0  0  0  0  0  0  0  0  0
    0.3477   -1.3514   -0.2030 N   0  0  1  0  0  0  0  0  0  0  0  0
   -2.0564    0.2925    0.4538 N   0  0  0  0  0  0  0  0  0  0  0  0
   -3.9459    0.3283   -0.8354 N   0  0  0  0  0  0  0  0  0  0  0  0
   -3.7304    2.1511    0.8764 C   0  0  0  0  0  0  0  0  0  0  0  0
   -1.0087   -1.7875   -0.5924 C   0  0  1  0  0  0  0  0  0  0  0  0
   -4.0704    3.3695    0.0691 C   0  0  0  0  0  0  0  0  0  0  0  0
   -2.8359    3.3551    0.9221 C   0  0  0  0  0  0  0  0  0  0  0  0
   -1.2809   -3.0386    0.2633 C   0  0  0  0  0  0  0  0  0  0  0  0
   -0.0040   -3.2527    1.0665 C   0  0  2  0  0  0  0  0  0  0  0  0
    1.0567   -2.5503    0.2403 C   0  0  0  0  0  0  0  0  0  0  0  0
   -3.2397    0.8981    0.1456 C   0  0  0  0  0  0  0  0  0  0  0  0
   -2.0485   -0.7048   -0.3941 C   0  0  0  0  0  0  0  0  0  0  0  0
    1.0569   -0.6582   -1.2705 C   0  0  0  0  0  0  0  0  0  0  0  0
    2.1830    0.1877   -0.7385 C   0  0  0  0  0  0  0  0  0  0  0  0
    1.9497    1.5167   -0.3846 C   0  0  0  0  0  0  0  0  0  0  0  0
    3.4594   -0.3573   -0.5990 C   0  0  0  0  0  0  0  0  0  0  0  0
    2.9928    2.3007    0.1081 C   0  0  0  0  0  0  0  0  0  0  0  0
    4.5026    0.4266   -0.1063 C   0  0  0  0  0  0  0  0  0  0  0  0
    4.2692    1.7557    0.2473 C   0  0  0  0  0  0  0  0  0  0  0  0
   -4.3367    1.9556    1.7539 H   0  0  0  0  0  0  0  0  0  0  0  0
   -1.0206   -2.0945   -1.6479 H   0  0  0  0  0  0  0  0  0  0  0  0
   -3.9356    3.3476   -1.0056 H   0  0  0  0  0  0  0  0  0  0  0  0
   -4.9043    3.9768    0.4001 H   0  0  0  0  0  0  0  0  0  0  0  0
   -1.8777    3.3183    0.4179 H   0  0  0  0  0  0  0  0  0  0  0  0
   -2.8408    3.9529    1.8257 H   0  0  0  0  0  0  0  0  0  0  0  0
   -1.4865   -3.9019   -0.3819 H   0  0  0  0  0  0  0  0  0  0  0  0
   -2.1385   -2.9261    0.9366 H   0  0  0  0  0  0  0  0  0  0  0  0
   -0.0896   -2.7960    2.0602 H   0  0  0  0  0  0  0  0  0  0  0  0
    1.3827   -3.1873   -0.5925 H   0  0  0  0  0  0  0  0  0  0  0  0
    1.9314   -2.3247    0.8585 H   0  0  0  0  0  0  0  0  0  0  0  0
    0.3717    0.0149   -1.8046 H   0  0  0  0  0  0  0  0  0  0  0  0
    1.4261   -1.3504   -2.0397 H   0  0  0  0  0  0  0  0  0  0  0  0
   -0.4797   -5.0323    1.6817 H   0  0  0  0  0  0  0  0  0  0  0  0
    0.9592    1.9528   -0.4852 H   0  0  0  0  0  0  0  0  0  0  0  0
    3.6572   -1.3893   -0.8760 H   0  0  0  0  0  0  0  0  0  0  0  0
    2.8114    3.3351    0.3843 H   0  0  0  0  0  0  0  0  0  0  0  0
    5.4967    0.0030    0.0012 H   0  0  0  0  0  0  0  0  0  0  0  0
  1 22  1  0  0  0  0
  2  6  1  0  0  0  0
  2 15  1  0  0  0  0
  3 12  1  0  0  0  0
  3 36  1  0  0  0  0
  4  8  1  0  0  0  0
  4 13  1  0  0  0  0
  4 16  1  0  0  0  0
  5 14  1  0  0  0  0
  5 15  2  0  0  0  0
  6 14  2  0  0  0  0
  7  9  1  0  0  0  0
  7 10  1  0  0  0  0
  7 14  1  0  0  0  0
  7 23  1  0  0  0  0
  8 11  1  0  0  0  0
  8 15  1  0  0  0  0
  8 24  1  0  0  0  0
  9 10  1  0  0  0  0
  9 25  1  0  0  0  0
  9 26  1  0  0  0  0
 10 27  1  0  0  0  0
 10 28  1  0  0  0  0
 11 12  1  0  0  0  0
 11 29  1  0  0  0  0
 11 30  1  0  0  0  0
 12 13  1  0  0  0  0
 12 31  1  0  0  0  0
 13 32  1  0  0  0  0
 13 33  1  0  0  0  0
 16 17  1  0  0  0  0
 16 34  1  0  0  0  0
 16 35  1  0  0  0  0
 17 18  2  0  0  0  0
 17 19  1  0  0  0  0
 18 20  1  0  0  0  0
 18 37  1  0  0  0  0
 19 21  2  0  0  0  0
 19 38  1  0  0  0  0
 20 22  2  0  0  0  0
 20 39  1  0  0  0  0
 21 22  1  0  0  0  0
 21 40  1  0  0  0  0
M  END
> <PUBCHEM_COMPOUND_CID>
26744252

> <PUBCHEM_CONFORMER_RMSD>
0.8

> <PUBCHEM_CONFORMER_DIVERSEORDER>
1
5
42
31
21
33
39
3
22
17
12
28
41
38
8
32
25
24
34
15
45
11
19
37
23
2
20
30
35
6
18
44
27
40
4
7
13
43
9
26
10
14
36
16
29

> <PUBCHEM_MMFF94_PARTIAL_CHARGES>
31
1 -0.19
10 -0.2
12 0.28
13 0.27
14 0.43
15 0.3
16 0.41
17 -0.14
18 -0.15
19 -0.15
2 -0.02
20 -0.15
21 -0.15
22 0.19
23 0.1
25 0.1
26 0.1
27 0.1
28 0.1
3 -0.68
36 0.4
37 0.15
38 0.15
39 0.15
4 -0.81
40 0.15
5 -0.57
6 -0.41
7 -0.01
8 0.45
9 -0.2

> <PUBCHEM_EFFECTIVE_ROTOR_COUNT>
5.6

> <PUBCHEM_PHARMACOPHORE_FEATURES>
7
1 3 acceptor
1 3 donor
1 4 cation
3 5 6 14 cation
5 2 5 6 14 15 rings
5 4 8 11 12 13 rings
6 17 18 19 20 21 22 rings

> <PUBCHEM_HEAVY_ATOM_COUNT>
22

> <PUBCHEM_ATOM_DEF_STEREO_COUNT>
2

> <PUBCHEM_ATOM_UDEF_STEREO_COUNT>
0

> <PUBCHEM_BOND_DEF_STEREO_COUNT>
0

> <PUBCHEM_BOND_UDEF_STEREO_COUNT>
0

> <PUBCHEM_ISOTOPIC_ATOM_COUNT>
0

> <PUBCHEM_COMPONENT_COUNT>
1

> <PUBCHEM_CACTVS_TAUTO_COUNT>
1

> <PUBCHEM_CONFORMER_ID>
019815BC00000001

> <PUBCHEM_MMFF94_ENERGY>
40.4897

> <PUBCHEM_FEATURE_SELFOVERLAP>
35.522

> <PUBCHEM_SHAPE_FINGERPRINT>
10291535 26 18124593339008641776
10382601 240 17971763176614856443
1100329 8 18122345679649269066
11036077 51 18336825389675481162
11370993 70 18341333309871457889
12107183 9 18335126580603267976
12160290 23 17752505396971449415
12293681 160 18049133847679474623
12788726 201 18048866682932264522
13140716 1 18336549291823420178
13464514 151 18269565952817500086
138480 1 17473265375095796083
13878862 14 17538556613965222949
13965767 371 17968938565587339028
14123255 52 18339929212232139025
14178342 30 18041861536038630935
14251764 75 17986123915656790953
14466204 15 18266453214209305200
14955137 171 17617669756400668787
15848702 68 17761211012412468853
17980427 23 17623823761867638759
17980427 26 18338787906494287126
20510252 161 18120374521261675771
20739085 24 17896889755274223388
20832881 197 18051143497347560358
21401589 2 18272097122926111281
21524375 3 18411984650249310255
21864079 5 18341332189148295957
22182937 141 18340779224882853891
23558518 356 18338242659973832382
23845131 108 18261118422694020323
283562 15 18337667637590145119
392239 28 18265909115067728435
474 4 18336544894104054275
5048184 11 18340771442481819345
57091435 65 17976544909782120729
5895379 119 17054149156312048849
59124914 9 18267872683551802880
5939293 188 17476646373625513973
633830 44 18341892952952645822
79837 15 18334018327699582498
84936 182 18341048493467531291
9709674 26 18124318457160444302
9849439 229 18336841813667909525
9981440 41 18335419067269561643

> <PUBCHEM_SHAPE_MULTIPOLES>
418.79
8.78
5.04
1.04
2.13
2.75
0.02
-10.74
-0.44
-1.04
-2.35
-0.2
0.34
-0.49

> <PUBCHEM_SHAPE_SELFOVERLAP>
897.606

> <PUBCHEM_SHAPE_VOLUME>
235.3

> <PUBCHEM_COORDINATE_TYPE>
2
5
10

$$$$
