45360854
  -OEChem-12032416353D

 63 66  0     1  0  0  0  0  0999 V2000
    1.3400    1.3877    0.2873 O   0  0  0  0  0  0  0  0  0  0  0  0
   -5.2886   -0.4128    1.7454 O   0  0  0  0  0  0  0  0  0  0  0  0
   -8.3085    1.2419   -1.0904 O   0  0  0  0  0  0  0  0  0  0  0  0
    9.6764    0.6487    0.5373 O   0  0  0  0  0  0  0  0  0  0  0  0
    8.8293    2.5464    1.4580 O   0  0  0  0  0  0  0  0  0  0  0  0
    2.7745   -0.7865   -0.4252 N   0  0  1  0  0  0  0  0  0  0  0  0
   -0.5644   -1.9775    0.4826 N   0  0  1  0  0  0  0  0  0  0  0  0
   -0.6087    0.6664   -0.6711 N   0  0  0  0  0  0  0  0  0  0  0  0
   -6.5803   -0.9134   -0.1173 N   0  0  0  0  0  0  0  0  0  0  0  0
    0.7290   -2.0784   -0.2292 C   0  0  1  0  0  0  0  0  0  0  0  0
    1.3533   -0.7800   -0.8198 C   0  0  1  0  0  0  0  0  0  0  0  0
    1.8794   -2.6212    0.6389 C   0  0  0  0  0  0  0  0  0  0  0  0
    3.1215   -2.1646   -0.0966 C   0  0  0  0  0  0  0  0  0  0  0  0
   -1.7036   -1.5348   -0.3689 C   0  0  2  0  0  0  0  0  0  0  0  0
    0.7224    0.5208   -0.3296 C   0  0  0  0  0  0  0  0  0  0  0  0
   -1.3844   -0.3688   -1.3250 C   0  0  0  0  0  0  0  0  0  0  0  0
    3.6579   -0.2254   -1.4394 C   0  0  0  0  0  0  0  0  0  0  0  0
   -2.8969   -1.1019    0.5086 C   0  0  0  0  0  0  0  0  0  0  0  0
   -0.8928   -3.2463    1.1545 C   0  0  0  0  0  0  0  0  0  0  0  0
   -4.2000   -1.2240   -0.2594 C   0  0  0  0  0  0  0  0  0  0  0  0
    4.9675    0.2297   -0.8526 C   0  0  0  0  0  0  0  0  0  0  0  0
   -5.3891   -0.8017    0.5848 C   0  0  0  0  0  0  0  0  0  0  0  0
    5.0310    1.4216   -0.1305 C   0  0  0  0  0  0  0  0  0  0  0  0
    6.1171   -0.5400   -1.0308 C   0  0  0  0  0  0  0  0  0  0  0  0
    6.2441    1.8435    0.4133 C   0  0  0  0  0  0  0  0  0  0  0  0
    7.3302   -0.1179   -0.4869 C   0  0  0  0  0  0  0  0  0  0  0  0
    7.3937    1.0738    0.2353 C   0  0  0  0  0  0  0  0  0  0  0  0
   -7.8551   -0.5723    0.4681 C   0  0  0  0  0  0  0  0  0  0  0  0
    8.6586    1.5129    0.8030 C   0  0  0  0  0  0  0  0  0  0  0  0
   -8.2228    0.8651    0.2125 C   0  0  0  0  0  0  0  0  0  0  0  0
   -8.5035    1.9260    1.0419 C   0  0  0  0  0  0  0  0  0  0  0  0
   -8.7796    3.0252    0.1942 C   0  0  0  0  0  0  0  0  0  0  0  0
   -8.6476    2.5577   -1.0929 C   0  0  0  0  0  0  0  0  0  0  0  0
    0.6080   -2.7863   -1.0639 H   0  0  0  0  0  0  0  0  0  0  0  0
    1.2691   -0.8157   -1.9142 H   0  0  0  0  0  0  0  0  0  0  0  0
    1.8555   -2.1820    1.6453 H   0  0  0  0  0  0  0  0  0  0  0  0
    1.8532   -3.7115    0.7351 H   0  0  0  0  0  0  0  0  0  0  0  0
    3.2783   -2.7816   -0.9905 H   0  0  0  0  0  0  0  0  0  0  0  0
    4.0064   -2.2323    0.5435 H   0  0  0  0  0  0  0  0  0  0  0  0
   -2.0124   -2.3835   -0.9955 H   0  0  0  0  0  0  0  0  0  0  0  0
   -2.2822    0.1139   -1.7201 H   0  0  0  0  0  0  0  0  0  0  0  0
   -0.8335   -0.7330   -2.1981 H   0  0  0  0  0  0  0  0  0  0  0  0
    3.1962    0.6618   -1.8956 H   0  0  0  0  0  0  0  0  0  0  0  0
    3.8193   -0.9206   -2.2743 H   0  0  0  0  0  0  0  0  0  0  0  0
   -2.9997   -1.6979    1.4184 H   0  0  0  0  0  0  0  0  0  0  0  0
   -2.7586   -0.0726    0.8656 H   0  0  0  0  0  0  0  0  0  0  0  0
   -1.0828    1.5209   -0.3948 H   0  0  0  0  0  0  0  0  0  0  0  0
   -0.9471   -4.0745    0.4380 H   0  0  0  0  0  0  0  0  0  0  0  0
   -0.1439   -3.4967    1.9129 H   0  0  0  0  0  0  0  0  0  0  0  0
   -1.8339   -3.2268    1.7066 H   0  0  0  0  0  0  0  0  0  0  0  0
   -4.2018   -0.6032   -1.1606 H   0  0  0  0  0  0  0  0  0  0  0  0
   -4.3602   -2.2644   -0.5679 H   0  0  0  0  0  0  0  0  0  0  0  0
    4.1435    2.0316    0.0141 H   0  0  0  0  0  0  0  0  0  0  0  0
    6.0803   -1.4711   -1.5900 H   0  0  0  0  0  0  0  0  0  0  0  0
    6.2727    2.7751    0.9724 H   0  0  0  0  0  0  0  0  0  0  0  0
    8.2003   -0.7478   -0.6493 H   0  0  0  0  0  0  0  0  0  0  0  0
   -6.5652   -1.2287   -1.0831 H   0  0  0  0  0  0  0  0  0  0  0  0
   -8.6093   -1.2269    0.0192 H   0  0  0  0  0  0  0  0  0  0  0  0
   -7.8287   -0.7676    1.5455 H   0  0  0  0  0  0  0  0  0  0  0  0
   -8.5088    1.9112    2.1224 H   0  0  0  0  0  0  0  0  0  0  0  0
   10.5246    0.9538    0.9244 H   0  0  0  0  0  0  0  0  0  0  0  0
   -9.0416    4.0322    0.4847 H   0  0  0  0  0  0  0  0  0  0  0  0
   -8.7556    3.0107   -2.0676 H   0  0  0  0  0  0  0  0  0  0  0  0
  1 15  2  0  0  0  0
  2 22  2  0  0  0  0
  3 30  1  0  0  0  0
  3 33  1  0  0  0  0
  4 29  1  0  0  0  0
  4 61  1  0  0  0  0
  5 29  2  0  0  0  0
  6 11  1  0  0  0  0
  6 13  1  0  0  0  0
  6 17  1  0  0  0  0
  7 10  1  0  0  0  0
  7 14  1  0  0  0  0
  7 19  1  0  0  0  0
  8 15  1  0  0  0  0
  8 16  1  0  0  0  0
  8 47  1  0  0  0  0
  9 22  1  0  0  0  0
  9 28  1  0  0  0  0
  9 57  1  0  0  0  0
 10 11  1  0  0  0  0
 10 12  1  0  0  0  0
 10 34  1  0  0  0  0
 11 15  1  0  0  0  0
 11 35  1  0  0  0  0
 12 13  1  0  0  0  0
 12 36  1  0  0  0  0
 12 37  1  0  0  0  0
 13 38  1  0  0  0  0
 13 39  1  0  0  0  0
 14 16  1  0  0  0  0
 14 18  1  0  0  0  0
 14 40  1  0  0  0  0
 16 41  1  0  0  0  0
 16 42  1  0  0  0  0
 17 21  1  0  0  0  0
 17 43  1  0  0  0  0
 17 44  1  0  0  0  0
 18 20  1  0  0  0  0
 18 45  1  0  0  0  0
 18 46  1  0  0  0  0
 19 48  1  0  0  0  0
 19 49  1  0  0  0  0
 19 50  1  0  0  0  0
 20 22  1  0  0  0  0
 20 51  1  0  0  0  0
 20 52  1  0  0  0  0
 21 23  2  0  0  0  0
 21 24  1  0  0  0  0
 23 25  1  0  0  0  0
 23 53  1  0  0  0  0
 24 26  2  0  0  0  0
 24 54  1  0  0  0  0
 25 27  2  0  0  0  0
 25 55  1  0  0  0  0
 26 27  1  0  0  0  0
 26 56  1  0  0  0  0
 27 29  1  0  0  0  0
 28 30  1  0  0  0  0
 28 58  1  0  0  0  0
 28 59  1  0  0  0  0
 30 31  2  0  0  0  0
 31 32  1  0  0  0  0
 31 60  1  0  0  0  0
 32 33  2  0  0  0  0
 32 62  1  0  0  0  0
 33 63  1  0  0  0  0
M  END
> <PUBCHEM_COMPOUND_CID>
45360854

> <PUBCHEM_CONFORMER_RMSD>
1

> <PUBCHEM_CONFORMER_DIVERSEORDER>
2
57
33
48
31
66
63
62
49
24
12
46
67
18
23
10
29
65
44
9
21
38
54
30
5
61
50
47
6
43
20
41
51
27
42
64
26
34
8
52
39
16
35
53
4
60
55
37
28
17
25
36
11
19
32
15
45
14
56
3
59
40
13
22
1
7
58

> <PUBCHEM_MMFF94_PARTIAL_CHARGES>
41
1 -0.57
10 0.27
11 0.33
13 0.27
14 0.27
15 0.57
16 0.3
17 0.41
19 0.27
2 -0.57
20 0.06
21 -0.14
22 0.57
23 -0.15
24 -0.15
25 -0.15
26 -0.15
27 0.09
28 0.48
29 0.63
3 -0.28
30 -0.04
31 -0.15
32 -0.15
33 -0.01
4 -0.65
47 0.37
5 -0.57
53 0.15
54 0.15
55 0.15
56 0.15
57 0.37
6 -0.81
60 0.15
61 0.5
62 0.15
63 0.15
7 -0.81
8 -0.73
9 -0.73

> <PUBCHEM_EFFECTIVE_ROTOR_COUNT>
10.4

> <PUBCHEM_PHARMACOPHORE_FEATURES>
14
1 1 acceptor
1 2 acceptor
1 3 acceptor
1 4 acceptor
1 5 acceptor
1 6 cation
1 7 cation
1 8 donor
1 9 donor
3 4 5 29 anion
5 3 30 31 32 33 rings
5 6 10 11 12 13 rings
6 21 23 24 25 26 27 rings
7 7 8 10 11 14 15 16 rings

> <PUBCHEM_HEAVY_ATOM_COUNT>
33

> <PUBCHEM_ATOM_DEF_STEREO_COUNT>
3

> <PUBCHEM_ATOM_UDEF_STEREO_COUNT>
0

> <PUBCHEM_BOND_DEF_STEREO_COUNT>
0

> <PUBCHEM_BOND_UDEF_STEREO_COUNT>
0

> <PUBCHEM_ISOTOPIC_ATOM_COUNT>
0

> <PUBCHEM_COMPONENT_COUNT>
1

> <PUBCHEM_CACTVS_TAUTO_COUNT>
6

> <PUBCHEM_CONFORMER_ID>
02B426D600000002

> <PUBCHEM_MMFF94_ENERGY>
77.9551

> <PUBCHEM_FEATURE_SELFOVERLAP>
71.141

> <PUBCHEM_SHAPE_FINGERPRINT>
11061554 47 18409446994497749164
11181472 205 17773324439553396043
11456790 92 15791452625641964901
11578821 258 18202566177045896609
12592606 108 9223229646009837389
12838862 33 18334566958569161511
13668630 136 9871750174569303471
15289351 153 18271526395103174450
15350500 55 18409166593779053733
15461852 350 12751239203615143521
15604295 49 18343298193391245361
16991971 28 10592041362616354663
1818759 1 11241968174678576168
20105231 36 7997974570337368264
2026 5 9367352535215977165
21150785 3 15123797287919246799
21298829 104 18334861598184961351
21403212 168 18410856581631785698
21585481 151 8646772201432586013
21781055 127 17894643530644710118
21792934 111 18409444753152035050
23569943 247 9149528290837367844
23576562 1 14332829560878500617
24771293 8 18260547836088202199
3633792 109 18342464694541084947
4169191 19 18411702046555919917
45377200 153 8862936178294591237
54039377 194 8574709101209778529
5937810 71 17845943923347453753
636775 72 18409168805999097077
636775 8 9727638314628651113

> <PUBCHEM_SHAPE_MULTIPOLES>
629.85
32.81
3.03
1.18
17.3
0.06
0.01
-31.83
5.37
2.08
0.82
0.02
-0.11
2.26

> <PUBCHEM_SHAPE_SELFOVERLAP>
1338.207

> <PUBCHEM_SHAPE_VOLUME>
350.5

> <PUBCHEM_COORDINATE_TYPE>
2
5
10

$$$$
