26743070
  -OEChem-12032416403D

 59 63  0     1  0  0  0  0  0999 V2000
   -3.5150    0.9265   -1.5197 O   0  0  0  0  0  0  0  0  0  0  0  0
    1.6202   -0.1518    0.3915 O   0  0  0  0  0  0  0  0  0  0  0  0
    1.5097    3.1949   -1.8427 O   0  0  0  0  0  0  0  0  0  0  0  0
    2.5943    3.3799    0.3013 O   0  0  0  0  0  0  0  0  0  0  0  0
   -2.6581   -4.2873   -0.3161 N   0  0  0  0  0  0  0  0  0  0  0  0
   -3.5311    1.9350    0.5740 N   0  0  0  0  0  0  0  0  0  0  0  0
    0.2474   -0.0799    0.5950 N   0  0  0  0  0  0  0  0  0  0  0  0
   -3.8907   -1.6312   -0.2918 C   0  0  1  0  0  0  0  0  0  0  0  0
   -2.3587   -1.8134   -0.4156 C   0  0  2  0  0  0  0  0  0  0  0  0
   -4.5345   -2.8393    0.4049 C   0  0  0  0  0  0  0  0  0  0  0  0
   -2.0567   -3.1791   -1.0601 C   0  0  0  0  0  0  0  0  0  0  0  0
   -4.1131   -4.1532   -0.2521 C   0  0  0  0  0  0  0  0  0  0  0  0
   -1.6067   -1.6611    0.9133 C   0  0  0  0  0  0  0  0  0  0  0  0
   -4.2936   -0.3279    0.3967 C   0  0  0  0  0  0  0  0  0  0  0  0
   -0.1553   -1.3504    0.6881 C   0  0  0  0  0  0  0  0  0  0  0  0
   -3.7417    0.8897   -0.3134 C   0  0  0  0  0  0  0  0  0  0  0  0
    0.9088   -2.2587    0.5525 C   0  0  0  0  0  0  0  0  0  0  0  0
    2.0021   -1.4543    0.3681 C   0  0  0  0  0  0  0  0  0  0  0  0
   -3.0076    3.2197    0.1701 C   0  0  0  0  0  0  0  0  0  0  0  0
   -1.5086    3.2634    0.2426 C   0  0  0  0  0  0  0  0  0  0  0  0
    3.4024   -1.6874    0.1647 C   0  0  0  0  0  0  0  0  0  0  0  0
   -0.7554    3.1996   -0.9322 C   0  0  0  0  0  0  0  0  0  0  0  0
   -0.8756    3.3713    1.4934 C   0  0  0  0  0  0  0  0  0  0  0  0
    3.8935   -2.9924    0.1251 C   0  0  0  0  0  0  0  0  0  0  0  0
    4.2732   -0.6095    0.0066 C   0  0  0  0  0  0  0  0  0  0  0  0
    0.6187    3.2457   -0.8152 C   0  0  0  0  0  0  0  0  0  0  0  0
    1.2381    3.3512    0.4091 C   0  0  0  0  0  0  0  0  0  0  0  0
    0.5176    3.4163    1.5840 C   0  0  0  0  0  0  0  0  0  0  0  0
    5.2555   -3.2194   -0.0726 C   0  0  0  0  0  0  0  0  0  0  0  0
    5.6352   -0.8364   -0.1912 C   0  0  0  0  0  0  0  0  0  0  0  0
    2.7593    3.2808   -1.1278 C   0  0  0  0  0  0  0  0  0  0  0  0
    6.1264   -2.1413   -0.2307 C   0  0  0  0  0  0  0  0  0  0  0  0
   -4.2918   -1.6036   -1.3161 H   0  0  0  0  0  0  0  0  0  0  0  0
   -1.9836   -1.0534   -1.1138 H   0  0  0  0  0  0  0  0  0  0  0  0
   -5.6272   -2.7528    0.3687 H   0  0  0  0  0  0  0  0  0  0  0  0
   -4.2545   -2.8550    1.4661 H   0  0  0  0  0  0  0  0  0  0  0  0
   -2.4378   -3.1905   -2.0898 H   0  0  0  0  0  0  0  0  0  0  0  0
   -0.9808   -3.3533   -1.1485 H   0  0  0  0  0  0  0  0  0  0  0  0
   -4.5225   -4.9940    0.3187 H   0  0  0  0  0  0  0  0  0  0  0  0
   -4.5371   -4.2257   -1.2610 H   0  0  0  0  0  0  0  0  0  0  0  0
   -1.6966   -2.5469    1.5507 H   0  0  0  0  0  0  0  0  0  0  0  0
   -2.0073   -0.8348    1.5084 H   0  0  0  0  0  0  0  0  0  0  0  0
   -4.0214   -0.3295    1.4568 H   0  0  0  0  0  0  0  0  0  0  0  0
   -5.3870   -0.2293    0.3688 H   0  0  0  0  0  0  0  0  0  0  0  0
   -2.2773   -4.3228    0.6277 H   0  0  0  0  0  0  0  0  0  0  0  0
    0.8764   -3.3378    0.5891 H   0  0  0  0  0  0  0  0  0  0  0  0
   -3.7420    1.8055    1.5591 H   0  0  0  0  0  0  0  0  0  0  0  0
   -3.4373    3.9779    0.8347 H   0  0  0  0  0  0  0  0  0  0  0  0
   -3.3569    3.4474   -0.8437 H   0  0  0  0  0  0  0  0  0  0  0  0
   -1.2267    3.1144   -1.9054 H   0  0  0  0  0  0  0  0  0  0  0  0
   -1.4672    3.4203    2.4044 H   0  0  0  0  0  0  0  0  0  0  0  0
    3.2398   -3.8526    0.2450 H   0  0  0  0  0  0  0  0  0  0  0  0
    3.9296    0.4207    0.0365 H   0  0  0  0  0  0  0  0  0  0  0  0
    1.0095    3.4983    2.5465 H   0  0  0  0  0  0  0  0  0  0  0  0
    5.6383   -4.2354   -0.1034 H   0  0  0  0  0  0  0  0  0  0  0  0
    6.3138    0.0029   -0.3132 H   0  0  0  0  0  0  0  0  0  0  0  0
    3.3037    4.1648   -1.4795 H   0  0  0  0  0  0  0  0  0  0  0  0
    3.3547    2.3896   -1.3545 H   0  0  0  0  0  0  0  0  0  0  0  0
    7.1869   -2.3179   -0.3844 H   0  0  0  0  0  0  0  0  0  0  0  0
  1 16  2  0  0  0  0
  2  7  1  0  0  0  0
  2 18  1  0  0  0  0
  3 26  1  0  0  0  0
  3 31  1  0  0  0  0
  4 27  1  0  0  0  0
  4 31  1  0  0  0  0
  5 11  1  0  0  0  0
  5 12  1  0  0  0  0
  5 45  1  0  0  0  0
  6 16  1  0  0  0  0
  6 19  1  0  0  0  0
  6 47  1  0  0  0  0
  7 15  2  0  0  0  0
  8  9  1  0  0  0  0
  8 10  1  0  0  0  0
  8 14  1  0  0  0  0
  8 33  1  0  0  0  0
  9 11  1  0  0  0  0
  9 13  1  0  0  0  0
  9 34  1  0  0  0  0
 10 12  1  0  0  0  0
 10 35  1  0  0  0  0
 10 36  1  0  0  0  0
 11 37  1  0  0  0  0
 11 38  1  0  0  0  0
 12 39  1  0  0  0  0
 12 40  1  0  0  0  0
 13 15  1  0  0  0  0
 13 41  1  0  0  0  0
 13 42  1  0  0  0  0
 14 16  1  0  0  0  0
 14 43  1  0  0  0  0
 14 44  1  0  0  0  0
 15 17  1  0  0  0  0
 17 18  2  0  0  0  0
 17 46  1  0  0  0  0
 18 21  1  0  0  0  0
 19 20  1  0  0  0  0
 19 48  1  0  0  0  0
 19 49  1  0  0  0  0
 20 22  2  0  0  0  0
 20 23  1  0  0  0  0
 21 24  2  0  0  0  0
 21 25  1  0  0  0  0
 22 26  1  0  0  0  0
 22 50  1  0  0  0  0
 23 28  2  0  0  0  0
 23 51  1  0  0  0  0
 24 29  1  0  0  0  0
 24 52  1  0  0  0  0
 25 30  2  0  0  0  0
 25 53  1  0  0  0  0
 26 27  2  0  0  0  0
 27 28  1  0  0  0  0
 28 54  1  0  0  0  0
 29 32  2  0  0  0  0
 29 55  1  0  0  0  0
 30 32  1  0  0  0  0
 30 56  1  0  0  0  0
 31 57  1  0  0  0  0
 31 58  1  0  0  0  0
 32 59  1  0  0  0  0
M  END
> <PUBCHEM_COMPOUND_CID>
26743070

> <PUBCHEM_CONFORMER_RMSD>
1.4

> <PUBCHEM_CONFORMER_DIVERSEORDER>
1
43
34
51
52
33
13
71
55
26
32
48
2
76
61
14
46
27
70
8
79
47
41
80
4
83
60
37
73
49
7
69
30
15
67
65
12
53
77
50
3
59
38
42
11
39
82
58
25
31
9
62
54
40
72
20
18
57
66
16
78
5
81
64
6
68
24
10
74
35
56
75
19
23
29
17
36
45
63
22
21
28
44

> <PUBCHEM_MMFF94_PARTIAL_CHARGES>
40
1 -0.57
11 0.27
12 0.27
13 0.18
14 0.06
15 0.11
16 0.57
17 -0.15
18 0.09
19 0.44
2 -0.02
20 -0.14
21 0.05
22 -0.15
23 -0.15
24 -0.15
25 -0.15
26 0.08
27 0.08
28 -0.15
29 -0.15
3 -0.36
30 -0.15
31 0.56
32 -0.15
4 -0.36
45 0.36
46 0.15
47 0.37
5 -0.9
50 0.15
51 0.15
52 0.15
53 0.15
54 0.15
55 0.15
56 0.15
59 0.15
6 -0.73
7 -0.41

> <PUBCHEM_EFFECTIVE_ROTOR_COUNT>
9.8

> <PUBCHEM_PHARMACOPHORE_FEATURES>
12
1 1 acceptor
1 3 acceptor
1 4 acceptor
1 5 cation
1 5 donor
1 6 donor
1 7 acceptor
5 2 7 15 17 18 rings
5 3 4 26 27 31 rings
6 20 22 23 26 27 28 rings
6 21 24 25 29 30 32 rings
6 5 8 9 10 11 12 rings

> <PUBCHEM_HEAVY_ATOM_COUNT>
32

> <PUBCHEM_ATOM_DEF_STEREO_COUNT>
2

> <PUBCHEM_ATOM_UDEF_STEREO_COUNT>
0

> <PUBCHEM_BOND_DEF_STEREO_COUNT>
0

> <PUBCHEM_BOND_UDEF_STEREO_COUNT>
0

> <PUBCHEM_ISOTOPIC_ATOM_COUNT>
0

> <PUBCHEM_COMPONENT_COUNT>
1

> <PUBCHEM_CACTVS_TAUTO_COUNT>
2

> <PUBCHEM_CONFORMER_ID>
0198111E00000001

> <PUBCHEM_MMFF94_ENERGY>
59.5133

> <PUBCHEM_FEATURE_SELFOVERLAP>
61.053

> <PUBCHEM_SHAPE_FINGERPRINT>
10290309 65 17543913408244056229
10454371 7 18269005185582716844
10864689 126 17762333618464783396
1100329 8 18339083692301903881
11014199 57 18410572933074828955
11045515 52 18408322189965490994
11513181 2 18342182219342883918
13761468 95 17610338242941602958
14114211 68 17537740054518266573
14117953 113 17760369894438772325
14251757 5 18268144258360085410
15297060 5 17769094544937665688
15876981 60 18408327665811462742
17909252 39 18269276935957144056
19930381 70 17689712386945948171
19958102 18 17907858397358383334
20101258 96 18336837480251395963
20775438 99 17477714352099808631
20905425 154 18269282429226051533
23559900 14 18269543009392744883
2818148 4 18267595787205408761
3504750 166 18047733924722708482
463206 1 18411143510774500400
469060 322 16879365406493049420
484989 97 18335129905187666167
6700243 42 17843716372138588766
70251023 43 18193835066794461211

> <PUBCHEM_SHAPE_MULTIPOLES>
620.12
10.51
7.28
1.14
10.24
2.36
-0.1
-10.8
-0.94
-2.48
-0.45
-0.22
0.92
-0.85

> <PUBCHEM_SHAPE_SELFOVERLAP>
1349.981

> <PUBCHEM_SHAPE_VOLUME>
336

> <PUBCHEM_COORDINATE_TYPE>
2
5
10

$$$$
