40779881
  -OEChem-12032416403D

 60 64  0     1  0  0  0  0  0999 V2000
   -8.1851    2.3745    0.1571 F   0  0  0  0  0  0  0  0  0  0  0  0
   -8.6478    0.5757   -0.9734 F   0  0  0  0  0  0  0  0  0  0  0  0
   -7.4688    2.1625   -1.8789 F   0  0  0  0  0  0  0  0  0  0  0  0
   -2.9346   -2.1419    1.8156 O   0  0  0  0  0  0  0  0  0  0  0  0
    1.4527   -2.4691    0.6675 N   0  0  2  0  0  0  0  0  0  0  0  0
    4.2249    0.8869    0.2216 N   0  0  2  0  0  0  0  0  0  0  0  0
   -1.6594   -0.3938    0.9794 N   0  0  0  0  0  0  0  0  0  0  0  0
    1.7627   -1.3465   -1.6586 C   0  0  2  0  0  0  0  0  0  0  0  0
    2.8899   -0.9256   -0.6881 C   0  0  2  0  0  0  0  0  0  0  0  0
    0.1967   -1.7821    0.2619 C   0  0  2  0  0  0  0  0  0  0  0  0
    0.3986   -0.9822   -1.0443 C   0  0  0  0  0  0  0  0  0  0  0  0
    2.5768   -1.5028    0.7107 C   0  0  0  0  0  0  0  0  0  0  0  0
    1.8178   -2.8822   -1.7690 C   0  0  0  0  0  0  0  0  0  0  0  0
    1.7640   -3.4944   -0.3580 C   0  0  0  0  0  0  0  0  0  0  0  0
    3.1088    0.5847   -0.6380 C   0  0  0  0  0  0  0  0  0  0  0  0
   -0.3783   -0.9093    1.3799 C   0  0  0  0  0  0  0  0  0  0  0  0
    4.1033    1.7548    1.3912 C   0  0  0  0  0  0  0  0  0  0  0  0
    5.5407    0.9707   -0.2107 C   0  0  0  0  0  0  0  0  0  0  0  0
    5.5313    1.9669    1.9335 C   0  0  0  0  0  0  0  0  0  0  0  0
    6.3532    1.6029    0.7393 C   0  0  0  0  0  0  0  0  0  0  0  0
    6.0967    0.5131   -1.3954 C   0  0  0  0  0  0  0  0  0  0  0  0
   -2.8505   -1.0632    1.2345 C   0  0  0  0  0  0  0  0  0  0  0  0
    7.7112    1.7866    0.5410 C   0  0  0  0  0  0  0  0  0  0  0  0
    7.4655    0.6989   -1.6154 C   0  0  0  0  0  0  0  0  0  0  0  0
    8.2671    1.3311   -0.6537 C   0  0  0  0  0  0  0  0  0  0  0  0
   -4.0872   -0.4108    0.7327 C   0  0  0  0  0  0  0  0  0  0  0  0
   -5.2060   -1.1828    0.4197 C   0  0  0  0  0  0  0  0  0  0  0  0
   -4.1292    0.9744    0.5741 C   0  0  0  0  0  0  0  0  0  0  0  0
   -6.3666   -0.5699   -0.0521 C   0  0  0  0  0  0  0  0  0  0  0  0
   -5.2899    1.5874    0.1022 C   0  0  0  0  0  0  0  0  0  0  0  0
   -6.4085    0.8153   -0.2109 C   0  0  0  0  0  0  0  0  0  0  0  0
   -7.6499    1.4704   -0.7155 C   0  0  0  0  0  0  0  0  0  0  0  0
    1.8860   -0.8839   -2.6434 H   0  0  0  0  0  0  0  0  0  0  0  0
    3.8180   -1.3955   -1.0428 H   0  0  0  0  0  0  0  0  0  0  0  0
   -0.5520   -2.5635    0.0634 H   0  0  0  0  0  0  0  0  0  0  0  0
    0.3380    0.0988   -0.8818 H   0  0  0  0  0  0  0  0  0  0  0  0
   -0.4002   -1.2375   -1.7522 H   0  0  0  0  0  0  0  0  0  0  0  0
    3.4690   -2.0105    1.1006 H   0  0  0  0  0  0  0  0  0  0  0  0
    2.3567   -0.7212    1.4447 H   0  0  0  0  0  0  0  0  0  0  0  0
    2.7378   -3.1959   -2.2761 H   0  0  0  0  0  0  0  0  0  0  0  0
    0.9754   -3.2450   -2.3703 H   0  0  0  0  0  0  0  0  0  0  0  0
    1.0140   -4.2946   -0.3268 H   0  0  0  0  0  0  0  0  0  0  0  0
    2.7191   -3.9794   -0.1195 H   0  0  0  0  0  0  0  0  0  0  0  0
    2.2127    1.0824   -0.2495 H   0  0  0  0  0  0  0  0  0  0  0  0
    3.2647    0.9904   -1.6452 H   0  0  0  0  0  0  0  0  0  0  0  0
    0.2566   -0.0451    1.5990 H   0  0  0  0  0  0  0  0  0  0  0  0
   -0.4948   -1.4904    2.3016 H   0  0  0  0  0  0  0  0  0  0  0  0
    3.4487    1.3237    2.1556 H   0  0  0  0  0  0  0  0  0  0  0  0
    3.6769    2.7203    1.0891 H   0  0  0  0  0  0  0  0  0  0  0  0
   -1.6565    0.4649    0.4399 H   0  0  0  0  0  0  0  0  0  0  0  0
    5.7426    1.2789    2.7588 H   0  0  0  0  0  0  0  0  0  0  0  0
    5.6875    2.9995    2.2573 H   0  0  0  0  0  0  0  0  0  0  0  0
    5.4977    0.0179   -2.1524 H   0  0  0  0  0  0  0  0  0  0  0  0
    8.3290    2.2685    1.2907 H   0  0  0  0  0  0  0  0  0  0  0  0
    7.9143    0.3469   -2.5405 H   0  0  0  0  0  0  0  0  0  0  0  0
    9.3293    1.4624   -0.8409 H   0  0  0  0  0  0  0  0  0  0  0  0
   -5.1912   -2.2637    0.5323 H   0  0  0  0  0  0  0  0  0  0  0  0
   -3.2926    1.6154    0.8354 H   0  0  0  0  0  0  0  0  0  0  0  0
   -7.2267   -1.1892   -0.2912 H   0  0  0  0  0  0  0  0  0  0  0  0
   -5.3161    2.6680   -0.0119 H   0  0  0  0  0  0  0  0  0  0  0  0
  1 32  1  0  0  0  0
  2 32  1  0  0  0  0
  3 32  1  0  0  0  0
  4 22  2  0  0  0  0
  5 10  1  0  0  0  0
  5 12  1  0  0  0  0
  5 14  1  0  0  0  0
  6 15  1  0  0  0  0
  6 17  1  0  0  0  0
  6 18  1  0  0  0  0
  7 16  1  0  0  0  0
  7 22  1  0  0  0  0
  7 50  1  0  0  0  0
  8  9  1  0  0  0  0
  8 11  1  0  0  0  0
  8 13  1  0  0  0  0
  8 33  1  0  0  0  0
  9 12  1  0  0  0  0
  9 15  1  0  0  0  0
  9 34  1  0  0  0  0
 10 11  1  0  0  0  0
 10 16  1  0  0  0  0
 10 35  1  0  0  0  0
 11 36  1  0  0  0  0
 11 37  1  0  0  0  0
 12 38  1  0  0  0  0
 12 39  1  0  0  0  0
 13 14  1  0  0  0  0
 13 40  1  0  0  0  0
 13 41  1  0  0  0  0
 14 42  1  0  0  0  0
 14 43  1  0  0  0  0
 15 44  1  0  0  0  0
 15 45  1  0  0  0  0
 16 46  1  0  0  0  0
 16 47  1  0  0  0  0
 17 19  1  0  0  0  0
 17 48  1  0  0  0  0
 17 49  1  0  0  0  0
 18 20  1  0  0  0  0
 18 21  2  0  0  0  0
 19 20  1  0  0  0  0
 19 51  1  0  0  0  0
 19 52  1  0  0  0  0
 20 23  2  0  0  0  0
 21 24  1  0  0  0  0
 21 53  1  0  0  0  0
 22 26  1  0  0  0  0
 23 25  1  0  0  0  0
 23 54  1  0  0  0  0
 24 25  2  0  0  0  0
 24 55  1  0  0  0  0
 25 56  1  0  0  0  0
 26 27  2  0  0  0  0
 26 28  1  0  0  0  0
 27 29  1  0  0  0  0
 27 57  1  0  0  0  0
 28 30  2  0  0  0  0
 28 58  1  0  0  0  0
 29 31  2  0  0  0  0
 29 59  1  0  0  0  0
 30 31  1  0  0  0  0
 30 60  1  0  0  0  0
 31 32  1  0  0  0  0
M  END
> <PUBCHEM_COMPOUND_CID>
40779881

> <PUBCHEM_CONFORMER_RMSD>
1

> <PUBCHEM_CONFORMER_DIVERSEORDER>
1
41
34
63
17
37
28
47
8
20
42
60
13
33
35
59
27
62
53
11
57
52
21
61
50
19
10
32
36
16
5
40
29
48
4
7
23
18
56
6
55
31
26
54
25
44
38
46
49
30
2
43
3
39
22
51
15
24
45
12
14
9
58

> <PUBCHEM_MMFF94_PARTIAL_CHARGES>
37
1 -0.34
10 0.27
12 0.27
14 0.27
15 0.37
16 0.3
17 0.37
18 0.1
19 0.14
2 -0.34
20 -0.14
21 -0.15
22 0.54
23 -0.15
24 -0.15
25 -0.15
26 0.09
27 -0.15
28 -0.15
29 -0.15
3 -0.34
30 -0.15
31 -0.14
32 1.16
4 -0.57
5 -0.81
50 0.37
53 0.15
54 0.15
55 0.15
56 0.15
57 0.15
58 0.15
59 0.15
6 -0.84
60 0.15
7 -0.73

> <PUBCHEM_EFFECTIVE_ROTOR_COUNT>
8.8

> <PUBCHEM_PHARMACOPHORE_FEATURES>
8
1 4 acceptor
1 5 cation
1 6 cation
1 7 donor
5 6 17 18 19 20 rings
6 18 20 21 23 24 25 rings
6 26 27 28 29 30 31 rings
8 5 8 9 10 11 12 13 14 rings

> <PUBCHEM_HEAVY_ATOM_COUNT>
32

> <PUBCHEM_ATOM_DEF_STEREO_COUNT>
3

> <PUBCHEM_ATOM_UDEF_STEREO_COUNT>
0

> <PUBCHEM_BOND_DEF_STEREO_COUNT>
0

> <PUBCHEM_BOND_UDEF_STEREO_COUNT>
0

> <PUBCHEM_ISOTOPIC_ATOM_COUNT>
0

> <PUBCHEM_COMPONENT_COUNT>
1

> <PUBCHEM_CACTVS_TAUTO_COUNT>
2

> <PUBCHEM_CONFORMER_ID>
026E406900000001

> <PUBCHEM_MMFF94_ENERGY>
92.5872

> <PUBCHEM_FEATURE_SELFOVERLAP>
40.687

> <PUBCHEM_SHAPE_FINGERPRINT>
10006869 2 18337665335592669362
10625338 86 18115034115907474688
10674148 151 17894916278923062632
10763959 59 18339368564966926336
10835480 77 18411418393735137827
11135926 11 17417824954061425495
11297750 10 16663444352772264946
11374522 101 17750240360801404548
11387372 6 10591746689896909089
11409948 41 16630255689076801454
11621639 208 17905042547805673972
11991303 11 17131547348914534006
12778500 126 16443066123576074844
12838862 33 17774999125286660592
13150687 139 17703800227759194382
13512321 179 17240778297437962676
13673619 4 10375870770967709475
13685833 64 8214147343686565698
13782708 43 9727630605647612593
13911987 19 17561085804670270851
14117953 113 18410578400974671420
14150023 79 18341898468044925814
14767858 380 15482398603240732774
150020 25 18060420239895580005
15289351 153 18271526408410088920
15350500 55 18260825982233065365
15961568 22 18408042900969105749
18335252 114 17775850112452034120
19302320 297 17313112964253514965
20105231 36 14117792553856551245
2026 5 10735890455893914060
20511986 3 18187919561329981363
20554085 129 18260831505629625138
20567600 254 18343305890061615442
20721686 146 18113621196743011756
20737093 193 12242269915410390458
20737093 207 12462755906311280980
21033648 29 17604160246451409739
21298829 104 18334861585110817925
21403212 168 18411416224945822266
21521239 73 16200444554927822126
23576562 1 17559942390050565765
24771293 8 18113618968029791085
25269216 80 18130773608955806831
2838139 119 18270962457381114688
3103668 31 17629189696381517247
3411729 13 18186519891528229730
3918712 181 18335706078570867108
439807 62 12319738068069401777
504579 68 16559030480938205889
54039377 194 10015867587306252584
57634706 306 17916574488119376592
5937810 71 17988369170456996001
6058803 2 16053815753673609715
636775 8 9943535128589336440
6691757 9 16081370804188348723
6695519 79 17897756209682792843
999808 66 8286206037088571545

> <PUBCHEM_SHAPE_MULTIPOLES>
615.91
25.98
2.99
1.64
19.96
1.6
-0.07
-24.1
-7.37
-0.44
-0.05
-0.6
0.05
3.01

> <PUBCHEM_SHAPE_SELFOVERLAP>
1342.591

> <PUBCHEM_SHAPE_VOLUME>
336.5

> <PUBCHEM_COORDINATE_TYPE>
2
5
10

$$$$
