7663579
  -OEChem-12032416133D

 63 65  0     1  0  0  0  0  0999 V2000
   -1.8950    3.6484   -0.5944 O   0  0  0  0  0  0  0  0  0  0  0  0
   -0.3127   -0.3870   -1.0817 O   0  0  0  0  0  0  0  0  0  0  0  0
    3.4490   -0.6654    1.9961 O   0  0  0  0  0  0  0  0  0  0  0  0
   -0.6538   -4.8613   -0.7247 O   0  0  0  0  0  0  0  0  0  0  0  0
    0.6654   -3.5067    0.5828 O   0  0  0  0  0  0  0  0  0  0  0  0
   -0.5864    1.9351    0.2758 N   0  0  0  0  0  0  0  0  0  0  0  0
   -2.9452    1.7729    0.2188 N   0  0  0  0  0  0  0  0  0  0  0  0
    2.0380    0.7912    0.8340 N   0  0  0  0  0  0  0  0  0  0  0  0
   -1.2432   -1.5457    0.7101 N   0  0  0  0  0  0  0  0  0  0  0  0
    6.3331    1.7924   -0.2605 N   0  0  0  0  0  0  0  0  0  0  0  0
   -4.2817    2.2392   -0.0769 C   0  0  0  0  0  0  0  0  0  0  0  0
   -5.2889    1.7130    0.9511 C   0  0  0  0  0  0  0  0  0  0  0  0
   -4.6943    1.8601   -1.5031 C   0  0  0  0  0  0  0  0  0  0  0  0
   -5.5568    0.2162    0.7945 C   0  0  0  0  0  0  0  0  0  0  0  0
   -4.9632    0.3629   -1.6558 C   0  0  0  0  0  0  0  0  0  0  0  0
   -5.9766   -0.1347   -0.6296 C   0  0  0  0  0  0  0  0  0  0  0  0
   -0.4479    0.6906    1.0473 C   0  0  2  0  0  0  0  0  0  0  0  0
    0.9099    0.5664    1.7402 C   0  0  0  0  0  0  0  0  0  0  0  0
    0.6481    2.6745   -0.0026 C   0  0  0  0  0  0  0  0  0  0  0  0
    1.8321    1.7516   -0.2567 C   0  0  0  0  0  0  0  0  0  0  0  0
   -1.8161    2.5330   -0.0696 C   0  0  0  0  0  0  0  0  0  0  0  0
   -0.6439   -0.4577    0.0989 C   0  0  0  0  0  0  0  0  0  0  0  0
    3.2514    0.1424    1.0897 C   0  0  0  0  0  0  0  0  0  0  0  0
   -1.5620   -2.7691    0.0101 C   0  0  2  0  0  0  0  0  0  0  0  0
    4.3933    0.4381    0.2096 C   0  0  0  0  0  0  0  0  0  0  0  0
   -2.7838   -3.4296    0.6297 C   0  0  0  0  0  0  0  0  0  0  0  0
   -0.3875   -3.7362   -0.0039 C   0  0  0  0  0  0  0  0  0  0  0  0
    4.6198   -0.3105   -0.9359 C   0  0  0  0  0  0  0  0  0  0  0  0
    5.2664    1.4685    0.5042 C   0  0  0  0  0  0  0  0  0  0  0  0
    5.7071   -0.0076   -1.7480 C   0  0  0  0  0  0  0  0  0  0  0  0
    6.5262    1.0439   -1.3696 C   0  0  0  0  0  0  0  0  0  0  0  0
    0.3995   -5.8291   -0.7799 C   0  0  0  0  0  0  0  0  0  0  0  0
   -4.2717    3.3340   -0.0062 H   0  0  0  0  0  0  0  0  0  0  0  0
   -4.9337    1.9137    1.9691 H   0  0  0  0  0  0  0  0  0  0  0  0
   -6.2361    2.2546    0.8320 H   0  0  0  0  0  0  0  0  0  0  0  0
   -5.6072    2.4093   -1.7668 H   0  0  0  0  0  0  0  0  0  0  0  0
   -3.9241    2.1646   -2.2217 H   0  0  0  0  0  0  0  0  0  0  0  0
   -6.3455   -0.0875    1.4925 H   0  0  0  0  0  0  0  0  0  0  0  0
   -4.6622   -0.3561    1.0659 H   0  0  0  0  0  0  0  0  0  0  0  0
   -5.3341    0.1585   -2.6667 H   0  0  0  0  0  0  0  0  0  0  0  0
   -4.0253   -0.1949   -1.5439 H   0  0  0  0  0  0  0  0  0  0  0  0
   -6.0927   -1.2203   -0.7226 H   0  0  0  0  0  0  0  0  0  0  0  0
   -6.9568    0.3104   -0.8406 H   0  0  0  0  0  0  0  0  0  0  0  0
   -1.2296    0.6763    1.8159 H   0  0  0  0  0  0  0  0  0  0  0  0
    0.9953    1.3258    2.5276 H   0  0  0  0  0  0  0  0  0  0  0  0
    1.0145   -0.4108    2.2253 H   0  0  0  0  0  0  0  0  0  0  0  0
   -2.8419    0.8169    0.5358 H   0  0  0  0  0  0  0  0  0  0  0  0
    0.8387    3.3099    0.8710 H   0  0  0  0  0  0  0  0  0  0  0  0
    0.5021    3.3381   -0.8616 H   0  0  0  0  0  0  0  0  0  0  0  0
    1.6892    1.1741   -1.1761 H   0  0  0  0  0  0  0  0  0  0  0  0
    2.7329    2.3567   -0.3937 H   0  0  0  0  0  0  0  0  0  0  0  0
   -1.4049   -1.5196    1.7129 H   0  0  0  0  0  0  0  0  0  0  0  0
   -1.7730   -2.5087   -1.0341 H   0  0  0  0  0  0  0  0  0  0  0  0
   -3.0864   -4.3205    0.0697 H   0  0  0  0  0  0  0  0  0  0  0  0
   -2.5858   -3.7390    1.6624 H   0  0  0  0  0  0  0  0  0  0  0  0
   -3.6338   -2.7389    0.6464 H   0  0  0  0  0  0  0  0  0  0  0  0
    3.9583   -1.1290   -1.2063 H   0  0  0  0  0  0  0  0  0  0  0  0
    5.1360    2.0863    1.3874 H   0  0  0  0  0  0  0  0  0  0  0  0
    5.9068   -0.5764   -2.6489 H   0  0  0  0  0  0  0  0  0  0  0  0
    7.3872    1.3205   -1.9690 H   0  0  0  0  0  0  0  0  0  0  0  0
    1.2867   -5.3966   -1.2522 H   0  0  0  0  0  0  0  0  0  0  0  0
    0.6335   -6.1914    0.2256 H   0  0  0  0  0  0  0  0  0  0  0  0
    0.0551   -6.6718   -1.3853 H   0  0  0  0  0  0  0  0  0  0  0  0
  1 21  2  0  0  0  0
  2 22  2  0  0  0  0
  3 23  2  0  0  0  0
  4 27  1  0  0  0  0
  4 32  1  0  0  0  0
  5 27  2  0  0  0  0
  6 17  1  0  0  0  0
  6 19  1  0  0  0  0
  6 21  1  0  0  0  0
  7 11  1  0  0  0  0
  7 21  1  0  0  0  0
  7 47  1  0  0  0  0
  8 18  1  0  0  0  0
  8 20  1  0  0  0  0
  8 23  1  0  0  0  0
  9 22  1  0  0  0  0
  9 24  1  0  0  0  0
  9 52  1  0  0  0  0
 10 29  1  0  0  0  0
 10 31  2  0  0  0  0
 11 12  1  0  0  0  0
 11 13  1  0  0  0  0
 11 33  1  0  0  0  0
 12 14  1  0  0  0  0
 12 34  1  0  0  0  0
 12 35  1  0  0  0  0
 13 15  1  0  0  0  0
 13 36  1  0  0  0  0
 13 37  1  0  0  0  0
 14 16  1  0  0  0  0
 14 38  1  0  0  0  0
 14 39  1  0  0  0  0
 15 16  1  0  0  0  0
 15 40  1  0  0  0  0
 15 41  1  0  0  0  0
 16 42  1  0  0  0  0
 16 43  1  0  0  0  0
 17 18  1  0  0  0  0
 17 22  1  0  0  0  0
 17 44  1  0  0  0  0
 18 45  1  0  0  0  0
 18 46  1  0  0  0  0
 19 20  1  0  0  0  0
 19 48  1  0  0  0  0
 19 49  1  0  0  0  0
 20 50  1  0  0  0  0
 20 51  1  0  0  0  0
 23 25  1  0  0  0  0
 24 26  1  0  0  0  0
 24 27  1  0  0  0  0
 24 53  1  0  0  0  0
 25 28  1  0  0  0  0
 25 29  2  0  0  0  0
 26 54  1  0  0  0  0
 26 55  1  0  0  0  0
 26 56  1  0  0  0  0
 28 30  2  0  0  0  0
 28 57  1  0  0  0  0
 29 58  1  0  0  0  0
 30 31  1  0  0  0  0
 30 59  1  0  0  0  0
 31 60  1  0  0  0  0
 32 61  1  0  0  0  0
 32 62  1  0  0  0  0
 32 63  1  0  0  0  0
M  END
> <PUBCHEM_COMPOUND_CID>
7663579

> <PUBCHEM_CONFORMER_RMSD>
1.2

> <PUBCHEM_CONFORMER_DIVERSEORDER>
1
77
84
156
53
102
38
36
87
67
133
118
148
143
98
92
157
130
31
46
85
58
43
138
159
108
93
33
132
151
6
65
86
81
111
146
163
56
78
105
66
48
120
79
88
94
21
171
90
107
123
54
44
49
165
140
168
82
15
57
17
167
154
162
125
137
2
158
74
29
75
83
39
173
110
114
134
103
73
150
64
129
141
41
27
60
4
142
127
26
59
147
95
109
47
8
161
174
23
30
40
153
37
50
70
119
149
89
139
80
7
3
51
106
126
34
122
155
24
61
9
16
72
152
97
25
104
14
113
160
10
172
121
99
169
20
91
68
42
76
131
164
128
69
22
145
55
32
63
45
124
12
135
5
166
144
52
170
100
71
101
96
112
136
117
28
115
11
116
18
19
13
35
62

> <PUBCHEM_MMFF94_PARTIAL_CHARGES>
32
1 -0.57
10 -0.62
11 0.3
17 0.36
18 0.3
19 0.3
2 -0.57
20 0.3
21 0.69
22 0.57
23 0.54
24 0.36
25 0.09
27 0.66
28 -0.15
29 0.16
3 -0.57
30 -0.15
31 0.16
32 0.28
4 -0.43
47 0.37
5 -0.57
52 0.37
57 0.15
58 0.15
59 0.15
6 -0.66
60 0.15
7 -0.73
8 -0.66
9 -0.73

> <PUBCHEM_EFFECTIVE_ROTOR_COUNT>
12.4

> <PUBCHEM_PHARMACOPHORE_FEATURES>
10
1 1 acceptor
1 10 acceptor
1 2 acceptor
1 3 acceptor
1 5 acceptor
1 7 donor
1 9 donor
6 10 25 28 29 30 31 rings
6 11 12 13 14 15 16 rings
6 6 8 17 18 19 20 rings

> <PUBCHEM_HEAVY_ATOM_COUNT>
32

> <PUBCHEM_ATOM_DEF_STEREO_COUNT>
2

> <PUBCHEM_ATOM_UDEF_STEREO_COUNT>
0

> <PUBCHEM_BOND_DEF_STEREO_COUNT>
0

> <PUBCHEM_BOND_UDEF_STEREO_COUNT>
0

> <PUBCHEM_ISOTOPIC_ATOM_COUNT>
0

> <PUBCHEM_COMPONENT_COUNT>
1

> <PUBCHEM_CACTVS_TAUTO_COUNT>
4

> <PUBCHEM_CONFORMER_ID>
0074EFDB00000001

> <PUBCHEM_MMFF94_ENERGY>
70.0566

> <PUBCHEM_FEATURE_SELFOVERLAP>
50.749

> <PUBCHEM_SHAPE_FINGERPRINT>
10940486 97 18119249708039257068
11014199 57 17547011187866560330
11135926 11 18266733585532453597
11200772 71 18116726307805949228
11285246 1 17839994637037192319
11488393 25 18121217572071182059
12788726 201 18340762663484264088
13257819 37 18408893922984400070
13692115 46 18193865796884498967
13911987 19 18335128774862804773
14251757 5 18336547230228510102
14790565 3 18410572864239327329
15131766 46 14853320817049017692
15775530 1 17698420458776861816
15927050 60 18342460305564718935
15968369 26 17904187149106843454
16090146 7 18198647525792913128
17980427 23 17096097883329297269
18681886 176 18261669363428829929
19958102 18 18411703166882819724
20028762 73 18272642489937621719
20511986 3 17603857932388467136
21344244 181 18272382936210297574
23516275 137 16701203917909310415
23559900 14 18271805791448453064
3383291 50 18341048613689841754
340366 18 18188215415208470044
437795 70 18057593464099206807
5104073 3 11959144454995885876
5265222 85 18410862095963917165

> <PUBCHEM_SHAPE_MULTIPOLES>
604.29
13.73
5.55
1.44
7.45
10.81
0.06
-9.23
4.38
-2.87
1.01
0.49
-0.1
0.32

> <PUBCHEM_SHAPE_SELFOVERLAP>
1255.067

> <PUBCHEM_SHAPE_VOLUME>
337.8

> <PUBCHEM_COORDINATE_TYPE>
2
5
10

$$$$
