45784203
  -OEChem-12032416243D

 49 52  0     1  0  0  0  0  0999 V2000
   -3.0890    0.6490   -1.4404 O   0  0  0  0  0  0  0  0  0  0  0  0
    7.5120    0.0292    0.2403 O   0  0  0  0  0  0  0  0  0  0  0  0
    1.4534    0.9861   -0.1901 N   0  0  1  0  0  0  0  0  0  0  0  0
    5.3027   -0.6869    0.3052 N   0  0  0  0  0  0  0  0  0  0  0  0
   -2.6255    0.1615    0.7240 N   0  0  0  0  0  0  0  0  0  0  0  0
    2.5496    0.2058    0.3788 C   0  0  0  0  0  0  0  0  0  0  0  0
   -0.8163    1.1874   -0.7450 C   0  0  2  0  0  0  0  0  0  0  0  0
    0.3013    0.1547   -0.5452 C   0  0  0  0  0  0  0  0  0  0  0  0
    0.9284    1.9766    0.7498 C   0  0  0  0  0  0  0  0  0  0  0  0
   -0.3838    2.3977    0.1008 C   0  0  0  0  0  0  0  0  0  0  0  0
    3.0260   -0.8468   -0.6306 C   0  0  0  0  0  0  0  0  0  0  0  0
    3.7066    1.1328    0.7730 C   0  0  0  0  0  0  0  0  0  0  0  0
    4.2354   -1.6127   -0.0943 C   0  0  0  0  0  0  0  0  0  0  0  0
    4.9012    0.3278    1.2818 C   0  0  0  0  0  0  0  0  0  0  0  0
   -2.1875    0.6422   -0.4189 C   0  0  0  0  0  0  0  0  0  0  0  0
    6.6237   -0.7390   -0.1382 C   0  0  0  0  0  0  0  0  0  0  0  0
   -3.9263   -0.1816    0.4451 C   0  0  0  0  0  0  0  0  0  0  0  0
   -4.2137    0.1154   -0.8790 C   0  0  0  0  0  0  0  0  0  0  0  0
    6.9567   -1.8105   -1.1455 C   0  0  0  0  0  0  0  0  0  0  0  0
   -4.9292   -0.7463    1.2460 C   0  0  0  0  0  0  0  0  0  0  0  0
   -5.4411   -0.1052   -1.4915 C   0  0  0  0  0  0  0  0  0  0  0  0
   -6.1824   -0.9840    0.6627 C   0  0  0  0  0  0  0  0  0  0  0  0
   -6.4307   -0.6689   -0.6788 C   0  0  0  0  0  0  0  0  0  0  0  0
   -7.2715   -1.5845    1.4899 C   0  0  0  0  0  0  0  0  0  0  0  0
    2.2079   -0.3181    1.2836 H   0  0  0  0  0  0  0  0  0  0  0  0
   -0.8168    1.5035   -1.7980 H   0  0  0  0  0  0  0  0  0  0  0  0
    0.0492   -0.5548    0.2541 H   0  0  0  0  0  0  0  0  0  0  0  0
    0.4563   -0.4064   -1.4729 H   0  0  0  0  0  0  0  0  0  0  0  0
    0.7311    1.5415    1.7380 H   0  0  0  0  0  0  0  0  0  0  0  0
    1.5808    2.8471    0.8677 H   0  0  0  0  0  0  0  0  0  0  0  0
   -0.2199    3.2606   -0.5568 H   0  0  0  0  0  0  0  0  0  0  0  0
   -1.1247    2.6891    0.8529 H   0  0  0  0  0  0  0  0  0  0  0  0
    2.2418   -1.5793   -0.8512 H   0  0  0  0  0  0  0  0  0  0  0  0
    3.2998   -0.3628   -1.5777 H   0  0  0  0  0  0  0  0  0  0  0  0
    4.0199    1.7320   -0.0923 H   0  0  0  0  0  0  0  0  0  0  0  0
    3.4154    1.8294    1.5666 H   0  0  0  0  0  0  0  0  0  0  0  0
    4.5737   -2.3270   -0.8468 H   0  0  0  0  0  0  0  0  0  0  0  0
    3.9578   -2.1891    0.7964 H   0  0  0  0  0  0  0  0  0  0  0  0
    4.6449   -0.1953    2.2108 H   0  0  0  0  0  0  0  0  0  0  0  0
    5.7325    1.0037    1.5058 H   0  0  0  0  0  0  0  0  0  0  0  0
    8.0146   -1.7390   -1.4165 H   0  0  0  0  0  0  0  0  0  0  0  0
    6.7812   -2.8006   -0.7166 H   0  0  0  0  0  0  0  0  0  0  0  0
    6.3629   -1.6737   -2.0532 H   0  0  0  0  0  0  0  0  0  0  0  0
   -4.7341   -0.9914    2.2851 H   0  0  0  0  0  0  0  0  0  0  0  0
   -5.6227    0.1417   -2.5300 H   0  0  0  0  0  0  0  0  0  0  0  0
   -7.4100   -0.8637   -1.1114 H   0  0  0  0  0  0  0  0  0  0  0  0
   -8.2514   -1.1967    1.1912 H   0  0  0  0  0  0  0  0  0  0  0  0
   -7.1427   -1.3450    2.5509 H   0  0  0  0  0  0  0  0  0  0  0  0
   -7.2730   -2.6729    1.3748 H   0  0  0  0  0  0  0  0  0  0  0  0
  1 15  1  0  0  0  0
  1 18  1  0  0  0  0
  2 16  2  0  0  0  0
  3  6  1  0  0  0  0
  3  8  1  0  0  0  0
  3  9  1  0  0  0  0
  4 13  1  0  0  0  0
  4 14  1  0  0  0  0
  4 16  1  0  0  0  0
  5 15  2  0  0  0  0
  5 17  1  0  0  0  0
  6 11  1  0  0  0  0
  6 12  1  0  0  0  0
  6 25  1  0  0  0  0
  7  8  1  0  0  0  0
  7 10  1  0  0  0  0
  7 15  1  0  0  0  0
  7 26  1  0  0  0  0
  8 27  1  0  0  0  0
  8 28  1  0  0  0  0
  9 10  1  0  0  0  0
  9 29  1  0  0  0  0
  9 30  1  0  0  0  0
 10 31  1  0  0  0  0
 10 32  1  0  0  0  0
 11 13  1  0  0  0  0
 11 33  1  0  0  0  0
 11 34  1  0  0  0  0
 12 14  1  0  0  0  0
 12 35  1  0  0  0  0
 12 36  1  0  0  0  0
 13 37  1  0  0  0  0
 13 38  1  0  0  0  0
 14 39  1  0  0  0  0
 14 40  1  0  0  0  0
 16 19  1  0  0  0  0
 17 18  2  0  0  0  0
 17 20  1  0  0  0  0
 18 21  1  0  0  0  0
 19 41  1  0  0  0  0
 19 42  1  0  0  0  0
 19 43  1  0  0  0  0
 20 22  2  0  0  0  0
 20 44  1  0  0  0  0
 21 23  2  0  0  0  0
 21 45  1  0  0  0  0
 22 23  1  0  0  0  0
 22 24  1  0  0  0  0
 23 46  1  0  0  0  0
 24 47  1  0  0  0  0
 24 48  1  0  0  0  0
 24 49  1  0  0  0  0
M  END
> <PUBCHEM_COMPOUND_CID>
45784203

> <PUBCHEM_CONFORMER_RMSD>
0.8

> <PUBCHEM_CONFORMER_DIVERSEORDER>
1
55
39
48
15
38
46
18
30
37
51
41
40
54
16
34
29
43
53
25
28
23
52
50
33
12
36
44
10
13
20
49
32
47
26
31
24
11
7
17
14
21
19
8
22
27
6
9
45
2
35
3
5
42
4

> <PUBCHEM_MMFF94_PARTIAL_CHARGES>
24
1 -0.28
13 0.3
14 0.3
15 0.3
16 0.57
17 0.23
18 0.14
19 0.06
2 -0.57
20 -0.15
21 -0.15
22 -0.14
23 -0.15
24 0.14
3 -0.81
4 -0.66
44 0.15
45 0.15
46 0.15
5 -0.57
6 0.27
7 0.18
8 0.27
9 0.27

> <PUBCHEM_EFFECTIVE_ROTOR_COUNT>
5.2

> <PUBCHEM_PHARMACOPHORE_FEATURES>
6
1 2 acceptor
1 3 cation
5 1 5 15 17 18 rings
5 3 7 8 9 10 rings
6 17 18 20 21 22 23 rings
6 4 6 11 12 13 14 rings

> <PUBCHEM_HEAVY_ATOM_COUNT>
24

> <PUBCHEM_ATOM_DEF_STEREO_COUNT>
1

> <PUBCHEM_ATOM_UDEF_STEREO_COUNT>
0

> <PUBCHEM_BOND_DEF_STEREO_COUNT>
0

> <PUBCHEM_BOND_UDEF_STEREO_COUNT>
0

> <PUBCHEM_ISOTOPIC_ATOM_COUNT>
0

> <PUBCHEM_COMPONENT_COUNT>
1

> <PUBCHEM_CACTVS_TAUTO_COUNT>
1

> <PUBCHEM_CONFORMER_ID>
02BA9C8B00000001

> <PUBCHEM_MMFF94_ENERGY>
41.7771

> <PUBCHEM_FEATURE_SELFOVERLAP>
30.566

> <PUBCHEM_SHAPE_FINGERPRINT>
10299344 5 17060338526851282022
10595046 47 15140954033025581980
10670039 82 11025785501287193959
11315181 36 17821730533592619677
11524674 6 18342176696210983431
11796584 16 17749382668284245611
12236239 1 16773511152736755761
12403259 118 12895060856187704457
12516196 113 18411696590887228960
12596602 18 16343696668471309706
12760667 363 18413107256185157825
12778500 126 13758081766756835878
13288520 33 17675923210269996093
13402501 40 18333170578823504827
13533116 47 18131067181905876104
13668630 136 18187086148147162262
13673619 4 18113338630855429581
13685833 64 18408887347457846651
14123256 34 18407762542693876339
1420 363 18410573977062696014
14251764 18 16702300174362883172
14598715 104 10951772932825951355
14729087 3 11240002248056976107
14849402 71 16701447005174996720
15142383 8 11959730461287994618
15183329 4 14851602185189124983
15238133 3 13973961030552228050
15510800 12 18114758126189856051
15537594 2 18343012285965808198
15716309 27 17918274246605520351
1577012 14 13840255971239157813
1813 80 18202012018230880620
18335252 114 7997975648220892826
18335252 98 18412267225644866694
18681886 176 16588023553994845061
20281389 69 11239993460648801534
20554085 129 12180126540526334956
20715895 44 8070018979046925086
21049683 271 18335425707754198924
21150785 3 15140962867731215747
21267235 1 18273217474462979772
21315763 76 11458430115734666806
21365058 113 18113341933126598932
21521239 73 14634863137644733328
21623969 137 18413390929710610926
22224240 67 17346311614105254622
22288116 15 13768220419073535921
2297311 6 17385439930419077797
23198884 109 14056717937838081459
23522609 53 17773902915808941944
23559900 14 17386002922837174245
246663 6 18202286888444116926
2747138 104 18413392046786742808
2767999 5 8718825392554048582
2838139 119 10375865255955297507
2916195 48 11455890269802192831
29717793 49 14851881414388498626
300161 21 7853571310088154864
3004659 81 17240483628041564748
312425 54 16271913931403604934
335352 9 16877932847023871159
3383291 50 18335703875289522451
34797466 226 17313390075168626836
3663271 9 16271639074475520970
4340502 62 13758356674554646788
437815 12 18334857234218977473
465052 167 18341615931867537804
5104073 3 17987227829999409528
5283384 27 9007055751531367330
5385378 56 12750972004540195052
5718773 13 18189897703287302091
59682541 35 18341885317371062768
59755656 215 18259982656720063706
59755656 520 11095877151138614676
6009941 240 18337955585235636273
636775 8 18334868199450085766
8863177 126 18115593797944528771
9663363 56 18410284813625234941
9862886 166 17748831825569584970
999808 66 18408327692071863107

> <PUBCHEM_SHAPE_MULTIPOLES>
467.23
21.07
1.75
1.28
5.31
0.43
0
-13.06
1.92
1
0.1
-1.39
-0.17
2.04

> <PUBCHEM_SHAPE_SELFOVERLAP>
1002.529

> <PUBCHEM_SHAPE_VOLUME>
259.7

> <PUBCHEM_COORDINATE_TYPE>
2
5
10

$$$$
