75367736
  -OEChem-12032416383D

 35 36  0     1  0  0  0  0  0999 V2000
    3.0780   -1.5969    0.4451 O   0  0  0  0  0  0  0  0  0  0  0  0
    2.6289    1.9664    0.6855 O   0  0  0  0  0  0  0  0  0  0  0  0
    0.2742   -0.6534   -0.5419 N   0  0  2  0  0  0  0  0  0  0  0  0
   -2.7613   -0.5418    0.4259 N   0  0  0  0  0  0  0  0  0  0  0  0
   -2.4609    1.3807   -0.6443 N   0  0  0  0  0  0  0  0  0  0  0  0
    0.9020    0.6588   -0.3514 C   0  0  0  0  0  0  0  0  0  0  0  0
    2.3728    0.6921    0.0934 C   0  0  2  0  0  0  0  0  0  0  0  0
    1.1602   -1.6695   -1.1117 C   0  0  0  0  0  0  0  0  0  0  0  0
   -0.9545   -0.5140   -1.3245 C   0  0  0  0  0  0  0  0  0  0  0  0
    2.7468   -0.3808    1.1072 C   0  0  0  0  0  0  0  0  0  0  0  0
    1.9576   -2.3498    0.0017 C   0  0  0  0  0  0  0  0  0  0  0  0
   -2.0553    0.1357   -0.5289 C   0  0  0  0  0  0  0  0  0  0  0  0
   -3.6753    0.3266    0.9528 C   0  0  0  0  0  0  0  0  0  0  0  0
    2.8449    2.9599   -0.3039 C   0  0  0  0  0  0  0  0  0  0  0  0
   -2.5873   -1.9204    0.8185 C   0  0  0  0  0  0  0  0  0  0  0  0
   -3.4707    1.5062    0.2766 C   0  0  0  0  0  0  0  0  0  0  0  0
    0.3111    1.2208    0.3842 H   0  0  0  0  0  0  0  0  0  0  0  0
    0.8397    1.2379   -1.2828 H   0  0  0  0  0  0  0  0  0  0  0  0
    3.0179    0.5566   -0.7862 H   0  0  0  0  0  0  0  0  0  0  0  0
    1.8121   -1.2522   -1.8883 H   0  0  0  0  0  0  0  0  0  0  0  0
    0.5684   -2.4636   -1.5841 H   0  0  0  0  0  0  0  0  0  0  0  0
   -0.7824    0.0492   -2.2511 H   0  0  0  0  0  0  0  0  0  0  0  0
   -1.3294   -1.4947   -1.6454 H   0  0  0  0  0  0  0  0  0  0  0  0
    1.9671   -0.5383    1.8625 H   0  0  0  0  0  0  0  0  0  0  0  0
    3.6444   -0.0695    1.6540 H   0  0  0  0  0  0  0  0  0  0  0  0
    1.3236   -2.6162    0.8567 H   0  0  0  0  0  0  0  0  0  0  0  0
    2.3598   -3.2911   -0.3897 H   0  0  0  0  0  0  0  0  0  0  0  0
   -4.3678    0.0453    1.7339 H   0  0  0  0  0  0  0  0  0  0  0  0
    3.1010    3.8931    0.2061 H   0  0  0  0  0  0  0  0  0  0  0  0
    1.9435    3.1398   -0.8957 H   0  0  0  0  0  0  0  0  0  0  0  0
    3.6819    2.6906   -0.9559 H   0  0  0  0  0  0  0  0  0  0  0  0
   -2.7502   -2.5571   -0.0543 H   0  0  0  0  0  0  0  0  0  0  0  0
   -1.5769   -2.0481    1.2134 H   0  0  0  0  0  0  0  0  0  0  0  0
   -3.3164   -2.1712    1.5935 H   0  0  0  0  0  0  0  0  0  0  0  0
   -3.9990    2.4395    0.4062 H   0  0  0  0  0  0  0  0  0  0  0  0
  1 10  1  0  0  0  0
  1 11  1  0  0  0  0
  2  7  1  0  0  0  0
  2 14  1  0  0  0  0
  3  6  1  0  0  0  0
  3  8  1  0  0  0  0
  3  9  1  0  0  0  0
  4 12  1  0  0  0  0
  4 13  1  0  0  0  0
  4 15  1  0  0  0  0
  5 12  2  0  0  0  0
  5 16  1  0  0  0  0
  6  7  1  0  0  0  0
  6 17  1  0  0  0  0
  6 18  1  0  0  0  0
  7 10  1  0  0  0  0
  7 19  1  0  0  0  0
  8 11  1  0  0  0  0
  8 20  1  0  0  0  0
  8 21  1  0  0  0  0
  9 12  1  0  0  0  0
  9 22  1  0  0  0  0
  9 23  1  0  0  0  0
 10 24  1  0  0  0  0
 10 25  1  0  0  0  0
 11 26  1  0  0  0  0
 11 27  1  0  0  0  0
 13 16  2  0  0  0  0
 13 28  1  0  0  0  0
 14 29  1  0  0  0  0
 14 30  1  0  0  0  0
 14 31  1  0  0  0  0
 15 32  1  0  0  0  0
 15 33  1  0  0  0  0
 15 34  1  0  0  0  0
 16 35  1  0  0  0  0
M  END
> <PUBCHEM_COMPOUND_CID>
75367736

> <PUBCHEM_CONFORMER_RMSD>
0.6

> <PUBCHEM_CONFORMER_DIVERSEORDER>
1
104
88
10
56
66
62
28
90
100
30
94
49
14
79
46
81
17
51
82
78
70
35
67
39
96
107
102
37
68
18
83
112
69
44
65
99
57
2
48
4
116
15
38
109
34
73
21
20
117
108
53
24
64
29
93
113
11
114
84
115
119
9
80
98
23
77
5
110
32
74
47
59
52
89
3
72
42
106
12
50
54
92
105
103
61
60
101
6
95
58
13
76
111
55
85
40
43
19
41
86
26
71
120
75
8
97
7
25
45
33
87
22
36
118
91
63
31
27
16

> <PUBCHEM_MMFF94_PARTIAL_CHARGES>
18
1 -0.56
10 0.28
11 0.28
12 0.01
13 -0.3
14 0.28
15 0.26
16 0.08
2 -0.56
28 0.15
3 -0.81
35 0.15
4 0.05
5 -0.57
6 0.27
7 0.28
8 0.27
9 0.45

> <PUBCHEM_EFFECTIVE_ROTOR_COUNT>
4.4

> <PUBCHEM_PHARMACOPHORE_FEATURES>
6
1 1 acceptor
1 2 acceptor
1 3 cation
3 4 5 12 cation
5 4 5 12 13 16 rings
7 1 3 6 7 8 10 11 rings

> <PUBCHEM_HEAVY_ATOM_COUNT>
16

> <PUBCHEM_ATOM_DEF_STEREO_COUNT>
1

> <PUBCHEM_ATOM_UDEF_STEREO_COUNT>
0

> <PUBCHEM_BOND_DEF_STEREO_COUNT>
0

> <PUBCHEM_BOND_UDEF_STEREO_COUNT>
0

> <PUBCHEM_ISOTOPIC_ATOM_COUNT>
0

> <PUBCHEM_COMPONENT_COUNT>
1

> <PUBCHEM_CACTVS_TAUTO_COUNT>
1

> <PUBCHEM_CONFORMER_ID>
047E053800000001

> <PUBCHEM_MMFF94_ENERGY>
38.992

> <PUBCHEM_FEATURE_SELFOVERLAP>
30.449

> <PUBCHEM_SHAPE_FINGERPRINT>
10608611 8 18409448059802118781
11471102 22 18408886222055258130
12251169 10 18409728435093024331
12633257 1 18260822670433270803
12670545 47 18335704914380775159
12696612 119 18340764858248897334
13897977 13 18267589194240789513
14223421 5 18334859458594935043
14251764 38 18196085548232670781
14648413 74 18410856521000940686
15775835 57 17917146203552266409
16945 1 18340480063130695590
17041 49 18266177223499344306
17804303 29 18189345562932705583
19049666 15 17830170212658203359
201361 129 18339080496872401408
20361792 2 15140968361279458063
20681677 76 18335695044788515557
21501502 16 18411980295168308975
21524375 3 18056757865373768668
22169311 14 18261675870229572763
23559900 14 18338800013980356159
2637199 183 18267037226750982940
7097593 13 18261663775507118250
7364860 26 18412548699835464012
81228 2 17191516603142283510
9882013 296 18043529632089361041

> <PUBCHEM_SHAPE_MULTIPOLES>
302.59
6.49
2.7
1.1
2.59
0.64
0.07
1.89
-1.98
-2.18
0
0.09
-0.21
0.18

> <PUBCHEM_SHAPE_SELFOVERLAP>
614.237

> <PUBCHEM_SHAPE_VOLUME>
175

> <PUBCHEM_COORDINATE_TYPE>
2
5
10

$$$$
