51137841
  -OEChem-12032416223D

 48 51  0     1  0  0  0  0  0999 V2000
   -2.0107    0.8423   -0.3904 O   0  0  0  0  0  0  0  0  0  0  0  0
    1.5190    1.4785    2.7632 O   0  0  0  0  0  0  0  0  0  0  0  0
    2.5915   -2.8148   -0.4474 O   0  0  0  0  0  0  0  0  0  0  0  0
    5.1061   -1.8696   -1.1625 O   0  0  0  0  0  0  0  0  0  0  0  0
    0.6295    2.2533    0.7626 N   0  0  0  0  0  0  0  0  0  0  0  0
   -3.1950    2.2012   -1.7155 N   0  0  0  0  0  0  0  0  0  0  0  0
   -3.9584    1.0761   -1.4657 N   0  0  0  0  0  0  0  0  0  0  0  0
   -5.0451   -2.8200    0.1581 N   0  0  0  0  0  0  0  0  0  0  0  0
   -0.8502    2.9254   -0.9759 C   0  0  1  0  0  0  0  0  0  0  0  0
   -0.9597    3.9050    0.2029 C   0  0  0  0  0  0  0  0  0  0  0  0
    0.4943    2.2395   -0.6949 C   0  0  0  0  0  0  0  0  0  0  0  0
   -0.3484    3.1423    1.3704 C   0  0  0  0  0  0  0  0  0  0  0  0
   -2.0673    2.0214   -1.0681 C   0  0  0  0  0  0  0  0  0  0  0  0
    1.4903    1.4882    1.5342 C   0  0  0  0  0  0  0  0  0  0  0  0
    2.4338    0.6071    0.8287 C   0  0  0  0  0  0  0  0  0  0  0  0
   -3.2278    0.3110   -0.6887 C   0  0  0  0  0  0  0  0  0  0  0  0
    2.0669   -0.7025    0.5189 C   0  0  0  0  0  0  0  0  0  0  0  0
    3.6956    1.0812    0.4700 C   0  0  0  0  0  0  0  0  0  0  0  0
   -3.5089   -0.9735   -0.1163 C   0  0  0  0  0  0  0  0  0  0  0  0
    2.9617   -1.5380   -0.1499 C   0  0  0  0  0  0  0  0  0  0  0  0
    4.5904    0.2457   -0.1985 C   0  0  0  0  0  0  0  0  0  0  0  0
    4.2235   -1.0639   -0.5085 C   0  0  0  0  0  0  0  0  0  0  0  0
   -2.5783   -1.6181    0.6911 C   0  0  0  0  0  0  0  0  0  0  0  0
   -4.7167   -1.6112   -0.3501 C   0  0  0  0  0  0  0  0  0  0  0  0
   -2.8797   -2.8630    1.2324 C   0  0  0  0  0  0  0  0  0  0  0  0
    1.2844   -3.2207   -0.0457 C   0  0  0  0  0  0  0  0  0  0  0  0
   -4.1156   -3.4160    0.9383 C   0  0  0  0  0  0  0  0  0  0  0  0
    6.3747   -1.3073   -1.4927 C   0  0  0  0  0  0  0  0  0  0  0  0
   -0.7962    3.4721   -1.9251 H   0  0  0  0  0  0  0  0  0  0  0  0
   -0.3490    4.7922   -0.0077 H   0  0  0  0  0  0  0  0  0  0  0  0
   -1.9797    4.2399    0.4155 H   0  0  0  0  0  0  0  0  0  0  0  0
    1.3255    2.8304   -1.0965 H   0  0  0  0  0  0  0  0  0  0  0  0
    0.5591    1.2232   -1.0930 H   0  0  0  0  0  0  0  0  0  0  0  0
   -1.0922    2.5240    1.8851 H   0  0  0  0  0  0  0  0  0  0  0  0
    0.1314    3.7961    2.1050 H   0  0  0  0  0  0  0  0  0  0  0  0
    1.0727   -1.0128    0.8236 H   0  0  0  0  0  0  0  0  0  0  0  0
    3.9902    2.1004    0.7069 H   0  0  0  0  0  0  0  0  0  0  0  0
    5.5521    0.6818   -0.4457 H   0  0  0  0  0  0  0  0  0  0  0  0
   -1.6103   -1.1799    0.9191 H   0  0  0  0  0  0  0  0  0  0  0  0
   -5.4889   -1.1657   -0.9707 H   0  0  0  0  0  0  0  0  0  0  0  0
   -2.1693   -3.3841    1.8639 H   0  0  0  0  0  0  0  0  0  0  0  0
    1.1720   -3.2030    1.0437 H   0  0  0  0  0  0  0  0  0  0  0  0
    0.5075   -2.6401   -0.5550 H   0  0  0  0  0  0  0  0  0  0  0  0
    1.1593   -4.2620   -0.3605 H   0  0  0  0  0  0  0  0  0  0  0  0
   -4.3991   -4.3850    1.3356 H   0  0  0  0  0  0  0  0  0  0  0  0
    6.2755   -0.4706   -2.1927 H   0  0  0  0  0  0  0  0  0  0  0  0
    6.9418   -1.0359   -0.5957 H   0  0  0  0  0  0  0  0  0  0  0  0
    6.9478   -2.0856   -2.0074 H   0  0  0  0  0  0  0  0  0  0  0  0
  1 13  1  0  0  0  0
  1 16  1  0  0  0  0
  2 14  2  0  0  0  0
  3 20  1  0  0  0  0
  3 26  1  0  0  0  0
  4 22  1  0  0  0  0
  4 28  1  0  0  0  0
  5 11  1  0  0  0  0
  5 12  1  0  0  0  0
  5 14  1  0  0  0  0
  6  7  1  0  0  0  0
  6 13  2  0  0  0  0
  7 16  2  0  0  0  0
  8 24  1  0  0  0  0
  8 27  2  0  0  0  0
  9 10  1  0  0  0  0
  9 11  1  0  0  0  0
  9 13  1  0  0  0  0
  9 29  1  0  0  0  0
 10 12  1  0  0  0  0
 10 30  1  0  0  0  0
 10 31  1  0  0  0  0
 11 32  1  0  0  0  0
 11 33  1  0  0  0  0
 12 34  1  0  0  0  0
 12 35  1  0  0  0  0
 14 15  1  0  0  0  0
 15 17  2  0  0  0  0
 15 18  1  0  0  0  0
 16 19  1  0  0  0  0
 17 20  1  0  0  0  0
 17 36  1  0  0  0  0
 18 21  2  0  0  0  0
 18 37  1  0  0  0  0
 19 23  1  0  0  0  0
 19 24  2  0  0  0  0
 20 22  2  0  0  0  0
 21 22  1  0  0  0  0
 21 38  1  0  0  0  0
 23 25  2  0  0  0  0
 23 39  1  0  0  0  0
 24 40  1  0  0  0  0
 25 27  1  0  0  0  0
 25 41  1  0  0  0  0
 26 42  1  0  0  0  0
 26 43  1  0  0  0  0
 26 44  1  0  0  0  0
 27 45  1  0  0  0  0
 28 46  1  0  0  0  0
 28 47  1  0  0  0  0
 28 48  1  0  0  0  0
M  END
> <PUBCHEM_COMPOUND_CID>
51137841

> <PUBCHEM_CONFORMER_RMSD>
1

> <PUBCHEM_CONFORMER_DIVERSEORDER>
1
188
20
199
122
157
91
173
31
212
164
144
176
183
166
168
39
194
116
196
70
28
48
82
136
87
184
202
55
129
47
218
222
103
200
61
162
33
81
158
204
40
34
69
108
221
120
175
52
180
106
152
56
41
135
170
182
209
77
190
214
185
36
165
127
85
142
133
94
146
11
2
59
64
155
101
191
76
169
97
220
219
211
45
105
57
215
137
15
107
187
210
207
86
24
78
150
118
26
189
128
75
179
198
30
37
138
151
14
66
100
141
143
213
132
46
217
186
98
88
117
27
93
159
32
139
178
216
42
113
4
16
71
171
110
167
19
68
197
153
51
23
206
80
125
195
72
83
205
50
131
35
29
90
25
177
13
79
201
156
148
49
208
123
96
54
95
104
10
73
163
134
60
192
161
119
111
89
140
149
160
121
92
9
44
84
130
172
12
174
63
58
6
114
115
147
67
181
8
18
99
22
53
21
3
38
193
145
43
65
124
74
7
154
203
5
17
126
112
109
102
62

> <PUBCHEM_MMFF94_PARTIAL_CHARGES>
34
1 -0.28
11 0.3
12 0.3
13 0.3
14 0.54
15 0.09
16 0.43
17 -0.15
18 -0.15
19 0.05
2 -0.57
20 0.08
21 -0.15
22 0.08
23 -0.15
24 0.16
25 -0.15
26 0.28
27 0.16
28 0.28
3 -0.36
36 0.15
37 0.15
38 0.15
39 0.15
4 -0.36
40 0.15
41 0.15
45 0.15
5 -0.66
6 -0.34
7 -0.34
8 -0.62
9 0.18

> <PUBCHEM_EFFECTIVE_ROTOR_COUNT>
7

> <PUBCHEM_PHARMACOPHORE_FEATURES>
8
1 2 acceptor
1 3 acceptor
1 4 acceptor
1 8 acceptor
5 1 6 7 13 16 rings
5 5 9 10 11 12 rings
6 15 17 18 20 21 22 rings
6 8 19 23 24 25 27 rings

> <PUBCHEM_HEAVY_ATOM_COUNT>
28

> <PUBCHEM_ATOM_DEF_STEREO_COUNT>
1

> <PUBCHEM_ATOM_UDEF_STEREO_COUNT>
0

> <PUBCHEM_BOND_DEF_STEREO_COUNT>
0

> <PUBCHEM_BOND_UDEF_STEREO_COUNT>
0

> <PUBCHEM_ISOTOPIC_ATOM_COUNT>
0

> <PUBCHEM_COMPONENT_COUNT>
1

> <PUBCHEM_CACTVS_TAUTO_COUNT>
1

> <PUBCHEM_CONFORMER_ID>
030C4D3100000001

> <PUBCHEM_MMFF94_ENERGY>
88.1755

> <PUBCHEM_FEATURE_SELFOVERLAP>
40.604

> <PUBCHEM_SHAPE_FINGERPRINT>
10366900 7 18270105812720432335
10577160 103 17969235598091091476
10764073 3 10950957086924620592
107951 10 17909266875853404941
12156800 1 11388911517008961581
12788726 201 17055549964322891488
13135754 10 17201106728022150936
13402501 40 18410291449545217411
13533116 47 17981608475341817115
1361 2 17472131156481749947
13631057 29 18410859820179532462
13911882 115 18340761667341748304
13989917 61 17616535498899379603
14251757 5 18261679181575485503
14363568 33 17903937882047375665
14931854 50 18122054308708712823
14950920 106 13110373764373726654
15420108 30 16609683112992928185
17909252 39 18265062516626077568
17974551 9 17775569724091773705
1979834 28 17616533299959364291
20775530 9 18410009966120821787
221357 26 18411701010414266935
23536364 44 18056493759593495622
23559900 14 18189609626607448485
255183 313 17189507194225463296
329604 57 18409173229466804374
3493558 16 15579803449450819854
3737641 26 18272657856818604598
4280585 95 18187074040993187420
437815 12 18343582958512637065
445580 102 18271527477308917046
46194498 28 17970909101167685877
484985 159 18270691848476490993
484989 97 18341900680580233118
508706 21 18334286596210948727
5309563 4 18340485668437861943
6287921 2 17836646701265854299
6823239 73 18336258045838335473
9862886 166 18338232666412901378
9980921 177 17976858516739191147

> <PUBCHEM_SHAPE_MULTIPOLES>
532.83
10.88
4.97
1.56
5.06
0.58
0.46
-10.21
-3.79
-3.34
0.45
0.28
0.76
3.07

> <PUBCHEM_SHAPE_SELFOVERLAP>
1161.554

> <PUBCHEM_SHAPE_VOLUME>
290.9

> <PUBCHEM_COORDINATE_TYPE>
2
5
10

$$$$
