86769005
  -OEChem-12032416383D

 43 45  0     1  0  0  0  0  0999 V2000
    7.9984   -1.7853   -0.3770 F   0  0  0  0  0  0  0  0  0  0  0  0
   -0.2421   -0.8093    0.2590 O   0  0  0  0  0  0  0  0  0  0  0  0
   -1.5684    2.4886   -0.2611 O   0  0  0  0  0  0  0  0  0  0  0  0
    3.0557    2.1305   -0.4398 O   0  0  0  0  0  0  0  0  0  0  0  0
   -3.7242    0.2278    0.0824 N   0  0  0  0  0  0  0  0  0  0  0  0
    2.2222    0.4901    0.9735 N   0  0  0  0  0  0  0  0  0  0  0  0
   -6.7228   -1.6464   -0.1100 N   0  0  0  0  0  0  0  0  0  0  0  0
   -8.1332    0.0493    0.1490 N   0  0  0  0  0  0  0  0  0  0  0  0
   -2.3280    0.1691   -0.3187 C   0  0  1  0  0  0  0  0  0  0  0  0
   -1.4578    1.2175    0.3494 C   0  0  1  0  0  0  0  0  0  0  0  0
   -0.0727    0.6144    0.1579 C   0  0  1  0  0  0  0  0  0  0  0  0
   -1.6406   -1.1145    0.1172 C   0  0  0  0  0  0  0  0  0  0  0  0
    0.9355    1.0860    1.1905 C   0  0  0  0  0  0  0  0  0  0  0  0
   -4.5627   -0.5544   -0.8181 C   0  0  0  0  0  0  0  0  0  0  0  0
   -6.0109   -0.5187   -0.4082 C   0  0  0  0  0  0  0  0  0  0  0  0
    3.1939    1.0695    0.1632 C   0  0  0  0  0  0  0  0  0  0  0  0
   -6.9024    0.5147   -0.2413 C   0  0  0  0  0  0  0  0  0  0  0  0
    4.4649    0.3136    0.0201 C   0  0  0  0  0  0  0  0  0  0  0  0
   -7.9910   -1.2556    0.2186 C   0  0  0  0  0  0  0  0  0  0  0  0
    5.2406    0.4651   -1.1294 C   0  0  0  0  0  0  0  0  0  0  0  0
    4.8830   -0.5470    1.0351 C   0  0  0  0  0  0  0  0  0  0  0  0
    6.4340   -0.2441   -1.2639 C   0  0  0  0  0  0  0  0  0  0  0  0
    6.0765   -1.2562    0.9006 C   0  0  0  0  0  0  0  0  0  0  0  0
    6.8520   -1.1048   -0.2489 C   0  0  0  0  0  0  0  0  0  0  0  0
   -2.2405    0.2978   -1.4069 H   0  0  0  0  0  0  0  0  0  0  0  0
   -1.7033    1.3141    1.4143 H   0  0  0  0  0  0  0  0  0  0  0  0
    0.3074    0.8272   -0.8500 H   0  0  0  0  0  0  0  0  0  0  0  0
   -1.9945   -1.4662    1.0932 H   0  0  0  0  0  0  0  0  0  0  0  0
   -1.7621   -1.9261   -0.6065 H   0  0  0  0  0  0  0  0  0  0  0  0
    0.6244    0.7860    2.1972 H   0  0  0  0  0  0  0  0  0  0  0  0
    1.0311    2.1768    1.1671 H   0  0  0  0  0  0  0  0  0  0  0  0
   -4.0341    1.1998    0.0639 H   0  0  0  0  0  0  0  0  0  0  0  0
   -4.2276   -1.5985   -0.8411 H   0  0  0  0  0  0  0  0  0  0  0  0
   -4.4936   -0.1646   -1.8417 H   0  0  0  0  0  0  0  0  0  0  0  0
   -1.3508    2.3950   -1.2039 H   0  0  0  0  0  0  0  0  0  0  0  0
    2.3753   -0.4235    1.3866 H   0  0  0  0  0  0  0  0  0  0  0  0
   -6.3782   -2.5971   -0.1278 H   0  0  0  0  0  0  0  0  0  0  0  0
   -6.7233    1.5709   -0.3823 H   0  0  0  0  0  0  0  0  0  0  0  0
   -8.7566   -1.9656    0.4970 H   0  0  0  0  0  0  0  0  0  0  0  0
    4.9299    1.1274   -1.9332 H   0  0  0  0  0  0  0  0  0  0  0  0
    4.3254   -0.6703    1.9586 H   0  0  0  0  0  0  0  0  0  0  0  0
    7.0378   -0.1272   -2.1590 H   0  0  0  0  0  0  0  0  0  0  0  0
    6.4063   -1.9212    1.6933 H   0  0  0  0  0  0  0  0  0  0  0  0
  1 24  1  0  0  0  0
  2 11  1  0  0  0  0
  2 12  1  0  0  0  0
  3 10  1  0  0  0  0
  3 35  1  0  0  0  0
  4 16  2  0  0  0  0
  5  9  1  0  0  0  0
  5 14  1  0  0  0  0
  5 32  1  0  0  0  0
  6 13  1  0  0  0  0
  6 16  1  0  0  0  0
  6 36  1  0  0  0  0
  7 15  1  0  0  0  0
  7 19  1  0  0  0  0
  7 37  1  0  0  0  0
  8 17  1  0  0  0  0
  8 19  2  0  0  0  0
  9 10  1  0  0  0  0
  9 12  1  0  0  0  0
  9 25  1  0  0  0  0
 10 11  1  0  0  0  0
 10 26  1  0  0  0  0
 11 13  1  0  0  0  0
 11 27  1  0  0  0  0
 12 28  1  0  0  0  0
 12 29  1  0  0  0  0
 13 30  1  0  0  0  0
 13 31  1  0  0  0  0
 14 15  1  0  0  0  0
 14 33  1  0  0  0  0
 14 34  1  0  0  0  0
 15 17  2  0  0  0  0
 16 18  1  0  0  0  0
 17 38  1  0  0  0  0
 18 20  2  0  0  0  0
 18 21  1  0  0  0  0
 19 39  1  0  0  0  0
 20 22  1  0  0  0  0
 20 40  1  0  0  0  0
 21 23  2  0  0  0  0
 21 41  1  0  0  0  0
 22 24  2  0  0  0  0
 22 42  1  0  0  0  0
 23 24  1  0  0  0  0
 23 43  1  0  0  0  0
M  END
> <PUBCHEM_COMPOUND_CID>
86769005

> <PUBCHEM_CONFORMER_RMSD>
1

> <PUBCHEM_CONFORMER_DIVERSEORDER>
1
42
7
105
41
107
36
125
91
3
75
16
27
21
37
85
44
45
137
153
96
89
40
67
58
106
66
136
121
94
12
13
129
78
5
87
72
59
133
128
60
22
65
118
140
100
99
63
43
113
32
131
111
35
11
47
62
108
56
120
18
39
38
138
97
147
17
55
24
145
130
115
80
25
6
98
150
53
68
69
146
77
93
126
29
54
4
71
84
135
79
103
142
123
149
101
10
152
82
34
124
20
57
110
14
2
9
70
143
23
46
134
30
151
61
141
52
114
122
19
127
76
49
26
132
86
119
15
112
88
95
64
148
109
90
31
28
116
102
139
104
8
74
50
117
51
83
48
81
92
144
73
33

> <PUBCHEM_MMFF94_PARTIAL_CHARGES>
34
1 -0.19
10 0.28
11 0.28
12 0.28
13 0.3
14 0.45
15 -0.33
16 0.54
17 0.08
18 0.09
19 0.04
2 -0.56
20 -0.15
21 -0.15
22 -0.15
23 -0.15
24 0.19
3 -0.68
32 0.36
35 0.4
36 0.37
37 0.27
38 0.15
39 0.15
4 -0.57
40 0.15
41 0.15
42 0.15
43 0.15
5 -0.9
6 -0.73
7 0.03
8 -0.57
9 0.27

> <PUBCHEM_EFFECTIVE_ROTOR_COUNT>
8

> <PUBCHEM_PHARMACOPHORE_FEATURES>
12
1 2 acceptor
1 3 acceptor
1 3 donor
1 4 acceptor
1 5 cation
1 5 donor
1 6 donor
1 7 donor
3 7 8 19 cation
5 2 9 10 11 12 rings
5 7 8 15 17 19 rings
6 18 20 21 22 23 24 rings

> <PUBCHEM_HEAVY_ATOM_COUNT>
24

> <PUBCHEM_ATOM_DEF_STEREO_COUNT>
3

> <PUBCHEM_ATOM_UDEF_STEREO_COUNT>
0

> <PUBCHEM_BOND_DEF_STEREO_COUNT>
0

> <PUBCHEM_BOND_UDEF_STEREO_COUNT>
0

> <PUBCHEM_ISOTOPIC_ATOM_COUNT>
0

> <PUBCHEM_COMPONENT_COUNT>
1

> <PUBCHEM_CACTVS_TAUTO_COUNT>
4

> <PUBCHEM_CONFORMER_ID>
052BFD6D00000001

> <PUBCHEM_MMFF94_ENERGY>
43.0669

> <PUBCHEM_FEATURE_SELFOVERLAP>
60.897

> <PUBCHEM_SHAPE_FINGERPRINT>
10 15 11167940264467201302
10299344 5 18261111872583745051
11524674 6 17132112472712218095
11638347 137 13758081783577866236
12166972 35 17967252018083072157
125118 31 9727364536434333875
12592606 108 18343580772295487231
13533116 47 17749381538512921586
13668630 136 18411136922663303214
13673619 4 18202562877930413433
13685833 64 18060419118824570440
13885169 127 18130790023481944081
14216079 64 18131071515343001326
14251752 14 18412542102976849733
14251764 18 17632298990330117336
14251764 46 18040154016224686562
14294032 229 18120376463025380013
14347424 109 16773792632198364632
14856354 85 18040155146049115791
15183329 4 18260550013056060488
15849732 13 15502376738128787595
2026 5 17986114016347991526
21095086 128 18410011070629062615
21150785 3 16660363679476369415
21267235 1 18409730664392047641
21344244 246 18042122064682275858
21781051 124 18336553810277436523
221357 26 17095239216382096052
22224240 67 10231755586896676877
22956985 138 17626960681944155462
23035841 295 18410571804094158803
23522609 53 18196120847867386649
23559900 14 18337387270340424584
246663 6 18411702088782925979
28498 318 18201718436099356727
3004659 81 18408321099259867680
328311 84 18412266164276261147
34797466 226 15936128564442127566
4107672 100 17967807203410725581
4340502 62 13973969804870142796
444769 64 17917706920877289231
5758199 1 11097848572051475909
59682541 52 16081369614835770074
59755656 215 18272652329043136391
59755656 520 18040710403373673419
6438161 24 18334288756890481882

> <PUBCHEM_SHAPE_MULTIPOLES>
449.1
25.09
1.68
0.98
16.3
0.4
0.01
-12.58
3.3
-0.52
0
-1.22
0.01
-0.2

> <PUBCHEM_SHAPE_SELFOVERLAP>
954.683

> <PUBCHEM_SHAPE_VOLUME>
252.6

> <PUBCHEM_COORDINATE_TYPE>
2
5
10

$$$$
