28962585
  -OEChem-12032416283D

 72 75  0     1  0  0  0  0  0999 V2000
    1.3122    0.9038   -1.7225 O   0  0  0  0  0  0  0  0  0  0  0  0
    5.5778   -1.8265   -0.3972 O   0  0  0  0  0  0  0  0  0  0  0  0
   -4.5803    1.3260    1.7755 O   0  0  0  0  0  0  0  0  0  0  0  0
   -3.6984   -0.0279    0.1127 N   0  0  0  0  0  0  0  0  0  0  0  0
    5.7672    0.4888   -0.4405 N   0  0  0  0  0  0  0  0  0  0  0  0
    0.2357   -1.5224    1.0217 C   0  0  1  0  0  0  0  0  0  0  0  0
    0.1481   -0.2977    0.0513 C   0  0  2  0  0  0  0  0  0  0  0  0
   -1.3016   -0.1523   -0.5358 C   0  0  1  0  0  0  0  0  0  0  0  0
    1.2950   -0.3281   -0.9997 C   0  0  2  0  0  0  0  0  0  0  0  0
    1.6406   -1.5695    1.6676 C   0  0  0  0  0  0  0  0  0  0  0  0
    2.6911   -0.4801   -0.3521 C   0  0  1  0  0  0  0  0  0  0  0  0
   -0.7983   -1.3412    2.1569 C   0  0  0  0  0  0  0  0  0  0  0  0
   -2.3408   -0.0464    0.6156 C   0  0  2  0  0  0  0  0  0  0  0  0
    2.7643   -1.6390    0.6420 C   0  0  0  0  0  0  0  0  0  0  0  0
   -2.2217   -1.1684    1.6467 C   0  0  0  0  0  0  0  0  0  0  0  0
   -0.0269   -2.8699    0.3027 C   0  0  0  0  0  0  0  0  0  0  0  0
    3.7932   -0.6394   -1.4067 C   0  0  2  0  0  0  0  0  0  0  0  0
   -1.4665    1.0520   -1.4782 C   0  0  0  0  0  0  0  0  0  0  0  0
    3.5709   -1.8831   -2.2478 C   0  0  0  0  0  0  0  0  0  0  0  0
    5.1248   -0.7206   -0.7038 C   0  0  0  0  0  0  0  0  0  0  0  0
   -4.7135    0.6675    0.7472 C   0  0  0  0  0  0  0  0  0  0  0  0
    7.0634    0.4925    0.2410 C   0  0  0  0  0  0  0  0  0  0  0  0
    5.2746    1.8154   -0.8321 C   0  0  0  0  0  0  0  0  0  0  0  0
    7.0313    1.3976    1.4696 C   0  0  0  0  0  0  0  0  0  0  0  0
    5.2092    2.7473    0.3760 C   0  0  0  0  0  0  0  0  0  0  0  0
   -6.0562    0.5649    0.1199 C   0  0  0  0  0  0  0  0  0  0  0  0
    6.5487    2.8016    1.1091 C   0  0  0  0  0  0  0  0  0  0  0  0
   -7.2036    0.7136    0.8988 C   0  0  0  0  0  0  0  0  0  0  0  0
   -6.1692    0.3214   -1.2488 C   0  0  0  0  0  0  0  0  0  0  0  0
   -8.4642    0.6187    0.3092 C   0  0  0  0  0  0  0  0  0  0  0  0
   -7.4296    0.2264   -1.8386 C   0  0  0  0  0  0  0  0  0  0  0  0
   -8.5772    0.3750   -1.0597 C   0  0  0  0  0  0  0  0  0  0  0  0
    0.3122    0.6110    0.6526 H   0  0  0  0  0  0  0  0  0  0  0  0
   -1.5323   -1.0424   -1.1349 H   0  0  0  0  0  0  0  0  0  0  0  0
    1.0792   -1.1224   -1.7172 H   0  0  0  0  0  0  0  0  0  0  0  0
    1.7189   -2.4296    2.3450 H   0  0  0  0  0  0  0  0  0  0  0  0
    1.7906   -0.6765    2.2894 H   0  0  0  0  0  0  0  0  0  0  0  0
    2.8946    0.4417    0.2113 H   0  0  0  0  0  0  0  0  0  0  0  0
   -0.5363   -0.4594    2.7569 H   0  0  0  0  0  0  0  0  0  0  0  0
   -0.7652   -2.1982    2.8416 H   0  0  0  0  0  0  0  0  0  0  0  0
   -2.1672    0.9045    1.1383 H   0  0  0  0  0  0  0  0  0  0  0  0
    3.7005   -1.6069    1.2104 H   0  0  0  0  0  0  0  0  0  0  0  0
    2.7282   -2.6181    0.1605 H   0  0  0  0  0  0  0  0  0  0  0  0
   -2.5871   -2.1118    1.2229 H   0  0  0  0  0  0  0  0  0  0  0  0
   -2.8797   -0.9600    2.5003 H   0  0  0  0  0  0  0  0  0  0  0  0
   -1.0351   -2.9395   -0.1137 H   0  0  0  0  0  0  0  0  0  0  0  0
    0.0879   -3.7075    1.0008 H   0  0  0  0  0  0  0  0  0  0  0  0
    0.6633   -3.0428   -0.5277 H   0  0  0  0  0  0  0  0  0  0  0  0
    3.7831    0.1804   -2.1268 H   0  0  0  0  0  0  0  0  0  0  0  0
   -1.0978    1.9729   -1.0148 H   0  0  0  0  0  0  0  0  0  0  0  0
   -2.5135    1.2158   -1.7532 H   0  0  0  0  0  0  0  0  0  0  0  0
   -0.9398    0.8893   -2.4226 H   0  0  0  0  0  0  0  0  0  0  0  0
   -3.9062   -0.6430   -0.6670 H   0  0  0  0  0  0  0  0  0  0  0  0
    1.4619    1.6248   -1.0874 H   0  0  0  0  0  0  0  0  0  0  0  0
    3.5448   -2.8192   -1.6850 H   0  0  0  0  0  0  0  0  0  0  0  0
    4.4010   -1.9931   -2.9583 H   0  0  0  0  0  0  0  0  0  0  0  0
    2.6662   -1.8224   -2.8584 H   0  0  0  0  0  0  0  0  0  0  0  0
    7.3514   -0.5211    0.5372 H   0  0  0  0  0  0  0  0  0  0  0  0
    7.8101    0.8485   -0.4786 H   0  0  0  0  0  0  0  0  0  0  0  0
    5.9725    2.2097   -1.5803 H   0  0  0  0  0  0  0  0  0  0  0  0
    4.2878    1.8019   -1.2894 H   0  0  0  0  0  0  0  0  0  0  0  0
    8.0280    1.4501    1.9208 H   0  0  0  0  0  0  0  0  0  0  0  0
    6.3561    0.9679    2.2203 H   0  0  0  0  0  0  0  0  0  0  0  0
    4.4355    2.3930    1.0686 H   0  0  0  0  0  0  0  0  0  0  0  0
    4.9208    3.7544    0.0550 H   0  0  0  0  0  0  0  0  0  0  0  0
    6.4515    3.4065    2.0175 H   0  0  0  0  0  0  0  0  0  0  0  0
    7.2946    3.2930    0.4725 H   0  0  0  0  0  0  0  0  0  0  0  0
   -7.1365    0.8997    1.9675 H   0  0  0  0  0  0  0  0  0  0  0  0
   -5.3022    0.2308   -1.8966 H   0  0  0  0  0  0  0  0  0  0  0  0
   -9.3578    0.7338    0.9157 H   0  0  0  0  0  0  0  0  0  0  0  0
   -7.5182    0.0440   -2.9056 H   0  0  0  0  0  0  0  0  0  0  0  0
   -9.5586    0.3026   -1.5192 H   0  0  0  0  0  0  0  0  0  0  0  0
  1  9  1  0  0  0  0
  1 54  1  0  0  0  0
  2 20  2  0  0  0  0
  3 21  2  0  0  0  0
  4 13  1  0  0  0  0
  4 21  1  0  0  0  0
  4 53  1  0  0  0  0
  5 20  1  0  0  0  0
  5 22  1  0  0  0  0
  5 23  1  0  0  0  0
  6  7  1  0  0  0  0
  6 10  1  0  0  0  0
  6 12  1  0  0  0  0
  6 16  1  0  0  0  0
  7  8  1  0  0  0  0
  7  9  1  0  0  0  0
  7 33  1  0  0  0  0
  8 13  1  0  0  0  0
  8 18  1  0  0  0  0
  8 34  1  0  0  0  0
  9 11  1  0  0  0  0
  9 35  1  0  0  0  0
 10 14  1  0  0  0  0
 10 36  1  0  0  0  0
 10 37  1  0  0  0  0
 11 14  1  0  0  0  0
 11 17  1  0  0  0  0
 11 38  1  0  0  0  0
 12 15  1  0  0  0  0
 12 39  1  0  0  0  0
 12 40  1  0  0  0  0
 13 15  1  0  0  0  0
 13 41  1  0  0  0  0
 14 42  1  0  0  0  0
 14 43  1  0  0  0  0
 15 44  1  0  0  0  0
 15 45  1  0  0  0  0
 16 46  1  0  0  0  0
 16 47  1  0  0  0  0
 16 48  1  0  0  0  0
 17 19  1  0  0  0  0
 17 20  1  0  0  0  0
 17 49  1  0  0  0  0
 18 50  1  0  0  0  0
 18 51  1  0  0  0  0
 18 52  1  0  0  0  0
 19 55  1  0  0  0  0
 19 56  1  0  0  0  0
 19 57  1  0  0  0  0
 21 26  1  0  0  0  0
 22 24  1  0  0  0  0
 22 58  1  0  0  0  0
 22 59  1  0  0  0  0
 23 25  1  0  0  0  0
 23 60  1  0  0  0  0
 23 61  1  0  0  0  0
 24 27  1  0  0  0  0
 24 62  1  0  0  0  0
 24 63  1  0  0  0  0
 25 27  1  0  0  0  0
 25 64  1  0  0  0  0
 25 65  1  0  0  0  0
 26 28  2  0  0  0  0
 26 29  1  0  0  0  0
 27 66  1  0  0  0  0
 27 67  1  0  0  0  0
 28 30  1  0  0  0  0
 28 68  1  0  0  0  0
 29 31  2  0  0  0  0
 29 69  1  0  0  0  0
 30 32  2  0  0  0  0
 30 70  1  0  0  0  0
 31 32  1  0  0  0  0
 31 71  1  0  0  0  0
 32 72  1  0  0  0  0
M  END
> <PUBCHEM_COMPOUND_CID>
28962585

> <PUBCHEM_CONFORMER_RMSD>
1

> <PUBCHEM_CONFORMER_DIVERSEORDER>
1
19
15
26
7
12
16
11
13
23
9
21
3
25
4
20
27
22
5
24
2
10
8
6
14
18
17

> <PUBCHEM_MMFF94_PARTIAL_CHARGES>
25
1 -0.68
13 0.3
17 0.06
2 -0.57
20 0.57
21 0.54
22 0.3
23 0.3
26 0.09
28 -0.15
29 -0.15
3 -0.57
30 -0.15
31 -0.15
32 -0.15
4 -0.73
5 -0.66
53 0.37
54 0.4
68 0.15
69 0.15
70 0.15
71 0.15
72 0.15
9 0.28

> <PUBCHEM_EFFECTIVE_ROTOR_COUNT>
8.8

> <PUBCHEM_PHARMACOPHORE_FEATURES>
10
1 1 acceptor
1 1 donor
1 19 hydrophobe
1 2 acceptor
1 3 acceptor
1 4 donor
6 26 28 29 30 31 32 rings
6 5 22 23 24 25 27 rings
6 6 7 8 12 13 15 rings
6 6 7 9 10 11 14 rings

> <PUBCHEM_HEAVY_ATOM_COUNT>
32

> <PUBCHEM_ATOM_DEF_STEREO_COUNT>
7

> <PUBCHEM_ATOM_UDEF_STEREO_COUNT>
0

> <PUBCHEM_BOND_DEF_STEREO_COUNT>
0

> <PUBCHEM_BOND_UDEF_STEREO_COUNT>
0

> <PUBCHEM_ISOTOPIC_ATOM_COUNT>
0

> <PUBCHEM_COMPONENT_COUNT>
1

> <PUBCHEM_CACTVS_TAUTO_COUNT>
2

> <PUBCHEM_CONFORMER_ID>
01B9EF1900000001

> <PUBCHEM_MMFF94_ENERGY>
92.331

> <PUBCHEM_FEATURE_SELFOVERLAP>
50.761

> <PUBCHEM_SHAPE_FINGERPRINT>
10 15 16732987548173378092
10076449 9 10735881685854596394
10533779 1 17843111766031288072
10591671 39 15051738585695490333
10673678 19 17489590108366100044
11719270 70 16515405144554763091
11963148 33 14261343618672595517
12422481 6 17022620901367840602
12838862 33 17603574245328915269
13165053 68 17557973220305989279
13383668 254 18201736063515884121
13617811 41 13830136100729885512
13673619 4 9079124345270671122
13782708 43 15195275388501665279
14347424 109 13767931238841223406
15082195 135 16845575344435197002
15183329 4 16272211885847602977
15669420 48 12751237026435834504
15840311 113 18341897380895200796
16994733 274 18060138717658704305
19301679 30 14129879403312569448
20157964 124 18202569466963574566
20511986 3 17967808358408787811
20554085 129 17821723944490114056
20771845 171 16056892307872919516
21033648 29 18115306808656752824
21150785 3 17132114649832939585
21403212 168 17894342293937920848
21521721 280 18413672409235269035
21792934 111 17095793335191386953
21859007 373 17023173929625276629
22224240 67 18259703402388683259
23516275 100 18340484581986443760
23522609 53 16414662409282671019
24771293 8 18041558164960203188
25269216 80 13398361199852902240
3004659 81 14692566611518756827
335352 9 17313396607935424022
34797466 226 18130794425664841999
4093350 32 18272653424243621974
4098825 35 17346601833698605633
4258327 124 17775005755561020412
445580 167 17918269862040204797
44880568 143 17774169985507363921
4760202 170 18411408506827171637
5265222 85 16630238203916720751
57527293 21 17677603350232171500

> <PUBCHEM_SHAPE_MULTIPOLES>
630.97
23.7
2.3
1.89
26.51
0.06
0.11
14.24
1.61
-4.47
-0.57
0.17
-0.3
1.68

> <PUBCHEM_SHAPE_SELFOVERLAP>
1324.48

> <PUBCHEM_SHAPE_VOLUME>
351.2

> <PUBCHEM_COORDINATE_TYPE>
2
5
10

$$$$
