75536937
  -OEChem-12032416333D

 43 44  0     1  0  0  0  0  0999 V2000
    3.2325    2.2552    0.3501 O   0  0  0  0  0  0  0  0  0  0  0  0
    4.9477   -0.6054   -1.0031 O   0  0  0  0  0  0  0  0  0  0  0  0
    1.4448   -0.2979    0.2415 N   0  0  2  0  0  0  0  0  0  0  0  0
   -4.8916    0.3047   -0.3862 N   0  0  0  0  0  0  0  0  0  0  0  0
    2.7269   -0.9011   -0.1388 C   0  0  0  0  0  0  0  0  0  0  0  0
    3.9668    0.0066   -0.1645 C   0  0  2  0  0  0  0  0  0  0  0  0
    1.5429    0.7170    1.2916 C   0  0  0  0  0  0  0  0  0  0  0  0
    0.4824   -1.3424    0.5941 C   0  0  0  0  0  0  0  0  0  0  0  0
    3.7064    1.4107   -0.6934 C   0  0  0  0  0  0  0  0  0  0  0  0
    1.8601    2.0789    0.6726 C   0  0  0  0  0  0  0  0  0  0  0  0
   -0.9359   -0.9083    0.3356 C   0  0  0  0  0  0  0  0  0  0  0  0
   -1.8600   -0.8852    1.3804 C   0  0  0  0  0  0  0  0  0  0  0  0
   -1.3257   -0.5285   -0.9487 C   0  0  0  0  0  0  0  0  0  0  0  0
   -3.5634   -0.1030   -0.1438 C   0  0  0  0  0  0  0  0  0  0  0  0
   -3.1737   -0.4827    1.1407 C   0  0  0  0  0  0  0  0  0  0  0  0
   -2.6395   -0.1259   -1.1884 C   0  0  0  0  0  0  0  0  0  0  0  0
    5.6429   -1.6338   -0.3163 C   0  0  0  0  0  0  0  0  0  0  0  0
   -5.8593    0.3326    0.6924 C   0  0  0  0  0  0  0  0  0  0  0  0
   -5.3044    0.7083   -1.7158 C   0  0  0  0  0  0  0  0  0  0  0  0
    2.6033   -1.3600   -1.1292 H   0  0  0  0  0  0  0  0  0  0  0  0
    2.9517   -1.7321    0.5443 H   0  0  0  0  0  0  0  0  0  0  0  0
    4.3624    0.1047    0.8563 H   0  0  0  0  0  0  0  0  0  0  0  0
    2.2749    0.4372    2.0588 H   0  0  0  0  0  0  0  0  0  0  0  0
    0.5798    0.8340    1.8029 H   0  0  0  0  0  0  0  0  0  0  0  0
    0.6225   -1.6766    1.6309 H   0  0  0  0  0  0  0  0  0  0  0  0
    0.6356   -2.2365   -0.0275 H   0  0  0  0  0  0  0  0  0  0  0  0
    4.6477    1.8487   -1.0452 H   0  0  0  0  0  0  0  0  0  0  0  0
    3.0247    1.4187   -1.5527 H   0  0  0  0  0  0  0  0  0  0  0  0
    1.2388    2.2842   -0.2083 H   0  0  0  0  0  0  0  0  0  0  0  0
    1.6189    2.8548    1.4081 H   0  0  0  0  0  0  0  0  0  0  0  0
   -1.5692   -1.1774    2.3859 H   0  0  0  0  0  0  0  0  0  0  0  0
   -0.6179   -0.5464   -1.7734 H   0  0  0  0  0  0  0  0  0  0  0  0
   -3.8543   -0.4816    1.9863 H   0  0  0  0  0  0  0  0  0  0  0  0
   -2.8933    0.1588   -2.2046 H   0  0  0  0  0  0  0  0  0  0  0  0
    6.1323   -1.2452    0.5824 H   0  0  0  0  0  0  0  0  0  0  0  0
    6.4192   -2.0194   -0.9835 H   0  0  0  0  0  0  0  0  0  0  0  0
    4.9801   -2.4646   -0.0601 H   0  0  0  0  0  0  0  0  0  0  0  0
   -6.8431    0.6677    0.3452 H   0  0  0  0  0  0  0  0  0  0  0  0
   -5.5534    1.0296    1.4806 H   0  0  0  0  0  0  0  0  0  0  0  0
   -6.0043   -0.6656    1.1204 H   0  0  0  0  0  0  0  0  0  0  0  0
   -6.3608    0.9982   -1.7412 H   0  0  0  0  0  0  0  0  0  0  0  0
   -5.1900   -0.1128   -2.4322 H   0  0  0  0  0  0  0  0  0  0  0  0
   -4.7346    1.5786   -2.0601 H   0  0  0  0  0  0  0  0  0  0  0  0
  1  9  1  0  0  0  0
  1 10  1  0  0  0  0
  2  6  1  0  0  0  0
  2 17  1  0  0  0  0
  3  5  1  0  0  0  0
  3  7  1  0  0  0  0
  3  8  1  0  0  0  0
  4 14  1  0  0  0  0
  4 18  1  0  0  0  0
  4 19  1  0  0  0  0
  5  6  1  0  0  0  0
  5 20  1  0  0  0  0
  5 21  1  0  0  0  0
  6  9  1  0  0  0  0
  6 22  1  0  0  0  0
  7 10  1  0  0  0  0
  7 23  1  0  0  0  0
  7 24  1  0  0  0  0
  8 11  1  0  0  0  0
  8 25  1  0  0  0  0
  8 26  1  0  0  0  0
  9 27  1  0  0  0  0
  9 28  1  0  0  0  0
 10 29  1  0  0  0  0
 10 30  1  0  0  0  0
 11 12  2  0  0  0  0
 11 13  1  0  0  0  0
 12 15  1  0  0  0  0
 12 31  1  0  0  0  0
 13 16  2  0  0  0  0
 13 32  1  0  0  0  0
 14 15  2  0  0  0  0
 14 16  1  0  0  0  0
 15 33  1  0  0  0  0
 16 34  1  0  0  0  0
 17 35  1  0  0  0  0
 17 36  1  0  0  0  0
 17 37  1  0  0  0  0
 18 38  1  0  0  0  0
 18 39  1  0  0  0  0
 18 40  1  0  0  0  0
 19 41  1  0  0  0  0
 19 42  1  0  0  0  0
 19 43  1  0  0  0  0
M  END
> <PUBCHEM_COMPOUND_CID>
75536937

> <PUBCHEM_CONFORMER_RMSD>
0.8

> <PUBCHEM_CONFORMER_DIVERSEORDER>
2
33
28
23
19
13
3
8
25
20
30
5
21
31
1
6
27
24
11
29
32
15
26
10
17
22
16
7
12
18
4
14
9

> <PUBCHEM_MMFF94_PARTIAL_CHARGES>
23
1 -0.56
10 0.28
11 -0.14
12 -0.15
13 -0.15
14 0.1
15 -0.15
16 -0.15
17 0.28
18 0.37
19 0.37
2 -0.56
3 -0.81
31 0.15
32 0.15
33 0.15
34 0.15
4 -0.84
5 0.27
6 0.28
7 0.27
8 0.41
9 0.28

> <PUBCHEM_EFFECTIVE_ROTOR_COUNT>
5.4

> <PUBCHEM_PHARMACOPHORE_FEATURES>
6
1 1 acceptor
1 2 acceptor
1 3 cation
1 4 cation
6 11 12 13 14 15 16 rings
7 1 3 5 6 7 9 10 rings

> <PUBCHEM_HEAVY_ATOM_COUNT>
19

> <PUBCHEM_ATOM_DEF_STEREO_COUNT>
1

> <PUBCHEM_ATOM_UDEF_STEREO_COUNT>
0

> <PUBCHEM_BOND_DEF_STEREO_COUNT>
0

> <PUBCHEM_BOND_UDEF_STEREO_COUNT>
0

> <PUBCHEM_ISOTOPIC_ATOM_COUNT>
0

> <PUBCHEM_COMPONENT_COUNT>
1

> <PUBCHEM_CACTVS_TAUTO_COUNT>
1

> <PUBCHEM_CONFORMER_ID>
04809A2900000002

> <PUBCHEM_MMFF94_ENERGY>
73.5862

> <PUBCHEM_FEATURE_SELFOVERLAP>
30.447

> <PUBCHEM_SHAPE_FINGERPRINT>
10670039 82 17240759532424717628
11471102 20 18341615936442047296
12236239 1 17275102825378712663
12363563 72 12607130668026787467
12403259 415 17968093127682916661
12616971 3 17561369500086648449
12730499 353 18260271849736973267
12969540 114 18114445830585325199
13134695 92 18131070463529895696
14251751 18 13973955528530518413
14251752 14 17131835318403657977
14252887 29 9655582928314643972
14341114 328 13551189996040995537
14787075 74 12829491458700807901
14848160 23 12607408775601523076
15183329 4 17704077282829460997
15242439 84 18186523198156759186
17834072 8 18408611348907407686
18186145 218 18336818775267329683
18222031 100 17775292630192414862
18335252 114 18130218269236170133
192875 21 17489873747431224360
19784866 170 16443347546701889307
19862831 5 17417811776932339219
200 152 17418374692552434995
20374829 77 14117795821777841463
20612939 158 18342461465205433808
20645477 56 17821449049978592499
20645477 70 18272097119095393062
21033648 29 17895185619572949581
21503847 285 16588030142812229180
221357 26 18411695457137396605
22224240 67 8286188428097074382
22289505 5 18337384950894281764
23253445 4 9151170960939478855
23402539 116 15123786258843936569
23402655 69 18201720699367961880
23557571 272 17458638830031945283
23559900 14 17530963557765666930
2838139 119 18201156543278433953
3004659 81 15841554102091698264
3009799 131 18409446973860935266
347723 3 17775286032189107978
3545911 37 17749113279319372219
542803 24 14273455872748853351
633830 44 18188200009060188198
6442390 28 17385726932354275035
67856867 119 15697419148634232818
9971528 1 17989483022673799272

> <PUBCHEM_SHAPE_MULTIPOLES>
369.31
12.73
1.65
1.33
3.08
0.68
0.08
0.49
3.41
-2.2
-0.24
1.04
0.1
1.07

> <PUBCHEM_SHAPE_SELFOVERLAP>
751.335

> <PUBCHEM_SHAPE_VOLUME>
214.6

> <PUBCHEM_COORDINATE_TYPE>
2
5
10

$$$$
