26743740
  -OEChem-12032416213D

 50 53  0     1  0  0  0  0  0999 V2000
    6.9610   -0.0830    1.3349 F   0  0  0  0  0  0  0  0  0  0  0  0
    5.4115   -0.8955    0.0255 F   0  0  0  0  0  0  0  0  0  0  0  0
    6.6930    0.7698   -0.6592 F   0  0  0  0  0  0  0  0  0  0  0  0
   -6.2934    2.5471    1.2309 O   0  0  0  0  0  0  0  0  0  0  0  0
   -1.8787    1.2071   -2.1162 O   0  0  0  0  0  0  0  0  0  0  0  0
    5.1251    1.1740    0.9562 O   0  0  0  0  0  0  0  0  0  0  0  0
   -3.9598   -0.0899    0.6216 N   0  0  1  0  0  0  0  0  0  0  0  0
   -1.2032    0.8707   -0.0074 N   0  0  0  0  0  0  0  0  0  0  0  0
   -0.4822    1.3141   -2.1328 N   0  0  0  0  0  0  0  0  0  0  0  0
   -3.6987    0.7824   -0.5414 C   0  0  1  0  0  0  0  0  0  0  0  0
   -4.3895    2.1150   -0.1970 C   0  0  0  0  0  0  0  0  0  0  0  0
   -5.0489    1.8794    1.1561 C   0  0  2  0  0  0  0  0  0  0  0  0
   -5.2141    0.3726    1.2127 C   0  0  0  0  0  0  0  0  0  0  0  0
   -4.0040   -1.5055    0.2794 C   0  0  0  0  0  0  0  0  0  0  0  0
   -2.2208    0.9457   -0.8274 C   0  0  0  0  0  0  0  0  0  0  0  0
   -2.6243   -2.0908    0.1349 C   0  0  0  0  0  0  0  0  0  0  0  0
   -2.2392   -2.6792   -1.0698 C   0  0  0  0  0  0  0  0  0  0  0  0
   -1.7323   -2.0472    1.2066 C   0  0  0  0  0  0  0  0  0  0  0  0
   -0.1583    1.1035   -0.8535 C   0  0  0  0  0  0  0  0  0  0  0  0
   -0.9621   -3.2240   -1.2028 C   0  0  0  0  0  0  0  0  0  0  0  0
   -0.4552   -2.5921    1.0734 C   0  0  0  0  0  0  0  0  0  0  0  0
   -0.0700   -3.1803   -0.1313 C   0  0  0  0  0  0  0  0  0  0  0  0
    1.1985    1.1204   -0.3882 C   0  0  0  0  0  0  0  0  0  0  0  0
    1.2954   -3.7634   -0.2740 C   0  0  0  0  0  0  0  0  0  0  0  0
    1.4770    0.8953    0.9599 C   0  0  0  0  0  0  0  0  0  0  0  0
    2.2394    1.3633   -1.2843 C   0  0  0  0  0  0  0  0  0  0  0  0
    2.7963    0.9134    1.4120 C   0  0  0  0  0  0  0  0  0  0  0  0
    3.5589    1.3815   -0.8323 C   0  0  0  0  0  0  0  0  0  0  0  0
    3.8373    1.1565    0.5158 C   0  0  0  0  0  0  0  0  0  0  0  0
    6.0413    0.2392    0.3973 C   0  0  0  0  0  0  0  0  0  0  0  0
   -4.1842    0.3825   -1.4428 H   0  0  0  0  0  0  0  0  0  0  0  0
   -3.6955    2.9614   -0.1387 H   0  0  0  0  0  0  0  0  0  0  0  0
   -5.1389    2.3620   -0.9594 H   0  0  0  0  0  0  0  0  0  0  0  0
   -4.4023    2.2308    1.9695 H   0  0  0  0  0  0  0  0  0  0  0  0
   -5.3399    0.0252    2.2435 H   0  0  0  0  0  0  0  0  0  0  0  0
   -6.0934    0.0539    0.6373 H   0  0  0  0  0  0  0  0  0  0  0  0
   -4.6154   -1.6890   -0.6138 H   0  0  0  0  0  0  0  0  0  0  0  0
   -4.4893   -2.0697    1.0884 H   0  0  0  0  0  0  0  0  0  0  0  0
   -6.1227    3.4972    1.1125 H   0  0  0  0  0  0  0  0  0  0  0  0
   -2.9230   -2.7184   -1.9133 H   0  0  0  0  0  0  0  0  0  0  0  0
   -2.0192   -1.5962    2.1528 H   0  0  0  0  0  0  0  0  0  0  0  0
   -0.6732   -3.6771   -2.1474 H   0  0  0  0  0  0  0  0  0  0  0  0
    0.2319   -2.5504    1.9143 H   0  0  0  0  0  0  0  0  0  0  0  0
    2.0047   -2.9866   -0.5769 H   0  0  0  0  0  0  0  0  0  0  0  0
    1.6354   -4.2021    0.6702 H   0  0  0  0  0  0  0  0  0  0  0  0
    1.3108   -4.5624   -1.0229 H   0  0  0  0  0  0  0  0  0  0  0  0
    0.6879    0.7030    1.6826 H   0  0  0  0  0  0  0  0  0  0  0  0
    2.0610    1.5442   -2.3413 H   0  0  0  0  0  0  0  0  0  0  0  0
    3.0075    0.7367    2.4631 H   0  0  0  0  0  0  0  0  0  0  0  0
    4.3598    1.5788   -1.5395 H   0  0  0  0  0  0  0  0  0  0  0  0
  1 30  1  0  0  0  0
  2 30  1  0  0  0  0
  3 30  1  0  0  0  0
  4 12  1  0  0  0  0
  4 39  1  0  0  0  0
  5  9  1  0  0  0  0
  5 15  1  0  0  0  0
  6 29  1  0  0  0  0
  6 30  1  0  0  0  0
  7 10  1  0  0  0  0
  7 13  1  0  0  0  0
  7 14  1  0  0  0  0
  8 15  2  0  0  0  0
  8 19  1  0  0  0  0
  9 19  2  0  0  0  0
 10 11  1  0  0  0  0
 10 15  1  0  0  0  0
 10 31  1  0  0  0  0
 11 12  1  0  0  0  0
 11 32  1  0  0  0  0
 11 33  1  0  0  0  0
 12 13  1  0  0  0  0
 12 34  1  0  0  0  0
 13 35  1  0  0  0  0
 13 36  1  0  0  0  0
 14 16  1  0  0  0  0
 14 37  1  0  0  0  0
 14 38  1  0  0  0  0
 16 17  2  0  0  0  0
 16 18  1  0  0  0  0
 17 20  1  0  0  0  0
 17 40  1  0  0  0  0
 18 21  2  0  0  0  0
 18 41  1  0  0  0  0
 19 23  1  0  0  0  0
 20 22  2  0  0  0  0
 20 42  1  0  0  0  0
 21 22  1  0  0  0  0
 21 43  1  0  0  0  0
 22 24  1  0  0  0  0
 23 25  2  0  0  0  0
 23 26  1  0  0  0  0
 24 44  1  0  0  0  0
 24 45  1  0  0  0  0
 24 46  1  0  0  0  0
 25 27  1  0  0  0  0
 25 47  1  0  0  0  0
 26 28  2  0  0  0  0
 26 48  1  0  0  0  0
 27 29  2  0  0  0  0
 27 49  1  0  0  0  0
 28 29  1  0  0  0  0
 28 50  1  0  0  0  0
M  END
> <PUBCHEM_COMPOUND_CID>
26743740

> <PUBCHEM_CONFORMER_RMSD>
0.8

> <PUBCHEM_CONFORMER_DIVERSEORDER>
1
31
40
11
4
97
164
100
84
108
24
92
111
140
146
154
104
145
128
131
113
27
110
162
50
64
153
35
47
125
166
132
66
82
160
163
28
12
149
86
94
101
155
127
51
52
7
61
137
147
87
20
48
60
75
74
2
42
99
158
165
41
8
156
3
54
85
130
63
78
68
115
5
119
102
91
105
134
121
44
106
98
22
150
73
32
16
14
45
122
49
159
148
112
39
62
167
136
135
90
59
124
89
141
109
123
80
15
30
10
53
139
114
129
116
120
9
117
25
157
151
56
142
77
79
144
103
161
126
38
17
26
34
133
33
143
43
29
118
69
21
36
13
37
83
138
46
67
88
81
19
95
55
58
93
107
6
23
18
96
152
71
72
65
57
76
70
168

> <PUBCHEM_MMFF94_PARTIAL_CHARGES>
38
1 -0.34
10 0.45
12 0.28
13 0.27
14 0.41
15 0.3
16 -0.14
17 -0.15
18 -0.15
19 0.46
2 -0.34
20 -0.15
21 -0.15
22 -0.14
23 0.05
24 0.14
25 -0.15
26 -0.15
27 -0.15
28 -0.15
29 0.08
3 -0.34
30 1.3
39 0.4
4 -0.68
40 0.15
41 0.15
42 0.15
43 0.15
47 0.15
48 0.15
49 0.15
5 -0.02
50 0.15
6 -0.36
7 -0.81
8 -0.57
9 -0.41

> <PUBCHEM_EFFECTIVE_ROTOR_COUNT>
7

> <PUBCHEM_PHARMACOPHORE_FEATURES>
9
1 4 acceptor
1 4 donor
1 6 acceptor
1 7 cation
3 8 9 19 cation
5 5 8 9 15 19 rings
5 7 10 11 12 13 rings
6 16 17 18 20 21 22 rings
6 23 25 26 27 28 29 rings

> <PUBCHEM_HEAVY_ATOM_COUNT>
30

> <PUBCHEM_ATOM_DEF_STEREO_COUNT>
2

> <PUBCHEM_ATOM_UDEF_STEREO_COUNT>
0

> <PUBCHEM_BOND_DEF_STEREO_COUNT>
0

> <PUBCHEM_BOND_UDEF_STEREO_COUNT>
0

> <PUBCHEM_ISOTOPIC_ATOM_COUNT>
0

> <PUBCHEM_COMPONENT_COUNT>
1

> <PUBCHEM_CACTVS_TAUTO_COUNT>
1

> <PUBCHEM_CONFORMER_ID>
019813BC00000001

> <PUBCHEM_MMFF94_ENERGY>
72.3

> <PUBCHEM_FEATURE_SELFOVERLAP>
45.672

> <PUBCHEM_SHAPE_FINGERPRINT>
11014199 57 17470164130153245938
11112241 14 17632571660871699758
11370993 144 18271521013504195824
11524674 6 18272929427632710990
12156800 1 14495600197044885443
12293681 4 17846786229708695832
12422481 6 18187646864511887594
12522641 33 17824521013016807677
12597179 24 18131357392497627991
12633257 1 18410577331089769557
12788726 201 17906465672797595983
13004483 165 17267499926402064767
13402501 40 18410014312902213766
14840074 17 17676487271786529860
15021287 119 17458622345973967060
15064986 96 18337397015858577035
15274700 242 17096346463614990728
15420108 30 18342173337472399727
15537594 2 17603578626037529216
16110190 28 18113621226702456068
19438510 23 17130726980802965577
20554085 129 18130217165323924649
20642791 35 18124323713762707327
20691752 17 17676497103689765943
21403212 168 18335700499708354001
22182313 1 17605836911705460285
23516275 137 18191609475145296114
23559900 14 18129122102939239852
23728640 28 18193279813353394531
338550 245 18261395572469683294
3411729 13 18265339400551189849
4093350 32 17274546404108170502
4112364 45 17268380244727454521
4340502 62 18343027653020812501
469060 322 12469198089504987481
508706 21 18340773753359003902
5265222 85 18267035032191181484
5385378 56 18269004089901975593
59755656 520 18271801320344650149
7064713 232 18409167744403267993
7226269 152 17989210343120678824
9862522 239 18260536823897394221

> <PUBCHEM_SHAPE_MULTIPOLES>
563.01
13.23
3.79
1.53
14.6
4.15
0.29
-8.21
-5.23
-2.82
0.37
-0.25
-0.37
-0.67

> <PUBCHEM_SHAPE_SELFOVERLAP>
1225.853

> <PUBCHEM_SHAPE_VOLUME>
310

> <PUBCHEM_COORDINATE_TYPE>
2
5
10

$$$$
