7049502
  -OEChem-12032416133D

 74 75  0     1  0  0  0  0  0999 V2000
   -4.6775   -0.6799    0.3145 O   0  0  0  0  0  0  0  0  0  0  0  0
   -1.9989    0.3415   -0.9125 O   0  0  0  0  0  0  0  0  0  0  0  0
    2.5188   -1.1954    1.8655 O   0  0  0  0  0  0  0  0  0  0  0  0
    1.2679    2.4306   -0.0541 O   0  0  0  0  0  0  0  0  0  0  0  0
    7.1106   -0.5989    0.9626 O   0  0  0  0  0  0  0  0  0  0  0  0
   -2.5784   -1.3049    1.0635 N   0  0  0  0  0  0  0  0  0  0  0  0
    0.5561   -1.3584    0.6540 N   0  0  0  0  0  0  0  0  0  0  0  0
   -1.4030    2.0972    0.4952 N   0  0  0  0  0  0  0  0  0  0  0  0
    2.5337   -1.0574   -0.4780 N   0  0  0  0  0  0  0  0  0  0  0  0
    0.6940    2.9623   -2.2135 N   0  0  0  0  0  0  0  0  0  0  0  0
   -2.1421    0.0289    1.4498 C   0  0  1  0  0  0  0  0  0  0  0  0
   -0.3253   -1.5289    1.7818 C   0  0  1  0  0  0  0  0  0  0  0  0
   -0.8790   -0.1909    2.2794 C   0  0  0  0  0  0  0  0  0  0  0  0
   -1.5783   -2.3150    1.4088 C   0  0  0  0  0  0  0  0  0  0  0  0
   -3.8593   -1.5573    0.5961 C   0  0  0  0  0  0  0  0  0  0  0  0
   -1.8547    0.8201    0.2093 C   0  0  0  0  0  0  0  0  0  0  0  0
   -4.2158   -3.0128    0.4278 C   0  0  0  0  0  0  0  0  0  0  0  0
   -4.5359   -3.3851   -1.0310 C   0  0  0  0  0  0  0  0  0  0  0  0
   -1.0347    3.0522   -0.5249 C   0  0  1  0  0  0  0  0  0  0  0  0
   -4.8479   -4.8852   -1.1660 C   0  0  0  0  0  0  0  0  0  0  0  0
   -5.7230   -2.5659   -1.5657 C   0  0  0  0  0  0  0  0  0  0  0  0
   -3.2940   -3.0633   -1.8835 C   0  0  0  0  0  0  0  0  0  0  0  0
   -1.2224    4.5015   -0.0593 C   0  0  0  0  0  0  0  0  0  0  0  0
    1.9424   -1.2010    0.7804 C   0  0  0  0  0  0  0  0  0  0  0  0
   -2.6565    5.0488   -0.2096 C   0  0  0  0  0  0  0  0  0  0  0  0
    0.4254    2.7941   -0.8714 C   0  0  0  0  0  0  0  0  0  0  0  0
   -2.6993    6.5139    0.2333 C   0  0  0  0  0  0  0  0  0  0  0  0
   -3.6764    4.2388    0.5919 C   0  0  0  0  0  0  0  0  0  0  0  0
    3.9041   -0.8770   -0.7775 C   0  0  0  0  0  0  0  0  0  0  0  0
    4.8428   -0.8262    0.2530 C   0  0  0  0  0  0  0  0  0  0  0  0
    4.3170   -0.7497   -2.1038 C   0  0  0  0  0  0  0  0  0  0  0  0
    6.1942   -0.6483   -0.0428 C   0  0  0  0  0  0  0  0  0  0  0  0
    5.6685   -0.5716   -2.3997 C   0  0  0  0  0  0  0  0  0  0  0  0
    6.6070   -0.5210   -1.3690 C   0  0  0  0  0  0  0  0  0  0  0  0
    6.6201   -0.7357    2.2954 C   0  0  0  0  0  0  0  0  0  0  0  0
   -2.9322    0.5346    2.0165 H   0  0  0  0  0  0  0  0  0  0  0  0
    0.2338   -2.0408    2.5725 H   0  0  0  0  0  0  0  0  0  0  0  0
   -1.1710   -0.3062    3.3315 H   0  0  0  0  0  0  0  0  0  0  0  0
   -0.1421    0.6162    2.2299 H   0  0  0  0  0  0  0  0  0  0  0  0
   -1.9569   -2.8642    2.2784 H   0  0  0  0  0  0  0  0  0  0  0  0
   -1.4190   -3.0097    0.5796 H   0  0  0  0  0  0  0  0  0  0  0  0
   -5.1033   -3.1848    1.0524 H   0  0  0  0  0  0  0  0  0  0  0  0
   -3.4623   -3.6956    0.8237 H   0  0  0  0  0  0  0  0  0  0  0  0
    0.1469   -1.2868   -0.2727 H   0  0  0  0  0  0  0  0  0  0  0  0
   -1.2935    2.3763    1.4658 H   0  0  0  0  0  0  0  0  0  0  0  0
   -1.6469    2.8591   -1.4145 H   0  0  0  0  0  0  0  0  0  0  0  0
   -4.0104   -5.4965   -0.8117 H   0  0  0  0  0  0  0  0  0  0  0  0
   -5.7305   -5.1538   -0.5749 H   0  0  0  0  0  0  0  0  0  0  0  0
   -5.0449   -5.1618   -2.2078 H   0  0  0  0  0  0  0  0  0  0  0  0
   -6.0682   -2.9698   -2.5254 H   0  0  0  0  0  0  0  0  0  0  0  0
   -6.5726   -2.6009   -0.8749 H   0  0  0  0  0  0  0  0  0  0  0  0
   -5.4691   -1.5190   -1.7549 H   0  0  0  0  0  0  0  0  0  0  0  0
   -3.4554   -3.3587   -2.9272 H   0  0  0  0  0  0  0  0  0  0  0  0
   -3.0553   -1.9955   -1.8916 H   0  0  0  0  0  0  0  0  0  0  0  0
   -2.4129   -3.6072   -1.5261 H   0  0  0  0  0  0  0  0  0  0  0  0
   -0.5592    5.1507   -0.6474 H   0  0  0  0  0  0  0  0  0  0  0  0
   -0.8932    4.6058    0.9835 H   0  0  0  0  0  0  0  0  0  0  0  0
   -2.9399    5.0075   -1.2688 H   0  0  0  0  0  0  0  0  0  0  0  0
    1.9102   -1.0845   -1.2809 H   0  0  0  0  0  0  0  0  0  0  0  0
   -2.4351    6.6177    1.2912 H   0  0  0  0  0  0  0  0  0  0  0  0
   -3.7005    6.9345    0.0911 H   0  0  0  0  0  0  0  0  0  0  0  0
   -1.9989    7.1184   -0.3526 H   0  0  0  0  0  0  0  0  0  0  0  0
   -3.3782    4.1467    1.6416 H   0  0  0  0  0  0  0  0  0  0  0  0
   -3.8036    3.2350    0.1765 H   0  0  0  0  0  0  0  0  0  0  0  0
   -4.6606    4.7192    0.5636 H   0  0  0  0  0  0  0  0  0  0  0  0
    1.6269    2.8056   -2.5805 H   0  0  0  0  0  0  0  0  0  0  0  0
   -0.0122    3.2595   -2.8792 H   0  0  0  0  0  0  0  0  0  0  0  0
    4.5311   -0.9236    1.2767 H   0  0  0  0  0  0  0  0  0  0  0  0
    3.5957   -0.7870   -2.9161 H   0  0  0  0  0  0  0  0  0  0  0  0
    5.9899   -0.4724   -3.4323 H   0  0  0  0  0  0  0  0  0  0  0  0
    7.6584   -0.3822   -1.6055 H   0  0  0  0  0  0  0  0  0  0  0  0
    5.9509    0.0880    2.5669 H   0  0  0  0  0  0  0  0  0  0  0  0
    6.1654   -1.7186    2.4604 H   0  0  0  0  0  0  0  0  0  0  0  0
    7.4854   -0.6724    2.9636 H   0  0  0  0  0  0  0  0  0  0  0  0
  1 15  2  0  0  0  0
  2 16  2  0  0  0  0
  3 24  2  0  0  0  0
  4 26  2  0  0  0  0
  5 32  1  0  0  0  0
  5 35  1  0  0  0  0
  6 11  1  0  0  0  0
  6 14  1  0  0  0  0
  6 15  1  0  0  0  0
  7 12  1  0  0  0  0
  7 24  1  0  0  0  0
  7 44  1  0  0  0  0
  8 16  1  0  0  0  0
  8 19  1  0  0  0  0
  8 45  1  0  0  0  0
  9 24  1  0  0  0  0
  9 29  1  0  0  0  0
  9 59  1  0  0  0  0
 10 26  1  0  0  0  0
 10 66  1  0  0  0  0
 10 67  1  0  0  0  0
 11 13  1  0  0  0  0
 11 16  1  0  0  0  0
 11 36  1  0  0  0  0
 12 13  1  0  0  0  0
 12 14  1  0  0  0  0
 12 37  1  0  0  0  0
 13 38  1  0  0  0  0
 13 39  1  0  0  0  0
 14 40  1  0  0  0  0
 14 41  1  0  0  0  0
 15 17  1  0  0  0  0
 17 18  1  0  0  0  0
 17 42  1  0  0  0  0
 17 43  1  0  0  0  0
 18 20  1  0  0  0  0
 18 21  1  0  0  0  0
 18 22  1  0  0  0  0
 19 23  1  0  0  0  0
 19 26  1  0  0  0  0
 19 46  1  0  0  0  0
 20 47  1  0  0  0  0
 20 48  1  0  0  0  0
 20 49  1  0  0  0  0
 21 50  1  0  0  0  0
 21 51  1  0  0  0  0
 21 52  1  0  0  0  0
 22 53  1  0  0  0  0
 22 54  1  0  0  0  0
 22 55  1  0  0  0  0
 23 25  1  0  0  0  0
 23 56  1  0  0  0  0
 23 57  1  0  0  0  0
 25 27  1  0  0  0  0
 25 28  1  0  0  0  0
 25 58  1  0  0  0  0
 27 60  1  0  0  0  0
 27 61  1  0  0  0  0
 27 62  1  0  0  0  0
 28 63  1  0  0  0  0
 28 64  1  0  0  0  0
 28 65  1  0  0  0  0
 29 30  2  0  0  0  0
 29 31  1  0  0  0  0
 30 32  1  0  0  0  0
 30 68  1  0  0  0  0
 31 33  2  0  0  0  0
 31 69  1  0  0  0  0
 32 34  2  0  0  0  0
 33 34  1  0  0  0  0
 33 70  1  0  0  0  0
 34 71  1  0  0  0  0
 35 72  1  0  0  0  0
 35 73  1  0  0  0  0
 35 74  1  0  0  0  0
M  END
> <PUBCHEM_COMPOUND_CID>
7049502

> <PUBCHEM_CONFORMER_RMSD>
1.2

> <PUBCHEM_CONFORMER_DIVERSEORDER>
1
17
11
12
14
22
49
63
38
52
43
58
46
36
20
35
10
66
44
60
57
13
54
56
5
26
61
45
30
40
34
64
15
41
33
4
6
25
32
55
48
39
18
8
62
28
59
42
29
51
19
7
37
23
9
50
47
24
16
65
27
31
21
3
2
53

> <PUBCHEM_MMFF94_PARTIAL_CHARGES>
35
1 -0.57
10 -0.8
11 0.36
12 0.3
14 0.3
15 0.57
16 0.57
17 0.06
19 0.36
2 -0.57
24 0.69
26 0.57
29 0.12
3 -0.57
30 -0.15
31 -0.15
32 0.08
33 -0.15
34 -0.15
35 0.28
4 -0.57
44 0.37
45 0.37
5 -0.36
59 0.37
6 -0.66
66 0.37
67 0.37
68 0.15
69 0.15
7 -0.73
70 0.15
71 0.15
8 -0.73
9 -0.55

> <PUBCHEM_EFFECTIVE_ROTOR_COUNT>
15

> <PUBCHEM_PHARMACOPHORE_FEATURES>
13
1 1 acceptor
1 10 donor
1 2 acceptor
1 3 acceptor
1 4 acceptor
1 5 acceptor
1 7 donor
1 8 donor
1 9 donor
3 25 27 28 hydrophobe
4 18 20 21 22 hydrophobe
5 6 11 12 13 14 rings
6 29 30 31 32 33 34 rings

> <PUBCHEM_HEAVY_ATOM_COUNT>
35

> <PUBCHEM_ATOM_DEF_STEREO_COUNT>
3

> <PUBCHEM_ATOM_UDEF_STEREO_COUNT>
0

> <PUBCHEM_BOND_DEF_STEREO_COUNT>
0

> <PUBCHEM_BOND_UDEF_STEREO_COUNT>
0

> <PUBCHEM_ISOTOPIC_ATOM_COUNT>
0

> <PUBCHEM_COMPONENT_COUNT>
1

> <PUBCHEM_CACTVS_TAUTO_COUNT>
12

> <PUBCHEM_CONFORMER_ID>
006B911E00000001

> <PUBCHEM_MMFF94_ENERGY>
103.2788

> <PUBCHEM_FEATURE_SELFOVERLAP>
66.025

> <PUBCHEM_SHAPE_FINGERPRINT>
11477941 20 18340778129993403884
12522641 68 17978791207748169701
12788726 201 18334576789907453835
13757389 114 18341339882041358593
13782708 43 17917716803581641286
14068700 675 18335699485304573868
14294032 229 18339932493481574176
14556957 393 18186516609634872422
14790565 3 17686068197073958148
14910302 57 18130238055818278238
15131766 46 15289069308938690884
15198563 99 18413108360113014613
15444296 8 18272093803201339069
15968369 153 18263667162828582656
16992727 255 17823119160901423303
17686467 74 18270400633279097362
21344244 246 17835521896248448942
23929065 36 18338782451832800568
249057 3 18412829118873075767
3388396 114 17975718373744822164
3882209 13 18264478654371286804
4280585 95 18339071704789886779
44249763 50 18272365322475401416
469060 322 18342747350771231694
5219985 13 17832149325062199161
6700243 42 18201176381278382342

> <PUBCHEM_SHAPE_MULTIPOLES>
666.03
14.61
7.36
2.15
25.29
12.71
-0.04
-13.06
-3.04
-16.56
-2
1.9
-1.19
-2.19

> <PUBCHEM_SHAPE_SELFOVERLAP>
1366.005

> <PUBCHEM_SHAPE_VOLUME>
384.2

> <PUBCHEM_COORDINATE_TYPE>
2
5
10

$$$$
