11884093
  -OEChem-12032416163D

 59 62  0     1  0  0  0  0  0999 V2000
   -0.6247   -1.5776   -0.9421 O   0  0  0  0  0  0  0  0  0  0  0  0
   -1.7066   -3.8973    0.7467 O   0  0  0  0  0  0  0  0  0  0  0  0
    1.6214   -2.6557    0.2822 O   0  0  0  0  0  0  0  0  0  0  0  0
   -5.3697   -1.1723   -1.4302 O   0  0  0  0  0  0  0  0  0  0  0  0
    1.8653   -0.5934    1.2398 O   0  0  0  0  0  0  0  0  0  0  0  0
   -3.5294   -0.8205   -0.0633 N   0  0  0  0  0  0  0  0  0  0  0  0
    3.5006   -1.4942   -0.1724 N   0  0  0  0  0  0  0  0  0  0  0  0
   -1.9618   -2.4781    0.7970 C   0  0  1  0  0  0  0  0  0  0  0  0
   -0.6521   -1.7847    0.4800 C   0  0  1  0  0  0  0  0  0  0  0  0
   -2.8705   -2.0736   -0.3403 C   0  0  2  0  0  0  0  0  0  0  0  0
    0.3714   -2.8052    0.9166 C   0  0  1  0  0  0  0  0  0  0  0  0
   -1.8971   -1.9419   -1.4990 C   0  0  0  0  0  0  0  0  0  0  0  0
   -0.3009   -4.1088    0.5493 C   0  0  0  0  0  0  0  0  0  0  0  0
   -4.7420   -0.4712   -0.6410 C   0  0  0  0  0  0  0  0  0  0  0  0
    2.3040   -1.4802    0.5176 C   0  0  0  0  0  0  0  0  0  0  0  0
   -5.2766    0.8653   -0.2736 C   0  0  0  0  0  0  0  0  0  0  0  0
   -4.9251    1.4114    0.9435 C   0  0  0  0  0  0  0  0  0  0  0  0
   -6.1086    1.5170   -1.1601 C   0  0  0  0  0  0  0  0  0  0  0  0
    4.4967   -0.4920   -0.2078 C   0  0  0  0  0  0  0  0  0  0  0  0
   -5.4284    2.6655    1.2897 C   0  0  0  0  0  0  0  0  0  0  0  0
   -6.6118    2.7711   -0.8139 C   0  0  0  0  0  0  0  0  0  0  0  0
   -6.2716    3.3454    0.4110 C   0  0  0  0  0  0  0  0  0  0  0  0
    5.6381   -0.6957   -0.9669 C   0  0  0  0  0  0  0  0  0  0  0  0
    4.3128    0.6746    0.5171 C   0  0  0  0  0  0  0  0  0  0  0  0
    6.4502    1.4727   -0.2776 C   0  0  0  0  0  0  0  0  0  0  0  0
    7.5013    2.5303   -0.3151 C   0  0  0  0  0  0  0  0  0  0  0  0
    6.6214    0.2932   -1.0020 C   0  0  0  0  0  0  0  0  0  0  0  0
    5.2958    1.6635    0.4819 C   0  0  0  0  0  0  0  0  0  0  0  0
    6.9866    3.8510   -0.9179 C   0  0  0  0  0  0  0  0  0  0  0  0
    8.1201    2.7946    1.0707 C   0  0  0  0  0  0  0  0  0  0  0  0
   -6.8089    4.6868    0.7800 C   0  0  0  0  0  0  0  0  0  0  0  0
   -2.3474   -2.2451    1.7947 H   0  0  0  0  0  0  0  0  0  0  0  0
   -0.5645   -0.8072    0.9614 H   0  0  0  0  0  0  0  0  0  0  0  0
   -3.6305   -2.8290   -0.5674 H   0  0  0  0  0  0  0  0  0  0  0  0
    0.4963   -2.7716    2.0074 H   0  0  0  0  0  0  0  0  0  0  0  0
   -2.1918   -1.1969   -2.2444 H   0  0  0  0  0  0  0  0  0  0  0  0
   -1.7627   -2.9029   -2.0077 H   0  0  0  0  0  0  0  0  0  0  0  0
    0.0362   -4.9410    1.1746 H   0  0  0  0  0  0  0  0  0  0  0  0
   -0.1278   -4.3867   -0.4964 H   0  0  0  0  0  0  0  0  0  0  0  0
   -3.0137   -0.1437    0.4893 H   0  0  0  0  0  0  0  0  0  0  0  0
    3.6907   -2.3275   -0.7239 H   0  0  0  0  0  0  0  0  0  0  0  0
   -4.3002    0.9008    1.6688 H   0  0  0  0  0  0  0  0  0  0  0  0
   -6.3787    1.0863   -2.1195 H   0  0  0  0  0  0  0  0  0  0  0  0
   -5.1608    3.1003    2.2491 H   0  0  0  0  0  0  0  0  0  0  0  0
   -7.2655    3.2924   -1.5083 H   0  0  0  0  0  0  0  0  0  0  0  0
    5.7813   -1.6108   -1.5349 H   0  0  0  0  0  0  0  0  0  0  0  0
    3.4479    0.8936    1.1263 H   0  0  0  0  0  0  0  0  0  0  0  0
    8.3219    2.1919   -0.9625 H   0  0  0  0  0  0  0  0  0  0  0  0
    7.5144    0.1283   -1.5989 H   0  0  0  0  0  0  0  0  0  0  0  0
    5.1428    2.5750    1.0534 H   0  0  0  0  0  0  0  0  0  0  0  0
    6.2116    4.3110   -0.2954 H   0  0  0  0  0  0  0  0  0  0  0  0
    7.8053    4.5719   -1.0178 H   0  0  0  0  0  0  0  0  0  0  0  0
    6.5618    3.6844   -1.9141 H   0  0  0  0  0  0  0  0  0  0  0  0
    8.5109    1.8679    1.5053 H   0  0  0  0  0  0  0  0  0  0  0  0
    8.9503    3.5048    0.9910 H   0  0  0  0  0  0  0  0  0  0  0  0
    7.3903    3.2126    1.7723 H   0  0  0  0  0  0  0  0  0  0  0  0
   -7.7960    4.8530    0.3353 H   0  0  0  0  0  0  0  0  0  0  0  0
   -6.9269    4.7806    1.8649 H   0  0  0  0  0  0  0  0  0  0  0  0
   -6.1305    5.4720    0.4318 H   0  0  0  0  0  0  0  0  0  0  0  0
  1  9  1  0  0  0  0
  1 12  1  0  0  0  0
  2  8  1  0  0  0  0
  2 13  1  0  0  0  0
  3 11  1  0  0  0  0
  3 15  1  0  0  0  0
  4 14  2  0  0  0  0
  5 15  2  0  0  0  0
  6 10  1  0  0  0  0
  6 14  1  0  0  0  0
  6 40  1  0  0  0  0
  7 15  1  0  0  0  0
  7 19  1  0  0  0  0
  7 41  1  0  0  0  0
  8  9  1  0  0  0  0
  8 10  1  0  0  0  0
  8 32  1  0  0  0  0
  9 11  1  0  0  0  0
  9 33  1  0  0  0  0
 10 12  1  0  0  0  0
 10 34  1  0  0  0  0
 11 13  1  0  0  0  0
 11 35  1  0  0  0  0
 12 36  1  0  0  0  0
 12 37  1  0  0  0  0
 13 38  1  0  0  0  0
 13 39  1  0  0  0  0
 14 16  1  0  0  0  0
 16 17  2  0  0  0  0
 16 18  1  0  0  0  0
 17 20  1  0  0  0  0
 17 42  1  0  0  0  0
 18 21  2  0  0  0  0
 18 43  1  0  0  0  0
 19 23  2  0  0  0  0
 19 24  1  0  0  0  0
 20 22  2  0  0  0  0
 20 44  1  0  0  0  0
 21 22  1  0  0  0  0
 21 45  1  0  0  0  0
 22 31  1  0  0  0  0
 23 27  1  0  0  0  0
 23 46  1  0  0  0  0
 24 28  2  0  0  0  0
 24 47  1  0  0  0  0
 25 26  1  0  0  0  0
 25 27  2  0  0  0  0
 25 28  1  0  0  0  0
 26 29  1  0  0  0  0
 26 30  1  0  0  0  0
 26 48  1  0  0  0  0
 27 49  1  0  0  0  0
 28 50  1  0  0  0  0
 29 51  1  0  0  0  0
 29 52  1  0  0  0  0
 29 53  1  0  0  0  0
 30 54  1  0  0  0  0
 30 55  1  0  0  0  0
 30 56  1  0  0  0  0
 31 57  1  0  0  0  0
 31 58  1  0  0  0  0
 31 59  1  0  0  0  0
M  END
> <PUBCHEM_COMPOUND_CID>
11884093

> <PUBCHEM_CONFORMER_RMSD>
1

> <PUBCHEM_CONFORMER_DIVERSEORDER>
1
16
18
22
21
25
8
41
7
35
12
31
40
30
33
29
26
23
17
34
5
36
38
2
27
10
37
6
19
4
24
15
11
28
39
13
32
9
3
14
20

> <PUBCHEM_MMFF94_PARTIAL_CHARGES>
39
1 -0.56
10 0.3
11 0.28
12 0.28
13 0.28
14 0.54
15 0.78
16 0.09
17 -0.15
18 -0.15
19 0.12
2 -0.56
20 -0.15
21 -0.15
22 -0.14
23 -0.15
24 -0.15
25 -0.14
26 0.14
27 -0.15
28 -0.15
3 -0.43
31 0.14
4 -0.57
40 0.37
41 0.37
42 0.15
43 0.15
44 0.15
45 0.15
46 0.15
47 0.15
49 0.15
5 -0.57
50 0.15
6 -0.73
7 -0.55
8 0.28
9 0.28

> <PUBCHEM_EFFECTIVE_ROTOR_COUNT>
9.2

> <PUBCHEM_PHARMACOPHORE_FEATURES>
11
1 1 acceptor
1 2 acceptor
1 4 acceptor
1 5 acceptor
1 6 donor
1 7 donor
3 26 29 30 hydrophobe
5 1 8 9 10 12 rings
5 2 8 9 11 13 rings
6 16 17 18 20 21 22 rings
6 19 23 24 25 27 28 rings

> <PUBCHEM_HEAVY_ATOM_COUNT>
31

> <PUBCHEM_ATOM_DEF_STEREO_COUNT>
4

> <PUBCHEM_ATOM_UDEF_STEREO_COUNT>
0

> <PUBCHEM_BOND_DEF_STEREO_COUNT>
0

> <PUBCHEM_BOND_UDEF_STEREO_COUNT>
0

> <PUBCHEM_ISOTOPIC_ATOM_COUNT>
0

> <PUBCHEM_COMPONENT_COUNT>
1

> <PUBCHEM_CACTVS_TAUTO_COUNT>
4

> <PUBCHEM_CONFORMER_ID>
00B5563D00000001

> <PUBCHEM_MMFF94_ENERGY>
92.33

> <PUBCHEM_FEATURE_SELFOVERLAP>
56.538

> <PUBCHEM_SHAPE_FINGERPRINT>
10055352 69 18273215293010412849
10280341 67 18342161302979616784
10533779 1 18262784224974388021
10675989 125 18264772065347099050
10883706 163 18040989687405406412
10917259 128 18340750625482049464
11135609 201 18409454674648068555
11181472 205 18186801431789298924
11475781 23 18343305886251925348
11476731 99 18130778023460299760
11621639 254 18270676602012880127
1200032 147 18114466665102367642
12013929 29 18412267207848254364
12124843 1 17917425385402102261
12895837 130 18341894155290462998
13690498 29 17487890331835476359
13782708 43 8646498397204130462
13944108 23 18053664676866037040
14026016 13 18341337691619146553
14150022 121 18043541701617974219
14251764 75 18335703797652445899
14394314 77 18409170978725496181
14664723 55 18410860940686422997
15064981 113 17203336581080188926
15131766 46 18263631872142198797
15152005 304 9727340376932843781
15183329 4 17561085804068767138
15198563 99 17842541123543032647
155225 6 18267305331568639961
15803439 3 16989123166804192798
15950262 2 18342461447772344702
15980000 95 17328583921706500218
16067689 134 18338245881384687236
16126227 98 18409732880684765217
16992727 255 18413392038255603480
16993089 31 13398044554328541021
17492 89 9871751286918886706
19053607 189 18342446028797411184
19309040 13 18272650112898119031
19438510 23 18113337505051629354
20058555 10 18411981343151099505
2026 5 9583512110764424013
20691028 202 18408044009212781212
20775438 99 10733861848328711485
21136928 87 12186247328121322055
21223535 225 18271518801749175164
21298829 104 18408886243730977044
21424621 283 18409168813802768826
21774942 28 18412823617051384168
21792965 106 18122905602310903264
23191077 185 18339349842413945906
23522609 53 17314804103995674140
23569914 152 17556600763912949038
23569914 2 16591092111414417677
270888 7 18408319977751274307
2748736 6 18408034113481335600
2835820 40 18194964046235371001
2838139 119 18343299262537051383
32027 91 8862642583478703411
3918712 181 18337100190210210173
393628 179 18199453536762721080
393628 194 18335984254653842741
406291 66 9511455623952261245
4144715 1 18044387247703413938
4366758 26 18125447410652741969
437795 171 17900534576112839477
44802255 64 17489308654321096422
4516262 110 18335975369220166159
54583773 228 18339634548814531677
5776283 40 18342454880915516641
5874358 3 14189030904294352516
5937810 71 18131077051403261536
6036956 94 18125726674000772689
6289498 60 17894621574572335820
6328613 192 18412263943287831564
636775 72 18267018543696220000
636775 8 8429778114762452424
6376802 90 18339652251768067566
6673363 416 18198059394762525439
7970288 3 9871742494856424837

> <PUBCHEM_SHAPE_MULTIPOLES>
598.66
24.44
5.87
1.24
17.66
1.52
-0.11
37.43
-2.65
-4.42
1.33
-0.53
0.09
-1.37

> <PUBCHEM_SHAPE_SELFOVERLAP>
1290.329

> <PUBCHEM_SHAPE_VOLUME>
330.2

> <PUBCHEM_COORDINATE_TYPE>
2
5
10

$$$$
