38030303
  -OEChem-12032416373D

 66 69  0     1  0  0  0  0  0999 V2000
   -2.7987   -0.5072   -0.7549 O   0  0  0  0  0  0  0  0  0  0  0  0
    3.3736    0.8748   -0.5413 N   0  0  0  0  0  0  0  0  0  0  0  0
    4.9869    3.2520   -0.2176 N   0  0  0  0  0  0  0  0  0  0  0  0
   -3.3001   -2.3131    0.4664 N   0  0  0  0  0  0  0  0  0  0  0  0
   -4.1665   -1.2985    0.8285 N   0  0  0  0  0  0  0  0  0  0  0  0
    1.6296   -1.0716    0.7855 C   0  0  1  0  0  0  0  0  0  0  0  0
    2.6788   -1.4731   -0.2773 C   0  0  2  0  0  0  0  0  0  0  0  0
    0.2120   -1.1635    0.2036 C   0  0  0  0  0  0  0  0  0  0  0  0
   -0.1309   -2.5615   -0.3540 C   0  0  2  0  0  0  0  0  0  0  0  0
    1.7646   -1.9238    2.0548 C   0  0  0  0  0  0  0  0  0  0  0  0
    2.9575   -0.3292   -1.2577 C   0  0  0  0  0  0  0  0  0  0  0  0
    2.2774   -2.7027   -1.0515 C   0  0  0  0  0  0  0  0  0  0  0  0
    1.0319   -3.2112   -1.0888 C   0  0  0  0  0  0  0  0  0  0  0  0
   -1.3934   -2.4481   -1.2175 C   0  0  0  0  0  0  0  0  0  0  0  0
    3.1879   -1.8477    2.5979 C   0  0  0  0  0  0  0  0  0  0  0  0
    0.7586   -1.4720    3.1085 C   0  0  0  0  0  0  0  0  0  0  0  0
    4.7876    0.7895   -0.1556 C   0  0  0  0  0  0  0  0  0  0  0  0
    3.1361    2.0738   -1.3543 C   0  0  0  0  0  0  0  0  0  0  0  0
    0.7590   -4.4946   -1.8243 C   0  0  0  0  0  0  0  0  0  0  0  0
    5.2258    2.0524    0.5941 C   0  0  0  0  0  0  0  0  0  0  0  0
    3.5731    3.3366   -0.6040 C   0  0  0  0  0  0  0  0  0  0  0  0
   -2.5205   -1.8064   -0.4600 C   0  0  0  0  0  0  0  0  0  0  0  0
    5.4017    4.4557    0.5004 C   0  0  0  0  0  0  0  0  0  0  0  0
   -3.8371   -0.2641    0.0907 C   0  0  0  0  0  0  0  0  0  0  0  0
   -4.3925    1.0572    0.0389 C   0  0  0  0  0  0  0  0  0  0  0  0
   -3.6469    2.1063   -0.4989 C   0  0  0  0  0  0  0  0  0  0  0  0
   -5.6780    1.2932    0.5259 C   0  0  0  0  0  0  0  0  0  0  0  0
   -4.1869    3.3914   -0.5497 C   0  0  0  0  0  0  0  0  0  0  0  0
   -6.2181    2.5783    0.4749 C   0  0  0  0  0  0  0  0  0  0  0  0
   -5.4725    3.6274   -0.0627 C   0  0  0  0  0  0  0  0  0  0  0  0
    1.7833   -0.0292    1.0920 H   0  0  0  0  0  0  0  0  0  0  0  0
    3.6340   -1.7236    0.1855 H   0  0  0  0  0  0  0  0  0  0  0  0
    0.1358   -0.4256   -0.6076 H   0  0  0  0  0  0  0  0  0  0  0  0
   -0.5286   -0.8387    0.9408 H   0  0  0  0  0  0  0  0  0  0  0  0
   -0.3660   -3.2124    0.5004 H   0  0  0  0  0  0  0  0  0  0  0  0
    1.5617   -2.9803    1.8422 H   0  0  0  0  0  0  0  0  0  0  0  0
    2.0389   -0.1269   -1.8251 H   0  0  0  0  0  0  0  0  0  0  0  0
    3.7049   -0.6245   -2.0075 H   0  0  0  0  0  0  0  0  0  0  0  0
    3.0754   -3.2051   -1.5944 H   0  0  0  0  0  0  0  0  0  0  0  0
   -1.7363   -3.4397   -1.5356 H   0  0  0  0  0  0  0  0  0  0  0  0
   -1.1892   -1.8742   -2.1303 H   0  0  0  0  0  0  0  0  0  0  0  0
    3.5648   -0.8194    2.6131 H   0  0  0  0  0  0  0  0  0  0  0  0
    3.8841   -2.4749    2.0340 H   0  0  0  0  0  0  0  0  0  0  0  0
    3.2274   -2.2223    3.6276 H   0  0  0  0  0  0  0  0  0  0  0  0
    0.8084   -0.3912    3.2789 H   0  0  0  0  0  0  0  0  0  0  0  0
    0.9553   -1.9654    4.0672 H   0  0  0  0  0  0  0  0  0  0  0  0
   -0.2679   -1.7365    2.8382 H   0  0  0  0  0  0  0  0  0  0  0  0
    5.4274    0.6490   -1.0376 H   0  0  0  0  0  0  0  0  0  0  0  0
    4.9627   -0.0617    0.5102 H   0  0  0  0  0  0  0  0  0  0  0  0
    2.0664    2.1656   -1.5792 H   0  0  0  0  0  0  0  0  0  0  0  0
    3.6686    2.0081   -2.3129 H   0  0  0  0  0  0  0  0  0  0  0  0
    0.2431   -5.2049   -1.1700 H   0  0  0  0  0  0  0  0  0  0  0  0
    1.6804   -4.9778   -2.1669 H   0  0  0  0  0  0  0  0  0  0  0  0
    0.1377   -4.3111   -2.7062 H   0  0  0  0  0  0  0  0  0  0  0  0
    4.6931    2.1151    1.5529 H   0  0  0  0  0  0  0  0  0  0  0  0
    6.2956    1.9656    0.8202 H   0  0  0  0  0  0  0  0  0  0  0  0
    3.4201    4.1996   -1.2633 H   0  0  0  0  0  0  0  0  0  0  0  0
    2.9339    3.4813    0.2778 H   0  0  0  0  0  0  0  0  0  0  0  0
    5.2636    5.3437   -0.1264 H   0  0  0  0  0  0  0  0  0  0  0  0
    6.4683    4.4077    0.7468 H   0  0  0  0  0  0  0  0  0  0  0  0
    4.8391    4.5990    1.4301 H   0  0  0  0  0  0  0  0  0  0  0  0
   -2.6393    1.9577   -0.8797 H   0  0  0  0  0  0  0  0  0  0  0  0
   -6.2768    0.4894    0.9475 H   0  0  0  0  0  0  0  0  0  0  0  0
   -3.6060    4.2088   -0.9666 H   0  0  0  0  0  0  0  0  0  0  0  0
   -7.2193    2.7622    0.8537 H   0  0  0  0  0  0  0  0  0  0  0  0
   -5.8928    4.6281   -0.1020 H   0  0  0  0  0  0  0  0  0  0  0  0
  1 22  1  0  0  0  0
  1 24  1  0  0  0  0
  2 11  1  0  0  0  0
  2 17  1  0  0  0  0
  2 18  1  0  0  0  0
  3 20  1  0  0  0  0
  3 21  1  0  0  0  0
  3 23  1  0  0  0  0
  4  5  1  0  0  0  0
  4 22  2  0  0  0  0
  5 24  2  0  0  0  0
  6  7  1  0  0  0  0
  6  8  1  0  0  0  0
  6 10  1  0  0  0  0
  6 31  1  0  0  0  0
  7 11  1  0  0  0  0
  7 12  1  0  0  0  0
  7 32  1  0  0  0  0
  8  9  1  0  0  0  0
  8 33  1  0  0  0  0
  8 34  1  0  0  0  0
  9 13  1  0  0  0  0
  9 14  1  0  0  0  0
  9 35  1  0  0  0  0
 10 15  1  0  0  0  0
 10 16  1  0  0  0  0
 10 36  1  0  0  0  0
 11 37  1  0  0  0  0
 11 38  1  0  0  0  0
 12 13  2  0  0  0  0
 12 39  1  0  0  0  0
 13 19  1  0  0  0  0
 14 22  1  0  0  0  0
 14 40  1  0  0  0  0
 14 41  1  0  0  0  0
 15 42  1  0  0  0  0
 15 43  1  0  0  0  0
 15 44  1  0  0  0  0
 16 45  1  0  0  0  0
 16 46  1  0  0  0  0
 16 47  1  0  0  0  0
 17 20  1  0  0  0  0
 17 48  1  0  0  0  0
 17 49  1  0  0  0  0
 18 21  1  0  0  0  0
 18 50  1  0  0  0  0
 18 51  1  0  0  0  0
 19 52  1  0  0  0  0
 19 53  1  0  0  0  0
 19 54  1  0  0  0  0
 20 55  1  0  0  0  0
 20 56  1  0  0  0  0
 21 57  1  0  0  0  0
 21 58  1  0  0  0  0
 23 59  1  0  0  0  0
 23 60  1  0  0  0  0
 23 61  1  0  0  0  0
 24 25  1  0  0  0  0
 25 26  2  0  0  0  0
 25 27  1  0  0  0  0
 26 28  1  0  0  0  0
 26 62  1  0  0  0  0
 27 29  2  0  0  0  0
 27 63  1  0  0  0  0
 28 30  2  0  0  0  0
 28 64  1  0  0  0  0
 29 30  1  0  0  0  0
 29 65  1  0  0  0  0
 30 66  1  0  0  0  0
M  END
> <PUBCHEM_COMPOUND_CID>
38030303

> <PUBCHEM_CONFORMER_RMSD>
1

> <PUBCHEM_CONFORMER_DIVERSEORDER>
13
176
223
208
50
109
175
166
129
184
197
169
46
179
227
132
213
167
87
4
40
127
144
17
114
21
162
82
151
125
51
48
242
67
47
237
214
76
138
178
182
12
206
191
168
135
88
229
241
183
140
41
217
35
155
119
171
238
3
160
158
207
26
24
218
187
57
18
79
186
117
139
185
38
210
84
190
231
68
8
111
113
118
225
6
108
32
194
55
66
146
28
193
45
92
216
163
143
27
14
215
72
112
189
16
226
202
74
33
64
131
31
195
174
164
177
219
100
43
244
188
39
205
42
11
63
58
126
7
10
199
220
136
222
148
120
44
198
106
97
78
94
232
221
121
137
201
230
130
170
95
224
70
180
150
122
36
204
156
85
145
134
147
101
116
96
34
56
152
123
49
81
192
73
107
104
149
181
124
69
59
86
235
75
110
105
102
234
99
22
239
61
212
89
60
157
236
153
71
243
93
62
23
115
240
172
103
80
9
209
211
161
203
2
196
90
25
98
159
200
154
228
37
91
52
165
1
83
128
133
53
15
5
233
173
30
19
54
29
20
142
65
77
141

> <PUBCHEM_MMFF94_PARTIAL_CHARGES>
31
1 -0.28
11 0.27
12 -0.29
13 -0.28
14 0.18
17 0.27
18 0.27
19 0.14
2 -0.81
20 0.27
21 0.27
22 0.3
23 0.27
24 0.43
25 0.05
26 -0.15
27 -0.15
28 -0.15
29 -0.15
3 -0.81
30 -0.15
39 0.15
4 -0.34
5 -0.34
62 0.15
63 0.15
64 0.15
65 0.15
66 0.15
7 0.14
9 0.14

> <PUBCHEM_EFFECTIVE_ROTOR_COUNT>
8

> <PUBCHEM_PHARMACOPHORE_FEATURES>
7
1 2 cation
1 3 cation
3 10 15 16 hydrophobe
5 1 4 5 22 24 rings
6 2 3 17 18 20 21 rings
6 25 26 27 28 29 30 rings
6 6 7 8 9 12 13 rings

> <PUBCHEM_HEAVY_ATOM_COUNT>
30

> <PUBCHEM_ATOM_DEF_STEREO_COUNT>
3

> <PUBCHEM_ATOM_UDEF_STEREO_COUNT>
0

> <PUBCHEM_BOND_DEF_STEREO_COUNT>
0

> <PUBCHEM_BOND_UDEF_STEREO_COUNT>
0

> <PUBCHEM_ISOTOPIC_ATOM_COUNT>
0

> <PUBCHEM_COMPONENT_COUNT>
1

> <PUBCHEM_CACTVS_TAUTO_COUNT>
1

> <PUBCHEM_CONFORMER_ID>
02444BDF0000000D

> <PUBCHEM_MMFF94_ENERGY>
61.2134

> <PUBCHEM_FEATURE_SELFOVERLAP>
35.525

> <PUBCHEM_SHAPE_FINGERPRINT>
10483366 6 18126020273738049966
10937287 8 18341896328607133742
11070050 100 16805329864140880496
11135609 201 18342174518366372931
11828422 8 17559652041560119890
12107183 9 18338221761780944482
12422481 6 18187353312488066956
12925494 130 18337115562562677573
12978246 48 18192153921546064821
13617811 41 17767108079835690943
13726171 33 18342184392343628569
13965767 371 18114460067753195062
14251764 75 18342748407581015265
14739800 52 18260823808636475409
14790565 3 18340487884524766660
15001296 14 18337959961433141393
15082195 135 18198889350185227399
16067690 210 17039201777107025208
16988056 13 17909554960673553318
17974551 9 15579184033129763175
17980427 23 18192684809958816626
19438510 23 18334296495609120792
20238998 120 17836934400083116038
20715895 44 18343022181764999880
21033650 10 17830472922596966484
21864079 5 18410853248557959135
21987483 16 18041008320033112219
23559900 14 17981328889750238359
2838139 119 18269273633486008868
3388396 114 16687372383823312252
376196 1 18410578387794116650
392239 28 17462017753812969243
484985 159 11997173762224878523
508180 173 18194714547621196574
5219985 13 18343022241404003526
5776283 40 18266200360984034246
6376802 137 16956486561000064251
7288768 16 17968660539516482465
7808743 9 18342172323321865575
7970288 3 8646508300898139404

> <PUBCHEM_SHAPE_MULTIPOLES>
591.59
13.48
6.18
1.84
11.96
2.81
-1.46
19.27
-1.25
-3.69
1.76
-1.73
-1.78
-0.33

> <PUBCHEM_SHAPE_SELFOVERLAP>
1243.69

> <PUBCHEM_SHAPE_VOLUME>
333.5

> <PUBCHEM_COORDINATE_TYPE>
2
5
10

$$$$
