38028009
  -OEChem-12032416253D

 68 70  0     1  0  0  0  0  0999 V2000
    2.7807   -3.0015   -0.4558 O   0  0  0  0  0  0  0  0  0  0  0  0
   -0.2808    3.3182    1.9599 O   0  0  0  0  0  0  0  0  0  0  0  0
    0.4895   -3.3830   -0.4449 N   0  0  0  0  0  0  0  0  0  0  0  0
    0.4797    3.0398   -0.2150 N   0  0  0  0  0  0  0  0  0  0  0  0
   -1.7477   -4.7365    0.7260 N   0  0  0  0  0  0  0  0  0  0  0  0
   -6.6882    0.6855   -1.0222 N   0  0  0  0  0  0  0  0  0  0  0  0
    2.6653    1.1589    0.6391 C   0  0  1  0  0  0  0  0  0  0  0  0
    2.8193    2.3600   -0.3273 C   0  0  1  0  0  0  0  0  0  0  0  0
    3.3408   -0.0905    0.0535 C   0  0  0  0  0  0  0  0  0  0  0  0
    2.7506   -0.4853   -1.3135 C   0  0  2  0  0  0  0  0  0  0  0  0
    3.2486    1.4637    2.0224 C   0  0  0  0  0  0  0  0  0  0  0  0
    2.6207    0.7092   -2.2367 C   0  0  0  0  0  0  0  0  0  0  0  0
    2.6672    1.9733   -1.7798 C   0  0  0  0  0  0  0  0  0  0  0  0
    1.4049   -1.2003   -1.1485 C   0  0  0  0  0  0  0  0  0  0  0  0
    1.8225    3.4740    0.0116 C   0  0  0  0  0  0  0  0  0  0  0  0
    2.5906    0.5861    3.0825 C   0  0  0  0  0  0  0  0  0  0  0  0
    4.7607    1.2645    2.0178 C   0  0  0  0  0  0  0  0  0  0  0  0
    2.4815    0.4180   -3.7051 C   0  0  0  0  0  0  0  0  0  0  0  0
    1.6288   -2.6070   -0.6538 C   0  0  0  0  0  0  0  0  0  0  0  0
    0.6222   -4.7564    0.0388 C   0  0  0  0  0  0  0  0  0  0  0  0
   -0.8790   -2.9912   -0.7949 C   0  0  0  0  0  0  0  0  0  0  0  0
   -0.3775   -5.0497    1.1569 C   0  0  0  0  0  0  0  0  0  0  0  0
   -1.8537   -3.3227    0.3366 C   0  0  0  0  0  0  0  0  0  0  0  0
   -0.4833    2.9947    0.7926 C   0  0  0  0  0  0  0  0  0  0  0  0
   -2.7040   -5.0501    1.7869 C   0  0  0  0  0  0  0  0  0  0  0  0
   -1.8260    2.4943    0.4006 C   0  0  0  0  0  0  0  0  0  0  0  0
   -2.9581    2.9127    1.1000 C   0  0  0  0  0  0  0  0  0  0  0  0
   -1.9547    1.6070   -0.6680 C   0  0  0  0  0  0  0  0  0  0  0  0
   -4.2188    2.4439    0.7308 C   0  0  0  0  0  0  0  0  0  0  0  0
   -3.2155    1.1381   -1.0371 C   0  0  0  0  0  0  0  0  0  0  0  0
   -4.3475    1.5566   -0.3380 C   0  0  0  0  0  0  0  0  0  0  0  0
   -5.6391    1.0760   -0.7155 C   0  0  0  0  0  0  0  0  0  0  0  0
    1.5981    0.9406    0.7610 H   0  0  0  0  0  0  0  0  0  0  0  0
    3.8267    2.7835   -0.2282 H   0  0  0  0  0  0  0  0  0  0  0  0
    3.2860   -0.9270    0.7561 H   0  0  0  0  0  0  0  0  0  0  0  0
    4.4072    0.0961   -0.1284 H   0  0  0  0  0  0  0  0  0  0  0  0
    3.4749   -1.1632   -1.7872 H   0  0  0  0  0  0  0  0  0  0  0  0
    3.0446    2.5022    2.3025 H   0  0  0  0  0  0  0  0  0  0  0  0
    2.6158    2.7925   -2.4944 H   0  0  0  0  0  0  0  0  0  0  0  0
    0.8903   -1.2768   -2.1125 H   0  0  0  0  0  0  0  0  0  0  0  0
    0.7499   -0.6681   -0.4524 H   0  0  0  0  0  0  0  0  0  0  0  0
    1.9863    4.3388   -0.6429 H   0  0  0  0  0  0  0  0  0  0  0  0
    1.9450    3.8337    1.0367 H   0  0  0  0  0  0  0  0  0  0  0  0
    1.5076    0.7481    3.1076 H   0  0  0  0  0  0  0  0  0  0  0  0
    2.7699   -0.4798    2.9112 H   0  0  0  0  0  0  0  0  0  0  0  0
    2.9818    0.8294    4.0765 H   0  0  0  0  0  0  0  0  0  0  0  0
    5.0562    0.2105    1.9874 H   0  0  0  0  0  0  0  0  0  0  0  0
    5.2557    1.8022    1.2037 H   0  0  0  0  0  0  0  0  0  0  0  0
    5.1786    1.6634    2.9506 H   0  0  0  0  0  0  0  0  0  0  0  0
    3.3069   -0.2148   -4.0474 H   0  0  0  0  0  0  0  0  0  0  0  0
    2.4990    1.3321   -4.3084 H   0  0  0  0  0  0  0  0  0  0  0  0
    1.5387   -0.0945   -3.9164 H   0  0  0  0  0  0  0  0  0  0  0  0
    0.2122    2.8445   -1.1740 H   0  0  0  0  0  0  0  0  0  0  0  0
    1.6404   -4.9439    0.3952 H   0  0  0  0  0  0  0  0  0  0  0  0
    0.4483   -5.4195   -0.8176 H   0  0  0  0  0  0  0  0  0  0  0  0
   -1.1463   -3.5443   -1.7039 H   0  0  0  0  0  0  0  0  0  0  0  0
   -0.9543   -1.9285   -1.0323 H   0  0  0  0  0  0  0  0  0  0  0  0
   -0.3002   -6.1112    1.4207 H   0  0  0  0  0  0  0  0  0  0  0  0
   -0.1110   -4.4672    2.0490 H   0  0  0  0  0  0  0  0  0  0  0  0
   -1.6502   -2.6698    1.1960 H   0  0  0  0  0  0  0  0  0  0  0  0
   -2.8712   -3.1045   -0.0093 H   0  0  0  0  0  0  0  0  0  0  0  0
   -3.7286   -4.8568    1.4501 H   0  0  0  0  0  0  0  0  0  0  0  0
   -2.5231   -4.4642    2.6953 H   0  0  0  0  0  0  0  0  0  0  0  0
   -2.6546   -6.1134    2.0467 H   0  0  0  0  0  0  0  0  0  0  0  0
   -2.8781    3.6070    1.9324 H   0  0  0  0  0  0  0  0  0  0  0  0
   -1.0956    1.2349   -1.2185 H   0  0  0  0  0  0  0  0  0  0  0  0
   -5.0921    2.7797    1.2849 H   0  0  0  0  0  0  0  0  0  0  0  0
   -3.2990    0.4408   -1.8675 H   0  0  0  0  0  0  0  0  0  0  0  0
  1 19  2  0  0  0  0
  2 24  2  0  0  0  0
  3 19  1  0  0  0  0
  3 20  1  0  0  0  0
  3 21  1  0  0  0  0
  4 15  1  0  0  0  0
  4 24  1  0  0  0  0
  4 53  1  0  0  0  0
  5 22  1  0  0  0  0
  5 23  1  0  0  0  0
  5 25  1  0  0  0  0
  6 32  3  0  0  0  0
  7  8  1  0  0  0  0
  7  9  1  0  0  0  0
  7 11  1  0  0  0  0
  7 33  1  0  0  0  0
  8 13  1  0  0  0  0
  8 15  1  0  0  0  0
  8 34  1  0  0  0  0
  9 10  1  0  0  0  0
  9 35  1  0  0  0  0
  9 36  1  0  0  0  0
 10 12  1  0  0  0  0
 10 14  1  0  0  0  0
 10 37  1  0  0  0  0
 11 16  1  0  0  0  0
 11 17  1  0  0  0  0
 11 38  1  0  0  0  0
 12 13  2  0  0  0  0
 12 18  1  0  0  0  0
 13 39  1  0  0  0  0
 14 19  1  0  0  0  0
 14 40  1  0  0  0  0
 14 41  1  0  0  0  0
 15 42  1  0  0  0  0
 15 43  1  0  0  0  0
 16 44  1  0  0  0  0
 16 45  1  0  0  0  0
 16 46  1  0  0  0  0
 17 47  1  0  0  0  0
 17 48  1  0  0  0  0
 17 49  1  0  0  0  0
 18 50  1  0  0  0  0
 18 51  1  0  0  0  0
 18 52  1  0  0  0  0
 20 22  1  0  0  0  0
 20 54  1  0  0  0  0
 20 55  1  0  0  0  0
 21 23  1  0  0  0  0
 21 56  1  0  0  0  0
 21 57  1  0  0  0  0
 22 58  1  0  0  0  0
 22 59  1  0  0  0  0
 23 60  1  0  0  0  0
 23 61  1  0  0  0  0
 24 26  1  0  0  0  0
 25 62  1  0  0  0  0
 25 63  1  0  0  0  0
 25 64  1  0  0  0  0
 26 27  2  0  0  0  0
 26 28  1  0  0  0  0
 27 29  1  0  0  0  0
 27 65  1  0  0  0  0
 28 30  2  0  0  0  0
 28 66  1  0  0  0  0
 29 31  2  0  0  0  0
 29 67  1  0  0  0  0
 30 31  1  0  0  0  0
 30 68  1  0  0  0  0
 31 32  1  0  0  0  0
M  END
> <PUBCHEM_COMPOUND_CID>
38028009

> <PUBCHEM_CONFORMER_RMSD>
1

> <PUBCHEM_CONFORMER_DIVERSEORDER>
1
25
190
93
51
52
223
90
213
180
118
256
108
128
230
73
197
67
148
241
23
204
257
267
78
4
63
100
71
32
224
188
15
144
179
164
76
75
20
54
200
121
130
216
272
109
89
210
6
171
214
182
58
177
26
10
201
29
92
34
243
127
169
37
125
184
246
104
194
228
203
122
95
44
270
233
2
61
160
84
157
191
14
206
123
8
97
211
209
21
263
129
195
139
7
18
60
77
132
273
174
55
88
207
212
222
65
28
239
265
102
74
231
274
113
105
11
64
106
219
264
120
234
173
186
66
56
229
119
136
196
217
38
70
152
165
85
187
161
172
208
3
205
150
96
41
27
36
62
192
158
47
16
9
82
133
253
258
268
68
235
98
163
39
149
269
159
260
147
271
166
115
30
50
168
138
59
238
17
245
248
237
111
53
215
199
31
189
5
266
35
131
124
247
146
91
103
126
110
19
33
153
114
154
227
170
250
46
143
156
142
137
79
276
236
107
240
167
99
22
202
57
225
101
42
162
175
178
181
252
221
135
259
94
244
185
275
183
254
140
155
220
83
262
49
145
40
69
48
218
117
277
232
24
242
86
226
255
87
198
261
81
43
193
151
12
116
176
72
141
45
13
251
249
134
112
80

> <PUBCHEM_MMFF94_PARTIAL_CHARGES>
33
1 -0.57
10 0.14
12 -0.28
13 -0.29
14 0.06
15 0.3
18 0.14
19 0.57
2 -0.57
20 0.3
21 0.3
22 0.27
23 0.27
24 0.54
25 0.27
26 0.09
27 -0.15
28 -0.15
29 -0.15
3 -0.66
30 -0.15
31 0.07
32 0.48
39 0.15
4 -0.73
5 -0.81
53 0.37
6 -0.56
65 0.15
66 0.15
67 0.15
68 0.15
8 0.14

> <PUBCHEM_EFFECTIVE_ROTOR_COUNT>
10

> <PUBCHEM_PHARMACOPHORE_FEATURES>
9
1 1 acceptor
1 2 acceptor
1 4 donor
1 5 cation
1 6 acceptor
3 11 16 17 hydrophobe
6 26 27 28 29 30 31 rings
6 3 5 20 21 22 23 rings
6 7 8 9 10 12 13 rings

> <PUBCHEM_HEAVY_ATOM_COUNT>
32

> <PUBCHEM_ATOM_DEF_STEREO_COUNT>
3

> <PUBCHEM_ATOM_UDEF_STEREO_COUNT>
0

> <PUBCHEM_BOND_DEF_STEREO_COUNT>
0

> <PUBCHEM_BOND_UDEF_STEREO_COUNT>
0

> <PUBCHEM_ISOTOPIC_ATOM_COUNT>
0

> <PUBCHEM_COMPONENT_COUNT>
1

> <PUBCHEM_CACTVS_TAUTO_COUNT>
2

> <PUBCHEM_CONFORMER_ID>
024442E900000001

> <PUBCHEM_MMFF94_ENERGY>
69.2652

> <PUBCHEM_FEATURE_SELFOVERLAP>
45.671

> <PUBCHEM_SHAPE_FINGERPRINT>
10316853 100 18338799018064739279
11014199 57 17257092563540272759
114674 6 18269551646001745056
12156800 1 18265622163891540452
12788726 201 17756711101966748674
13561361 72 18192725655329910227
1361 2 18410290268887737937
13947930 73 18186802504233131731
14863182 85 18336544907115881344
15475509 84 17831285469836592106
16114785 44 16766999978859927144
161222 619 17342929670820155113
19315092 285 17700956765929920577
20764821 26 18411142437390735939
20775530 9 17401777315270072309
21304304 249 18339630166976815120
463206 1 17260475768933509905
57527452 28 18114730543714332024
57527573 199 18129645513455466304
6609424 69 17474966792637822519
66674814 147 17829064112603849466
7097593 13 17115236867310834501
86090 222 18342740754301935745

> <PUBCHEM_SHAPE_MULTIPOLES>
626.88
8.84
7.63
2.5
10.68
12.14
-0.37
-6.28
-0.29
5.13
3.14
-3
-0.57
1.58

> <PUBCHEM_SHAPE_SELFOVERLAP>
1301.3

> <PUBCHEM_SHAPE_VOLUME>
353.7

> <PUBCHEM_COORDINATE_TYPE>
2
5
10

$$$$
