11943270
  -OEChem-12032416213D

 55 59  0     1  0  0  0  0  0999 V2000
   -6.3904    1.6232    0.8373 F   0  0  0  0  0  0  0  0  0  0  0  0
   -4.5861    1.7930    2.0287 F   0  0  0  0  0  0  0  0  0  0  0  0
   -4.6506    2.6481    0.0303 F   0  0  0  0  0  0  0  0  0  0  0  0
   -0.9826   -2.3602    1.4659 O   0  0  0  0  0  0  0  0  0  0  0  0
    2.4536    2.1803    0.4442 O   0  0  0  0  0  0  0  0  0  0  0  0
    0.4712    3.1466   -1.7440 O   0  0  0  0  0  0  0  0  0  0  0  0
    3.5614   -0.3459    0.8011 N   0  0  2  0  0  0  0  0  0  0  0  0
    0.9645   -2.1006    0.2092 N   0  0  0  0  0  0  0  0  0  0  0  0
    3.2704   -2.8223    1.0643 C   0  0  1  0  0  0  0  0  0  0  0  0
    3.0593   -1.8143   -1.1571 C   0  0  2  0  0  0  0  0  0  0  0  0
    3.5865   -3.0362   -0.4100 C   0  0  0  0  0  0  0  0  0  0  0  0
    3.9528   -1.5337    1.5702 C   0  0  0  0  0  0  0  0  0  0  0  0
    3.7742   -0.5450   -0.6404 C   0  0  0  0  0  0  0  0  0  0  0  0
    1.7467   -2.7921    1.2441 C   0  0  0  0  0  0  0  0  0  0  0  0
    1.5573   -1.6841   -0.9851 C   0  0  0  0  0  0  0  0  0  0  0  0
    4.2678    0.8417    1.2752 C   0  0  0  0  0  0  0  0  0  0  0  0
    0.8038   -1.1565   -1.9629 C   0  0  0  0  0  0  0  0  0  0  0  0
   -0.4195   -1.9744    0.4399 C   0  0  0  0  0  0  0  0  0  0  0  0
   -1.2329   -1.3475   -0.6606 C   0  0  0  0  0  0  0  0  0  0  0  0
   -0.6107   -0.9821   -1.7915 C   0  0  0  0  0  0  0  0  0  0  0  0
    3.7883    2.0770    0.5631 C   0  0  0  0  0  0  0  0  0  0  0  0
   -2.6817   -1.1265   -0.5082 C   0  0  0  0  0  0  0  0  0  0  0  0
    4.4492    3.1194    0.0115 C   0  0  0  0  0  0  0  0  0  0  0  0
    2.2419    3.3478   -0.2177 C   0  0  0  0  0  0  0  0  0  0  0  0
    3.4377    3.9632   -0.5064 C   0  0  0  0  0  0  0  0  0  0  0  0
   -3.1529    0.0694    0.0350 C   0  0  0  0  0  0  0  0  0  0  0  0
   -3.5842   -2.1130   -0.9077 C   0  0  0  0  0  0  0  0  0  0  0  0
   -4.5247    0.2784    0.1785 C   0  0  0  0  0  0  0  0  0  0  0  0
    0.8399    3.7017   -0.4798 C   0  0  0  0  0  0  0  0  0  0  0  0
   -4.9558   -1.9041   -0.7641 C   0  0  0  0  0  0  0  0  0  0  0  0
   -5.4260   -0.7085   -0.2211 C   0  0  0  0  0  0  0  0  0  0  0  0
   -5.0283    1.5569    0.7581 C   0  0  0  0  0  0  0  0  0  0  0  0
    3.6699   -3.6595    1.6501 H   0  0  0  0  0  0  0  0  0  0  0  0
    3.2999   -1.9368   -2.2214 H   0  0  0  0  0  0  0  0  0  0  0  0
    3.1185   -3.9568   -0.7803 H   0  0  0  0  0  0  0  0  0  0  0  0
    4.6679   -3.1416   -0.5599 H   0  0  0  0  0  0  0  0  0  0  0  0
    3.6907   -1.3891    2.6258 H   0  0  0  0  0  0  0  0  0  0  0  0
    5.0418   -1.6726    1.5274 H   0  0  0  0  0  0  0  0  0  0  0  0
    4.8478   -0.6292   -0.8595 H   0  0  0  0  0  0  0  0  0  0  0  0
    3.3984    0.3037   -1.2238 H   0  0  0  0  0  0  0  0  0  0  0  0
    1.3758   -3.8263    1.2522 H   0  0  0  0  0  0  0  0  0  0  0  0
    1.4820   -2.3700    2.2218 H   0  0  0  0  0  0  0  0  0  0  0  0
    5.3530    0.7393    1.1456 H   0  0  0  0  0  0  0  0  0  0  0  0
    4.0786    0.9874    2.3462 H   0  0  0  0  0  0  0  0  0  0  0  0
    1.2400   -0.8187   -2.8971 H   0  0  0  0  0  0  0  0  0  0  0  0
   -1.1502   -0.5236   -2.6151 H   0  0  0  0  0  0  0  0  0  0  0  0
    5.5178    3.2738   -0.0260 H   0  0  0  0  0  0  0  0  0  0  0  0
    3.5670    4.9022   -1.0253 H   0  0  0  0  0  0  0  0  0  0  0  0
   -2.4544    0.8426    0.3487 H   0  0  0  0  0  0  0  0  0  0  0  0
   -3.2332   -3.0506   -1.3319 H   0  0  0  0  0  0  0  0  0  0  0  0
    0.1743    3.2949    0.2877 H   0  0  0  0  0  0  0  0  0  0  0  0
    0.7079    4.7870   -0.5242 H   0  0  0  0  0  0  0  0  0  0  0  0
   -5.6575   -2.6725   -1.0751 H   0  0  0  0  0  0  0  0  0  0  0  0
   -6.4979   -0.5644   -0.1175 H   0  0  0  0  0  0  0  0  0  0  0  0
   -0.4594    3.3839   -1.8965 H   0  0  0  0  0  0  0  0  0  0  0  0
  1 32  1  0  0  0  0
  2 32  1  0  0  0  0
  3 32  1  0  0  0  0
  4 18  2  0  0  0  0
  5 21  1  0  0  0  0
  5 24  1  0  0  0  0
  6 29  1  0  0  0  0
  6 55  1  0  0  0  0
  7 12  1  0  0  0  0
  7 13  1  0  0  0  0
  7 16  1  0  0  0  0
  8 14  1  0  0  0  0
  8 15  1  0  0  0  0
  8 18  1  0  0  0  0
  9 11  1  0  0  0  0
  9 12  1  0  0  0  0
  9 14  1  0  0  0  0
  9 33  1  0  0  0  0
 10 11  1  0  0  0  0
 10 13  1  0  0  0  0
 10 15  1  0  0  0  0
 10 34  1  0  0  0  0
 11 35  1  0  0  0  0
 11 36  1  0  0  0  0
 12 37  1  0  0  0  0
 12 38  1  0  0  0  0
 13 39  1  0  0  0  0
 13 40  1  0  0  0  0
 14 41  1  0  0  0  0
 14 42  1  0  0  0  0
 15 17  2  0  0  0  0
 16 21  1  0  0  0  0
 16 43  1  0  0  0  0
 16 44  1  0  0  0  0
 17 20  1  0  0  0  0
 17 45  1  0  0  0  0
 18 19  1  0  0  0  0
 19 20  2  0  0  0  0
 19 22  1  0  0  0  0
 20 46  1  0  0  0  0
 21 23  2  0  0  0  0
 22 26  2  0  0  0  0
 22 27  1  0  0  0  0
 23 25  1  0  0  0  0
 23 47  1  0  0  0  0
 24 25  2  0  0  0  0
 24 29  1  0  0  0  0
 25 48  1  0  0  0  0
 26 28  1  0  0  0  0
 26 49  1  0  0  0  0
 27 30  2  0  0  0  0
 27 50  1  0  0  0  0
 28 31  2  0  0  0  0
 28 32  1  0  0  0  0
 29 51  1  0  0  0  0
 29 52  1  0  0  0  0
 30 31  1  0  0  0  0
 30 53  1  0  0  0  0
 31 54  1  0  0  0  0
M  END
> <PUBCHEM_COMPOUND_CID>
11943270

> <PUBCHEM_CONFORMER_RMSD>
0.8

> <PUBCHEM_CONFORMER_DIVERSEORDER>
1
31
33
44
62
17
36
60
29
35
54
48
58
4
51
38
32
63
13
30
22
6
42
27
16
61
50
40
46
8
53
37
49
59
57
43
18
19
25
39
45
10
56
41
52
2
55
47
15
21
26
23
9
11
24
20
28
34
7
12
14
5
3

> <PUBCHEM_MMFF94_PARTIAL_CHARGES>
39
1 -0.34
10 0.14
12 0.27
13 0.27
14 0.3
15 -0.03
16 0.45
17 -0.15
18 0.62
19 -0.01
2 -0.34
20 -0.15
21 -0.04
22 0.03
23 -0.15
24 -0.04
25 -0.15
26 -0.15
27 -0.15
28 -0.14
29 0.46
3 -0.34
30 -0.15
31 -0.15
32 1.16
4 -0.57
45 0.15
46 0.15
47 0.15
48 0.15
49 0.15
5 -0.28
50 0.15
53 0.15
54 0.15
55 0.4
6 -0.68
7 -0.81
8 -0.47

> <PUBCHEM_EFFECTIVE_ROTOR_COUNT>
6

> <PUBCHEM_PHARMACOPHORE_FEATURES>
10
1 4 acceptor
1 5 acceptor
1 6 acceptor
1 6 donor
1 7 cation
5 5 21 23 24 25 rings
6 22 26 27 28 30 31 rings
6 7 9 10 11 12 13 rings
6 8 15 17 18 19 20 rings
6 8 9 10 11 14 15 rings

> <PUBCHEM_HEAVY_ATOM_COUNT>
32

> <PUBCHEM_ATOM_DEF_STEREO_COUNT>
2

> <PUBCHEM_ATOM_UDEF_STEREO_COUNT>
0

> <PUBCHEM_BOND_DEF_STEREO_COUNT>
0

> <PUBCHEM_BOND_UDEF_STEREO_COUNT>
0

> <PUBCHEM_ISOTOPIC_ATOM_COUNT>
0

> <PUBCHEM_COMPONENT_COUNT>
1

> <PUBCHEM_CACTVS_TAUTO_COUNT>
1

> <PUBCHEM_CONFORMER_ID>
00B63D6600000001

> <PUBCHEM_MMFF94_ENERGY>
66.6633

> <PUBCHEM_FEATURE_SELFOVERLAP>
52.301

> <PUBCHEM_SHAPE_FINGERPRINT>
10439779 11 18124862706742006056
10483366 6 18337968874307263420
10864689 126 17545882629301141197
11513181 2 18059861683313875870
12422481 6 18197751376967073184
12633257 1 17824238583971365250
12788726 201 17830187809398152134
13560911 23 18335405877182974219
13965767 371 17915713493432178690
14114211 80 17972889330663540716
14251764 38 18339361971716925089
14784336 7 17478032218144045887
14790565 3 18048318040153469540
14849402 71 18334573560445682738
15001296 14 18413110546104181625
15238133 3 18408604747796089134
15420108 30 18129088082687793822
15475509 84 17540525830162057722
17844677 252 18343024385010149243
17980427 23 18201431438353866719
20567600 9 18339088193569723916
20715895 44 17914616060394448753
20764821 26 18262786368268134916
21033648 29 17023167336998137479
21315764 268 18337107853048259029
21475661 188 18410295839075088242
21860390 5 18412825802678100158
22122407 14 18339083790721661571
23559900 14 17488752155372006711
245318 6 17898297357274553301
3388396 114 16039132265964509940
3411729 13 18341334478154920396
3493558 16 18340490075005287675
392239 28 18187632588109069818
4058900 60 18043536225444545436
474 4 18265888245299416782
50150288 127 12912575260168890148
5104073 3 18334579040671387771
513532 50 18060430131395245412
5895379 119 17630623227298299809
6086070 43 17973132107494544255
9981440 41 18049725423277985715

> <PUBCHEM_SHAPE_MULTIPOLES>
609.15
12.08
5.16
1.53
15.25
4.01
0.04
4.98
-3.12
-4.83
0.09
-0.18
-0.38
-1.89

> <PUBCHEM_SHAPE_SELFOVERLAP>
1344.487

> <PUBCHEM_SHAPE_VOLUME>
328.2

> <PUBCHEM_COORDINATE_TYPE>
2
5
10

$$$$
