40777187
  -OEChem-12032416293D

 59 63  0     1  0  0  0  0  0999 V2000
   -3.9430   -0.4083    1.5487 O   0  0  0  0  0  0  0  0  0  0  0  0
    0.4100   -1.6827    1.3172 N   0  0  2  0  0  0  0  0  0  0  0  0
    3.7198    0.8167   -0.0774 N   0  0  2  0  0  0  0  0  0  0  0  0
   -2.3379    0.6453    0.2597 N   0  0  0  0  0  0  0  0  0  0  0  0
   -4.5505    0.8493   -0.3381 N   0  0  0  0  0  0  0  0  0  0  0  0
    1.1014   -1.7309   -1.1902 C   0  0  2  0  0  0  0  0  0  0  0  0
    2.1926   -1.0537   -0.3299 C   0  0  2  0  0  0  0  0  0  0  0  0
   -0.6769   -1.1099    0.4779 C   0  0  2  0  0  0  0  0  0  0  0  0
   -0.2338   -0.9887   -0.9972 C   0  0  0  0  0  0  0  0  0  0  0  0
    1.6683   -0.9234    1.1179 C   0  0  0  0  0  0  0  0  0  0  0  0
    0.9152   -3.1563   -0.6358 C   0  0  0  0  0  0  0  0  0  0  0  0
    0.6390   -3.0802    0.8764 C   0  0  0  0  0  0  0  0  0  0  0  0
    2.6492    0.2928   -0.8867 C   0  0  0  0  0  0  0  0  0  0  0  0
   -1.1979    0.2207    1.0260 C   0  0  0  0  0  0  0  0  0  0  0  0
    3.6391    2.1160    0.5868 C   0  0  0  0  0  0  0  0  0  0  0  0
    5.0645    0.5593   -0.3029 C   0  0  0  0  0  0  0  0  0  0  0  0
    5.0295    2.3870    1.1965 C   0  0  0  0  0  0  0  0  0  0  0  0
    5.8827    1.4506    0.4032 C   0  0  0  0  0  0  0  0  0  0  0  0
    5.6403   -0.4276   -1.0881 C   0  0  0  0  0  0  0  0  0  0  0  0
   -3.6568    0.2938    0.5818 C   0  0  0  0  0  0  0  0  0  0  0  0
    7.2645    1.3800    0.3515 C   0  0  0  0  0  0  0  0  0  0  0  0
    7.0350   -0.5070   -1.1586 C   0  0  0  0  0  0  0  0  0  0  0  0
    7.8414    0.3906   -0.4435 C   0  0  0  0  0  0  0  0  0  0  0  0
   -5.9596    0.7292   -0.3606 C   0  0  0  0  0  0  0  0  0  0  0  0
   -6.6971    1.3569   -1.3643 C   0  0  0  0  0  0  0  0  0  0  0  0
   -6.6118   -0.0166    0.6212 C   0  0  0  0  0  0  0  0  0  0  0  0
   -8.0869    1.2389   -1.3864 C   0  0  0  0  0  0  0  0  0  0  0  0
   -8.0014   -0.1348    0.5993 C   0  0  0  0  0  0  0  0  0  0  0  0
   -8.7390    0.4929   -0.4045 C   0  0  0  0  0  0  0  0  0  0  0  0
    1.3842   -1.7618   -2.2476 H   0  0  0  0  0  0  0  0  0  0  0  0
    3.0593   -1.7293   -0.3113 H   0  0  0  0  0  0  0  0  0  0  0  0
   -1.5227   -1.8125    0.5165 H   0  0  0  0  0  0  0  0  0  0  0  0
   -0.1322    0.0542   -1.3147 H   0  0  0  0  0  0  0  0  0  0  0  0
   -0.9983   -1.4394   -1.6429 H   0  0  0  0  0  0  0  0  0  0  0  0
    2.4282   -1.3034    1.8135 H   0  0  0  0  0  0  0  0  0  0  0  0
    1.5149    0.1191    1.4137 H   0  0  0  0  0  0  0  0  0  0  0  0
    1.8128   -3.7582   -0.8203 H   0  0  0  0  0  0  0  0  0  0  0  0
    0.0810   -3.6513   -1.1474 H   0  0  0  0  0  0  0  0  0  0  0  0
   -0.2309   -3.6993    1.1283 H   0  0  0  0  0  0  0  0  0  0  0  0
    1.4778   -3.5130    1.4363 H   0  0  0  0  0  0  0  0  0  0  0  0
    1.8154    1.0044   -0.8819 H   0  0  0  0  0  0  0  0  0  0  0  0
    2.9567    0.1977   -1.9354 H   0  0  0  0  0  0  0  0  0  0  0  0
   -0.4527    1.0190    0.9544 H   0  0  0  0  0  0  0  0  0  0  0  0
   -1.4889    0.1177    2.0775 H   0  0  0  0  0  0  0  0  0  0  0  0
    2.8586    2.1366    1.3543 H   0  0  0  0  0  0  0  0  0  0  0  0
    3.4036    2.8925   -0.1529 H   0  0  0  0  0  0  0  0  0  0  0  0
   -2.1781    1.2280   -0.5564 H   0  0  0  0  0  0  0  0  0  0  0  0
    5.0528    2.1105    2.2558 H   0  0  0  0  0  0  0  0  0  0  0  0
    5.3226    3.4335    1.0759 H   0  0  0  0  0  0  0  0  0  0  0  0
    5.0373   -1.1353   -1.6473 H   0  0  0  0  0  0  0  0  0  0  0  0
    7.8844    2.0707    0.9124 H   0  0  0  0  0  0  0  0  0  0  0  0
    7.4999   -1.2744   -1.7717 H   0  0  0  0  0  0  0  0  0  0  0  0
    8.9231    0.3104   -0.5076 H   0  0  0  0  0  0  0  0  0  0  0  0
   -4.1470    1.4085   -1.0856 H   0  0  0  0  0  0  0  0  0  0  0  0
   -6.2013    1.9411   -2.1354 H   0  0  0  0  0  0  0  0  0  0  0  0
   -6.1111   -0.5307    1.4293 H   0  0  0  0  0  0  0  0  0  0  0  0
   -8.6613    1.7276   -2.1678 H   0  0  0  0  0  0  0  0  0  0  0  0
   -8.5106   -0.7153    1.3633 H   0  0  0  0  0  0  0  0  0  0  0  0
   -9.8210    0.4010   -0.4216 H   0  0  0  0  0  0  0  0  0  0  0  0
  1 20  2  0  0  0  0
  2  8  1  0  0  0  0
  2 10  1  0  0  0  0
  2 12  1  0  0  0  0
  3 13  1  0  0  0  0
  3 15  1  0  0  0  0
  3 16  1  0  0  0  0
  4 14  1  0  0  0  0
  4 20  1  0  0  0  0
  4 47  1  0  0  0  0
  5 20  1  0  0  0  0
  5 24  1  0  0  0  0
  5 54  1  0  0  0  0
  6  7  1  0  0  0  0
  6  9  1  0  0  0  0
  6 11  1  0  0  0  0
  6 30  1  0  0  0  0
  7 10  1  0  0  0  0
  7 13  1  0  0  0  0
  7 31  1  0  0  0  0
  8  9  1  0  0  0  0
  8 14  1  0  0  0  0
  8 32  1  0  0  0  0
  9 33  1  0  0  0  0
  9 34  1  0  0  0  0
 10 35  1  0  0  0  0
 10 36  1  0  0  0  0
 11 12  1  0  0  0  0
 11 37  1  0  0  0  0
 11 38  1  0  0  0  0
 12 39  1  0  0  0  0
 12 40  1  0  0  0  0
 13 41  1  0  0  0  0
 13 42  1  0  0  0  0
 14 43  1  0  0  0  0
 14 44  1  0  0  0  0
 15 17  1  0  0  0  0
 15 45  1  0  0  0  0
 15 46  1  0  0  0  0
 16 18  1  0  0  0  0
 16 19  2  0  0  0  0
 17 18  1  0  0  0  0
 17 48  1  0  0  0  0
 17 49  1  0  0  0  0
 18 21  2  0  0  0  0
 19 22  1  0  0  0  0
 19 50  1  0  0  0  0
 21 23  1  0  0  0  0
 21 51  1  0  0  0  0
 22 23  2  0  0  0  0
 22 52  1  0  0  0  0
 23 53  1  0  0  0  0
 24 25  2  0  0  0  0
 24 26  1  0  0  0  0
 25 27  1  0  0  0  0
 25 55  1  0  0  0  0
 26 28  2  0  0  0  0
 26 56  1  0  0  0  0
 27 29  2  0  0  0  0
 27 57  1  0  0  0  0
 28 29  1  0  0  0  0
 28 58  1  0  0  0  0
 29 59  1  0  0  0  0
M  END
> <PUBCHEM_COMPOUND_CID>
40777187

> <PUBCHEM_CONFORMER_RMSD>
1

> <PUBCHEM_CONFORMER_DIVERSEORDER>
1
3
103
54
48
83
108
150
20
142
95
92
19
119
80
25
44
35
24
140
99
6
143
59
138
87
112
46
137
53
72
115
106
97
22
76
151
51
133
32
57
101
110
145
136
85
5
45
64
154
107
14
111
113
26
98
21
58
96
12
63
74
121
55
49
18
100
41
146
56
130
66
67
10
153
134
17
105
81
120
94
15
78
2
43
84
147
139
109
127
31
82
28
11
93
68
141
90
122
37
123
29
73
129
89
75
152
4
149
148
104
128
7
125
36
144
38
117
13
91
114
131
116
102
23
16
30
69
88
77
86
50
39
42
61
8
34
65
47
70
71
124
62
135
33
118
9
52
126
27
60
79
40
132

> <PUBCHEM_MMFF94_PARTIAL_CHARGES>
36
1 -0.57
10 0.27
12 0.27
13 0.37
14 0.3
15 0.37
16 0.1
17 0.14
18 -0.14
19 -0.15
2 -0.81
20 0.69
21 -0.15
22 -0.15
23 -0.15
24 0.12
25 -0.15
26 -0.15
27 -0.15
28 -0.15
29 -0.15
3 -0.84
4 -0.73
47 0.37
5 -0.55
50 0.15
51 0.15
52 0.15
53 0.15
54 0.37
55 0.15
56 0.15
57 0.15
58 0.15
59 0.15
8 0.27

> <PUBCHEM_EFFECTIVE_ROTOR_COUNT>
8.8

> <PUBCHEM_PHARMACOPHORE_FEATURES>
9
1 1 acceptor
1 2 cation
1 3 cation
1 4 donor
1 5 donor
5 3 15 16 17 18 rings
6 16 18 19 21 22 23 rings
6 24 25 26 27 28 29 rings
8 2 6 7 8 9 10 11 12 rings

> <PUBCHEM_HEAVY_ATOM_COUNT>
29

> <PUBCHEM_ATOM_DEF_STEREO_COUNT>
3

> <PUBCHEM_ATOM_UDEF_STEREO_COUNT>
0

> <PUBCHEM_BOND_DEF_STEREO_COUNT>
0

> <PUBCHEM_BOND_UDEF_STEREO_COUNT>
0

> <PUBCHEM_ISOTOPIC_ATOM_COUNT>
0

> <PUBCHEM_COMPONENT_COUNT>
1

> <PUBCHEM_CACTVS_TAUTO_COUNT>
3

> <PUBCHEM_CONFORMER_ID>
026E35E300000001

> <PUBCHEM_MMFF94_ENERGY>
92.6614

> <PUBCHEM_FEATURE_SELFOVERLAP>
45.813

> <PUBCHEM_SHAPE_FINGERPRINT>
10 15 16008750208430303837
10165383 225 18040436595044876734
10299344 5 15841552968600127341
10674148 151 13758355566321208791
10835480 77 18261106328377285949
11135926 11 18130517379269444715
11409948 41 17345475890863508286
12592606 108 7997963562615704905
13150687 139 18130795550962579014
13540713 5 17415011149197421003
13673619 4 12175619577585786275
13685833 64 9295289443234132333
14117953 113 18260551125400362853
14150023 79 18335984181824124970
14251757 52 17095532837711059708
14251764 18 14490474192521640669
14461889 52 17749396975289976275
14767858 380 17203610384870658177
150020 25 18411419510373906813
15131766 46 16808719839601303076
15183329 4 14117520952075723415
15289351 153 18337102363811204760
15301273 46 16370727006878978370
15392192 104 15719398343181785536
15461852 350 17167870794339438443
15961568 22 18113616747136365525
1754911 235 18272082795785792629
18335252 114 18131066035065120504
20105231 36 15554441938878516215
20157964 124 17988928864539505878
20554085 129 17749111080101042178
20567600 254 18334859419761004883
21033648 29 18264762328692694688
21049683 118 18265875012674217802
21150785 3 17489868246321968141
21344244 246 17488755458808421630
21403212 168 18261107474711398322
21521239 73 17346605140818181374
22224240 67 18261111880830898815
23522609 53 16414658007342060691
24771293 8 17603866664315300581
24893992 56 18335419101740023987
249057 3 17846498153656920564
2838139 119 18060425711541691936
335352 9 18202291299718259076
4325135 7 17418376887301991237
59755656 520 18409442622300013750
9962374 69 8862644782528261585

> <PUBCHEM_SHAPE_MULTIPOLES>
571.01
25.76
2.39
1.33
30.35
1.38
-0.02
-15.01
-5.84
-2.41
0.31
0.47
0.11
2.14

> <PUBCHEM_SHAPE_SELFOVERLAP>
1236.293

> <PUBCHEM_SHAPE_VOLUME>
309.5

> <PUBCHEM_COORDINATE_TYPE>
2
5
10

$$$$
