71693540
  -OEChem-12032416233D

 54 56  0     1  0  0  0  0  0999 V2000
    3.5565    1.0332    1.6229 O   0  0  0  0  0  0  0  0  0  0  0  0
    4.0381    0.7474   -2.4827 O   0  0  0  0  0  0  0  0  0  0  0  0
    7.0950    0.7127    1.3593 O   0  0  0  0  0  0  0  0  0  0  0  0
   -3.2709    1.9076   -1.0006 O   0  0  0  0  0  0  0  0  0  0  0  0
   -8.7352   -1.0404    0.0808 O   0  0  0  0  0  0  0  0  0  0  0  0
    5.4413   -0.1245   -0.0540 N   0  0  0  0  0  0  0  0  0  0  0  0
    7.4044   -3.2019   -0.8615 N   0  0  0  0  0  0  0  0  0  0  0  0
   -2.4637    0.0447    0.1855 N   0  0  0  0  0  0  0  0  0  0  0  0
    3.9938   -0.2922   -0.3321 C   0  0  1  0  0  0  0  0  0  0  0  0
    3.1748    0.8732    0.2559 C   0  0  1  0  0  0  0  0  0  0  0  0
    3.6982   -0.4585   -1.8296 C   0  0  0  0  0  0  0  0  0  0  0  0
    6.3824   -0.9823   -0.7691 C   0  0  0  0  0  0  0  0  0  0  0  0
    1.6766    0.6525    0.2368 C   0  0  0  0  0  0  0  0  0  0  0  0
    5.9142    0.6442    1.0113 C   0  0  0  0  0  0  0  0  0  0  0  0
    4.8816    1.4968    1.7214 C   0  0  0  0  0  0  0  0  0  0  0  0
    6.4831   -2.3533   -0.1168 C   0  0  0  0  0  0  0  0  0  0  0  0
    1.1292   -0.4740    0.8509 C   0  0  0  0  0  0  0  0  0  0  0  0
    0.8440    1.5764   -0.3947 C   0  0  0  0  0  0  0  0  0  0  0  0
   -0.2508   -0.6764    0.8337 C   0  0  0  0  0  0  0  0  0  0  0  0
   -0.5360    1.3740   -0.4120 C   0  0  0  0  0  0  0  0  0  0  0  0
   -1.0833    0.2475    0.2023 C   0  0  0  0  0  0  0  0  0  0  0  0
   -3.4478    0.8565   -0.3942 C   0  0  0  0  0  0  0  0  0  0  0  0
   -4.8417    0.3554   -0.2694 C   0  0  0  0  0  0  0  0  0  0  0  0
   -5.7987    0.7121   -1.2195 C   0  0  0  0  0  0  0  0  0  0  0  0
   -5.1931   -0.4707    0.7982 C   0  0  0  0  0  0  0  0  0  0  0  0
   -7.1070    0.2431   -1.1017 C   0  0  0  0  0  0  0  0  0  0  0  0
   -6.5013   -0.9398    0.9161 C   0  0  0  0  0  0  0  0  0  0  0  0
   -7.4584   -0.5827   -0.0339 C   0  0  0  0  0  0  0  0  0  0  0  0
   -9.0256   -1.8807    1.1967 C   0  0  0  0  0  0  0  0  0  0  0  0
    3.7289   -1.2258    0.1787 H   0  0  0  0  0  0  0  0  0  0  0  0
    3.4054    1.8102   -0.2698 H   0  0  0  0  0  0  0  0  0  0  0  0
    2.6308   -0.6425   -1.9922 H   0  0  0  0  0  0  0  0  0  0  0  0
    4.2235   -1.2978   -2.2910 H   0  0  0  0  0  0  0  0  0  0  0  0
    6.1465   -1.0385   -1.8331 H   0  0  0  0  0  0  0  0  0  0  0  0
    7.3713   -0.5066   -0.7267 H   0  0  0  0  0  0  0  0  0  0  0  0
    5.1406    1.5243    2.7850 H   0  0  0  0  0  0  0  0  0  0  0  0
    4.9488    2.5204    1.3351 H   0  0  0  0  0  0  0  0  0  0  0  0
    6.8243   -2.2627    0.9206 H   0  0  0  0  0  0  0  0  0  0  0  0
    5.5018   -2.8388   -0.0939 H   0  0  0  0  0  0  0  0  0  0  0  0
    1.7581   -1.1996    1.3589 H   0  0  0  0  0  0  0  0  0  0  0  0
    1.2570    2.4580   -0.8778 H   0  0  0  0  0  0  0  0  0  0  0  0
    3.8237    0.6351   -3.4243 H   0  0  0  0  0  0  0  0  0  0  0  0
   -0.6636   -1.5572    1.3190 H   0  0  0  0  0  0  0  0  0  0  0  0
   -1.1127    2.1334   -0.9207 H   0  0  0  0  0  0  0  0  0  0  0  0
    7.4982   -4.0984   -0.3859 H   0  0  0  0  0  0  0  0  0  0  0  0
    8.3330   -2.7817   -0.8642 H   0  0  0  0  0  0  0  0  0  0  0  0
   -2.7544   -0.8267    0.6192 H   0  0  0  0  0  0  0  0  0  0  0  0
   -5.5448    1.3504   -2.0617 H   0  0  0  0  0  0  0  0  0  0  0  0
   -4.4923   -0.7428    1.5817 H   0  0  0  0  0  0  0  0  0  0  0  0
   -7.8480    0.5235   -1.8453 H   0  0  0  0  0  0  0  0  0  0  0  0
   -6.7086   -1.5703    1.7740 H   0  0  0  0  0  0  0  0  0  0  0  0
   -8.4527   -2.8134    1.1582 H   0  0  0  0  0  0  0  0  0  0  0  0
   -8.8917   -1.3501    2.1455 H   0  0  0  0  0  0  0  0  0  0  0  0
  -10.0840   -2.1529    1.1296 H   0  0  0  0  0  0  0  0  0  0  0  0
  1 10  1  0  0  0  0
  1 15  1  0  0  0  0
  2 11  1  0  0  0  0
  2 42  1  0  0  0  0
  3 14  2  0  0  0  0
  4 22  2  0  0  0  0
  5 28  1  0  0  0  0
  5 29  1  0  0  0  0
  6  9  1  0  0  0  0
  6 12  1  0  0  0  0
  6 14  1  0  0  0  0
  7 16  1  0  0  0  0
  7 45  1  0  0  0  0
  7 46  1  0  0  0  0
  8 21  1  0  0  0  0
  8 22  1  0  0  0  0
  8 47  1  0  0  0  0
  9 10  1  0  0  0  0
  9 11  1  0  0  0  0
  9 30  1  0  0  0  0
 10 13  1  0  0  0  0
 10 31  1  0  0  0  0
 11 32  1  0  0  0  0
 11 33  1  0  0  0  0
 12 16  1  0  0  0  0
 12 34  1  0  0  0  0
 12 35  1  0  0  0  0
 13 17  2  0  0  0  0
 13 18  1  0  0  0  0
 14 15  1  0  0  0  0
 15 36  1  0  0  0  0
 15 37  1  0  0  0  0
 16 38  1  0  0  0  0
 16 39  1  0  0  0  0
 17 19  1  0  0  0  0
 17 40  1  0  0  0  0
 18 20  2  0  0  0  0
 18 41  1  0  0  0  0
 19 21  2  0  0  0  0
 19 43  1  0  0  0  0
 20 21  1  0  0  0  0
 20 44  1  0  0  0  0
 22 23  1  0  0  0  0
 23 24  2  0  0  0  0
 23 25  1  0  0  0  0
 24 26  1  0  0  0  0
 24 48  1  0  0  0  0
 25 27  2  0  0  0  0
 25 49  1  0  0  0  0
 26 28  2  0  0  0  0
 26 50  1  0  0  0  0
 27 28  1  0  0  0  0
 27 51  1  0  0  0  0
 29 52  1  0  0  0  0
 29 53  1  0  0  0  0
 29 54  1  0  0  0  0
M  END
> <PUBCHEM_COMPOUND_CID>
71693540

> <PUBCHEM_CONFORMER_RMSD>
1

> <PUBCHEM_CONFORMER_DIVERSEORDER>
1
17
7
14
16
5
3
4
18
9
12
11
8
13
15
6
10
2

> <PUBCHEM_MMFF94_PARTIAL_CHARGES>
41
1 -0.56
10 0.42
11 0.28
12 0.3
13 -0.14
14 0.57
15 0.34
16 0.27
17 -0.15
18 -0.15
19 -0.15
2 -0.68
20 -0.15
21 0.12
22 0.54
23 0.09
24 -0.15
25 -0.15
26 -0.15
27 -0.15
28 0.08
29 0.28
3 -0.57
4 -0.57
40 0.15
41 0.15
42 0.4
43 0.15
44 0.15
45 0.36
46 0.36
47 0.37
48 0.15
49 0.15
5 -0.36
50 0.15
51 0.15
6 -0.66
7 -0.99
8 -0.55
9 0.3

> <PUBCHEM_EFFECTIVE_ROTOR_COUNT>
9

> <PUBCHEM_PHARMACOPHORE_FEATURES>
12
1 1 acceptor
1 2 acceptor
1 2 donor
1 3 acceptor
1 4 acceptor
1 5 acceptor
1 7 cation
1 7 donor
1 8 donor
6 1 6 9 10 14 15 rings
6 13 17 18 19 20 21 rings
6 23 24 25 26 27 28 rings

> <PUBCHEM_HEAVY_ATOM_COUNT>
29

> <PUBCHEM_ATOM_DEF_STEREO_COUNT>
2

> <PUBCHEM_ATOM_UDEF_STEREO_COUNT>
0

> <PUBCHEM_BOND_DEF_STEREO_COUNT>
0

> <PUBCHEM_BOND_UDEF_STEREO_COUNT>
0

> <PUBCHEM_ISOTOPIC_ATOM_COUNT>
0

> <PUBCHEM_COMPONENT_COUNT>
1

> <PUBCHEM_CACTVS_TAUTO_COUNT>
4

> <PUBCHEM_CONFORMER_ID>
0445F4E400000001

> <PUBCHEM_MMFF94_ENERGY>
91.7155

> <PUBCHEM_FEATURE_SELFOVERLAP>
60.898

> <PUBCHEM_SHAPE_FINGERPRINT>
10066227 49 18339642235286888406
10299344 5 15841550799630937373
11315181 36 12685094779380754669
11607047 141 11455620842873666004
11607047 74 18043541706055587364
11719270 70 17749100089248148459
11963148 33 17895185636858931803
12236239 1 14979956977935094136
13533116 47 16128661833942649670
13668630 136 18186519899843155719
13685833 64 18130790053045269149
13782708 43 18270962328632387790
14251757 52 9799688186495125294
14251764 18 14261632837786101573
14294032 229 17169826666132246405
14849402 71 16629673093342114089
15183329 4 16370727011020776613
15352257 5 18343022203135030207
15419008 47 18410846668494793769
15419008 91 18116410670591573757
15510794 2 18409443678713768435
15716309 27 17346597482986210285
1577012 14 15936405603250508109
18335252 98 18411980269936458624
18681886 176 17676764366466726361
2026 5 18340207371452808991
20771845 171 15213298574467282418
21150785 3 16515405174624652573
21267235 1 18186804699694434449
21521721 280 17346312743227816810
21781051 124 17895204323949919163
21792934 111 10807941436219522346
22149856 69 18337400357401058073
22956985 138 17171780485488932826
23516275 137 15338299938009840663
23569917 315 17821727204460813970
23569943 247 18047753689739913018
23576562 1 15937556898993237879
24771293 8 10879407505781302642
249057 25 16515406231139615964
3004659 81 17240485805801065004
3044373 193 18412544349334747624
328311 84 18413107251557835723
335352 9 15285357311150672048
3383291 50 18334576884872105443
34797466 226 18341055210965759053
4073 2 15768919316247096231
4093350 32 13398640423987396164
4325135 7 16877940547225070491
4340502 62 16773794809947256428
504579 68 15864073178360339439
58083652 198 16916773086084263417
59755656 215 18113615664324279451

> <PUBCHEM_SHAPE_MULTIPOLES>
552.52
26.68
1.89
1.51
28.48
1.09
-0.25
14.59
1.38
-2.3
-0.18
-1.54
-0.23
3.27

> <PUBCHEM_SHAPE_SELFOVERLAP>
1172.725

> <PUBCHEM_SHAPE_VOLUME>
304.6

> <PUBCHEM_COORDINATE_TYPE>
2
5
10

$$$$
