40777983
  -OEChem-12032416173D

 69 72  0     1  0  0  0  0  0999 V2000
   -4.0792    0.8408    0.8138 O   0  0  0  0  0  0  0  0  0  0  0  0
   -5.9112    2.1854   -1.2085 O   0  0  0  0  0  0  0  0  0  0  0  0
   -6.1662   -0.4918   -1.7878 O   0  0  0  0  0  0  0  0  0  0  0  0
   -1.9307    2.8565    1.3394 O   0  0  0  0  0  0  0  0  0  0  0  0
   -2.2889   -1.0078    2.3509 O   0  0  0  0  0  0  0  0  0  0  0  0
   -0.0397    2.1109    0.2134 N   0  0  0  0  0  0  0  0  0  0  0  0
    2.8242    1.7290    0.0338 N   0  0  0  0  0  0  0  0  0  0  0  0
   -3.3843   -1.8941    0.5076 N   0  0  0  0  0  0  0  0  0  0  0  0
    2.7308   -3.3810   -0.7842 N   0  0  0  0  0  0  0  0  0  0  0  0
   -3.7614    1.7626   -0.2540 C   0  0  2  0  0  0  0  0  0  0  0  0
   -4.7121    1.4359   -1.4005 C   0  0  1  0  0  0  0  0  0  0  0  0
   -4.9740   -0.0399   -1.1821 C   0  0  1  0  0  0  0  0  0  0  0  0
   -5.0398   -0.1164    0.3341 C   0  0  1  0  0  0  0  0  0  0  0  0
   -2.2966    1.5652   -0.6195 C   0  0  0  0  0  0  0  0  0  0  0  0
   -4.7079   -1.4927    0.8824 C   0  0  0  0  0  0  0  0  0  0  0  0
   -1.4160    2.2377    0.4050 C   0  0  0  0  0  0  0  0  0  0  0  0
    0.5699    1.3754   -0.8969 C   0  0  0  0  0  0  0  0  0  0  0  0
    0.8796    2.7284    1.1659 C   0  0  0  0  0  0  0  0  0  0  0  0
    2.0070    1.8138   -1.1792 C   0  0  0  0  0  0  0  0  0  0  0  0
    2.1634    1.9174    1.3283 C   0  0  0  0  0  0  0  0  0  0  0  0
    4.1979    1.5113   -0.0383 C   0  0  0  0  0  0  0  0  0  0  0  0
   -2.2625   -1.6154    1.2838 C   0  0  0  0  0  0  0  0  0  0  0  0
    4.9200    1.9708   -1.1397 C   0  0  0  0  0  0  0  0  0  0  0  0
    4.8519    0.8344    0.9914 C   0  0  0  0  0  0  0  0  0  0  0  0
   -0.9579   -2.0768    0.7434 C   0  0  0  0  0  0  0  0  0  0  0  0
    6.2961    1.7536   -1.2116 C   0  0  0  0  0  0  0  0  0  0  0  0
    6.2279    0.6171    0.9195 C   0  0  0  0  0  0  0  0  0  0  0  0
    6.9500    1.0770   -0.1818 C   0  0  0  0  0  0  0  0  0  0  0  0
    0.0938   -2.3662    1.6127 C   0  0  0  0  0  0  0  0  0  0  0  0
   -0.7845   -2.2202   -0.6333 C   0  0  0  0  0  0  0  0  0  0  0  0
    1.3189   -2.7994    1.1056 C   0  0  0  0  0  0  0  0  0  0  0  0
    0.4407   -2.6532   -1.1405 C   0  0  0  0  0  0  0  0  0  0  0  0
    1.4923   -2.9429   -0.2711 C   0  0  0  0  0  0  0  0  0  0  0  0
    3.8299   -3.6849    0.1105 C   0  0  0  0  0  0  0  0  0  0  0  0
    2.9185   -3.5405   -2.2126 C   0  0  0  0  0  0  0  0  0  0  0  0
   -3.9543    2.7758    0.1172 H   0  0  0  0  0  0  0  0  0  0  0  0
   -4.3300    1.6667   -2.3990 H   0  0  0  0  0  0  0  0  0  0  0  0
   -4.1364   -0.6181   -1.5874 H   0  0  0  0  0  0  0  0  0  0  0  0
   -6.0302    0.1814    0.7005 H   0  0  0  0  0  0  0  0  0  0  0  0
   -2.1039    2.0442   -1.5856 H   0  0  0  0  0  0  0  0  0  0  0  0
   -2.0370    0.5069   -0.6804 H   0  0  0  0  0  0  0  0  0  0  0  0
   -5.4075   -2.2442    0.5027 H   0  0  0  0  0  0  0  0  0  0  0  0
   -4.7716   -1.4829    1.9761 H   0  0  0  0  0  0  0  0  0  0  0  0
   -0.0287    1.4823   -1.8049 H   0  0  0  0  0  0  0  0  0  0  0  0
    0.5574    0.3206   -0.6105 H   0  0  0  0  0  0  0  0  0  0  0  0
    0.3883    2.8521    2.1368 H   0  0  0  0  0  0  0  0  0  0  0  0
    1.1057    3.7314    0.7837 H   0  0  0  0  0  0  0  0  0  0  0  0
    2.4057    1.1648   -1.9685 H   0  0  0  0  0  0  0  0  0  0  0  0
    2.0160    2.8460   -1.5502 H   0  0  0  0  0  0  0  0  0  0  0  0
    2.8174    2.4538    2.0266 H   0  0  0  0  0  0  0  0  0  0  0  0
    1.9298    0.9370    1.7615 H   0  0  0  0  0  0  0  0  0  0  0  0
   -5.6906    3.1242   -1.3337 H   0  0  0  0  0  0  0  0  0  0  0  0
   -6.1029   -0.2965   -2.7382 H   0  0  0  0  0  0  0  0  0  0  0  0
   -3.2969   -2.4487   -0.3373 H   0  0  0  0  0  0  0  0  0  0  0  0
    4.4437    2.5145   -1.9509 H   0  0  0  0  0  0  0  0  0  0  0  0
    4.3159    0.4506    1.8551 H   0  0  0  0  0  0  0  0  0  0  0  0
    6.8593    2.1142   -2.0675 H   0  0  0  0  0  0  0  0  0  0  0  0
    6.7368    0.0869    1.7192 H   0  0  0  0  0  0  0  0  0  0  0  0
    8.0213    0.9077   -0.2378 H   0  0  0  0  0  0  0  0  0  0  0  0
   -0.0240   -2.2634    2.6883 H   0  0  0  0  0  0  0  0  0  0  0  0
   -1.5677   -1.9770   -1.3451 H   0  0  0  0  0  0  0  0  0  0  0  0
    2.1057   -3.0117    1.8227 H   0  0  0  0  0  0  0  0  0  0  0  0
    0.5282   -2.7413   -2.2189 H   0  0  0  0  0  0  0  0  0  0  0  0
    4.7212   -4.0088   -0.4384 H   0  0  0  0  0  0  0  0  0  0  0  0
    3.5706   -4.5016    0.7934 H   0  0  0  0  0  0  0  0  0  0  0  0
    4.1252   -2.8019    0.6884 H   0  0  0  0  0  0  0  0  0  0  0  0
    3.9291   -3.8903   -2.4515 H   0  0  0  0  0  0  0  0  0  0  0  0
    2.7872   -2.5876   -2.7374 H   0  0  0  0  0  0  0  0  0  0  0  0
    2.2265   -4.2846   -2.6225 H   0  0  0  0  0  0  0  0  0  0  0  0
  1 10  1  0  0  0  0
  1 13  1  0  0  0  0
  2 11  1  0  0  0  0
  2 52  1  0  0  0  0
  3 12  1  0  0  0  0
  3 53  1  0  0  0  0
  4 16  2  0  0  0  0
  5 22  2  0  0  0  0
  6 16  1  0  0  0  0
  6 17  1  0  0  0  0
  6 18  1  0  0  0  0
  7 19  1  0  0  0  0
  7 20  1  0  0  0  0
  7 21  1  0  0  0  0
  8 15  1  0  0  0  0
  8 22  1  0  0  0  0
  8 54  1  0  0  0  0
  9 33  1  0  0  0  0
  9 34  1  0  0  0  0
  9 35  1  0  0  0  0
 10 11  1  0  0  0  0
 10 14  1  0  0  0  0
 10 36  1  0  0  0  0
 11 12  1  0  0  0  0
 11 37  1  0  0  0  0
 12 13  1  0  0  0  0
 12 38  1  0  0  0  0
 13 15  1  0  0  0  0
 13 39  1  0  0  0  0
 14 16  1  0  0  0  0
 14 40  1  0  0  0  0
 14 41  1  0  0  0  0
 15 42  1  0  0  0  0
 15 43  1  0  0  0  0
 17 19  1  0  0  0  0
 17 44  1  0  0  0  0
 17 45  1  0  0  0  0
 18 20  1  0  0  0  0
 18 46  1  0  0  0  0
 18 47  1  0  0  0  0
 19 48  1  0  0  0  0
 19 49  1  0  0  0  0
 20 50  1  0  0  0  0
 20 51  1  0  0  0  0
 21 23  2  0  0  0  0
 21 24  1  0  0  0  0
 22 25  1  0  0  0  0
 23 26  1  0  0  0  0
 23 55  1  0  0  0  0
 24 27  2  0  0  0  0
 24 56  1  0  0  0  0
 25 29  2  0  0  0  0
 25 30  1  0  0  0  0
 26 28  2  0  0  0  0
 26 57  1  0  0  0  0
 27 28  1  0  0  0  0
 27 58  1  0  0  0  0
 28 59  1  0  0  0  0
 29 31  1  0  0  0  0
 29 60  1  0  0  0  0
 30 32  2  0  0  0  0
 30 61  1  0  0  0  0
 31 33  2  0  0  0  0
 31 62  1  0  0  0  0
 32 33  1  0  0  0  0
 32 63  1  0  0  0  0
 34 64  1  0  0  0  0
 34 65  1  0  0  0  0
 34 66  1  0  0  0  0
 35 67  1  0  0  0  0
 35 68  1  0  0  0  0
 35 69  1  0  0  0  0
M  END
> <PUBCHEM_COMPOUND_CID>
40777983

> <PUBCHEM_CONFORMER_RMSD>
1.4

> <PUBCHEM_CONFORMER_DIVERSEORDER>
1
60
29
54
48
33
97
47
43
11
8
68
105
88
92
90
78
75
40
79
61
103
59
5
62
76
99
74
39
24
10
12
86
31
57
93
71
56
36
22
25
72
13
51
70
66
58
16
55
100
95
30
53
89
2
83
107
15
69
85
82
50
96
32
17
87
20
81
28
64
101
80
63
46
44
23
37
65
77
34
67
9
98
106
49
42
52
41
91
7
18
73
21
19
45
26
38
84
6
27
94
104
3
102
14
35
4

> <PUBCHEM_MMFF94_PARTIAL_CHARGES>
47
1 -0.56
10 0.28
11 0.28
12 0.28
13 0.28
14 0.06
15 0.3
16 0.57
17 0.3
18 0.3
19 0.37
2 -0.68
20 0.37
21 0.1
22 0.54
23 -0.15
24 -0.15
25 0.09
26 -0.15
27 -0.15
28 -0.15
29 -0.15
3 -0.68
30 -0.15
31 -0.15
32 -0.15
33 0.1
34 0.37
35 0.37
4 -0.57
5 -0.57
52 0.4
53 0.4
54 0.37
55 0.15
56 0.15
57 0.15
58 0.15
59 0.15
6 -0.66
60 0.15
61 0.15
62 0.15
63 0.15
7 -0.84
8 -0.73
9 -0.84

> <PUBCHEM_EFFECTIVE_ROTOR_COUNT>
11.2

> <PUBCHEM_PHARMACOPHORE_FEATURES>
14
1 1 acceptor
1 2 acceptor
1 2 donor
1 3 acceptor
1 3 donor
1 4 acceptor
1 5 acceptor
1 7 cation
1 8 donor
1 9 cation
5 1 10 11 12 13 rings
6 21 23 24 26 27 28 rings
6 25 29 30 31 32 33 rings
6 6 7 17 18 19 20 rings

> <PUBCHEM_HEAVY_ATOM_COUNT>
35

> <PUBCHEM_ATOM_DEF_STEREO_COUNT>
4

> <PUBCHEM_ATOM_UDEF_STEREO_COUNT>
0

> <PUBCHEM_BOND_DEF_STEREO_COUNT>
0

> <PUBCHEM_BOND_UDEF_STEREO_COUNT>
0

> <PUBCHEM_ISOTOPIC_ATOM_COUNT>
0

> <PUBCHEM_COMPONENT_COUNT>
1

> <PUBCHEM_CACTVS_TAUTO_COUNT>
2

> <PUBCHEM_CONFORMER_ID>
026E38FF00000001

> <PUBCHEM_MMFF94_ENERGY>
119.4602

> <PUBCHEM_FEATURE_SELFOVERLAP>
71.06

> <PUBCHEM_SHAPE_FINGERPRINT>
1100329 8 17692260637844356216
11513181 2 17987803986218123830
11578080 2 16806982400490922247
12422481 6 18187639211539373522
13402501 40 18408887360237233992
14747281 78 17098598087024404093
15274700 242 17097185429716133504
15968369 153 18201990003135329954
20642791 35 18048601426368715689
20721686 56 18409166588851661947
20764821 26 18267597814197786114
21344244 246 18412537713351663375
238918 7 18340209686766436202
3298306 158 18411134766309944352
3383291 50 18272086153843432746
373842 8 18337670820234667250
4093350 32 17417264134427048879
5085150 59 18410566319368070690
5265222 85 18119257400784996804
59755656 215 18411417332197909310

> <PUBCHEM_SHAPE_MULTIPOLES>
671.01
14.15
4.81
1.74
3.83
3.57
0.06
-6.91
3.66
2.96
0.46
-0.4
0.46
1.3

> <PUBCHEM_SHAPE_SELFOVERLAP>
1424.41

> <PUBCHEM_SHAPE_VOLUME>
373.3

> <PUBCHEM_COORDINATE_TYPE>
2
5
10

$$$$
