75536543
  -OEChem-12032416393D

 44 46  0     1  0  0  0  0  0999 V2000
    2.1496   -1.1405    1.3946 O   0  0  0  0  0  0  0  0  0  0  0  0
    0.8371   -2.8523   -1.4781 O   0  0  0  0  0  0  0  0  0  0  0  0
    4.6199    0.6047    1.0999 O   0  0  0  0  0  0  0  0  0  0  0  0
   -2.5565    1.9014    0.9024 O   0  0  0  0  0  0  0  0  0  0  0  0
    3.6869   -0.2812   -0.8426 N   0  0  0  0  0  0  0  0  0  0  0  0
   -1.1477   -0.8356   -0.1107 N   0  0  0  0  0  0  0  0  0  0  0  0
    4.1351    2.0914   -0.6576 C   0  0  0  0  0  0  0  0  0  0  0  0
    3.4309    3.1877    0.0703 C   0  0  0  0  0  0  0  0  0  0  0  0
    2.8295    2.6004   -1.1713 C   0  0  0  0  0  0  0  0  0  0  0  0
    2.3222   -1.9852    0.2445 C   0  0  1  0  0  0  0  0  0  0  0  0
    1.1061   -1.7452   -0.6399 C   0  0  2  0  0  0  0  0  0  0  0  0
    0.0258   -1.5235    0.4024 C   0  0  1  0  0  0  0  0  0  0  0  0
    3.6369   -1.6573   -0.4405 C   0  0  0  0  0  0  0  0  0  0  0  0
    0.7769   -0.7138    1.4466 C   0  0  0  0  0  0  0  0  0  0  0  0
    4.1760    0.7355   -0.0348 C   0  0  0  0  0  0  0  0  0  0  0  0
   -2.2685   -0.9468    0.8153 C   0  0  0  0  0  0  0  0  0  0  0  0
   -3.4887   -0.2256    0.3077 C   0  0  0  0  0  0  0  0  0  0  0  0
   -3.5747    1.1648    0.3755 C   0  0  0  0  0  0  0  0  0  0  0  0
   -4.5407   -0.9638   -0.2345 C   0  0  0  0  0  0  0  0  0  0  0  0
   -4.7125    1.8173   -0.0991 C   0  0  0  0  0  0  0  0  0  0  0  0
   -5.6787   -0.3115   -0.7090 C   0  0  0  0  0  0  0  0  0  0  0  0
   -5.7647    1.0791   -0.6413 C   0  0  0  0  0  0  0  0  0  0  0  0
    5.0310    2.3684   -1.2032 H   0  0  0  0  0  0  0  0  0  0  0  0
    3.8456    4.1862    0.0055 H   0  0  0  0  0  0  0  0  0  0  0  0
    2.9477    2.9661    1.0142 H   0  0  0  0  0  0  0  0  0  0  0  0
    1.9378    1.9964   -1.0531 H   0  0  0  0  0  0  0  0  0  0  0  0
    2.8414    3.2031   -2.0713 H   0  0  0  0  0  0  0  0  0  0  0  0
    2.3546   -3.0248    0.5937 H   0  0  0  0  0  0  0  0  0  0  0  0
    1.2154   -0.8547   -1.2692 H   0  0  0  0  0  0  0  0  0  0  0  0
   -0.2573   -2.5038    0.8114 H   0  0  0  0  0  0  0  0  0  0  0  0
    0.7652    0.3605    1.2282 H   0  0  0  0  0  0  0  0  0  0  0  0
    0.3888   -0.8643    2.4584 H   0  0  0  0  0  0  0  0  0  0  0  0
    3.7773   -2.2735   -1.3342 H   0  0  0  0  0  0  0  0  0  0  0  0
    4.4702   -1.8452    0.2456 H   0  0  0  0  0  0  0  0  0  0  0  0
    3.3584   -0.0497   -1.7757 H   0  0  0  0  0  0  0  0  0  0  0  0
   -1.4144   -1.2523   -1.0032 H   0  0  0  0  0  0  0  0  0  0  0  0
   -2.0093   -0.5348    1.7989 H   0  0  0  0  0  0  0  0  0  0  0  0
   -2.5156   -2.0029    0.9859 H   0  0  0  0  0  0  0  0  0  0  0  0
    0.7214   -3.6386   -0.9184 H   0  0  0  0  0  0  0  0  0  0  0  0
   -4.4879   -2.0476   -0.2965 H   0  0  0  0  0  0  0  0  0  0  0  0
   -4.7930    2.9000   -0.0527 H   0  0  0  0  0  0  0  0  0  0  0  0
   -6.4977   -0.8861   -1.1317 H   0  0  0  0  0  0  0  0  0  0  0  0
   -6.6507    1.5869   -1.0109 H   0  0  0  0  0  0  0  0  0  0  0  0
   -2.7940    2.8438    0.8651 H   0  0  0  0  0  0  0  0  0  0  0  0
  1 10  1  0  0  0  0
  1 14  1  0  0  0  0
  2 11  1  0  0  0  0
  2 39  1  0  0  0  0
  3 15  2  0  0  0  0
  4 18  1  0  0  0  0
  4 44  1  0  0  0  0
  5 13  1  0  0  0  0
  5 15  1  0  0  0  0
  5 35  1  0  0  0  0
  6 12  1  0  0  0  0
  6 16  1  0  0  0  0
  6 36  1  0  0  0  0
  7  8  1  0  0  0  0
  7  9  1  0  0  0  0
  7 15  1  0  0  0  0
  7 23  1  0  0  0  0
  8  9  1  0  0  0  0
  8 24  1  0  0  0  0
  8 25  1  0  0  0  0
  9 26  1  0  0  0  0
  9 27  1  0  0  0  0
 10 11  1  0  0  0  0
 10 13  1  0  0  0  0
 10 28  1  0  0  0  0
 11 12  1  0  0  0  0
 11 29  1  0  0  0  0
 12 14  1  0  0  0  0
 12 30  1  0  0  0  0
 13 33  1  0  0  0  0
 13 34  1  0  0  0  0
 14 31  1  0  0  0  0
 14 32  1  0  0  0  0
 16 17  1  0  0  0  0
 16 37  1  0  0  0  0
 16 38  1  0  0  0  0
 17 18  1  0  0  0  0
 17 19  2  0  0  0  0
 18 20  2  0  0  0  0
 19 21  1  0  0  0  0
 19 40  1  0  0  0  0
 20 22  1  0  0  0  0
 20 41  1  0  0  0  0
 21 22  2  0  0  0  0
 21 42  1  0  0  0  0
 22 43  1  0  0  0  0
M  END
> <PUBCHEM_COMPOUND_CID>
75536543

> <PUBCHEM_CONFORMER_RMSD>
0.8

> <PUBCHEM_CONFORMER_DIVERSEORDER>
1
26
190
290
191
10
256
140
283
233
80
181
284
258
276
303
174
102
183
71
175
204
161
77
144
188
151
232
259
90
108
227
216
226
246
146
117
4
218
98
223
285
96
238
240
214
180
205
273
195
193
63
53
252
245
271
19
154
244
110
162
185
265
200
277
198
280
274
272
36
82
220
73
168
230
70
11
269
39
81
106
130
241
133
123
34
128
136
250
122
56
17
152
242
228
158
253
178
40
67
21
55
61
131
281
2
138
72
150
299
155
41
264
48
300
196
169
194
209
15
115
101
237
278
149
107
148
287
286
33
186
35
99
145
282
134
215
239
254
179
105
91
248
129
66
266
294
135
121
257
160
142
260
5
141
167
202
184
75
32
221
52
94
37
20
177
27
219
28
199
54
197
261
45
292
302
86
255
62
203
58
84
30
301
182
295
137
159
291
18
126
192
156
89
270
125
210
139
64
170
114
267
263
103
42
217
88
109
60
268
79
243
83
95
59
87
297
165
97
187
247
120
206
68
116
6
231
50
288
298
143
76
234
224
31
22
171
289
293
157
166
78
23
100
236
147
211
14
251
296
225
44
164
201
208
38
213
153
275
69
8
16
92
262
24
104
127
9
119
279
118
235
29
93
46
173
65
47
222
189
85
113
49
176
57
74
229
7
132
51
25
163
249
13
12
207
112
212
3
172
111
124
43

> <PUBCHEM_MMFF94_PARTIAL_CHARGES>
35
1 -0.56
10 0.28
11 0.28
12 0.27
13 0.3
14 0.28
15 0.63
16 0.41
17 -0.14
18 0.08
19 -0.15
2 -0.68
20 -0.15
21 -0.15
22 -0.15
23 0.1
24 0.1
25 0.1
26 0.1
27 0.1
3 -0.57
35 0.37
36 0.36
39 0.4
4 -0.53
40 0.15
41 0.15
42 0.15
43 0.15
44 0.45
5 -0.73
6 -0.9
7 -0.1
8 -0.2
9 -0.2

> <PUBCHEM_EFFECTIVE_ROTOR_COUNT>
8.6

> <PUBCHEM_PHARMACOPHORE_FEATURES>
10
1 1 acceptor
1 2 acceptor
1 2 donor
1 3 acceptor
1 4 donor
1 5 donor
1 6 cation
1 6 donor
5 1 10 11 12 14 rings
6 17 18 19 20 21 22 rings

> <PUBCHEM_HEAVY_ATOM_COUNT>
22

> <PUBCHEM_ATOM_DEF_STEREO_COUNT>
3

> <PUBCHEM_ATOM_UDEF_STEREO_COUNT>
0

> <PUBCHEM_BOND_DEF_STEREO_COUNT>
0

> <PUBCHEM_BOND_UDEF_STEREO_COUNT>
0

> <PUBCHEM_ISOTOPIC_ATOM_COUNT>
0

> <PUBCHEM_COMPONENT_COUNT>
1

> <PUBCHEM_CACTVS_TAUTO_COUNT>
6

> <PUBCHEM_CONFORMER_ID>
0480989F00000001

> <PUBCHEM_MMFF94_ENERGY>
45.4314

> <PUBCHEM_FEATURE_SELFOVERLAP>
50.748

> <PUBCHEM_SHAPE_FINGERPRINT>
10763959 59 18334864905003804998
11089746 13 18113615655671060586
11796584 16 11455899014113287367
12403259 118 18263635324625848690
12596602 18 13118296870543114932
12633257 1 15720229651292558516
12670546 177 18340486673560020095
14251764 38 18409172108016596973
14251764 75 18192446383118066756
14528608 73 18411418423277760639
14848178 96 18259991499862235332
15142526 21 17968656158787003968
15238133 3 17894916278495807724
15961568 22 18259985976455444805
17844677 252 18338524049583888291
17959699 21 18335420166765422913
18681886 176 18272083873374229658
20715895 44 18410571777670487240
21033648 29 16226035679078852143
21315763 129 18335699420969669989
21315763 76 18409724058389831865
21475661 188 17968379060619591116
21503847 285 18334016073326554526
21623110 236 18411144628172541257
21709351 56 18341048506310729151
21860390 5 18410583859750724868
23227448 37 18338517551066209127
235170 7 15554175812875841112
23559900 14 18269836419751151027
245318 6 17751657660478913292
2838139 119 18337390560417021364
3117164 225 8429779196192215215
33382 64 10447927295463672791
3472631 163 18263359201711002293
34797466 226 18202008733218637463
474 4 18260548943714692242
67856867 119 18337382756087132075
7288768 16 17389379634936744040

> <PUBCHEM_SHAPE_MULTIPOLES>
419.31
12.76
3.16
1.16
10.97
1.31
-0.07
6.48
1.94
-3.28
0.64
-0.45
-0.23
-0.31

> <PUBCHEM_SHAPE_SELFOVERLAP>
876.963

> <PUBCHEM_SHAPE_VOLUME>
238

> <PUBCHEM_COORDINATE_TYPE>
2
5
10

$$$$
