44716885
  -OEChem-12032416313D

 70 72  0     1  0  0  0  0  0999 V2000
    4.3850    0.0404    0.1719 O   0  0  0  0  0  0  0  0  0  0  0  0
   -2.3719   -2.4573    0.9226 O   0  0  0  0  0  0  0  0  0  0  0  0
    4.3271   -2.6236    0.8333 O   0  0  0  0  0  0  0  0  0  0  0  0
   -3.5903    0.5721   -1.4486 O   0  0  0  0  0  0  0  0  0  0  0  0
    4.6219    1.9325   -1.1081 O   0  0  0  0  0  0  0  0  0  0  0  0
   -7.3498    1.0432   -1.0979 O   0  0  0  0  0  0  0  0  0  0  0  0
   -4.3282    1.7319    0.4251 N   0  0  0  0  0  0  0  0  0  0  0  0
    6.3963    1.0427    0.0929 N   0  0  0  0  0  0  0  0  0  0  0  0
    0.0983   -0.5672    0.4780 C   0  0  2  0  0  0  0  0  0  0  0  0
    0.9436   -1.5119   -0.4612 C   0  0  1  0  0  0  0  0  0  0  0  0
    2.5050   -1.5139   -0.2423 C   0  0  1  0  0  0  0  0  0  0  0  0
   -1.3622   -0.4934   -0.1337 C   0  0  1  0  0  0  0  0  0  0  0  0
    0.7344    0.8487    0.4519 C   0  0  0  0  0  0  0  0  0  0  0  0
    0.3038   -2.9149   -0.5520 C   0  0  0  0  0  0  0  0  0  0  0  0
    3.0111   -0.0400   -0.2071 C   0  0  1  0  0  0  0  0  0  0  0  0
   -2.0177   -1.8801   -0.3301 C   0  0  1  0  0  0  0  0  0  0  0  0
    2.2300    0.8566    0.7472 C   0  0  0  0  0  0  0  0  0  0  0  0
   -1.1200   -2.8406   -1.1049 C   0  0  0  0  0  0  0  0  0  0  0  0
    0.0472   -1.0419    1.9506 C   0  0  0  0  0  0  0  0  0  0  0  0
    2.9654   -2.2967    1.0044 C   0  0  0  0  0  0  0  0  0  0  0  0
    3.1879   -2.2116   -1.4544 C   0  0  0  0  0  0  0  0  0  0  0  0
   -2.3294    0.4399    0.6122 C   0  0  0  0  0  0  0  0  0  0  0  0
   -3.4647    0.8995   -0.2718 C   0  0  0  0  0  0  0  0  0  0  0  0
    5.0923    1.0876   -0.3534 C   0  0  0  0  0  0  0  0  0  0  0  0
   -5.5046    2.3241   -0.1690 C   0  0  0  0  0  0  0  0  0  0  0  0
    7.4048    2.0083   -0.2782 C   0  0  0  0  0  0  0  0  0  0  0  0
   -6.7244    1.4715    0.0299 C   0  0  0  0  0  0  0  0  0  0  0  0
    8.7773    1.3494   -0.3238 C   0  0  0  0  0  0  0  0  0  0  0  0
    7.3918    3.1911    0.6822 C   0  0  0  0  0  0  0  0  0  0  0  0
   -7.3760    1.0086    1.1494 C   0  0  0  0  0  0  0  0  0  0  0  0
   -8.4720    0.2465    0.6792 C   0  0  0  0  0  0  0  0  0  0  0  0
   -8.4122    0.2984   -0.6942 C   0  0  0  0  0  0  0  0  0  0  0  0
    0.8231   -1.0804   -1.4694 H   0  0  0  0  0  0  0  0  0  0  0  0
   -1.2290   -0.0795   -1.1453 H   0  0  0  0  0  0  0  0  0  0  0  0
    0.5742    1.3070   -0.5330 H   0  0  0  0  0  0  0  0  0  0  0  0
    0.2526    1.5073    1.1830 H   0  0  0  0  0  0  0  0  0  0  0  0
    0.8798   -3.5612   -1.2216 H   0  0  0  0  0  0  0  0  0  0  0  0
    0.2939   -3.4139    0.4216 H   0  0  0  0  0  0  0  0  0  0  0  0
    2.8833    0.3586   -1.2241 H   0  0  0  0  0  0  0  0  0  0  0  0
   -2.9533   -1.7766   -0.8898 H   0  0  0  0  0  0  0  0  0  0  0  0
    2.4296    0.5769    1.7874 H   0  0  0  0  0  0  0  0  0  0  0  0
    2.5933    1.8891    0.6684 H   0  0  0  0  0  0  0  0  0  0  0  0
   -1.5503   -3.8491   -1.0982 H   0  0  0  0  0  0  0  0  0  0  0  0
   -1.0731   -2.5179   -2.1527 H   0  0  0  0  0  0  0  0  0  0  0  0
   -0.2499   -2.0868    2.0540 H   0  0  0  0  0  0  0  0  0  0  0  0
   -0.6590   -0.4423    2.5348 H   0  0  0  0  0  0  0  0  0  0  0  0
    1.0059   -0.9417    2.4597 H   0  0  0  0  0  0  0  0  0  0  0  0
    2.8714   -1.7195    1.9250 H   0  0  0  0  0  0  0  0  0  0  0  0
    2.4165   -3.2343    1.1232 H   0  0  0  0  0  0  0  0  0  0  0  0
    4.2660   -2.0177   -1.4988 H   0  0  0  0  0  0  0  0  0  0  0  0
    2.7739   -1.8411   -2.3998 H   0  0  0  0  0  0  0  0  0  0  0  0
    3.0481   -3.2978   -1.4387 H   0  0  0  0  0  0  0  0  0  0  0  0
   -2.7485   -0.0398    1.5038 H   0  0  0  0  0  0  0  0  0  0  0  0
   -1.8227    1.3502    0.9451 H   0  0  0  0  0  0  0  0  0  0  0  0
   -2.8045   -3.3096    0.7445 H   0  0  0  0  0  0  0  0  0  0  0  0
    4.6067   -3.1205    1.6209 H   0  0  0  0  0  0  0  0  0  0  0  0
   -4.1453    1.9293    1.4050 H   0  0  0  0  0  0  0  0  0  0  0  0
    6.6441    0.3129    0.7546 H   0  0  0  0  0  0  0  0  0  0  0  0
   -5.3250    2.4925   -1.2364 H   0  0  0  0  0  0  0  0  0  0  0  0
   -5.6579    3.2974    0.3084 H   0  0  0  0  0  0  0  0  0  0  0  0
    7.1645    2.3792   -1.2820 H   0  0  0  0  0  0  0  0  0  0  0  0
    9.0624    0.9539    0.6576 H   0  0  0  0  0  0  0  0  0  0  0  0
    8.7826    0.5122   -1.0304 H   0  0  0  0  0  0  0  0  0  0  0  0
    9.5446    2.0639   -0.6395 H   0  0  0  0  0  0  0  0  0  0  0  0
    7.6046    2.8711    1.7084 H   0  0  0  0  0  0  0  0  0  0  0  0
    6.4117    3.6805    0.6875 H   0  0  0  0  0  0  0  0  0  0  0  0
    8.1398    3.9372    0.3948 H   0  0  0  0  0  0  0  0  0  0  0  0
   -7.0977    1.1954    2.1767 H   0  0  0  0  0  0  0  0  0  0  0  0
   -9.2129   -0.2753    1.2674 H   0  0  0  0  0  0  0  0  0  0  0  0
   -9.0180   -0.1189   -1.4852 H   0  0  0  0  0  0  0  0  0  0  0  0
  1 15  1  0  0  0  0
  1 24  1  0  0  0  0
  2 16  1  0  0  0  0
  2 55  1  0  0  0  0
  3 20  1  0  0  0  0
  3 56  1  0  0  0  0
  4 23  2  0  0  0  0
  5 24  2  0  0  0  0
  6 27  1  0  0  0  0
  6 32  1  0  0  0  0
  7 23  1  0  0  0  0
  7 25  1  0  0  0  0
  7 57  1  0  0  0  0
  8 24  1  0  0  0  0
  8 26  1  0  0  0  0
  8 58  1  0  0  0  0
  9 10  1  0  0  0  0
  9 12  1  0  0  0  0
  9 13  1  0  0  0  0
  9 19  1  0  0  0  0
 10 11  1  0  0  0  0
 10 14  1  0  0  0  0
 10 33  1  0  0  0  0
 11 15  1  0  0  0  0
 11 20  1  0  0  0  0
 11 21  1  0  0  0  0
 12 16  1  0  0  0  0
 12 22  1  0  0  0  0
 12 34  1  0  0  0  0
 13 17  1  0  0  0  0
 13 35  1  0  0  0  0
 13 36  1  0  0  0  0
 14 18  1  0  0  0  0
 14 37  1  0  0  0  0
 14 38  1  0  0  0  0
 15 17  1  0  0  0  0
 15 39  1  0  0  0  0
 16 18  1  0  0  0  0
 16 40  1  0  0  0  0
 17 41  1  0  0  0  0
 17 42  1  0  0  0  0
 18 43  1  0  0  0  0
 18 44  1  0  0  0  0
 19 45  1  0  0  0  0
 19 46  1  0  0  0  0
 19 47  1  0  0  0  0
 20 48  1  0  0  0  0
 20 49  1  0  0  0  0
 21 50  1  0  0  0  0
 21 51  1  0  0  0  0
 21 52  1  0  0  0  0
 22 23  1  0  0  0  0
 22 53  1  0  0  0  0
 22 54  1  0  0  0  0
 25 27  1  0  0  0  0
 25 59  1  0  0  0  0
 25 60  1  0  0  0  0
 26 28  1  0  0  0  0
 26 29  1  0  0  0  0
 26 61  1  0  0  0  0
 27 30  2  0  0  0  0
 28 62  1  0  0  0  0
 28 63  1  0  0  0  0
 28 64  1  0  0  0  0
 29 65  1  0  0  0  0
 29 66  1  0  0  0  0
 29 67  1  0  0  0  0
 30 31  1  0  0  0  0
 30 68  1  0  0  0  0
 31 32  2  0  0  0  0
 31 69  1  0  0  0  0
 32 70  1  0  0  0  0
M  END
> <PUBCHEM_COMPOUND_CID>
44716885

> <PUBCHEM_CONFORMER_RMSD>
1

> <PUBCHEM_CONFORMER_DIVERSEORDER>
1
109
92
99
108
80
51
85
64
13
56
78
113
88
42
18
73
33
96
94
81
91
30
102
79
4
77
9
86
82
114
6
105
76
45
66
55
111
116
41
23
74
67
40
112
104
47
59
69
34
97
115
43
98
24
21
44
90
10
19
107
87
71
35
110
101
83
16
93
49
68
103
28
39
72
54
60
37
89
50
48
61
53
95
14
58
7
63
15
100
62
22
106
20
84
75
25
70
38
32
65
31
57
2
27
36
12
46
17
26
29
52
3
5
11
8

> <PUBCHEM_MMFF94_PARTIAL_CHARGES>
27
1 -0.43
15 0.28
16 0.28
2 -0.68
20 0.28
22 0.06
23 0.57
24 0.78
25 0.48
26 0.3
27 -0.04
3 -0.68
30 -0.15
31 -0.15
32 -0.01
4 -0.57
5 -0.57
55 0.4
56 0.4
57 0.37
58 0.37
6 -0.28
68 0.15
69 0.15
7 -0.73
70 0.15
8 -0.73

> <PUBCHEM_EFFECTIVE_ROTOR_COUNT>
11.6

> <PUBCHEM_PHARMACOPHORE_FEATURES>
13
1 2 acceptor
1 2 donor
1 3 acceptor
1 3 donor
1 4 acceptor
1 5 acceptor
1 6 acceptor
1 7 donor
1 8 donor
3 26 28 29 hydrophobe
5 6 27 30 31 32 rings
6 9 10 11 13 15 17 rings
6 9 10 12 14 16 18 rings

> <PUBCHEM_HEAVY_ATOM_COUNT>
32

> <PUBCHEM_ATOM_DEF_STEREO_COUNT>
5

> <PUBCHEM_ATOM_UDEF_STEREO_COUNT>
1

> <PUBCHEM_BOND_DEF_STEREO_COUNT>
0

> <PUBCHEM_BOND_UDEF_STEREO_COUNT>
0

> <PUBCHEM_ISOTOPIC_ATOM_COUNT>
0

> <PUBCHEM_COMPONENT_COUNT>
1

> <PUBCHEM_CACTVS_TAUTO_COUNT>
4

> <PUBCHEM_CONFORMER_ID>
02AA535500000001

> <PUBCHEM_MMFF94_ENERGY>
83.425

> <PUBCHEM_FEATURE_SELFOVERLAP>
65.987

> <PUBCHEM_SHAPE_FINGERPRINT>
10 15 18040716969708242905
10165383 225 18412545418201193245
10369192 42 18412543206868049389
10674148 151 14908181941353023361
10904742 90 18410573998120944060
11135609 187 18342739585860341345
11135609 201 18408316705049270961
11578080 2 17487594519893187698
11796584 16 13254212979373451015
12730499 353 18341054013165644883
12788726 201 17703513177482455880
12838862 33 18340756113791077672
13150687 139 18272942617993988558
13782708 43 17825111411800319891
14117953 113 18410302419688446052
14294032 229 18058730337668790815
14428016 86 18412547604851061404
14849402 71 18343302578853515785
15131766 46 14709493722046057102
15183329 4 16128650818016524157
15840311 113 18334296440502467950
16126227 98 18341895225101406941
16758388 162 18335410259046550584
18335252 98 18410017650381465979
18608769 82 18340207488048733147
18643901 69 11023836075718558585
19302320 297 17967815003045409412
20105231 36 14476960104259252381
20505436 4 18408598184791214010
20554085 129 17988912393651136560
21033648 144 18259977159045432439
21033648 29 18268981168041974648
21033650 10 15841283553258614291
21150785 3 17131835365173882033
21365058 27 17703792518714949783
21521721 280 18342181038205843075
21781055 127 17203052868209817210
22149856 69 17773886312066008691
22224240 67 17530683216876535569
23522609 53 17345771685503594601
24771293 8 18259990345091448877
25269216 80 17059763533967897269
335352 9 18341056225263635438
4073 2 18335989658824266593
4112364 45 18261661620108398818
45377200 153 15625646333262774837
46194498 28 17915464887138272647
5470011 282 13470688174736241008
5758199 1 18273217487305872153
5776283 40 18201998875689159289
6669772 16 18187082823790020483

> <PUBCHEM_SHAPE_MULTIPOLES>
613.37
23.74
3.31
1.19
12.39
1.17
0.13
-23.25
-1.46
-3.6
-0.17
0.35
0.34
-0.1

> <PUBCHEM_SHAPE_SELFOVERLAP>
1267.865

> <PUBCHEM_SHAPE_VOLUME>
347.9

> <PUBCHEM_COORDINATE_TYPE>
2
5
10

$$$$
