75536552
  -OEChem-12032416303D

 42 43  0     1  0  0  0  0  0999 V2000
   -1.3280   -1.4012    0.0229 O   0  0  0  0  0  0  0  0  0  0  0  0
   -2.4193    2.0211   -0.0238 O   0  0  0  0  0  0  0  0  0  0  0  0
    2.2058    1.3475   -0.3875 O   0  0  0  0  0  0  0  0  0  0  0  0
   -4.7277   -0.1089    0.0794 N   0  0  0  0  0  0  0  0  0  0  0  0
    1.2371   -0.3837    0.8336 N   0  0  0  0  0  0  0  0  0  0  0  0
   -3.3469   -0.2114   -0.3641 C   0  0  1  0  0  0  0  0  0  0  0  0
   -2.3907    0.6757    0.4115 C   0  0  1  0  0  0  0  0  0  0  0  0
   -1.0570    0.0080    0.1046 C   0  0  1  0  0  0  0  0  0  0  0  0
    3.4361   -0.6761   -0.0926 C   0  0  0  0  0  0  0  0  0  0  0  0
   -2.7473   -1.5864   -0.1193 C   0  0  0  0  0  0  0  0  0  0  0  0
    4.1698   -0.3454   -1.3933 C   0  0  0  0  0  0  0  0  0  0  0  0
    4.4433   -0.4427    1.0391 C   0  0  0  0  0  0  0  0  0  0  0  0
    0.0013    0.2667    1.1621 C   0  0  0  0  0  0  0  0  0  0  0  0
    5.3361    0.5330   -0.9641 C   0  0  0  0  0  0  0  0  0  0  0  0
    5.7590   -0.0820    0.3577 C   0  0  0  0  0  0  0  0  0  0  0  0
    2.2430    0.2131    0.0821 C   0  0  0  0  0  0  0  0  0  0  0  0
   -5.5741   -1.0767   -0.6245 C   0  0  0  0  0  0  0  0  0  0  0  0
   -5.2404    1.2493   -0.1237 C   0  0  0  0  0  0  0  0  0  0  0  0
   -3.2725    0.0276   -1.4357 H   0  0  0  0  0  0  0  0  0  0  0  0
   -2.6066    0.6463    1.4869 H   0  0  0  0  0  0  0  0  0  0  0  0
   -0.6804    0.3257   -0.8767 H   0  0  0  0  0  0  0  0  0  0  0  0
    3.1093   -1.7226   -0.1172 H   0  0  0  0  0  0  0  0  0  0  0  0
   -3.1025   -2.0397    0.8135 H   0  0  0  0  0  0  0  0  0  0  0  0
   -2.9349   -2.2857   -0.9399 H   0  0  0  0  0  0  0  0  0  0  0  0
    3.5510    0.1373   -2.1562 H   0  0  0  0  0  0  0  0  0  0  0  0
    4.5621   -1.2719   -1.8317 H   0  0  0  0  0  0  0  0  0  0  0  0
    4.5619   -1.3373    1.6600 H   0  0  0  0  0  0  0  0  0  0  0  0
    4.1301    0.3719    1.7034 H   0  0  0  0  0  0  0  0  0  0  0  0
    0.1786    1.3415    1.2760 H   0  0  0  0  0  0  0  0  0  0  0  0
   -0.3126   -0.1396    2.1298 H   0  0  0  0  0  0  0  0  0  0  0  0
    5.0047    1.5672   -0.8156 H   0  0  0  0  0  0  0  0  0  0  0  0
    6.1460    0.5347   -1.6991 H   0  0  0  0  0  0  0  0  0  0  0  0
    6.3475   -0.9899    0.1789 H   0  0  0  0  0  0  0  0  0  0  0  0
    6.3651    0.5999    0.9610 H   0  0  0  0  0  0  0  0  0  0  0  0
    1.3731   -1.3300    1.1770 H   0  0  0  0  0  0  0  0  0  0  0  0
   -2.2347    2.0372   -0.9782 H   0  0  0  0  0  0  0  0  0  0  0  0
   -6.6170   -0.9789   -0.3010 H   0  0  0  0  0  0  0  0  0  0  0  0
   -5.2892   -2.1082   -0.3930 H   0  0  0  0  0  0  0  0  0  0  0  0
   -5.5419   -0.9395   -1.7116 H   0  0  0  0  0  0  0  0  0  0  0  0
   -6.3133    1.2901    0.1004 H   0  0  0  0  0  0  0  0  0  0  0  0
   -5.1013    1.6008   -1.1524 H   0  0  0  0  0  0  0  0  0  0  0  0
   -4.7800    1.9596    0.5692 H   0  0  0  0  0  0  0  0  0  0  0  0
  1  8  1  0  0  0  0
  1 10  1  0  0  0  0
  2  7  1  0  0  0  0
  2 36  1  0  0  0  0
  3 16  2  0  0  0  0
  4  6  1  0  0  0  0
  4 17  1  0  0  0  0
  4 18  1  0  0  0  0
  5 13  1  0  0  0  0
  5 16  1  0  0  0  0
  5 35  1  0  0  0  0
  6  7  1  0  0  0  0
  6 10  1  0  0  0  0
  6 19  1  0  0  0  0
  7  8  1  0  0  0  0
  7 20  1  0  0  0  0
  8 13  1  0  0  0  0
  8 21  1  0  0  0  0
  9 11  1  0  0  0  0
  9 12  1  0  0  0  0
  9 16  1  0  0  0  0
  9 22  1  0  0  0  0
 10 23  1  0  0  0  0
 10 24  1  0  0  0  0
 11 14  1  0  0  0  0
 11 25  1  0  0  0  0
 11 26  1  0  0  0  0
 12 15  1  0  0  0  0
 12 27  1  0  0  0  0
 12 28  1  0  0  0  0
 13 29  1  0  0  0  0
 13 30  1  0  0  0  0
 14 15  1  0  0  0  0
 14 31  1  0  0  0  0
 14 32  1  0  0  0  0
 15 33  1  0  0  0  0
 15 34  1  0  0  0  0
 17 37  1  0  0  0  0
 17 38  1  0  0  0  0
 17 39  1  0  0  0  0
 18 40  1  0  0  0  0
 18 41  1  0  0  0  0
 18 42  1  0  0  0  0
M  END
> <PUBCHEM_COMPOUND_CID>
75536552

> <PUBCHEM_CONFORMER_RMSD>
0.8

> <PUBCHEM_CONFORMER_DIVERSEORDER>
1
76
56
15
49
55
54
24
51
32
70
8
63
29
5
26
79
81
31
40
10
74
43
13
60
36
9
16
17
65
57
37
52
39
7
66
69
82
77
59
14
62
78
67
47
4
12
20
38
25
75
45
27
46
21
19
11
18
50
73
72
64
34
48
68
2
33
23
58
30
80
71
22
3
53
61
44
41
35
28
6
42

> <PUBCHEM_MMFF94_PARTIAL_CHARGES>
16
1 -0.56
10 0.28
13 0.3
16 0.57
17 0.27
18 0.27
2 -0.68
3 -0.57
35 0.37
36 0.4
4 -0.81
5 -0.73
6 0.27
7 0.28
8 0.28
9 0.06

> <PUBCHEM_EFFECTIVE_ROTOR_COUNT>
7

> <PUBCHEM_PHARMACOPHORE_FEATURES>
8
1 1 acceptor
1 2 acceptor
1 2 donor
1 3 acceptor
1 4 cation
1 5 donor
5 1 6 7 8 10 rings
5 9 11 12 14 15 rings

> <PUBCHEM_HEAVY_ATOM_COUNT>
18

> <PUBCHEM_ATOM_DEF_STEREO_COUNT>
3

> <PUBCHEM_ATOM_UDEF_STEREO_COUNT>
0

> <PUBCHEM_BOND_DEF_STEREO_COUNT>
0

> <PUBCHEM_BOND_UDEF_STEREO_COUNT>
0

> <PUBCHEM_ISOTOPIC_ATOM_COUNT>
0

> <PUBCHEM_COMPONENT_COUNT>
1

> <PUBCHEM_CACTVS_TAUTO_COUNT>
2

> <PUBCHEM_CONFORMER_ID>
048098A800000001

> <PUBCHEM_MMFF94_ENERGY>
37.5662

> <PUBCHEM_FEATURE_SELFOVERLAP>
40.596

> <PUBCHEM_SHAPE_FINGERPRINT>
10968037 39 18059857289583319612
11089746 13 12468637265623699646
11287383 113 17989202672561814640
11315181 36 17846784018243104048
12107183 9 17540243251436488816
12236239 1 17967811635004110490
12390115 104 17986400988592274601
12516196 113 16702301269526692626
12815109 37 16773795900631435866
12916748 109 18334582321482445930
13288520 33 18130787880514432351
13533116 47 17313095316575117858
14123238 8 18413389834730852938
1420 363 16559034900037670574
14251718 22 18343302578314594188
14251731 8 18273214196922813429
14386348 63 17203331117433505374
15183329 4 18409166593388852181
17834072 33 18334013917047250260
17834072 8 18272929415058837253
17834076 25 17917711301585226826
17844677 252 16200439069769301792
17870717 6 17988374714309552839
1813 80 14333139593472772160
19489759 90 18060420196692589121
200 152 15554448491970110323
20279233 1 17060624412358550366
20374829 77 18201716271372633307
20621476 66 18200322022342231921
20645477 70 16630253498506459686
20871999 31 18271808990744907577
21033650 10 18046089089607327908
21150785 3 17749665281786395055
21267235 1 18410858806788919819
2215653 11 17346877827885394781
2297311 6 18131639984292422497
23035841 295 11312059851043463316
23175994 123 16917349251324493545
23402539 116 18413101758531995725
23402655 69 18113338617764383478
23536379 177 18186237316517099330
23557571 272 17989211412825958984
23559900 14 18059848514917979984
239999 70 17060340734680737014
26918003 58 12895351105624143847
2871803 45 17274831220875171454
29717793 49 18335144168373285214
300161 21 18186799201735310514
3004659 81 18411702106073610444
34797466 226 17846506975968535436
351380 3 13110963106827399924
4047638 21 15502378933283791730
42788 4 18335138695782953690
465052 167 14405190573456138820
5283173 99 17417814976424999937
542803 24 17530965778189509650
58051976 100 18341893030040744519
59755656 520 16153708734340288971
67856867 119 18265050417761201132

> <PUBCHEM_SHAPE_MULTIPOLES>
342.86
14.2
1.35
1
1.86
0.17
-0.04
-0.34
-2.57
-1.52
-0.11
1.01
-0.03
-0.38

> <PUBCHEM_SHAPE_SELFOVERLAP>
695.046

> <PUBCHEM_SHAPE_VOLUME>
203.4

> <PUBCHEM_COORDINATE_TYPE>
2
5
10

$$$$
