75367096
  -OEChem-12032416403D

 50 52  0     1  0  0  0  0  0999 V2000
    3.8547    1.6258   -0.1352 S   0  0  0  0  0  0  0  0  0  0  0  0
   -0.4413    0.6712   -1.3605 O   0  0  0  0  0  0  0  0  0  0  0  0
   -1.1563    0.5494    2.1580 O   0  0  0  0  0  0  0  0  0  0  0  0
    3.8200    2.1953    1.1984 O   0  0  0  0  0  0  0  0  0  0  0  0
    4.5503    2.3154   -1.2049 O   0  0  0  0  0  0  0  0  0  0  0  0
   -3.3102   -0.8087    0.3160 N   0  0  0  0  0  0  0  0  0  0  0  0
    2.2681    1.2778   -0.6408 N   0  0  0  0  0  0  0  0  0  0  0  0
   -2.3077    0.2055    0.0328 C   0  0  1  0  0  0  0  0  0  0  0  0
   -4.6124   -0.4116   -0.2158 C   0  0  0  0  0  0  0  0  0  0  0  0
   -1.0340    0.0455    0.8420 C   0  0  1  0  0  0  0  0  0  0  0  0
   -0.0538    0.8618    0.0105 C   0  0  1  0  0  0  0  0  0  0  0  0
   -5.5087   -1.6450   -0.3731 C   0  0  0  0  0  0  0  0  0  0  0  0
   -5.2579    0.6267    0.7083 C   0  0  0  0  0  0  0  0  0  0  0  0
   -1.7731    0.1285   -1.3879 C   0  0  0  0  0  0  0  0  0  0  0  0
   -6.9063   -1.2595   -0.8551 C   0  0  0  0  0  0  0  0  0  0  0  0
   -6.6556    1.0096    0.2243 C   0  0  0  0  0  0  0  0  0  0  0  0
   -7.5481   -0.2166    0.0556 C   0  0  0  0  0  0  0  0  0  0  0  0
    1.3919    0.4377    0.1989 C   0  0  0  0  0  0  0  0  0  0  0  0
    4.5601    0.0091   -0.0190 C   0  0  0  0  0  0  0  0  0  0  0  0
    5.1904   -0.5579   -1.1266 C   0  0  0  0  0  0  0  0  0  0  0  0
    4.4831   -0.7010    1.1790 C   0  0  0  0  0  0  0  0  0  0  0  0
    5.7437   -1.8352   -1.0363 C   0  0  0  0  0  0  0  0  0  0  0  0
    5.0363   -1.9783    1.2695 C   0  0  0  0  0  0  0  0  0  0  0  0
    5.6667   -2.5454    0.1618 C   0  0  0  0  0  0  0  0  0  0  0  0
   -2.6860    1.2161    0.2266 H   0  0  0  0  0  0  0  0  0  0  0  0
   -4.4991    0.0250   -1.2170 H   0  0  0  0  0  0  0  0  0  0  0  0
   -0.7284   -1.0070    0.8933 H   0  0  0  0  0  0  0  0  0  0  0  0
   -0.1504    1.9329    0.2322 H   0  0  0  0  0  0  0  0  0  0  0  0
   -3.3793   -0.9630    1.3215 H   0  0  0  0  0  0  0  0  0  0  0  0
   -5.0615   -2.3487   -1.0860 H   0  0  0  0  0  0  0  0  0  0  0  0
   -5.5948   -2.1747    0.5849 H   0  0  0  0  0  0  0  0  0  0  0  0
   -5.3354    0.2288    1.7291 H   0  0  0  0  0  0  0  0  0  0  0  0
   -4.6642    1.5440    0.7734 H   0  0  0  0  0  0  0  0  0  0  0  0
   -1.6930   -0.9039   -1.7473 H   0  0  0  0  0  0  0  0  0  0  0  0
   -2.3781    0.6959   -2.1013 H   0  0  0  0  0  0  0  0  0  0  0  0
   -7.5405   -2.1522   -0.8970 H   0  0  0  0  0  0  0  0  0  0  0  0
   -6.8439   -0.8638   -1.8763 H   0  0  0  0  0  0  0  0  0  0  0  0
   -6.5779    1.5398   -0.7329 H   0  0  0  0  0  0  0  0  0  0  0  0
   -7.1153    1.7033    0.9373 H   0  0  0  0  0  0  0  0  0  0  0  0
   -8.5171    0.0865   -0.3565 H   0  0  0  0  0  0  0  0  0  0  0  0
   -7.7441   -0.6626    1.0385 H   0  0  0  0  0  0  0  0  0  0  0  0
    1.5265   -0.6029   -0.1168 H   0  0  0  0  0  0  0  0  0  0  0  0
    1.6655    0.5305    1.2542 H   0  0  0  0  0  0  0  0  0  0  0  0
   -1.4292    1.4810    2.1048 H   0  0  0  0  0  0  0  0  0  0  0  0
    2.0682    1.2625   -1.6488 H   0  0  0  0  0  0  0  0  0  0  0  0
    5.2549   -0.0263   -2.0717 H   0  0  0  0  0  0  0  0  0  0  0  0
    3.9945   -0.2802    2.0531 H   0  0  0  0  0  0  0  0  0  0  0  0
    6.2327   -2.2777   -1.8992 H   0  0  0  0  0  0  0  0  0  0  0  0
    4.9756   -2.5318    2.2020 H   0  0  0  0  0  0  0  0  0  0  0  0
    6.0968   -3.5402    0.2321 H   0  0  0  0  0  0  0  0  0  0  0  0
  1  4  2  0  0  0  0
  1  5  2  0  0  0  0
  1  7  1  0  0  0  0
  1 19  1  0  0  0  0
  2 11  1  0  0  0  0
  2 14  1  0  0  0  0
  3 10  1  0  0  0  0
  3 44  1  0  0  0  0
  6  8  1  0  0  0  0
  6  9  1  0  0  0  0
  6 29  1  0  0  0  0
  7 18  1  0  0  0  0
  7 45  1  0  0  0  0
  8 10  1  0  0  0  0
  8 14  1  0  0  0  0
  8 25  1  0  0  0  0
  9 12  1  0  0  0  0
  9 13  1  0  0  0  0
  9 26  1  0  0  0  0
 10 11  1  0  0  0  0
 10 27  1  0  0  0  0
 11 18  1  0  0  0  0
 11 28  1  0  0  0  0
 12 15  1  0  0  0  0
 12 30  1  0  0  0  0
 12 31  1  0  0  0  0
 13 16  1  0  0  0  0
 13 32  1  0  0  0  0
 13 33  1  0  0  0  0
 14 34  1  0  0  0  0
 14 35  1  0  0  0  0
 15 17  1  0  0  0  0
 15 36  1  0  0  0  0
 15 37  1  0  0  0  0
 16 17  1  0  0  0  0
 16 38  1  0  0  0  0
 16 39  1  0  0  0  0
 17 40  1  0  0  0  0
 17 41  1  0  0  0  0
 18 42  1  0  0  0  0
 18 43  1  0  0  0  0
 19 20  2  0  0  0  0
 19 21  1  0  0  0  0
 20 22  1  0  0  0  0
 20 46  1  0  0  0  0
 21 23  2  0  0  0  0
 21 47  1  0  0  0  0
 22 24  2  0  0  0  0
 22 48  1  0  0  0  0
 23 24  1  0  0  0  0
 23 49  1  0  0  0  0
 24 50  1  0  0  0  0
M  END
> <PUBCHEM_COMPOUND_CID>
75367096

> <PUBCHEM_CONFORMER_RMSD>
0.8

> <PUBCHEM_CONFORMER_DIVERSEORDER>
1
141
237
226
30
85
96
263
17
182
89
200
205
93
279
41
235
10
302
287
278
37
64
214
92
264
211
280
58
159
42
81
79
11
285
244
234
240
164
173
233
309
126
137
18
188
142
291
70
52
15
174
129
189
27
97
163
306
82
223
267
115
259
140
231
153
304
150
301
49
152
197
9
308
187
59
160
178
274
6
23
148
270
245
222
53
202
47
122
145
136
16
215
100
293
206
310
57
86
213
156
158
185
299
271
241
110
66
209
190
104
80
20
227
192
288
131
35
289
38
224
90
74
87
94
229
5
50
191
255
284
275
71
75
179
193
243
155
262
208
69
170
67
120
118
294
63
151
305
228
143
12
4
217
277
51
125
161
127
114
199
48
39
171
119
246
169
123
56
101
147
303
296
73
204
149
180
298
60
184
61
269
266
242
3
34
62
268
201
252
220
132
257
183
76
103
256
8
102
168
65
225
216
221
295
276
40
109
247
177
176
232
28
230
195
46
219
44
108
29
105
162
167
134
300
13
83
186
24
292
25
251
21
290
7
138
210
236
248
175
43
77
116
33
84
250
258
144
194
307
286
203
106
14
282
172
107
31
91
45
261
218
128
146
281
166
88
95
238
121
181
135
54
272
273
139
78
212
297
239
249
19
68
111
2
113
72
99
36
165
265
283
112
207
22
157
154
124
117
98
260
130
198
32
26
254
196
133
55
253

> <PUBCHEM_MMFF94_PARTIAL_CHARGES>
27
1 1.45
10 0.28
11 0.28
14 0.28
18 0.36
19 -0.01
2 -0.56
20 -0.15
21 -0.15
22 -0.15
23 -0.15
24 -0.15
29 0.36
3 -0.68
4 -0.65
44 0.4
45 0.42
46 0.15
47 0.15
48 0.15
49 0.15
5 -0.65
50 0.15
6 -0.9
7 -0.91
8 0.27
9 0.27

> <PUBCHEM_EFFECTIVE_ROTOR_COUNT>
8.2

> <PUBCHEM_PHARMACOPHORE_FEATURES>
11
1 2 acceptor
1 3 acceptor
1 3 donor
1 4 acceptor
1 5 acceptor
1 6 cation
1 6 donor
1 7 donor
5 2 8 10 11 14 rings
6 19 20 21 22 23 24 rings
6 9 12 13 15 16 17 rings

> <PUBCHEM_HEAVY_ATOM_COUNT>
24

> <PUBCHEM_ATOM_DEF_STEREO_COUNT>
3

> <PUBCHEM_ATOM_UDEF_STEREO_COUNT>
0

> <PUBCHEM_BOND_DEF_STEREO_COUNT>
0

> <PUBCHEM_BOND_UDEF_STEREO_COUNT>
0

> <PUBCHEM_ISOTOPIC_ATOM_COUNT>
0

> <PUBCHEM_COMPONENT_COUNT>
1

> <PUBCHEM_CACTVS_TAUTO_COUNT>
1

> <PUBCHEM_CONFORMER_ID>
047E02B800000001

> <PUBCHEM_MMFF94_ENERGY>
28.1284

> <PUBCHEM_FEATURE_SELFOVERLAP>
55.84

> <PUBCHEM_SHAPE_FINGERPRINT>
10 15 15554439717114632291
10670039 82 14562804396882315678
10906281 52 13479407211828786613
11719270 70 17561084691999519743
11796584 16 18343024431769265574
12166972 35 18411140242520633425
12236239 1 18342458158106781785
125118 31 10375883973977102851
12616971 3 17846206769884761588
13533116 47 18412544323311294680
1361 2 18260547835829908042
13617811 41 15430035456804786231
13782708 43 18413103987815363527
13914758 101 18340770347834546449
14211702 104 18262805202116738467
14251752 14 18272088271636654713
14251764 75 11238837900088924610
14347332 77 18187640250256924885
14347424 109 18273491273842801560
15183329 4 18333732407874396371
15188451 53 17846496989879318066
15419008 42 17699851718226625941
15475509 8 17240766147043624861
17844677 252 18113898247318338468
20028762 73 18273214175507058590
20281389 69 18342458154023337473
20567600 234 12607396711022616355
20645477 70 18261110777730958060
21150785 3 13334743427126440807
21344244 78 17703498931798517832
21521721 280 9727633930015882821
21641784 216 14635140192810063463
21792934 111 15267070199070741491
220451 1 18341056319203893197
22061861 79 18186515505865090151
221357 26 17821729408210818388
2215653 11 17603589620805569130
23081809 10 18343587369438859869
23522609 53 18045531683760996860
23536379 177 18411701002393537921
23559900 14 16878237436586030158
23569943 247 17823691971915893699
29717793 49 18409732863267493172
3004659 81 18413673513099762822
3014965 18 18334856104178088655
3472631 163 11891348542927157890
34797466 226 13118288048712021618
3886686 26 16264918597740817734
394071 54 17023471966038416316
397830 11 13182443538949650455
4072396 5 16917350333266011061
4073 2 18116717511264442770
4340502 62 13398630545742001812
465052 167 18342459227633039558
5085150 59 17132110269536602111
5372103 7 14925099096711355126
59682541 52 17894625937635966322
59755656 215 17023179401524198923
960060 61 17676496038500654630
9965369 4 18341896273479277833

> <PUBCHEM_SHAPE_MULTIPOLES>
464.32
20.73
2.1
1.34
19.41
0.17
0.17
8.13
-1.28
-3.67
-0.05
-0.89
-0.06
-1.06

> <PUBCHEM_SHAPE_SELFOVERLAP>
948.527

> <PUBCHEM_SHAPE_VOLUME>
268.8

> <PUBCHEM_COORDINATE_TYPE>
2
5
10

$$$$
