75536859
  -OEChem-12032416403D

 41 43  0     1  0  0  0  0  0999 V2000
   -6.7743   -0.1534   -0.8099 F   0  0  0  0  0  0  0  0  0  0  0  0
   -6.4597   -0.3251    1.3290 F   0  0  0  0  0  0  0  0  0  0  0  0
   -6.6598    1.6384    0.4165 F   0  0  0  0  0  0  0  0  0  0  0  0
    0.3585   -2.9669   -0.7448 O   0  0  0  0  0  0  0  0  0  0  0  0
   -0.5695    0.5320   -0.5669 O   0  0  0  0  0  0  0  0  0  0  0  0
    4.7841   -1.7826    0.7777 O   0  0  0  0  0  0  0  0  0  0  0  0
    2.5283   -1.1659    0.6233 N   0  0  0  0  0  0  0  0  0  0  0  0
   -2.5372   -0.6789   -0.3750 N   0  0  0  0  0  0  0  0  0  0  0  0
    4.0069    1.4081    1.0594 N   0  0  0  0  0  0  0  0  0  0  0  0
    5.6107    1.8800   -1.1926 N   0  0  0  0  0  0  0  0  0  0  0  0
    0.1471   -0.6186   -0.1167 C   0  0  2  0  0  0  0  0  0  0  0  0
    1.5299   -0.1319    0.3260 C   0  0  0  0  0  0  0  0  0  0  0  0
    2.0577   -2.5111    0.9577 C   0  0  0  0  0  0  0  0  0  0  0  0
    0.2041   -1.6434   -1.2478 C   0  0  0  0  0  0  0  0  0  0  0  0
    1.6721   -3.2841   -0.2970 C   0  0  0  0  0  0  0  0  0  0  0  0
    3.9134   -0.9388    0.5674 C   0  0  0  0  0  0  0  0  0  0  0  0
   -1.9227    0.5252   -0.3687 C   0  0  0  0  0  0  0  0  0  0  0  0
    4.3860    0.4137    0.2322 C   0  0  0  0  0  0  0  0  0  0  0  0
   -2.5793    1.7300   -0.1755 C   0  0  0  0  0  0  0  0  0  0  0  0
    5.1737    0.6456   -0.8740 C   0  0  0  0  0  0  0  0  0  0  0  0
   -3.9550    1.6968    0.0239 C   0  0  0  0  0  0  0  0  0  0  0  0
   -4.6226    0.4771    0.0240 C   0  0  0  0  0  0  0  0  0  0  0  0
   -3.8747   -0.6716   -0.1780 C   0  0  0  0  0  0  0  0  0  0  0  0
   -6.0934    0.4083    0.2345 C   0  0  0  0  0  0  0  0  0  0  0  0
    4.4440    2.6425    0.7407 C   0  0  0  0  0  0  0  0  0  0  0  0
    5.2316    2.8744   -0.3654 C   0  0  0  0  0  0  0  0  0  0  0  0
   -0.3453   -1.0533    0.7645 H   0  0  0  0  0  0  0  0  0  0  0  0
    1.9275    0.5401   -0.4437 H   0  0  0  0  0  0  0  0  0  0  0  0
    1.4194    0.4793    1.2307 H   0  0  0  0  0  0  0  0  0  0  0  0
    1.2279   -2.4292    1.6674 H   0  0  0  0  0  0  0  0  0  0  0  0
    2.8657   -3.0506    1.4638 H   0  0  0  0  0  0  0  0  0  0  0  0
   -0.7193   -1.6419   -1.8349 H   0  0  0  0  0  0  0  0  0  0  0  0
    1.0021   -1.4111   -1.9646 H   0  0  0  0  0  0  0  0  0  0  0  0
    2.3910   -3.1418   -1.1124 H   0  0  0  0  0  0  0  0  0  0  0  0
    1.6588   -4.3528   -0.0580 H   0  0  0  0  0  0  0  0  0  0  0  0
   -2.0435    2.6729   -0.1783 H   0  0  0  0  0  0  0  0  0  0  0  0
    5.4809   -0.1474   -1.5457 H   0  0  0  0  0  0  0  0  0  0  0  0
   -4.4892    2.6300    0.1774 H   0  0  0  0  0  0  0  0  0  0  0  0
   -4.3405   -1.6521   -0.1883 H   0  0  0  0  0  0  0  0  0  0  0  0
    4.1394    3.4420    1.4047 H   0  0  0  0  0  0  0  0  0  0  0  0
    5.5822    3.8667   -0.6209 H   0  0  0  0  0  0  0  0  0  0  0  0
  1 24  1  0  0  0  0
  2 24  1  0  0  0  0
  3 24  1  0  0  0  0
  4 14  1  0  0  0  0
  4 15  1  0  0  0  0
  5 11  1  0  0  0  0
  5 17  1  0  0  0  0
  6 16  2  0  0  0  0
  7 12  1  0  0  0  0
  7 13  1  0  0  0  0
  7 16  1  0  0  0  0
  8 17  2  0  0  0  0
  8 23  1  0  0  0  0
  9 18  2  0  0  0  0
  9 25  1  0  0  0  0
 10 20  2  0  0  0  0
 10 26  1  0  0  0  0
 11 12  1  0  0  0  0
 11 14  1  0  0  0  0
 11 27  1  0  0  0  0
 12 28  1  0  0  0  0
 12 29  1  0  0  0  0
 13 15  1  0  0  0  0
 13 30  1  0  0  0  0
 13 31  1  0  0  0  0
 14 32  1  0  0  0  0
 14 33  1  0  0  0  0
 15 34  1  0  0  0  0
 15 35  1  0  0  0  0
 16 18  1  0  0  0  0
 17 19  1  0  0  0  0
 18 20  1  0  0  0  0
 19 21  2  0  0  0  0
 19 36  1  0  0  0  0
 20 37  1  0  0  0  0
 21 22  1  0  0  0  0
 21 38  1  0  0  0  0
 22 23  2  0  0  0  0
 22 24  1  0  0  0  0
 23 39  1  0  0  0  0
 25 26  2  0  0  0  0
 25 40  1  0  0  0  0
 26 41  1  0  0  0  0
M  END
> <PUBCHEM_COMPOUND_CID>
75536859

> <PUBCHEM_CONFORMER_RMSD>
1

> <PUBCHEM_CONFORMER_DIVERSEORDER>
1
143
126
26
141
39
60
148
125
48
23
112
92
91
18
62
19
3
90
111
6
136
32
85
71
154
30
97
139
16
46
40
42
147
72
94
123
4
2
52
121
69
61
20
89
150
131
79
130
77
50
124
27
142
134
74
146
43
153
145
66
17
103
98
132
115
45
93
68
140
33
155
35
96
80
75
51
95
25
73
15
53
63
104
13
49
152
110
14
83
57
113
54
37
109
120
138
135
81
44
84
116
102
12
114
151
105
10
58
38
31
11
70
107
122
137
119
34
144
108
149
7
65
76
129
22
64
41
117
55
100
9
36
56
78
24
59
87
28
29
128
99
47
82
156
5
127
106
133
101
88
67
21
8
118
86

> <PUBCHEM_MMFF94_PARTIAL_CHARGES>
32
1 -0.34
10 -0.62
11 0.28
12 0.3
13 0.3
14 0.28
15 0.28
16 0.54
17 0.39
18 0.4
19 -0.15
2 -0.34
20 0.16
21 -0.15
22 -0.14
23 0.16
24 1.16
25 0.16
26 0.16
3 -0.34
36 0.15
37 0.15
38 0.15
39 0.15
4 -0.56
40 0.15
41 0.15
5 -0.36
6 -0.57
7 -0.66
8 -0.62
9 -0.62

> <PUBCHEM_EFFECTIVE_ROTOR_COUNT>
6.4

> <PUBCHEM_PHARMACOPHORE_FEATURES>
7
1 10 acceptor
1 4 acceptor
1 6 acceptor
1 9 acceptor
6 8 17 19 21 22 23 rings
6 9 10 18 20 25 26 rings
7 4 7 11 12 13 14 15 rings

> <PUBCHEM_HEAVY_ATOM_COUNT>
26

> <PUBCHEM_ATOM_DEF_STEREO_COUNT>
1

> <PUBCHEM_ATOM_UDEF_STEREO_COUNT>
0

> <PUBCHEM_BOND_DEF_STEREO_COUNT>
0

> <PUBCHEM_BOND_UDEF_STEREO_COUNT>
0

> <PUBCHEM_ISOTOPIC_ATOM_COUNT>
0

> <PUBCHEM_COMPONENT_COUNT>
1

> <PUBCHEM_CACTVS_TAUTO_COUNT>
1

> <PUBCHEM_CONFORMER_ID>
048099DB00000001

> <PUBCHEM_MMFF94_ENERGY>
77.6881

> <PUBCHEM_FEATURE_SELFOVERLAP>
35.527

> <PUBCHEM_SHAPE_FINGERPRINT>
10165383 225 18187088386706144012
10411042 1 17834393420221890210
10670039 82 17131564851075108696
10835480 77 18262230011828088693
10906281 52 18337967731180972937
11796584 16 12895064120215130900
1200032 147 17604999286020372004
12107183 9 17476358301737240841
12403259 118 18265034852514351248
12516196 113 11097853003629569749
12596602 18 17748826311147906393
12616971 3 18271512131263901454
12730499 353 18408610262154120442
12788726 201 17489312940856719609
13533116 47 18260265209659199514
13899415 154 17632578262473785145
13955234 65 18335697187988259314
14251732 16 18334016116503035547
14251764 75 18265053716427985772
14257110 125 18408887364980834612
14341114 176 18334297561035264305
14347332 77 8574714594362238515
14528608 73 18412823611891195244
1454969 45 18342452699451632735
146900 427 18413108351037724377
14790565 3 18341330092945597900
14840074 17 18411415137817787645
15183329 4 8790886306902311827
15475509 35 16154254015678963146
16126227 98 18194684997962272056
17349148 13 12612753475896425887
17844677 252 18338519616792594889
17980427 23 17386853983270180751
18222031 100 12179846065817554642
20465049 17 18339933628191833622
20567600 234 16805328828700477013
21033648 29 18198338649273143512
21365058 113 17769671806223673774
23522609 53 18059593377261367049
23559900 14 18053656971805679015
23845131 108 18187362181601269754
239999 70 18200315403438978038
245318 6 17751092516229843828
3472631 163 18270122447799144076
34797466 226 18131078133776769901
4340502 62 17313101960246063274
437795 163 18267014154540545191
4461854 278 17985280809751409351
5104073 3 18192437377356695825
621550 34 18113893814932739734
7808743 9 18193833976178170600
960060 61 12535347948065209576
9999458 23 18334574604091502958

> <PUBCHEM_SHAPE_MULTIPOLES>
475.71
16.35
3.17
1
17.21
1
-0.02
-9.97
1.23
-4.39
-0.08
-0.46
0.1
-0.78

> <PUBCHEM_SHAPE_SELFOVERLAP>
1019.223

> <PUBCHEM_SHAPE_VOLUME>
260.6

> <PUBCHEM_COORDINATE_TYPE>
2
5
10

$$$$
