7682629
  -OEChem-12032416153D

 56 60  0     1  0  0  0  0  0999 V2000
    4.0275   -3.0220    0.8884 F   0  0  0  0  0  0  0  0  0  0  0  0
   -3.0101    1.4022    2.8237 O   0  0  0  0  0  0  0  0  0  0  0  0
   -2.1877   -3.1278    0.4306 O   0  0  0  0  0  0  0  0  0  0  0  0
   -2.1633    1.1887    0.6507 N   0  0  0  0  0  0  0  0  0  0  0  0
   -1.7971   -1.4231   -1.1236 N   0  0  0  0  0  0  0  0  0  0  0  0
   -1.2534    0.9319   -1.6791 C   0  0  1  0  0  0  0  0  0  0  0  0
   -3.5946    0.2927   -1.2765 C   0  0  2  0  0  0  0  0  0  0  0  0
   -2.6914    1.1505   -2.1496 C   0  0  0  0  0  0  0  0  0  0  0  0
   -1.0649    1.3285   -0.2180 C   0  0  0  0  0  0  0  0  0  0  0  0
   -3.4947    0.8032    0.1624 C   0  0  0  0  0  0  0  0  0  0  0  0
   -0.8750   -0.5507   -1.8675 C   0  0  0  0  0  0  0  0  0  0  0  0
   -3.2154   -1.1945   -1.3970 C   0  0  0  0  0  0  0  0  0  0  0  0
    1.3960    1.9214   -0.5179 C   0  0  0  0  0  0  0  0  0  0  0  0
    0.1242    1.7651    0.2606 C   0  0  0  0  0  0  0  0  0  0  0  0
    2.4833    0.9787    0.0177 C   0  0  0  0  0  0  0  0  0  0  0  0
    1.8775    3.3791   -0.4910 C   0  0  0  0  0  0  0  0  0  0  0  0
    3.8030    1.1560   -0.7304 C   0  0  0  0  0  0  0  0  0  0  0  0
    3.1989    3.5514   -1.2374 C   0  0  0  0  0  0  0  0  0  0  0  0
   -2.0803    1.4912    2.0216 C   0  0  0  0  0  0  0  0  0  0  0  0
    4.2725    2.6070   -0.7069 C   0  0  0  0  0  0  0  0  0  0  0  0
    0.2524    2.0948    1.6645 C   0  0  0  0  0  0  0  0  0  0  0  0
   -1.4221   -2.3960   -0.1942 C   0  0  0  0  0  0  0  0  0  0  0  0
   -0.7660    1.9654    2.5156 C   0  0  0  0  0  0  0  0  0  0  0  0
    0.0077   -2.5595    0.0891 C   0  0  0  0  0  0  0  0  0  0  0  0
    0.6005   -1.8210    1.1101 C   0  0  0  0  0  0  0  0  0  0  0  0
    0.7655   -3.4535   -0.6631 C   0  0  0  0  0  0  0  0  0  0  0  0
    1.9599   -1.9775    1.3805 C   0  0  0  0  0  0  0  0  0  0  0  0
    2.1249   -3.6101   -0.3926 C   0  0  0  0  0  0  0  0  0  0  0  0
    2.7222   -2.8720    0.6292 C   0  0  0  0  0  0  0  0  0  0  0  0
   -0.6243    1.5462   -2.3316 H   0  0  0  0  0  0  0  0  0  0  0  0
   -4.6350    0.3966   -1.6081 H   0  0  0  0  0  0  0  0  0  0  0  0
   -2.9686    2.2095   -2.0728 H   0  0  0  0  0  0  0  0  0  0  0  0
   -2.7973    0.8670   -3.2040 H   0  0  0  0  0  0  0  0  0  0  0  0
   -4.1155    1.7048    0.2580 H   0  0  0  0  0  0  0  0  0  0  0  0
   -3.9232    0.0693    0.8568 H   0  0  0  0  0  0  0  0  0  0  0  0
   -0.9614   -0.8287   -2.9253 H   0  0  0  0  0  0  0  0  0  0  0  0
    0.1652   -0.7218   -1.5834 H   0  0  0  0  0  0  0  0  0  0  0  0
   -3.8408   -1.8000   -0.7324 H   0  0  0  0  0  0  0  0  0  0  0  0
   -3.4006   -1.5436   -2.4203 H   0  0  0  0  0  0  0  0  0  0  0  0
    1.2521    1.6576   -1.5704 H   0  0  0  0  0  0  0  0  0  0  0  0
    2.6681    1.0990    1.0900 H   0  0  0  0  0  0  0  0  0  0  0  0
    2.1592   -0.0424   -0.1664 H   0  0  0  0  0  0  0  0  0  0  0  0
    1.1222    4.0298   -0.9501 H   0  0  0  0  0  0  0  0  0  0  0  0
    2.0252    3.7472    0.5308 H   0  0  0  0  0  0  0  0  0  0  0  0
    4.5689    0.5103   -0.2857 H   0  0  0  0  0  0  0  0  0  0  0  0
    3.6795    0.8312   -1.7711 H   0  0  0  0  0  0  0  0  0  0  0  0
    3.0412    3.3613   -2.3063 H   0  0  0  0  0  0  0  0  0  0  0  0
    3.5417    4.5883   -1.1461 H   0  0  0  0  0  0  0  0  0  0  0  0
    4.5318    2.8896    0.3209 H   0  0  0  0  0  0  0  0  0  0  0  0
    5.1837    2.7098   -1.3066 H   0  0  0  0  0  0  0  0  0  0  0  0
    1.1969    2.4461    2.0647 H   0  0  0  0  0  0  0  0  0  0  0  0
   -0.6654    2.2062    3.5673 H   0  0  0  0  0  0  0  0  0  0  0  0
    0.0131   -1.1322    1.7098 H   0  0  0  0  0  0  0  0  0  0  0  0
    0.3096   -4.0328   -1.4617 H   0  0  0  0  0  0  0  0  0  0  0  0
    2.4239   -1.4078    2.1803 H   0  0  0  0  0  0  0  0  0  0  0  0
    2.7187   -4.3060   -0.9777 H   0  0  0  0  0  0  0  0  0  0  0  0
  1 29  1  0  0  0  0
  2 19  2  0  0  0  0
  3 22  2  0  0  0  0
  4  9  1  0  0  0  0
  4 10  1  0  0  0  0
  4 19  1  0  0  0  0
  5 11  1  0  0  0  0
  5 12  1  0  0  0  0
  5 22  1  0  0  0  0
  6  8  1  0  0  0  0
  6  9  1  0  0  0  0
  6 11  1  0  0  0  0
  6 30  1  0  0  0  0
  7  8  1  0  0  0  0
  7 10  1  0  0  0  0
  7 12  1  0  0  0  0
  7 31  1  0  0  0  0
  8 32  1  0  0  0  0
  8 33  1  0  0  0  0
  9 14  2  0  0  0  0
 10 34  1  0  0  0  0
 10 35  1  0  0  0  0
 11 36  1  0  0  0  0
 11 37  1  0  0  0  0
 12 38  1  0  0  0  0
 12 39  1  0  0  0  0
 13 14  1  0  0  0  0
 13 15  1  0  0  0  0
 13 16  1  0  0  0  0
 13 40  1  0  0  0  0
 14 21  1  0  0  0  0
 15 17  1  0  0  0  0
 15 41  1  0  0  0  0
 15 42  1  0  0  0  0
 16 18  1  0  0  0  0
 16 43  1  0  0  0  0
 16 44  1  0  0  0  0
 17 20  1  0  0  0  0
 17 45  1  0  0  0  0
 17 46  1  0  0  0  0
 18 20  1  0  0  0  0
 18 47  1  0  0  0  0
 18 48  1  0  0  0  0
 19 23  1  0  0  0  0
 20 49  1  0  0  0  0
 20 50  1  0  0  0  0
 21 23  2  0  0  0  0
 21 51  1  0  0  0  0
 22 24  1  0  0  0  0
 23 52  1  0  0  0  0
 24 25  2  0  0  0  0
 24 26  1  0  0  0  0
 25 27  1  0  0  0  0
 25 53  1  0  0  0  0
 26 28  2  0  0  0  0
 26 54  1  0  0  0  0
 27 29  2  0  0  0  0
 27 55  1  0  0  0  0
 28 29  1  0  0  0  0
 28 56  1  0  0  0  0
M  END
> <PUBCHEM_COMPOUND_CID>
7682629

> <PUBCHEM_CONFORMER_RMSD>
0.8

> <PUBCHEM_CONFORMER_DIVERSEORDER>
1
2
3

> <PUBCHEM_MMFF94_PARTIAL_CHARGES>
28
1 -0.19
10 0.3
11 0.3
12 0.3
13 0.14
14 -0.14
19 0.62
2 -0.57
21 -0.15
22 0.54
23 -0.14
24 0.09
25 -0.15
26 -0.15
27 -0.15
28 -0.15
29 0.19
3 -0.57
4 -0.47
5 -0.66
51 0.15
52 0.15
53 0.15
54 0.15
55 0.15
56 0.15
6 0.14
9 -0.03

> <PUBCHEM_EFFECTIVE_ROTOR_COUNT>
5.2

> <PUBCHEM_PHARMACOPHORE_FEATURES>
7
1 2 acceptor
1 3 acceptor
6 13 15 16 17 18 20 rings
6 24 25 26 27 28 29 rings
6 4 6 7 8 9 10 rings
6 4 9 14 19 21 23 rings
6 5 6 7 8 11 12 rings

> <PUBCHEM_HEAVY_ATOM_COUNT>
29

> <PUBCHEM_ATOM_DEF_STEREO_COUNT>
2

> <PUBCHEM_ATOM_UDEF_STEREO_COUNT>
0

> <PUBCHEM_BOND_DEF_STEREO_COUNT>
0

> <PUBCHEM_BOND_UDEF_STEREO_COUNT>
0

> <PUBCHEM_ISOTOPIC_ATOM_COUNT>
0

> <PUBCHEM_COMPONENT_COUNT>
1

> <PUBCHEM_CACTVS_TAUTO_COUNT>
1

> <PUBCHEM_CONFORMER_ID>
00753A4500000001

> <PUBCHEM_MMFF94_ENERGY>
72.8838

> <PUBCHEM_FEATURE_SELFOVERLAP>
37.098

> <PUBCHEM_SHAPE_FINGERPRINT>
10871710 139 17545598955601316022
11578080 2 16882205436417204293
12035759 4 18343021073357605910
12156800 1 16601602630130368442
12539773 59 17845069801852380916
12553582 1 18050294674264960870
12592029 89 18187074083478591317
12788726 201 17845949531471987329
133893 2 18336266734578514309
1361 2 16320886926703339340
14028597 1 18058746830664291779
14251740 79 17977675526174970940
14251757 5 17108762384764673628
15463212 79 17464516978113340644
20600515 1 17686291518240551714
21421861 104 17695669223545154937
21927370 108 18192994824724781394
23419403 2 17532958024824744265
238 59 18115288042921406356
3027735 51 18049166862860294354
35225 105 17330894364585718048
445580 44 17469860218056086210
469060 322 17461740667801983754
6287921 2 17698729103859058914
70634741 139 17688878953449901140

> <PUBCHEM_SHAPE_MULTIPOLES>
567.83
6.09
5.16
2.15
2.97
4.64
-0.94
-2.62
1.89
3.92
-0.58
-1.49
-1.4
-1.86

> <PUBCHEM_SHAPE_SELFOVERLAP>
1241.685

> <PUBCHEM_SHAPE_VOLUME>
306.8

> <PUBCHEM_COORDINATE_TYPE>
2
5
10

$$$$
