45360665
  -OEChem-12032416393D

 71 75  0     1  0  0  0  0  0999 V2000
   -1.2883   -2.4465    2.5199 O   0  0  0  0  0  0  0  0  0  0  0  0
   -4.4085    3.4398   -0.0204 O   0  0  0  0  0  0  0  0  0  0  0  0
   -6.0339   -3.2438   -0.3396 O   0  0  0  0  0  0  0  0  0  0  0  0
   -1.0241    0.8192    0.9110 N   0  0  1  0  0  0  0  0  0  0  0  0
    2.4549   -0.0292    0.3521 N   0  0  0  0  0  0  0  0  0  0  0  0
   -1.8195   -0.3841    3.3178 N   0  0  0  0  0  0  0  0  0  0  0  0
    6.5176   -1.8358   -0.1722 N   0  0  0  0  0  0  0  0  0  0  0  0
   -3.1160    2.2502   -1.5381 N   0  0  0  0  0  0  0  0  0  0  0  0
   -1.1252   -0.6455    0.9414 C   0  0  1  0  0  0  0  0  0  0  0  0
    1.0269    0.1399    0.1365 C   0  0  1  0  0  0  0  0  0  0  0  0
    0.2256   -1.1360    0.3969 C   0  0  0  0  0  0  0  0  0  0  0  0
   -1.9888    1.5056    1.7629 C   0  0  1  0  0  0  0  0  0  0  0  0
    0.3881    1.1575    1.0716 C   0  0  0  0  0  0  0  0  0  0  0  0
   -1.8496    1.0561    3.2088 C   0  0  0  0  0  0  0  0  0  0  0  0
   -1.3930   -1.2320    2.3244 C   0  0  0  0  0  0  0  0  0  0  0  0
   -1.9016    3.0282    1.6506 C   0  0  0  0  0  0  0  0  0  0  0  0
   -1.9977    3.4797    0.1997 C   0  0  0  0  0  0  0  0  0  0  0  0
    3.0830   -0.6821   -0.7896 C   0  0  0  0  0  0  0  0  0  0  0  0
    4.5568   -0.8800   -0.5830 C   0  0  0  0  0  0  0  0  0  0  0  0
   -3.3135    3.0740   -0.4396 C   0  0  0  0  0  0  0  0  0  0  0  0
    5.5653    0.1206   -0.6649 C   0  0  0  0  0  0  0  0  0  0  0  0
    5.1732   -2.0718   -0.2787 C   0  0  0  0  0  0  0  0  0  0  0  0
    6.7860   -0.5054   -0.4030 C   0  0  0  0  0  0  0  0  0  0  0  0
    5.5569    1.5030   -0.9375 C   0  0  0  0  0  0  0  0  0  0  0  0
    8.0033    0.1847   -0.4001 C   0  0  0  0  0  0  0  0  0  0  0  0
   -4.2134    1.7281   -2.3174 C   0  0  0  0  0  0  0  0  0  0  0  0
    7.5010   -2.8500    0.1416 C   0  0  0  0  0  0  0  0  0  0  0  0
    6.7670    2.2062   -0.9379 C   0  0  0  0  0  0  0  0  0  0  0  0
    7.9702    1.5552   -0.6731 C   0  0  0  0  0  0  0  0  0  0  0  0
   -4.6968    0.4071   -1.7926 C   0  0  0  0  0  0  0  0  0  0  0  0
   -3.9542   -0.7504   -2.0253 C   0  0  0  0  0  0  0  0  0  0  0  0
   -5.8889    0.3377   -1.0715 C   0  0  0  0  0  0  0  0  0  0  0  0
   -4.4037   -1.9774   -1.5374 C   0  0  0  0  0  0  0  0  0  0  0  0
   -6.3384   -0.8892   -0.5835 C   0  0  0  0  0  0  0  0  0  0  0  0
   -5.5959   -2.0468   -0.8165 C   0  0  0  0  0  0  0  0  0  0  0  0
   -5.2250   -4.3869   -0.6135 C   0  0  0  0  0  0  0  0  0  0  0  0
   -1.9438   -0.9710    0.2909 H   0  0  0  0  0  0  0  0  0  0  0  0
    0.8386    0.4796   -0.8934 H   0  0  0  0  0  0  0  0  0  0  0  0
    0.0982   -1.7017   -0.5332 H   0  0  0  0  0  0  0  0  0  0  0  0
    0.7438   -1.7858    1.1128 H   0  0  0  0  0  0  0  0  0  0  0  0
   -2.9895    1.2011    1.4254 H   0  0  0  0  0  0  0  0  0  0  0  0
    0.7333    1.0161    2.1031 H   0  0  0  0  0  0  0  0  0  0  0  0
    0.6300    2.1779    0.7598 H   0  0  0  0  0  0  0  0  0  0  0  0
   -0.9327    1.4342    3.6742 H   0  0  0  0  0  0  0  0  0  0  0  0
   -2.6946    1.4091    3.8100 H   0  0  0  0  0  0  0  0  0  0  0  0
   -0.9685    3.4052    2.0866 H   0  0  0  0  0  0  0  0  0  0  0  0
   -2.7185    3.4775    2.2298 H   0  0  0  0  0  0  0  0  0  0  0  0
    2.8823    0.8875    0.4859 H   0  0  0  0  0  0  0  0  0  0  0  0
   -2.0150   -0.7898    4.2279 H   0  0  0  0  0  0  0  0  0  0  0  0
   -1.1438    3.1387   -0.3932 H   0  0  0  0  0  0  0  0  0  0  0  0
   -1.9610    4.5759    0.1655 H   0  0  0  0  0  0  0  0  0  0  0  0
    2.9383   -0.0877   -1.7011 H   0  0  0  0  0  0  0  0  0  0  0  0
    2.6216   -1.6613   -0.9692 H   0  0  0  0  0  0  0  0  0  0  0  0
    4.7643   -3.0626   -0.1299 H   0  0  0  0  0  0  0  0  0  0  0  0
   -2.1755    1.9726   -1.8024 H   0  0  0  0  0  0  0  0  0  0  0  0
    4.6279    2.0258   -1.1465 H   0  0  0  0  0  0  0  0  0  0  0  0
    8.9435   -0.3161   -0.1947 H   0  0  0  0  0  0  0  0  0  0  0  0
   -3.8622    1.6139   -3.3493 H   0  0  0  0  0  0  0  0  0  0  0  0
   -5.0266    2.4630   -2.3370 H   0  0  0  0  0  0  0  0  0  0  0  0
    7.0046   -3.8146    0.2752 H   0  0  0  0  0  0  0  0  0  0  0  0
    8.0085   -2.5639    1.0664 H   0  0  0  0  0  0  0  0  0  0  0  0
    8.2103   -2.9107   -0.6878 H   0  0  0  0  0  0  0  0  0  0  0  0
    6.7665    3.2726   -1.1476 H   0  0  0  0  0  0  0  0  0  0  0  0
    8.8984    2.1210   -0.6787 H   0  0  0  0  0  0  0  0  0  0  0  0
   -3.0228   -0.7071   -2.5840 H   0  0  0  0  0  0  0  0  0  0  0  0
   -6.4766    1.2318   -0.8810 H   0  0  0  0  0  0  0  0  0  0  0  0
   -3.7771   -2.8360   -1.7530 H   0  0  0  0  0  0  0  0  0  0  0  0
   -7.2674   -0.9370   -0.0219 H   0  0  0  0  0  0  0  0  0  0  0  0
   -5.7228   -5.2510   -0.1614 H   0  0  0  0  0  0  0  0  0  0  0  0
   -4.2391   -4.3039   -0.1435 H   0  0  0  0  0  0  0  0  0  0  0  0
   -5.1571   -4.5836   -1.6889 H   0  0  0  0  0  0  0  0  0  0  0  0
  1 15  2  0  0  0  0
  2 20  2  0  0  0  0
  3 35  1  0  0  0  0
  3 36  1  0  0  0  0
  4  9  1  0  0  0  0
  4 12  1  0  0  0  0
  4 13  1  0  0  0  0
  5 10  1  0  0  0  0
  5 18  1  0  0  0  0
  5 48  1  0  0  0  0
  6 14  1  0  0  0  0
  6 15  1  0  0  0  0
  6 49  1  0  0  0  0
  7 22  1  0  0  0  0
  7 23  1  0  0  0  0
  7 27  1  0  0  0  0
  8 20  1  0  0  0  0
  8 26  1  0  0  0  0
  8 55  1  0  0  0  0
  9 11  1  0  0  0  0
  9 15  1  0  0  0  0
  9 37  1  0  0  0  0
 10 11  1  0  0  0  0
 10 13  1  0  0  0  0
 10 38  1  0  0  0  0
 11 39  1  0  0  0  0
 11 40  1  0  0  0  0
 12 14  1  0  0  0  0
 12 16  1  0  0  0  0
 12 41  1  0  0  0  0
 13 42  1  0  0  0  0
 13 43  1  0  0  0  0
 14 44  1  0  0  0  0
 14 45  1  0  0  0  0
 16 17  1  0  0  0  0
 16 46  1  0  0  0  0
 16 47  1  0  0  0  0
 17 20  1  0  0  0  0
 17 50  1  0  0  0  0
 17 51  1  0  0  0  0
 18 19  1  0  0  0  0
 18 52  1  0  0  0  0
 18 53  1  0  0  0  0
 19 21  1  0  0  0  0
 19 22  2  0  0  0  0
 21 23  1  0  0  0  0
 21 24  2  0  0  0  0
 22 54  1  0  0  0  0
 23 25  2  0  0  0  0
 24 28  1  0  0  0  0
 24 56  1  0  0  0  0
 25 29  1  0  0  0  0
 25 57  1  0  0  0  0
 26 30  1  0  0  0  0
 26 58  1  0  0  0  0
 26 59  1  0  0  0  0
 27 60  1  0  0  0  0
 27 61  1  0  0  0  0
 27 62  1  0  0  0  0
 28 29  2  0  0  0  0
 28 63  1  0  0  0  0
 29 64  1  0  0  0  0
 30 31  2  0  0  0  0
 30 32  1  0  0  0  0
 31 33  1  0  0  0  0
 31 65  1  0  0  0  0
 32 34  2  0  0  0  0
 32 66  1  0  0  0  0
 33 35  2  0  0  0  0
 33 67  1  0  0  0  0
 34 35  1  0  0  0  0
 34 68  1  0  0  0  0
 36 69  1  0  0  0  0
 36 70  1  0  0  0  0
 36 71  1  0  0  0  0
M  END
> <PUBCHEM_COMPOUND_CID>
45360665

> <PUBCHEM_CONFORMER_RMSD>
1.4

> <PUBCHEM_CONFORMER_DIVERSEORDER>
1
54
141
61
6
30
147
84
38
125
53
150
44
120
105
136
111
73
117
142
66
34
100
138
11
152
49
78
116
144
33
87
48
93
126
132
98
131
86
64
82
12
77
56
109
108
29
35
135
90
89
96
151
112
145
128
154
149
24
83
37
127
113
7
18
21
118
91
39
122
10
14
40
119
36
95
20
143
146
46
47
101
148
76
137
13
67
55
88
139
123
153
23
130
94
22
27
42
65
133
97
72
110
85
52
80
106
43
31
115
155
50
15
129
8
57
134
79
102
70
99
2
58
26
124
140
19
17
114
74
3
60
41
75
5
51
28
32
71
121
25
81
9
92
103
45
59
16
62
63
107
4
69
68
104

> <PUBCHEM_MMFF94_PARTIAL_CHARGES>
45
1 -0.57
10 0.27
12 0.27
13 0.27
14 0.3
15 0.57
17 0.06
18 0.45
19 -0.18
2 -0.57
20 0.57
22 -0.3
23 -0.15
24 -0.15
25 -0.15
26 0.44
27 0.26
28 -0.15
29 -0.15
3 -0.36
30 -0.14
31 -0.15
32 -0.15
33 -0.15
34 -0.15
35 0.08
36 0.28
4 -0.81
48 0.36
49 0.37
5 -0.9
54 0.15
55 0.37
56 0.15
57 0.15
6 -0.73
63 0.15
64 0.15
65 0.15
66 0.15
67 0.15
68 0.15
7 0.05
8 -0.73
9 0.33

> <PUBCHEM_EFFECTIVE_ROTOR_COUNT>
11.2

> <PUBCHEM_PHARMACOPHORE_FEATURES>
14
1 1 acceptor
1 2 acceptor
1 3 acceptor
1 4 cation
1 5 cation
1 5 donor
1 6 donor
1 7 cation
1 8 donor
5 4 9 10 11 13 rings
5 7 19 21 22 23 rings
6 21 23 24 25 28 29 rings
6 30 31 32 33 34 35 rings
6 4 6 9 12 14 15 rings

> <PUBCHEM_HEAVY_ATOM_COUNT>
36

> <PUBCHEM_ATOM_DEF_STEREO_COUNT>
3

> <PUBCHEM_ATOM_UDEF_STEREO_COUNT>
0

> <PUBCHEM_BOND_DEF_STEREO_COUNT>
0

> <PUBCHEM_BOND_UDEF_STEREO_COUNT>
0

> <PUBCHEM_ISOTOPIC_ATOM_COUNT>
0

> <PUBCHEM_COMPONENT_COUNT>
1

> <PUBCHEM_CACTVS_TAUTO_COUNT>
6

> <PUBCHEM_CONFORMER_ID>
02B4261900000001

> <PUBCHEM_MMFF94_ENERGY>
81.0912

> <PUBCHEM_FEATURE_SELFOVERLAP>
71.328

> <PUBCHEM_SHAPE_FINGERPRINT>
10554248 39 17676779674130888662
10577160 103 17896602984366063972
11007060 377 16950279594205631993
12373685 5 17821999918658249346
12422481 6 9511460048074083192
12988421 55 12901827135055825517
13692115 27 16412922015298744958
13941219 33 10879993553646867796
14068700 675 17203323450732135832
14340393 91 18412262852624341618
14400156 147 17340400823750618679
14932701 244 18411421696248724509
15183329 4 17458059340159505810
15461852 350 18342743997223894404
22440779 20 16487258755575902739
3117164 225 9079104575161596582
3383291 50 16225771839105879355
3552219 110 17702960256235180225
4015057 19 18408608050436497168
4098825 35 18334571369458610606
4938544 92 8286188466393103261
504579 68 18340497733670695646
6086070 43 15357699742629201516
70634741 139 18272086106398046646

> <PUBCHEM_SHAPE_MULTIPOLES>
698.35
21.86
4.18
2.39
38.38
0.43
-1.88
7.96
11.65
-5.4
0.11
-3.56
-0.42
-1.36

> <PUBCHEM_SHAPE_SELFOVERLAP>
1501.482

> <PUBCHEM_SHAPE_VOLUME>
386.8

> <PUBCHEM_COORDINATE_TYPE>
2
5
10

$$$$
