75536074
  -OEChem-12032416293D

 40 42  0     1  0  0  0  0  0999 V2000
   -0.9359   -3.5147   -0.8444 O   0  0  0  0  0  0  0  0  0  0  0  0
   -3.2207   -1.9948   -0.7478 O   0  0  0  0  0  0  0  0  0  0  0  0
    1.4472    0.3915   -1.4319 O   0  0  0  0  0  0  0  0  0  0  0  0
    0.9621   -1.2561    0.1200 N   0  0  0  0  0  0  0  0  0  0  0  0
   -0.8734    3.4623    0.6922 N   0  0  0  0  0  0  0  0  0  0  0  0
   -0.4679   -1.2481   -0.0567 C   0  0  2  0  0  0  0  0  0  0  0  0
   -1.1712   -0.3107    0.9508 C   0  0  2  0  0  0  0  0  0  0  0  0
   -1.0867   -2.6141    0.2368 C   0  0  1  0  0  0  0  0  0  0  0  0
   -2.5046   -1.0109    1.3198 C   0  0  0  0  0  0  0  0  0  0  0  0
   -2.5550   -2.2842    0.4776 C   0  0  1  0  0  0  0  0  0  0  0  0
    3.2992   -0.6312   -0.2285 C   0  0  0  0  0  0  0  0  0  0  0  0
    4.3314    0.3786   -0.7956 C   0  0  0  0  0  0  0  0  0  0  0  0
    3.7633   -0.1745    1.1792 C   0  0  0  0  0  0  0  0  0  0  0  0
    5.0978    0.2437    0.5337 C   0  0  0  0  0  0  0  0  0  0  0  0
   -1.3314    1.1027    0.4324 C   0  0  0  0  0  0  0  0  0  0  0  0
    1.8248   -0.4274   -0.5876 C   0  0  0  0  0  0  0  0  0  0  0  0
   -2.0504    1.3627   -0.7291 C   0  0  0  0  0  0  0  0  0  0  0  0
   -0.7675    2.1778    1.1003 C   0  0  0  0  0  0  0  0  0  0  0  0
   -2.1815    2.6713   -1.1808 C   0  0  0  0  0  0  0  0  0  0  0  0
   -1.5796    3.6761   -0.4406 C   0  0  0  0  0  0  0  0  0  0  0  0
   -0.6705   -0.9721   -1.0988 H   0  0  0  0  0  0  0  0  0  0  0  0
   -0.5720   -0.2663    1.8723 H   0  0  0  0  0  0  0  0  0  0  0  0
   -0.6402   -3.0626    1.1334 H   0  0  0  0  0  0  0  0  0  0  0  0
   -2.4689   -1.2833    2.3821 H   0  0  0  0  0  0  0  0  0  0  0  0
   -3.3816   -0.3722    1.1707 H   0  0  0  0  0  0  0  0  0  0  0  0
   -3.0904   -3.1032    0.9670 H   0  0  0  0  0  0  0  0  0  0  0  0
    3.6071   -1.6670   -0.4398 H   0  0  0  0  0  0  0  0  0  0  0  0
    1.3547   -1.8726    0.8259 H   0  0  0  0  0  0  0  0  0  0  0  0
    4.8751    0.0508   -1.6856 H   0  0  0  0  0  0  0  0  0  0  0  0
    3.9373    1.3864   -0.9716 H   0  0  0  0  0  0  0  0  0  0  0  0
    3.8339   -0.9624    1.9338 H   0  0  0  0  0  0  0  0  0  0  0  0
    3.1903    0.6639    1.5927 H   0  0  0  0  0  0  0  0  0  0  0  0
    5.5469    1.1618    0.9202 H   0  0  0  0  0  0  0  0  0  0  0  0
    5.8529   -0.5506    0.5285 H   0  0  0  0  0  0  0  0  0  0  0  0
   -1.4323   -4.3212   -0.6237 H   0  0  0  0  0  0  0  0  0  0  0  0
   -4.1378   -1.7539   -0.5322 H   0  0  0  0  0  0  0  0  0  0  0  0
   -2.5184    0.5634   -1.2949 H   0  0  0  0  0  0  0  0  0  0  0  0
   -0.1936    2.0416    2.0116 H   0  0  0  0  0  0  0  0  0  0  0  0
   -2.7379    2.8976   -2.0831 H   0  0  0  0  0  0  0  0  0  0  0  0
   -1.6525    4.7135   -0.7502 H   0  0  0  0  0  0  0  0  0  0  0  0
  1  8  1  0  0  0  0
  1 35  1  0  0  0  0
  2 10  1  0  0  0  0
  2 36  1  0  0  0  0
  3 16  2  0  0  0  0
  4  6  1  0  0  0  0
  4 16  1  0  0  0  0
  4 28  1  0  0  0  0
  5 18  1  0  0  0  0
  5 20  2  0  0  0  0
  6  7  1  0  0  0  0
  6  8  1  0  0  0  0
  6 21  1  0  0  0  0
  7  9  1  0  0  0  0
  7 15  1  0  0  0  0
  7 22  1  0  0  0  0
  8 10  1  0  0  0  0
  8 23  1  0  0  0  0
  9 10  1  0  0  0  0
  9 24  1  0  0  0  0
  9 25  1  0  0  0  0
 10 26  1  0  0  0  0
 11 12  1  0  0  0  0
 11 13  1  0  0  0  0
 11 16  1  0  0  0  0
 11 27  1  0  0  0  0
 12 14  1  0  0  0  0
 12 29  1  0  0  0  0
 12 30  1  0  0  0  0
 13 14  1  0  0  0  0
 13 31  1  0  0  0  0
 13 32  1  0  0  0  0
 14 33  1  0  0  0  0
 14 34  1  0  0  0  0
 15 17  1  0  0  0  0
 15 18  2  0  0  0  0
 17 19  2  0  0  0  0
 17 37  1  0  0  0  0
 18 38  1  0  0  0  0
 19 20  1  0  0  0  0
 19 39  1  0  0  0  0
 20 40  1  0  0  0  0
M  END
> <PUBCHEM_COMPOUND_CID>
75536074

> <PUBCHEM_CONFORMER_RMSD>
0.8

> <PUBCHEM_CONFORMER_DIVERSEORDER>
1
4
33
24
12
14
8
26
21
28
13
5
17
32
30
11
3
23
31
22
25
20
18
16
2
15
19
7
29
10
6
27
9
34

> <PUBCHEM_MMFF94_PARTIAL_CHARGES>
23
1 -0.68
10 0.28
11 0.05
15 -0.14
16 0.58
17 -0.15
18 0.16
19 -0.15
2 -0.68
20 0.16
28 0.37
3 -0.57
35 0.4
36 0.4
37 0.15
38 0.15
39 0.15
4 -0.73
40 0.15
5 -0.62
6 0.3
7 0.14
8 0.28

> <PUBCHEM_EFFECTIVE_ROTOR_COUNT>
5.8

> <PUBCHEM_PHARMACOPHORE_FEATURES>
10
1 1 acceptor
1 1 donor
1 2 acceptor
1 2 donor
1 3 acceptor
1 4 donor
1 5 acceptor
4 11 12 13 14 rings
5 6 7 8 9 10 rings
6 5 15 17 18 19 20 rings

> <PUBCHEM_HEAVY_ATOM_COUNT>
20

> <PUBCHEM_ATOM_DEF_STEREO_COUNT>
4

> <PUBCHEM_ATOM_UDEF_STEREO_COUNT>
0

> <PUBCHEM_BOND_DEF_STEREO_COUNT>
0

> <PUBCHEM_BOND_UDEF_STEREO_COUNT>
0

> <PUBCHEM_ISOTOPIC_ATOM_COUNT>
0

> <PUBCHEM_COMPONENT_COUNT>
1

> <PUBCHEM_CACTVS_TAUTO_COUNT>
2

> <PUBCHEM_CONFORMER_ID>
048096CA00000001

> <PUBCHEM_MMFF94_ENERGY>
53.3798

> <PUBCHEM_FEATURE_SELFOVERLAP>
50.758

> <PUBCHEM_SHAPE_FINGERPRINT>
10165383 225 17188464453115838216
10670039 82 18191883412813273380
10989021 7 18124882523140399315
11370993 70 18048307852131684316
11578080 2 17609473266476551413
11833330 49 18335695100169396585
12035758 1 18411141363975999081
12553582 1 18194421088931784030
12643181 29 17977953376769899094
12788726 201 18261105300935921786
13004483 165 18335412530107868234
13140716 1 18265064702262602649
13296909 8 18407759240169863924
133893 2 17402346252645489115
13583140 156 17773573019824071058
14081887 123 18412255151879705816
14142880 1 17968372351564131661
14181834 199 17481708976215990703
14614273 12 18340217288689699779
16752209 62 18334848424887638498
17357779 13 18200015378302661381
1741750 31 18265051319397865048
20510252 161 18411422799823126410
20600515 1 17914353499799679274
21029758 27 18192724555538668515
21304303 282 17830695860667853845
21339142 126 18409731793631167635
21339142 36 18340199786650177485
21524375 3 17829049810072077257
22907989 373 18408608058577694700
22956985 138 16748465652847245946
2306618 200 18272093781451915970
23366157 5 17253991364781091467
23402539 116 18201153355658151055
23419403 2 17415818414022736073
23557571 272 18272384074149452798
23559900 14 18199467676232473710
257057 1 18122063379611024014
2748010 2 17614588954930987785
350125 39 17977967690824251355
474 4 17472693629065586257
81228 2 18268171849208714067
84936 182 17476912459634761032
90316 7 18338525247420730746
9981440 41 18194951946836562882

> <PUBCHEM_SHAPE_MULTIPOLES>
384.02
6.67
4.13
1.23
11.43
1.26
0.04
0.23
0.22
-5.12
-0.48
-0.07
0.19
0.31

> <PUBCHEM_SHAPE_SELFOVERLAP>
811.044

> <PUBCHEM_SHAPE_VOLUME>
215.9

> <PUBCHEM_COORDINATE_TYPE>
2
5
10

$$$$
