9424347
  -OEChem-12032416153D

 49 52  0     1  0  0  0  0  0999 V2000
    4.3170   -0.2172    0.1465 F   0  0  0  0  0  0  0  0  0  0  0  0
    0.0546    3.2393    2.7272 O   0  0  0  0  0  0  0  0  0  0  0  0
   -3.6259    1.3830   -0.5520 O   0  0  0  0  0  0  0  0  0  0  0  0
   -5.2644   -2.8785    1.2537 O   0  0  0  0  0  0  0  0  0  0  0  0
   -3.2107   -3.3804    0.4201 O   0  0  0  0  0  0  0  0  0  0  0  0
   -1.5214    1.0977   -1.4937 N   0  0  0  0  0  0  0  0  0  0  0  0
    0.5196    2.1127    0.7270 N   0  0  0  0  0  0  0  0  0  0  0  0
   -0.0761    3.1252   -1.5517 C   0  0  1  0  0  0  0  0  0  0  0  0
    0.9594    0.8992   -1.4307 C   0  0  2  0  0  0  0  0  0  0  0  0
    1.0808    2.2832   -2.0663 C   0  0  0  0  0  0  0  0  0  0  0  0
   -1.4244    2.4905   -1.9303 C   0  0  0  0  0  0  0  0  0  0  0  0
    0.0754    3.2857   -0.0385 C   0  0  0  0  0  0  0  0  0  0  0  0
   -0.3757    0.2538   -1.8576 C   0  0  0  0  0  0  0  0  0  0  0  0
    1.0490    0.9692    0.0963 C   0  0  0  0  0  0  0  0  0  0  0  0
    1.5870   -0.0284    0.8454 C   0  0  0  0  0  0  0  0  0  0  0  0
    0.4918    2.2580    2.1255 C   0  0  0  0  0  0  0  0  0  0  0  0
   -2.6751    0.6543   -0.8478 C   0  0  0  0  0  0  0  0  0  0  0  0
    1.5728    0.0850    2.2915 C   0  0  0  0  0  0  0  0  0  0  0  0
    1.0522    1.1401    2.9177 C   0  0  0  0  0  0  0  0  0  0  0  0
    2.1714   -1.2389    0.2276 C   0  0  0  0  0  0  0  0  0  0  0  0
   -2.7310   -0.8101   -0.4934 C   0  0  0  0  0  0  0  0  0  0  0  0
   -4.0428   -1.1226    0.1981 C   0  0  0  0  0  0  0  0  0  0  0  0
    3.5250   -1.2721   -0.0947 C   0  0  0  0  0  0  0  0  0  0  0  0
    1.3586   -2.3396   -0.0273 C   0  0  0  0  0  0  0  0  0  0  0  0
    4.0705   -2.4163   -0.6769 C   0  0  0  0  0  0  0  0  0  0  0  0
    1.9042   -3.4836   -0.6097 C   0  0  0  0  0  0  0  0  0  0  0  0
   -4.1020   -2.5674    0.6285 C   0  0  0  0  0  0  0  0  0  0  0  0
    3.2602   -3.5220   -0.9345 C   0  0  0  0  0  0  0  0  0  0  0  0
   -0.0391    4.1210   -2.0104 H   0  0  0  0  0  0  0  0  0  0  0  0
    1.7767    0.2936   -1.8377 H   0  0  0  0  0  0  0  0  0  0  0  0
    2.0425    2.7455   -1.8108 H   0  0  0  0  0  0  0  0  0  0  0  0
    1.0417    2.2075   -3.1598 H   0  0  0  0  0  0  0  0  0  0  0  0
   -2.2499    3.0837   -1.5228 H   0  0  0  0  0  0  0  0  0  0  0  0
   -1.5409    2.4877   -3.0211 H   0  0  0  0  0  0  0  0  0  0  0  0
    0.8267    4.0638    0.1556 H   0  0  0  0  0  0  0  0  0  0  0  0
   -0.8594    3.6574    0.4005 H   0  0  0  0  0  0  0  0  0  0  0  0
   -0.4025    0.1453   -2.9493 H   0  0  0  0  0  0  0  0  0  0  0  0
   -0.4695   -0.7506   -1.4475 H   0  0  0  0  0  0  0  0  0  0  0  0
    1.9923   -0.7292    2.8751 H   0  0  0  0  0  0  0  0  0  0  0  0
    1.0408    1.2138    3.9987 H   0  0  0  0  0  0  0  0  0  0  0  0
   -1.8975   -1.0423    0.1788 H   0  0  0  0  0  0  0  0  0  0  0  0
   -2.6320   -1.4090   -1.4056 H   0  0  0  0  0  0  0  0  0  0  0  0
   -4.1625   -0.5047    1.0958 H   0  0  0  0  0  0  0  0  0  0  0  0
   -4.8859   -0.9344   -0.4767 H   0  0  0  0  0  0  0  0  0  0  0  0
    0.3028   -2.3313    0.2300 H   0  0  0  0  0  0  0  0  0  0  0  0
    5.1263   -2.4459   -0.9297 H   0  0  0  0  0  0  0  0  0  0  0  0
    1.2737   -4.3455   -0.8080 H   0  0  0  0  0  0  0  0  0  0  0  0
    3.6851   -4.4130   -1.3875 H   0  0  0  0  0  0  0  0  0  0  0  0
   -5.2961   -3.8223    1.5194 H   0  0  0  0  0  0  0  0  0  0  0  0
  1 23  1  0  0  0  0
  2 16  2  0  0  0  0
  3 17  2  0  0  0  0
  4 27  1  0  0  0  0
  4 49  1  0  0  0  0
  5 27  2  0  0  0  0
  6 11  1  0  0  0  0
  6 13  1  0  0  0  0
  6 17  1  0  0  0  0
  7 12  1  0  0  0  0
  7 14  1  0  0  0  0
  7 16  1  0  0  0  0
  8 10  1  0  0  0  0
  8 11  1  0  0  0  0
  8 12  1  0  0  0  0
  8 29  1  0  0  0  0
  9 10  1  0  0  0  0
  9 13  1  0  0  0  0
  9 14  1  0  0  0  0
  9 30  1  0  0  0  0
 10 31  1  0  0  0  0
 10 32  1  0  0  0  0
 11 33  1  0  0  0  0
 11 34  1  0  0  0  0
 12 35  1  0  0  0  0
 12 36  1  0  0  0  0
 13 37  1  0  0  0  0
 13 38  1  0  0  0  0
 14 15  2  0  0  0  0
 15 18  1  0  0  0  0
 15 20  1  0  0  0  0
 16 19  1  0  0  0  0
 17 21  1  0  0  0  0
 18 19  2  0  0  0  0
 18 39  1  0  0  0  0
 19 40  1  0  0  0  0
 20 23  1  0  0  0  0
 20 24  2  0  0  0  0
 21 22  1  0  0  0  0
 21 41  1  0  0  0  0
 21 42  1  0  0  0  0
 22 27  1  0  0  0  0
 22 43  1  0  0  0  0
 22 44  1  0  0  0  0
 23 25  2  0  0  0  0
 24 26  1  0  0  0  0
 24 45  1  0  0  0  0
 25 28  1  0  0  0  0
 25 46  1  0  0  0  0
 26 28  2  0  0  0  0
 26 47  1  0  0  0  0
 28 48  1  0  0  0  0
M  END
> <PUBCHEM_COMPOUND_CID>
9424347

> <PUBCHEM_CONFORMER_RMSD>
0.8

> <PUBCHEM_CONFORMER_DIVERSEORDER>
1
15
20
8
16
12
2
22
6
21
11
9
14
10
4
18
19
3
17
13
7
23
5

> <PUBCHEM_MMFF94_PARTIAL_CHARGES>
33
1 -0.19
11 0.3
12 0.3
13 0.3
14 -0.03
15 -0.03
16 0.62
17 0.57
18 -0.15
19 -0.14
2 -0.57
20 0.03
21 0.06
22 0.06
23 0.19
24 -0.15
25 -0.15
26 -0.15
27 0.66
28 -0.15
3 -0.57
39 0.15
4 -0.65
40 0.15
45 0.15
46 0.15
47 0.15
48 0.15
49 0.5
5 -0.57
6 -0.66
7 -0.47
9 0.14

> <PUBCHEM_EFFECTIVE_ROTOR_COUNT>
6

> <PUBCHEM_PHARMACOPHORE_FEATURES>
9
1 2 acceptor
1 3 acceptor
1 4 acceptor
1 5 acceptor
3 4 5 27 anion
6 20 23 24 25 26 28 rings
6 6 8 9 10 11 13 rings
6 7 14 15 16 18 19 rings
6 7 8 9 10 12 14 rings

> <PUBCHEM_HEAVY_ATOM_COUNT>
28

> <PUBCHEM_ATOM_DEF_STEREO_COUNT>
2

> <PUBCHEM_ATOM_UDEF_STEREO_COUNT>
0

> <PUBCHEM_BOND_DEF_STEREO_COUNT>
0

> <PUBCHEM_BOND_UDEF_STEREO_COUNT>
0

> <PUBCHEM_ISOTOPIC_ATOM_COUNT>
0

> <PUBCHEM_COMPONENT_COUNT>
1

> <PUBCHEM_CACTVS_TAUTO_COUNT>
1

> <PUBCHEM_CONFORMER_ID>
008FCDDB00000001

> <PUBCHEM_MMFF94_ENERGY>
70.5521

> <PUBCHEM_FEATURE_SELFOVERLAP>
47.295

> <PUBCHEM_SHAPE_FINGERPRINT>
10064457 181 17479166913505749953
10764073 3 11958637481867697620
12156800 1 16911207275881155518
12539773 59 14740650088841764655
13135754 10 17056987073312136942
13533116 47 18198065975191135811
14142880 1 11640217385096850817
15484559 13 15435392527333573983
17349148 13 14780965027541896680
17974551 9 17702941436184413481
19315092 285 17415838252915220731
1979834 28 17905326583178582491
20600515 1 18195260918405159053
20775530 9 18409731746756091291
21315764 371 17049365658589167395
21421861 104 17461152430062318281
22907989 373 13843979973951215988
23466295 7 17906187152099703358
23559900 14 18263074561285391735
35225 105 16695292754577638155
550186 83 16407665155938541867
6287921 2 18051975015547585075
6823239 73 17750511957026201939
70634741 139 17905886977711423362

> <PUBCHEM_SHAPE_MULTIPOLES>
535.51
6.76
5
2.4
2.35
1.72
1.38
9.21
-0.18
2.1
0.18
-0.14
-2.29
2.33

> <PUBCHEM_SHAPE_SELFOVERLAP>
1166.489

> <PUBCHEM_SHAPE_VOLUME>
289.3

> <PUBCHEM_COORDINATE_TYPE>
2
5
10

$$$$
