51138156
  -OEChem-12032416253D

 66 70  0     1  0  0  0  0  0999 V2000
   -2.4822    2.5460   -0.1952 O   0  0  0  0  0  0  0  0  0  0  0  0
    7.3758    0.0979   -1.1521 O   0  0  0  0  0  0  0  0  0  0  0  0
   -5.5467    1.4162   -0.7793 O   0  0  0  0  0  0  0  0  0  0  0  0
   -1.2849   -0.2893   -0.0791 N   0  0  0  0  0  0  0  0  0  0  0  0
    3.5205    0.7340    1.0891 N   0  0  0  0  0  0  0  0  0  0  0  0
   -3.4540    1.2358    1.4656 N   0  0  0  0  0  0  0  0  0  0  0  0
    6.8204    0.0296    0.1199 N   0  0  0  0  0  0  0  0  0  0  0  0
   -0.7210   -1.5486    0.4254 C   0  0  2  0  0  0  0  0  0  0  0  0
    0.7898   -1.5510    0.6796 C   0  0  0  0  0  0  0  0  0  0  0  0
    1.6043   -0.3875    0.7942 C   0  0  0  0  0  0  0  0  0  0  0  0
   -1.1783    0.8356    0.8389 C   0  0  1  0  0  0  0  0  0  0  0  0
   -1.1472   -2.6074   -0.6075 C   0  0  0  0  0  0  0  0  0  0  0  0
    1.3435    1.0254    0.7354 C   0  0  0  0  0  0  0  0  0  0  0  0
    0.0343    1.7076    0.5192 C   0  0  0  0  0  0  0  0  0  0  0  0
    2.9749   -0.5270    1.0418 C   0  0  0  0  0  0  0  0  0  0  0  0
   -2.6170   -3.0174   -0.4723 C   0  0  0  0  0  0  0  0  0  0  0  0
    2.5489    1.6742    0.9122 C   0  0  0  0  0  0  0  0  0  0  0  0
    1.4392   -2.7928    0.8977 C   0  0  0  0  0  0  0  0  0  0  0  0
   -2.4274    1.6353    0.6270 C   0  0  0  0  0  0  0  0  0  0  0  0
    3.6044   -1.7618    1.2075 C   0  0  0  0  0  0  0  0  0  0  0  0
    4.9173    1.0399    1.3136 C   0  0  0  0  0  0  0  0  0  0  0  0
    2.8069   -2.8971    1.1438 C   0  0  0  0  0  0  0  0  0  0  0  0
   -3.5763   -1.8408   -0.6574 C   0  0  0  0  0  0  0  0  0  0  0  0
   -2.9329   -4.1085   -1.4981 C   0  0  0  0  0  0  0  0  0  0  0  0
    5.7737    0.8591    0.0850 C   0  0  0  0  0  0  0  0  0  0  0  0
   -4.7561    1.8623    1.4752 C   0  0  0  0  0  0  0  0  0  0  0  0
    5.6207    1.4729   -1.1702 C   0  0  0  0  0  0  0  0  0  0  0  0
   -5.7167    1.1761    0.5475 C   0  0  0  0  0  0  0  0  0  0  0  0
    6.6527    0.9605   -1.9111 C   0  0  0  0  0  0  0  0  0  0  0  0
   -6.7761    0.3228    0.7523 C   0  0  0  0  0  0  0  0  0  0  0  0
    7.1043    1.1534   -3.2943 C   0  0  0  0  0  0  0  0  0  0  0  0
   -6.5078    0.7084   -1.4286 C   0  0  0  0  0  0  0  0  0  0  0  0
   -7.2897    0.0189   -0.5311 C   0  0  0  0  0  0  0  0  0  0  0  0
   -6.5173    0.8175   -2.8944 C   0  0  0  0  0  0  0  0  0  0  0  0
   -1.1930   -1.7910    1.3874 H   0  0  0  0  0  0  0  0  0  0  0  0
   -1.1390    0.5085    1.8867 H   0  0  0  0  0  0  0  0  0  0  0  0
   -0.9404   -2.2535   -1.6285 H   0  0  0  0  0  0  0  0  0  0  0  0
   -0.5619   -3.5269   -0.5170 H   0  0  0  0  0  0  0  0  0  0  0  0
    0.0033    2.0591   -0.5218 H   0  0  0  0  0  0  0  0  0  0  0  0
   -0.0015    2.6112    1.1437 H   0  0  0  0  0  0  0  0  0  0  0  0
   -0.8975   -0.0573   -0.9929 H   0  0  0  0  0  0  0  0  0  0  0  0
   -2.7817   -3.4429    0.5258 H   0  0  0  0  0  0  0  0  0  0  0  0
    2.7812    2.7311    0.9267 H   0  0  0  0  0  0  0  0  0  0  0  0
    0.8702   -3.7195    0.9124 H   0  0  0  0  0  0  0  0  0  0  0  0
    4.6675   -1.8472    1.4034 H   0  0  0  0  0  0  0  0  0  0  0  0
    5.2686    0.4147    2.1429 H   0  0  0  0  0  0  0  0  0  0  0  0
    4.9884    2.0812    1.6508 H   0  0  0  0  0  0  0  0  0  0  0  0
    3.2523   -3.8763    1.2985 H   0  0  0  0  0  0  0  0  0  0  0  0
   -4.6027   -2.2057   -0.7834 H   0  0  0  0  0  0  0  0  0  0  0  0
   -3.5995   -1.2050    0.2286 H   0  0  0  0  0  0  0  0  0  0  0  0
   -3.3369   -1.2456   -1.5444 H   0  0  0  0  0  0  0  0  0  0  0  0
   -2.2785   -4.9761   -1.3617 H   0  0  0  0  0  0  0  0  0  0  0  0
   -3.9664   -4.4553   -1.3921 H   0  0  0  0  0  0  0  0  0  0  0  0
   -2.8028   -3.7419   -2.5221 H   0  0  0  0  0  0  0  0  0  0  0  0
   -3.3080    0.4508    2.0938 H   0  0  0  0  0  0  0  0  0  0  0  0
   -5.1312    1.8190    2.5029 H   0  0  0  0  0  0  0  0  0  0  0  0
   -4.6574    2.9158    1.1920 H   0  0  0  0  0  0  0  0  0  0  0  0
    4.8730    2.1830   -1.4916 H   0  0  0  0  0  0  0  0  0  0  0  0
   -7.1344   -0.0370    1.7061 H   0  0  0  0  0  0  0  0  0  0  0  0
    6.4617    1.8631   -3.8245 H   0  0  0  0  0  0  0  0  0  0  0  0
    7.0854    0.2056   -3.8411 H   0  0  0  0  0  0  0  0  0  0  0  0
    8.1271    1.5420   -3.3148 H   0  0  0  0  0  0  0  0  0  0  0  0
   -8.1255   -0.6234   -0.7690 H   0  0  0  0  0  0  0  0  0  0  0  0
   -7.3312    0.2291   -3.3294 H   0  0  0  0  0  0  0  0  0  0  0  0
   -5.5739    0.4523   -3.3121 H   0  0  0  0  0  0  0  0  0  0  0  0
   -6.6500    1.8593   -3.2019 H   0  0  0  0  0  0  0  0  0  0  0  0
  1 19  2  0  0  0  0
  2  7  1  0  0  0  0
  2 29  1  0  0  0  0
  3 28  1  0  0  0  0
  3 32  1  0  0  0  0
  4  8  1  0  0  0  0
  4 11  1  0  0  0  0
  4 41  1  0  0  0  0
  5 15  1  0  0  0  0
  5 17  1  0  0  0  0
  5 21  1  0  0  0  0
  6 19  1  0  0  0  0
  6 26  1  0  0  0  0
  6 55  1  0  0  0  0
  7 25  2  0  0  0  0
  8  9  1  0  0  0  0
  8 12  1  0  0  0  0
  8 35  1  0  0  0  0
  9 10  2  0  0  0  0
  9 18  1  0  0  0  0
 10 13  1  0  0  0  0
 10 15  1  0  0  0  0
 11 14  1  0  0  0  0
 11 19  1  0  0  0  0
 11 36  1  0  0  0  0
 12 16  1  0  0  0  0
 12 37  1  0  0  0  0
 12 38  1  0  0  0  0
 13 14  1  0  0  0  0
 13 17  2  0  0  0  0
 14 39  1  0  0  0  0
 14 40  1  0  0  0  0
 15 20  2  0  0  0  0
 16 23  1  0  0  0  0
 16 24  1  0  0  0  0
 16 42  1  0  0  0  0
 17 43  1  0  0  0  0
 18 22  2  0  0  0  0
 18 44  1  0  0  0  0
 20 22  1  0  0  0  0
 20 45  1  0  0  0  0
 21 25  1  0  0  0  0
 21 46  1  0  0  0  0
 21 47  1  0  0  0  0
 22 48  1  0  0  0  0
 23 49  1  0  0  0  0
 23 50  1  0  0  0  0
 23 51  1  0  0  0  0
 24 52  1  0  0  0  0
 24 53  1  0  0  0  0
 24 54  1  0  0  0  0
 25 27  1  0  0  0  0
 26 28  1  0  0  0  0
 26 56  1  0  0  0  0
 26 57  1  0  0  0  0
 27 29  2  0  0  0  0
 27 58  1  0  0  0  0
 28 30  2  0  0  0  0
 29 31  1  0  0  0  0
 30 33  1  0  0  0  0
 30 59  1  0  0  0  0
 31 60  1  0  0  0  0
 31 61  1  0  0  0  0
 31 62  1  0  0  0  0
 32 33  2  0  0  0  0
 32 34  1  0  0  0  0
 33 63  1  0  0  0  0
 34 64  1  0  0  0  0
 34 65  1  0  0  0  0
 34 66  1  0  0  0  0
M  END
> <PUBCHEM_COMPOUND_CID>
51138156

> <PUBCHEM_CONFORMER_RMSD>
1.4

> <PUBCHEM_CONFORMER_DIVERSEORDER>
1
49
33
10
47
27
39
19
36
52
57
58
11
59
14
20
6
48
37
31
43
30
9
4
26
28
51
18
7
46
24
42
23
54
62
56
29
32
44
25
21
45
53
16
12
34
8
17
35
38
2
60
13
15
40
61
50
41
3
5
22
55

> <PUBCHEM_MMFF94_PARTIAL_CHARGES>
38
1 -0.57
11 0.33
13 -0.18
14 0.18
15 -0.15
17 -0.3
18 -0.15
19 0.57
2 -0.02
20 -0.15
21 0.44
22 -0.15
25 0.11
26 0.48
27 -0.15
28 -0.04
29 -0.04
3 -0.28
30 -0.15
31 0.18
32 -0.04
33 -0.15
34 0.18
4 -0.9
41 0.36
43 0.15
44 0.15
45 0.15
48 0.15
5 0.05
55 0.37
58 0.15
59 0.15
6 -0.73
63 0.15
7 -0.41
8 0.41
9 -0.14

> <PUBCHEM_EFFECTIVE_ROTOR_COUNT>
8.8

> <PUBCHEM_PHARMACOPHORE_FEATURES>
13
1 1 acceptor
1 3 acceptor
1 4 cation
1 4 donor
1 5 cation
1 6 donor
1 7 acceptor
3 16 23 24 hydrophobe
5 2 7 25 27 29 rings
5 3 28 30 32 33 rings
5 5 10 13 15 17 rings
6 9 10 15 18 20 22 rings
7 4 8 9 10 11 13 14 rings

> <PUBCHEM_HEAVY_ATOM_COUNT>
34

> <PUBCHEM_ATOM_DEF_STEREO_COUNT>
2

> <PUBCHEM_ATOM_UDEF_STEREO_COUNT>
0

> <PUBCHEM_BOND_DEF_STEREO_COUNT>
0

> <PUBCHEM_BOND_UDEF_STEREO_COUNT>
0

> <PUBCHEM_ISOTOPIC_ATOM_COUNT>
0

> <PUBCHEM_COMPONENT_COUNT>
1

> <PUBCHEM_CACTVS_TAUTO_COUNT>
2

> <PUBCHEM_CONFORMER_ID>
030C4E6C00000001

> <PUBCHEM_MMFF94_ENERGY>
54.4279

> <PUBCHEM_FEATURE_SELFOVERLAP>
66.103

> <PUBCHEM_SHAPE_FINGERPRINT>
10119406 146 17846225453393555799
11007060 377 18272653454598732217
11991303 11 18187928425546517727
12788726 201 17703784791783720185
13692115 46 17774167940997300783
13782708 43 13901899008102896013
13911987 19 18338785738110386437
14294032 229 18334856074361991052
1454969 45 18260271841036294465
14840074 17 18333731299867922493
14931854 50 18059278912904177229
15131766 46 16589163804173505316
15183329 4 17989205940778803502
15352257 5 15913327991896422301
15629462 23 15913064087809826195
19319366 153 18187082811053000178
20028762 73 17844511229125489295
21344244 181 17275109427265589286
21583282 1 18114755845276917630
21792938 79 15720795934425913167
21814621 53 14045731613501197683
23559900 14 17916296311108097073
23569943 247 16412972339899796550
23576562 1 18190467245039700533
244849 19 16701727380581972690
25147074 1 18335127692610109058
27425 322 16805618009919239274
3103668 31 18047760574377549539
4058900 60 18186799188429318954
4258327 124 17895485807378868373
563151 40 18410584997654015498
59755656 215 18131355202364720502

> <PUBCHEM_SHAPE_MULTIPOLES>
662.17
19.99
3.42
2.07
2.44
3.7
1.85
-10.52
12.08
-2
0.26
1.33
-0.61
-2.59

> <PUBCHEM_SHAPE_SELFOVERLAP>
1433.859

> <PUBCHEM_SHAPE_VOLUME>
365.8

> <PUBCHEM_COORDINATE_TYPE>
2
5
10

$$$$
