75536721
  -OEChem-12032416333D

 43 43  0     1  0  0  0  0  0999 V2000
   -0.6587    1.0948   -0.6415 O   0  0  0  0  0  0  0  0  0  0  0  0
   -1.6996   -2.1426    0.5167 O   0  0  0  0  0  0  0  0  0  0  0  0
    2.8841   -1.3010    0.7022 O   0  0  0  0  0  0  0  0  0  0  0  0
   -4.0368   -0.2150   -0.3189 N   0  0  0  0  0  0  0  0  0  0  0  0
    1.9377   -0.0790   -1.0321 N   0  0  0  0  0  0  0  0  0  0  0  0
    4.0132    0.5085   -0.2114 N   0  0  0  0  0  0  0  0  0  0  0  0
   -2.6674    0.0571    0.0865 C   0  0  1  0  0  0  0  0  0  0  0  0
   -1.6819   -1.0158   -0.3381 C   0  0  1  0  0  0  0  0  0  0  0  0
   -0.3651   -0.2563   -0.2490 C   0  0  1  0  0  0  0  0  0  0  0  0
   -2.0834    1.2866   -0.5897 C   0  0  0  0  0  0  0  0  0  0  0  0
    0.7190   -0.8272   -1.1457 C   0  0  0  0  0  0  0  0  0  0  0  0
   -4.9753    0.6482    0.3882 C   0  0  0  0  0  0  0  0  0  0  0  0
   -5.2071    0.1321    1.8023 C   0  0  0  0  0  0  0  0  0  0  0  0
   -6.2857    0.7571   -0.3815 C   0  0  0  0  0  0  0  0  0  0  0  0
    2.9417   -0.3747   -0.1055 C   0  0  0  0  0  0  0  0  0  0  0  0
    5.1831    0.4240    0.6308 C   0  0  0  0  0  0  0  0  0  0  0  0
    5.7633    1.8115    0.8715 C   0  0  0  0  0  0  0  0  0  0  0  0
    6.2189   -0.5084    0.0151 C   0  0  0  0  0  0  0  0  0  0  0  0
   -2.5839    0.1608    1.1752 H   0  0  0  0  0  0  0  0  0  0  0  0
   -1.8782   -1.3480   -1.3652 H   0  0  0  0  0  0  0  0  0  0  0  0
   -0.0044   -0.2244    0.7875 H   0  0  0  0  0  0  0  0  0  0  0  0
   -2.4313    1.3984   -1.6232 H   0  0  0  0  0  0  0  0  0  0  0  0
   -2.3022    2.2130   -0.0503 H   0  0  0  0  0  0  0  0  0  0  0  0
   -4.2668   -1.1930   -0.1450 H   0  0  0  0  0  0  0  0  0  0  0  0
    0.4197   -0.7685   -2.1979 H   0  0  0  0  0  0  0  0  0  0  0  0
    0.9139   -1.8757   -0.8968 H   0  0  0  0  0  0  0  0  0  0  0  0
   -4.5804    1.6697    0.4555 H   0  0  0  0  0  0  0  0  0  0  0  0
   -1.5273   -1.8406    1.4246 H   0  0  0  0  0  0  0  0  0  0  0  0
    2.0712    0.7167   -1.6485 H   0  0  0  0  0  0  0  0  0  0  0  0
   -5.5837   -0.8973    1.7978 H   0  0  0  0  0  0  0  0  0  0  0  0
   -4.3029    0.1576    2.4172 H   0  0  0  0  0  0  0  0  0  0  0  0
   -5.9542    0.7492    2.3146 H   0  0  0  0  0  0  0  0  0  0  0  0
   -6.7735   -0.2190   -0.4825 H   0  0  0  0  0  0  0  0  0  0  0  0
   -6.1169    1.1560   -1.3879 H   0  0  0  0  0  0  0  0  0  0  0  0
   -6.9832    1.4295    0.1297 H   0  0  0  0  0  0  0  0  0  0  0  0
    4.0012    1.1940   -0.9606 H   0  0  0  0  0  0  0  0  0  0  0  0
    4.8776    0.0060    1.5976 H   0  0  0  0  0  0  0  0  0  0  0  0
    6.6304    1.7634    1.5384 H   0  0  0  0  0  0  0  0  0  0  0  0
    5.0179    2.4693    1.3318 H   0  0  0  0  0  0  0  0  0  0  0  0
    6.0804    2.2794   -0.0672 H   0  0  0  0  0  0  0  0  0  0  0  0
    6.5448   -0.1464   -0.9665 H   0  0  0  0  0  0  0  0  0  0  0  0
    7.1012   -0.5927    0.6581 H   0  0  0  0  0  0  0  0  0  0  0  0
    5.8070   -1.5137   -0.1258 H   0  0  0  0  0  0  0  0  0  0  0  0
  1  9  1  0  0  0  0
  1 10  1  0  0  0  0
  2  8  1  0  0  0  0
  2 28  1  0  0  0  0
  3 15  2  0  0  0  0
  4  7  1  0  0  0  0
  4 12  1  0  0  0  0
  4 24  1  0  0  0  0
  5 11  1  0  0  0  0
  5 15  1  0  0  0  0
  5 29  1  0  0  0  0
  6 15  1  0  0  0  0
  6 16  1  0  0  0  0
  6 36  1  0  0  0  0
  7  8  1  0  0  0  0
  7 10  1  0  0  0  0
  7 19  1  0  0  0  0
  8  9  1  0  0  0  0
  8 20  1  0  0  0  0
  9 11  1  0  0  0  0
  9 21  1  0  0  0  0
 10 22  1  0  0  0  0
 10 23  1  0  0  0  0
 11 25  1  0  0  0  0
 11 26  1  0  0  0  0
 12 13  1  0  0  0  0
 12 14  1  0  0  0  0
 12 27  1  0  0  0  0
 13 30  1  0  0  0  0
 13 31  1  0  0  0  0
 13 32  1  0  0  0  0
 14 33  1  0  0  0  0
 14 34  1  0  0  0  0
 14 35  1  0  0  0  0
 16 17  1  0  0  0  0
 16 18  1  0  0  0  0
 16 37  1  0  0  0  0
 17 38  1  0  0  0  0
 17 39  1  0  0  0  0
 17 40  1  0  0  0  0
 18 41  1  0  0  0  0
 18 42  1  0  0  0  0
 18 43  1  0  0  0  0
M  END
> <PUBCHEM_COMPOUND_CID>
75536721

> <PUBCHEM_CONFORMER_RMSD>
0.8

> <PUBCHEM_CONFORMER_DIVERSEORDER>
1
136
134
94
102
115
145
8
138
12
83
118
39
67
41
155
14
21
72
126
141
154
103
18
46
70
124
150
30
36
66
123
23
25
99
47
113
37
85
62
130
100
76
135
98
9
6
78
105
97
77
27
146
61
24
68
59
31
54
122
65
34
89
144
139
95
45
86
50
101
92
149
43
133
74
79
110
127
55
33
96
52
158
82
121
22
156
131
152
104
16
112
51
20
64
114
35
128
151
125
38
17
80
87
137
28
117
69
7
91
53
11
40
142
4
29
93
147
71
119
111
44
57
116
63
84
60
56
106
88
148
157
109
58
132
2
10
73
15
120
32
3
75
129
108
107
143
13
140
42
49
19
5
81
48
26
90
153

> <PUBCHEM_MMFF94_PARTIAL_CHARGES>
18
1 -0.56
10 0.28
11 0.3
12 0.27
15 0.69
16 0.3
2 -0.68
24 0.36
28 0.4
29 0.37
3 -0.57
36 0.37
4 -0.9
5 -0.73
6 -0.73
7 0.27
8 0.28
9 0.28

> <PUBCHEM_EFFECTIVE_ROTOR_COUNT>
8

> <PUBCHEM_PHARMACOPHORE_FEATURES>
11
1 1 acceptor
1 2 acceptor
1 2 donor
1 3 acceptor
1 4 cation
1 4 donor
1 5 donor
1 6 donor
3 12 13 14 hydrophobe
3 16 17 18 hydrophobe
5 1 7 8 9 10 rings

> <PUBCHEM_HEAVY_ATOM_COUNT>
18

> <PUBCHEM_ATOM_DEF_STEREO_COUNT>
3

> <PUBCHEM_ATOM_UDEF_STEREO_COUNT>
0

> <PUBCHEM_BOND_DEF_STEREO_COUNT>
0

> <PUBCHEM_BOND_UDEF_STEREO_COUNT>
0

> <PUBCHEM_ISOTOPIC_ATOM_COUNT>
0

> <PUBCHEM_COMPONENT_COUNT>
1

> <PUBCHEM_CACTVS_TAUTO_COUNT>
3

> <PUBCHEM_CONFORMER_ID>
0480995100000001

> <PUBCHEM_MMFF94_ENERGY>
19.8769

> <PUBCHEM_FEATURE_SELFOVERLAP>
55.87

> <PUBCHEM_SHAPE_FINGERPRINT>
10 15 18040711502858667608
106641 1 18410862100975854955
11401426 45 18408604747769338837
117890 112 18202003217947878993
12251169 10 18187365437059099806
12507560 40 18189048716462916294
12596602 18 18187366540665339225
12670543 26 9799419901399449027
13167372 99 17560807593715666296
13288520 33 12179845000771023743
13533116 47 18261387785631022938
13675066 3 17676210156555188815
13955234 65 18272091531475361862
14251752 14 14333134031358052960
14251764 18 18343023328642684721
14341114 176 18334295375366493344
14350574 20 11097856293738055294
15048467 5 17203612558419632393
15183329 4 11599736064396610204
17834072 8 11815893457373495225
17834076 25 17060618888951317525
17980427 23 18340767160314679341
187816 3 11743836963205806991
200 152 12540693721384414092
20281389 69 18343581832672270400
20645477 56 18409446981575267702
20767249 213 17988923383438633829
21150785 3 15841544176860283173
21637258 2 14851888109957559561
22224240 67 18411422809072586963
23402539 116 18408880750688851639
23559900 14 18267890335683085886
23622692 88 17894351085556640854
26918003 58 16950287304009538337
2767999 5 17418091018441770504
2916195 48 18343019978394328457
300161 21 18411694387785199559
351380 3 13479130215906892784
3545911 37 18408040693851248622
465052 167 12540702504735147800
5104073 3 17969504994896780560
542803 24 17418094312655208632
59755656 520 16343695521815041829
69474 34 18409165540964200277

> <PUBCHEM_SHAPE_MULTIPOLES>
337.88
15.78
1.44
1.09
5.87
0.02
-0.24
-5.66
-4.03
0.76
-0.18
-0.77
-0.03
0.49

> <PUBCHEM_SHAPE_SELFOVERLAP>
657.202

> <PUBCHEM_SHAPE_VOLUME>
206.8

> <PUBCHEM_COORDINATE_TYPE>
2
5
10

$$$$
