45784104
  -OEChem-12032416253D

 71 75  0     1  0  0  0  0  0999 V2000
    4.6429   -0.1511    0.6375 O   0  0  0  0  0  0  0  0  0  0  0  0
   -2.7729   -0.9576    0.3975 N   0  0  0  0  0  0  0  0  0  0  0  0
   -5.3134    0.3379    0.2322 N   0  0  0  0  0  0  0  0  0  0  0  0
    3.2759    0.8186    2.1191 N   0  0  0  0  0  0  0  0  0  0  0  0
    4.1905    1.7658    1.6980 N   0  0  0  0  0  0  0  0  0  0  0  0
   -6.7957    1.6059   -1.1239 N   0  0  0  0  0  0  0  0  0  0  0  0
   -8.5114    1.8489    1.0814 N   0  0  0  0  0  0  0  0  0  0  0  0
    6.8727    1.1907   -0.7332 N   0  0  0  0  0  0  0  0  0  0  0  0
    7.5789    3.2896   -0.5678 N   0  0  0  0  0  0  0  0  0  0  0  0
   -0.1028   -1.0237   -0.8107 C   0  0  1  0  0  0  0  0  0  0  0  0
   -0.8586   -2.3011   -0.3768 C   0  0  2  0  0  0  0  0  0  0  0  0
    1.0478   -0.7235    0.1602 C   0  0  0  0  0  0  0  0  0  0  0  0
    2.0493   -1.8898    0.3009 C   0  0  2  0  0  0  0  0  0  0  0  0
    0.4049   -1.1372   -2.2546 C   0  0  0  0  0  0  0  0  0  0  0  0
   -1.8371   -2.0185    0.7679 C   0  0  0  0  0  0  0  0  0  0  0  0
    0.0724   -3.4146    0.0306 C   0  0  0  0  0  0  0  0  0  0  0  0
    1.3756   -3.2535    0.3251 C   0  0  0  0  0  0  0  0  0  0  0  0
    2.9263   -1.6360    1.5334 C   0  0  0  0  0  0  0  0  0  0  0  0
    1.4914   -0.1001   -2.5195 C   0  0  0  0  0  0  0  0  0  0  0  0
   -0.7493   -0.9751   -3.2387 C   0  0  0  0  0  0  0  0  0  0  0  0
   -3.3879   -0.3720    1.5948 C   0  0  0  0  0  0  0  0  0  0  0  0
   -3.8154   -1.4791   -0.4951 C   0  0  0  0  0  0  0  0  0  0  0  0
    2.2355   -4.4478    0.6360 C   0  0  0  0  0  0  0  0  0  0  0  0
   -4.3278    0.7781    1.2244 C   0  0  0  0  0  0  0  0  0  0  0  0
   -4.7685   -0.3656   -0.9357 C   0  0  0  0  0  0  0  0  0  0  0  0
    3.5777   -0.2840    1.4743 C   0  0  0  0  0  0  0  0  0  0  0  0
   -6.5040    1.0552    0.0711 C   0  0  0  0  0  0  0  0  0  0  0  0
    4.9682    1.1557    0.8345 C   0  0  0  0  0  0  0  0  0  0  0  0
   -7.3467    1.1745    1.1544 C   0  0  0  0  0  0  0  0  0  0  0  0
    6.0441    1.7942    0.1705 C   0  0  0  0  0  0  0  0  0  0  0  0
   -7.9603    2.2804   -1.1969 C   0  0  0  0  0  0  0  0  0  0  0  0
   -8.8030    2.3996   -0.1137 C   0  0  0  0  0  0  0  0  0  0  0  0
    6.4996    3.0887    0.2558 C   0  0  0  0  0  0  0  0  0  0  0  0
    7.7777    2.1274   -1.1488 C   0  0  0  0  0  0  0  0  0  0  0  0
    6.8233   -0.1809   -1.1842 C   0  0  0  0  0  0  0  0  0  0  0  0
   -0.7688   -0.1522   -0.7781 H   0  0  0  0  0  0  0  0  0  0  0  0
   -1.4243   -2.6974   -1.2253 H   0  0  0  0  0  0  0  0  0  0  0  0
    0.6008   -0.5267    1.1456 H   0  0  0  0  0  0  0  0  0  0  0  0
    1.5478    0.2176   -0.0891 H   0  0  0  0  0  0  0  0  0  0  0  0
    2.7070   -1.8950   -0.5777 H   0  0  0  0  0  0  0  0  0  0  0  0
    0.8504   -2.1244   -2.4300 H   0  0  0  0  0  0  0  0  0  0  0  0
   -1.2613   -1.7157    1.6529 H   0  0  0  0  0  0  0  0  0  0  0  0
   -2.3711   -2.9330    1.0625 H   0  0  0  0  0  0  0  0  0  0  0  0
   -0.3628   -4.4113    0.0616 H   0  0  0  0  0  0  0  0  0  0  0  0
    2.3312   -1.7041    2.4527 H   0  0  0  0  0  0  0  0  0  0  0  0
    3.7204   -2.3880    1.6118 H   0  0  0  0  0  0  0  0  0  0  0  0
    1.1620    0.9101   -2.2511 H   0  0  0  0  0  0  0  0  0  0  0  0
    1.7307   -0.0778   -3.5899 H   0  0  0  0  0  0  0  0  0  0  0  0
    2.4375   -0.3136   -2.0177 H   0  0  0  0  0  0  0  0  0  0  0  0
   -1.2569   -0.0135   -3.1051 H   0  0  0  0  0  0  0  0  0  0  0  0
   -1.4951   -1.7680   -3.1403 H   0  0  0  0  0  0  0  0  0  0  0  0
   -0.3822   -1.0129   -4.2705 H   0  0  0  0  0  0  0  0  0  0  0  0
   -3.9424   -1.1347    2.1580 H   0  0  0  0  0  0  0  0  0  0  0  0
   -2.6127    0.0275    2.2601 H   0  0  0  0  0  0  0  0  0  0  0  0
   -4.3901   -2.2725    0.0022 H   0  0  0  0  0  0  0  0  0  0  0  0
   -3.3863   -1.9124   -1.4037 H   0  0  0  0  0  0  0  0  0  0  0  0
    2.5425   -4.4413    1.6863 H   0  0  0  0  0  0  0  0  0  0  0  0
    1.7114   -5.3923    0.4534 H   0  0  0  0  0  0  0  0  0  0  0  0
    3.1309   -4.4457    0.0058 H   0  0  0  0  0  0  0  0  0  0  0  0
   -3.7530    1.6179    0.8130 H   0  0  0  0  0  0  0  0  0  0  0  0
   -4.8095    1.1356    2.1416 H   0  0  0  0  0  0  0  0  0  0  0  0
   -5.5769   -0.8183   -1.5237 H   0  0  0  0  0  0  0  0  0  0  0  0
   -4.2429    0.3478   -1.5835 H   0  0  0  0  0  0  0  0  0  0  0  0
   -7.1362    0.7272    2.1190 H   0  0  0  0  0  0  0  0  0  0  0  0
   -8.1953    2.7231   -2.1568 H   0  0  0  0  0  0  0  0  0  0  0  0
   -9.7387    2.9417   -0.1732 H   0  0  0  0  0  0  0  0  0  0  0  0
    6.1103    3.8915    0.8661 H   0  0  0  0  0  0  0  0  0  0  0  0
    8.5537    1.9105   -1.8704 H   0  0  0  0  0  0  0  0  0  0  0  0
    7.6227   -0.3498   -1.9110 H   0  0  0  0  0  0  0  0  0  0  0  0
    5.8579   -0.3596   -1.6640 H   0  0  0  0  0  0  0  0  0  0  0  0
    6.9731   -0.8398   -0.3255 H   0  0  0  0  0  0  0  0  0  0  0  0
  1 26  1  0  0  0  0
  1 28  1  0  0  0  0
  2 15  1  0  0  0  0
  2 21  1  0  0  0  0
  2 22  1  0  0  0  0
  3 24  1  0  0  0  0
  3 25  1  0  0  0  0
  3 27  1  0  0  0  0
  4  5  1  0  0  0  0
  4 26  2  0  0  0  0
  5 28  2  0  0  0  0
  6 27  2  0  0  0  0
  6 31  1  0  0  0  0
  7 29  2  0  0  0  0
  7 32  1  0  0  0  0
  8 30  1  0  0  0  0
  8 34  1  0  0  0  0
  8 35  1  0  0  0  0
  9 33  1  0  0  0  0
  9 34  2  0  0  0  0
 10 11  1  0  0  0  0
 10 12  1  0  0  0  0
 10 14  1  0  0  0  0
 10 36  1  0  0  0  0
 11 15  1  0  0  0  0
 11 16  1  0  0  0  0
 11 37  1  0  0  0  0
 12 13  1  0  0  0  0
 12 38  1  0  0  0  0
 12 39  1  0  0  0  0
 13 17  1  0  0  0  0
 13 18  1  0  0  0  0
 13 40  1  0  0  0  0
 14 19  1  0  0  0  0
 14 20  1  0  0  0  0
 14 41  1  0  0  0  0
 15 42  1  0  0  0  0
 15 43  1  0  0  0  0
 16 17  2  0  0  0  0
 16 44  1  0  0  0  0
 17 23  1  0  0  0  0
 18 26  1  0  0  0  0
 18 45  1  0  0  0  0
 18 46  1  0  0  0  0
 19 47  1  0  0  0  0
 19 48  1  0  0  0  0
 19 49  1  0  0  0  0
 20 50  1  0  0  0  0
 20 51  1  0  0  0  0
 20 52  1  0  0  0  0
 21 24  1  0  0  0  0
 21 53  1  0  0  0  0
 21 54  1  0  0  0  0
 22 25  1  0  0  0  0
 22 55  1  0  0  0  0
 22 56  1  0  0  0  0
 23 57  1  0  0  0  0
 23 58  1  0  0  0  0
 23 59  1  0  0  0  0
 24 60  1  0  0  0  0
 24 61  1  0  0  0  0
 25 62  1  0  0  0  0
 25 63  1  0  0  0  0
 27 29  1  0  0  0  0
 28 30  1  0  0  0  0
 29 64  1  0  0  0  0
 30 33  2  0  0  0  0
 31 32  2  0  0  0  0
 31 65  1  0  0  0  0
 32 66  1  0  0  0  0
 33 67  1  0  0  0  0
 34 68  1  0  0  0  0
 35 69  1  0  0  0  0
 35 70  1  0  0  0  0
 35 71  1  0  0  0  0
M  END
> <PUBCHEM_COMPOUND_CID>
45784104

> <PUBCHEM_CONFORMER_RMSD>
1.2

> <PUBCHEM_CONFORMER_DIVERSEORDER>
7
13
35
31
112
33
135
64
132
8
57
73
122
121
67
105
128
126
81
136
54
65
100
55
16
9
110
101
115
111
97
92
47
72
85
60
124
50
130
63
104
30
137
84
96
123
40
95
74
39
107
90
82
94
93
129
114
75
89
25
24
88
71
19
29
27
34
91
46
14
5
86
32
119
43
70
41
125
116
113
6
52
102
78
15
127
109
48
26
49
22
21
56
11
79
83
45
98
80
38
2
120
28
117
20
42
23
118
12
53
69
87
59
99
3
77
66
44
4
36
18
106
62
1
58
76
51
17
10
61
68
133
131
108
134
103
37

> <PUBCHEM_MMFF94_PARTIAL_CHARGES>
36
1 -0.28
11 0.14
13 0.14
15 0.27
16 -0.29
17 -0.28
18 0.18
2 -0.81
21 0.27
22 0.27
23 0.14
24 0.37
25 0.37
26 0.3
27 0.41
28 0.48
29 0.16
3 -0.84
30 -0.15
31 0.16
32 0.16
33 0.08
34 0.04
35 0.26
4 -0.34
44 0.15
5 -0.34
6 -0.62
64 0.15
65 0.15
66 0.15
67 0.15
68 0.15
7 -0.62
8 0.05
9 -0.57

> <PUBCHEM_EFFECTIVE_ROTOR_COUNT>
9

> <PUBCHEM_PHARMACOPHORE_FEATURES>
10
1 2 cation
1 7 acceptor
3 14 19 20 hydrophobe
3 3 6 27 cation
3 8 9 34 cation
5 1 4 5 26 28 rings
5 8 9 30 33 34 rings
6 10 11 12 13 16 17 rings
6 2 3 21 22 24 25 rings
6 6 7 27 29 31 32 rings

> <PUBCHEM_HEAVY_ATOM_COUNT>
35

> <PUBCHEM_ATOM_DEF_STEREO_COUNT>
3

> <PUBCHEM_ATOM_UDEF_STEREO_COUNT>
0

> <PUBCHEM_BOND_DEF_STEREO_COUNT>
0

> <PUBCHEM_BOND_UDEF_STEREO_COUNT>
0

> <PUBCHEM_ISOTOPIC_ATOM_COUNT>
0

> <PUBCHEM_COMPONENT_COUNT>
1

> <PUBCHEM_CACTVS_TAUTO_COUNT>
1

> <PUBCHEM_CONFORMER_ID>
02BA9C2800000007

> <PUBCHEM_MMFF94_ENERGY>
80.2489

> <PUBCHEM_FEATURE_SELFOVERLAP>
50.748

> <PUBCHEM_SHAPE_FINGERPRINT>
10 15 17894349956760853089
10006869 2 18340761547003224176
10816530 90 18341049623709172514
10952577 141 18263937682155844884
11297750 10 17317315108679669102
11578080 2 18410570687134299019
11828532 37 11599423846118354837
11991303 11 16988276598590343551
1200032 147 18260828211474034250
12047536 79 17386839513926000845
12098696 120 18411422812919122600
12124843 1 17917713556243149308
12166972 35 12751249138069802138
12422481 6 17095517431426024462
12539765 74 18342741788730561319
12660671 118 18128822932771557534
13150687 139 17060627697876748253
13165053 103 12246586481616282236
13782708 43 11023817406043920035
14040221 8 14404352651502138769
14359421 15 12895079492098866621
14400156 96 18260261937289700471
14664723 55 18340781398295288824
14840074 17 17241320412953020646
14931854 50 17632296787075192025
15183329 4 16558481859122323424
15198563 99 17554315200797906335
15320295 40 13110975197740846564
15840311 113 18260270719933396174
16067689 68 11098670984467133860
16664035 1 17758390777899390115
16993427 108 9943538375268081540
17852330 162 13973100160493123856
190975 80 12324242780219753032
2026 5 10951780663524679565
20691028 202 18265048227465017144
20721686 146 18333170570075087644
21033648 29 17895198779532242259
21344244 181 11959717296759799437
21521239 73 12967130514751564292
24771293 8 17967250914587232431
25269216 80 17274810395206176679
38570 142 18202003248265987538
3918712 181 18412823607823744184
3986486 107 18060424651217669452
406291 66 10015593800326782944
4169191 19 18410854335817973417
50009960 94 14707789440800847353
54039377 194 9439407938698901552
54583773 228 18412255165650863559
5718773 13 9943812187621956000
57527293 21 17531513352635577666
9689198 14 18187651331683862504

> <PUBCHEM_SHAPE_MULTIPOLES>
674.57
24.67
4.07
2.07
21.42
1.88
-1.17
-34.25
-0.18
-3.83
0.38
-0.4
0.11
-0.56

> <PUBCHEM_SHAPE_SELFOVERLAP>
1439.122

> <PUBCHEM_SHAPE_VOLUME>
375.3

> <PUBCHEM_COORDINATE_TYPE>
2
5
10

$$$$
