40779622
  -OEChem-12032416353D

 54 56  0     1  0  0  0  0  0999 V2000
   -2.4057   -0.3538   -1.6134 S   0  0  0  0  0  0  0  0  0  0  0  0
   -3.2330   -0.9832   -2.6250 O   0  0  0  0  0  0  0  0  0  0  0  0
   -1.6313    0.8290   -1.9368 O   0  0  0  0  0  0  0  0  0  0  0  0
    1.5970   -1.8253    1.3927 N   0  0  2  0  0  0  0  0  0  0  0  0
    3.4516    1.9920    0.3071 N   0  0  2  0  0  0  0  0  0  0  0  0
   -1.3768   -1.5220   -0.9219 N   0  0  0  0  0  0  0  0  0  0  0  0
    3.0489   -1.6790   -0.7608 C   0  0  2  0  0  0  0  0  0  0  0  0
    3.2720   -0.4429    0.1400 C   0  0  2  0  0  0  0  0  0  0  0  0
    0.7449   -2.0242    0.1894 C   0  0  2  0  0  0  0  0  0  0  0  0
    1.5529   -1.7941   -1.1071 C   0  0  0  0  0  0  0  0  0  0  0  0
    2.2836   -0.5126    1.3258 C   0  0  0  0  0  0  0  0  0  0  0  0
    3.4194   -2.9170    0.0781 C   0  0  0  0  0  0  0  0  0  0  0  0
    2.6318   -2.8880    1.4000 C   0  0  0  0  0  0  0  0  0  0  0  0
    3.1558    0.8802   -0.6131 C   0  0  0  0  0  0  0  0  0  0  0  0
   -0.5253   -1.1712    0.2264 C   0  0  0  0  0  0  0  0  0  0  0  0
    2.8534    3.2260   -0.1903 C   0  0  0  0  0  0  0  0  0  0  0  0
    4.8942    2.1404    0.4651 C   0  0  0  0  0  0  0  0  0  0  0  0
    1.3826    3.2772    0.0877 C   0  0  0  0  0  0  0  0  0  0  0  0
   -3.4434    0.0667   -0.2455 C   0  0  0  0  0  0  0  0  0  0  0  0
   -3.0787    1.1034    0.6135 C   0  0  0  0  0  0  0  0  0  0  0  0
   -4.6249   -0.6404   -0.0229 C   0  0  0  0  0  0  0  0  0  0  0  0
    0.4457    3.3907   -0.8605 C   0  0  0  0  0  0  0  0  0  0  0  0
   -3.8956    1.4330    1.6952 C   0  0  0  0  0  0  0  0  0  0  0  0
   -5.4418   -0.3109    1.0586 C   0  0  0  0  0  0  0  0  0  0  0  0
   -5.0771    0.7259    1.9177 C   0  0  0  0  0  0  0  0  0  0  0  0
    3.6592   -1.6310   -1.6688 H   0  0  0  0  0  0  0  0  0  0  0  0
    4.2901   -0.5388    0.5392 H   0  0  0  0  0  0  0  0  0  0  0  0
    0.4089   -3.0720    0.1937 H   0  0  0  0  0  0  0  0  0  0  0  0
    1.2200   -0.9031   -1.6494 H   0  0  0  0  0  0  0  0  0  0  0  0
    1.4009   -2.6451   -1.7833 H   0  0  0  0  0  0  0  0  0  0  0  0
    2.8337   -0.3521    2.2627 H   0  0  0  0  0  0  0  0  0  0  0  0
    1.5412    0.2918    1.2997 H   0  0  0  0  0  0  0  0  0  0  0  0
    4.4957   -2.9302    0.2861 H   0  0  0  0  0  0  0  0  0  0  0  0
    3.1855   -3.8314   -0.4804 H   0  0  0  0  0  0  0  0  0  0  0  0
    2.1639   -3.8644    1.5770 H   0  0  0  0  0  0  0  0  0  0  0  0
    3.3156   -2.7341    2.2446 H   0  0  0  0  0  0  0  0  0  0  0  0
    2.1367    0.9657   -1.0047 H   0  0  0  0  0  0  0  0  0  0  0  0
    3.8204    0.8945   -1.4870 H   0  0  0  0  0  0  0  0  0  0  0  0
   -0.2801   -0.1059    0.1926 H   0  0  0  0  0  0  0  0  0  0  0  0
   -1.0832   -1.3695    1.1484 H   0  0  0  0  0  0  0  0  0  0  0  0
   -1.6498   -2.5102   -0.9918 H   0  0  0  0  0  0  0  0  0  0  0  0
    3.0747    3.3800   -1.2549 H   0  0  0  0  0  0  0  0  0  0  0  0
    3.2842    4.0878    0.3373 H   0  0  0  0  0  0  0  0  0  0  0  0
    5.3562    1.2532    0.9076 H   0  0  0  0  0  0  0  0  0  0  0  0
    5.1189    2.9623    1.1552 H   0  0  0  0  0  0  0  0  0  0  0  0
    5.3972    2.3543   -0.4853 H   0  0  0  0  0  0  0  0  0  0  0  0
    1.0649    3.2282    1.1265 H   0  0  0  0  0  0  0  0  0  0  0  0
   -2.1610    1.6639    0.4644 H   0  0  0  0  0  0  0  0  0  0  0  0
   -4.9236   -1.4558   -0.6756 H   0  0  0  0  0  0  0  0  0  0  0  0
   -0.6043    3.4309   -0.5933 H   0  0  0  0  0  0  0  0  0  0  0  0
    0.7065    3.4460   -1.9116 H   0  0  0  0  0  0  0  0  0  0  0  0
   -3.6108    2.2391    2.3650 H   0  0  0  0  0  0  0  0  0  0  0  0
   -6.3609   -0.8625    1.2331 H   0  0  0  0  0  0  0  0  0  0  0  0
   -5.7128    0.9818    2.7603 H   0  0  0  0  0  0  0  0  0  0  0  0
  1  2  2  0  0  0  0
  1  3  2  0  0  0  0
  1  6  1  0  0  0  0
  1 19  1  0  0  0  0
  4  9  1  0  0  0  0
  4 11  1  0  0  0  0
  4 13  1  0  0  0  0
  5 14  1  0  0  0  0
  5 16  1  0  0  0  0
  5 17  1  0  0  0  0
  6 15  1  0  0  0  0
  6 41  1  0  0  0  0
  7  8  1  0  0  0  0
  7 10  1  0  0  0  0
  7 12  1  0  0  0  0
  7 26  1  0  0  0  0
  8 11  1  0  0  0  0
  8 14  1  0  0  0  0
  8 27  1  0  0  0  0
  9 10  1  0  0  0  0
  9 15  1  0  0  0  0
  9 28  1  0  0  0  0
 10 29  1  0  0  0  0
 10 30  1  0  0  0  0
 11 31  1  0  0  0  0
 11 32  1  0  0  0  0
 12 13  1  0  0  0  0
 12 33  1  0  0  0  0
 12 34  1  0  0  0  0
 13 35  1  0  0  0  0
 13 36  1  0  0  0  0
 14 37  1  0  0  0  0
 14 38  1  0  0  0  0
 15 39  1  0  0  0  0
 15 40  1  0  0  0  0
 16 18  1  0  0  0  0
 16 42  1  0  0  0  0
 16 43  1  0  0  0  0
 17 44  1  0  0  0  0
 17 45  1  0  0  0  0
 17 46  1  0  0  0  0
 18 22  2  0  0  0  0
 18 47  1  0  0  0  0
 19 20  2  0  0  0  0
 19 21  1  0  0  0  0
 20 23  1  0  0  0  0
 20 48  1  0  0  0  0
 21 24  2  0  0  0  0
 21 49  1  0  0  0  0
 22 50  1  0  0  0  0
 22 51  1  0  0  0  0
 23 25  2  0  0  0  0
 23 52  1  0  0  0  0
 24 25  1  0  0  0  0
 24 53  1  0  0  0  0
 25 54  1  0  0  0  0
M  END
> <PUBCHEM_COMPOUND_CID>
40779622

> <PUBCHEM_CONFORMER_RMSD>
1

> <PUBCHEM_CONFORMER_DIVERSEORDER>
7
2
59
38
33
69
12
64
17
62
63
67
29
18
11
36
61
72
31
66
52
65
26
70
27
42
55
39
71
68
56
54
32
19
22
49
44
9
53
48
41
21
58
25
20
34
45
47
57
43
14
51
46
23
35
30
15
4
6
60
3
28
8
37
24
13
5
10
50
40
1
16

> <PUBCHEM_MMFF94_PARTIAL_CHARGES>
30
1 1.45
11 0.27
13 0.27
14 0.27
15 0.36
16 0.41
17 0.27
18 -0.29
19 -0.01
2 -0.65
20 -0.15
21 -0.15
22 -0.3
23 -0.15
24 -0.15
25 -0.15
3 -0.65
4 -0.81
41 0.42
47 0.15
48 0.15
49 0.15
5 -0.81
50 0.15
51 0.15
52 0.15
53 0.15
54 0.15
6 -0.91
9 0.27

> <PUBCHEM_EFFECTIVE_ROTOR_COUNT>
9.2

> <PUBCHEM_PHARMACOPHORE_FEATURES>
8
1 2 acceptor
1 22 hydrophobe
1 3 acceptor
1 4 cation
1 5 cation
1 6 donor
6 19 20 21 23 24 25 rings
8 4 7 8 9 10 11 12 13 rings

> <PUBCHEM_HEAVY_ATOM_COUNT>
25

> <PUBCHEM_ATOM_DEF_STEREO_COUNT>
3

> <PUBCHEM_ATOM_UDEF_STEREO_COUNT>
0

> <PUBCHEM_BOND_DEF_STEREO_COUNT>
0

> <PUBCHEM_BOND_UDEF_STEREO_COUNT>
0

> <PUBCHEM_ISOTOPIC_ATOM_COUNT>
0

> <PUBCHEM_COMPONENT_COUNT>
1

> <PUBCHEM_CACTVS_TAUTO_COUNT>
1

> <PUBCHEM_CONFORMER_ID>
026E3F6600000007

> <PUBCHEM_MMFF94_ENERGY>
49.6281

> <PUBCHEM_FEATURE_SELFOVERLAP>
40.612

> <PUBCHEM_SHAPE_FINGERPRINT>
10366900 7 17603878762330766251
10382601 240 18410572886183337272
11552529 35 18410858806668380371
12403259 118 18057322787028292019
12422481 6 18196909138291462904
12467345 10 18060148647317163025
12633257 1 18115856568185580176
13224815 77 17167865214660248231
13583140 156 18041549227318103359
13590594 115 18194402187344833594
14114211 80 17974590270630116932
14765038 42 18267590298195798776
14849402 71 18335709356009760440
14950920 106 18335992952468603731
17980427 23 17773571902853024986
20739085 24 18340778035013356404
21033648 29 17312814957762591023
21503847 285 18270971145625493186
21864079 5 18272369750370216983
22122407 14 18267596702318734625
23557571 272 16370717094146914719
3459 110 17896606274405490939
3737641 26 18337112272290466900
38570 142 18269011915216454668
4409770 3 15245709655739245239
469060 322 16879061043979347439
474 4 18338233885381721296
5081480 168 17844824585290296412
57091435 65 18410857625119064424
5895379 119 17273991133487332464
6287921 2 18131071511005686599

> <PUBCHEM_SHAPE_MULTIPOLES>
491.66
10.37
3.94
1.77
9.5
2.24
0.44
1.48
-3.45
-5.64
-0.14
1.86
-0.36
-1.22

> <PUBCHEM_SHAPE_SELFOVERLAP>
1005.175

> <PUBCHEM_SHAPE_VOLUME>
286.2

> <PUBCHEM_COORDINATE_TYPE>
2
5
10

$$$$
