45361553
  -OEChem-12032416313D

 77 80  0     1  0  0  0  0  0999 V2000
    0.0422   -1.5257    1.8551 O   0  0  0  0  0  0  0  0  0  0  0  0
   -4.3272   -2.3929   -1.0007 O   0  0  0  0  0  0  0  0  0  0  0  0
    5.3425    2.5403    0.2707 O   0  0  0  0  0  0  0  0  0  0  0  0
   -9.4107    2.8180    0.4393 O   0  0  0  0  0  0  0  0  0  0  0  0
    4.7742    0.3132   -0.0342 N   0  0  0  0  0  0  0  0  0  0  0  0
   -4.4793   -1.3551    1.0681 N   0  0  0  0  0  0  0  0  0  0  0  0
   -7.3353    0.8830    0.2143 N   0  0  0  0  0  0  0  0  0  0  0  0
    9.7524    0.2358    0.7390 N   0  0  0  0  0  0  0  0  0  0  0  0
    0.8247   -0.2449   -1.6553 C   0  0  1  0  0  0  0  0  0  0  0  0
    0.9937   -0.4444   -0.1123 C   0  0  2  0  0  0  0  0  0  0  0  0
    2.5045   -0.6570    0.2618 C   0  0  1  0  0  0  0  0  0  0  0  0
    0.0131   -1.5252    0.4270 C   0  0  2  0  0  0  0  0  0  0  0  0
   -0.6547    0.0738   -1.9755 C   0  0  0  0  0  0  0  0  0  0  0  0
    1.6747    0.9667   -2.1030 C   0  0  0  0  0  0  0  0  0  0  0  0
   -1.4531   -1.2566    0.0149 C   0  0  1  0  0  0  0  0  0  0  0  0
    3.3606    0.5314   -0.2593 C   0  0  2  0  0  0  0  0  0  0  0  0
   -1.6143   -1.0017   -1.4836 C   0  0  0  0  0  0  0  0  0  0  0  0
    3.1471    0.8296   -1.7430 C   0  0  0  0  0  0  0  0  0  0  0  0
    1.2515   -1.4948   -2.4661 C   0  0  0  0  0  0  0  0  0  0  0  0
   -2.3830   -2.3986    0.4433 C   0  0  2  0  0  0  0  0  0  0  0  0
    2.7466   -0.8315    1.7706 C   0  0  0  0  0  0  0  0  0  0  0  0
   -1.9344   -3.7083   -0.1954 C   0  0  0  0  0  0  0  0  0  0  0  0
   -3.8239   -2.0632    0.0712 C   0  0  0  0  0  0  0  0  0  0  0  0
    5.6533    1.3534    0.2147 C   0  0  0  0  0  0  0  0  0  0  0  0
    7.0757    0.9662    0.3983 C   0  0  0  0  0  0  0  0  0  0  0  0
   -5.8522   -0.9228    0.9458 C   0  0  0  0  0  0  0  0  0  0  0  0
   -5.9401    0.4612    0.3196 C   0  0  0  0  0  0  0  0  0  0  0  0
    8.0894    1.8687    0.0959 C   0  0  0  0  0  0  0  0  0  0  0  0
    7.3988   -0.3010    0.8710 C   0  0  0  0  0  0  0  0  0  0  0  0
    9.3997    1.4584    0.2820 C   0  0  0  0  0  0  0  0  0  0  0  0
    8.7400   -0.6141    1.0225 C   0  0  0  0  0  0  0  0  0  0  0  0
   -7.4787    1.9730   -0.7609 C   0  0  0  0  0  0  0  0  0  0  0  0
   -7.8524    1.3070    1.5229 C   0  0  0  0  0  0  0  0  0  0  0  0
   -8.9401    2.4048   -0.8441 C   0  0  0  0  0  0  0  0  0  0  0  0
   -9.3051    1.7535    1.3854 C   0  0  0  0  0  0  0  0  0  0  0  0
    0.7021    0.4997    0.3755 H   0  0  0  0  0  0  0  0  0  0  0  0
    2.8608   -1.5799   -0.2131 H   0  0  0  0  0  0  0  0  0  0  0  0
    0.3724   -2.5006    0.0938 H   0  0  0  0  0  0  0  0  0  0  0  0
   -0.9348    1.0295   -1.5120 H   0  0  0  0  0  0  0  0  0  0  0  0
   -0.7895    0.2080   -3.0566 H   0  0  0  0  0  0  0  0  0  0  0  0
    1.5836    1.1153   -3.1866 H   0  0  0  0  0  0  0  0  0  0  0  0
    1.2877    1.8818   -1.6347 H   0  0  0  0  0  0  0  0  0  0  0  0
   -1.7871   -0.3484    0.5387 H   0  0  0  0  0  0  0  0  0  0  0  0
    3.0690    1.4282    0.3048 H   0  0  0  0  0  0  0  0  0  0  0  0
   -1.4648   -1.8977   -2.0890 H   0  0  0  0  0  0  0  0  0  0  0  0
   -2.6261   -0.6452   -1.7079 H   0  0  0  0  0  0  0  0  0  0  0  0
    3.6646    1.7592   -2.0135 H   0  0  0  0  0  0  0  0  0  0  0  0
    3.6138    0.0493   -2.3566 H   0  0  0  0  0  0  0  0  0  0  0  0
    2.3112   -1.7355   -2.3488 H   0  0  0  0  0  0  0  0  0  0  0  0
    1.0775   -1.3369   -3.5370 H   0  0  0  0  0  0  0  0  0  0  0  0
    0.6966   -2.3914   -2.1762 H   0  0  0  0  0  0  0  0  0  0  0  0
   -2.3361   -2.5286    1.5323 H   0  0  0  0  0  0  0  0  0  0  0  0
    2.3697   -1.7961    2.1220 H   0  0  0  0  0  0  0  0  0  0  0  0
    3.8134   -0.8286    2.0166 H   0  0  0  0  0  0  0  0  0  0  0  0
    2.2721   -0.0291    2.3448 H   0  0  0  0  0  0  0  0  0  0  0  0
    5.1212   -0.6295   -0.1768 H   0  0  0  0  0  0  0  0  0  0  0  0
   -0.2270   -0.6435    2.1630 H   0  0  0  0  0  0  0  0  0  0  0  0
   -0.9665   -4.0531    0.1765 H   0  0  0  0  0  0  0  0  0  0  0  0
   -2.6503   -4.4969    0.0713 H   0  0  0  0  0  0  0  0  0  0  0  0
   -1.9116   -3.6971   -1.2870 H   0  0  0  0  0  0  0  0  0  0  0  0
   -3.9789   -1.1065    1.9164 H   0  0  0  0  0  0  0  0  0  0  0  0
   -6.4042   -1.6551    0.3451 H   0  0  0  0  0  0  0  0  0  0  0  0
   -6.2598   -0.9431    1.9604 H   0  0  0  0  0  0  0  0  0  0  0  0
   -5.3342    1.1867    0.8786 H   0  0  0  0  0  0  0  0  0  0  0  0
   -5.4925    0.3990   -0.6817 H   0  0  0  0  0  0  0  0  0  0  0  0
    7.8805    2.8648   -0.2792 H   0  0  0  0  0  0  0  0  0  0  0  0
    6.6553   -1.0385    1.1510 H   0  0  0  0  0  0  0  0  0  0  0  0
   10.2271    2.1243    0.0598 H   0  0  0  0  0  0  0  0  0  0  0  0
    9.0449   -1.5868    1.3944 H   0  0  0  0  0  0  0  0  0  0  0  0
   -7.1522    1.6435   -1.7539 H   0  0  0  0  0  0  0  0  0  0  0  0
   -6.8597    2.8302   -0.4653 H   0  0  0  0  0  0  0  0  0  0  0  0
   -7.2546    2.1389    1.9178 H   0  0  0  0  0  0  0  0  0  0  0  0
   -7.8217    0.4922    2.2523 H   0  0  0  0  0  0  0  0  0  0  0  0
   -9.0388    3.2567   -1.5245 H   0  0  0  0  0  0  0  0  0  0  0  0
   -9.5790    1.5993   -1.2264 H   0  0  0  0  0  0  0  0  0  0  0  0
   -9.9562    0.9254    1.0795 H   0  0  0  0  0  0  0  0  0  0  0  0
   -9.6732    2.1261    2.3467 H   0  0  0  0  0  0  0  0  0  0  0  0
  1 12  1  0  0  0  0
  1 57  1  0  0  0  0
  2 23  2  0  0  0  0
  3 24  2  0  0  0  0
  4 34  1  0  0  0  0
  4 35  1  0  0  0  0
  5 16  1  0  0  0  0
  5 24  1  0  0  0  0
  5 56  1  0  0  0  0
  6 23  1  0  0  0  0
  6 26  1  0  0  0  0
  6 61  1  0  0  0  0
  7 27  1  0  0  0  0
  7 32  1  0  0  0  0
  7 33  1  0  0  0  0
  8 30  2  0  0  0  0
  8 31  1  0  0  0  0
  9 10  1  0  0  0  0
  9 13  1  0  0  0  0
  9 14  1  0  0  0  0
  9 19  1  0  0  0  0
 10 11  1  0  0  0  0
 10 12  1  0  0  0  0
 10 36  1  0  0  0  0
 11 16  1  0  0  0  0
 11 21  1  0  0  0  0
 11 37  1  0  0  0  0
 12 15  1  0  0  0  0
 12 38  1  0  0  0  0
 13 17  1  0  0  0  0
 13 39  1  0  0  0  0
 13 40  1  0  0  0  0
 14 18  1  0  0  0  0
 14 41  1  0  0  0  0
 14 42  1  0  0  0  0
 15 17  1  0  0  0  0
 15 20  1  0  0  0  0
 15 43  1  0  0  0  0
 16 18  1  0  0  0  0
 16 44  1  0  0  0  0
 17 45  1  0  0  0  0
 17 46  1  0  0  0  0
 18 47  1  0  0  0  0
 18 48  1  0  0  0  0
 19 49  1  0  0  0  0
 19 50  1  0  0  0  0
 19 51  1  0  0  0  0
 20 22  1  0  0  0  0
 20 23  1  0  0  0  0
 20 52  1  0  0  0  0
 21 53  1  0  0  0  0
 21 54  1  0  0  0  0
 21 55  1  0  0  0  0
 22 58  1  0  0  0  0
 22 59  1  0  0  0  0
 22 60  1  0  0  0  0
 24 25  1  0  0  0  0
 25 28  2  0  0  0  0
 25 29  1  0  0  0  0
 26 27  1  0  0  0  0
 26 62  1  0  0  0  0
 26 63  1  0  0  0  0
 27 64  1  0  0  0  0
 27 65  1  0  0  0  0
 28 30  1  0  0  0  0
 28 66  1  0  0  0  0
 29 31  2  0  0  0  0
 29 67  1  0  0  0  0
 30 68  1  0  0  0  0
 31 69  1  0  0  0  0
 32 34  1  0  0  0  0
 32 70  1  0  0  0  0
 32 71  1  0  0  0  0
 33 35  1  0  0  0  0
 33 72  1  0  0  0  0
 33 73  1  0  0  0  0
 34 74  1  0  0  0  0
 34 75  1  0  0  0  0
 35 76  1  0  0  0  0
 35 77  1  0  0  0  0
M  END
> <PUBCHEM_COMPOUND_CID>
45361553

> <PUBCHEM_CONFORMER_RMSD>
1.2

> <PUBCHEM_CONFORMER_DIVERSEORDER>
1
128
67
118
72
122
54
99
25
104
140
134
105
142
148
93
144
74
45
101
113
48
40
145
58
102
88
137
83
76
24
59
133
86
35
57
146
8
50
96
82
69
73
132
100
92
147
80
131
61
124
75
114
64
84
112
34
65
71
46
123
38
110
51
29
117
77
129
135
121
6
106
115
126
119
2
139
138
9
81
42
44
120
52
143
43
95
36
23
21
130
79
90
3
98
97
91
27
111
4
18
87
37
125
11
89
109
26
13
10
30
85
12
39
22
49
16
78
141
32
15
33
107
31
19
62
5
103
116
63
66
14
127
60
7
55
56
68
136
47
94
17
53
108
149
20
41
70
28

> <PUBCHEM_MMFF94_PARTIAL_CHARGES>
31
1 -0.68
12 0.28
16 0.3
2 -0.57
20 0.06
23 0.57
24 0.54
25 0.09
26 0.3
27 0.27
28 -0.15
29 -0.15
3 -0.57
30 0.16
31 0.16
32 0.27
33 0.27
34 0.28
35 0.28
4 -0.56
5 -0.73
56 0.37
57 0.4
6 -0.73
61 0.37
66 0.15
67 0.15
68 0.15
69 0.15
7 -0.81
8 -0.62

> <PUBCHEM_EFFECTIVE_ROTOR_COUNT>
11.8

> <PUBCHEM_PHARMACOPHORE_FEATURES>
14
1 1 acceptor
1 1 donor
1 2 acceptor
1 22 hydrophobe
1 3 acceptor
1 4 acceptor
1 5 donor
1 6 donor
1 7 cation
1 8 acceptor
6 4 7 32 33 34 35 rings
6 8 25 28 29 30 31 rings
6 9 10 11 14 16 18 rings
6 9 10 12 13 15 17 rings

> <PUBCHEM_HEAVY_ATOM_COUNT>
35

> <PUBCHEM_ATOM_DEF_STEREO_COUNT>
6

> <PUBCHEM_ATOM_UDEF_STEREO_COUNT>
1

> <PUBCHEM_BOND_DEF_STEREO_COUNT>
0

> <PUBCHEM_BOND_UDEF_STEREO_COUNT>
0

> <PUBCHEM_ISOTOPIC_ATOM_COUNT>
0

> <PUBCHEM_COMPONENT_COUNT>
1

> <PUBCHEM_CACTVS_TAUTO_COUNT>
4

> <PUBCHEM_CONFORMER_ID>
02B4299100000001

> <PUBCHEM_MMFF94_ENERGY>
93.7163

> <PUBCHEM_FEATURE_SELFOVERLAP>
71.062

> <PUBCHEM_SHAPE_FINGERPRINT>
10076449 9 11746937581384916645
10190108 129 16587739824587383472
10533779 1 18117273667841463101
11050421 43 15285903721327663911
11181472 205 18343311370941252800
11443803 9 14476955667383689686
11456790 92 16950573189965693421
11478447 183 11455892447693620833
11578821 258 18198340856918767880
11607047 74 9582643495708257794
12539745 222 12973598929422046855
12838862 33 15626221317413975266
13383668 40 18339365150805868118
13530399 1 18188216519780482492
1361 4 8790344221394424264
13673619 4 12035448359082836071
13782708 43 11242235381821259189
14671636 106 8646767794136737929
14931854 50 13326856605052090901
150020 25 12391504283072911669
15131766 46 17339271643533773336
15350500 55 18060140933571269031
15419008 145 17022904519902991533
15439362 3 18340771442783039015
16992752 21 9511466624101789739
18335252 98 11674872287114257432
19315958 150 18410577253891283954
20105231 36 15574710297111329866
20721686 146 18413671300964966909
21130935 74 18115868684715954298
21150785 3 9871477517339591594
21267235 1 16660357126242596630
21344244 246 11023527125762897635
21781055 127 17895489063591891470
21792965 68 18201727236572087113
21927370 108 14345788331967281270
22149856 69 18114179753641525932
23389318 12 11312053266610510210
23522609 53 17097233824462853478
23576562 1 15840973594275171489
25269216 80 17131819986240629045
3178227 256 16008750225705001642
3552219 110 15430038751703929982
4330586 98 12607105358444239573
54039377 194 9367341540478936201
58260988 521 13479131298196362835
6058803 2 17245567928975789127
6204607 403 17899142895899785204

> <PUBCHEM_SHAPE_MULTIPOLES>
676.88
32.01
2.93
1.79
3.77
0.76
-0.73
-30.01
13.51
5.14
0.01
0.36
0.18
-0.58

> <PUBCHEM_SHAPE_SELFOVERLAP>
1408.921

> <PUBCHEM_SHAPE_VOLUME>
378.8

> <PUBCHEM_COORDINATE_TYPE>
2
5
10

$$$$
