7049300
  -OEChem-12032416113D

 57 58  0     1  0  0  0  0  0999 V2000
   -4.2612   -2.3838    1.5089 F   0  0  0  0  0  0  0  0  0  0  0  0
   -8.5308   -1.2542   -0.1869 F   0  0  0  0  0  0  0  0  0  0  0  0
    0.1342    2.4562    1.9167 O   0  0  0  0  0  0  0  0  0  0  0  0
    1.1613    4.4572   -0.9685 O   0  0  0  0  0  0  0  0  0  0  0  0
    4.4994    1.2443   -1.3234 O   0  0  0  0  0  0  0  0  0  0  0  0
   -2.8605    1.7788   -1.0197 O   0  0  0  0  0  0  0  0  0  0  0  0
    5.4928   -0.4851    2.1138 O   0  0  0  0  0  0  0  0  0  0  0  0
   -1.0475    0.8071    0.0356 N   0  0  0  0  0  0  0  0  0  0  0  0
    3.6421   -0.4015    0.0887 N   0  0  0  0  0  0  0  0  0  0  0  0
   -3.1112   -0.1764    0.2550 N   0  0  0  0  0  0  0  0  0  0  0  0
    7.0544   -1.2385    0.6077 N   0  0  0  0  0  0  0  0  0  0  0  0
    0.0531    2.9494    0.5777 C   0  0  1  0  0  0  0  0  0  0  0  0
    1.2973    3.7984    0.2891 C   0  0  1  0  0  0  0  0  0  0  0  0
   -0.0635    1.7666   -0.4027 C   0  0  1  0  0  0  0  0  0  0  0  0
    2.5873    2.9606    0.3091 C   0  0  0  0  0  0  0  0  0  0  0  0
    2.4225    1.5977   -0.3011 C   0  0  0  0  0  0  0  0  0  0  0  0
    1.2418    1.0540   -0.6328 C   0  0  0  0  0  0  0  0  0  0  0  0
    4.7228   -1.3459   -0.0254 C   0  0  2  0  0  0  0  0  0  0  0  0
    3.6299    0.8128   -0.5742 C   0  0  0  0  0  0  0  0  0  0  0  0
    4.2596   -2.7903    0.2021 C   0  0  0  0  0  0  0  0  0  0  0  0
    3.1465   -3.2705   -0.7517 C   0  0  0  0  0  0  0  0  0  0  0  0
    2.7347   -4.6994   -0.3869 C   0  0  0  0  0  0  0  0  0  0  0  0
    3.5731   -3.2164   -2.2192 C   0  0  0  0  0  0  0  0  0  0  0  0
   -2.4011    0.8854   -0.3124 C   0  0  0  0  0  0  0  0  0  0  0  0
    5.7666   -0.9571    1.0130 C   0  0  0  0  0  0  0  0  0  0  0  0
   -4.4935   -0.4545    0.1431 C   0  0  0  0  0  0  0  0  0  0  0  0
   -5.0386   -1.5673    0.7835 C   0  0  0  0  0  0  0  0  0  0  0  0
   -5.3121    0.3880   -0.6092 C   0  0  0  0  0  0  0  0  0  0  0  0
   -6.4024   -1.8376    0.6717 C   0  0  0  0  0  0  0  0  0  0  0  0
   -6.6758    0.1174   -0.7210 C   0  0  0  0  0  0  0  0  0  0  0  0
   -7.2210   -0.9954   -0.0806 C   0  0  0  0  0  0  0  0  0  0  0  0
   -0.8543    3.5612    0.5051 H   0  0  0  0  0  0  0  0  0  0  0  0
    1.3874    4.5835    1.0498 H   0  0  0  0  0  0  0  0  0  0  0  0
   -0.3854    2.1556   -1.3776 H   0  0  0  0  0  0  0  0  0  0  0  0
    2.9076    2.8227    1.3496 H   0  0  0  0  0  0  0  0  0  0  0  0
    3.3855    3.5028   -0.2120 H   0  0  0  0  0  0  0  0  0  0  0  0
    1.1989    0.0788   -1.1138 H   0  0  0  0  0  0  0  0  0  0  0  0
    5.1691   -1.2409   -1.0211 H   0  0  0  0  0  0  0  0  0  0  0  0
   -0.7572    0.0680    0.6692 H   0  0  0  0  0  0  0  0  0  0  0  0
    5.1254   -3.4609    0.1196 H   0  0  0  0  0  0  0  0  0  0  0  0
    3.9005   -2.8912    1.2358 H   0  0  0  0  0  0  0  0  0  0  0  0
    2.2640   -2.6309   -0.6270 H   0  0  0  0  0  0  0  0  0  0  0  0
    2.8931   -0.6203    0.7404 H   0  0  0  0  0  0  0  0  0  0  0  0
    0.1770    3.2257    2.5097 H   0  0  0  0  0  0  0  0  0  0  0  0
    1.9459    5.0178   -1.0935 H   0  0  0  0  0  0  0  0  0  0  0  0
    2.3892   -4.7517    0.6510 H   0  0  0  0  0  0  0  0  0  0  0  0
    1.9160   -5.0442   -1.0276 H   0  0  0  0  0  0  0  0  0  0  0  0
    3.5717   -5.3966   -0.5019 H   0  0  0  0  0  0  0  0  0  0  0  0
    2.7946   -3.6362   -2.8656 H   0  0  0  0  0  0  0  0  0  0  0  0
    3.7431   -2.1865   -2.5471 H   0  0  0  0  0  0  0  0  0  0  0  0
    4.4938   -3.7855   -2.3863 H   0  0  0  0  0  0  0  0  0  0  0  0
   -2.5792   -0.8351    0.8183 H   0  0  0  0  0  0  0  0  0  0  0  0
    7.8450   -1.0409    1.2120 H   0  0  0  0  0  0  0  0  0  0  0  0
    7.2646   -1.6499   -0.2960 H   0  0  0  0  0  0  0  0  0  0  0  0
   -4.9660    1.2671   -1.1336 H   0  0  0  0  0  0  0  0  0  0  0  0
   -6.8270   -2.7037    1.1705 H   0  0  0  0  0  0  0  0  0  0  0  0
   -7.3149    0.7723   -1.3062 H   0  0  0  0  0  0  0  0  0  0  0  0
  1 27  1  0  0  0  0
  2 31  1  0  0  0  0
  3 12  1  0  0  0  0
  3 44  1  0  0  0  0
  4 13  1  0  0  0  0
  4 45  1  0  0  0  0
  5 19  2  0  0  0  0
  6 24  2  0  0  0  0
  7 25  2  0  0  0  0
  8 14  1  0  0  0  0
  8 24  1  0  0  0  0
  8 39  1  0  0  0  0
  9 18  1  0  0  0  0
  9 19  1  0  0  0  0
  9 43  1  0  0  0  0
 10 24  1  0  0  0  0
 10 26  1  0  0  0  0
 10 52  1  0  0  0  0
 11 25  1  0  0  0  0
 11 53  1  0  0  0  0
 11 54  1  0  0  0  0
 12 13  1  0  0  0  0
 12 14  1  0  0  0  0
 12 32  1  0  0  0  0
 13 15  1  0  0  0  0
 13 33  1  0  0  0  0
 14 17  1  0  0  0  0
 14 34  1  0  0  0  0
 15 16  1  0  0  0  0
 15 35  1  0  0  0  0
 15 36  1  0  0  0  0
 16 17  2  0  0  0  0
 16 19  1  0  0  0  0
 17 37  1  0  0  0  0
 18 20  1  0  0  0  0
 18 25  1  0  0  0  0
 18 38  1  0  0  0  0
 20 21  1  0  0  0  0
 20 40  1  0  0  0  0
 20 41  1  0  0  0  0
 21 22  1  0  0  0  0
 21 23  1  0  0  0  0
 21 42  1  0  0  0  0
 22 46  1  0  0  0  0
 22 47  1  0  0  0  0
 22 48  1  0  0  0  0
 23 49  1  0  0  0  0
 23 50  1  0  0  0  0
 23 51  1  0  0  0  0
 26 27  2  0  0  0  0
 26 28  1  0  0  0  0
 27 29  1  0  0  0  0
 28 30  2  0  0  0  0
 28 55  1  0  0  0  0
 29 31  2  0  0  0  0
 29 56  1  0  0  0  0
 30 31  1  0  0  0  0
 30 57  1  0  0  0  0
M  END
> <PUBCHEM_COMPOUND_CID>
7049300

> <PUBCHEM_CONFORMER_RMSD>
1.2

> <PUBCHEM_CONFORMER_DIVERSEORDER>
1
64
55
50
18
61
99
70
105
80
86
32
57
107
30
47
53
106
38
39
71
15
103
42
92
72
27
95
45
68
24
5
31
66
73
3
33
69
96
25
98
78
44
93
102
26
56
9
104
36
19
20
101
76
49
40
62
17
108
100
22
81
41
65
14
52
48
59
51
7
8
11
12
94
91
88
34
4
60
85
89
6
74
83
58
63
46
29
77
87
13
75
84
43
2
21
82
109
97
67
23
79
28
37
16
10
35
90
54

> <PUBCHEM_MMFF94_PARTIAL_CHARGES>
38
1 -0.19
10 -0.55
11 -0.8
12 0.28
13 0.28
14 0.44
15 0.14
16 -0.12
17 -0.29
18 0.36
19 0.62
2 -0.19
24 0.69
25 0.57
26 0.12
27 0.19
28 -0.15
29 -0.15
3 -0.68
30 -0.15
31 0.19
37 0.15
39 0.37
4 -0.68
43 0.37
44 0.4
45 0.4
5 -0.57
52 0.37
53 0.37
54 0.37
55 0.15
56 0.15
57 0.15
6 -0.57
7 -0.57
8 -0.73
9 -0.73

> <PUBCHEM_EFFECTIVE_ROTOR_COUNT>
10.8

> <PUBCHEM_PHARMACOPHORE_FEATURES>
14
1 10 donor
1 11 donor
1 3 acceptor
1 3 donor
1 4 acceptor
1 4 donor
1 5 acceptor
1 6 acceptor
1 7 acceptor
1 8 donor
1 9 donor
3 21 22 23 hydrophobe
6 12 13 14 15 16 17 rings
6 26 27 28 29 30 31 rings

> <PUBCHEM_HEAVY_ATOM_COUNT>
31

> <PUBCHEM_ATOM_DEF_STEREO_COUNT>
4

> <PUBCHEM_ATOM_UDEF_STEREO_COUNT>
0

> <PUBCHEM_BOND_DEF_STEREO_COUNT>
0

> <PUBCHEM_BOND_UDEF_STEREO_COUNT>
0

> <PUBCHEM_ISOTOPIC_ATOM_COUNT>
0

> <PUBCHEM_COMPONENT_COUNT>
1

> <PUBCHEM_CACTVS_TAUTO_COUNT>
12

> <PUBCHEM_CONFORMER_ID>
006B905400000001

> <PUBCHEM_MMFF94_ENERGY>
63.5177

> <PUBCHEM_FEATURE_SELFOVERLAP>
71.107

> <PUBCHEM_SHAPE_FINGERPRINT>
10 15 11815898977134484101
10258939 38 18041262319566927384
10917259 128 16844462523484597441
11374522 175 18338232653713473375
117089 54 18196945378645984830
11796584 16 18042395846617678004
11828532 37 17750243654751462747
12107183 9 18198919015688345233
12202916 173 18261107478991133202
12758862 65 18411409636239164058
13533116 47 18342178899354372905
13782708 43 18334293215082144823
13955234 65 18053664951976884225
15183329 4 17603581915982224521
15419008 42 17973424534700942903
15510800 12 18338517439349885590
15927050 60 17764309840418254732
17492 89 18123751946663349134
1979834 28 18060137631047854238
20567600 70 18334856130222309706
21033650 10 16226319319109879453
23559900 14 18115867567992756365
3004659 81 17967532372309993096
3421961 26 18411698820086356672
345986 75 17632302250474136729
439807 62 18040151816557703515
5309563 4 18269561541938925534
9831232 110 18408322190519320775

> <PUBCHEM_SHAPE_MULTIPOLES>
574.15
18.78
5.22
1.32
27.89
0.01
0.1
15.75
2.23
-6.13
-0.78
-1.15
0.32
1.41

> <PUBCHEM_SHAPE_SELFOVERLAP>
1193.8

> <PUBCHEM_SHAPE_VOLUME>
325.6

> <PUBCHEM_COORDINATE_TYPE>
2
5
10

$$$$
