51136924
  -OEChem-12032416223D

 41 44  0     1  0  0  0  0  0999 V2000
    0.1113    2.8935   -2.0779 F   0  0  0  0  0  0  0  0  0  0  0  0
    0.4838    4.1736    0.3092 F   0  0  0  0  0  0  0  0  0  0  0  0
    6.2174   -0.4796   -0.8699 F   0  0  0  0  0  0  0  0  0  0  0  0
   -0.7400   -0.9205    2.0198 O   0  0  0  0  0  0  0  0  0  0  0  0
   -3.0697   -0.9759   -0.6104 N   0  0  1  0  0  0  0  0  0  0  0  0
   -0.0131   -1.4250   -0.0379 N   0  0  0  0  0  0  0  0  0  0  0  0
    0.6351   -0.6539    2.0163 N   0  0  0  0  0  0  0  0  0  0  0  0
    3.2393   -0.4037    1.1999 N   0  0  0  0  0  0  0  0  0  0  0  0
   -2.4870   -1.7325    0.5158 C   0  0  1  0  0  0  0  0  0  0  0  0
   -2.6703   -3.2118    0.1295 C   0  0  0  0  0  0  0  0  0  0  0  0
   -3.4179   -3.1871   -1.1961 C   0  0  0  0  0  0  0  0  0  0  0  0
   -4.1000   -1.8339   -1.1958 C   0  0  0  0  0  0  0  0  0  0  0  0
   -3.5975    0.3242   -0.2169 C   0  0  0  0  0  0  0  0  0  0  0  0
   -1.0392   -1.3706    0.7731 C   0  0  0  0  0  0  0  0  0  0  0  0
   -2.5071    1.3528   -0.0760 C   0  0  0  0  0  0  0  0  0  0  0  0
   -1.6866    1.6524   -1.1636 C   0  0  0  0  0  0  0  0  0  0  0  0
   -2.3173    2.0061    1.1416 C   0  0  0  0  0  0  0  0  0  0  0  0
    0.9914   -0.9757    0.7691 C   0  0  0  0  0  0  0  0  0  0  0  0
   -0.6765    2.6056   -1.0336 C   0  0  0  0  0  0  0  0  0  0  0  0
   -1.3069    2.9591    1.2718 C   0  0  0  0  0  0  0  0  0  0  0  0
    2.3417   -0.8617    0.2987 C   0  0  0  0  0  0  0  0  0  0  0  0
   -0.4866    3.2589    0.1841 C   0  0  0  0  0  0  0  0  0  0  0  0
    2.6594   -1.2102   -1.0042 C   0  0  0  0  0  0  0  0  0  0  0  0
    3.9836   -1.0805   -1.4081 C   0  0  0  0  0  0  0  0  0  0  0  0
    4.5165   -0.2907    0.7711 C   0  0  0  0  0  0  0  0  0  0  0  0
    4.9361   -0.6126   -0.5096 C   0  0  0  0  0  0  0  0  0  0  0  0
   -3.0614   -1.5626    1.4375 H   0  0  0  0  0  0  0  0  0  0  0  0
   -1.7312   -3.7679    0.0366 H   0  0  0  0  0  0  0  0  0  0  0  0
   -3.2843   -3.7161    0.8859 H   0  0  0  0  0  0  0  0  0  0  0  0
   -4.1274   -4.0149   -1.2866 H   0  0  0  0  0  0  0  0  0  0  0  0
   -2.7050   -3.2561   -2.0272 H   0  0  0  0  0  0  0  0  0  0  0  0
   -5.0052   -1.8643   -0.5760 H   0  0  0  0  0  0  0  0  0  0  0  0
   -4.3716   -1.5204   -2.2085 H   0  0  0  0  0  0  0  0  0  0  0  0
   -4.2733    0.7038   -0.9964 H   0  0  0  0  0  0  0  0  0  0  0  0
   -4.2079    0.2566    0.6932 H   0  0  0  0  0  0  0  0  0  0  0  0
   -1.8246    1.1553   -2.1201 H   0  0  0  0  0  0  0  0  0  0  0  0
   -2.9473    1.7811    1.9979 H   0  0  0  0  0  0  0  0  0  0  0  0
   -1.1580    3.4670    2.2200 H   0  0  0  0  0  0  0  0  0  0  0  0
    1.9214   -1.5756   -1.7108 H   0  0  0  0  0  0  0  0  0  0  0  0
    4.2734   -1.3434   -2.4209 H   0  0  0  0  0  0  0  0  0  0  0  0
    5.2205    0.0781    1.5096 H   0  0  0  0  0  0  0  0  0  0  0  0
  1 19  1  0  0  0  0
  2 22  1  0  0  0  0
  3 26  1  0  0  0  0
  4  7  1  0  0  0  0
  4 14  1  0  0  0  0
  5  9  1  0  0  0  0
  5 12  1  0  0  0  0
  5 13  1  0  0  0  0
  6 14  2  0  0  0  0
  6 18  1  0  0  0  0
  7 18  2  0  0  0  0
  8 21  2  0  0  0  0
  8 25  1  0  0  0  0
  9 10  1  0  0  0  0
  9 14  1  0  0  0  0
  9 27  1  0  0  0  0
 10 11  1  0  0  0  0
 10 28  1  0  0  0  0
 10 29  1  0  0  0  0
 11 12  1  0  0  0  0
 11 30  1  0  0  0  0
 11 31  1  0  0  0  0
 12 32  1  0  0  0  0
 12 33  1  0  0  0  0
 13 15  1  0  0  0  0
 13 34  1  0  0  0  0
 13 35  1  0  0  0  0
 15 16  2  0  0  0  0
 15 17  1  0  0  0  0
 16 19  1  0  0  0  0
 16 36  1  0  0  0  0
 17 20  2  0  0  0  0
 17 37  1  0  0  0  0
 18 21  1  0  0  0  0
 19 22  2  0  0  0  0
 20 22  1  0  0  0  0
 20 38  1  0  0  0  0
 21 23  1  0  0  0  0
 23 24  2  0  0  0  0
 23 39  1  0  0  0  0
 24 26  1  0  0  0  0
 24 40  1  0  0  0  0
 25 26  2  0  0  0  0
 25 41  1  0  0  0  0
M  END
> <PUBCHEM_COMPOUND_CID>
51136924

> <PUBCHEM_CONFORMER_RMSD>
0.8

> <PUBCHEM_CONFORMER_DIVERSEORDER>
1
113
14
39
17
104
63
51
132
166
171
163
102
50
90
91
117
125
121
21
32
16
69
154
144
44
159
174
42
67
30
97
147
27
156
45
148
146
115
46
103
138
169
165
111
31
143
122
112
105
145
133
87
150
158
24
15
71
114
152
3
168
22
128
120
33
79
35
29
53
13
72
118
74
109
173
52
130
92
40
170
134
155
129
98
93
88
123
175
135
83
110
137
76
26
81
101
162
100
108
65
142
172
2
96
140
161
55
5
95
62
78
75
160
141
38
37
7
136
54
84
94
126
86
4
43
167
6
164
49
66
151
70
58
9
107
28
116
153
85
23
149
73
99
80
25
77
106
119
11
41
124
60
68
10
57
139
131
8
48
89
18
36
127
12
19
61
157
20
34
59
64
56
82
47

> <PUBCHEM_MMFF94_PARTIAL_CHARGES>
30
1 -0.19
12 0.27
13 0.41
14 0.3
15 -0.14
16 -0.15
17 -0.15
18 0.46
19 0.19
2 -0.19
20 -0.15
21 0.36
22 0.19
23 -0.15
24 -0.15
25 0.16
26 0.19
3 -0.19
36 0.15
37 0.15
38 0.15
39 0.15
4 -0.02
40 0.15
41 0.15
5 -0.81
6 -0.57
7 -0.41
8 -0.62
9 0.45

> <PUBCHEM_EFFECTIVE_ROTOR_COUNT>
5

> <PUBCHEM_PHARMACOPHORE_FEATURES>
7
1 5 cation
1 8 acceptor
3 6 7 18 cation
5 4 6 7 14 18 rings
5 5 9 10 11 12 rings
6 15 16 17 19 20 22 rings
6 8 21 23 24 25 26 rings

> <PUBCHEM_HEAVY_ATOM_COUNT>
26

> <PUBCHEM_ATOM_DEF_STEREO_COUNT>
1

> <PUBCHEM_ATOM_UDEF_STEREO_COUNT>
0

> <PUBCHEM_BOND_DEF_STEREO_COUNT>
0

> <PUBCHEM_BOND_UDEF_STEREO_COUNT>
0

> <PUBCHEM_ISOTOPIC_ATOM_COUNT>
0

> <PUBCHEM_COMPONENT_COUNT>
1

> <PUBCHEM_CACTVS_TAUTO_COUNT>
1

> <PUBCHEM_CONFORMER_ID>
030C499C00000001

> <PUBCHEM_MMFF94_ENERGY>
44.6754

> <PUBCHEM_FEATURE_SELFOVERLAP>
35.523

> <PUBCHEM_SHAPE_FINGERPRINT>
10165383 225 17624149204108067153
10498660 4 18264479603141911941
107951 10 17057253133704268833
10871710 139 18041279846800285501
1100329 8 18411139152078481433
11477941 20 18412267268304669492
11488393 25 17183630329975279035
12156800 1 15580000051293990212
12173636 292 17837768928854430241
12788726 201 18334851684514667283
128993 33 17327467925571326289
13149001 5 17825944007868350915
133893 2 17828494896471919785
13761468 95 17536893074230391076
13994607 96 17387154025242324800
14081887 123 18338786819782573160
14142880 1 18118695326835994633
14713325 29 18270407087792341446
14790565 3 18052535466046590865
14910302 57 18130224835824343638
14955137 171 18339098037951173523
15849732 13 18272381858690230827
15961568 22 18266450100643248536
17357779 13 18199450203624934383
17492 54 18042668534797923325
17818456 19 17975112263833542954
20600515 1 17900513946988134443
20642791 239 17967802869513949109
20905425 154 17905324379585390197
21344244 246 17620185876938047846
21623110 236 18335432313039165100
23402539 116 18408600374823335382
23419403 2 17758638477051687861
23557571 272 18343019990957509446
238 59 16531425841211012229
4280585 95 18266440161313017186
469060 322 17604735286400036017
531348 171 18197226854229162006
57527585 103 17388833155602232736
6287921 2 17698707431015791840
7399639 24 17916568956343845890
81228 2 18408608037060536691

> <PUBCHEM_SHAPE_MULTIPOLES>
487.45
8.51
4.32
1.61
12.5
3.29
0.09
-5.63
-2.57
-4.28
-0.61
0.16
0.19
-0.43

> <PUBCHEM_SHAPE_SELFOVERLAP>
1070.289

> <PUBCHEM_SHAPE_VOLUME>
265.9

> <PUBCHEM_COORDINATE_TYPE>
2
5
10

$$$$
