40586241
  -OEChem-12032416133D

 61 64  0     1  0  0  0  0  0999 V2000
    2.7885   -3.0080    0.1010 S   0  0  0  0  0  0  0  0  0  0  0  0
   -1.5218   -1.2800   -0.8979 O   0  0  0  0  0  0  0  0  0  0  0  0
    0.4459    1.0792   -1.0520 O   0  0  0  0  0  0  0  0  0  0  0  0
   -3.0938    0.9721   -0.5104 O   0  0  0  0  0  0  0  0  0  0  0  0
    3.0375   -3.5495   -1.2215 O   0  0  0  0  0  0  0  0  0  0  0  0
    2.9651   -3.8409    1.2752 O   0  0  0  0  0  0  0  0  0  0  0  0
   -3.6860    1.2349    1.6930 O   0  0  0  0  0  0  0  0  0  0  0  0
    6.6594    2.5100   -1.3888 O   0  0  0  0  0  0  0  0  0  0  0  0
    1.2373   -2.3187    0.1472 N   0  0  0  0  0  0  0  0  0  0  0  0
   -5.2914    1.0055    0.0339 N   0  0  0  0  0  0  0  0  0  0  0  0
    6.2732    1.7652    0.8145 N   0  0  0  0  0  0  0  0  0  0  0  0
    0.3665   -0.0491   -0.1562 C   0  0  1  0  0  0  0  0  0  0  0  0
   -1.1060   -0.3169    0.0845 C   0  0  1  0  0  0  0  0  0  0  0  0
    0.8542   -1.2946   -0.8537 C   0  0  2  0  0  0  0  0  0  0  0  0
   -1.7300    1.0361   -0.1595 C   0  0  1  0  0  0  0  0  0  0  0  0
   -0.3730   -1.7563   -1.6153 C   0  0  0  0  0  0  0  0  0  0  0  0
   -0.8783    1.5813   -1.2833 C   0  0  0  0  0  0  0  0  0  0  0  0
   -6.4688    1.0906    0.8690 C   0  0  0  0  0  0  0  0  0  0  0  0
   -7.6311    1.7477    0.1171 C   0  0  0  0  0  0  0  0  0  0  0  0
   -6.8640   -0.2890    1.4064 C   0  0  0  0  0  0  0  0  0  0  0  0
   -8.2152    0.8398   -0.9653 C   0  0  0  0  0  0  0  0  0  0  0  0
   -7.4493   -1.1936    0.3218 C   0  0  0  0  0  0  0  0  0  0  0  0
   -8.6111   -0.5226   -0.4045 C   0  0  0  0  0  0  0  0  0  0  0  0
   -4.0024    1.0850    0.5174 C   0  0  0  0  0  0  0  0  0  0  0  0
    3.8235   -1.5907    0.3132 C   0  0  0  0  0  0  0  0  0  0  0  0
    4.2649   -0.8768   -0.8010 C   0  0  0  0  0  0  0  0  0  0  0  0
    4.1989   -1.1865    1.5944 C   0  0  0  0  0  0  0  0  0  0  0  0
    5.0816    0.2414   -0.6338 C   0  0  0  0  0  0  0  0  0  0  0  0
    5.0157   -0.0683    1.7613 C   0  0  0  0  0  0  0  0  0  0  0  0
    5.4570    0.6458    0.6473 C   0  0  0  0  0  0  0  0  0  0  0  0
    6.8090    2.6006   -0.1746 C   0  0  0  0  0  0  0  0  0  0  0  0
    7.6440    3.7067    0.4202 C   0  0  0  0  0  0  0  0  0  0  0  0
    0.9156    0.2105    0.7545 H   0  0  0  0  0  0  0  0  0  0  0  0
   -1.3299   -0.7318    1.0716 H   0  0  0  0  0  0  0  0  0  0  0  0
    1.6617   -1.1089   -1.5634 H   0  0  0  0  0  0  0  0  0  0  0  0
   -1.5634    1.6777    0.7169 H   0  0  0  0  0  0  0  0  0  0  0  0
   -0.4073   -1.3055   -2.6132 H   0  0  0  0  0  0  0  0  0  0  0  0
   -0.4415   -2.8429   -1.7264 H   0  0  0  0  0  0  0  0  0  0  0  0
   -1.2195    1.2406   -2.2674 H   0  0  0  0  0  0  0  0  0  0  0  0
   -0.8590    2.6752   -1.2986 H   0  0  0  0  0  0  0  0  0  0  0  0
    0.6500   -2.4104    0.9847 H   0  0  0  0  0  0  0  0  0  0  0  0
   -6.2112    1.7272    1.7247 H   0  0  0  0  0  0  0  0  0  0  0  0
   -7.3059    2.6914   -0.3371 H   0  0  0  0  0  0  0  0  0  0  0  0
   -8.4242    1.9963    0.8339 H   0  0  0  0  0  0  0  0  0  0  0  0
   -7.6128   -0.1607    2.1985 H   0  0  0  0  0  0  0  0  0  0  0  0
   -6.0006   -0.7855    1.8653 H   0  0  0  0  0  0  0  0  0  0  0  0
   -7.4901    0.7061   -1.7766 H   0  0  0  0  0  0  0  0  0  0  0  0
   -9.0945    1.3213   -1.4083 H   0  0  0  0  0  0  0  0  0  0  0  0
   -7.7915   -2.1319    0.7729 H   0  0  0  0  0  0  0  0  0  0  0  0
   -6.6681   -1.4567   -0.4018 H   0  0  0  0  0  0  0  0  0  0  0  0
   -9.4518   -0.4000    0.2896 H   0  0  0  0  0  0  0  0  0  0  0  0
   -8.9608   -1.1688   -1.2174 H   0  0  0  0  0  0  0  0  0  0  0  0
   -5.4075    0.8344   -0.9601 H   0  0  0  0  0  0  0  0  0  0  0  0
    3.9923   -1.1774   -1.8085 H   0  0  0  0  0  0  0  0  0  0  0  0
    3.8606   -1.7231    2.4762 H   0  0  0  0  0  0  0  0  0  0  0  0
    5.3847    0.7416   -1.5430 H   0  0  0  0  0  0  0  0  0  0  0  0
    5.2990    0.2367    2.7655 H   0  0  0  0  0  0  0  0  0  0  0  0
    6.5024    1.9952    1.7792 H   0  0  0  0  0  0  0  0  0  0  0  0
    8.4590    3.2799    1.0115 H   0  0  0  0  0  0  0  0  0  0  0  0
    7.0198    4.3376    1.0593 H   0  0  0  0  0  0  0  0  0  0  0  0
    8.0698    4.3203   -0.3786 H   0  0  0  0  0  0  0  0  0  0  0  0
  1  5  2  0  0  0  0
  1  6  2  0  0  0  0
  1  9  1  0  0  0  0
  1 25  1  0  0  0  0
  2 13  1  0  0  0  0
  2 16  1  0  0  0  0
  3 12  1  0  0  0  0
  3 17  1  0  0  0  0
  4 15  1  0  0  0  0
  4 24  1  0  0  0  0
  7 24  2  0  0  0  0
  8 31  2  0  0  0  0
  9 14  1  0  0  0  0
  9 41  1  0  0  0  0
 10 18  1  0  0  0  0
 10 24  1  0  0  0  0
 10 53  1  0  0  0  0
 11 30  1  0  0  0  0
 11 31  1  0  0  0  0
 11 58  1  0  0  0  0
 12 13  1  0  0  0  0
 12 14  1  0  0  0  0
 12 33  1  0  0  0  0
 13 15  1  0  0  0  0
 13 34  1  0  0  0  0
 14 16  1  0  0  0  0
 14 35  1  0  0  0  0
 15 17  1  0  0  0  0
 15 36  1  0  0  0  0
 16 37  1  0  0  0  0
 16 38  1  0  0  0  0
 17 39  1  0  0  0  0
 17 40  1  0  0  0  0
 18 19  1  0  0  0  0
 18 20  1  0  0  0  0
 18 42  1  0  0  0  0
 19 21  1  0  0  0  0
 19 43  1  0  0  0  0
 19 44  1  0  0  0  0
 20 22  1  0  0  0  0
 20 45  1  0  0  0  0
 20 46  1  0  0  0  0
 21 23  1  0  0  0  0
 21 47  1  0  0  0  0
 21 48  1  0  0  0  0
 22 23  1  0  0  0  0
 22 49  1  0  0  0  0
 22 50  1  0  0  0  0
 23 51  1  0  0  0  0
 23 52  1  0  0  0  0
 25 26  2  0  0  0  0
 25 27  1  0  0  0  0
 26 28  1  0  0  0  0
 26 54  1  0  0  0  0
 27 29  2  0  0  0  0
 27 55  1  0  0  0  0
 28 30  2  0  0  0  0
 28 56  1  0  0  0  0
 29 30  1  0  0  0  0
 29 57  1  0  0  0  0
 31 32  1  0  0  0  0
 32 59  1  0  0  0  0
 32 60  1  0  0  0  0
 32 61  1  0  0  0  0
M  END
> <PUBCHEM_COMPOUND_CID>
40586241

> <PUBCHEM_CONFORMER_RMSD>
1.2

> <PUBCHEM_CONFORMER_DIVERSEORDER>
1
74
62
3
51
77
38
21
9
57
13
84
20
11
97
82
49
98
61
65
53
63
32
2
67
48
85
33
80
89
88
45
34
7
56
94
59
78
47
30
12
71
60
42
8
96
90
40
15
68
44
79
58
10
69
43
14
52
23
18
73
22
37
6
87
64
72
16
95
70
92
19
17
27
29
5
36
76
25
99
35
66
31
46
55
24
26
86
81
75
83
93
50
39
54
4
41
28
91

> <PUBCHEM_MMFF94_PARTIAL_CHARGES>
34
1 1.45
10 -0.73
11 -0.55
12 0.28
13 0.28
14 0.36
15 0.28
16 0.28
17 0.28
18 0.3
2 -0.56
24 0.78
25 -0.01
26 -0.15
27 -0.15
28 -0.15
29 -0.15
3 -0.56
30 0.12
31 0.57
32 0.06
4 -0.43
41 0.42
5 -0.65
53 0.37
54 0.15
55 0.15
56 0.15
57 0.15
58 0.37
6 -0.65
7 -0.57
8 -0.57
9 -0.91

> <PUBCHEM_EFFECTIVE_ROTOR_COUNT>
11.4

> <PUBCHEM_PHARMACOPHORE_FEATURES>
13
1 10 donor
1 11 donor
1 2 acceptor
1 3 acceptor
1 5 acceptor
1 6 acceptor
1 7 acceptor
1 8 acceptor
1 9 donor
5 2 12 13 14 16 rings
5 3 12 13 15 17 rings
6 18 19 20 21 22 23 rings
6 25 26 27 28 29 30 rings

> <PUBCHEM_HEAVY_ATOM_COUNT>
32

> <PUBCHEM_ATOM_DEF_STEREO_COUNT>
4

> <PUBCHEM_ATOM_UDEF_STEREO_COUNT>
0

> <PUBCHEM_BOND_DEF_STEREO_COUNT>
0

> <PUBCHEM_BOND_UDEF_STEREO_COUNT>
0

> <PUBCHEM_ISOTOPIC_ATOM_COUNT>
0

> <PUBCHEM_COMPONENT_COUNT>
1

> <PUBCHEM_CACTVS_TAUTO_COUNT>
4

> <PUBCHEM_CONFORMER_ID>
026B4C0100000001

> <PUBCHEM_MMFF94_ENERGY>
60.3988

> <PUBCHEM_FEATURE_SELFOVERLAP>
66.705

> <PUBCHEM_SHAPE_FINGERPRINT>
10 15 18335138708826332017
10165383 225 18413387640778024672
10391435 84 18187366554526472627
10794284 68 17843402036435563991
10842051 180 18202001036563675881
10904742 90 18340769329990665664
10917259 69 8933908550477628919
10939801 23 18341894125959460215
11135609 201 18339074995393822496
11273773 46 10663827394278072781
12373685 5 15719966854975520635
12539765 74 17560247925301563887
12596602 18 18130225931383629451
13947947 140 11891867495515719624
14114211 68 18342466946015921368
14461889 52 18408604755827179899
14537116 161 16702300126891877496
1454969 45 18343019991342377989
14565420 104 18334011697061095402
14849402 71 18202284740744886529
15183329 4 13262973858312609395
15188451 53 12757141381990782212
15419008 91 17822845387044180557
15475509 8 12535628280148135475
15685185 35 18196933494993598908
15728490 51 18343300401294150671
15840311 113 18410295800473358092
16664035 1 8718830890697769518
19304671 126 16486687091535154280
20567600 234 18408882919098703025
20609170 85 17677309681575023629
21130935 74 18336551496054773235
21365058 113 17626401017566628350
21781051 124 13470683767503365741
21987483 16 18040998445070498443
22224240 67 18334575754461736553
23389318 12 18271234007168491831
23522609 53 17273995566220616945
24771293 8 18261116270477821253
397830 11 18188204300249313069
3986486 107 16558487348249647464
4073 2 18335143103063510715
4169191 19 18413390943291760489
4258327 124 18271248329924632785
437795 163 18341609365533150263
4403749 210 18409164433801238287
444735 82 18339082588474540925
45377200 153 15194992921551196381
4625314 4 18268993094706615207
5109719 28 18411427227665857560
57307002 182 16950566636188147492
8988823 20 15430330121969006046
9849439 229 18411979204963702872
9962374 69 18197768921566618382

> <PUBCHEM_SHAPE_MULTIPOLES>
606.37
25.25
3.57
1.42
31.53
1.1
0.17
-16.87
3.56
-8.24
-0.1
-0.49
0.2
-0.54

> <PUBCHEM_SHAPE_SELFOVERLAP>
1267.102

> <PUBCHEM_SHAPE_VOLUME>
344.1

> <PUBCHEM_COORDINATE_TYPE>
2
5
10

$$$$
