11911909
  -OEChem-12032416363D

 60 64  0     1  0  0  0  0  0999 V2000
    3.0267   -3.0419    2.9873 F   0  0  0  0  0  0  0  0  0  0  0  0
    0.4637    1.6478    1.7367 O   0  0  0  0  0  0  0  0  0  0  0  0
    0.3081    4.2202    0.0129 O   0  0  0  0  0  0  0  0  0  0  0  0
   -4.2247    2.4483    1.5220 O   0  0  0  0  0  0  0  0  0  0  0  0
   -2.3275    1.6843    0.4287 N   0  0  0  0  0  0  0  0  0  0  0  0
    2.5655    2.4371   -1.1458 N   0  0  0  0  0  0  0  0  0  0  0  0
    3.5699    0.3865   -0.6048 N   0  0  0  0  0  0  0  0  0  0  0  0
    3.7267    1.2915   -2.8327 N   0  0  0  0  0  0  0  0  0  0  0  0
   -6.5614   -2.8609   -1.0514 N   0  0  0  0  0  0  0  0  0  0  0  0
   -0.2906    2.9193   -0.1230 C   0  0  1  0  0  0  0  0  0  0  0  0
    0.7330    1.9042    0.3467 C   0  0  1  0  0  0  0  0  0  0  0  0
   -1.4392    2.7657    0.8497 C   0  0  2  0  0  0  0  0  0  0  0  0
    2.0552    2.6185    0.1955 C   0  0  2  0  0  0  0  0  0  0  0  0
   -0.7156    2.3675    2.1270 C   0  0  0  0  0  0  0  0  0  0  0  0
    1.6760    4.0708    0.4224 C   0  0  0  0  0  0  0  0  0  0  0  0
   -3.6607    1.6226    0.8088 C   0  0  0  0  0  0  0  0  0  0  0  0
    3.3094    1.3389   -1.5396 C   0  0  0  0  0  0  0  0  0  0  0  0
   -4.4233    0.4453    0.3191 C   0  0  0  0  0  0  0  0  0  0  0  0
   -4.0261   -0.1663   -0.8518 C   0  0  0  0  0  0  0  0  0  0  0  0
   -5.5042    0.0006    1.0518 C   0  0  0  0  0  0  0  0  0  0  0  0
    4.2975   -0.6699   -1.0228 C   0  0  0  0  0  0  0  0  0  0  0  0
    4.4497    0.2073   -3.1823 C   0  0  0  0  0  0  0  0  0  0  0  0
    4.7686   -0.8146   -2.3118 C   0  0  0  0  0  0  0  0  0  0  0  0
   -4.7418   -1.2723   -1.3106 C   0  0  0  0  0  0  0  0  0  0  0  0
   -6.2199   -1.1053    0.5930 C   0  0  0  0  0  0  0  0  0  0  0  0
   -5.8386   -1.7418   -0.5882 C   0  0  0  0  0  0  0  0  0  0  0  0
    4.5615   -1.6693   -0.0155 C   0  0  0  0  0  0  0  0  0  0  0  0
    3.6489   -1.8779    1.0210 C   0  0  0  0  0  0  0  0  0  0  0  0
    5.7303   -2.4316   -0.0736 C   0  0  0  0  0  0  0  0  0  0  0  0
   -5.9018   -3.8885   -1.8322 C   0  0  0  0  0  0  0  0  0  0  0  0
   -7.9761   -2.9908   -0.7646 C   0  0  0  0  0  0  0  0  0  0  0  0
    3.9036   -2.8439    1.9943 C   0  0  0  0  0  0  0  0  0  0  0  0
    5.9851   -3.3976    0.9000 C   0  0  0  0  0  0  0  0  0  0  0  0
    5.0719   -3.6037    1.9339 C   0  0  0  0  0  0  0  0  0  0  0  0
   -0.5708    2.7928   -1.1738 H   0  0  0  0  0  0  0  0  0  0  0  0
    0.6608    0.9481   -0.1815 H   0  0  0  0  0  0  0  0  0  0  0  0
   -2.0243    3.6794    0.9945 H   0  0  0  0  0  0  0  0  0  0  0  0
    2.8042    2.3229    0.9391 H   0  0  0  0  0  0  0  0  0  0  0  0
   -0.3862    3.2539    2.6804 H   0  0  0  0  0  0  0  0  0  0  0  0
   -1.3124    1.7447    2.8005 H   0  0  0  0  0  0  0  0  0  0  0  0
    2.2980    4.7842   -0.1270 H   0  0  0  0  0  0  0  0  0  0  0  0
    1.7230    4.3247    1.4872 H   0  0  0  0  0  0  0  0  0  0  0  0
   -1.9007    0.9093   -0.0682 H   0  0  0  0  0  0  0  0  0  0  0  0
    2.3331    3.1147   -1.8631 H   0  0  0  0  0  0  0  0  0  0  0  0
   -3.2019    0.1903   -1.4609 H   0  0  0  0  0  0  0  0  0  0  0  0
   -5.8088    0.4799    1.9773 H   0  0  0  0  0  0  0  0  0  0  0  0
    4.7711    0.1793   -4.2180 H   0  0  0  0  0  0  0  0  0  0  0  0
    5.3328   -1.6680   -2.6656 H   0  0  0  0  0  0  0  0  0  0  0  0
   -4.4306   -1.7328   -2.2439 H   0  0  0  0  0  0  0  0  0  0  0  0
   -7.0606   -1.4536    1.1862 H   0  0  0  0  0  0  0  0  0  0  0  0
    2.7241   -1.3103    1.0925 H   0  0  0  0  0  0  0  0  0  0  0  0
    6.4808   -2.2872   -0.8463 H   0  0  0  0  0  0  0  0  0  0  0  0
   -5.7931   -3.5737   -2.8754 H   0  0  0  0  0  0  0  0  0  0  0  0
   -4.9136   -4.1303   -1.4248 H   0  0  0  0  0  0  0  0  0  0  0  0
   -6.4796   -4.8196   -1.8278 H   0  0  0  0  0  0  0  0  0  0  0  0
   -8.5002   -2.0366   -0.8898 H   0  0  0  0  0  0  0  0  0  0  0  0
   -8.4539   -3.7038   -1.4459 H   0  0  0  0  0  0  0  0  0  0  0  0
   -8.1333   -3.3556    0.2559 H   0  0  0  0  0  0  0  0  0  0  0  0
    6.8973   -3.9855    0.8568 H   0  0  0  0  0  0  0  0  0  0  0  0
    5.2707   -4.3547    2.6928 H   0  0  0  0  0  0  0  0  0  0  0  0
  1 32  1  0  0  0  0
  2 11  1  0  0  0  0
  2 14  1  0  0  0  0
  3 10  1  0  0  0  0
  3 15  1  0  0  0  0
  4 16  2  0  0  0  0
  5 12  1  0  0  0  0
  5 16  1  0  0  0  0
  5 43  1  0  0  0  0
  6 13  1  0  0  0  0
  6 17  1  0  0  0  0
  6 44  1  0  0  0  0
  7 17  1  0  0  0  0
  7 21  2  0  0  0  0
  8 17  2  0  0  0  0
  8 22  1  0  0  0  0
  9 26  1  0  0  0  0
  9 30  1  0  0  0  0
  9 31  1  0  0  0  0
 10 11  1  0  0  0  0
 10 12  1  0  0  0  0
 10 35  1  0  0  0  0
 11 13  1  0  0  0  0
 11 36  1  0  0  0  0
 12 14  1  0  0  0  0
 12 37  1  0  0  0  0
 13 15  1  0  0  0  0
 13 38  1  0  0  0  0
 14 39  1  0  0  0  0
 14 40  1  0  0  0  0
 15 41  1  0  0  0  0
 15 42  1  0  0  0  0
 16 18  1  0  0  0  0
 18 19  2  0  0  0  0
 18 20  1  0  0  0  0
 19 24  1  0  0  0  0
 19 45  1  0  0  0  0
 20 25  2  0  0  0  0
 20 46  1  0  0  0  0
 21 23  1  0  0  0  0
 21 27  1  0  0  0  0
 22 23  2  0  0  0  0
 22 47  1  0  0  0  0
 23 48  1  0  0  0  0
 24 26  2  0  0  0  0
 24 49  1  0  0  0  0
 25 26  1  0  0  0  0
 25 50  1  0  0  0  0
 27 28  2  0  0  0  0
 27 29  1  0  0  0  0
 28 32  1  0  0  0  0
 28 51  1  0  0  0  0
 29 33  2  0  0  0  0
 29 52  1  0  0  0  0
 30 53  1  0  0  0  0
 30 54  1  0  0  0  0
 30 55  1  0  0  0  0
 31 56  1  0  0  0  0
 31 57  1  0  0  0  0
 31 58  1  0  0  0  0
 32 34  2  0  0  0  0
 33 34  1  0  0  0  0
 33 59  1  0  0  0  0
 34 60  1  0  0  0  0
M  END
> <PUBCHEM_COMPOUND_CID>
11911909

> <PUBCHEM_CONFORMER_RMSD>
1

> <PUBCHEM_CONFORMER_DIVERSEORDER>
1
121
113
199
28
19
196
185
143
107
126
89
146
64
71
191
187
133
22
164
193
34
184
103
142
128
109
12
13
183
57
198
154
177
173
160
68
105
95
157
167
129
181
46
86
92
81
37
53
162
45
33
55
161
118
31
60
139
32
169
152
194
62
49
16
150
43
180
78
90
120
147
108
8
172
163
85
14
35
93
98
82
125
106
41
188
56
39
65
175
174
165
166
153
63
97
155
36
99
131
9
123
112
61
101
137
27
74
130
94
189
186
51
158
18
29
7
77
127
26
195
140
42
54
171
149
58
100
190
102
192
151
48
6
80
145
159
122
96
79
15
23
40
144
21
178
132
197
44
117
148
5
124
141
72
179
119
156
17
52
75
69
114
50
76
59
47
104
10
84
168
83
134
4
2
116
38
24
20
170
87
138
110
70
3
88
91
67
176
182
11
66
111
30
115
136
73
135
25

> <PUBCHEM_MMFF94_PARTIAL_CHARGES>
45
1 -0.19
10 0.28
11 0.28
12 0.3
13 0.37
14 0.28
15 0.28
16 0.54
17 0.72
18 0.09
19 -0.15
2 -0.56
20 -0.15
21 0.31
22 0.16
23 -0.15
24 -0.15
25 -0.15
26 0.1
28 -0.15
29 -0.15
3 -0.56
30 0.37
31 0.37
32 0.19
33 -0.15
34 -0.15
4 -0.57
43 0.37
44 0.4
45 0.15
46 0.15
47 0.15
48 0.15
49 0.15
5 -0.73
50 0.15
51 0.15
52 0.15
59 0.15
6 -0.87
60 0.15
7 -0.62
8 -0.62
9 -0.84

> <PUBCHEM_EFFECTIVE_ROTOR_COUNT>
8.2

> <PUBCHEM_PHARMACOPHORE_FEATURES>
13
1 2 acceptor
1 3 acceptor
1 4 acceptor
1 5 donor
1 6 donor
1 7 acceptor
1 9 cation
4 6 7 8 17 cation
5 2 10 11 12 14 rings
5 3 10 11 13 15 rings
6 18 19 20 24 25 26 rings
6 27 28 29 32 33 34 rings
6 7 8 17 21 22 23 rings

> <PUBCHEM_HEAVY_ATOM_COUNT>
34

> <PUBCHEM_ATOM_DEF_STEREO_COUNT>
4

> <PUBCHEM_ATOM_UDEF_STEREO_COUNT>
0

> <PUBCHEM_BOND_DEF_STEREO_COUNT>
0

> <PUBCHEM_BOND_UDEF_STEREO_COUNT>
0

> <PUBCHEM_ISOTOPIC_ATOM_COUNT>
0

> <PUBCHEM_COMPONENT_COUNT>
1

> <PUBCHEM_CACTVS_TAUTO_COUNT>
6

> <PUBCHEM_CONFORMER_ID>
00B5C2E500000001

> <PUBCHEM_MMFF94_ENERGY>
117.6481

> <PUBCHEM_FEATURE_SELFOVERLAP>
66.682

> <PUBCHEM_SHAPE_FINGERPRINT>
10556698 54 14779808443925059607
10622 236 18334858264404142209
10928967 22 18410018719168874529
11069576 57 17823713979718174870
11227150 75 17823679903194928642
11478447 58 18194108848941977539
11607047 403 18269540810717331280
11796584 16 18129954368448216993
11963148 33 17696181883578969823
13553644 42 18411979188090789943
14040221 126 16973063971143536487
14340393 91 17459734953051611087
14347332 77 18341615941043378893
14480069 147 18041857142065522275
15001296 14 18198905997209440767
15320294 125 18123480380091833257
17138139 8 18338531789167391508
19303781 99 17751082405903033874
19315092 285 18186802448604019014
20775438 99 18189331449664838426
208703 8 18413105035249632086
21458453 9 16414323764054116248
21585483 132 18199739418713682735
21599406 157 17023469754478242339
21792938 131 18340198683720049115
24204213 148 18335416898854421538
24983565 74 17699283584638925983
25222932 49 18413107290661116556
2838139 119 12613035066932777317
4112364 45 10519714410226736811
4394409 98 18122893241008890213
439807 62 18187936053908926417
45266715 3 18190739936791914232
46194498 28 14998578320001270340
463206 1 18262249819752540688
50009960 94 18270099297350353102
504843 32 17183914004471461220
59025328 239 17241050878027552220
6058803 2 18265919989604129548
6201460 15 18191579748991383475
636783 263 18124853902297166839
6636735 143 15267340704922718967
96874 4 18335980866019383370

> <PUBCHEM_SHAPE_MULTIPOLES>
649.92
18.96
5.93
2.52
22.75
0.31
0.65
-25.95
4.2
-0.8
-1.78
-3.63
-1.03
-6.86

> <PUBCHEM_SHAPE_SELFOVERLAP>
1423.47

> <PUBCHEM_SHAPE_VOLUME>
354.2

> <PUBCHEM_COORDINATE_TYPE>
2
5
10

$$$$
