28960095
  -OEChem-12032416203D

 61 62  0     1  0  0  0  0  0999 V2000
    3.9876   -0.4311    1.2106 O   0  0  0  0  0  0  0  0  0  0  0  0
   -3.1069   -4.6633    0.5830 O   0  0  0  0  0  0  0  0  0  0  0  0
   -1.0006   -5.3446    0.0539 O   0  0  0  0  0  0  0  0  0  0  0  0
    2.3678   -1.2313   -0.2498 N   0  0  0  0  0  0  0  0  0  0  0  0
   -1.4389    2.1305   -0.3885 N   0  0  3  0  0  0  0  0  0  0  0  0
    0.0284   -1.3161   -1.0827 C   0  0  2  0  0  0  0  0  0  0  0  0
   -0.1348   -2.6851   -0.3743 C   0  0  1  0  0  0  0  0  0  0  0  0
    1.5094   -1.0815   -1.4319 C   0  0  0  0  0  0  0  0  0  0  0  0
    0.8180   -2.8182    0.8257 C   0  0  0  0  0  0  0  0  0  0  0  0
    2.2611   -2.5256    0.4231 C   0  0  0  0  0  0  0  0  0  0  0  0
   -0.5242   -0.1304   -0.2819 C   0  0  0  0  0  0  0  0  0  0  0  0
   -1.5752   -2.9758    0.0464 C   0  0  0  0  0  0  0  0  0  0  0  0
   -0.8772    1.0539   -1.1682 C   0  0  0  0  0  0  0  0  0  0  0  0
    3.2575   -0.2704    0.2293 C   0  0  0  0  0  0  0  0  0  0  0  0
    3.3061    1.0383   -0.5182 C   0  0  0  0  0  0  0  0  0  0  0  0
    4.3526    2.0132    0.0507 C   0  0  0  0  0  0  0  0  0  0  0  0
   -1.8173   -4.4504    0.2150 C   0  0  0  0  0  0  0  0  0  0  0  0
    4.4023    3.3146   -0.7680 C   0  0  0  0  0  0  0  0  0  0  0  0
    5.7298    1.3285   -0.0318 C   0  0  0  0  0  0  0  0  0  0  0  0
    4.0584    2.3468    1.5232 C   0  0  0  0  0  0  0  0  0  0  0  0
   -2.8116    2.1928   -0.1090 C   0  0  0  0  0  0  0  0  0  0  0  0
   -0.5413    3.1689    0.1212 C   0  0  0  0  0  0  0  0  0  0  0  0
   -3.6677    1.2040   -0.5940 C   0  0  0  0  0  0  0  0  0  0  0  0
   -3.3209    3.2435    0.6539 C   0  0  0  0  0  0  0  0  0  0  0  0
   -5.0333    1.2661   -0.3162 C   0  0  0  0  0  0  0  0  0  0  0  0
   -4.6864    3.3056    0.9318 C   0  0  0  0  0  0  0  0  0  0  0  0
   -5.5426    2.3170    0.4467 C   0  0  0  0  0  0  0  0  0  0  0  0
   -0.5304   -1.3783   -2.0268 H   0  0  0  0  0  0  0  0  0  0  0  0
    0.1691   -3.4431   -1.1114 H   0  0  0  0  0  0  0  0  0  0  0  0
    1.8406   -1.8384   -2.1543 H   0  0  0  0  0  0  0  0  0  0  0  0
    1.6434   -0.1172   -1.9220 H   0  0  0  0  0  0  0  0  0  0  0  0
    0.7678   -3.8230    1.2587 H   0  0  0  0  0  0  0  0  0  0  0  0
    0.5179   -2.1173    1.6151 H   0  0  0  0  0  0  0  0  0  0  0  0
    2.9041   -2.5594    1.3082 H   0  0  0  0  0  0  0  0  0  0  0  0
    2.6263   -3.2885   -0.2746 H   0  0  0  0  0  0  0  0  0  0  0  0
   -1.4292   -0.4275    0.2559 H   0  0  0  0  0  0  0  0  0  0  0  0
    0.1817    0.1822    0.4975 H   0  0  0  0  0  0  0  0  0  0  0  0
   -1.8193   -2.4818    0.9932 H   0  0  0  0  0  0  0  0  0  0  0  0
   -2.2660   -2.6249   -0.7295 H   0  0  0  0  0  0  0  0  0  0  0  0
    0.0352    1.4146   -1.6589 H   0  0  0  0  0  0  0  0  0  0  0  0
   -1.5152    0.7639   -2.0105 H   0  0  0  0  0  0  0  0  0  0  0  0
    2.3146    1.5003   -0.4720 H   0  0  0  0  0  0  0  0  0  0  0  0
    3.5414    0.8329   -1.5695 H   0  0  0  0  0  0  0  0  0  0  0  0
    3.4353    3.8292   -0.7386 H   0  0  0  0  0  0  0  0  0  0  0  0
    5.1604    4.0053   -0.3826 H   0  0  0  0  0  0  0  0  0  0  0  0
    4.6394    3.1102   -1.8180 H   0  0  0  0  0  0  0  0  0  0  0  0
    5.9140    0.5588    0.7202 H   0  0  0  0  0  0  0  0  0  0  0  0
    6.5256    2.0694    0.1198 H   0  0  0  0  0  0  0  0  0  0  0  0
    5.8977    0.8873   -1.0212 H   0  0  0  0  0  0  0  0  0  0  0  0
    4.2589    1.5395    2.2301 H   0  0  0  0  0  0  0  0  0  0  0  0
    3.0144    2.6559    1.6499 H   0  0  0  0  0  0  0  0  0  0  0  0
    4.6825    3.1867    1.8533 H   0  0  0  0  0  0  0  0  0  0  0  0
    0.4957    2.9826   -0.1768 H   0  0  0  0  0  0  0  0  0  0  0  0
   -0.5518    3.1944    1.2164 H   0  0  0  0  0  0  0  0  0  0  0  0
   -0.8111    4.1526   -0.2781 H   0  0  0  0  0  0  0  0  0  0  0  0
   -3.3002   -5.6176    0.7025 H   0  0  0  0  0  0  0  0  0  0  0  0
   -3.3336    0.3545   -1.1792 H   0  0  0  0  0  0  0  0  0  0  0  0
   -2.6992    4.0376    1.0550 H   0  0  0  0  0  0  0  0  0  0  0  0
   -5.7003    0.4948   -0.6903 H   0  0  0  0  0  0  0  0  0  0  0  0
   -5.0837    4.1234    1.5260 H   0  0  0  0  0  0  0  0  0  0  0  0
   -6.6056    2.3649    0.6639 H   0  0  0  0  0  0  0  0  0  0  0  0
  1 14  2  0  0  0  0
  2 17  1  0  0  0  0
  2 56  1  0  0  0  0
  3 17  2  0  0  0  0
  4  8  1  0  0  0  0
  4 10  1  0  0  0  0
  4 14  1  0  0  0  0
  5 13  1  0  0  0  0
  5 21  1  0  0  0  0
  5 22  1  0  0  0  0
  6  7  1  0  0  0  0
  6  8  1  0  0  0  0
  6 11  1  0  0  0  0
  6 28  1  0  0  0  0
  7  9  1  0  0  0  0
  7 12  1  0  0  0  0
  7 29  1  0  0  0  0
  8 30  1  0  0  0  0
  8 31  1  0  0  0  0
  9 10  1  0  0  0  0
  9 32  1  0  0  0  0
  9 33  1  0  0  0  0
 10 34  1  0  0  0  0
 10 35  1  0  0  0  0
 11 13  1  0  0  0  0
 11 36  1  0  0  0  0
 11 37  1  0  0  0  0
 12 17  1  0  0  0  0
 12 38  1  0  0  0  0
 12 39  1  0  0  0  0
 13 40  1  0  0  0  0
 13 41  1  0  0  0  0
 14 15  1  0  0  0  0
 15 16  1  0  0  0  0
 15 42  1  0  0  0  0
 15 43  1  0  0  0  0
 16 18  1  0  0  0  0
 16 19  1  0  0  0  0
 16 20  1  0  0  0  0
 18 44  1  0  0  0  0
 18 45  1  0  0  0  0
 18 46  1  0  0  0  0
 19 47  1  0  0  0  0
 19 48  1  0  0  0  0
 19 49  1  0  0  0  0
 20 50  1  0  0  0  0
 20 51  1  0  0  0  0
 20 52  1  0  0  0  0
 21 23  2  0  0  0  0
 21 24  1  0  0  0  0
 22 53  1  0  0  0  0
 22 54  1  0  0  0  0
 22 55  1  0  0  0  0
 23 25  1  0  0  0  0
 23 57  1  0  0  0  0
 24 26  2  0  0  0  0
 24 58  1  0  0  0  0
 25 27  2  0  0  0  0
 25 59  1  0  0  0  0
 26 27  1  0  0  0  0
 26 60  1  0  0  0  0
 27 61  1  0  0  0  0
M  END
> <PUBCHEM_COMPOUND_CID>
28960095

> <PUBCHEM_CONFORMER_RMSD>
1

> <PUBCHEM_CONFORMER_DIVERSEORDER>
1
134
201
189
107
177
101
223
71
206
113
8
88
209
45
103
229
125
12
46
123
203
91
187
76
87
202
75
92
50
242
44
24
236
224
183
79
210
143
26
40
205
185
130
98
94
43
165
154
254
150
105
243
184
81
29
99
204
144
197
68
148
61
58
27
25
241
118
231
151
212
131
180
256
56
176
42
200
139
253
142
7
190
211
152
96
115
141
57
28
166
155
32
246
191
60
240
22
93
158
126
111
17
38
192
137
250
132
39
179
15
213
258
90
9
162
219
215
135
10
156
80
167
116
4
74
133
174
120
47
145
48
66
136
247
207
51
234
218
73
85
82
196
195
41
2
163
227
69
146
208
138
31
16
168
59
84
128
259
261
106
222
55
221
186
114
170
255
102
249
164
252
6
160
225
63
97
230
257
262
35
67
226
124
109
232
49
214
260
129
100
14
117
238
110
140
77
34
248
217
36
122
169
194
23
245
89
157
19
181
30
37
175
70
251
108
193
20
95
21
112
52
119
33
233
62
11
161
121
13
3
216
78
237
127
72
147
153
104
171
86
83
220
18
173
239
198
228
159
199
244
65
188
235
53
5
149
178
182
172
64
54

> <PUBCHEM_MMFF94_PARTIAL_CHARGES>
25
1 -0.57
10 0.3
12 0.06
13 0.37
14 0.57
15 0.06
17 0.66
2 -0.65
21 0.1
22 0.37
23 -0.15
24 -0.15
25 -0.15
26 -0.15
27 -0.15
3 -0.57
4 -0.66
5 -0.84
56 0.5
57 0.15
58 0.15
59 0.15
60 0.15
61 0.15
8 0.3

> <PUBCHEM_EFFECTIVE_ROTOR_COUNT>
10.2

> <PUBCHEM_PHARMACOPHORE_FEATURES>
8
1 1 acceptor
1 2 acceptor
1 3 acceptor
1 5 cation
3 2 3 17 anion
4 16 18 19 20 hydrophobe
6 21 23 24 25 26 27 rings
6 4 6 7 8 9 10 rings

> <PUBCHEM_HEAVY_ATOM_COUNT>
27

> <PUBCHEM_ATOM_DEF_STEREO_COUNT>
2

> <PUBCHEM_ATOM_UDEF_STEREO_COUNT>
0

> <PUBCHEM_BOND_DEF_STEREO_COUNT>
0

> <PUBCHEM_BOND_UDEF_STEREO_COUNT>
0

> <PUBCHEM_ISOTOPIC_ATOM_COUNT>
0

> <PUBCHEM_COMPONENT_COUNT>
1

> <PUBCHEM_CACTVS_TAUTO_COUNT>
1

> <PUBCHEM_CONFORMER_ID>
01B9E55F00000001

> <PUBCHEM_MMFF94_ENERGY>
83.7296

> <PUBCHEM_FEATURE_SELFOVERLAP>
40.652

> <PUBCHEM_SHAPE_FINGERPRINT>
10006869 2 18338784736402395815
10074138 170 18266718333443975594
10090160 65 18267858389890339349
1100329 8 18338229350503210466
12107183 9 18262785282401045106
12788726 201 17614017595421324828
13140716 1 18266743485178427975
13590594 115 17833557077987348547
1361 2 18410012092177352921
138480 1 17401767423854939910
146900 427 18199755752125941569
14787075 74 18201430377117662173
14790565 3 18411420570898974205
14849402 71 18193842544416113642
14955137 171 17689151206466909346
15142526 21 18341889658718380969
15775530 1 18056789626720837358
15968369 153 17627218306196681013
17349148 13 13263260817620068421
19319366 153 18198897016554124437
19427546 62 18338237051263215797
23558518 356 18341034234261362462
23559900 14 17688588265245399285
23845131 108 18409726223379870353
239999 70 17771065982439902911
283562 15 18046621489252819530
3178227 256 18050016493064059594
392239 28 18340208488496772369
4015057 19 17110141734992486597
474 4 18268990886497722212
5312544 6 18339081484282733084
57527573 199 17558233671618629848
59755656 520 18410853244399986252
633830 44 18057319488119148389
6442390 28 18338521832947883143
653340 110 18195243549383177792
7097593 13 17042046763553768141
7808743 9 18337954597150460876
79837 15 18411421743372233633
9777508 108 18411698832917906960

> <PUBCHEM_SHAPE_MULTIPOLES>
528.08
10.72
6.94
1.08
0.52
8.74
0.01
-13.29
1.9
4.28
1.4
-0.43
-0.22
-0.42

> <PUBCHEM_SHAPE_SELFOVERLAP>
1078.237

> <PUBCHEM_SHAPE_VOLUME>
304.7

> <PUBCHEM_COORDINATE_TYPE>
2
5
10

$$$$
