11943282
  -OEChem-12032416153D

 47 49  0     1  0  0  0  0  0999 V2000
    1.9039   -1.7439   -1.0844 O   0  0  0  0  0  0  0  0  0  0  0  0
    5.7175    0.8882    0.6020 O   0  0  0  0  0  0  0  0  0  0  0  0
   -2.5574   -1.2837   -0.7092 N   0  0  2  0  0  0  0  0  0  0  0  0
    0.8874    0.2547   -0.5977 N   0  0  0  0  0  0  0  0  0  0  0  0
    3.1431   -0.1141    0.0057 N   0  0  0  0  0  0  0  0  0  0  0  0
   -3.0565    0.0880    1.4439 C   0  0  2  0  0  0  0  0  0  0  0  0
   -3.9110    0.5918    0.2585 C   0  0  2  0  0  0  0  0  0  0  0  0
   -1.2880   -0.7727   -0.1249 C   0  0  2  0  0  0  0  0  0  0  0  0
   -1.5654    0.1686    1.0683 C   0  0  0  0  0  0  0  0  0  0  0  0
   -3.4709   -0.1574   -1.0194 C   0  0  0  0  0  0  0  0  0  0  0  0
   -3.3977   -1.4015    1.6404 C   0  0  0  0  0  0  0  0  0  0  0  0
   -3.2130   -2.1443    0.3053 C   0  0  0  0  0  0  0  0  0  0  0  0
   -3.8503    2.1063    0.0726 C   0  0  0  0  0  0  0  0  0  0  0  0
   -0.3876   -0.1131   -1.1717 C   0  0  0  0  0  0  0  0  0  0  0  0
   -4.7820    2.5658   -1.0322 C   0  0  0  0  0  0  0  0  0  0  0  0
    1.9742   -0.6117   -0.5946 C   0  0  0  0  0  0  0  0  0  0  0  0
    3.3088    1.2158    0.6093 C   0  0  0  0  0  0  0  0  0  0  0  0
    4.2811   -1.0141    0.2071 C   0  0  0  0  0  0  0  0  0  0  0  0
    4.6735    1.8019    0.2637 C   0  0  0  0  0  0  0  0  0  0  0  0
    5.5902   -0.3245   -0.1427 C   0  0  0  0  0  0  0  0  0  0  0  0
   -3.2617    0.6550    2.3580 H   0  0  0  0  0  0  0  0  0  0  0  0
   -4.9570    0.3259    0.4696 H   0  0  0  0  0  0  0  0  0  0  0  0
   -0.7303   -1.6408    0.2567 H   0  0  0  0  0  0  0  0  0  0  0  0
   -1.2903    1.2056    0.8498 H   0  0  0  0  0  0  0  0  0  0  0  0
   -0.9553   -0.1436    1.9254 H   0  0  0  0  0  0  0  0  0  0  0  0
   -4.3585   -0.5490   -1.5333 H   0  0  0  0  0  0  0  0  0  0  0  0
   -2.9933    0.5060   -1.7477 H   0  0  0  0  0  0  0  0  0  0  0  0
   -4.4309   -1.5139    1.9891 H   0  0  0  0  0  0  0  0  0  0  0  0
   -2.7464   -1.8368    2.4079 H   0  0  0  0  0  0  0  0  0  0  0  0
   -2.6205   -3.0540    0.4633 H   0  0  0  0  0  0  0  0  0  0  0  0
   -4.1838   -2.4898   -0.0728 H   0  0  0  0  0  0  0  0  0  0  0  0
   -2.8343    2.4395   -0.1645 H   0  0  0  0  0  0  0  0  0  0  0  0
   -4.1380    2.6002    1.0084 H   0  0  0  0  0  0  0  0  0  0  0  0
   -0.8251    0.8102   -1.5649 H   0  0  0  0  0  0  0  0  0  0  0  0
   -0.2206   -0.7910   -2.0166 H   0  0  0  0  0  0  0  0  0  0  0  0
   -4.4777    2.1950   -2.0150 H   0  0  0  0  0  0  0  0  0  0  0  0
   -5.8099    2.2388   -0.8443 H   0  0  0  0  0  0  0  0  0  0  0  0
   -4.7858    3.6597   -1.0844 H   0  0  0  0  0  0  0  0  0  0  0  0
    0.9263    1.1481   -0.1271 H   0  0  0  0  0  0  0  0  0  0  0  0
    3.2218    1.0734    1.6927 H   0  0  0  0  0  0  0  0  0  0  0  0
    2.5412    1.9221    0.2941 H   0  0  0  0  0  0  0  0  0  0  0  0
    4.1687   -1.9331   -0.3755 H   0  0  0  0  0  0  0  0  0  0  0  0
    4.2718   -1.2860    1.2694 H   0  0  0  0  0  0  0  0  0  0  0  0
    4.7406    2.0472   -0.8031 H   0  0  0  0  0  0  0  0  0  0  0  0
    4.8381    2.7252    0.8280 H   0  0  0  0  0  0  0  0  0  0  0  0
    6.4360   -0.9689    0.1163 H   0  0  0  0  0  0  0  0  0  0  0  0
    5.6533   -0.1022   -1.2146 H   0  0  0  0  0  0  0  0  0  0  0  0
  1 16  2  0  0  0  0
  2 19  1  0  0  0  0
  2 20  1  0  0  0  0
  3  8  1  0  0  0  0
  3 10  1  0  0  0  0
  3 12  1  0  0  0  0
  4 14  1  0  0  0  0
  4 16  1  0  0  0  0
  4 39  1  0  0  0  0
  5 16  1  0  0  0  0
  5 17  1  0  0  0  0
  5 18  1  0  0  0  0
  6  7  1  0  0  0  0
  6  9  1  0  0  0  0
  6 11  1  0  0  0  0
  6 21  1  0  0  0  0
  7 10  1  0  0  0  0
  7 13  1  0  0  0  0
  7 22  1  0  0  0  0
  8  9  1  0  0  0  0
  8 14  1  0  0  0  0
  8 23  1  0  0  0  0
  9 24  1  0  0  0  0
  9 25  1  0  0  0  0
 10 26  1  0  0  0  0
 10 27  1  0  0  0  0
 11 12  1  0  0  0  0
 11 28  1  0  0  0  0
 11 29  1  0  0  0  0
 12 30  1  0  0  0  0
 12 31  1  0  0  0  0
 13 15  1  0  0  0  0
 13 32  1  0  0  0  0
 13 33  1  0  0  0  0
 14 34  1  0  0  0  0
 14 35  1  0  0  0  0
 15 36  1  0  0  0  0
 15 37  1  0  0  0  0
 15 38  1  0  0  0  0
 17 19  1  0  0  0  0
 17 40  1  0  0  0  0
 17 41  1  0  0  0  0
 18 20  1  0  0  0  0
 18 42  1  0  0  0  0
 18 43  1  0  0  0  0
 19 44  1  0  0  0  0
 19 45  1  0  0  0  0
 20 46  1  0  0  0  0
 20 47  1  0  0  0  0
M  END
> <PUBCHEM_COMPOUND_CID>
11943282

> <PUBCHEM_CONFORMER_RMSD>
0.8

> <PUBCHEM_CONFORMER_DIVERSEORDER>
1
11
8
4
9
12
10
5
2
6
7
3

> <PUBCHEM_MMFF94_PARTIAL_CHARGES>
15
1 -0.57
10 0.27
12 0.27
14 0.3
16 0.69
17 0.3
18 0.3
19 0.28
2 -0.56
20 0.28
3 -0.81
39 0.37
4 -0.73
5 -0.66
8 0.27

> <PUBCHEM_EFFECTIVE_ROTOR_COUNT>
7.4

> <PUBCHEM_PHARMACOPHORE_FEATURES>
7
1 1 acceptor
1 15 hydrophobe
1 2 acceptor
1 3 cation
1 4 donor
6 2 5 17 18 19 20 rings
8 3 6 7 8 9 10 11 12 rings

> <PUBCHEM_HEAVY_ATOM_COUNT>
20

> <PUBCHEM_ATOM_DEF_STEREO_COUNT>
3

> <PUBCHEM_ATOM_UDEF_STEREO_COUNT>
0

> <PUBCHEM_BOND_DEF_STEREO_COUNT>
0

> <PUBCHEM_BOND_UDEF_STEREO_COUNT>
0

> <PUBCHEM_ISOTOPIC_ATOM_COUNT>
0

> <PUBCHEM_COMPONENT_COUNT>
1

> <PUBCHEM_CACTVS_TAUTO_COUNT>
2

> <PUBCHEM_CONFORMER_ID>
00B63D7200000001

> <PUBCHEM_MMFF94_ENERGY>
42.9357

> <PUBCHEM_FEATURE_SELFOVERLAP>
35.52

> <PUBCHEM_SHAPE_FINGERPRINT>
10014705 185 18341892974538303541
10291535 26 18412542085802606161
10366900 7 16630521817391765410
11089746 13 18270953562308867388
11315181 36 17603866740743327430
11370993 144 18261671472167263518
11405975 8 18261107448593207610
12107183 9 17906169555955600762
121448 382 13326850033061200565
12403259 118 18336819896776377564
12500047 106 18410854339463743271
12507557 5 17989487450310483760
12507560 40 18411707573197667639
12916754 54 9511166465663575823
13583140 156 18343582966580332267
13675066 3 18261683605217811382
14123255 352 18342737403515580364
14178342 30 17749118789704598811
14341114 176 18341341049966261330
14350574 20 9367052376708821332
15375358 24 18412263900242933895
15788980 27 18202004334950449850
17093844 174 18335696144347466680
17844677 252 18335989761128456524
19489759 90 18333729126450693521
19784866 170 18410296891400143796
200 152 16128369355338873581
20645477 56 18336551525860619733
21033648 29 18341883113114375568
21065198 57 18408886235198557802
21065199 12 18409173216001803098
21709351 56 18201999945583700412
23402539 116 18260827103272003874
23503953 91 16950573159499502373
23559900 14 18058734581185889910
2838139 119 18267574707569808381
312423 11 16443930373542339199
314173 85 16515400764125776054
3268164 11 13830130577048449713
4214541 1 18410573989541558896
5104073 3 18260260850604790160
542803 24 17967255299669570604
5924683 9 18261957457097434051
633830 44 18186796998390759362
90127 26 18410860971056499284

> <PUBCHEM_SHAPE_MULTIPOLES>
384.91
12.65
2.14
1.24
13.97
0.68
0.15
4.48
1.25
-2.2
-0.13
-0.98
-0.16
1.44

> <PUBCHEM_SHAPE_SELFOVERLAP>
788.625

> <PUBCHEM_SHAPE_VOLUME>
218.1

> <PUBCHEM_COORDINATE_TYPE>
2
5
10

$$$$
