45783711
  -OEChem-12032416263D

 42 45  0     1  0  0  0  0  0999 V2000
   -1.0515   -0.2830    2.0158 O   0  0  0  0  0  0  0  0  0  0  0  0
    5.9209   -0.2286   -0.9684 O   0  0  0  0  0  0  0  0  0  0  0  0
   -3.3890   -0.5573   -0.5937 N   0  0  1  0  0  0  0  0  0  0  0  0
   -0.3371   -0.9914    0.0146 N   0  0  0  0  0  0  0  0  0  0  0  0
   -1.9713    2.0059   -1.3584 N   0  0  0  0  0  0  0  0  0  0  0  0
   -2.4854    2.5917    0.7211 N   0  0  0  0  0  0  0  0  0  0  0  0
    0.3270   -0.0367    1.9848 N   0  0  0  0  0  0  0  0  0  0  0  0
    4.3359    0.1684    0.6791 N   0  0  0  0  0  0  0  0  0  0  0  0
   -2.8134   -1.2109    0.5987 C   0  0  1  0  0  0  0  0  0  0  0  0
   -3.0176   -2.7177    0.3558 C   0  0  0  0  0  0  0  0  0  0  0  0
   -3.7685   -2.8094   -0.9650 C   0  0  0  0  0  0  0  0  0  0  0  0
   -4.4323   -1.4532   -1.0929 C   0  0  0  0  0  0  0  0  0  0  0  0
   -3.8982    0.7814   -0.3254 C   0  0  0  0  0  0  0  0  0  0  0  0
   -1.3602   -0.8459    0.8182 C   0  0  0  0  0  0  0  0  0  0  0  0
   -2.7936    1.8038   -0.2850 C   0  0  0  0  0  0  0  0  0  0  0  0
    0.6755   -0.4810    0.7735 C   0  0  0  0  0  0  0  0  0  0  0  0
   -1.0822    2.9850   -1.0148 C   0  0  0  0  0  0  0  0  0  0  0  0
   -1.4194    3.3306    0.2727 C   0  0  0  0  0  0  0  0  0  0  0  0
    2.0259   -0.4308    0.2924 C   0  0  0  0  0  0  0  0  0  0  0  0
    2.3529   -0.9040   -0.9737 C   0  0  0  0  0  0  0  0  0  0  0  0
    3.0449    0.0912    1.0727 C   0  0  0  0  0  0  0  0  0  0  0  0
    3.6703   -0.8416   -1.4142 C   0  0  0  0  0  0  0  0  0  0  0  0
    4.6158   -0.3012   -0.5574 C   0  0  0  0  0  0  0  0  0  0  0  0
    6.8505    0.3347   -0.0504 C   0  0  0  0  0  0  0  0  0  0  0  0
   -3.3829   -0.9460    1.5008 H   0  0  0  0  0  0  0  0  0  0  0  0
   -2.0864   -3.2929    0.3150 H   0  0  0  0  0  0  0  0  0  0  0  0
   -3.6362   -3.1391    1.1578 H   0  0  0  0  0  0  0  0  0  0  0  0
   -3.0589   -2.9673   -1.7867 H   0  0  0  0  0  0  0  0  0  0  0  0
   -4.4893   -3.6323   -0.9750 H   0  0  0  0  0  0  0  0  0  0  0  0
   -4.7026   -1.2342   -2.1306 H   0  0  0  0  0  0  0  0  0  0  0  0
   -5.3360   -1.4117   -0.4716 H   0  0  0  0  0  0  0  0  0  0  0  0
   -4.5739    1.0908   -1.1347 H   0  0  0  0  0  0  0  0  0  0  0  0
   -4.4874    0.8233    0.5991 H   0  0  0  0  0  0  0  0  0  0  0  0
   -2.0108    1.5189   -2.2439 H   0  0  0  0  0  0  0  0  0  0  0  0
   -0.3174    3.3318   -1.6943 H   0  0  0  0  0  0  0  0  0  0  0  0
   -0.9480    4.0730    0.8999 H   0  0  0  0  0  0  0  0  0  0  0  0
    1.6027   -1.3255   -1.6377 H   0  0  0  0  0  0  0  0  0  0  0  0
    2.8735    0.4813    2.0716 H   0  0  0  0  0  0  0  0  0  0  0  0
    3.9419   -1.2062   -2.3988 H   0  0  0  0  0  0  0  0  0  0  0  0
    7.8380    0.3221   -0.5212 H   0  0  0  0  0  0  0  0  0  0  0  0
    6.9068   -0.2609    0.8669 H   0  0  0  0  0  0  0  0  0  0  0  0
    6.5979    1.3762    0.1752 H   0  0  0  0  0  0  0  0  0  0  0  0
  1  7  1  0  0  0  0
  1 14  1  0  0  0  0
  2 23  1  0  0  0  0
  2 24  1  0  0  0  0
  3  9  1  0  0  0  0
  3 12  1  0  0  0  0
  3 13  1  0  0  0  0
  4 14  2  0  0  0  0
  4 16  1  0  0  0  0
  5 15  1  0  0  0  0
  5 17  1  0  0  0  0
  5 34  1  0  0  0  0
  6 15  2  0  0  0  0
  6 18  1  0  0  0  0
  7 16  2  0  0  0  0
  8 21  1  0  0  0  0
  8 23  2  0  0  0  0
  9 10  1  0  0  0  0
  9 14  1  0  0  0  0
  9 25  1  0  0  0  0
 10 11  1  0  0  0  0
 10 26  1  0  0  0  0
 10 27  1  0  0  0  0
 11 12  1  0  0  0  0
 11 28  1  0  0  0  0
 11 29  1  0  0  0  0
 12 30  1  0  0  0  0
 12 31  1  0  0  0  0
 13 15  1  0  0  0  0
 13 32  1  0  0  0  0
 13 33  1  0  0  0  0
 16 19  1  0  0  0  0
 17 18  2  0  0  0  0
 17 35  1  0  0  0  0
 18 36  1  0  0  0  0
 19 20  1  0  0  0  0
 19 21  2  0  0  0  0
 20 22  2  0  0  0  0
 20 37  1  0  0  0  0
 21 38  1  0  0  0  0
 22 23  1  0  0  0  0
 22 39  1  0  0  0  0
 24 40  1  0  0  0  0
 24 41  1  0  0  0  0
 24 42  1  0  0  0  0
M  END
> <PUBCHEM_COMPOUND_CID>
45783711

> <PUBCHEM_CONFORMER_RMSD>
0.8

> <PUBCHEM_CONFORMER_DIVERSEORDER>
1
7
9
28
60
41
2
23
49
56
26
58
20
54
8
19
24
33
50
13
45
51
37
46
22
36
43
21
17
31
57
16
4
52
15
61
6
48
39
38
35
55
5
30
3
59
10
42
53
27
40
14
34
18
25
12
47
44
29
32
11

> <PUBCHEM_MMFF94_PARTIAL_CHARGES>
28
1 -0.02
12 0.27
13 0.45
14 0.3
15 0.01
16 0.46
17 -0.3
18 0.08
19 0.05
2 -0.36
20 -0.15
21 0.16
22 -0.15
23 0.39
24 0.28
3 -0.81
34 0.27
35 0.15
36 0.15
37 0.15
38 0.15
39 0.15
4 -0.57
5 0.03
6 -0.57
7 -0.41
8 -0.62
9 0.45

> <PUBCHEM_EFFECTIVE_ROTOR_COUNT>
6

> <PUBCHEM_PHARMACOPHORE_FEATURES>
8
1 3 cation
1 5 donor
3 4 7 16 cation
3 5 6 15 cation
5 1 4 7 14 16 rings
5 3 9 10 11 12 rings
5 5 6 15 17 18 rings
6 8 19 20 21 22 23 rings

> <PUBCHEM_HEAVY_ATOM_COUNT>
24

> <PUBCHEM_ATOM_DEF_STEREO_COUNT>
1

> <PUBCHEM_ATOM_UDEF_STEREO_COUNT>
0

> <PUBCHEM_BOND_DEF_STEREO_COUNT>
0

> <PUBCHEM_BOND_UDEF_STEREO_COUNT>
0

> <PUBCHEM_ISOTOPIC_ATOM_COUNT>
0

> <PUBCHEM_COMPONENT_COUNT>
1

> <PUBCHEM_CACTVS_TAUTO_COUNT>
1

> <PUBCHEM_CONFORMER_ID>
02BA9A9F00000001

> <PUBCHEM_MMFF94_ENERGY>
40.654

> <PUBCHEM_FEATURE_SELFOVERLAP>
40.6

> <PUBCHEM_SHAPE_FINGERPRINT>
10087517 78 18187365428912796612
10291535 26 18260838093951071752
10498660 4 18262788580344830869
10871710 139 17822569396371545357
10937287 8 17617939136628245525
11101153 10 18264497363618216924
11315181 36 17386011706635624782
11477941 20 18410854408515985004
11488393 25 17038111078635926811
12788726 201 18334005082394663019
13994607 96 17241346697678027161
14251764 38 18335146414594422844
14713325 29 18341337699422609647
14910302 57 18200872877113632190
15463212 79 18188490151354677547
15849732 13 18343030995639284915
15961568 22 18191860344053432336
17349148 13 17385722500179815098
17357779 13 18271227426740517189
17492 54 17969763230343555253
17818456 19 17902210240406654170
17980427 23 17822587066040646116
18785283 64 16755509609787454425
19438510 23 13479949283714269199
19489759 90 18261110781741225122
20300324 65 18335139786609688340
20775438 99 16897905758388551999
21033650 10 18117863031214681748
21623110 236 18261967352391256932
22393880 68 18198914621678383862
23402539 116 18260266373722053958
235170 7 18059862744587470454
23557571 272 18413388747835121159
23559900 14 18272642476414240904
3268164 11 18408322181111422534
469060 322 17750540445512576353
4921388 177 18200879478552030485
497634 4 17703802426455122576
531348 171 18339366236915518190

> <PUBCHEM_SHAPE_MULTIPOLES>
452.28
11.35
3.08
1.43
19
2.13
0.27
-3.1
-3.34
-5.15
-0.62
0.07
-0.09
0.13

> <PUBCHEM_SHAPE_SELFOVERLAP>
983.74

> <PUBCHEM_SHAPE_VOLUME>
247.3

> <PUBCHEM_COORDINATE_TYPE>
2
5
10

$$$$
