11882522
  -OEChem-12032416113D

 61 63  0     1  0  0  0  0  0999 V2000
    8.0305    0.6775    0.1468 S   0  0  0  0  0  0  0  0  0  0  0  0
   -8.3697    1.7361   -0.7997 S   0  0  0  0  0  0  0  0  0  0  0  0
   -0.7501   -1.7148   -2.1196 O   0  0  0  0  0  0  0  0  0  0  0  0
    1.0657   -3.8210    0.2573 O   0  0  0  0  0  0  0  0  0  0  0  0
    2.1611    0.9809    1.6841 O   0  0  0  0  0  0  0  0  0  0  0  0
   -3.5618   -2.5982    0.9448 O   0  0  0  0  0  0  0  0  0  0  0  0
   -3.3987    1.3548    0.4242 O   0  0  0  0  0  0  0  0  0  0  0  0
    2.9509    3.0926   -1.6017 O   0  0  0  0  0  0  0  0  0  0  0  0
   -2.2128   -0.9171    0.0891 N   0  0  0  0  0  0  0  0  0  0  0  0
    3.2624    0.6665   -0.3465 N   0  0  0  0  0  0  0  0  0  0  0  0
    4.1353    4.0579    0.1136 N   0  0  0  0  0  0  0  0  0  0  0  0
   -0.5682   -2.4608   -0.9142 C   0  0  2  0  0  0  0  0  0  0  0  0
   -0.9533   -1.5890    0.2964 C   0  0  1  0  0  0  0  0  0  0  0  0
    0.8929   -2.9199   -0.8345 C   0  0  1  0  0  0  0  0  0  0  0  0
    1.8654   -1.7354   -0.7000 C   0  0  0  0  0  0  0  0  0  0  0  0
    1.3497   -0.6387    0.1879 C   0  0  0  0  0  0  0  0  0  0  0  0
    0.0919   -0.5653    0.6485 C   0  0  0  0  0  0  0  0  0  0  0  0
    2.2838    0.4135    0.5991 C   0  0  0  0  0  0  0  0  0  0  0  0
    4.2942    1.6625   -0.1677 C   0  0  1  0  0  0  0  0  0  0  0  0
   -3.4285   -1.4881    0.4366 C   0  0  0  0  0  0  0  0  0  0  0  0
    5.5742    1.3154   -0.9366 C   0  0  0  0  0  0  0  0  0  0  0  0
   -4.6368   -0.6784    0.1342 C   0  0  0  0  0  0  0  0  0  0  0  0
    3.7266    2.9879   -0.6545 C   0  0  0  0  0  0  0  0  0  0  0  0
    6.4209    0.2872   -0.2267 C   0  0  0  0  0  0  0  0  0  0  0  0
   -4.5605    0.6996    0.1436 C   0  0  0  0  0  0  0  0  0  0  0  0
   -5.8113   -1.3465   -0.1501 C   0  0  0  0  0  0  0  0  0  0  0  0
    6.0506   -0.9595    0.1681 C   0  0  0  0  0  0  0  0  0  0  0  0
   -5.7065    1.4414   -0.1430 C   0  0  0  0  0  0  0  0  0  0  0  0
   -6.9573   -0.6047   -0.4368 C   0  0  0  0  0  0  0  0  0  0  0  0
   -6.9050    0.7893   -0.4331 C   0  0  0  0  0  0  0  0  0  0  0  0
    7.1292   -1.6355    0.8081 C   0  0  0  0  0  0  0  0  0  0  0  0
    8.2659   -0.8595    0.8640 C   0  0  0  0  0  0  0  0  0  0  0  0
   -3.1496    1.6742    1.7913 C   0  0  0  0  0  0  0  0  0  0  0  0
   -8.5811    2.6949    0.7270 C   0  0  0  0  0  0  0  0  0  0  0  0
   -1.2365   -3.3283   -0.9632 H   0  0  0  0  0  0  0  0  0  0  0  0
   -1.0609   -2.2418    1.1726 H   0  0  0  0  0  0  0  0  0  0  0  0
    1.1483   -3.4722   -1.7473 H   0  0  0  0  0  0  0  0  0  0  0  0
    2.0263   -1.3318   -1.7068 H   0  0  0  0  0  0  0  0  0  0  0  0
    2.8261   -2.1004   -0.3201 H   0  0  0  0  0  0  0  0  0  0  0  0
   -0.2118    0.2410    1.3123 H   0  0  0  0  0  0  0  0  0  0  0  0
   -2.1953   -0.0270   -0.3999 H   0  0  0  0  0  0  0  0  0  0  0  0
   -0.2793   -0.8689   -2.0404 H   0  0  0  0  0  0  0  0  0  0  0  0
    1.9893   -4.1249    0.2449 H   0  0  0  0  0  0  0  0  0  0  0  0
    3.2278    0.2163   -1.2540 H   0  0  0  0  0  0  0  0  0  0  0  0
    4.5041    1.7441    0.9068 H   0  0  0  0  0  0  0  0  0  0  0  0
    5.3295    0.9348   -1.9376 H   0  0  0  0  0  0  0  0  0  0  0  0
    6.1574    2.2315   -1.1007 H   0  0  0  0  0  0  0  0  0  0  0  0
   -5.8686   -2.4309   -0.1630 H   0  0  0  0  0  0  0  0  0  0  0  0
    5.0742   -1.3955    0.0132 H   0  0  0  0  0  0  0  0  0  0  0  0
   -5.6477    2.5275   -0.1441 H   0  0  0  0  0  0  0  0  0  0  0  0
   -7.8821   -1.1304   -0.6619 H   0  0  0  0  0  0  0  0  0  0  0  0
    4.7738    3.9570    0.8960 H   0  0  0  0  0  0  0  0  0  0  0  0
    3.8164    4.9986   -0.0937 H   0  0  0  0  0  0  0  0  0  0  0  0
    7.0748   -2.6408    1.2051 H   0  0  0  0  0  0  0  0  0  0  0  0
    9.2235   -1.1219    1.2910 H   0  0  0  0  0  0  0  0  0  0  0  0
   -3.8906    2.3938    2.1536 H   0  0  0  0  0  0  0  0  0  0  0  0
   -2.1580    2.1297    1.8613 H   0  0  0  0  0  0  0  0  0  0  0  0
   -3.1663    0.7751    2.4155 H   0  0  0  0  0  0  0  0  0  0  0  0
   -8.6312    2.0273    1.5914 H   0  0  0  0  0  0  0  0  0  0  0  0
   -7.7566    3.4001    0.8591 H   0  0  0  0  0  0  0  0  0  0  0  0
   -9.5146    3.2606    0.6677 H   0  0  0  0  0  0  0  0  0  0  0  0
  1 24  1  0  0  0  0
  1 32  1  0  0  0  0
  2 30  1  0  0  0  0
  2 34  1  0  0  0  0
  3 12  1  0  0  0  0
  3 42  1  0  0  0  0
  4 14  1  0  0  0  0
  4 43  1  0  0  0  0
  5 18  2  0  0  0  0
  6 20  2  0  0  0  0
  7 25  1  0  0  0  0
  7 33  1  0  0  0  0
  8 23  2  0  0  0  0
  9 13  1  0  0  0  0
  9 20  1  0  0  0  0
  9 41  1  0  0  0  0
 10 18  1  0  0  0  0
 10 19  1  0  0  0  0
 10 44  1  0  0  0  0
 11 23  1  0  0  0  0
 11 52  1  0  0  0  0
 11 53  1  0  0  0  0
 12 13  1  0  0  0  0
 12 14  1  0  0  0  0
 12 35  1  0  0  0  0
 13 17  1  0  0  0  0
 13 36  1  0  0  0  0
 14 15  1  0  0  0  0
 14 37  1  0  0  0  0
 15 16  1  0  0  0  0
 15 38  1  0  0  0  0
 15 39  1  0  0  0  0
 16 17  2  0  0  0  0
 16 18  1  0  0  0  0
 17 40  1  0  0  0  0
 19 21  1  0  0  0  0
 19 23  1  0  0  0  0
 19 45  1  0  0  0  0
 20 22  1  0  0  0  0
 21 24  1  0  0  0  0
 21 46  1  0  0  0  0
 21 47  1  0  0  0  0
 22 25  2  0  0  0  0
 22 26  1  0  0  0  0
 24 27  2  0  0  0  0
 25 28  1  0  0  0  0
 26 29  2  0  0  0  0
 26 48  1  0  0  0  0
 27 31  1  0  0  0  0
 27 49  1  0  0  0  0
 28 30  2  0  0  0  0
 28 50  1  0  0  0  0
 29 30  1  0  0  0  0
 29 51  1  0  0  0  0
 31 32  2  0  0  0  0
 31 54  1  0  0  0  0
 32 55  1  0  0  0  0
 33 56  1  0  0  0  0
 33 57  1  0  0  0  0
 33 58  1  0  0  0  0
 34 59  1  0  0  0  0
 34 60  1  0  0  0  0
 34 61  1  0  0  0  0
M  END
> <PUBCHEM_COMPOUND_CID>
11882522

> <PUBCHEM_CONFORMER_RMSD>
1.2

> <PUBCHEM_CONFORMER_DIVERSEORDER>
6
75
72
45
39
32
89
1
52
65
56
64
84
35
16
55
71
31
61
28
46
85
68
81
79
80
74
78
13
62
86
59
54
43
24
9
36
30
27
94
19
8
34
17
83
57
7
48
22
67
58
95
15
51
3
91
53
66
11
33
44
47
2
37
69
20
21
87
77
76
88
29
10
50
42
60
82
90
23
14
12
92
63
93
73
70
49
4
41
26
18
40
38
25
5

> <PUBCHEM_MMFF94_PARTIAL_CHARGES>
47
1 -0.08
10 -0.73
11 -0.8
12 0.28
13 0.44
14 0.28
15 0.14
16 -0.12
17 -0.29
18 0.62
19 0.36
2 -0.33
20 0.54
21 0.18
22 0.09
23 0.57
24 -0.14
25 0.08
26 -0.15
27 -0.15
28 -0.15
29 -0.15
3 -0.68
30 0.1
31 -0.15
32 -0.11
33 0.28
34 0.23
4 -0.68
40 0.15
41 0.37
42 0.4
43 0.4
44 0.37
48 0.15
49 0.15
5 -0.57
50 0.15
51 0.15
52 0.37
53 0.37
54 0.15
55 0.15
6 -0.57
7 -0.36
8 -0.57
9 -0.73

> <PUBCHEM_EFFECTIVE_ROTOR_COUNT>
11.8

> <PUBCHEM_PHARMACOPHORE_FEATURES>
15
1 10 donor
1 11 donor
1 3 acceptor
1 3 donor
1 34 hydrophobe
1 4 acceptor
1 4 donor
1 5 acceptor
1 6 acceptor
1 7 acceptor
1 8 acceptor
1 9 donor
5 1 24 27 31 32 rings
6 12 13 14 15 16 17 rings
6 22 25 26 28 29 30 rings

> <PUBCHEM_HEAVY_ATOM_COUNT>
34

> <PUBCHEM_ATOM_DEF_STEREO_COUNT>
4

> <PUBCHEM_ATOM_UDEF_STEREO_COUNT>
0

> <PUBCHEM_BOND_DEF_STEREO_COUNT>
0

> <PUBCHEM_BOND_UDEF_STEREO_COUNT>
0

> <PUBCHEM_ISOTOPIC_ATOM_COUNT>
0

> <PUBCHEM_COMPONENT_COUNT>
1

> <PUBCHEM_CACTVS_TAUTO_COUNT>
8

> <PUBCHEM_CONFORMER_ID>
00B5501A00000006

> <PUBCHEM_MMFF94_ENERGY>
89.4509

> <PUBCHEM_FEATURE_SELFOVERLAP>
76.131

> <PUBCHEM_SHAPE_FINGERPRINT>
10190108 129 16732699420424181612
11135926 11 18343303635551931657
11719270 70 18272650130442172670
12107183 9 18409726288427242210
14117953 113 18410292488858744773
15142383 8 18334293180854216614
15183329 4 18410865365082453628
15301273 46 14707203301554200426
15849732 13 18342454842603201262
15961568 22 18333169453916574429
16087824 20 18408604739232827308
18335252 114 18408877443136928172
19302320 297 18334301959245935797
19611394 137 17897176930094860843
20105231 36 12468356830567268960
21403212 168 18410006620594648518
21585482 111 18042963174161503317
23191077 185 18197207259886510079
23559900 14 18343014463883245475
249057 3 18410293640647951156
2838139 119 18410854395435247631
350125 39 18410571790977031342
4017518 198 17704081699127208238
4073 2 17677055771397231034
4144715 1 17751932560108203994
6299153 45 18409168797007723018
6371009 1 18343306963640266608
99344 41 18412544292893030678

> <PUBCHEM_SHAPE_MULTIPOLES>
657.24
25.2
3.75
1.19
6.43
0.72
0.05
12.24
-1.15
-0.98
0.55
-0.02
0.14
-1.33

> <PUBCHEM_SHAPE_SELFOVERLAP>
1365.448

> <PUBCHEM_SHAPE_VOLUME>
376.2

> <PUBCHEM_COORDINATE_TYPE>
2
5
10

$$$$
