51137905
  -OEChem-12032416223D

 42 45  0     1  0  0  0  0  0999 V2000
    5.4306   -2.9688   -0.4516 F   0  0  0  0  0  0  0  0  0  0  0  0
    2.5584    2.0814    1.8817 O   0  0  0  0  0  0  0  0  0  0  0  0
    1.1790    1.7361    0.0454 N   0  0  0  0  0  0  0  0  0  0  0  0
   -2.4936   -0.3185   -1.3238 N   0  0  0  0  0  0  0  0  0  0  0  0
   -2.2832    0.9188    0.5105 N   0  0  0  0  0  0  0  0  0  0  0  0
   -0.7054    1.4667   -1.3827 C   0  0  1  0  0  0  0  0  0  0  0  0
   -0.6323    2.9214   -0.8933 C   0  0  0  0  0  0  0  0  0  0  0  0
    0.7221    0.9693   -1.1148 C   0  0  0  0  0  0  0  0  0  0  0  0
    0.2891    2.8543    0.3171 C   0  0  0  0  0  0  0  0  0  0  0  0
   -1.8291    0.7028   -0.7037 C   0  0  0  0  0  0  0  0  0  0  0  0
    2.2539    1.4491    0.8723 C   0  0  0  0  0  0  0  0  0  0  0  0
   -3.4392   -0.7934   -0.4516 C   0  0  0  0  0  0  0  0  0  0  0  0
   -3.2879   -0.0049    0.6857 C   0  0  0  0  0  0  0  0  0  0  0  0
   -2.2469   -0.8127   -2.6597 C   0  0  0  0  0  0  0  0  0  0  0  0
    3.0879    0.2882    0.5244 C   0  0  0  0  0  0  0  0  0  0  0  0
   -4.3851   -1.8136   -0.5569 C   0  0  0  0  0  0  0  0  0  0  0  0
   -4.1213   -0.2340    1.7936 C   0  0  0  0  0  0  0  0  0  0  0  0
   -5.2060   -2.0279    0.5553 C   0  0  0  0  0  0  0  0  0  0  0  0
   -5.0782   -1.2533    1.7105 C   0  0  0  0  0  0  0  0  0  0  0  0
    3.7466    0.2461   -0.7046 C   0  0  0  0  0  0  0  0  0  0  0  0
    3.2207   -0.7701    1.4233 C   0  0  0  0  0  0  0  0  0  0  0  0
    4.5377   -0.8541   -1.0347 C   0  0  0  0  0  0  0  0  0  0  0  0
    4.0119   -1.8704    1.0933 C   0  0  0  0  0  0  0  0  0  0  0  0
    4.6703   -1.9124   -0.1357 C   0  0  0  0  0  0  0  0  0  0  0  0
   -0.8984    1.4718   -2.4622 H   0  0  0  0  0  0  0  0  0  0  0  0
   -0.1599    3.5382   -1.6688 H   0  0  0  0  0  0  0  0  0  0  0  0
   -1.6018    3.3702   -0.6558 H   0  0  0  0  0  0  0  0  0  0  0  0
    0.7769   -0.1064   -0.9231 H   0  0  0  0  0  0  0  0  0  0  0  0
    1.3733    1.2256   -1.9571 H   0  0  0  0  0  0  0  0  0  0  0  0
   -0.2580    2.6362    1.2404 H   0  0  0  0  0  0  0  0  0  0  0  0
    0.8651    3.7729    0.4647 H   0  0  0  0  0  0  0  0  0  0  0  0
   -2.7341   -1.7791   -2.8021 H   0  0  0  0  0  0  0  0  0  0  0  0
   -1.1700   -0.9395   -2.7971 H   0  0  0  0  0  0  0  0  0  0  0  0
   -2.6454   -0.0855   -3.3715 H   0  0  0  0  0  0  0  0  0  0  0  0
   -4.4925   -2.4175   -1.4504 H   0  0  0  0  0  0  0  0  0  0  0  0
   -4.0298    0.3625    2.6956 H   0  0  0  0  0  0  0  0  0  0  0  0
   -5.9582   -2.8121    0.5187 H   0  0  0  0  0  0  0  0  0  0  0  0
   -5.7309   -1.4435    2.5587 H   0  0  0  0  0  0  0  0  0  0  0  0
    3.6739    1.0710   -1.4083 H   0  0  0  0  0  0  0  0  0  0  0  0
    2.7108   -0.7502    2.3830 H   0  0  0  0  0  0  0  0  0  0  0  0
    5.0546   -0.8850   -1.9892 H   0  0  0  0  0  0  0  0  0  0  0  0
    4.1152   -2.6948    1.7927 H   0  0  0  0  0  0  0  0  0  0  0  0
  1 24  1  0  0  0  0
  2 11  2  0  0  0  0
  3  8  1  0  0  0  0
  3  9  1  0  0  0  0
  3 11  1  0  0  0  0
  4 10  1  0  0  0  0
  4 12  1  0  0  0  0
  4 14  1  0  0  0  0
  5 10  2  0  0  0  0
  5 13  1  0  0  0  0
  6  7  1  0  0  0  0
  6  8  1  0  0  0  0
  6 10  1  0  0  0  0
  6 25  1  0  0  0  0
  7  9  1  0  0  0  0
  7 26  1  0  0  0  0
  7 27  1  0  0  0  0
  8 28  1  0  0  0  0
  8 29  1  0  0  0  0
  9 30  1  0  0  0  0
  9 31  1  0  0  0  0
 11 15  1  0  0  0  0
 12 13  1  0  0  0  0
 12 16  2  0  0  0  0
 13 17  2  0  0  0  0
 14 32  1  0  0  0  0
 14 33  1  0  0  0  0
 14 34  1  0  0  0  0
 15 20  2  0  0  0  0
 15 21  1  0  0  0  0
 16 18  1  0  0  0  0
 16 35  1  0  0  0  0
 17 19  1  0  0  0  0
 17 36  1  0  0  0  0
 18 19  2  0  0  0  0
 18 37  1  0  0  0  0
 19 38  1  0  0  0  0
 20 22  1  0  0  0  0
 20 39  1  0  0  0  0
 21 23  2  0  0  0  0
 21 40  1  0  0  0  0
 22 24  2  0  0  0  0
 22 41  1  0  0  0  0
 23 24  1  0  0  0  0
 23 42  1  0  0  0  0
M  END
> <PUBCHEM_COMPOUND_CID>
51137905

> <PUBCHEM_CONFORMER_RMSD>
0.8

> <PUBCHEM_CONFORMER_DIVERSEORDER>
1
7
11
8
17
18
14
2
16
9
6
10
12
13
3
4
15
5

> <PUBCHEM_MMFF94_PARTIAL_CHARGES>
31
1 -0.19
10 0.01
11 0.54
12 -0.15
13 0.23
14 0.26
15 0.09
16 -0.15
17 -0.15
18 -0.15
19 -0.15
2 -0.57
20 -0.15
21 -0.15
22 -0.15
23 -0.15
24 0.19
3 -0.66
35 0.15
36 0.15
37 0.15
38 0.15
39 0.15
4 0.05
40 0.15
41 0.15
42 0.15
5 -0.57
6 0.18
8 0.3
9 0.3

> <PUBCHEM_EFFECTIVE_ROTOR_COUNT>
4

> <PUBCHEM_PHARMACOPHORE_FEATURES>
6
1 2 acceptor
3 4 5 10 cation
5 3 6 7 8 9 rings
5 4 5 10 12 13 rings
6 12 13 16 17 18 19 rings
6 15 20 21 22 23 24 rings

> <PUBCHEM_HEAVY_ATOM_COUNT>
24

> <PUBCHEM_ATOM_DEF_STEREO_COUNT>
1

> <PUBCHEM_ATOM_UDEF_STEREO_COUNT>
0

> <PUBCHEM_BOND_DEF_STEREO_COUNT>
0

> <PUBCHEM_BOND_UDEF_STEREO_COUNT>
0

> <PUBCHEM_ISOTOPIC_ATOM_COUNT>
0

> <PUBCHEM_COMPONENT_COUNT>
1

> <PUBCHEM_CACTVS_TAUTO_COUNT>
1

> <PUBCHEM_CONFORMER_ID>
030C4D7100000001

> <PUBCHEM_MMFF94_ENERGY>
59.1028

> <PUBCHEM_FEATURE_SELFOVERLAP>
30.555

> <PUBCHEM_SHAPE_FINGERPRINT>
10319926 262 16199889318414066799
10498660 4 9007057989061544590
10692045 39 12894526398978714764
10928967 22 18410004429787203446
11552529 35 16771523326034735862
11954058 11 18190189060482171943
11991303 11 17533772711923981093
12107183 9 18270978838560994905
12422481 6 17774454793299061847
12549972 3 17984391110810842000
12553582 1 18412537717640966062
12633257 1 16988844990219517197
12714826 92 18338509721420144684
12892183 10 17988358294839913137
13103583 49 18130522850498045697
13383661 66 16662650693764001706
13533116 47 18194687192863919411
13544653 18 18259702311055572341
13911852 28 18411138021953625303
13914758 101 18273211990127222911
13965767 371 12607406564083755744
14251740 57 18264491857005744411
14251764 30 18339652152709045230
14848178 96 9007061279243889494
14932701 244 9438532684889261777
14950920 106 17131827681292760618
14951699 99 14117505572288999602
14957384 54 11959719474307860542
15142526 21 16765619077221772896
15537594 2 18343024423622046822
16991981 162 15937803009034732214
16994733 274 14116653524345312050
1813 80 18410303526776898477
193927 3 18113902662538852346
20715895 44 10591498169417906739
212916 134 15410624696229909695
21315759 227 17897152542885847354
21365058 27 17908707581476353608
21713013 43 17240198815880442566
22749437 52 8862654742108949854
22950370 63 18336557057256199124
235170 7 16225764112343993918
23559900 14 17531810285452098845
238 59 14057014823205027244
2838139 119 9007055738810021722
3117164 225 18272377460274753465
312425 83 14346903150895747370
3472631 163 9655581781753658987
3737641 26 18128825127615948630
44062 13 18115866287321901348
44317340 157 8357997579904719835
46194498 28 16444198697339719743
484985 159 18121500154853555411
5486654 36 18269557139570969544
57724786 102 12823296827570189074
6328613 192 11095877208122631210
7097593 13 17701815703385947953
7970288 3 18408606963219115714
8217 86 18335710408192624790
8509985 295 16415487068641385521
86090 222 17677333956197079787

> <PUBCHEM_SHAPE_MULTIPOLES>
465.82
11.76
2.95
1.88
0.17
0.7
-0.29
-11.62
2.23
1.8
0.09
-0.97
-0.09
0.89

> <PUBCHEM_SHAPE_SELFOVERLAP>
1028.307

> <PUBCHEM_SHAPE_VOLUME>
254.7

> <PUBCHEM_COORDINATE_TYPE>
2
5
10

$$$$
