44716383
  -OEChem-12032416333D

 72 77  0     1  0  0  0  0  0999 V2000
   -4.9616    0.3604   -0.9864 S   0  0  0  0  0  0  0  0  0  0  0  0
    3.1504   -1.7199   -2.9873 O   0  0  0  0  0  0  0  0  0  0  0  0
   -4.9621    0.3119   -2.4360 O   0  0  0  0  0  0  0  0  0  0  0  0
   -6.2148    0.4065   -0.2577 O   0  0  0  0  0  0  0  0  0  0  0  0
   -1.9885   -4.3596    0.9907 O   0  0  0  0  0  0  0  0  0  0  0  0
   -0.5328    3.1922   -0.9272 N   0  0  2  0  0  0  0  0  0  0  0  0
    1.6752    0.1805    1.4186 N   0  0  2  0  0  0  0  0  0  0  0  0
    3.6080   -1.0893   -0.7790 N   0  0  0  0  0  0  0  0  0  0  0  0
   -3.9501    1.6437   -0.4733 N   0  0  0  0  0  0  0  0  0  0  0  0
   -0.4451    3.3799    1.6658 C   0  0  2  0  0  0  0  0  0  0  0  0
    0.6179    2.3840    1.1484 C   0  0  2  0  0  0  0  0  0  0  0  0
   -1.8388    2.9313    1.1890 C   0  0  0  0  0  0  0  0  0  0  0  0
   -1.8886    2.9738   -0.3544 C   0  0  2  0  0  0  0  0  0  0  0  0
    0.4246    2.2040   -0.3741 C   0  0  0  0  0  0  0  0  0  0  0  0
   -0.1495    4.7367    0.9985 C   0  0  0  0  0  0  0  0  0  0  0  0
    0.5958    1.0513    1.8776 C   0  0  0  0  0  0  0  0  0  0  0  0
   -0.0811    4.5472   -0.5273 C   0  0  0  0  0  0  0  0  0  0  0  0
    2.4996   -2.1817    1.2555 C   0  0  2  0  0  0  0  0  0  0  0  0
    4.1088   -0.3635    1.5792 C   0  0  1  0  0  0  0  0  0  0  0  0
    1.3596   -1.2301    1.6762 C   0  0  0  0  0  0  0  0  0  0  0  0
    2.9571    0.5647    2.0284 C   0  0  0  0  0  0  0  0  0  0  0  0
    3.7877   -1.8024    1.9746 C   0  0  0  0  0  0  0  0  0  0  0  0
   -2.5750    1.7354   -0.9353 C   0  0  0  0  0  0  0  0  0  0  0  0
    2.7533   -2.1645   -0.2581 C   0  0  0  0  0  0  0  0  0  0  0  0
    4.3270   -0.2528    0.0818 C   0  0  0  0  0  0  0  0  0  0  0  0
    5.1868    0.6518   -0.4174 C   0  0  0  0  0  0  0  0  0  0  0  0
    3.7416   -1.0057   -2.1775 C   0  0  0  0  0  0  0  0  0  0  0  0
    5.3665    0.7904   -1.8351 C   0  0  0  0  0  0  0  0  0  0  0  0
    4.6864    0.0248   -2.6923 C   0  0  0  0  0  0  0  0  0  0  0  0
   -4.0719   -1.0477   -0.3945 C   0  0  0  0  0  0  0  0  0  0  0  0
   -3.1175   -1.6608   -1.2063 C   0  0  0  0  0  0  0  0  0  0  0  0
   -4.3263   -1.5476    0.8826 C   0  0  0  0  0  0  0  0  0  0  0  0
   -2.4174   -2.7738   -0.7408 C   0  0  0  0  0  0  0  0  0  0  0  0
   -3.6262   -2.6606    1.3480 C   0  0  0  0  0  0  0  0  0  0  0  0
   -2.6717   -3.2736    0.5364 C   0  0  0  0  0  0  0  0  0  0  0  0
   -1.0269   -4.9372    0.1087 C   0  0  0  0  0  0  0  0  0  0  0  0
   -0.4144    3.4718    2.7566 H   0  0  0  0  0  0  0  0  0  0  0  0
    1.5907    2.8653    1.3130 H   0  0  0  0  0  0  0  0  0  0  0  0
   -2.5973    3.6131    1.5945 H   0  0  0  0  0  0  0  0  0  0  0  0
   -2.0699    1.9367    1.5843 H   0  0  0  0  0  0  0  0  0  0  0  0
   -2.5128    3.8313   -0.6472 H   0  0  0  0  0  0  0  0  0  0  0  0
    0.1075    1.1890   -0.6373 H   0  0  0  0  0  0  0  0  0  0  0  0
    1.3934    2.3289   -0.8762 H   0  0  0  0  0  0  0  0  0  0  0  0
    0.7992    5.1452    1.3660 H   0  0  0  0  0  0  0  0  0  0  0  0
   -0.9345    5.4586    1.2542 H   0  0  0  0  0  0  0  0  0  0  0  0
    0.6396    1.1999    2.9645 H   0  0  0  0  0  0  0  0  0  0  0  0
   -0.3670    0.5639    1.6797 H   0  0  0  0  0  0  0  0  0  0  0  0
   -0.6944    5.3081   -1.0255 H   0  0  0  0  0  0  0  0  0  0  0  0
    0.9428    4.7171   -0.8840 H   0  0  0  0  0  0  0  0  0  0  0  0
    2.2039   -3.1983    1.5435 H   0  0  0  0  0  0  0  0  0  0  0  0
    5.0221   -0.0610    2.1085 H   0  0  0  0  0  0  0  0  0  0  0  0
    0.4529   -1.5113    1.1255 H   0  0  0  0  0  0  0  0  0  0  0  0
    1.1469   -1.3824    2.7432 H   0  0  0  0  0  0  0  0  0  0  0  0
    2.8856    0.5330    3.1243 H   0  0  0  0  0  0  0  0  0  0  0  0
    3.2246    1.5922    1.7583 H   0  0  0  0  0  0  0  0  0  0  0  0
    3.6591   -1.8830    3.0609 H   0  0  0  0  0  0  0  0  0  0  0  0
    4.6046   -2.4796    1.6956 H   0  0  0  0  0  0  0  0  0  0  0  0
   -2.5646    1.7795   -2.0301 H   0  0  0  0  0  0  0  0  0  0  0  0
   -2.0332    0.8393   -0.6232 H   0  0  0  0  0  0  0  0  0  0  0  0
    1.8042   -2.1539   -0.8090 H   0  0  0  0  0  0  0  0  0  0  0  0
    3.2535   -3.1014   -0.5392 H   0  0  0  0  0  0  0  0  0  0  0  0
   -4.1518    2.0388    0.4533 H   0  0  0  0  0  0  0  0  0  0  0  0
    5.7512    1.3171    0.2274 H   0  0  0  0  0  0  0  0  0  0  0  0
    6.0622    1.5413   -2.1922 H   0  0  0  0  0  0  0  0  0  0  0  0
    4.8084    0.1213   -3.7646 H   0  0  0  0  0  0  0  0  0  0  0  0
   -2.9010   -1.2842   -2.2021 H   0  0  0  0  0  0  0  0  0  0  0  0
   -5.0599   -1.0814    1.5341 H   0  0  0  0  0  0  0  0  0  0  0  0
   -1.6885   -3.1995   -1.4219 H   0  0  0  0  0  0  0  0  0  0  0  0
   -3.8271   -3.0445    2.3444 H   0  0  0  0  0  0  0  0  0  0  0  0
   -1.4977   -5.3295   -0.7991 H   0  0  0  0  0  0  0  0  0  0  0  0
   -0.2143   -4.2371   -0.1140 H   0  0  0  0  0  0  0  0  0  0  0  0
   -0.5798   -5.7892    0.6311 H   0  0  0  0  0  0  0  0  0  0  0  0
  1  3  2  0  0  0  0
  1  4  2  0  0  0  0
  1  9  1  0  0  0  0
  1 30  1  0  0  0  0
  2 27  2  0  0  0  0
  5 35  1  0  0  0  0
  5 36  1  0  0  0  0
  6 13  1  0  0  0  0
  6 14  1  0  0  0  0
  6 17  1  0  0  0  0
  7 16  1  0  0  0  0
  7 20  1  0  0  0  0
  7 21  1  0  0  0  0
  8 24  1  0  0  0  0
  8 25  1  0  0  0  0
  8 27  1  0  0  0  0
  9 23  1  0  0  0  0
  9 62  1  0  0  0  0
 10 11  1  0  0  0  0
 10 12  1  0  0  0  0
 10 15  1  0  0  0  0
 10 37  1  0  0  0  0
 11 14  1  0  0  0  0
 11 16  1  0  0  0  0
 11 38  1  0  0  0  0
 12 13  1  0  0  0  0
 12 39  1  0  0  0  0
 12 40  1  0  0  0  0
 13 23  1  0  0  0  0
 13 41  1  0  0  0  0
 14 42  1  0  0  0  0
 14 43  1  0  0  0  0
 15 17  1  0  0  0  0
 15 44  1  0  0  0  0
 15 45  1  0  0  0  0
 16 46  1  0  0  0  0
 16 47  1  0  0  0  0
 17 48  1  0  0  0  0
 17 49  1  0  0  0  0
 18 20  1  0  0  0  0
 18 22  1  0  0  0  0
 18 24  1  0  0  0  0
 18 50  1  0  0  0  0
 19 21  1  0  0  0  0
 19 22  1  0  0  0  0
 19 25  1  0  0  0  0
 19 51  1  0  0  0  0
 20 52  1  0  0  0  0
 20 53  1  0  0  0  0
 21 54  1  0  0  0  0
 21 55  1  0  0  0  0
 22 56  1  0  0  0  0
 22 57  1  0  0  0  0
 23 58  1  0  0  0  0
 23 59  1  0  0  0  0
 24 60  1  0  0  0  0
 24 61  1  0  0  0  0
 25 26  2  0  0  0  0
 26 28  1  0  0  0  0
 26 63  1  0  0  0  0
 27 29  1  0  0  0  0
 28 29  2  0  0  0  0
 28 64  1  0  0  0  0
 29 65  1  0  0  0  0
 30 31  2  0  0  0  0
 30 32  1  0  0  0  0
 31 33  1  0  0  0  0
 31 66  1  0  0  0  0
 32 34  2  0  0  0  0
 32 67  1  0  0  0  0
 33 35  2  0  0  0  0
 33 68  1  0  0  0  0
 34 35  1  0  0  0  0
 34 69  1  0  0  0  0
 36 70  1  0  0  0  0
 36 71  1  0  0  0  0
 36 72  1  0  0  0  0
M  END
> <PUBCHEM_COMPOUND_CID>
44716383

> <PUBCHEM_CONFORMER_RMSD>
1

> <PUBCHEM_CONFORMER_DIVERSEORDER>
1
49
107
237
187
140
96
258
79
26
223
146
200
30
265
182
192
102
183
61
137
247
55
283
251
278
168
190
56
260
139
25
84
241
195
110
145
193
259
218
268
160
71
230
254
109
120
236
224
34
261
62
170
199
203
246
85
197
270
48
95
127
98
225
66
201
272
76
264
138
21
152
23
232
198
33
136
171
181
235
40
58
257
179
248
91
157
46
151
250
238
35
267
282
50
89
124
158
159
116
234
269
94
186
73
164
281
253
217
57
130
44
279
173
28
263
194
219
83
113
256
129
255
239
75
2
161
229
274
141
231
204
128
245
275
189
114
196
111
244
53
59
167
100
121
104
240
174
215
227
252
233
284
125
38
185
13
207
210
266
273
212
166
101
242
226
188
74
11
119
276
29
228
271
132
51
211
105
180
163
206
3
220
149
213
280
32
184
5
243
277
172
214
208
177
155
162
93
69
216
80
70
147
4
191
19
169
86
133
63
42
17
148
209
68
117
99
64
108
27
10
202
103
285
65
78
262
176
39
115
77
60
135
154
14
221
8
67
45
122
36
143
43
112
150
97
18
88
118
156
249
22
92
9
12
222
165
90
31
81
126
72
175
178
52
15
123
134
144
205
47
54
142
106
7
37
131
82
16
153
41
87
20
24
6

> <PUBCHEM_MMFF94_PARTIAL_CHARGES>
38
1 1.45
13 0.27
14 0.27
16 0.27
17 0.27
19 0.14
2 -0.57
20 0.27
21 0.27
23 0.36
24 0.3
25 -0.03
26 -0.15
27 0.62
28 -0.15
29 -0.14
3 -0.65
30 -0.01
31 -0.15
32 -0.15
33 -0.15
34 -0.15
35 0.08
36 0.28
4 -0.65
5 -0.36
6 -0.81
62 0.42
63 0.15
64 0.15
65 0.15
66 0.15
67 0.15
68 0.15
69 0.15
7 -0.81
8 -0.47
9 -0.91

> <PUBCHEM_EFFECTIVE_ROTOR_COUNT>
9.2

> <PUBCHEM_PHARMACOPHORE_FEATURES>
12
1 2 acceptor
1 3 acceptor
1 4 acceptor
1 5 acceptor
1 6 cation
1 7 cation
1 9 donor
6 30 31 32 33 34 35 rings
6 7 18 19 20 21 22 rings
6 8 18 19 22 24 25 rings
6 8 25 26 27 28 29 rings
8 6 10 11 12 13 14 15 17 rings

> <PUBCHEM_HEAVY_ATOM_COUNT>
36

> <PUBCHEM_ATOM_DEF_STEREO_COUNT>
5

> <PUBCHEM_ATOM_UDEF_STEREO_COUNT>
0

> <PUBCHEM_BOND_DEF_STEREO_COUNT>
0

> <PUBCHEM_BOND_UDEF_STEREO_COUNT>
0

> <PUBCHEM_ISOTOPIC_ATOM_COUNT>
0

> <PUBCHEM_COMPONENT_COUNT>
1

> <PUBCHEM_CACTVS_TAUTO_COUNT>
3

> <PUBCHEM_CONFORMER_ID>
02AA515F00000001

> <PUBCHEM_MMFF94_ENERGY>
87.6475

> <PUBCHEM_FEATURE_SELFOVERLAP>
62.469

> <PUBCHEM_SHAPE_FINGERPRINT>
10462674 369 17388844142187228227
11285246 1 17265279578396537390
12147406 95 17691964186760095335
12156800 1 16837753362464015361
12422481 6 17768498910815833296
12633046 712 18115007710702174807
12788726 201 18339078185736572667
13165053 103 16051294557412224974
14251757 5 18335706065310827403
14363568 33 18049734202106606425
144659 178 17761206623146153538
15328829 1 17749098951894120394
161222 10 18046377187080607860
161222 619 17414964076382237320
19309040 13 16083651040242035717
19319366 153 17531237332135256571
20764821 26 18266443331289200955
20775530 9 18266176330557681451
22440779 20 16700924625393196520
25223398 141 18046612422460690144
4403749 210 16897322983092978489
46194498 28 17838905085043137354
463206 1 18336271252805235241
5081480 168 18058182780714088595
6287921 2 17402051596330056427

> <PUBCHEM_SHAPE_MULTIPOLES>
701.31
11.2
6.06
2.43
0.77
1.46
0.84
-4.25
5.2
4.41
-1.56
-2.54
-0.3
0.65

> <PUBCHEM_SHAPE_SELFOVERLAP>
1501.513

> <PUBCHEM_SHAPE_VOLUME>
389.6

> <PUBCHEM_COORDINATE_TYPE>
2
5
10

$$$$
