26743314
  -OEChem-12032416353D

 71 75  0     1  0  0  0  0  0999 V2000
    0.1002   -0.4334   -2.1454 O   0  0  0  0  0  0  0  0  0  0  0  0
    4.1056    2.2998    1.9654 O   0  0  0  0  0  0  0  0  0  0  0  0
   -2.4189    3.0798   -2.0022 O   0  0  0  0  0  0  0  0  0  0  0  0
   -3.8319    2.1450   -0.2886 O   0  0  0  0  0  0  0  0  0  0  0  0
    6.3786   -2.3550    0.5019 N   0  0  0  0  0  0  0  0  0  0  0  0
    2.4147    2.1943    0.3747 N   0  0  0  0  0  0  0  0  0  0  0  0
    1.4263   -0.3588   -2.5540 N   0  0  0  0  0  0  0  0  0  0  0  0
    3.9814   -0.6347    0.5261 C   0  0  1  0  0  0  0  0  0  0  0  0
    4.2301   -1.7072   -0.5613 C   0  0  2  0  0  0  0  0  0  0  0  0
    4.7527   -1.0222    1.7989 C   0  0  0  0  0  0  0  0  0  0  0  0
    5.7309   -1.9813   -0.7559 C   0  0  0  0  0  0  0  0  0  0  0  0
    6.2258   -1.3186    1.5207 C   0  0  0  0  0  0  0  0  0  0  0  0
    3.5678   -1.3702   -1.8978 C   0  0  0  0  0  0  0  0  0  0  0  0
    4.3338    0.7917    0.0876 C   0  0  0  0  0  0  0  0  0  0  0  0
    2.0849   -1.1929   -1.7441 C   0  0  0  0  0  0  0  0  0  0  0  0
    3.6356    1.8388    0.9288 C   0  0  0  0  0  0  0  0  0  0  0  0
    1.2350   -1.8156   -0.8138 C   0  0  0  0  0  0  0  0  0  0  0  0
   -0.0010   -1.3040   -1.1087 C   0  0  0  0  0  0  0  0  0  0  0  0
    1.5333    3.1730    0.9692 C   0  0  0  0  0  0  0  0  0  0  0  0
   -1.3204   -1.4860   -0.5770 C   0  0  0  0  0  0  0  0  0  0  0  0
   -5.2588   -2.0274    1.0116 C   0  0  0  0  0  0  0  0  0  0  0  0
   -3.8868   -1.8385    0.4581 C   0  0  0  0  0  0  0  0  0  0  0  0
    0.0907    2.8866    0.6676 C   0  0  0  0  0  0  0  0  0  0  0  0
   -1.4915   -1.8028    0.7707 C   0  0  0  0  0  0  0  0  0  0  0  0
   -2.4326   -1.3452   -1.4069 C   0  0  0  0  0  0  0  0  0  0  0  0
   -2.7747   -1.9790    1.2883 C   0  0  0  0  0  0  0  0  0  0  0  0
   -3.7158   -1.5216   -0.8895 C   0  0  0  0  0  0  0  0  0  0  0  0
   -6.4271   -1.8459   -0.0134 C   0  0  0  0  0  0  0  0  0  0  0  0
   -5.5510   -1.0107    2.1584 C   0  0  0  0  0  0  0  0  0  0  0  0
   -5.4401   -3.4620    1.5975 C   0  0  0  0  0  0  0  0  0  0  0  0
   -0.4197    3.1614   -0.6035 C   0  0  0  0  0  0  0  0  0  0  0  0
   -0.7338    2.3413    1.6674 C   0  0  0  0  0  0  0  0  0  0  0  0
   -1.7506    2.8791   -0.8337 C   0  0  0  0  0  0  0  0  0  0  0  0
   -2.0783    2.0646    1.4078 C   0  0  0  0  0  0  0  0  0  0  0  0
   -2.5576    2.3454    0.1448 C   0  0  0  0  0  0  0  0  0  0  0  0
   -3.7368    2.6120   -1.6496 C   0  0  0  0  0  0  0  0  0  0  0  0
    2.9232   -0.6419    0.8105 H   0  0  0  0  0  0  0  0  0  0  0  0
    3.7976   -2.6493   -0.1916 H   0  0  0  0  0  0  0  0  0  0  0  0
    4.2883   -1.9191    2.2313 H   0  0  0  0  0  0  0  0  0  0  0  0
    4.6724   -0.2418    2.5633 H   0  0  0  0  0  0  0  0  0  0  0  0
    5.8615   -2.8059   -1.4663 H   0  0  0  0  0  0  0  0  0  0  0  0
    6.2326   -1.1074   -1.1899 H   0  0  0  0  0  0  0  0  0  0  0  0
    6.7648   -0.4118    1.2251 H   0  0  0  0  0  0  0  0  0  0  0  0
    6.6945   -1.6705    2.4466 H   0  0  0  0  0  0  0  0  0  0  0  0
    3.7256   -2.2058   -2.5933 H   0  0  0  0  0  0  0  0  0  0  0  0
    4.0231   -0.4986   -2.3792 H   0  0  0  0  0  0  0  0  0  0  0  0
    4.0656    0.9868   -0.9537 H   0  0  0  0  0  0  0  0  0  0  0  0
    5.4102    0.9853    0.1453 H   0  0  0  0  0  0  0  0  0  0  0  0
    7.3707   -2.5199    0.3343 H   0  0  0  0  0  0  0  0  0  0  0  0
    1.4714   -2.5388   -0.0469 H   0  0  0  0  0  0  0  0  0  0  0  0
    2.1371    1.7841   -0.5126 H   0  0  0  0  0  0  0  0  0  0  0  0
    1.8124    4.1543    0.5676 H   0  0  0  0  0  0  0  0  0  0  0  0
    1.7096    3.2162    2.0502 H   0  0  0  0  0  0  0  0  0  0  0  0
   -0.6401   -1.9116    1.4383 H   0  0  0  0  0  0  0  0  0  0  0  0
   -2.3279   -1.1039   -2.4620 H   0  0  0  0  0  0  0  0  0  0  0  0
   -2.8791   -2.2233    2.3415 H   0  0  0  0  0  0  0  0  0  0  0  0
   -4.5444   -1.4004   -1.5784 H   0  0  0  0  0  0  0  0  0  0  0  0
   -6.3571   -2.5687   -0.8346 H   0  0  0  0  0  0  0  0  0  0  0  0
   -6.4354   -0.8350   -0.4376 H   0  0  0  0  0  0  0  0  0  0  0  0
   -7.4012   -1.9998    0.4667 H   0  0  0  0  0  0  0  0  0  0  0  0
   -5.4440    0.0203    1.8006 H   0  0  0  0  0  0  0  0  0  0  0  0
   -6.5694   -1.1287    2.5464 H   0  0  0  0  0  0  0  0  0  0  0  0
   -4.8660   -1.1391    3.0036 H   0  0  0  0  0  0  0  0  0  0  0  0
   -5.2530   -4.2224    0.8300 H   0  0  0  0  0  0  0  0  0  0  0  0
   -6.4569   -3.6116    1.9788 H   0  0  0  0  0  0  0  0  0  0  0  0
   -4.7522   -3.6548    2.4281 H   0  0  0  0  0  0  0  0  0  0  0  0
    0.2038    3.5810   -1.3856 H   0  0  0  0  0  0  0  0  0  0  0  0
   -0.3320    2.1251    2.6542 H   0  0  0  0  0  0  0  0  0  0  0  0
   -2.7171    1.6417    2.1748 H   0  0  0  0  0  0  0  0  0  0  0  0
   -4.0090    1.7903   -2.3220 H   0  0  0  0  0  0  0  0  0  0  0  0
   -4.4498    3.4325   -1.7898 H   0  0  0  0  0  0  0  0  0  0  0  0
  1  7  1  0  0  0  0
  1 18  1  0  0  0  0
  2 16  2  0  0  0  0
  3 33  1  0  0  0  0
  3 36  1  0  0  0  0
  4 35  1  0  0  0  0
  4 36  1  0  0  0  0
  5 11  1  0  0  0  0
  5 12  1  0  0  0  0
  5 49  1  0  0  0  0
  6 16  1  0  0  0  0
  6 19  1  0  0  0  0
  6 51  1  0  0  0  0
  7 15  2  0  0  0  0
  8  9  1  0  0  0  0
  8 10  1  0  0  0  0
  8 14  1  0  0  0  0
  8 37  1  0  0  0  0
  9 11  1  0  0  0  0
  9 13  1  0  0  0  0
  9 38  1  0  0  0  0
 10 12  1  0  0  0  0
 10 39  1  0  0  0  0
 10 40  1  0  0  0  0
 11 41  1  0  0  0  0
 11 42  1  0  0  0  0
 12 43  1  0  0  0  0
 12 44  1  0  0  0  0
 13 15  1  0  0  0  0
 13 45  1  0  0  0  0
 13 46  1  0  0  0  0
 14 16  1  0  0  0  0
 14 47  1  0  0  0  0
 14 48  1  0  0  0  0
 15 17  1  0  0  0  0
 17 18  2  0  0  0  0
 17 50  1  0  0  0  0
 18 20  1  0  0  0  0
 19 23  1  0  0  0  0
 19 52  1  0  0  0  0
 19 53  1  0  0  0  0
 20 24  2  0  0  0  0
 20 25  1  0  0  0  0
 21 22  1  0  0  0  0
 21 28  1  0  0  0  0
 21 29  1  0  0  0  0
 21 30  1  0  0  0  0
 22 26  2  0  0  0  0
 22 27  1  0  0  0  0
 23 31  2  0  0  0  0
 23 32  1  0  0  0  0
 24 26  1  0  0  0  0
 24 54  1  0  0  0  0
 25 27  2  0  0  0  0
 25 55  1  0  0  0  0
 26 56  1  0  0  0  0
 27 57  1  0  0  0  0
 28 58  1  0  0  0  0
 28 59  1  0  0  0  0
 28 60  1  0  0  0  0
 29 61  1  0  0  0  0
 29 62  1  0  0  0  0
 29 63  1  0  0  0  0
 30 64  1  0  0  0  0
 30 65  1  0  0  0  0
 30 66  1  0  0  0  0
 31 33  1  0  0  0  0
 31 67  1  0  0  0  0
 32 34  2  0  0  0  0
 32 68  1  0  0  0  0
 33 35  2  0  0  0  0
 34 35  1  0  0  0  0
 34 69  1  0  0  0  0
 36 70  1  0  0  0  0
 36 71  1  0  0  0  0
M  END
> <PUBCHEM_COMPOUND_CID>
26743314

> <PUBCHEM_CONFORMER_RMSD>
1.4

> <PUBCHEM_CONFORMER_DIVERSEORDER>
2
16
13
87
84
51
28
36
53
54
3
98
1
22
71
7
41
99
92
79
31
57
73
88
8
80
104
89
25
69
9
105
101
55
107
19
43
17
102
27
20
39
42
44
64
96
32
65
78
94
95
62
108
6
11
38
49
18
86
10
109
63
106
60
35
14
40
72
100
77
24
82
74
97
15
50
93
67
47
91
23
83
4
61
90
34
29
81
48
85
5
56
37
30
68
45
52
76
70
26
12
33
46
103
75
58
66
21
59

> <PUBCHEM_MMFF94_PARTIAL_CHARGES>
40
1 -0.02
11 0.27
12 0.27
13 0.18
14 0.06
15 0.11
16 0.57
17 -0.15
18 0.09
19 0.44
2 -0.57
20 0.05
21 0.14
22 -0.14
23 -0.14
24 -0.15
25 -0.15
26 -0.15
27 -0.15
3 -0.36
31 -0.15
32 -0.15
33 0.08
34 -0.15
35 0.08
36 0.56
4 -0.36
49 0.36
5 -0.9
50 0.15
51 0.37
54 0.15
55 0.15
56 0.15
57 0.15
6 -0.73
67 0.15
68 0.15
69 0.15
7 -0.41

> <PUBCHEM_EFFECTIVE_ROTOR_COUNT>
10.8

> <PUBCHEM_PHARMACOPHORE_FEATURES>
13
1 2 acceptor
1 3 acceptor
1 4 acceptor
1 5 cation
1 5 donor
1 6 donor
1 7 acceptor
4 21 28 29 30 hydrophobe
5 1 7 15 17 18 rings
5 3 4 33 35 36 rings
6 20 22 24 25 26 27 rings
6 23 31 32 33 34 35 rings
6 5 8 9 10 11 12 rings

> <PUBCHEM_HEAVY_ATOM_COUNT>
36

> <PUBCHEM_ATOM_DEF_STEREO_COUNT>
2

> <PUBCHEM_ATOM_UDEF_STEREO_COUNT>
0

> <PUBCHEM_BOND_DEF_STEREO_COUNT>
0

> <PUBCHEM_BOND_UDEF_STEREO_COUNT>
0

> <PUBCHEM_ISOTOPIC_ATOM_COUNT>
0

> <PUBCHEM_COMPONENT_COUNT>
1

> <PUBCHEM_CACTVS_TAUTO_COUNT>
2

> <PUBCHEM_CONFORMER_ID>
0198121200000002

> <PUBCHEM_MMFF94_ENERGY>
79.5302

> <PUBCHEM_FEATURE_SELFOVERLAP>
66.128

> <PUBCHEM_SHAPE_FINGERPRINT>
10190108 129 18266741479967446720
11135609 12 18409160035280175368
11828532 37 17970070152864870923
12107698 1 18413387648819723178
12166972 35 17749115525160201614
12422481 6 18201445800371134809
13402501 40 18058156225337570156
13782708 43 17533790566272043451
14004853 49 17548124988761470176
14040221 97 18264483073782371588
14725015 67 18409722971958116195
14840074 17 17986397908356489109
15968369 153 17346319250167048409
16067689 68 17171213155232715898
20764821 26 18272664419534265180
24893992 56 18114472241199246843
3886686 26 17613150772100418986
392239 28 18271254828552737929
4112364 45 16271378534029203059
469060 322 18189920663559279283
508706 21 18266170639188307948
513202 73 18259704510659031617

> <PUBCHEM_SHAPE_MULTIPOLES>
702.44
13.75
4.71
2.18
4.28
3.39
-0.32
-12.11
5.67
-2.64
0.47
0.04
-0.04
2.89

> <PUBCHEM_SHAPE_SELFOVERLAP>
1515.83

> <PUBCHEM_SHAPE_VOLUME>
386.2

> <PUBCHEM_COORDINATE_TYPE>
2
5
10

$$$$
