45783802
  -OEChem-12032416263D

 49 52  0     1  0  0  0  0  0999 V2000
   -0.3612    2.8617   -2.0798 F   0  0  0  0  0  0  0  0  0  0  0  0
   -0.1672    4.2113    0.2901 F   0  0  0  0  0  0  0  0  0  0  0  0
   -1.3456   -0.8728    2.0611 O   0  0  0  0  0  0  0  0  0  0  0  0
   -3.5129   -1.0630   -0.6984 N   0  0  1  0  0  0  0  0  0  0  0  0
   -0.4841   -1.4064    0.0636 N   0  0  0  0  0  0  0  0  0  0  0  0
    0.0192   -0.5655    2.1309 N   0  0  0  0  0  0  0  0  0  0  0  0
    4.0824   -0.0964    1.0904 N   0  0  0  0  0  0  0  0  0  0  0  0
    5.8144   -0.3190   -0.5301 N   0  0  0  0  0  0  0  0  0  0  0  0
   -2.9767   -1.7737    0.4796 C   0  0  1  0  0  0  0  0  0  0  0  0
   -3.0949   -3.2670    0.1228 C   0  0  0  0  0  0  0  0  0  0  0  0
   -3.7631   -3.2976   -1.2445 C   0  0  0  0  0  0  0  0  0  0  0  0
   -4.4820   -1.9657   -1.3200 C   0  0  0  0  0  0  0  0  0  0  0  0
   -4.0997    0.2301   -0.3713 C   0  0  0  0  0  0  0  0  0  0  0  0
   -1.5576   -1.3625    0.8114 C   0  0  0  0  0  0  0  0  0  0  0  0
   -3.0490    1.2939   -0.1942 C   0  0  0  0  0  0  0  0  0  0  0  0
   -2.1743    1.5907   -1.2395 C   0  0  0  0  0  0  0  0  0  0  0  0
   -2.9502    1.9827    1.0146 C   0  0  0  0  0  0  0  0  0  0  0  0
    0.4577   -0.9075    0.9157 C   0  0  0  0  0  0  0  0  0  0  0  0
    1.8297   -0.7651    0.5222 C   0  0  0  0  0  0  0  0  0  0  0  0
   -1.2011    2.5766   -1.0761 C   0  0  0  0  0  0  0  0  0  0  0  0
   -1.9767    2.9683    1.1782 C   0  0  0  0  0  0  0  0  0  0  0  0
   -1.1022    3.2653    0.1329 C   0  0  0  0  0  0  0  0  0  0  0  0
    2.2521   -1.1328   -0.7506 C   0  0  0  0  0  0  0  0  0  0  0  0
    2.7756   -0.2567    1.3976 C   0  0  0  0  0  0  0  0  0  0  0  0
    3.5886   -0.9829   -1.1038 C   0  0  0  0  0  0  0  0  0  0  0  0
    4.4559   -0.4647   -0.1556 C   0  0  0  0  0  0  0  0  0  0  0  0
    6.2493   -0.7038   -1.8546 C   0  0  0  0  0  0  0  0  0  0  0  0
    6.7735    0.2225    0.4072 C   0  0  0  0  0  0  0  0  0  0  0  0
   -3.6093   -1.5981    1.3613 H   0  0  0  0  0  0  0  0  0  0  0  0
   -3.7381   -3.7704    0.8551 H   0  0  0  0  0  0  0  0  0  0  0  0
   -2.1367   -3.7970    0.0998 H   0  0  0  0  0  0  0  0  0  0  0  0
   -4.4423   -4.1481   -1.3542 H   0  0  0  0  0  0  0  0  0  0  0  0
   -3.0006   -3.3660   -2.0303 H   0  0  0  0  0  0  0  0  0  0  0  0
   -4.7019   -1.6857   -2.3549 H   0  0  0  0  0  0  0  0  0  0  0  0
   -5.4211   -2.0076   -0.7537 H   0  0  0  0  0  0  0  0  0  0  0  0
   -4.7385    0.5699   -1.1987 H   0  0  0  0  0  0  0  0  0  0  0  0
   -4.7607    0.1671    0.5031 H   0  0  0  0  0  0  0  0  0  0  0  0
   -2.2414    1.0661   -2.1889 H   0  0  0  0  0  0  0  0  0  0  0  0
   -3.6233    1.7605    1.8383 H   0  0  0  0  0  0  0  0  0  0  0  0
   -1.8986    3.5039    2.1197 H   0  0  0  0  0  0  0  0  0  0  0  0
    1.5617   -1.5378   -1.4862 H   0  0  0  0  0  0  0  0  0  0  0  0
    2.5280    0.0539    2.4083 H   0  0  0  0  0  0  0  0  0  0  0  0
    3.8752   -1.2813   -2.1049 H   0  0  0  0  0  0  0  0  0  0  0  0
    6.0867   -1.7723   -2.0359 H   0  0  0  0  0  0  0  0  0  0  0  0
    5.7479   -0.1125   -2.6291 H   0  0  0  0  0  0  0  0  0  0  0  0
    7.3237   -0.5326   -1.9884 H   0  0  0  0  0  0  0  0  0  0  0  0
    6.4943    1.2398    0.7029 H   0  0  0  0  0  0  0  0  0  0  0  0
    6.8320   -0.4013    1.3059 H   0  0  0  0  0  0  0  0  0  0  0  0
    7.7818    0.2737   -0.0172 H   0  0  0  0  0  0  0  0  0  0  0  0
  1 20  1  0  0  0  0
  2 22  1  0  0  0  0
  3  6  1  0  0  0  0
  3 14  1  0  0  0  0
  4  9  1  0  0  0  0
  4 12  1  0  0  0  0
  4 13  1  0  0  0  0
  5 14  2  0  0  0  0
  5 18  1  0  0  0  0
  6 18  2  0  0  0  0
  7 24  1  0  0  0  0
  7 26  2  0  0  0  0
  8 26  1  0  0  0  0
  8 27  1  0  0  0  0
  8 28  1  0  0  0  0
  9 10  1  0  0  0  0
  9 14  1  0  0  0  0
  9 29  1  0  0  0  0
 10 11  1  0  0  0  0
 10 30  1  0  0  0  0
 10 31  1  0  0  0  0
 11 12  1  0  0  0  0
 11 32  1  0  0  0  0
 11 33  1  0  0  0  0
 12 34  1  0  0  0  0
 12 35  1  0  0  0  0
 13 15  1  0  0  0  0
 13 36  1  0  0  0  0
 13 37  1  0  0  0  0
 15 16  2  0  0  0  0
 15 17  1  0  0  0  0
 16 20  1  0  0  0  0
 16 38  1  0  0  0  0
 17 21  2  0  0  0  0
 17 39  1  0  0  0  0
 18 19  1  0  0  0  0
 19 23  1  0  0  0  0
 19 24  2  0  0  0  0
 20 22  2  0  0  0  0
 21 22  1  0  0  0  0
 21 40  1  0  0  0  0
 23 25  2  0  0  0  0
 23 41  1  0  0  0  0
 24 42  1  0  0  0  0
 25 26  1  0  0  0  0
 25 43  1  0  0  0  0
 27 44  1  0  0  0  0
 27 45  1  0  0  0  0
 27 46  1  0  0  0  0
 28 47  1  0  0  0  0
 28 48  1  0  0  0  0
 28 49  1  0  0  0  0
M  END
> <PUBCHEM_COMPOUND_CID>
45783802

> <PUBCHEM_CONFORMER_RMSD>
0.8

> <PUBCHEM_CONFORMER_DIVERSEORDER>
1
48
6
134
18
105
123
16
95
45
137
41
145
75
56
139
159
74
154
115
113
8
117
68
98
93
84
132
131
140
30
21
107
150
14
103
54
100
162
164
121
119
58
12
153
72
62
89
94
76
120
3
126
57
161
59
90
70
88
69
31
158
26
129
130
125
155
114
141
39
82
127
15
142
40
33
65
148
9
116
136
44
106
118
10
63
29
96
109
46
17
144
143
27
111
146
124
11
2
66
128
79
55
99
80
47
160
67
138
108
87
37
97
53
133
101
23
86
77
157
7
81
135
151
78
102
24
91
149
122
32
92
42
43
71
110
73
104
36
28
52
4
163
38
25
147
51
49
156
152
64
112
5
20
61
85
22
83
35
13
34
19
50
60

> <PUBCHEM_MMFF94_PARTIAL_CHARGES>
32
1 -0.19
12 0.27
13 0.41
14 0.3
15 -0.14
16 -0.15
17 -0.15
18 0.46
19 0.05
2 -0.19
20 0.19
21 -0.15
22 0.19
23 -0.15
24 0.16
25 -0.15
26 0.41
27 0.37
28 0.37
3 -0.02
38 0.15
39 0.15
4 -0.81
40 0.15
41 0.15
42 0.15
43 0.15
5 -0.57
6 -0.41
7 -0.62
8 -0.84
9 0.45

> <PUBCHEM_EFFECTIVE_ROTOR_COUNT>
6

> <PUBCHEM_PHARMACOPHORE_FEATURES>
7
1 4 cation
3 5 6 18 cation
3 7 8 26 cation
5 3 5 6 14 18 rings
5 4 9 10 11 12 rings
6 15 16 17 20 21 22 rings
6 7 19 23 24 25 26 rings

> <PUBCHEM_HEAVY_ATOM_COUNT>
28

> <PUBCHEM_ATOM_DEF_STEREO_COUNT>
1

> <PUBCHEM_ATOM_UDEF_STEREO_COUNT>
0

> <PUBCHEM_BOND_DEF_STEREO_COUNT>
0

> <PUBCHEM_BOND_UDEF_STEREO_COUNT>
0

> <PUBCHEM_ISOTOPIC_ATOM_COUNT>
0

> <PUBCHEM_COMPONENT_COUNT>
1

> <PUBCHEM_CACTVS_TAUTO_COUNT>
1

> <PUBCHEM_CONFORMER_ID>
02BA9AFA00000001

> <PUBCHEM_MMFF94_ENERGY>
67.4805

> <PUBCHEM_FEATURE_SELFOVERLAP>
35.524

> <PUBCHEM_SHAPE_FINGERPRINT>
10871710 139 17968656004485081973
10937287 8 17618784660974903889
1100329 8 18410291437377461017
11101153 10 18265903643306033148
11477941 20 18411420648466927108
11488393 25 17111574943671860539
12156800 1 15435881568719774917
12166972 35 16951129606830544990
12788726 201 18261664905099198451
13761468 95 17681842808621830252
13994607 96 17459205026727123049
14713325 29 18343025449665932735
14910302 57 18129940079281583134
14955137 171 18338812177976390435
15183329 4 17895200936149253854
15463212 79 18262520269216256699
15575132 122 17970349200900047149
15849732 13 18271536347217807995
15876981 60 18334581277794967694
15961568 22 18193546990632241152
17357779 13 18198605787490419727
17492 54 17970045804757865165
17686467 74 18192706963995793184
17818456 19 17902770999916471426
19438510 23 13263495026523729767
19958102 18 18268994194065808238
20642791 239 17822559591240328501
20775438 99 17042023136750022751
20905425 154 17904477764448732101
21033650 10 18190762859770824862
21344244 246 17691396838516984679
21623110 236 18262528094826342524
22393880 68 18201445714657113206
23557571 272 18342455954182144367
255183 451 17836363019008906151
4280585 95 18267007522224277099
469060 322 17677918793324654257
497634 4 17560813138391708338
5104073 3 8213855913667013430
531348 171 18269282261938799574
57527585 103 17243870252967839761
7237137 82 18410857663973879418

> <PUBCHEM_SHAPE_MULTIPOLES>
530.91
11.61
4.05
1.7
22.32
2.8
0.03
-5.18
-3.64
-6.09
-0.73
0.3
0.07
-0.23

> <PUBCHEM_SHAPE_SELFOVERLAP>
1152.229

> <PUBCHEM_SHAPE_VOLUME>
294.5

> <PUBCHEM_COORDINATE_TYPE>
2
5
10

$$$$
