25389737
  -OEChem-12032416163D

 66 70  0     1  0  0  0  0  0999 V2000
    2.5057   -2.3704   -1.2718 F   0  0  0  0  0  0  0  0  0  0  0  0
   -1.6169   -2.0225   -2.6235 O   0  0  0  0  0  0  0  0  0  0  0  0
   -0.1101   -0.3369   -2.1489 O   0  0  0  0  0  0  0  0  0  0  0  0
    6.3064    1.3303   -1.0774 O   0  0  0  0  0  0  0  0  0  0  0  0
   -0.4991   -0.5982    0.5466 N   0  0  2  0  0  0  0  0  0  0  0  0
    1.9579    2.1047    0.3689 N   0  0  0  0  0  0  0  0  0  0  0  0
   -3.0127    2.1908    0.4711 N   0  0  0  0  0  0  0  0  0  0  0  0
    5.3867    3.3413   -0.3463 N   0  0  0  0  0  0  0  0  0  0  0  0
   -0.8343    0.8489    0.3722 C   0  0  2  0  0  0  0  0  0  0  0  0
    0.9670   -0.8327    0.5613 C   0  0  1  0  0  0  0  0  0  0  0  0
   -0.1971    1.6907    1.4912 C   0  0  0  0  0  0  0  0  0  0  0  0
    1.3221    1.5165    1.5487 C   0  0  1  0  0  0  0  0  0  0  0  0
    1.6538    0.0278    1.6517 C   0  0  0  0  0  0  0  0  0  0  0  0
   -1.2651   -1.4852   -0.3708 C   0  0  1  0  0  0  0  0  0  0  0  0
   -2.3243    1.0179    0.3346 C   0  0  0  0  0  0  0  0  0  0  0  0
   -2.7961   -1.3904   -0.1476 C   0  0  0  0  0  0  0  0  0  0  0  0
   -3.2332    0.0143    0.0800 C   0  0  0  0  0  0  0  0  0  0  0  0
    1.3631   -2.2871    0.8073 C   0  0  0  0  0  0  0  0  0  0  0  0
   -4.5325    0.5903    0.0967 C   0  0  0  0  0  0  0  0  0  0  0  0
   -4.3656    1.9564    0.3449 C   0  0  0  0  0  0  0  0  0  0  0  0
   -0.9120   -1.1936   -1.8020 C   0  0  0  0  0  0  0  0  0  0  0  0
    3.3614    2.3839    0.6271 C   0  0  0  0  0  0  0  0  0  0  0  0
    2.1199   -2.9762   -0.1401 C   0  0  0  0  0  0  0  0  0  0  0  0
    0.9667   -2.9259    1.9823 C   0  0  0  0  0  0  0  0  0  0  0  0
   -5.8375    0.0882   -0.0793 C   0  0  0  0  0  0  0  0  0  0  0  0
   -5.4440    2.8449    0.4259 C   0  0  0  0  0  0  0  0  0  0  0  0
    4.0045    3.0312   -0.5907 C   0  0  0  0  0  0  0  0  0  0  0  0
   -6.9244    0.9659    0.0009 C   0  0  0  0  0  0  0  0  0  0  0  0
    2.4804   -4.3043    0.0872 C   0  0  0  0  0  0  0  0  0  0  0  0
    1.3271   -4.2543    2.2095 C   0  0  0  0  0  0  0  0  0  0  0  0
   -6.7284    2.3226    0.2497 C   0  0  0  0  0  0  0  0  0  0  0  0
    2.0840   -4.9435    1.2621 C   0  0  0  0  0  0  0  0  0  0  0  0
   -1.3752   -1.8517   -4.0237 C   0  0  0  0  0  0  0  0  0  0  0  0
    6.4269    2.4604   -0.6115 C   0  0  0  0  0  0  0  0  0  0  0  0
    7.7749    3.0459   -0.2864 C   0  0  0  0  0  0  0  0  0  0  0  0
   -0.4506    1.2371   -0.5769 H   0  0  0  0  0  0  0  0  0  0  0  0
    1.4024   -0.5194   -0.3932 H   0  0  0  0  0  0  0  0  0  0  0  0
   -0.4391    2.7540    1.3628 H   0  0  0  0  0  0  0  0  0  0  0  0
   -0.6277    1.4017    2.4608 H   0  0  0  0  0  0  0  0  0  0  0  0
    1.6699    2.0314    2.4540 H   0  0  0  0  0  0  0  0  0  0  0  0
    1.3281   -0.3014    2.6486 H   0  0  0  0  0  0  0  0  0  0  0  0
    2.7367   -0.1457    1.6388 H   0  0  0  0  0  0  0  0  0  0  0  0
   -0.9940   -2.5320   -0.1910 H   0  0  0  0  0  0  0  0  0  0  0  0
   -3.0524   -1.9668    0.7514 H   0  0  0  0  0  0  0  0  0  0  0  0
   -3.3648   -1.8253   -0.9763 H   0  0  0  0  0  0  0  0  0  0  0  0
    1.4884    2.9769    0.1256 H   0  0  0  0  0  0  0  0  0  0  0  0
   -2.6002    3.0977    0.6407 H   0  0  0  0  0  0  0  0  0  0  0  0
    3.9140    1.4686    0.8647 H   0  0  0  0  0  0  0  0  0  0  0  0
    3.4688    3.0592    1.4858 H   0  0  0  0  0  0  0  0  0  0  0  0
    0.3668   -2.4121    2.7283 H   0  0  0  0  0  0  0  0  0  0  0  0
   -6.0058   -0.9670   -0.2751 H   0  0  0  0  0  0  0  0  0  0  0  0
   -5.2930    3.9018    0.6180 H   0  0  0  0  0  0  0  0  0  0  0  0
    3.5040    3.9733   -0.8412 H   0  0  0  0  0  0  0  0  0  0  0  0
    3.9362    2.3682   -1.4610 H   0  0  0  0  0  0  0  0  0  0  0  0
   -7.9327    0.5833   -0.1335 H   0  0  0  0  0  0  0  0  0  0  0  0
    3.0695   -4.8407   -0.6508 H   0  0  0  0  0  0  0  0  0  0  0  0
    1.0160   -4.7528    3.1229 H   0  0  0  0  0  0  0  0  0  0  0  0
   -7.5871    2.9868    0.3072 H   0  0  0  0  0  0  0  0  0  0  0  0
    2.3641   -5.9779    1.4386 H   0  0  0  0  0  0  0  0  0  0  0  0
   -1.9953   -2.5703   -4.5659 H   0  0  0  0  0  0  0  0  0  0  0  0
   -0.3240   -2.0506   -4.2532 H   0  0  0  0  0  0  0  0  0  0  0  0
   -1.6548   -0.8407   -4.3351 H   0  0  0  0  0  0  0  0  0  0  0  0
    5.6032    4.2546    0.0426 H   0  0  0  0  0  0  0  0  0  0  0  0
    7.7595    3.5080    0.7048 H   0  0  0  0  0  0  0  0  0  0  0  0
    8.5306    2.2555   -0.2917 H   0  0  0  0  0  0  0  0  0  0  0  0
    8.0350    3.7986   -1.0355 H   0  0  0  0  0  0  0  0  0  0  0  0
  1 23  1  0  0  0  0
  2 21  1  0  0  0  0
  2 33  1  0  0  0  0
  3 21  2  0  0  0  0
  4 34  2  0  0  0  0
  5  9  1  0  0  0  0
  5 10  1  0  0  0  0
  5 14  1  0  0  0  0
  6 12  1  0  0  0  0
  6 22  1  0  0  0  0
  6 46  1  0  0  0  0
  7 15  1  0  0  0  0
  7 20  1  0  0  0  0
  7 47  1  0  0  0  0
  8 27  1  0  0  0  0
  8 34  1  0  0  0  0
  8 63  1  0  0  0  0
  9 11  1  0  0  0  0
  9 15  1  0  0  0  0
  9 36  1  0  0  0  0
 10 13  1  0  0  0  0
 10 18  1  0  0  0  0
 10 37  1  0  0  0  0
 11 12  1  0  0  0  0
 11 38  1  0  0  0  0
 11 39  1  0  0  0  0
 12 13  1  0  0  0  0
 12 40  1  0  0  0  0
 13 41  1  0  0  0  0
 13 42  1  0  0  0  0
 14 16  1  0  0  0  0
 14 21  1  0  0  0  0
 14 43  1  0  0  0  0
 15 17  2  0  0  0  0
 16 17  1  0  0  0  0
 16 44  1  0  0  0  0
 16 45  1  0  0  0  0
 17 19  1  0  0  0  0
 18 23  1  0  0  0  0
 18 24  2  0  0  0  0
 19 20  1  0  0  0  0
 19 25  2  0  0  0  0
 20 26  2  0  0  0  0
 22 27  1  0  0  0  0
 22 48  1  0  0  0  0
 22 49  1  0  0  0  0
 23 29  2  0  0  0  0
 24 30  1  0  0  0  0
 24 50  1  0  0  0  0
 25 28  1  0  0  0  0
 25 51  1  0  0  0  0
 26 31  1  0  0  0  0
 26 52  1  0  0  0  0
 27 53  1  0  0  0  0
 27 54  1  0  0  0  0
 28 31  2  0  0  0  0
 28 55  1  0  0  0  0
 29 32  1  0  0  0  0
 29 56  1  0  0  0  0
 30 32  2  0  0  0  0
 30 57  1  0  0  0  0
 31 58  1  0  0  0  0
 32 59  1  0  0  0  0
 33 60  1  0  0  0  0
 33 61  1  0  0  0  0
 33 62  1  0  0  0  0
 34 35  1  0  0  0  0
 35 64  1  0  0  0  0
 35 65  1  0  0  0  0
 35 66  1  0  0  0  0
M  END
> <PUBCHEM_COMPOUND_CID>
25389737

> <PUBCHEM_CONFORMER_RMSD>
1

> <PUBCHEM_CONFORMER_DIVERSEORDER>
1
38
58
64
25
61
34
73
79
81
56
23
66
5
59
7
45
60
27
30
70
84
78
41
4
12
62
42
46
83
10
19
35
86
16
69
13
39
72
40
26
67
14
51
31
50
63
76
52
55
53
57
21
28
32
29
22
18
71
82
49
11
74
37
68
43
36
33
54
65
44
2
75
8
48
15
17
24
77
47
9
20
3
85
80
6

> <PUBCHEM_MMFF94_PARTIAL_CHARGES>
43
1 -0.19
10 0.41
12 0.27
14 0.33
15 -0.33
16 0.18
17 -0.18
18 -0.14
2 -0.43
20 -0.15
21 0.66
22 0.27
23 0.19
24 -0.15
25 -0.15
26 -0.15
27 0.3
28 -0.15
29 -0.15
3 -0.57
30 -0.15
31 -0.15
32 -0.15
33 0.28
34 0.57
35 0.06
4 -0.57
46 0.36
47 0.27
5 -0.81
50 0.15
51 0.15
52 0.15
55 0.15
56 0.15
57 0.15
58 0.15
59 0.15
6 -0.9
63 0.37
7 0.03
8 -0.73
9 0.45

> <PUBCHEM_EFFECTIVE_ROTOR_COUNT>
9.2

> <PUBCHEM_PHARMACOPHORE_FEATURES>
13
1 3 acceptor
1 4 acceptor
1 5 cation
1 6 cation
1 6 donor
1 7 cation
1 7 donor
1 8 donor
5 7 15 17 19 20 rings
6 18 23 24 29 30 32 rings
6 19 20 25 26 28 31 rings
6 5 9 10 11 12 13 rings
6 5 9 14 15 16 17 rings

> <PUBCHEM_HEAVY_ATOM_COUNT>
35

> <PUBCHEM_ATOM_DEF_STEREO_COUNT>
4

> <PUBCHEM_ATOM_UDEF_STEREO_COUNT>
0

> <PUBCHEM_BOND_DEF_STEREO_COUNT>
0

> <PUBCHEM_BOND_UDEF_STEREO_COUNT>
0

> <PUBCHEM_ISOTOPIC_ATOM_COUNT>
0

> <PUBCHEM_COMPONENT_COUNT>
1

> <PUBCHEM_CACTVS_TAUTO_COUNT>
2

> <PUBCHEM_CONFORMER_ID>
01836AA900000001

> <PUBCHEM_MMFF94_ENERGY>
69.3466

> <PUBCHEM_FEATURE_SELFOVERLAP>
66.165

> <PUBCHEM_SHAPE_FINGERPRINT>
10190108 129 18122628529369137395
10369192 42 17967812799046184796
10721379 63 18267311932516174904
107951 10 18267309901096662638
11135609 187 18411985793264700384
11445158 3 18123736574373770439
11763715 3 17255422422272771978
12160290 23 17177963395764037802
12293681 160 18131077073347629464
12342043 65 12758799402882680704
133893 2 17903030600355730386
13540713 5 17985835830904480681
13726171 33 17916604071875164897
140371 6 17339844067794237177
15347591 1 18263362496252066409
15439362 3 18335423405240031177
15664445 248 18053392002641773958
15927050 60 18411980303916882459
17980427 26 18334845091935241495
19319366 153 18411417297949096602
21133410 230 17757024394415220754
21133665 82 18339929320687834228
21756936 100 18264485277105219344
23559900 14 17916015760208237243
244849 19 17751104447680212081
3411729 13 18411700950368620753
376196 1 15980278508963019952
4058900 60 18334301984804126344
4073 2 18261116262477990249
4516262 110 18334850628538495941
465052 167 17984133765492915867
5104073 3 18129656384734832401
5265222 85 18194968671788184752
563151 40 18339364191930355722
59755656 520 18116428327259337372
6669772 16 18409456872774115488

> <PUBCHEM_SHAPE_MULTIPOLES>
675.48
14.17
5.86
2.14
0.34
5.03
2.17
-20.7
1.65
9.28
-1.61
0.04
2.14
-2.84

> <PUBCHEM_SHAPE_SELFOVERLAP>
1465.263

> <PUBCHEM_SHAPE_VOLUME>
369.3

> <PUBCHEM_COORDINATE_TYPE>
2
5
10

$$$$
