45784258
  -OEChem-12032416293D

 46 49  0     1  0  0  0  0  0999 V2000
    8.0516   -0.8101    1.1422 F   0  0  0  0  0  0  0  0  0  0  0  0
    8.4317    0.7450   -0.3293 F   0  0  0  0  0  0  0  0  0  0  0  0
    7.9233   -1.2686   -0.9738 F   0  0  0  0  0  0  0  0  0  0  0  0
   -8.8900    0.9296    0.8387 O   0  0  0  0  0  0  0  0  0  0  0  0
   -9.0171   -1.2708    0.2834 O   0  0  0  0  0  0  0  0  0  0  0  0
   -1.9509   -0.2179   -0.2288 N   0  0  1  0  0  0  0  0  0  0  0  0
    2.6987   -1.1692    0.4317 N   0  0  0  0  0  0  0  0  0  0  0  0
    2.1110    0.9326    0.0113 N   0  0  0  0  0  0  0  0  0  0  0  0
    0.2343   -0.6946    0.4763 C   0  0  1  0  0  0  0  0  0  0  0  0
   -0.5203    0.0387    1.5989 C   0  0  0  0  0  0  0  0  0  0  0  0
   -0.6162   -0.4621   -0.7798 C   0  0  0  0  0  0  0  0  0  0  0  0
   -1.7301    0.6644    0.9170 C   0  0  0  0  0  0  0  0  0  0  0  0
    1.6747   -0.2732    0.2989 C   0  0  0  0  0  0  0  0  0  0  0  0
   -2.8582    0.3619   -1.2080 C   0  0  0  0  0  0  0  0  0  0  0  0
   -4.2987    0.2077   -0.7979 C   0  0  0  0  0  0  0  0  0  0  0  0
    3.8741   -0.4970    0.2150 C   0  0  0  0  0  0  0  0  0  0  0  0
    3.4806    0.8128   -0.0452 C   0  0  0  0  0  0  0  0  0  0  0  0
    5.2069   -0.9094    0.2241 C   0  0  0  0  0  0  0  0  0  0  0  0
   -4.9334   -1.0271   -0.9330 C   0  0  0  0  0  0  0  0  0  0  0  0
   -4.9983    1.2991   -0.2833 C   0  0  0  0  0  0  0  0  0  0  0  0
    4.4618    1.7820   -0.3143 C   0  0  0  0  0  0  0  0  0  0  0  0
    6.1702    0.0682   -0.0458 C   0  0  0  0  0  0  0  0  0  0  0  0
    5.8064    1.3906   -0.3104 C   0  0  0  0  0  0  0  0  0  0  0  0
   -6.2678   -1.1703   -0.5533 C   0  0  0  0  0  0  0  0  0  0  0  0
   -6.3329    1.1558    0.0964 C   0  0  0  0  0  0  0  0  0  0  0  0
   -6.9676   -0.0790   -0.0385 C   0  0  0  0  0  0  0  0  0  0  0  0
    7.6149   -0.3113   -0.0509 C   0  0  0  0  0  0  0  0  0  0  0  0
   -8.3587   -0.2281    0.3585 C   0  0  0  0  0  0  0  0  0  0  0  0
    0.2125   -1.7681    0.7144 H   0  0  0  0  0  0  0  0  0  0  0  0
   -0.8469   -0.6883    2.3529 H   0  0  0  0  0  0  0  0  0  0  0  0
    0.0857    0.7955    2.1081 H   0  0  0  0  0  0  0  0  0  0  0  0
   -0.6022   -1.3387   -1.4366 H   0  0  0  0  0  0  0  0  0  0  0  0
   -0.2555    0.4024   -1.3530 H   0  0  0  0  0  0  0  0  0  0  0  0
   -2.5885    0.6979    1.5952 H   0  0  0  0  0  0  0  0  0  0  0  0
   -1.4879    1.6888    0.6057 H   0  0  0  0  0  0  0  0  0  0  0  0
   -2.6205    1.4131   -1.4208 H   0  0  0  0  0  0  0  0  0  0  0  0
   -2.7470   -0.1566   -2.1710 H   0  0  0  0  0  0  0  0  0  0  0  0
    2.6095   -2.1527    0.6502 H   0  0  0  0  0  0  0  0  0  0  0  0
    5.4786   -1.9389    0.4308 H   0  0  0  0  0  0  0  0  0  0  0  0
   -4.3988   -1.8848   -1.3327 H   0  0  0  0  0  0  0  0  0  0  0  0
   -4.5145    2.2659   -0.1717 H   0  0  0  0  0  0  0  0  0  0  0  0
    4.1890    2.8120   -0.5211 H   0  0  0  0  0  0  0  0  0  0  0  0
    6.5612    2.1449   -0.5193 H   0  0  0  0  0  0  0  0  0  0  0  0
   -6.7442   -2.1406   -0.6662 H   0  0  0  0  0  0  0  0  0  0  0  0
   -6.8396    2.0312    0.4927 H   0  0  0  0  0  0  0  0  0  0  0  0
   -9.8281    0.8184    1.1036 H   0  0  0  0  0  0  0  0  0  0  0  0
  1 27  1  0  0  0  0
  2 27  1  0  0  0  0
  3 27  1  0  0  0  0
  4 28  1  0  0  0  0
  4 46  1  0  0  0  0
  5 28  2  0  0  0  0
  6 11  1  0  0  0  0
  6 12  1  0  0  0  0
  6 14  1  0  0  0  0
  7 13  1  0  0  0  0
  7 16  1  0  0  0  0
  7 38  1  0  0  0  0
  8 13  2  0  0  0  0
  8 17  1  0  0  0  0
  9 10  1  0  0  0  0
  9 11  1  0  0  0  0
  9 13  1  0  0  0  0
  9 29  1  0  0  0  0
 10 12  1  0  0  0  0
 10 30  1  0  0  0  0
 10 31  1  0  0  0  0
 11 32  1  0  0  0  0
 11 33  1  0  0  0  0
 12 34  1  0  0  0  0
 12 35  1  0  0  0  0
 14 15  1  0  0  0  0
 14 36  1  0  0  0  0
 14 37  1  0  0  0  0
 15 19  2  0  0  0  0
 15 20  1  0  0  0  0
 16 17  2  0  0  0  0
 16 18  1  0  0  0  0
 17 21  1  0  0  0  0
 18 22  2  0  0  0  0
 18 39  1  0  0  0  0
 19 24  1  0  0  0  0
 19 40  1  0  0  0  0
 20 25  2  0  0  0  0
 20 41  1  0  0  0  0
 21 23  2  0  0  0  0
 21 42  1  0  0  0  0
 22 23  1  0  0  0  0
 22 27  1  0  0  0  0
 23 43  1  0  0  0  0
 24 26  2  0  0  0  0
 24 44  1  0  0  0  0
 25 26  1  0  0  0  0
 25 45  1  0  0  0  0
 26 28  1  0  0  0  0
M  END
> <PUBCHEM_COMPOUND_CID>
45784258

> <PUBCHEM_CONFORMER_RMSD>
0.8

> <PUBCHEM_CONFORMER_DIVERSEORDER>
1
48
8
44
39
18
21
43
55
31
56
41
6
38
7
10
45
33
50
28
26
53
11
37
36
42
54
12
51
27
52
49
57
35
32
24
13
34
47
5
46
4
9
20
2
40
22
58
17
30
23
16
25
3
14
15
19
29

> <PUBCHEM_MMFF94_PARTIAL_CHARGES>
36
1 -0.34
11 0.27
12 0.27
13 0.01
14 0.41
15 -0.14
16 -0.15
17 0.23
18 -0.15
19 -0.15
2 -0.34
20 -0.15
21 -0.15
22 -0.14
23 -0.15
24 -0.15
25 -0.15
26 0.09
27 1.16
28 0.63
3 -0.34
38 0.27
39 0.15
4 -0.65
40 0.15
41 0.15
42 0.15
43 0.15
44 0.15
45 0.15
46 0.5
5 -0.57
6 -0.81
7 0.03
8 -0.57
9 0.18

> <PUBCHEM_EFFECTIVE_ROTOR_COUNT>
6

> <PUBCHEM_PHARMACOPHORE_FEATURES>
10
1 4 acceptor
1 5 acceptor
1 6 cation
1 7 donor
3 4 5 28 anion
3 7 8 13 cation
5 6 9 10 11 12 rings
5 7 8 13 16 17 rings
6 15 19 20 24 25 26 rings
6 16 17 18 21 22 23 rings

> <PUBCHEM_HEAVY_ATOM_COUNT>
28

> <PUBCHEM_ATOM_DEF_STEREO_COUNT>
1

> <PUBCHEM_ATOM_UDEF_STEREO_COUNT>
0

> <PUBCHEM_BOND_DEF_STEREO_COUNT>
0

> <PUBCHEM_BOND_UDEF_STEREO_COUNT>
0

> <PUBCHEM_ISOTOPIC_ATOM_COUNT>
0

> <PUBCHEM_COMPONENT_COUNT>
1

> <PUBCHEM_CACTVS_TAUTO_COUNT>
2

> <PUBCHEM_CONFORMER_ID>
02BA9CC200000001

> <PUBCHEM_MMFF94_ENERGY>
58.4463

> <PUBCHEM_FEATURE_SELFOVERLAP>
50.911

> <PUBCHEM_SHAPE_FINGERPRINT>
10 15 13334737942047008937
10066227 49 17988084379554425790
10162869 55 9799401209554077451
10299344 5 18413669123949212983
106641 1 13479137903919250084
11135926 11 17989197128028379911
11315181 36 11241969270812816471
11408170 108 17702951315348438982
11719270 70 17846779594801952982
12082328 90 18343301427590640453
12089408 11 18201719565733855741
12104220 1 17676214551071974793
12166972 35 18333449859130176836
12236239 1 18201998837476759084
12643181 29 14908175370026862765
12838862 33 13398626108935250877
13533116 47 16950831515294883200
14123256 10 16988846072725232049
14251764 18 17603584114936907962
14251764 46 17918274255738708774
14294032 229 17416702245167741449
14849402 71 18189058745323264365
14856354 85 18131349739857429775
14933364 13 18410573985610588581
15183329 4 18336256881865242252
15419008 47 15719385153405830645
16087824 20 16773524262058586849
18006028 8 12175621780423980555
18335252 98 18411421700575554283
19841028 212 18129665193386637150
21033648 29 17604709010465430000
21095086 128 18333730234832032043
21150785 3 18408885140134761242
21267235 1 18411419501383344468
21315763 28 18407758136052428749
21792934 111 16200145491268718146
21792961 116 17703508801337742949
22224240 67 15502375633910288049
232437 2 18334576840967383427
23516275 137 18199768967988952251
23559900 14 16414898855801098850
249057 3 18408884065923646935
2747138 104 16950287321469508853
29717793 49 18060703888653211436
335352 9 18187369827417743150
335507 130 18341612633675695487
4017518 198 12468357921241776960
4073 2 17968380155636064858
4325135 7 18407759244617831565
4339292 15 16128080270650923463
5283156 175 17489591147605572382
5758199 1 17967532367841141187
59682541 35 16225770735457792861
59755656 520 17749102318204565642
6009941 240 12679175034003488989
67123 10 18334295379344702748
9663363 56 15626220208457636995

> <PUBCHEM_SHAPE_MULTIPOLES>
527.72
29.38
1.33
0.99
6.71
0.2
-0.09
-2.09
-0.43
-0.26
0.09
0.32
-0.05
-0.64

> <PUBCHEM_SHAPE_SELFOVERLAP>
1162.339

> <PUBCHEM_SHAPE_VOLUME>
288.2

> <PUBCHEM_COORDINATE_TYPE>
2
5
10

$$$$
