56774566
  -OEChem-12032416393D

 51 53  0     1  0  0  0  0  0999 V2000
    3.8130   -1.6588    1.4369 O   0  0  0  0  0  0  0  0  0  0  0  0
    3.3913    0.6776   -2.0383 O   0  0  0  0  0  0  0  0  0  0  0  0
    7.1149   -1.0178    0.1225 O   0  0  0  0  0  0  0  0  0  0  0  0
   -3.3953   -1.7539   -0.3291 O   0  0  0  0  0  0  0  0  0  0  0  0
    5.2323    0.3501    0.0914 N   0  0  0  0  0  0  0  0  0  0  0  0
   -2.6179    0.4554   -0.1208 N   0  0  0  0  0  0  0  0  0  0  0  0
   -6.1053   -0.6970   -0.3808 N   0  0  0  0  0  0  0  0  0  0  0  0
   -7.2461   -0.1016    0.0070 N   0  0  0  0  0  0  0  0  0  0  0  0
    3.7877    0.4595    0.3302 C   0  0  1  0  0  0  0  0  0  0  0  0
    3.0008   -0.0524   -0.8799 C   0  0  1  0  0  0  0  0  0  0  0  0
    3.4088   -0.3037    1.5937 C   0  0  0  0  0  0  0  0  0  0  0  0
    5.8656    1.3997   -0.6954 C   0  0  0  0  0  0  0  0  0  0  0  0
    1.5130    0.0823   -0.6783 C   0  0  0  0  0  0  0  0  0  0  0  0
    5.9473   -0.7922    0.4459 C   0  0  0  0  0  0  0  0  0  0  0  0
    5.2176   -1.7623    1.3682 C   0  0  0  0  0  0  0  0  0  0  0  0
    6.5306    2.4325    0.1909 C   0  0  0  0  0  0  0  0  0  0  0  0
    0.9520    1.3365   -0.4373 C   0  0  0  0  0  0  0  0  0  0  0  0
    0.6970   -1.0478   -0.7333 C   0  0  0  0  0  0  0  0  0  0  0  0
   -0.4248    1.4607   -0.2514 C   0  0  0  0  0  0  0  0  0  0  0  0
   -0.6798   -0.9236   -0.5475 C   0  0  0  0  0  0  0  0  0  0  0  0
   -1.2407    0.3307   -0.3066 C   0  0  0  0  0  0  0  0  0  0  0  0
   -3.5863   -0.5571   -0.1413 C   0  0  0  0  0  0  0  0  0  0  0  0
   -4.9799   -0.1112    0.1202 C   0  0  0  0  0  0  0  0  0  0  0  0
   -5.4148    0.9408    0.8889 C   0  0  0  0  0  0  0  0  0  0  0  0
   -6.8179    0.8981    0.7825 C   0  0  0  0  0  0  0  0  0  0  0  0
   -6.1701   -1.8482   -1.2510 C   0  0  0  0  0  0  0  0  0  0  0  0
   -7.7930    1.8039    1.4128 C   0  0  0  0  0  0  0  0  0  0  0  0
    3.5885    1.5247    0.5025 H   0  0  0  0  0  0  0  0  0  0  0  0
    3.2622   -1.0975   -1.0845 H   0  0  0  0  0  0  0  0  0  0  0  0
    3.9054    0.1221    2.4754 H   0  0  0  0  0  0  0  0  0  0  0  0
    2.3352   -0.2834    1.7999 H   0  0  0  0  0  0  0  0  0  0  0  0
    6.6204    0.9491   -1.3494 H   0  0  0  0  0  0  0  0  0  0  0  0
    5.1459    1.9154   -1.3314 H   0  0  0  0  0  0  0  0  0  0  0  0
    5.4545   -2.7792    1.0383 H   0  0  0  0  0  0  0  0  0  0  0  0
    5.6304   -1.6365    2.3762 H   0  0  0  0  0  0  0  0  0  0  0  0
    5.8002    2.9156    0.8485 H   0  0  0  0  0  0  0  0  0  0  0  0
    7.2966    1.9743    0.8252 H   0  0  0  0  0  0  0  0  0  0  0  0
    7.0093    3.2072   -0.4161 H   0  0  0  0  0  0  0  0  0  0  0  0
    1.5653    2.2321   -0.3940 H   0  0  0  0  0  0  0  0  0  0  0  0
    1.1212   -2.0310   -0.9192 H   0  0  0  0  0  0  0  0  0  0  0  0
    3.0190    1.5739   -1.9934 H   0  0  0  0  0  0  0  0  0  0  0  0
   -0.8485    2.4444   -0.0653 H   0  0  0  0  0  0  0  0  0  0  0  0
   -1.2433   -1.8441   -0.6045 H   0  0  0  0  0  0  0  0  0  0  0  0
   -2.9434    1.4053    0.0438 H   0  0  0  0  0  0  0  0  0  0  0  0
   -4.8105    1.6380    1.4516 H   0  0  0  0  0  0  0  0  0  0  0  0
   -5.9196   -2.7363   -0.6660 H   0  0  0  0  0  0  0  0  0  0  0  0
   -7.1831   -1.9424   -1.6520 H   0  0  0  0  0  0  0  0  0  0  0  0
   -5.4677   -1.7088   -2.0763 H   0  0  0  0  0  0  0  0  0  0  0  0
   -7.2939    2.5703    2.0149 H   0  0  0  0  0  0  0  0  0  0  0  0
   -8.4683    1.2478    2.0713 H   0  0  0  0  0  0  0  0  0  0  0  0
   -8.3948    2.3138    0.6535 H   0  0  0  0  0  0  0  0  0  0  0  0
  1 11  1  0  0  0  0
  1 15  1  0  0  0  0
  2 10  1  0  0  0  0
  2 41  1  0  0  0  0
  3 14  2  0  0  0  0
  4 22  2  0  0  0  0
  5  9  1  0  0  0  0
  5 12  1  0  0  0  0
  5 14  1  0  0  0  0
  6 21  1  0  0  0  0
  6 22  1  0  0  0  0
  6 44  1  0  0  0  0
  7  8  1  0  0  0  0
  7 23  1  0  0  0  0
  7 26  1  0  0  0  0
  8 25  2  0  0  0  0
  9 10  1  0  0  0  0
  9 11  1  0  0  0  0
  9 28  1  0  0  0  0
 10 13  1  0  0  0  0
 10 29  1  0  0  0  0
 11 30  1  0  0  0  0
 11 31  1  0  0  0  0
 12 16  1  0  0  0  0
 12 32  1  0  0  0  0
 12 33  1  0  0  0  0
 13 17  2  0  0  0  0
 13 18  1  0  0  0  0
 14 15  1  0  0  0  0
 15 34  1  0  0  0  0
 15 35  1  0  0  0  0
 16 36  1  0  0  0  0
 16 37  1  0  0  0  0
 16 38  1  0  0  0  0
 17 19  1  0  0  0  0
 17 39  1  0  0  0  0
 18 20  2  0  0  0  0
 18 40  1  0  0  0  0
 19 21  2  0  0  0  0
 19 42  1  0  0  0  0
 20 21  1  0  0  0  0
 20 43  1  0  0  0  0
 22 23  1  0  0  0  0
 23 24  2  0  0  0  0
 24 25  1  0  0  0  0
 24 45  1  0  0  0  0
 25 27  1  0  0  0  0
 26 46  1  0  0  0  0
 26 47  1  0  0  0  0
 26 48  1  0  0  0  0
 27 49  1  0  0  0  0
 27 50  1  0  0  0  0
 27 51  1  0  0  0  0
M  END
> <PUBCHEM_COMPOUND_CID>
56774566

> <PUBCHEM_CONFORMER_RMSD>
0.8

> <PUBCHEM_CONFORMER_DIVERSEORDER>
1
34
52
26
29
13
19
35
32
51
44
16
37
53
54
14
48
31
17
12
5
46
20
8
39
11
25
47
28
3
42
36
30
23
45
40
27
41
43
38
21
33
50
24
15
49
2
7
6
22
18
4
9
10

> <PUBCHEM_MMFF94_PARTIAL_CHARGES>
33
1 -0.56
10 0.42
11 0.28
12 0.3
13 -0.14
14 0.57
15 0.34
17 -0.15
18 -0.15
19 -0.15
2 -0.68
20 -0.15
21 0.12
22 0.71
23 -0.24
24 -0.15
25 0.11
26 0.26
27 0.18
3 -0.57
39 0.15
4 -0.57
40 0.15
41 0.4
42 0.15
43 0.15
44 0.37
45 0.15
5 -0.66
6 -0.55
7 0.31
8 -0.71
9 0.3

> <PUBCHEM_EFFECTIVE_ROTOR_COUNT>
7

> <PUBCHEM_PHARMACOPHORE_FEATURES>
10
1 1 acceptor
1 2 acceptor
1 2 donor
1 3 acceptor
1 4 acceptor
1 6 donor
1 8 acceptor
5 7 8 23 24 25 rings
6 1 5 9 11 14 15 rings
6 13 17 18 19 20 21 rings

> <PUBCHEM_HEAVY_ATOM_COUNT>
27

> <PUBCHEM_ATOM_DEF_STEREO_COUNT>
2

> <PUBCHEM_ATOM_UDEF_STEREO_COUNT>
0

> <PUBCHEM_BOND_DEF_STEREO_COUNT>
0

> <PUBCHEM_BOND_UDEF_STEREO_COUNT>
0

> <PUBCHEM_ISOTOPIC_ATOM_COUNT>
0

> <PUBCHEM_COMPONENT_COUNT>
1

> <PUBCHEM_CACTVS_TAUTO_COUNT>
4

> <PUBCHEM_CONFORMER_ID>
03624FA600000001

> <PUBCHEM_MMFF94_ENERGY>
70.3746

> <PUBCHEM_FEATURE_SELFOVERLAP>
50.749

> <PUBCHEM_SHAPE_FINGERPRINT>
10 15 18341620321857072225
10299344 5 18410011035293105467
10906281 52 18337404806580955511
11315181 36 18340768230758183981
11719270 70 17489591142978712270
11991303 11 14548729664299338557
12236239 1 18410292527354616182
12516196 113 16443063902339322588
12596602 18 18412263969020264370
12730499 353 15267347327387496702
12778500 126 18411419497531319952
13533116 47 18113897135580775890
13668630 136 15430042028394620011
13685833 64 16370728110379345483
14170010 4 17167863075913838260
14251757 52 17988923414210767864
14251764 18 18410575111002627517
14849402 71 18339927142264371401
15183329 4 14273451457833748421
15352257 5 16153437159948621139
15419008 47 15841551860166016377
15461852 350 17132108066497531261
1577012 14 18412826897899729871
18335252 114 12463564063154475754
20281389 69 18409730659854773061
21033648 29 16630518527631231635
21130935 74 18411699902370811499
21267235 1 18187364278119685858
21315763 178 18334010601469745071
21344244 181 16443347516858704666
21623969 137 16443068287843699987
220451 1 18260267464374682847
2303208 19 14707212111091072809
23081809 10 18410854382640113919
23522609 53 18265637479429219085
23559900 14 16950568838752099837
3663271 9 18408885152898506627
397830 11 15792591809988323701
4073 2 18043534021836094728
4340502 62 17023183851310524280
46194498 28 14996004337442524758
5104073 3 18339929324571020441
59755656 215 15195572286268267460
6328613 192 18340206396325660945
7226269 152 18272934904254057569

> <PUBCHEM_SHAPE_MULTIPOLES>
512.25
22.68
1.89
1.28
17.4
0.23
-0.12
3.46
-5.19
-0.41
-0.16
-0.67
-0.14
-3.01

> <PUBCHEM_SHAPE_SELFOVERLAP>
1087.563

> <PUBCHEM_SHAPE_VOLUME>
283.7

> <PUBCHEM_COORDINATE_TYPE>
2
5
10

$$$$
