26744558
  -OEChem-12032416293D

 46 49  0     1  0  0  0  0  0999 V2000
   -1.9245   -0.4008   -2.3893 Cl  0  0  0  0  0  0  0  0  0  0  0  0
   -5.5081   -2.2491    0.6608 F   0  0  0  0  0  0  0  0  0  0  0  0
    5.3963    2.0580   -1.0449 O   0  0  0  0  0  0  0  0  0  0  0  0
    0.2916    3.0842    1.2764 O   0  0  0  0  0  0  0  0  0  0  0  0
    2.5350    0.3575    0.2558 N   0  0  1  0  0  0  0  0  0  0  0  0
   -0.0555    1.6743   -0.4290 N   0  0  0  0  0  0  0  0  0  0  0  0
   -1.0405    3.2677    0.8842 N   0  0  0  0  0  0  0  0  0  0  0  0
    2.2453    1.7436    0.6757 C   0  0  1  0  0  0  0  0  0  0  0  0
    3.2256    2.6131   -0.1335 C   0  0  0  0  0  0  0  0  0  0  0  0
    4.0541    1.6238   -0.9436 C   0  0  2  0  0  0  0  0  0  0  0  0
    3.9377    0.3337   -0.1543 C   0  0  0  0  0  0  0  0  0  0  0  0
    2.2494   -0.6277    1.2908 C   0  0  0  0  0  0  0  0  0  0  0  0
    0.7984    2.1300    0.4524 C   0  0  0  0  0  0  0  0  0  0  0  0
    2.0726   -2.0085    0.7171 C   0  0  0  0  0  0  0  0  0  0  0  0
   -1.1693    2.4018   -0.1253 C   0  0  0  0  0  0  0  0  0  0  0  0
    0.8075   -2.4423    0.3208 C   0  0  0  0  0  0  0  0  0  0  0  0
    3.1739   -2.8537    0.5819 C   0  0  0  0  0  0  0  0  0  0  0  0
   -2.4304    2.2444   -0.8583 C   0  0  0  0  0  0  0  0  0  0  0  0
    0.6437   -3.7216   -0.2108 C   0  0  0  0  0  0  0  0  0  0  0  0
    3.0102   -4.1331    0.0503 C   0  0  0  0  0  0  0  0  0  0  0  0
   -3.2457    1.0146   -0.4709 C   0  0  0  0  0  0  0  0  0  0  0  0
    1.7451   -4.5668   -0.3462 C   0  0  0  0  0  0  0  0  0  0  0  0
   -3.0742   -0.2103   -1.1160 C   0  0  0  0  0  0  0  0  0  0  0  0
   -4.1810    1.1367    0.5567 C   0  0  0  0  0  0  0  0  0  0  0  0
   -3.8383   -1.3129   -0.7336 C   0  0  0  0  0  0  0  0  0  0  0  0
   -4.9452    0.0342    0.9390 C   0  0  0  0  0  0  0  0  0  0  0  0
   -4.7738   -1.1908    0.2939 C   0  0  0  0  0  0  0  0  0  0  0  0
    2.4819    1.8750    1.7411 H   0  0  0  0  0  0  0  0  0  0  0  0
    2.7258    3.3251   -0.8004 H   0  0  0  0  0  0  0  0  0  0  0  0
    3.8634    3.1954    0.5432 H   0  0  0  0  0  0  0  0  0  0  0  0
    3.6378    1.5029   -1.9512 H   0  0  0  0  0  0  0  0  0  0  0  0
    4.1819   -0.5233   -0.7899 H   0  0  0  0  0  0  0  0  0  0  0  0
    4.6324    0.3367    0.6961 H   0  0  0  0  0  0  0  0  0  0  0  0
    1.3149   -0.3713    1.8091 H   0  0  0  0  0  0  0  0  0  0  0  0
    3.0147   -0.6338    2.0790 H   0  0  0  0  0  0  0  0  0  0  0  0
    5.3909    2.9216   -1.4919 H   0  0  0  0  0  0  0  0  0  0  0  0
   -0.0585   -1.7928    0.4183 H   0  0  0  0  0  0  0  0  0  0  0  0
    4.1644   -2.5314    0.8918 H   0  0  0  0  0  0  0  0  0  0  0  0
   -2.2391    2.2530   -1.9377 H   0  0  0  0  0  0  0  0  0  0  0  0
   -3.0606    3.1321   -0.7038 H   0  0  0  0  0  0  0  0  0  0  0  0
   -0.3413   -4.0587   -0.5203 H   0  0  0  0  0  0  0  0  0  0  0  0
    3.8674   -4.7917   -0.0539 H   0  0  0  0  0  0  0  0  0  0  0  0
    1.6175   -5.5627   -0.7602 H   0  0  0  0  0  0  0  0  0  0  0  0
   -4.3245    2.0839    1.0700 H   0  0  0  0  0  0  0  0  0  0  0  0
   -3.7163   -2.2745   -1.2253 H   0  0  0  0  0  0  0  0  0  0  0  0
   -5.6734    0.1287    1.7391 H   0  0  0  0  0  0  0  0  0  0  0  0
  1 23  1  0  0  0  0
  2 27  1  0  0  0  0
  3 10  1  0  0  0  0
  3 36  1  0  0  0  0
  4  7  1  0  0  0  0
  4 13  1  0  0  0  0
  5  8  1  0  0  0  0
  5 11  1  0  0  0  0
  5 12  1  0  0  0  0
  6 13  2  0  0  0  0
  6 15  1  0  0  0  0
  7 15  2  0  0  0  0
  8  9  1  0  0  0  0
  8 13  1  0  0  0  0
  8 28  1  0  0  0  0
  9 10  1  0  0  0  0
  9 29  1  0  0  0  0
  9 30  1  0  0  0  0
 10 11  1  0  0  0  0
 10 31  1  0  0  0  0
 11 32  1  0  0  0  0
 11 33  1  0  0  0  0
 12 14  1  0  0  0  0
 12 34  1  0  0  0  0
 12 35  1  0  0  0  0
 14 16  2  0  0  0  0
 14 17  1  0  0  0  0
 15 18  1  0  0  0  0
 16 19  1  0  0  0  0
 16 37  1  0  0  0  0
 17 20  2  0  0  0  0
 17 38  1  0  0  0  0
 18 21  1  0  0  0  0
 18 39  1  0  0  0  0
 18 40  1  0  0  0  0
 19 22  2  0  0  0  0
 19 41  1  0  0  0  0
 20 22  1  0  0  0  0
 20 42  1  0  0  0  0
 21 23  2  0  0  0  0
 21 24  1  0  0  0  0
 22 43  1  0  0  0  0
 23 25  1  0  0  0  0
 24 26  2  0  0  0  0
 24 44  1  0  0  0  0
 25 27  2  0  0  0  0
 25 45  1  0  0  0  0
 26 27  1  0  0  0  0
 26 46  1  0  0  0  0
M  END
> <PUBCHEM_COMPOUND_CID>
26744558

> <PUBCHEM_CONFORMER_RMSD>
1.2

> <PUBCHEM_CONFORMER_DIVERSEORDER>
1
71
41
60
59
42
40
14
44
15
25
87
54
10
11
45
73
29
55
28
21
63
85
51
69
76
31
19
17
50
49
13
34
35
79
2
52
88
74
57
56
12
66
26
67
84
33
80
9
46
64
70
4
30
83
36
77
43
68
16
75
81
5
27
38
24
32
20
62
6
8
58
22
72
65
3
82
86
23
47
53
7
39
48
61
78
18
37

> <PUBCHEM_MMFF94_PARTIAL_CHARGES>
35
1 -0.18
10 0.28
11 0.27
12 0.41
13 0.3
14 -0.14
15 0.34
16 -0.15
17 -0.15
18 0.32
19 -0.15
2 -0.19
20 -0.15
21 -0.14
22 -0.15
23 0.18
24 -0.15
25 -0.15
26 -0.15
27 0.19
3 -0.68
36 0.4
37 0.15
38 0.15
4 -0.02
41 0.15
42 0.15
43 0.15
44 0.15
45 0.15
46 0.15
5 -0.81
6 -0.57
7 -0.41
8 0.45

> <PUBCHEM_EFFECTIVE_ROTOR_COUNT>
6

> <PUBCHEM_PHARMACOPHORE_FEATURES>
8
1 3 acceptor
1 3 donor
1 5 cation
3 6 7 15 cation
5 4 6 7 13 15 rings
5 5 8 9 10 11 rings
6 14 16 17 19 20 22 rings
6 21 23 24 25 26 27 rings

> <PUBCHEM_HEAVY_ATOM_COUNT>
27

> <PUBCHEM_ATOM_DEF_STEREO_COUNT>
2

> <PUBCHEM_ATOM_UDEF_STEREO_COUNT>
0

> <PUBCHEM_BOND_DEF_STEREO_COUNT>
0

> <PUBCHEM_BOND_UDEF_STEREO_COUNT>
0

> <PUBCHEM_ISOTOPIC_ATOM_COUNT>
0

> <PUBCHEM_COMPONENT_COUNT>
1

> <PUBCHEM_CACTVS_TAUTO_COUNT>
1

> <PUBCHEM_CONFORMER_ID>
019816EE00000001

> <PUBCHEM_MMFF94_ENERGY>
57.9613

> <PUBCHEM_FEATURE_SELFOVERLAP>
40.597

> <PUBCHEM_SHAPE_FINGERPRINT>
10674148 151 17560261183903165972
10928967 22 18201992248675278103
11014199 57 17979073782526391586
11135609 12 18192144885039713224
11135926 11 18409164389907534268
11136131 41 18260819398491851762
11315621 136 18263649481096466798
12156800 1 17319333025769364550
12553582 1 18270104820910521317
12788726 201 17487615217721194017
13122387 1 18339068371995257895
13257819 37 18043553774891816740
13402501 40 18116155661149878931
13533116 47 18341602708396371815
1361 2 18122338245367133779
14114211 80 18123490507060052299
14251757 5 17687199994476274524
14790565 3 18265903646910137604
15537594 2 18271809050985174061
16067690 210 15840729494446834307
17909252 39 18199754648503910778
19319366 153 18340202007227670572
19591789 44 18266738176155738242
19930381 70 18410007754434340395
20028762 73 17840025479224010511
20764821 26 17904757031037091230
20775530 9 18049715230993635459
21315759 227 18116420449677744211
21344244 181 18199771265958790998
21421861 104 18197794205832529825
221490 88 18264768753515389394
235170 7 17240752999874496613
23559900 14 18193824947291679784
23566358 27 18265903453583121212
340366 18 17468762888103215860
3737641 26 18411992338214123187
4280585 95 17613426750030115490
445580 102 18338510842227085255
57091435 65 18341328899113748222
6287921 2 18337389340182286998
6433294 58 18410292467367784707

> <PUBCHEM_SHAPE_MULTIPOLES>
523.56
9.96
5.58
1.29
6.39
3.91
-0.45
1.38
0.05
-5.31
0.31
0.52
-0.18
-0.68

> <PUBCHEM_SHAPE_SELFOVERLAP>
1125.072

> <PUBCHEM_SHAPE_VOLUME>
291.2

> <PUBCHEM_COORDINATE_TYPE>
2
5
10

$$$$
