11911834
  -OEChem-12032416363D

 64 68  0     1  0  0  0  0  0999 V2000
    0.0598    0.9835    2.1148 O   0  0  0  0  0  0  0  0  0  0  0  0
   -0.9332    3.8327    1.3195 O   0  0  0  0  0  0  0  0  0  0  0  0
   -4.7953    1.9371    0.6042 O   0  0  0  0  0  0  0  0  0  0  0  0
   -5.9333   -0.1671   -0.6305 O   0  0  0  0  0  0  0  0  0  0  0  0
   -2.8647    0.7343    1.0922 N   0  0  0  0  0  0  0  0  0  0  0  0
    1.5123    3.1415   -0.4469 N   0  0  0  0  0  0  0  0  0  0  0  0
    3.0160    1.3812   -0.6273 N   0  0  0  0  0  0  0  0  0  0  0  0
    2.6651    2.9178   -2.4502 N   0  0  0  0  0  0  0  0  0  0  0  0
    6.3422   -3.7545    1.0169 N   0  0  0  0  0  0  0  0  0  0  0  0
   -1.2214    2.5154    0.8222 C   0  0  1  0  0  0  0  0  0  0  0  0
    0.0679    1.7194    0.8799 C   0  0  1  0  0  0  0  0  0  0  0  0
   -2.1465    1.7865    1.7697 C   0  0  2  0  0  0  0  0  0  0  0  0
    1.1512    2.7717    0.9041 C   0  0  2  0  0  0  0  0  0  0  0  0
   -1.1809    1.2213    2.7961 C   0  0  0  0  0  0  0  0  0  0  0  0
    0.4702    3.9344    1.6025 C   0  0  0  0  0  0  0  0  0  0  0  0
   -4.1368    0.9012    0.5637 C   0  0  0  0  0  0  0  0  0  0  0  0
    2.4380    2.4499   -1.2080 C   0  0  0  0  0  0  0  0  0  0  0  0
   -4.6445   -0.3665   -0.0895 C   0  0  0  0  0  0  0  0  0  0  0  0
    3.9131    0.7309   -1.3972 C   0  0  0  0  0  0  0  0  0  0  0  0
    3.5730    2.2203   -3.1642 C   0  0  0  0  0  0  0  0  0  0  0  0
    4.2346    1.1083   -2.6850 C   0  0  0  0  0  0  0  0  0  0  0  0
    4.5340   -0.4159   -0.7789 C   0  0  0  0  0  0  0  0  0  0  0  0
   -6.7695   -1.2574   -0.6782 C   0  0  0  0  0  0  0  0  0  0  0  0
    3.7500   -1.4866   -0.3491 C   0  0  0  0  0  0  0  0  0  0  0  0
    5.9184   -0.4543   -0.6122 C   0  0  0  0  0  0  0  0  0  0  0  0
    4.3503   -2.5955    0.2470 C   0  0  0  0  0  0  0  0  0  0  0  0
    6.5188   -1.5631   -0.0161 C   0  0  0  0  0  0  0  0  0  0  0  0
   -6.2374   -2.5389   -0.8203 C   0  0  0  0  0  0  0  0  0  0  0  0
   -8.1502   -1.0819   -0.5855 C   0  0  0  0  0  0  0  0  0  0  0  0
    5.7346   -2.6338    0.4135 C   0  0  0  0  0  0  0  0  0  0  0  0
   -7.0859   -3.6449   -0.8697 C   0  0  0  0  0  0  0  0  0  0  0  0
   -8.9987   -2.1879   -0.6348 C   0  0  0  0  0  0  0  0  0  0  0  0
   -8.4665   -3.4694   -0.7770 C   0  0  0  0  0  0  0  0  0  0  0  0
    5.5355   -4.8665    1.4795 C   0  0  0  0  0  0  0  0  0  0  0  0
    7.7798   -3.8030    1.1948 C   0  0  0  0  0  0  0  0  0  0  0  0
   -1.6111    2.6265   -0.1949 H   0  0  0  0  0  0  0  0  0  0  0  0
    0.1517    0.9893    0.0685 H   0  0  0  0  0  0  0  0  0  0  0  0
   -2.8719    2.4525    2.2494 H   0  0  0  0  0  0  0  0  0  0  0  0
    2.0381    2.4798    1.4783 H   0  0  0  0  0  0  0  0  0  0  0  0
   -0.9811    1.9507    3.5888 H   0  0  0  0  0  0  0  0  0  0  0  0
   -1.5233    0.2920    3.2615 H   0  0  0  0  0  0  0  0  0  0  0  0
    0.5866    3.8596    2.6893 H   0  0  0  0  0  0  0  0  0  0  0  0
    0.8328    4.9175    1.2866 H   0  0  0  0  0  0  0  0  0  0  0  0
   -2.3902   -0.1538    0.9534 H   0  0  0  0  0  0  0  0  0  0  0  0
    1.0354    3.9151   -0.8960 H   0  0  0  0  0  0  0  0  0  0  0  0
   -4.6417   -1.1357    0.6944 H   0  0  0  0  0  0  0  0  0  0  0  0
   -3.9514   -0.6467   -0.8910 H   0  0  0  0  0  0  0  0  0  0  0  0
    3.7589    2.5916   -4.1664 H   0  0  0  0  0  0  0  0  0  0  0  0
    4.9527    0.5770   -3.2976 H   0  0  0  0  0  0  0  0  0  0  0  0
    2.6695   -1.4755   -0.4736 H   0  0  0  0  0  0  0  0  0  0  0  0
    6.5468    0.3725   -0.9354 H   0  0  0  0  0  0  0  0  0  0  0  0
    3.6974   -3.4029    0.5634 H   0  0  0  0  0  0  0  0  0  0  0  0
    7.5986   -1.5442    0.0922 H   0  0  0  0  0  0  0  0  0  0  0  0
   -5.1707   -2.7150   -0.9227 H   0  0  0  0  0  0  0  0  0  0  0  0
   -8.5701   -0.0860   -0.4747 H   0  0  0  0  0  0  0  0  0  0  0  0
   -6.6723   -4.6424   -0.9866 H   0  0  0  0  0  0  0  0  0  0  0  0
  -10.0737   -2.0512   -0.5629 H   0  0  0  0  0  0  0  0  0  0  0  0
   -9.1272   -4.3305   -0.8169 H   0  0  0  0  0  0  0  0  0  0  0  0
    4.8280   -4.5475    2.2529 H   0  0  0  0  0  0  0  0  0  0  0  0
    4.9896   -5.3311    0.6508 H   0  0  0  0  0  0  0  0  0  0  0  0
    6.1512   -5.6548    1.9269 H   0  0  0  0  0  0  0  0  0  0  0  0
    8.3001   -3.7538    0.2318 H   0  0  0  0  0  0  0  0  0  0  0  0
    8.1262   -2.9895    1.8420 H   0  0  0  0  0  0  0  0  0  0  0  0
    8.0974   -4.7371    1.6717 H   0  0  0  0  0  0  0  0  0  0  0  0
  1 11  1  0  0  0  0
  1 14  1  0  0  0  0
  2 10  1  0  0  0  0
  2 15  1  0  0  0  0
  3 16  2  0  0  0  0
  4 18  1  0  0  0  0
  4 23  1  0  0  0  0
  5 12  1  0  0  0  0
  5 16  1  0  0  0  0
  5 44  1  0  0  0  0
  6 13  1  0  0  0  0
  6 17  1  0  0  0  0
  6 45  1  0  0  0  0
  7 17  1  0  0  0  0
  7 19  2  0  0  0  0
  8 17  2  0  0  0  0
  8 20  1  0  0  0  0
  9 30  1  0  0  0  0
  9 34  1  0  0  0  0
  9 35  1  0  0  0  0
 10 11  1  0  0  0  0
 10 12  1  0  0  0  0
 10 36  1  0  0  0  0
 11 13  1  0  0  0  0
 11 37  1  0  0  0  0
 12 14  1  0  0  0  0
 12 38  1  0  0  0  0
 13 15  1  0  0  0  0
 13 39  1  0  0  0  0
 14 40  1  0  0  0  0
 14 41  1  0  0  0  0
 15 42  1  0  0  0  0
 15 43  1  0  0  0  0
 16 18  1  0  0  0  0
 18 46  1  0  0  0  0
 18 47  1  0  0  0  0
 19 21  1  0  0  0  0
 19 22  1  0  0  0  0
 20 21  2  0  0  0  0
 20 48  1  0  0  0  0
 21 49  1  0  0  0  0
 22 24  2  0  0  0  0
 22 25  1  0  0  0  0
 23 28  2  0  0  0  0
 23 29  1  0  0  0  0
 24 26  1  0  0  0  0
 24 50  1  0  0  0  0
 25 27  2  0  0  0  0
 25 51  1  0  0  0  0
 26 30  2  0  0  0  0
 26 52  1  0  0  0  0
 27 30  1  0  0  0  0
 27 53  1  0  0  0  0
 28 31  1  0  0  0  0
 28 54  1  0  0  0  0
 29 32  2  0  0  0  0
 29 55  1  0  0  0  0
 31 33  2  0  0  0  0
 31 56  1  0  0  0  0
 32 33  1  0  0  0  0
 32 57  1  0  0  0  0
 33 58  1  0  0  0  0
 34 59  1  0  0  0  0
 34 60  1  0  0  0  0
 34 61  1  0  0  0  0
 35 62  1  0  0  0  0
 35 63  1  0  0  0  0
 35 64  1  0  0  0  0
M  END
> <PUBCHEM_COMPOUND_CID>
11911834

> <PUBCHEM_CONFORMER_RMSD>
1

> <PUBCHEM_CONFORMER_DIVERSEORDER>
1
157
124
87
188
185
92
63
196
141
204
53
172
131
43
64
177
95
34
70
27
119
22
132
151
202
90
130
125
73
102
39
40
186
105
80
148
45
170
66
81
142
163
42
103
135
168
62
195
169
113
101
28
30
128
146
65
31
166
182
104
159
117
138
91
78
154
183
123
59
184
96
24
116
44
83
58
171
150
69
129
178
143
72
114
181
149
36
60
122
109
156
173
35
94
33
14
17
180
155
175
206
174
85
88
191
77
50
198
32
75
74
98
193
160
21
110
197
47
120
76
79
162
137
54
15
200
13
51
167
56
153
93
199
12
140
97
145
11
26
158
71
115
176
57
111
55
84
49
23
89
38
86
179
37
112
29
48
106
189
190
18
121
164
161
147
2
118
5
133
67
203
41
82
99
108
52
3
194
46
16
134
9
126
10
139
205
4
100
6
19
165
127
152
187
25
61
20
144
192
107
136
201
68
7
8

> <PUBCHEM_MMFF94_PARTIAL_CHARGES>
47
1 -0.56
10 0.28
11 0.28
12 0.3
13 0.37
14 0.28
15 0.28
16 0.57
17 0.72
18 0.34
19 0.31
2 -0.56
20 0.16
21 -0.15
23 0.08
24 -0.15
25 -0.15
26 -0.15
27 -0.15
28 -0.15
29 -0.15
3 -0.57
30 0.1
31 -0.15
32 -0.15
33 -0.15
34 0.37
35 0.37
4 -0.36
44 0.37
45 0.4
48 0.15
49 0.15
5 -0.73
50 0.15
51 0.15
52 0.15
53 0.15
54 0.15
55 0.15
56 0.15
57 0.15
58 0.15
6 -0.87
7 -0.62
8 -0.62
9 -0.84

> <PUBCHEM_EFFECTIVE_ROTOR_COUNT>
10.2

> <PUBCHEM_PHARMACOPHORE_FEATURES>
14
1 1 acceptor
1 2 acceptor
1 3 acceptor
1 4 acceptor
1 5 donor
1 6 donor
1 7 acceptor
1 9 cation
4 6 7 8 17 cation
5 1 10 11 12 14 rings
5 2 10 11 13 15 rings
6 22 24 25 26 27 30 rings
6 23 28 29 31 32 33 rings
6 7 8 17 19 20 21 rings

> <PUBCHEM_HEAVY_ATOM_COUNT>
35

> <PUBCHEM_ATOM_DEF_STEREO_COUNT>
4

> <PUBCHEM_ATOM_UDEF_STEREO_COUNT>
0

> <PUBCHEM_BOND_DEF_STEREO_COUNT>
0

> <PUBCHEM_BOND_UDEF_STEREO_COUNT>
0

> <PUBCHEM_ISOTOPIC_ATOM_COUNT>
0

> <PUBCHEM_COMPONENT_COUNT>
1

> <PUBCHEM_CACTVS_TAUTO_COUNT>
6

> <PUBCHEM_CONFORMER_ID>
00B5C29A00000001

> <PUBCHEM_MMFF94_ENERGY>
123.5831

> <PUBCHEM_FEATURE_SELFOVERLAP>
71.762

> <PUBCHEM_SHAPE_FINGERPRINT>
10100884 174 18337104575915717170
10622 236 18262806151140116480
10693767 8 18335699464125104057
11135926 11 17172129164493825396
11227150 75 18335133155713349202
11399510 152 14907636522997421590
11476731 50 18337111160775210814
11478447 62 17968929787687679338
11607047 403 18127960001206967280
11828042 38 17822301197192216251
12047536 79 12319194879819893499
12758862 65 17131834312796209346
13782708 43 18270115846840325413
14068700 675 18338234852224110296
14340393 91 17822844287257953973
14344974 204 18053662478629784942
14664723 55 11025793150439116750
15320295 40 18114453458442149946
15510800 12 17274836756840226581
16990366 60 18343296002999538027
16993427 108 18342731893003942179
17134984 74 18268717292780614917
17324776 126 18191301577013367282
19304671 126 15647338592812078701
19315092 285 18408608054113714812
19841028 212 18412824694101842435
20609170 45 18191289491982081903
20691028 202 8430302524739897710
20721686 124 17976817919859280440
20775438 99 18115307907530227106
208703 8 18202287987196089934
21585481 104 17821442474858436341
21585483 132 18261665983089043442
21792938 131 18271520992726036043
21895439 516 17822013168474803283
23569943 247 18411983564509113291
25025965 108 17463402821154002090
406291 66 18413107238472999887
4112364 45 9799421027113631099
42767 23 18408886221997216959
437795 139 18202285788431634753
439807 62 18340771529087488607
4408954 87 17275088532308678478
4440575 13 18411697703943499094
4756088 132 17409354518661774207
4760202 70 18334868204388124958
50009960 94 18060123345748925877
5047190 6 18187359879377284898
57035037 87 12758016645645976102
57527295 17 18269294467640217360
57634706 229 12749794458685306638
59682541 52 18040720311382696917
6677587 24 17027122464811942796
6695519 79 14045453389150390948
96874 4 18410854330599696954

> <PUBCHEM_SHAPE_MULTIPOLES>
671.9
25.15
6.32
2.33
40.96
3.07
-0.61
40.71
-6.77
-5.22
1.99
-2.5
-1.97
-7.96

> <PUBCHEM_SHAPE_SELFOVERLAP>
1458.496

> <PUBCHEM_SHAPE_VOLUME>
365.9

> <PUBCHEM_COORDINATE_TYPE>
2
5
10

$$$$
