45783835
  -OEChem-12032416343D

 43 46  0     1  0  0  0  0  0999 V2000
   -2.7073    2.0515    0.1910 O   0  0  0  0  0  0  0  0  0  0  0  0
   -4.0086   -1.0425   -0.8493 N   0  0  1  0  0  0  0  0  0  0  0  0
    3.5963   -0.7802   -0.0447 N   0  0  0  0  0  0  0  0  0  0  0  0
   -1.3411    0.2770    0.1587 N   0  0  0  0  0  0  0  0  0  0  0  0
   -1.4053    2.5637    0.1240 N   0  0  0  0  0  0  0  0  0  0  0  0
    3.5669    1.5683   -0.0835 N   0  0  0  0  0  0  0  0  0  0  0  0
   -3.8640   -0.0997    0.2779 C   0  0  1  0  0  0  0  0  0  0  0  0
   -3.9482   -0.9807    1.5379 C   0  0  0  0  0  0  0  0  0  0  0  0
   -4.2015   -2.3900    1.0217 C   0  0  0  0  0  0  0  0  0  0  0  0
   -4.8038   -2.1645   -0.3503 C   0  0  0  0  0  0  0  0  0  0  0  0
    5.3516   -2.3248    0.2071 C   0  0  0  0  0  0  0  0  0  0  0  0
    4.1333   -3.0510   -0.3362 C   0  0  0  0  0  0  0  0  0  0  0  0
    5.0534   -0.8613   -0.1105 C   0  0  0  0  0  0  0  0  0  0  0  0
    2.9843   -2.1056    0.0063 C   0  0  0  0  0  0  0  0  0  0  0  0
   -2.5793    0.6989    0.2078 C   0  0  0  0  0  0  0  0  0  0  0  0
   -4.6007   -0.4348   -2.0341 C   0  0  0  0  0  0  0  0  0  0  0  0
    2.8864    0.4013   -0.0334 C   0  0  0  0  0  0  0  0  0  0  0  0
   -0.6570    1.4566    0.1083 C   0  0  0  0  0  0  0  0  0  0  0  0
    1.5052    0.3108    0.0308 C   0  0  0  0  0  0  0  0  0  0  0  0
    0.7755    1.4944    0.0444 C   0  0  0  0  0  0  0  0  0  0  0  0
    1.4399    2.7149   -0.0057 C   0  0  0  0  0  0  0  0  0  0  0  0
    2.8240    2.6977   -0.0682 C   0  0  0  0  0  0  0  0  0  0  0  0
   -4.7128    0.5984    0.3048 H   0  0  0  0  0  0  0  0  0  0  0  0
   -4.7964   -0.6595    2.1550 H   0  0  0  0  0  0  0  0  0  0  0  0
   -3.0497   -0.9509    2.1636 H   0  0  0  0  0  0  0  0  0  0  0  0
   -3.2515   -2.9326    0.9383 H   0  0  0  0  0  0  0  0  0  0  0  0
   -4.8620   -2.9600    1.6817 H   0  0  0  0  0  0  0  0  0  0  0  0
   -4.7072   -3.0516   -0.9838 H   0  0  0  0  0  0  0  0  0  0  0  0
   -5.8662   -1.9048   -0.2600 H   0  0  0  0  0  0  0  0  0  0  0  0
    6.2883   -2.6678   -0.2409 H   0  0  0  0  0  0  0  0  0  0  0  0
    5.4174   -2.4675    1.2926 H   0  0  0  0  0  0  0  0  0  0  0  0
    4.0007   -4.0457    0.0982 H   0  0  0  0  0  0  0  0  0  0  0  0
    4.2196   -3.1603   -1.4242 H   0  0  0  0  0  0  0  0  0  0  0  0
    5.3961   -0.6038   -1.1190 H   0  0  0  0  0  0  0  0  0  0  0  0
    5.5423   -0.2020    0.6145 H   0  0  0  0  0  0  0  0  0  0  0  0
    2.1833   -2.2420   -0.7282 H   0  0  0  0  0  0  0  0  0  0  0  0
    2.6027   -2.3106    1.0131 H   0  0  0  0  0  0  0  0  0  0  0  0
   -4.6723   -1.1698   -2.8433 H   0  0  0  0  0  0  0  0  0  0  0  0
   -5.6041   -0.0384   -1.8416 H   0  0  0  0  0  0  0  0  0  0  0  0
   -3.9733    0.3833   -2.4040 H   0  0  0  0  0  0  0  0  0  0  0  0
    0.9839   -0.6381    0.0826 H   0  0  0  0  0  0  0  0  0  0  0  0
    0.9242    3.6695    0.0018 H   0  0  0  0  0  0  0  0  0  0  0  0
    3.3900    3.6225   -0.1091 H   0  0  0  0  0  0  0  0  0  0  0  0
  1  5  1  0  0  0  0
  1 15  1  0  0  0  0
  2  7  1  0  0  0  0
  2 10  1  0  0  0  0
  2 16  1  0  0  0  0
  3 13  1  0  0  0  0
  3 14  1  0  0  0  0
  3 17  1  0  0  0  0
  4 15  2  0  0  0  0
  4 18  1  0  0  0  0
  5 18  2  0  0  0  0
  6 17  2  0  0  0  0
  6 22  1  0  0  0  0
  7  8  1  0  0  0  0
  7 15  1  0  0  0  0
  7 23  1  0  0  0  0
  8  9  1  0  0  0  0
  8 24  1  0  0  0  0
  8 25  1  0  0  0  0
  9 10  1  0  0  0  0
  9 26  1  0  0  0  0
  9 27  1  0  0  0  0
 10 28  1  0  0  0  0
 10 29  1  0  0  0  0
 11 12  1  0  0  0  0
 11 13  1  0  0  0  0
 11 30  1  0  0  0  0
 11 31  1  0  0  0  0
 12 14  1  0  0  0  0
 12 32  1  0  0  0  0
 12 33  1  0  0  0  0
 13 34  1  0  0  0  0
 13 35  1  0  0  0  0
 14 36  1  0  0  0  0
 14 37  1  0  0  0  0
 16 38  1  0  0  0  0
 16 39  1  0  0  0  0
 16 40  1  0  0  0  0
 17 19  1  0  0  0  0
 18 20  1  0  0  0  0
 19 20  2  0  0  0  0
 19 41  1  0  0  0  0
 20 21  1  0  0  0  0
 21 22  2  0  0  0  0
 21 42  1  0  0  0  0
 22 43  1  0  0  0  0
M  END
> <PUBCHEM_COMPOUND_CID>
45783835

> <PUBCHEM_CONFORMER_RMSD>
0.8

> <PUBCHEM_CONFORMER_DIVERSEORDER>
1
8
7
9
5
4
2
6
10
3

> <PUBCHEM_MMFF94_PARTIAL_CHARGES>
21
1 -0.02
10 0.27
13 0.37
14 0.37
15 0.3
16 0.27
17 0.41
18 0.46
19 -0.15
2 -0.81
20 0.05
21 -0.15
22 0.16
3 -0.84
4 -0.57
41 0.15
42 0.15
43 0.15
5 -0.41
6 -0.62
7 0.45

> <PUBCHEM_EFFECTIVE_ROTOR_COUNT>
5

> <PUBCHEM_PHARMACOPHORE_FEATURES>
7
1 2 cation
3 3 6 17 cation
3 4 5 18 cation
5 1 4 5 15 18 rings
5 2 7 8 9 10 rings
5 3 11 12 13 14 rings
6 6 17 19 20 21 22 rings

> <PUBCHEM_HEAVY_ATOM_COUNT>
22

> <PUBCHEM_ATOM_DEF_STEREO_COUNT>
1

> <PUBCHEM_ATOM_UDEF_STEREO_COUNT>
0

> <PUBCHEM_BOND_DEF_STEREO_COUNT>
0

> <PUBCHEM_BOND_UDEF_STEREO_COUNT>
0

> <PUBCHEM_ISOTOPIC_ATOM_COUNT>
0

> <PUBCHEM_COMPONENT_COUNT>
1

> <PUBCHEM_CACTVS_TAUTO_COUNT>
1

> <PUBCHEM_CONFORMER_ID>
02BA9B1B00000001

> <PUBCHEM_MMFF94_ENERGY>
50.9111

> <PUBCHEM_FEATURE_SELFOVERLAP>
35.524

> <PUBCHEM_SHAPE_FINGERPRINT>
10622 236 17557964398480905535
108634 29 17533505787647388938
11070050 100 17343770763209041792
11405975 8 18342463608125388465
11796584 16 17895462704855278401
12107183 9 18198358260162421569
12596602 18 16702297975355822674
13255334 9 18410862023186661562
13533116 47 18270963574231127219
13544653 18 18410858797666254749
13740256 8 18337958892169906810
13955234 65 18126566962249124984
14251757 17 18041275573418595931
14767858 380 18262537952635260246
14848178 5 18411410713542737642
14866123 147 18195249915057584073
15188451 53 16200135626372404255
15352361 1 18410294679407869442
15537594 2 18128825333351645327
17492 89 18410575106270122083
17857418 61 18413386518847516190
19141452 34 18195532480286405816
193927 3 18341620295549217566
20028762 73 18202560700535404174
20281475 54 18341055198196726233
20286276 3 18409455764673287088
20403669 9 18341337712407907447
20567600 70 18334290968656416058
20645477 70 18262231239338889321
21033650 10 16298375830393821717
221490 88 18408609166800283712
22393880 68 17822279193899696715
22620623 9 17023738996781219004
23379529 103 17838627652258503934
235170 7 17386278904365649063
23559900 14 18335976540807831777
23622692 118 18343292648229127085
2838139 119 8070021143425683626
3004659 81 18187077369086173251
312423 11 18339374023174046644
312425 83 16877946052766509431
314194 84 18342458162148593478
3421961 26 18411702110321027152
34797466 226 16588588750711833279
4259306 186 18409727374204324031
44062 13 18264490589789626437
46194498 28 17315069102965757501
5104073 3 18272937115381649560
5365585 94 18187939390735155555
5486654 36 18336840675421681985
559249 180 18267863887690928141
59682541 52 18125413515244264471
6431902 208 18410573972504582186
6433294 58 18338803432658584626
76465 3 18413386531616282628
7970288 3 18268429212709172743
88748 71 18336273357375834874
9709674 26 18334018327751797145

> <PUBCHEM_SHAPE_MULTIPOLES>
421.98
12.33
3.63
1.01
0.47
0.02
0.22
-10.54
0.96
-2.64
-0.16
1.72
-0.36
0.29

> <PUBCHEM_SHAPE_SELFOVERLAP>
909.933

> <PUBCHEM_SHAPE_VOLUME>
236

> <PUBCHEM_COORDINATE_TYPE>
2
5
10

$$$$
