75536413
  -OEChem-12032416303D

 59 62  0     1  0  0  0  0  0999 V2000
    3.0720   -0.3273    0.5674 O   0  0  0  0  0  0  0  0  0  0  0  0
    5.9140    0.4408    0.4213 O   0  0  0  0  0  0  0  0  0  0  0  0
   -0.9726   -1.8533    1.5965 O   0  0  0  0  0  0  0  0  0  0  0  0
   -5.1693   -0.3220   -1.7784 O   0  0  0  0  0  0  0  0  0  0  0  0
    1.6678    3.7273   -0.3030 O   0  0  0  0  0  0  0  0  0  0  0  0
    1.3383    1.4753   -0.7547 N   0  0  0  0  0  0  0  0  0  0  0  0
   -3.3220   -1.7580   -0.1576 N   0  0  0  0  0  0  0  0  0  0  0  0
    0.3953   -1.7214    1.8027 N   0  0  0  0  0  0  0  0  0  0  0  0
    3.0538   -1.5749   -0.1304 C   0  0  1  0  0  0  0  0  0  0  0  0
    3.6026    0.7787   -0.1746 C   0  0  1  0  0  0  0  0  0  0  0  0
    5.0157    0.4784   -0.6908 C   0  0  2  0  0  0  0  0  0  0  0  0
    4.4647   -1.9719   -0.5618 C   0  0  0  0  0  0  0  0  0  0  0  0
    5.1003   -0.8688   -1.4032 C   0  0  0  0  0  0  0  0  0  0  0  0
    2.4603   -2.6171    0.8096 C   0  0  0  0  0  0  0  0  0  0  0  0
    2.6426    1.2101   -1.2814 C   0  0  0  0  0  0  0  0  0  0  0  0
    0.9609   -2.5107    0.8850 C   0  0  0  0  0  0  0  0  0  0  0  0
    0.0091   -3.1595    0.0795 C   0  0  0  0  0  0  0  0  0  0  0  0
   -2.5910   -2.9681    0.2127 C   0  0  0  0  0  0  0  0  0  0  0  0
   -1.1900   -2.7122    0.5678 C   0  0  0  0  0  0  0  0  0  0  0  0
   -2.9824   -1.3412   -1.5252 C   0  0  0  0  0  0  0  0  0  0  0  0
   -4.7717   -1.9679   -0.0406 C   0  0  0  0  0  0  0  0  0  0  0  0
   -3.7658   -0.0843   -1.8927 C   0  0  0  0  0  0  0  0  0  0  0  0
   -5.5135   -0.6968   -0.4440 C   0  0  0  0  0  0  0  0  0  0  0  0
    0.9472    2.7328   -0.2998 C   0  0  0  0  0  0  0  0  0  0  0  0
   -0.4321    2.8376    0.2419 C   0  0  0  0  0  0  0  0  0  0  0  0
   -1.1106    4.0554    0.1924 C   0  0  0  0  0  0  0  0  0  0  0  0
   -1.0492    1.7176    0.7988 C   0  0  0  0  0  0  0  0  0  0  0  0
   -2.4063    4.1532    0.6998 C   0  0  0  0  0  0  0  0  0  0  0  0
   -2.3448    1.8153    1.3062 C   0  0  0  0  0  0  0  0  0  0  0  0
   -3.0233    3.0329    1.2567 C   0  0  0  0  0  0  0  0  0  0  0  0
    2.4173   -1.4866   -1.0189 H   0  0  0  0  0  0  0  0  0  0  0  0
    3.6733    1.5962    0.5544 H   0  0  0  0  0  0  0  0  0  0  0  0
    5.3589    1.2824   -1.3512 H   0  0  0  0  0  0  0  0  0  0  0  0
    4.4450   -2.9078   -1.1315 H   0  0  0  0  0  0  0  0  0  0  0  0
    5.0885   -2.1429    0.3248 H   0  0  0  0  0  0  0  0  0  0  0  0
    6.1448   -1.1329   -1.6057 H   0  0  0  0  0  0  0  0  0  0  0  0
    4.5863   -0.8094   -2.3697 H   0  0  0  0  0  0  0  0  0  0  0  0
    2.8816   -2.5149    1.8180 H   0  0  0  0  0  0  0  0  0  0  0  0
    2.7046   -3.6278    0.4582 H   0  0  0  0  0  0  0  0  0  0  0  0
    2.5201    0.4382   -2.0465 H   0  0  0  0  0  0  0  0  0  0  0  0
    3.0222    2.1092   -1.7796 H   0  0  0  0  0  0  0  0  0  0  0  0
    6.8097    0.2972    0.0708 H   0  0  0  0  0  0  0  0  0  0  0  0
    0.6788    0.7045   -0.7625 H   0  0  0  0  0  0  0  0  0  0  0  0
    0.1693   -3.8488   -0.7363 H   0  0  0  0  0  0  0  0  0  0  0  0
   -2.6596   -3.7319   -0.5731 H   0  0  0  0  0  0  0  0  0  0  0  0
   -3.0535   -3.4168    1.1029 H   0  0  0  0  0  0  0  0  0  0  0  0
   -3.2240   -2.1392   -2.2395 H   0  0  0  0  0  0  0  0  0  0  0  0
   -1.9128   -1.1196   -1.6126 H   0  0  0  0  0  0  0  0  0  0  0  0
   -5.0402   -2.2182    0.9922 H   0  0  0  0  0  0  0  0  0  0  0  0
   -5.0884   -2.7973   -0.6863 H   0  0  0  0  0  0  0  0  0  0  0  0
   -3.5599    0.1906   -2.9322 H   0  0  0  0  0  0  0  0  0  0  0  0
   -3.4873    0.7695   -1.2657 H   0  0  0  0  0  0  0  0  0  0  0  0
   -5.2932    0.1339    0.2377 H   0  0  0  0  0  0  0  0  0  0  0  0
   -6.5939   -0.8706   -0.4155 H   0  0  0  0  0  0  0  0  0  0  0  0
   -0.6482    4.9379   -0.2419 H   0  0  0  0  0  0  0  0  0  0  0  0
   -0.5443    0.7624    0.8789 H   0  0  0  0  0  0  0  0  0  0  0  0
   -2.9353    5.1009    0.6604 H   0  0  0  0  0  0  0  0  0  0  0  0
   -2.8237    0.9445    1.7445 H   0  0  0  0  0  0  0  0  0  0  0  0
   -4.0321    3.1085    1.6520 H   0  0  0  0  0  0  0  0  0  0  0  0
  1  9  1  0  0  0  0
  1 10  1  0  0  0  0
  2 11  1  0  0  0  0
  2 42  1  0  0  0  0
  3  8  1  0  0  0  0
  3 19  1  0  0  0  0
  4 22  1  0  0  0  0
  4 23  1  0  0  0  0
  5 24  2  0  0  0  0
  6 15  1  0  0  0  0
  6 24  1  0  0  0  0
  6 43  1  0  0  0  0
  7 18  1  0  0  0  0
  7 20  1  0  0  0  0
  7 21  1  0  0  0  0
  8 16  2  0  0  0  0
  9 12  1  0  0  0  0
  9 14  1  0  0  0  0
  9 31  1  0  0  0  0
 10 11  1  0  0  0  0
 10 15  1  0  0  0  0
 10 32  1  0  0  0  0
 11 13  1  0  0  0  0
 11 33  1  0  0  0  0
 12 13  1  0  0  0  0
 12 34  1  0  0  0  0
 12 35  1  0  0  0  0
 13 36  1  0  0  0  0
 13 37  1  0  0  0  0
 14 16  1  0  0  0  0
 14 38  1  0  0  0  0
 14 39  1  0  0  0  0
 15 40  1  0  0  0  0
 15 41  1  0  0  0  0
 16 17  1  0  0  0  0
 17 19  2  0  0  0  0
 17 44  1  0  0  0  0
 18 19  1  0  0  0  0
 18 45  1  0  0  0  0
 18 46  1  0  0  0  0
 20 22  1  0  0  0  0
 20 47  1  0  0  0  0
 20 48  1  0  0  0  0
 21 23  1  0  0  0  0
 21 49  1  0  0  0  0
 21 50  1  0  0  0  0
 22 51  1  0  0  0  0
 22 52  1  0  0  0  0
 23 53  1  0  0  0  0
 23 54  1  0  0  0  0
 24 25  1  0  0  0  0
 25 26  2  0  0  0  0
 25 27  1  0  0  0  0
 26 28  1  0  0  0  0
 26 55  1  0  0  0  0
 27 29  2  0  0  0  0
 27 56  1  0  0  0  0
 28 30  2  0  0  0  0
 28 57  1  0  0  0  0
 29 30  1  0  0  0  0
 29 58  1  0  0  0  0
 30 59  1  0  0  0  0
M  END
> <PUBCHEM_COMPOUND_CID>
75536413

> <PUBCHEM_CONFORMER_RMSD>
1.2

> <PUBCHEM_CONFORMER_DIVERSEORDER>
2
28
16
49
147
62
47
106
136
133
144
29
7
108
58
59
117
27
145
143
89
11
26
42
50
122
92
132
68
45
19
107
82
121
20
90
39
60
138
79
84
142
65
104
61
115
102
101
12
87
51
66
41
10
69
54
80
74
23
52
139
113
34
129
140
35
96
53
95
125
32
46
1
15
67
114
120
146
97
81
22
43
99
130
14
135
128
134
30
126
124
36
8
63
91
123
110
119
137
98
94
109
100
131
77
38
127
56
3
118
37
103
57
17
72
31
112
24
88
48
4
44
141
71
25
9
73
70
13
55
105
40
76
93
21
83
116
111
6
78
18
86
75
85
5
64
33

> <PUBCHEM_MMFF94_PARTIAL_CHARGES>
36
1 -0.56
10 0.28
11 0.28
14 0.18
15 0.3
16 0.11
17 -0.15
18 0.45
19 -0.04
2 -0.68
20 0.27
21 0.27
22 0.28
23 0.28
24 0.54
25 0.09
26 -0.15
27 -0.15
28 -0.15
29 -0.15
3 -0.02
30 -0.15
4 -0.56
42 0.4
43 0.37
44 0.15
5 -0.57
55 0.15
56 0.15
57 0.15
58 0.15
59 0.15
6 -0.73
7 -0.81
8 -0.41
9 0.28

> <PUBCHEM_EFFECTIVE_ROTOR_COUNT>
10.4

> <PUBCHEM_PHARMACOPHORE_FEATURES>
12
1 1 acceptor
1 2 acceptor
1 2 donor
1 4 acceptor
1 5 acceptor
1 6 donor
1 7 cation
1 8 acceptor
5 3 8 16 17 19 rings
6 1 9 10 11 12 13 rings
6 25 26 27 28 29 30 rings
6 4 7 20 21 22 23 rings

> <PUBCHEM_HEAVY_ATOM_COUNT>
30

> <PUBCHEM_ATOM_DEF_STEREO_COUNT>
3

> <PUBCHEM_ATOM_UDEF_STEREO_COUNT>
0

> <PUBCHEM_BOND_DEF_STEREO_COUNT>
0

> <PUBCHEM_BOND_UDEF_STEREO_COUNT>
0

> <PUBCHEM_ISOTOPIC_ATOM_COUNT>
0

> <PUBCHEM_COMPONENT_COUNT>
1

> <PUBCHEM_CACTVS_TAUTO_COUNT>
2

> <PUBCHEM_CONFORMER_ID>
0480981D00000002

> <PUBCHEM_MMFF94_ENERGY>
53.8877

> <PUBCHEM_FEATURE_SELFOVERLAP>
60.9

> <PUBCHEM_SHAPE_FINGERPRINT>
10190206 1 18190203298857525620
10670039 82 18338804416554086094
10675989 125 18264767843177956057
10871710 139 18268432343781600787
11513181 2 18055360140886773183
11646440 116 18337957907973900683
12035759 4 18336260159247165915
12788726 201 18341326717069596170
13402501 40 18115019817961229374
1361 2 16607144804606310749
140371 6 18337961198430168886
14251757 17 18190172563174995971
14279260 333 18337104546082534806
14394314 77 18341619187896730577
14464042 87 18412545401210974683
14466204 15 17042884063007328680
14681490 219 18411695508924514919
14840074 17 18197787600990584505
14931854 50 18335693936454910239
15001296 14 18335419058526989825
15210252 30 18114179800062863516
15297060 5 17772185311052200267
15351339 4 18262786403086237393
15968369 153 18270138871416285465
161222 10 18122084025677416516
17852330 31 17539719180820911819
19930381 70 17402900419238101555
20764821 26 18049448337441320705
20775438 99 16833430340743183391
21133410 62 17895479103768577049
23536364 44 18409441475775484181
3014063 31 18410292544608442330
3027735 51 18271535208170583975
338550 245 18263377922809131845
3524813 1 17968928833344596215
38695281 34 17619357510991362577
463206 1 18338239245802113345
469060 322 17095819745351673423
5171179 24 18129951186831849856
6287921 2 16830097196775155641
653340 110 18412543198235702080

> <PUBCHEM_SHAPE_MULTIPOLES>
573.1
10.62
5.56
1.47
4.07
3.9
-0.22
-3.26
-4.03
-3.31
1.48
-0.84
-0.28
-1.59

> <PUBCHEM_SHAPE_SELFOVERLAP>
1208.512

> <PUBCHEM_SHAPE_VOLUME>
320.7

> <PUBCHEM_COORDINATE_TYPE>
2
5
10

$$$$
