25390190
  -OEChem-12032416173D

 55 57  0     1  0  0  0  0  0999 V2000
    5.1209    1.2467    0.3618 F   0  0  0  0  0  0  0  0  0  0  0  0
   -2.5335   -0.4203    0.4990 O   0  0  0  0  0  0  0  0  0  0  0  0
   -5.9889   -0.0154   -0.3929 O   0  0  0  0  0  0  0  0  0  0  0  0
   -5.0942   -1.4679    1.7654 O   0  0  0  0  0  0  0  0  0  0  0  0
   -2.9881    3.6144   -0.0210 O   0  0  0  0  0  0  0  0  0  0  0  0
   -0.4002   -0.8140   -1.5190 O   0  0  0  0  0  0  0  0  0  0  0  0
   -0.8727   -2.6432   -0.1720 N   0  0  0  0  0  0  0  0  0  0  0  0
   -1.0747    2.3131   -0.2356 N   0  0  0  0  0  0  0  0  0  0  0  0
   -4.6913   -0.5690   -0.4393 C   0  0  2  0  0  0  0  0  0  0  0  0
   -4.5076   -1.7472    0.4948 C   0  0  1  0  0  0  0  0  0  0  0  0
   -3.6400    0.3974    0.0793 C   0  0  2  0  0  0  0  0  0  0  0  0
   -2.9934   -1.7806    0.6696 C   0  0  1  0  0  0  0  0  0  0  0  0
   -3.1715    1.3951   -0.9648 C   0  0  0  0  0  0  0  0  0  0  0  0
   -2.2920   -2.6432   -0.3706 C   0  0  0  0  0  0  0  0  0  0  0  0
   -2.4321    2.5721   -0.3560 C   0  0  0  0  0  0  0  0  0  0  0  0
   -0.0266   -1.7139   -0.7714 C   0  0  0  0  0  0  0  0  0  0  0  0
   -0.1352    3.2648    0.3117 C   0  0  0  0  0  0  0  0  0  0  0  0
    1.4234   -1.8650   -0.4856 C   0  0  0  0  0  0  0  0  0  0  0  0
    1.2663    2.7268    0.3250 C   0  0  0  0  0  0  0  0  0  0  0  0
    2.3674   -1.4101   -1.4063 C   0  0  0  0  0  0  0  0  0  0  0  0
    1.8408   -2.4625    0.7037 C   0  0  0  0  0  0  0  0  0  0  0  0
    1.7327    2.0235    1.4357 C   0  0  0  0  0  0  0  0  0  0  0  0
    2.1022    2.9299   -0.7732 C   0  0  0  0  0  0  0  0  0  0  0  0
    3.7286   -1.5529   -1.1380 C   0  0  0  0  0  0  0  0  0  0  0  0
    3.2021   -2.6055    0.9721 C   0  0  0  0  0  0  0  0  0  0  0  0
    4.1460   -2.1506    0.0513 C   0  0  0  0  0  0  0  0  0  0  0  0
    3.0349    1.5237    1.4485 C   0  0  0  0  0  0  0  0  0  0  0  0
    3.4043    2.4301   -0.7605 C   0  0  0  0  0  0  0  0  0  0  0  0
    3.8707    1.7270    0.3503 C   0  0  0  0  0  0  0  0  0  0  0  0
    5.6017   -2.3031    0.3379 C   0  0  0  0  0  0  0  0  0  0  0  0
   -4.4686   -0.8655   -1.4714 H   0  0  0  0  0  0  0  0  0  0  0  0
   -4.9474   -2.6748    0.1177 H   0  0  0  0  0  0  0  0  0  0  0  0
   -4.0100    0.9346    0.9625 H   0  0  0  0  0  0  0  0  0  0  0  0
   -2.7032   -2.0959    1.6788 H   0  0  0  0  0  0  0  0  0  0  0  0
   -4.0316    1.8152   -1.5009 H   0  0  0  0  0  0  0  0  0  0  0  0
   -2.5332    0.9123   -1.7138 H   0  0  0  0  0  0  0  0  0  0  0  0
   -2.4968   -2.2837   -1.3851 H   0  0  0  0  0  0  0  0  0  0  0  0
   -2.6324   -3.6814   -0.2991 H   0  0  0  0  0  0  0  0  0  0  0  0
   -6.6153   -0.7216   -0.6257 H   0  0  0  0  0  0  0  0  0  0  0  0
   -4.9197   -2.2326    2.3403 H   0  0  0  0  0  0  0  0  0  0  0  0
   -0.4930   -3.3962    0.3915 H   0  0  0  0  0  0  0  0  0  0  0  0
   -0.7215    1.4074   -0.5329 H   0  0  0  0  0  0  0  0  0  0  0  0
   -0.4633    3.5268    1.3249 H   0  0  0  0  0  0  0  0  0  0  0  0
   -0.1954    4.1861   -0.2801 H   0  0  0  0  0  0  0  0  0  0  0  0
    2.0621   -0.9438   -2.3393 H   0  0  0  0  0  0  0  0  0  0  0  0
    1.1402   -2.8003    1.4612 H   0  0  0  0  0  0  0  0  0  0  0  0
    1.0900    1.8557    2.2958 H   0  0  0  0  0  0  0  0  0  0  0  0
    1.7495    3.4740   -1.6453 H   0  0  0  0  0  0  0  0  0  0  0  0
    4.4540   -1.1921   -1.8624 H   0  0  0  0  0  0  0  0  0  0  0  0
    3.5162   -3.0643    1.9059 H   0  0  0  0  0  0  0  0  0  0  0  0
    3.3978    0.9740    2.3118 H   0  0  0  0  0  0  0  0  0  0  0  0
    4.0550    2.5866   -1.6157 H   0  0  0  0  0  0  0  0  0  0  0  0
    5.9548   -1.4631    0.9442 H   0  0  0  0  0  0  0  0  0  0  0  0
    5.7991   -3.2356    0.8775 H   0  0  0  0  0  0  0  0  0  0  0  0
    6.1885   -2.3370   -0.5864 H   0  0  0  0  0  0  0  0  0  0  0  0
  1 29  1  0  0  0  0
  2 11  1  0  0  0  0
  2 12  1  0  0  0  0
  3  9  1  0  0  0  0
  3 39  1  0  0  0  0
  4 10  1  0  0  0  0
  4 40  1  0  0  0  0
  5 15  2  0  0  0  0
  6 16  2  0  0  0  0
  7 14  1  0  0  0  0
  7 16  1  0  0  0  0
  7 41  1  0  0  0  0
  8 15  1  0  0  0  0
  8 17  1  0  0  0  0
  8 42  1  0  0  0  0
  9 10  1  0  0  0  0
  9 11  1  0  0  0  0
  9 31  1  0  0  0  0
 10 12  1  0  0  0  0
 10 32  1  0  0  0  0
 11 13  1  0  0  0  0
 11 33  1  0  0  0  0
 12 14  1  0  0  0  0
 12 34  1  0  0  0  0
 13 15  1  0  0  0  0
 13 35  1  0  0  0  0
 13 36  1  0  0  0  0
 14 37  1  0  0  0  0
 14 38  1  0  0  0  0
 16 18  1  0  0  0  0
 17 19  1  0  0  0  0
 17 43  1  0  0  0  0
 17 44  1  0  0  0  0
 18 20  2  0  0  0  0
 18 21  1  0  0  0  0
 19 22  2  0  0  0  0
 19 23  1  0  0  0  0
 20 24  1  0  0  0  0
 20 45  1  0  0  0  0
 21 25  2  0  0  0  0
 21 46  1  0  0  0  0
 22 27  1  0  0  0  0
 22 47  1  0  0  0  0
 23 28  2  0  0  0  0
 23 48  1  0  0  0  0
 24 26  2  0  0  0  0
 24 49  1  0  0  0  0
 25 26  1  0  0  0  0
 25 50  1  0  0  0  0
 26 30  1  0  0  0  0
 27 29  2  0  0  0  0
 27 51  1  0  0  0  0
 28 29  1  0  0  0  0
 28 52  1  0  0  0  0
 30 53  1  0  0  0  0
 30 54  1  0  0  0  0
 30 55  1  0  0  0  0
M  END
> <PUBCHEM_COMPOUND_CID>
25390190

> <PUBCHEM_CONFORMER_RMSD>
1.2

> <PUBCHEM_CONFORMER_DIVERSEORDER>
1
10
144
104
100
34
123
2
124
147
82
55
53
130
116
151
140
89
113
121
71
14
148
40
132
108
134
13
37
59
95
142
22
111
27
102
99
52
97
76
115
146
33
92
26
73
46
21
12
17
81
43
36
74
28
49
114
23
101
129
70
126
103
41
61
119
63
30
50
98
135
87
152
5
32
91
6
78
141
85
80
90
96
19
51
66
106
93
117
45
125
131
57
48
109
9
149
122
110
65
84
67
83
38
54
62
94
136
79
69
18
39
35
153
4
128
120
88
138
31
127
60
139
72
42
25
86
105
75
137
133
24
20
150
77
68
15
118
143
107
56
58
44
64
112
16
29
7
3
11
47
8
145

> <PUBCHEM_MMFF94_PARTIAL_CHARGES>
42
1 -0.19
10 0.28
11 0.28
12 0.28
13 0.06
14 0.3
15 0.57
16 0.54
17 0.44
18 0.09
19 -0.14
2 -0.56
20 -0.15
21 -0.15
22 -0.15
23 -0.15
24 -0.15
25 -0.15
26 -0.14
27 -0.15
28 -0.15
29 0.19
3 -0.68
30 0.14
39 0.4
4 -0.68
40 0.4
41 0.37
42 0.37
45 0.15
46 0.15
47 0.15
48 0.15
49 0.15
5 -0.57
50 0.15
51 0.15
52 0.15
6 -0.57
7 -0.73
8 -0.73
9 0.28

> <PUBCHEM_EFFECTIVE_ROTOR_COUNT>
10

> <PUBCHEM_PHARMACOPHORE_FEATURES>
12
1 2 acceptor
1 3 acceptor
1 3 donor
1 4 acceptor
1 4 donor
1 5 acceptor
1 6 acceptor
1 7 donor
1 8 donor
5 2 9 10 11 12 rings
6 18 20 21 24 25 26 rings
6 19 22 23 27 28 29 rings

> <PUBCHEM_HEAVY_ATOM_COUNT>
30

> <PUBCHEM_ATOM_DEF_STEREO_COUNT>
4

> <PUBCHEM_ATOM_UDEF_STEREO_COUNT>
0

> <PUBCHEM_BOND_DEF_STEREO_COUNT>
0

> <PUBCHEM_BOND_UDEF_STEREO_COUNT>
0

> <PUBCHEM_ISOTOPIC_ATOM_COUNT>
0

> <PUBCHEM_COMPONENT_COUNT>
1

> <PUBCHEM_CACTVS_TAUTO_COUNT>
10

> <PUBCHEM_CONFORMER_ID>
01836C6E00000001

> <PUBCHEM_MMFF94_ENERGY>
68.8497

> <PUBCHEM_FEATURE_SELFOVERLAP>
60.911

> <PUBCHEM_SHAPE_FINGERPRINT>
1100329 8 18051415067665358345
11135609 12 18335425646790797904
11513181 2 18131067108537829310
11578080 2 17386545991228272695
12107698 1 18410849924042320579
12422481 6 18126253464723625874
12633257 1 18269282253179332473
12645989 146 18200591393563480782
13122387 1 17980199690743470432
13140716 1 18197498432894087337
13402501 40 18411982493996197285
14466204 15 18265610979438577306
14725015 67 18338789001778940505
14790565 3 17187850814027721665
15968369 153 18059561478934456208
16112460 7 18270975527310157545
17093844 170 18268146633825276560
20642791 178 18193005820072843068
20721686 56 18409726287525188363
20764821 26 18337675217532000885
20905425 154 18342746242732297188
23559900 14 18334289860158798615
3052486 1 18263074432394213890
3298306 158 18339637970742552957
338550 245 18335422391590455740
350125 39 18410858737209327308
392239 28 18339083692043051243
463206 1 18270115854375088425
5081480 168 17272601380928357110
508706 21 18261663780028815421
5776283 40 17976839897628752548
59755656 215 18411701027846902204
6823239 73 18337665330675372696

> <PUBCHEM_SHAPE_MULTIPOLES>
570.8
10.96
4.9
1.23
4.6
2.36
-0.09
-3.95
-1.3
-1.87
-0.21
-0.25
-0.12
0.82

> <PUBCHEM_SHAPE_SELFOVERLAP>
1211.563

> <PUBCHEM_SHAPE_VOLUME>
319.6

> <PUBCHEM_COORDINATE_TYPE>
2
5
10

$$$$
