11941655
  -OEChem-12032416163D

 54 57  0     1  0  0  0  0  0999 V2000
    2.9684   -1.8602    1.8402 O   0  0  0  0  0  0  0  0  0  0  0  0
    1.2595    0.7492    1.7556 O   0  0  0  0  0  0  0  0  0  0  0  0
    6.0155    0.4428   -0.2311 O   0  0  0  0  0  0  0  0  0  0  0  0
   -6.2049    3.0062    0.2889 O   0  0  0  0  0  0  0  0  0  0  0  0
    0.2780   -2.5200    0.4600 N   0  0  0  0  0  0  0  0  0  0  0  0
    3.8767    1.2589    0.1584 N   0  0  0  0  0  0  0  0  0  0  0  0
    5.1290    2.1172   -1.5705 N   0  0  0  0  0  0  0  0  0  0  0  0
   -1.7106   -1.3818   -0.0467 N   0  0  0  0  0  0  0  0  0  0  0  0
   -1.0906   -3.3811   -1.2405 N   0  0  0  0  0  0  0  0  0  0  0  0
    1.3557   -0.3928    0.8876 C   0  0  1  0  0  0  0  0  0  0  0  0
    2.8109   -0.8179    0.8632 C   0  0  1  0  0  0  0  0  0  0  0  0
    0.6357   -1.5740    1.4942 C   0  0  2  0  0  0  0  0  0  0  0  0
    3.5634    0.4214    1.2909 C   0  0  2  0  0  0  0  0  0  0  0  0
    1.6884   -2.1708    2.4103 C   0  0  0  0  0  0  0  0  0  0  0  0
    2.5718    1.0995    2.2194 C   0  0  0  0  0  0  0  0  0  0  0  0
   -0.8753   -2.4247   -0.2984 C   0  0  0  0  0  0  0  0  0  0  0  0
    5.0924    1.2030   -0.5208 C   0  0  0  0  0  0  0  0  0  0  0  0
    6.2735    2.2674   -2.4379 C   0  0  0  0  0  0  0  0  0  0  0  0
   -2.8253   -1.3198   -0.8041 C   0  0  0  0  0  0  0  0  0  0  0  0
   -2.2244   -3.2577   -1.9614 C   0  0  0  0  0  0  0  0  0  0  0  0
   -3.1374   -2.2382   -1.7857 C   0  0  0  0  0  0  0  0  0  0  0  0
   -3.6971   -0.2048   -0.5214 C   0  0  0  0  0  0  0  0  0  0  0  0
    7.3898    1.3185   -2.0529 C   0  0  0  0  0  0  0  0  0  0  0  0
   -5.0741   -0.3229   -0.7225 C   0  0  0  0  0  0  0  0  0  0  0  0
   -3.1665    0.9967   -0.0464 C   0  0  0  0  0  0  0  0  0  0  0  0
   -5.9162    0.7552   -0.4501 C   0  0  0  0  0  0  0  0  0  0  0  0
   -4.0087    2.0746    0.2261 C   0  0  0  0  0  0  0  0  0  0  0  0
   -5.3836    1.9540    0.0242 C   0  0  0  0  0  0  0  0  0  0  0  0
   -5.5939    4.2019    0.7715 C   0  0  0  0  0  0  0  0  0  0  0  0
    0.9876   -0.0838   -0.0960 H   0  0  0  0  0  0  0  0  0  0  0  0
    3.1221   -1.2250   -0.1042 H   0  0  0  0  0  0  0  0  0  0  0  0
   -0.2429   -1.2980    2.0885 H   0  0  0  0  0  0  0  0  0  0  0  0
    4.4925    0.1903    1.8229 H   0  0  0  0  0  0  0  0  0  0  0  0
    1.6031   -3.2542    2.5399 H   0  0  0  0  0  0  0  0  0  0  0  0
    1.6541   -1.7038    3.4008 H   0  0  0  0  0  0  0  0  0  0  0  0
    2.6673    2.1892    2.2493 H   0  0  0  0  0  0  0  0  0  0  0  0
    2.6676    0.7167    3.2415 H   0  0  0  0  0  0  0  0  0  0  0  0
    0.9183   -3.2709    0.2284 H   0  0  0  0  0  0  0  0  0  0  0  0
    3.1543    1.8750   -0.2024 H   0  0  0  0  0  0  0  0  0  0  0  0
    4.3188    2.7063   -1.7356 H   0  0  0  0  0  0  0  0  0  0  0  0
    5.9385    2.0810   -3.4629 H   0  0  0  0  0  0  0  0  0  0  0  0
    6.6051    3.3082   -2.3709 H   0  0  0  0  0  0  0  0  0  0  0  0
   -2.3807   -4.0238   -2.7133 H   0  0  0  0  0  0  0  0  0  0  0  0
   -4.0158   -2.1865   -2.4160 H   0  0  0  0  0  0  0  0  0  0  0  0
    8.2238    1.4839   -2.7476 H   0  0  0  0  0  0  0  0  0  0  0  0
    7.1223    0.2645   -2.1810 H   0  0  0  0  0  0  0  0  0  0  0  0
    7.8057    1.5230   -1.0608 H   0  0  0  0  0  0  0  0  0  0  0  0
   -5.5343   -1.2455   -1.0664 H   0  0  0  0  0  0  0  0  0  0  0  0
   -2.0981    1.1267    0.1114 H   0  0  0  0  0  0  0  0  0  0  0  0
   -6.9872    0.6542   -0.6041 H   0  0  0  0  0  0  0  0  0  0  0  0
   -3.5287    2.9769    0.5897 H   0  0  0  0  0  0  0  0  0  0  0  0
   -4.9103    4.6315    0.0313 H   0  0  0  0  0  0  0  0  0  0  0  0
   -6.3939    4.9326    0.9295 H   0  0  0  0  0  0  0  0  0  0  0  0
   -5.1096    4.0434    1.7411 H   0  0  0  0  0  0  0  0  0  0  0  0
  1 11  1  0  0  0  0
  1 14  1  0  0  0  0
  2 10  1  0  0  0  0
  2 15  1  0  0  0  0
  3 17  2  0  0  0  0
  4 28  1  0  0  0  0
  4 29  1  0  0  0  0
  5 12  1  0  0  0  0
  5 16  1  0  0  0  0
  5 38  1  0  0  0  0
  6 13  1  0  0  0  0
  6 17  1  0  0  0  0
  6 39  1  0  0  0  0
  7 17  1  0  0  0  0
  7 18  1  0  0  0  0
  7 40  1  0  0  0  0
  8 16  1  0  0  0  0
  8 19  2  0  0  0  0
  9 16  2  0  0  0  0
  9 20  1  0  0  0  0
 10 11  1  0  0  0  0
 10 12  1  0  0  0  0
 10 30  1  0  0  0  0
 11 13  1  0  0  0  0
 11 31  1  0  0  0  0
 12 14  1  0  0  0  0
 12 32  1  0  0  0  0
 13 15  1  0  0  0  0
 13 33  1  0  0  0  0
 14 34  1  0  0  0  0
 14 35  1  0  0  0  0
 15 36  1  0  0  0  0
 15 37  1  0  0  0  0
 18 23  1  0  0  0  0
 18 41  1  0  0  0  0
 18 42  1  0  0  0  0
 19 21  1  0  0  0  0
 19 22  1  0  0  0  0
 20 21  2  0  0  0  0
 20 43  1  0  0  0  0
 21 44  1  0  0  0  0
 22 24  2  0  0  0  0
 22 25  1  0  0  0  0
 23 45  1  0  0  0  0
 23 46  1  0  0  0  0
 23 47  1  0  0  0  0
 24 26  1  0  0  0  0
 24 48  1  0  0  0  0
 25 27  2  0  0  0  0
 25 49  1  0  0  0  0
 26 28  2  0  0  0  0
 26 50  1  0  0  0  0
 27 28  1  0  0  0  0
 27 51  1  0  0  0  0
 29 52  1  0  0  0  0
 29 53  1  0  0  0  0
 29 54  1  0  0  0  0
M  END
> <PUBCHEM_COMPOUND_CID>
11941655

> <PUBCHEM_CONFORMER_RMSD>
1

> <PUBCHEM_CONFORMER_DIVERSEORDER>
1
96
134
24
79
72
106
65
18
32
62
15
126
171
149
170
178
153
155
57
141
148
154
10
28
17
70
87
39
136
33
128
162
109
159
5
137
64
119
167
7
125
156
116
74
181
11
130
123
140
143
14
99
55
67
122
43
52
92
47
63
66
75
19
81
59
110
111
168
34
147
73
102
71
131
158
13
53
172
127
166
151
160
107
174
90
173
89
100
93
163
150
86
54
80
183
76
164
56
184
165
69
58
68
169
112
157
135
176
121
83
97
91
144
16
9
115
124
6
182
95
50
113
84
120
177
85
35
26
78
38
42
105
29
77
27
20
22
139
4
138
40
145
82
146
21
12
118
129
132
30
179
48
51
101
104
108
94
114
180
41
60
117
61
88
8
175
152
44
98
46
49
2
45
37
23
103
133
36
142
161
31
3
25

> <PUBCHEM_MMFF94_PARTIAL_CHARGES>
36
1 -0.56
10 0.28
11 0.28
12 0.37
13 0.3
14 0.28
15 0.28
16 0.72
17 0.69
18 0.3
19 0.31
2 -0.56
20 0.16
21 -0.15
24 -0.15
25 -0.15
26 -0.15
27 -0.15
28 0.08
29 0.28
3 -0.57
38 0.4
39 0.37
4 -0.36
40 0.37
43 0.15
44 0.15
48 0.15
49 0.15
5 -0.87
50 0.15
51 0.15
6 -0.73
7 -0.73
8 -0.62
9 -0.62

> <PUBCHEM_EFFECTIVE_ROTOR_COUNT>
9.2

> <PUBCHEM_PHARMACOPHORE_FEATURES>
13
1 1 acceptor
1 2 acceptor
1 3 acceptor
1 4 acceptor
1 5 donor
1 6 donor
1 7 donor
1 8 acceptor
4 5 8 9 16 cation
5 1 10 11 12 14 rings
5 2 10 11 13 15 rings
6 22 24 25 26 27 28 rings
6 8 9 16 19 20 21 rings

> <PUBCHEM_HEAVY_ATOM_COUNT>
29

> <PUBCHEM_ATOM_DEF_STEREO_COUNT>
4

> <PUBCHEM_ATOM_UDEF_STEREO_COUNT>
0

> <PUBCHEM_BOND_DEF_STEREO_COUNT>
0

> <PUBCHEM_BOND_UDEF_STEREO_COUNT>
0

> <PUBCHEM_ISOTOPIC_ATOM_COUNT>
0

> <PUBCHEM_COMPONENT_COUNT>
1

> <PUBCHEM_CACTVS_TAUTO_COUNT>
9

> <PUBCHEM_CONFORMER_ID>
00B6371700000001

> <PUBCHEM_MMFF94_ENERGY>
95.9256

> <PUBCHEM_FEATURE_SELFOVERLAP>
66.73

> <PUBCHEM_SHAPE_FINGERPRINT>
10049733 73 10877227092651706804
10670039 82 18411973697876717173
10674148 151 16128105459557837185
10917259 128 18267009730877497048
11211813 163 18341901779595683756
11374522 72 18041838382229492813
11410812 94 18270408299933416780
11475781 23 18060416933277515416
1200032 147 18268161876547847681
12390115 104 17313953060019921418
13782708 43 16199020824213376543
13828863 39 17530969119689922687
13885169 86 17531536493913736476
13944108 23 17551516544336047377
14114211 68 17916872297141218899
14187579 7 17979074113160232988
1454969 45 18129926954995481727
14790565 3 18200583714731076273
14840074 17 17749105612497034765
15131766 46 17604137233541696269
15183329 4 17561091306364841978
15188451 53 9367353612903874806
15198563 99 17914597583946451591
15238133 3 18129082473012021498
15575132 122 18187077326548418893
16120349 67 18337121124001285696
16991971 28 17768516542100682415
16992727 255 18412548695910210032
1768 23 18041003951139196500
19304671 126 16415182448276393033
21033650 10 18268149941071030826
21136928 129 15431181235139346820
21315764 119 18201449064778388700
21458453 9 13624388968874035972
21756936 100 18115028622839312818
21774942 28 18264773328616246956
22393880 68 17845647192040174030
23536364 44 17489315212746413786
23559900 14 17131261488886665026
245318 6 18338238150938757261
24771750 20 17916310433683337567
312425 83 17272841267742241828
3459 110 14346361271956382462
3552219 110 17897441916692628527
3610482 184 18262524813708030246
38570 142 18113625590478737086
4058900 60 18268151959858744779
4258327 124 17749658680411112111
439807 62 10303224973365569249
444735 79 11386369270570129564
469060 322 14273731898156436403
4756261 7 10810496791473574334
508706 21 17202752847184261519
5252454 2 18338218402256864241
57634706 229 17241627181118497216
57724786 102 18187923911403663667
5911458 16 18260274048623247724
6523845 18 17703522064360589243
6608658 132 18337099146981128517
7288768 16 17313104197739486354
7808743 9 18341606023573339919

> <PUBCHEM_SHAPE_MULTIPOLES>
548.42
16.78
4.25
2.24
10.26
0.38
0.03
19.27
-8.77
-5.28
-0.8
3.67
-0.49
-5.14

> <PUBCHEM_SHAPE_SELFOVERLAP>
1181.156

> <PUBCHEM_SHAPE_VOLUME>
301.4

> <PUBCHEM_COORDINATE_TYPE>
2
5
10

$$$$
