56775117
  -OEChem-12032416213D

 47 50  0     1  0  0  0  0  0999 V2000
    2.1626    2.3672    0.4455 O   0  0  0  0  0  0  0  0  0  0  0  0
    5.1851    1.0089   -0.7529 O   0  0  0  0  0  0  0  0  0  0  0  0
    5.3134   -1.7532    0.4798 O   0  0  0  0  0  0  0  0  0  0  0  0
   -0.4529    0.5054   -0.2948 N   0  0  1  0  0  0  0  0  0  0  0  0
    3.1523   -0.0643   -0.3894 N   0  0  0  0  0  0  0  0  0  0  0  0
   -4.7293    1.4860    0.5776 N   0  0  0  0  0  0  0  0  0  0  0  0
    1.7732    0.0131    0.0843 C   0  0  1  0  0  0  0  0  0  0  0  0
    1.4531    1.2343    0.9405 C   0  0  2  0  0  0  0  0  0  0  0  0
    0.7491    0.1345   -1.0407 C   0  0  0  0  0  0  0  0  0  0  0  0
   -0.0419    1.4857    0.7187 C   0  0  0  0  0  0  0  0  0  0  0  0
   -1.5203    0.9927   -1.1538 C   0  0  0  0  0  0  0  0  0  0  0  0
    4.0450    0.9985   -0.2865 C   0  0  0  0  0  0  0  0  0  0  0  0
    3.5545    2.1699    0.5371 C   0  0  0  0  0  0  0  0  0  0  0  0
    3.5484   -1.2862   -1.0773 C   0  0  0  0  0  0  0  0  0  0  0  0
   -2.8640    0.9114   -0.4795 C   0  0  0  0  0  0  0  0  0  0  0  0
    4.1439   -2.2990   -0.1167 C   0  0  0  0  0  0  0  0  0  0  0  0
   -3.6446   -0.2624   -0.2848 C   0  0  0  0  0  0  0  0  0  0  0  0
   -3.5572    1.9696    0.0613 C   0  0  0  0  0  0  0  0  0  0  0  0
   -4.8095    0.1258    0.3804 C   0  0  0  0  0  0  0  0  0  0  0  0
   -3.4714   -1.6220   -0.6119 C   0  0  0  0  0  0  0  0  0  0  0  0
   -5.8139   -0.7813    0.7366 C   0  0  0  0  0  0  0  0  0  0  0  0
   -4.4677   -2.5406   -0.2619 C   0  0  0  0  0  0  0  0  0  0  0  0
   -5.6201   -2.1245    0.4019 C   0  0  0  0  0  0  0  0  0  0  0  0
    5.9123   -2.6692    1.3864 C   0  0  0  0  0  0  0  0  0  0  0  0
    1.5679   -0.8945    0.6690 H   0  0  0  0  0  0  0  0  0  0  0  0
    1.6903    1.0809    1.9996 H   0  0  0  0  0  0  0  0  0  0  0  0
    1.0430    0.9063   -1.7643 H   0  0  0  0  0  0  0  0  0  0  0  0
    0.6081   -0.8102   -1.5750 H   0  0  0  0  0  0  0  0  0  0  0  0
   -0.6011    1.2958    1.6412 H   0  0  0  0  0  0  0  0  0  0  0  0
   -0.2217    2.5234    0.4122 H   0  0  0  0  0  0  0  0  0  0  0  0
   -1.5827    0.3675   -2.0555 H   0  0  0  0  0  0  0  0  0  0  0  0
   -1.3268    2.0120   -1.5132 H   0  0  0  0  0  0  0  0  0  0  0  0
    3.8543    2.0257    1.5812 H   0  0  0  0  0  0  0  0  0  0  0  0
    4.0418    3.0771    0.1659 H   0  0  0  0  0  0  0  0  0  0  0  0
    4.2992   -1.0274   -1.8331 H   0  0  0  0  0  0  0  0  0  0  0  0
    2.6900   -1.7156   -1.6018 H   0  0  0  0  0  0  0  0  0  0  0  0
    4.4061   -3.2108   -0.6655 H   0  0  0  0  0  0  0  0  0  0  0  0
    3.4204   -2.5559    0.6658 H   0  0  0  0  0  0  0  0  0  0  0  0
   -3.3226    3.0230    0.1266 H   0  0  0  0  0  0  0  0  0  0  0  0
   -5.4341    2.0457    1.0374 H   0  0  0  0  0  0  0  0  0  0  0  0
   -2.5790   -1.9631   -1.1288 H   0  0  0  0  0  0  0  0  0  0  0  0
   -6.7114   -0.4584    1.2534 H   0  0  0  0  0  0  0  0  0  0  0  0
   -4.3395   -3.5906   -0.5114 H   0  0  0  0  0  0  0  0  0  0  0  0
   -6.3811   -2.8550    0.6643 H   0  0  0  0  0  0  0  0  0  0  0  0
    6.8031   -2.1994    1.8116 H   0  0  0  0  0  0  0  0  0  0  0  0
    6.2143   -3.5829    0.8654 H   0  0  0  0  0  0  0  0  0  0  0  0
    5.2220   -2.9095    2.2008 H   0  0  0  0  0  0  0  0  0  0  0  0
  1  8  1  0  0  0  0
  1 13  1  0  0  0  0
  2 12  2  0  0  0  0
  3 16  1  0  0  0  0
  3 24  1  0  0  0  0
  4  9  1  0  0  0  0
  4 10  1  0  0  0  0
  4 11  1  0  0  0  0
  5  7  1  0  0  0  0
  5 12  1  0  0  0  0
  5 14  1  0  0  0  0
  6 18  1  0  0  0  0
  6 19  1  0  0  0  0
  6 40  1  0  0  0  0
  7  8  1  0  0  0  0
  7  9  1  0  0  0  0
  7 25  1  0  0  0  0
  8 10  1  0  0  0  0
  8 26  1  0  0  0  0
  9 27  1  0  0  0  0
  9 28  1  0  0  0  0
 10 29  1  0  0  0  0
 10 30  1  0  0  0  0
 11 15  1  0  0  0  0
 11 31  1  0  0  0  0
 11 32  1  0  0  0  0
 12 13  1  0  0  0  0
 13 33  1  0  0  0  0
 13 34  1  0  0  0  0
 14 16  1  0  0  0  0
 14 35  1  0  0  0  0
 14 36  1  0  0  0  0
 15 17  1  0  0  0  0
 15 18  2  0  0  0  0
 16 37  1  0  0  0  0
 16 38  1  0  0  0  0
 17 19  1  0  0  0  0
 17 20  2  0  0  0  0
 18 39  1  0  0  0  0
 19 21  2  0  0  0  0
 20 22  1  0  0  0  0
 20 41  1  0  0  0  0
 21 23  1  0  0  0  0
 21 42  1  0  0  0  0
 22 23  2  0  0  0  0
 22 43  1  0  0  0  0
 23 44  1  0  0  0  0
 24 45  1  0  0  0  0
 24 46  1  0  0  0  0
 24 47  1  0  0  0  0
M  END
> <PUBCHEM_COMPOUND_CID>
56775117

> <PUBCHEM_CONFORMER_RMSD>
0.8

> <PUBCHEM_CONFORMER_DIVERSEORDER>
1
110
60
158
180
130
112
16
137
172
116
29
134
117
189
133
115
113
48
67
102
127
153
140
13
184
27
152
10
2
163
76
108
156
80
49
181
45
58
98
188
70
79
105
59
50
74
145
165
144
99
143
86
149
30
39
85
178
129
146
176
5
7
40
84
101
81
71
72
83
148
43
92
128
53
37
63
121
166
87
104
12
177
46
9
66
75
78
22
32
51
96
97
155
89
14
20
183
15
109
171
62
120
3
56
131
47
100
168
186
125
33
147
159
161
6
64
61
18
94
103
123
157
164
132
11
118
65
88
107
69
73
138
77
169
170
162
55
36
151
167
141
90
185
150
17
26
24
182
23
44
179
175
54
190
38
187
142
25
91
34
139
126
119
135
95
154
41
93
42
19
31
35
52
136
122
114
68
82
28
173
160
8
106
111
21
124
57
4
174

> <PUBCHEM_MMFF94_PARTIAL_CHARGES>
29
1 -0.56
10 0.27
11 0.45
12 0.57
13 0.34
14 0.3
15 -0.18
16 0.28
18 -0.3
19 -0.15
2 -0.57
20 -0.15
21 -0.15
22 -0.15
23 -0.15
24 0.28
3 -0.56
39 0.15
4 -0.81
40 0.27
41 0.15
42 0.15
43 0.15
44 0.15
5 -0.66
6 0.03
7 0.3
8 0.28
9 0.27

> <PUBCHEM_EFFECTIVE_ROTOR_COUNT>
6.2

> <PUBCHEM_PHARMACOPHORE_FEATURES>
10
1 1 acceptor
1 2 acceptor
1 3 acceptor
1 4 cation
1 6 cation
1 6 donor
5 4 7 8 9 10 rings
5 6 15 17 18 19 rings
6 1 5 7 8 12 13 rings
6 17 19 20 21 22 23 rings

> <PUBCHEM_HEAVY_ATOM_COUNT>
24

> <PUBCHEM_ATOM_DEF_STEREO_COUNT>
2

> <PUBCHEM_ATOM_UDEF_STEREO_COUNT>
0

> <PUBCHEM_BOND_DEF_STEREO_COUNT>
0

> <PUBCHEM_BOND_UDEF_STEREO_COUNT>
0

> <PUBCHEM_ISOTOPIC_ATOM_COUNT>
0

> <PUBCHEM_COMPONENT_COUNT>
1

> <PUBCHEM_CACTVS_TAUTO_COUNT>
2

> <PUBCHEM_CONFORMER_ID>
036251CD00000001

> <PUBCHEM_MMFF94_ENERGY>
56.0186

> <PUBCHEM_FEATURE_SELFOVERLAP>
50.992

> <PUBCHEM_SHAPE_FINGERPRINT>
10319926 262 18343013359432838369
10595046 47 18336270131945293820
11370993 144 18272377451700447701
11405975 8 18343022164311129625
11552529 35 17416121922535421231
11796584 16 18190737536052797478
11963148 33 18192424401723339802
12107183 9 18125447410535684121
12633257 1 16916516981568721951
12730499 353 18338804536881742104
13073987 5 18411981368762394664
13167823 11 18409729556142785603
13782708 43 18040432162164003626
14251751 18 18262513698290670914
14341114 176 18200883967067362817
14420673 8 18268435629099928951
15196674 1 18411702088724864751
15250474 111 18201145641839079951
15799311 1 18337125534795847562
16989378 47 14563635584934004896
17349148 13 16153421748910026192
17844677 252 18341341045381734633
17857418 61 18410007723931660767
1813 80 17676768764328530845
1979834 28 17203331074800636390
20567600 247 17386282078768889874
20567600 70 18410851024218723370
21033648 29 15338845227104673297
21065198 57 18342459240344004117
22393880 68 17895182264992117867
22950370 63 18409452483360035813
23522609 53 18120125885515629548
23559900 14 18339354267073571377
239999 70 17916877923395720908
3004659 81 18410301272594054326
316301 35 18335980947512888322
4073 2 18262523726580001282
4214541 1 18342461448052035817
439807 62 18333452040872959427
465052 167 18201726145760903614
5104073 3 18273495667267246217
559249 180 18261672567990578743
7495541 125 18410856555793397228
77779 3 18342177786704908453
7970288 3 17977946787799339370
8863177 126 18410577309567414746
9709674 26 18336267963297740347

> <PUBCHEM_SHAPE_MULTIPOLES>
461.36
15.02
2.93
1.04
0.31
1.08
0
9
2.89
-1.44
0.61
-0.53
0.13
-0.64

> <PUBCHEM_SHAPE_SELFOVERLAP>
994.628

> <PUBCHEM_SHAPE_VOLUME>
256.1

> <PUBCHEM_COORDINATE_TYPE>
2
5
10

$$$$
