38344145
  -OEChem-12032416353D

 56 59  0     1  0  0  0  0  0999 V2000
   -8.7878   -2.3393   -0.5071 F   0  0  0  0  0  0  0  0  0  0  0  0
   -9.6026   -0.3492   -0.1857 F   0  0  0  0  0  0  0  0  0  0  0  0
   -9.1023   -1.6124    1.5119 F   0  0  0  0  0  0  0  0  0  0  0  0
    3.8978   -1.9150   -0.2931 O   0  0  0  0  0  0  0  0  0  0  0  0
    3.1025    0.0896   -1.1279 N   0  0  0  0  0  0  0  0  0  0  0  0
   -3.4350    0.9778    0.3050 N   0  0  0  0  0  0  0  0  0  0  0  0
   -3.1801    2.0745    1.0388 N   0  0  0  0  0  0  0  0  0  0  0  0
    5.3030   -0.0428   -0.4678 N   0  0  0  0  0  0  0  0  0  0  0  0
   10.9192    1.4168    0.6716 N   0  0  0  0  0  0  0  0  0  0  0  0
    0.1140    1.2799   -0.5513 C   0  0  2  0  0  0  0  0  0  0  0  0
    0.8110   -0.0513   -0.2021 C   0  0  0  0  0  0  0  0  0  0  0  0
    1.7549   -0.3501   -1.3734 C   0  0  1  0  0  0  0  0  0  0  0  0
   -1.3150    1.3520   -0.0641 C   0  0  0  0  0  0  0  0  0  0  0  0
    0.2728    1.3452   -2.0427 C   0  0  0  0  0  0  0  0  0  0  0  0
    1.1703    0.4580   -2.4848 C   0  0  0  0  0  0  0  0  0  0  0  0
   -2.3509    0.5052   -0.3746 C   0  0  0  0  0  0  0  0  0  0  0  0
   -1.8835    2.2983    0.8093 C   0  0  0  0  0  0  0  0  0  0  0  0
   -2.3956   -0.6891   -1.2425 C   0  0  0  0  0  0  0  0  0  0  0  0
   -1.2205    3.4442    1.4564 C   0  0  0  0  0  0  0  0  0  0  0  0
   -4.7205    0.4353    0.2949 C   0  0  0  0  0  0  0  0  0  0  0  0
    4.0988   -0.7409   -0.5943 C   0  0  0  0  0  0  0  0  0  0  0  0
   -5.7982    1.2012   -0.1496 C   0  0  0  0  0  0  0  0  0  0  0  0
   -4.9280   -0.8725    0.7333 C   0  0  0  0  0  0  0  0  0  0  0  0
   -7.0833    0.6593   -0.1557 C   0  0  0  0  0  0  0  0  0  0  0  0
   -6.2132   -1.4144    0.7273 C   0  0  0  0  0  0  0  0  0  0  0  0
   -7.2910   -0.6486    0.2827 C   0  0  0  0  0  0  0  0  0  0  0  0
    6.5377   -0.5243    0.0265 C   0  0  0  0  0  0  0  0  0  0  0  0
   -8.6654   -1.2272    0.2765 C   0  0  0  0  0  0  0  0  0  0  0  0
    7.6451    0.3220    0.0816 C   0  0  0  0  0  0  0  0  0  0  0  0
    6.6477   -1.8458    0.4589 C   0  0  0  0  0  0  0  0  0  0  0  0
    8.8626   -0.1533    0.5691 C   0  0  0  0  0  0  0  0  0  0  0  0
    7.8652   -2.3213    0.9462 C   0  0  0  0  0  0  0  0  0  0  0  0
    8.9727   -1.4751    1.0013 C   0  0  0  0  0  0  0  0  0  0  0  0
    9.9974    0.7132    0.6256 C   0  0  0  0  0  0  0  0  0  0  0  0
    0.6859    2.1112   -0.1189 H   0  0  0  0  0  0  0  0  0  0  0  0
    1.3378    0.0213    0.7572 H   0  0  0  0  0  0  0  0  0  0  0  0
    0.0962   -0.8759   -0.0972 H   0  0  0  0  0  0  0  0  0  0  0  0
    1.7493   -1.4197   -1.6076 H   0  0  0  0  0  0  0  0  0  0  0  0
   -0.2470    2.0476   -2.6792 H   0  0  0  0  0  0  0  0  0  0  0  0
    1.4537    0.3502   -3.5223 H   0  0  0  0  0  0  0  0  0  0  0  0
    3.3389    1.0620   -1.3041 H   0  0  0  0  0  0  0  0  0  0  0  0
   -1.5842   -0.6997   -1.9738 H   0  0  0  0  0  0  0  0  0  0  0  0
   -3.3248   -0.7366   -1.8201 H   0  0  0  0  0  0  0  0  0  0  0  0
   -2.3108   -1.6031   -0.6462 H   0  0  0  0  0  0  0  0  0  0  0  0
   -0.8205    4.1315    0.7039 H   0  0  0  0  0  0  0  0  0  0  0  0
   -1.9105    4.0100    2.0915 H   0  0  0  0  0  0  0  0  0  0  0  0
   -0.3919    3.1033    2.0857 H   0  0  0  0  0  0  0  0  0  0  0  0
   -5.6538    2.2211   -0.4982 H   0  0  0  0  0  0  0  0  0  0  0  0
   -4.1048   -1.4816    1.0986 H   0  0  0  0  0  0  0  0  0  0  0  0
    5.3002    0.9296   -0.7652 H   0  0  0  0  0  0  0  0  0  0  0  0
   -7.9090    1.2722   -0.5065 H   0  0  0  0  0  0  0  0  0  0  0  0
   -6.3658   -2.4330    1.0740 H   0  0  0  0  0  0  0  0  0  0  0  0
    7.5572    1.3529   -0.2563 H   0  0  0  0  0  0  0  0  0  0  0  0
    5.8372   -2.5606    0.4475 H   0  0  0  0  0  0  0  0  0  0  0  0
    7.9521   -3.3502    1.2831 H   0  0  0  0  0  0  0  0  0  0  0  0
    9.9149   -1.8604    1.3838 H   0  0  0  0  0  0  0  0  0  0  0  0
  1 28  1  0  0  0  0
  2 28  1  0  0  0  0
  3 28  1  0  0  0  0
  4 21  2  0  0  0  0
  5 12  1  0  0  0  0
  5 21  1  0  0  0  0
  5 41  1  0  0  0  0
  6  7  1  0  0  0  0
  6 16  1  0  0  0  0
  6 20  1  0  0  0  0
  7 17  2  0  0  0  0
  8 21  1  0  0  0  0
  8 27  1  0  0  0  0
  8 50  1  0  0  0  0
  9 34  3  0  0  0  0
 10 11  1  0  0  0  0
 10 13  1  0  0  0  0
 10 14  1  0  0  0  0
 10 35  1  0  0  0  0
 11 12  1  0  0  0  0
 11 36  1  0  0  0  0
 11 37  1  0  0  0  0
 12 15  1  0  0  0  0
 12 38  1  0  0  0  0
 13 16  2  0  0  0  0
 13 17  1  0  0  0  0
 14 15  2  0  0  0  0
 14 39  1  0  0  0  0
 15 40  1  0  0  0  0
 16 18  1  0  0  0  0
 17 19  1  0  0  0  0
 18 42  1  0  0  0  0
 18 43  1  0  0  0  0
 18 44  1  0  0  0  0
 19 45  1  0  0  0  0
 19 46  1  0  0  0  0
 19 47  1  0  0  0  0
 20 22  2  0  0  0  0
 20 23  1  0  0  0  0
 22 24  1  0  0  0  0
 22 48  1  0  0  0  0
 23 25  2  0  0  0  0
 23 49  1  0  0  0  0
 24 26  2  0  0  0  0
 24 51  1  0  0  0  0
 25 26  1  0  0  0  0
 25 52  1  0  0  0  0
 26 28  1  0  0  0  0
 27 29  1  0  0  0  0
 27 30  2  0  0  0  0
 29 31  2  0  0  0  0
 29 53  1  0  0  0  0
 30 32  1  0  0  0  0
 30 54  1  0  0  0  0
 31 33  1  0  0  0  0
 31 34  1  0  0  0  0
 32 33  2  0  0  0  0
 32 55  1  0  0  0  0
 33 56  1  0  0  0  0
M  END
> <PUBCHEM_COMPOUND_CID>
38344145

> <PUBCHEM_CONFORMER_RMSD>
1

> <PUBCHEM_CONFORMER_DIVERSEORDER>
1
69
72
42
41
76
92
54
9
26
56
82
77
90
78
85
87
70
32
13
84
11
15
19
73
98
20
89
50
55
93
25
33
30
96
81
34
95
58
64
94
63
38
91
53
22
18
39
24
7
43
88
37
23
60
47
35
48
74
75
83
66
21
71
61
3
46
79
28
5
10
8
45
86
80
36
67
97
65
40
62
6
51
16
29
99
52
17
44
27
68
31
2
49
14
59
12
4
57

> <PUBCHEM_MMFF94_PARTIAL_CHARGES>
45
1 -0.34
10 0.32
12 0.44
13 -0.18
14 -0.29
15 -0.29
16 -0.33
17 0.11
18 0.18
19 0.18
2 -0.34
20 -0.02
21 0.69
22 -0.15
23 -0.15
24 -0.15
25 -0.15
26 -0.14
27 0.12
28 1.16
29 -0.15
3 -0.34
30 -0.15
31 0.07
32 -0.15
33 -0.15
34 0.48
39 0.15
4 -0.57
40 0.15
41 0.37
48 0.15
49 0.15
5 -0.73
50 0.37
51 0.15
52 0.15
53 0.15
54 0.15
55 0.15
56 0.15
6 0.59
7 -0.71
8 -0.55
9 -0.56

> <PUBCHEM_EFFECTIVE_ROTOR_COUNT>
7.6

> <PUBCHEM_PHARMACOPHORE_FEATURES>
9
1 4 acceptor
1 5 donor
1 7 acceptor
1 8 donor
1 9 acceptor
5 10 11 12 14 15 rings
5 6 7 13 16 17 rings
6 20 22 23 24 25 26 rings
6 27 29 30 31 32 33 rings

> <PUBCHEM_HEAVY_ATOM_COUNT>
34

> <PUBCHEM_ATOM_DEF_STEREO_COUNT>
2

> <PUBCHEM_ATOM_UDEF_STEREO_COUNT>
0

> <PUBCHEM_BOND_DEF_STEREO_COUNT>
0

> <PUBCHEM_BOND_UDEF_STEREO_COUNT>
0

> <PUBCHEM_ISOTOPIC_ATOM_COUNT>
0

> <PUBCHEM_COMPONENT_COUNT>
1

> <PUBCHEM_CACTVS_TAUTO_COUNT>
3

> <PUBCHEM_CONFORMER_ID>
024915D100000001

> <PUBCHEM_MMFF94_ENERGY>
85.2285

> <PUBCHEM_FEATURE_SELFOVERLAP>
45.723

> <PUBCHEM_SHAPE_FINGERPRINT>
10 15 17989485213207288380
10162869 55 17822013125566464220
10165383 225 15195286430256090852
10369192 42 14261349128931037948
10483366 6 11530481129629392294
106641 1 18343019999995544668
10674148 151 15430033254019319941
11135609 99 18335987557604596527
11408170 132 8790589426527542986
12539745 222 18260828155518568525
12741549 16 18408324381122187517
12838862 33 14851604397709465936
13177829 20 18411981339472758508
13540713 4 13408517431540199653
13560911 43 17989486308255768256
14068700 675 18187650189096578429
14117953 113 11963390722638177520
14150022 121 16988288577808097977
15065858 18 17967808328174691806
15183329 4 8070025580469395692
15188451 53 18333735697439459180
15198563 99 14129335136013881742
15247644 1 16298106488351615363
15326923 82 18113336431678953300
15347590 135 17560807597467554850
15350500 16 17603303760783163948
15392192 104 16630526237029456998
15690457 1 18040715861838762850
15706992 2 12967134934637207463
15728490 51 18273212010542321839
16664035 7 18334575737377937300
16992610 120 13973966537043673492
1754911 235 11239996745903001371
17686467 74 18341890792394938808
18603816 31 18334855069862006735
19315958 150 17989209227014997830
20105231 36 18190181188899745594
2026 5 17676484999654651690
20721686 146 11023841535476495739
21130935 74 18191867826170831098
212700 22 17894630361463273082
21585482 111 12247415453760939819
21792961 116 17894632570721509595
22224240 67 16057160597051702031
23576562 1 8069156897638309603
24203241 11 18272082863946801775
3092352 35 11743836954384348749
335352 9 11169916100084865675
3418910 222 18059584564189299496
4149490 64 17750529532037288209
4173938 188 18261390074816586290
4339292 15 15864347988566074634
4516262 110 12103568533388763225
45266715 3 15357695245866761970
474113 269 14273726332221062192
5758199 1 14333126360156040292
59682541 35 17917989482084709634
6126387 218 17894910694278934165
6201320 82 9798876747837889595
9663363 56 18202563978486064949
9689198 14 11815894561116747884
9953998 17 15841548583570257383

> <PUBCHEM_SHAPE_MULTIPOLES>
647.11
35.96
2.37
1.41
30.61
0.67
-0.6
-16.62
13.31
-0.98
1
0.16
0.35
-0.37

> <PUBCHEM_SHAPE_SELFOVERLAP>
1411.16

> <PUBCHEM_SHAPE_VOLUME>
353.3

> <PUBCHEM_COORDINATE_TYPE>
2
5
10

$$$$
