75536905
  -OEChem-12032416303D

 42 44  0     1  0  0  0  0  0999 V2000
    4.5045    2.9783   -0.8301 F   0  0  0  0  0  0  0  0  0  0  0  0
    6.1196    1.5309   -0.8515 F   0  0  0  0  0  0  0  0  0  0  0  0
    5.4367    2.3658    1.0364 F   0  0  0  0  0  0  0  0  0  0  0  0
   -2.8590   -2.6065   -1.0437 O   0  0  0  0  0  0  0  0  0  0  0  0
   -2.3296    0.9014   -0.3026 O   0  0  0  0  0  0  0  0  0  0  0  0
    1.6393   -3.5144    0.4555 O   0  0  0  0  0  0  0  0  0  0  0  0
   -0.1840   -2.0423    0.4891 N   0  0  0  0  0  0  0  0  0  0  0  0
   -4.5170    0.5414    0.3982 N   0  0  0  0  0  0  0  0  0  0  0  0
   -5.0676    3.2591   -0.0228 N   0  0  0  0  0  0  0  0  0  0  0  0
   -2.1371   -0.4931   -0.0609 C   0  0  2  0  0  0  0  0  0  0  0  0
   -0.6847   -0.6660    0.3925 C   0  0  0  0  0  0  0  0  0  0  0  0
   -1.1560   -3.1270    0.6363 C   0  0  0  0  0  0  0  0  0  0  0  0
   -2.4658   -1.2689   -1.3347 C   0  0  0  0  0  0  0  0  0  0  0  0
   -1.7885   -3.4812   -0.7034 C   0  0  0  0  0  0  0  0  0  0  0  0
    1.1787   -2.3742    0.4109 C   0  0  0  0  0  0  0  0  0  0  0  0
    2.1554   -1.2836    0.2639 C   0  0  0  0  0  0  0  0  0  0  0  0
   -3.5789    1.3982   -0.0518 C   0  0  0  0  0  0  0  0  0  0  0  0
    2.7077   -0.6841    1.3959 C   0  0  0  0  0  0  0  0  0  0  0  0
    2.5286   -0.8488   -1.0079 C   0  0  0  0  0  0  0  0  0  0  0  0
    4.0059    0.7851   -0.0157 C   0  0  0  0  0  0  0  0  0  0  0  0
    3.6329    0.3503    1.2562 C   0  0  0  0  0  0  0  0  0  0  0  0
    3.4537    0.1856   -1.1477 C   0  0  0  0  0  0  0  0  0  0  0  0
   -3.8493    2.7330   -0.2586 C   0  0  0  0  0  0  0  0  0  0  0  0
    4.9954    1.8912   -0.1647 C   0  0  0  0  0  0  0  0  0  0  0  0
   -5.7353    1.0675    0.6340 C   0  0  0  0  0  0  0  0  0  0  0  0
   -6.0057    2.4023    0.4272 C   0  0  0  0  0  0  0  0  0  0  0  0
   -2.7577   -0.8497    0.7711 H   0  0  0  0  0  0  0  0  0  0  0  0
   -0.5594   -0.2119    1.3840 H   0  0  0  0  0  0  0  0  0  0  0  0
   -0.0378   -0.0874   -0.2752 H   0  0  0  0  0  0  0  0  0  0  0  0
   -1.9002   -2.8373    1.3852 H   0  0  0  0  0  0  0  0  0  0  0  0
   -0.6382   -4.0127    1.0204 H   0  0  0  0  0  0  0  0  0  0  0  0
   -3.3141   -0.8066   -1.8512 H   0  0  0  0  0  0  0  0  0  0  0  0
   -1.6351   -1.2561   -2.0514 H   0  0  0  0  0  0  0  0  0  0  0  0
   -1.0543   -3.5089   -1.5171 H   0  0  0  0  0  0  0  0  0  0  0  0
   -2.2288   -4.4811   -0.6281 H   0  0  0  0  0  0  0  0  0  0  0  0
    2.4230   -1.0152    2.3913 H   0  0  0  0  0  0  0  0  0  0  0  0
    2.1036   -1.3088   -1.8963 H   0  0  0  0  0  0  0  0  0  0  0  0
    4.0509    0.8040    2.1505 H   0  0  0  0  0  0  0  0  0  0  0  0
    3.7380    0.5179   -2.1426 H   0  0  0  0  0  0  0  0  0  0  0  0
   -3.0982    3.4251   -0.6202 H   0  0  0  0  0  0  0  0  0  0  0  0
   -6.4895    0.3796    0.9954 H   0  0  0  0  0  0  0  0  0  0  0  0
   -6.9849    2.8242    0.6168 H   0  0  0  0  0  0  0  0  0  0  0  0
  1 24  1  0  0  0  0
  2 24  1  0  0  0  0
  3 24  1  0  0  0  0
  4 13  1  0  0  0  0
  4 14  1  0  0  0  0
  5 10  1  0  0  0  0
  5 17  1  0  0  0  0
  6 15  2  0  0  0  0
  7 11  1  0  0  0  0
  7 12  1  0  0  0  0
  7 15  1  0  0  0  0
  8 17  2  0  0  0  0
  8 25  1  0  0  0  0
  9 23  2  0  0  0  0
  9 26  1  0  0  0  0
 10 11  1  0  0  0  0
 10 13  1  0  0  0  0
 10 27  1  0  0  0  0
 11 28  1  0  0  0  0
 11 29  1  0  0  0  0
 12 14  1  0  0  0  0
 12 30  1  0  0  0  0
 12 31  1  0  0  0  0
 13 32  1  0  0  0  0
 13 33  1  0  0  0  0
 14 34  1  0  0  0  0
 14 35  1  0  0  0  0
 15 16  1  0  0  0  0
 16 18  2  0  0  0  0
 16 19  1  0  0  0  0
 17 23  1  0  0  0  0
 18 21  1  0  0  0  0
 18 36  1  0  0  0  0
 19 22  2  0  0  0  0
 19 37  1  0  0  0  0
 20 21  2  0  0  0  0
 20 22  1  0  0  0  0
 20 24  1  0  0  0  0
 21 38  1  0  0  0  0
 22 39  1  0  0  0  0
 23 40  1  0  0  0  0
 25 26  2  0  0  0  0
 25 41  1  0  0  0  0
 26 42  1  0  0  0  0
M  END
> <PUBCHEM_COMPOUND_CID>
75536905

> <PUBCHEM_CONFORMER_RMSD>
0.8

> <PUBCHEM_CONFORMER_DIVERSEORDER>
1
117
88
118
177
91
175
85
138
121
42
126
19
48
94
189
160
111
69
192
33
124
153
137
140
107
120
146
9
163
101
147
193
180
172
49
119
144
83
183
105
186
123
135
154
62
18
188
32
15
194
71
145
47
139
46
52
133
38
86
3
170
173
113
13
84
166
190
22
102
165
162
73
44
74
152
187
11
67
128
195
54
81
143
132
179
185
112
156
115
39
21
56
169
20
158
59
27
58
116
161
66
151
110
75
148
164
6
51
99
65
10
129
31
26
134
171
34
100
36
35
55
95
168
25
167
142
92
93
181
178
159
40
174
43
106
96
76
104
72
29
127
90
28
23
182
82
79
150
89
155
196
125
57
5
131
191
184
7
176
103
53
63
80
157
98
2
60
8
64
87
108
122
97
14
17
30
45
130
70
37
4
149
197
61
68
77
109
24
114
16
50
136
141
78
12
41

> <PUBCHEM_MMFF94_PARTIAL_CHARGES>
33
1 -0.34
10 0.28
11 0.3
12 0.3
13 0.28
14 0.28
15 0.54
16 0.09
17 0.39
18 -0.15
19 -0.15
2 -0.34
20 -0.14
21 -0.15
22 -0.15
23 0.16
24 1.16
25 0.16
26 0.16
3 -0.34
36 0.15
37 0.15
38 0.15
39 0.15
4 -0.56
40 0.15
41 0.15
42 0.15
5 -0.36
6 -0.57
7 -0.66
8 -0.62
9 -0.62

> <PUBCHEM_EFFECTIVE_ROTOR_COUNT>
6.4

> <PUBCHEM_PHARMACOPHORE_FEATURES>
6
1 4 acceptor
1 6 acceptor
1 9 acceptor
6 16 18 19 20 21 22 rings
6 8 9 17 23 25 26 rings
7 4 7 10 11 12 13 14 rings

> <PUBCHEM_HEAVY_ATOM_COUNT>
26

> <PUBCHEM_ATOM_DEF_STEREO_COUNT>
1

> <PUBCHEM_ATOM_UDEF_STEREO_COUNT>
0

> <PUBCHEM_BOND_DEF_STEREO_COUNT>
0

> <PUBCHEM_BOND_UDEF_STEREO_COUNT>
0

> <PUBCHEM_ISOTOPIC_ATOM_COUNT>
0

> <PUBCHEM_COMPONENT_COUNT>
1

> <PUBCHEM_CACTVS_TAUTO_COUNT>
1

> <PUBCHEM_CONFORMER_ID>
04809A0900000001

> <PUBCHEM_MMFF94_ENERGY>
78.6787

> <PUBCHEM_FEATURE_SELFOVERLAP>
30.448

> <PUBCHEM_SHAPE_FINGERPRINT>
10493431 412 18408887334726022989
10498660 4 18202004347809166728
10937287 8 18411416168467695031
11135609 201 18337950202849947121
11720765 8 17701266815835754542
12107183 9 18262223449281207770
12390115 104 18343591754463254299
12403259 118 17975681806708878075
12760667 363 8790885173120876297
12788726 201 18194672885885316187
12895837 130 18263372558622001588
13540713 5 18338776962622593779
13955234 65 18045787784402887915
13965767 371 17967525749491580430
14142880 1 18261389009411709839
14251764 38 18051128391768290260
14251764 75 18271251495864455489
14257110 125 18409168796569983269
1454969 45 18413103966952112343
14739800 52 17834091415480392408
14790565 3 18269558243673229809
14848178 5 8718819873605566685
14849402 71 18189899704150984594
15163728 17 18337114557350107974
15342168 16 18336262353975337199
21365058 113 17337043598461334199
21756936 100 18411979195503616062
21864079 5 18407760343707589522
23227448 37 18341332279395266029
23559900 14 17702943613327169862
245318 6 17750254640708197732
283562 15 18191015918769918147
2838139 119 18272080617656988044
345986 75 12036314692910105559
3472631 163 18413389834567602349
34797466 226 18130231433310601349
38570 142 18041011622251123038
5048184 11 18410572881403047241
5104073 3 18113613495492506402
5252454 2 18410845547365040528
550186 72 18410291407476655565
6034566 193 18411710902140311033
7288768 16 17967817162785659675
7808743 9 18410853295522751576
960060 61 12966832546836809993
9849439 229 18410565172105536905
9981440 41 18263357139684212626

> <PUBCHEM_SHAPE_MULTIPOLES>
480.7
13.48
4.42
1.12
2.26
1.38
-0.03
-16.87
0.44
1.31
-0.25
-0.69
0.18
-1.14

> <PUBCHEM_SHAPE_SELFOVERLAP>
1029.876

> <PUBCHEM_SHAPE_VOLUME>
264.3

> <PUBCHEM_COORDINATE_TYPE>
2
5
10

$$$$
