75368442
  -OEChem-12032416393D

 42 45  0     1  0  0  0  0  0999 V2000
   -6.0673    2.1357    1.9321 F   0  0  0  0  0  0  0  0  0  0  0  0
   -1.7751   -2.9834   -0.3565 O   0  0  0  0  0  0  0  0  0  0  0  0
    4.7115   -1.1899    1.5193 O   0  0  0  0  0  0  0  0  0  0  0  0
    4.2893    0.8951   -1.0244 O   0  0  0  0  0  0  0  0  0  0  0  0
    0.2372   -1.7740   -0.2690 N   0  0  0  0  0  0  0  0  0  0  0  0
   -1.5263   -0.8359   -1.2981 N   0  0  0  0  0  0  0  0  0  0  0  0
    2.5280   -0.6795    0.8616 N   0  0  0  0  0  0  0  0  0  0  0  0
    4.8760    2.0882   -1.4289 N   0  0  0  0  0  0  0  0  0  0  0  0
    0.7543   -0.5358   -0.8269 C   0  0  1  0  0  0  0  0  0  0  0  0
   -0.4932    0.1845   -1.3312 C   0  0  0  0  0  0  0  0  0  0  0  0
    1.5494    0.2260    0.2286 C   0  0  0  0  0  0  0  0  0  0  0  0
    1.1254   -2.6676    0.4542 C   0  0  0  0  0  0  0  0  0  0  0  0
    1.9428   -1.8793    1.4761 C   0  0  0  0  0  0  0  0  0  0  0  0
   -1.1044   -1.9919   -0.6119 C   0  0  0  0  0  0  0  0  0  0  0  0
   -2.8588   -0.5928   -1.8045 C   0  0  0  0  0  0  0  0  0  0  0  0
    3.9027   -0.4559    0.9533 C   0  0  0  0  0  0  0  0  0  0  0  0
   -3.7144    0.1349   -0.8083 C   0  0  0  0  0  0  0  0  0  0  0  0
    4.4517    0.7475    0.3154 C   0  0  0  0  0  0  0  0  0  0  0  0
   -4.4781   -0.5838    0.1115 C   0  0  0  0  0  0  0  0  0  0  0  0
   -3.7458    1.5294   -0.8021 C   0  0  0  0  0  0  0  0  0  0  0  0
    5.1378    1.8214    0.8178 C   0  0  0  0  0  0  0  0  0  0  0  0
   -5.2732    0.0918    1.0371 C   0  0  0  0  0  0  0  0  0  0  0  0
   -4.5409    2.2052    0.1234 C   0  0  0  0  0  0  0  0  0  0  0  0
   -5.3046    1.4864    1.0430 C   0  0  0  0  0  0  0  0  0  0  0  0
    5.3761    2.6236   -0.3117 C   0  0  0  0  0  0  0  0  0  0  0  0
    1.4032   -0.8142   -1.6670 H   0  0  0  0  0  0  0  0  0  0  0  0
   -0.7914    1.0092   -0.6765 H   0  0  0  0  0  0  0  0  0  0  0  0
   -0.3663    0.5560   -2.3525 H   0  0  0  0  0  0  0  0  0  0  0  0
    2.0122    1.1142   -0.2034 H   0  0  0  0  0  0  0  0  0  0  0  0
    0.8905    0.5731    1.0349 H   0  0  0  0  0  0  0  0  0  0  0  0
    1.7867   -3.1278   -0.2888 H   0  0  0  0  0  0  0  0  0  0  0  0
    0.5448   -3.4616    0.9337 H   0  0  0  0  0  0  0  0  0  0  0  0
    1.2984   -1.5351    2.2940 H   0  0  0  0  0  0  0  0  0  0  0  0
    2.7183   -2.5177    1.9104 H   0  0  0  0  0  0  0  0  0  0  0  0
   -3.3202   -1.5584   -2.0445 H   0  0  0  0  0  0  0  0  0  0  0  0
   -2.7840   -0.0361   -2.7458 H   0  0  0  0  0  0  0  0  0  0  0  0
   -4.4626   -1.6704    0.1182 H   0  0  0  0  0  0  0  0  0  0  0  0
   -3.1559    2.1010   -1.5138 H   0  0  0  0  0  0  0  0  0  0  0  0
    5.4232    1.9994    1.8438 H   0  0  0  0  0  0  0  0  0  0  0  0
   -5.8676   -0.4673    1.7535 H   0  0  0  0  0  0  0  0  0  0  0  0
   -4.5655    3.2909    0.1285 H   0  0  0  0  0  0  0  0  0  0  0  0
    5.8901    3.5716   -0.3705 H   0  0  0  0  0  0  0  0  0  0  0  0
  1 24  1  0  0  0  0
  2 14  2  0  0  0  0
  3 16  2  0  0  0  0
  4  8  1  0  0  0  0
  4 18  1  0  0  0  0
  5  9  1  0  0  0  0
  5 12  1  0  0  0  0
  5 14  1  0  0  0  0
  6 10  1  0  0  0  0
  6 14  1  0  0  0  0
  6 15  1  0  0  0  0
  7 11  1  0  0  0  0
  7 13  1  0  0  0  0
  7 16  1  0  0  0  0
  8 25  2  0  0  0  0
  9 10  1  0  0  0  0
  9 11  1  0  0  0  0
  9 26  1  0  0  0  0
 10 27  1  0  0  0  0
 10 28  1  0  0  0  0
 11 29  1  0  0  0  0
 11 30  1  0  0  0  0
 12 13  1  0  0  0  0
 12 31  1  0  0  0  0
 12 32  1  0  0  0  0
 13 33  1  0  0  0  0
 13 34  1  0  0  0  0
 15 17  1  0  0  0  0
 15 35  1  0  0  0  0
 15 36  1  0  0  0  0
 16 18  1  0  0  0  0
 17 19  2  0  0  0  0
 17 20  1  0  0  0  0
 18 21  2  0  0  0  0
 19 22  1  0  0  0  0
 19 37  1  0  0  0  0
 20 23  2  0  0  0  0
 20 38  1  0  0  0  0
 21 25  1  0  0  0  0
 21 39  1  0  0  0  0
 22 24  2  0  0  0  0
 22 40  1  0  0  0  0
 23 24  1  0  0  0  0
 23 41  1  0  0  0  0
 25 42  1  0  0  0  0
M  END
> <PUBCHEM_COMPOUND_CID>
75368442

> <PUBCHEM_CONFORMER_RMSD>
0.8

> <PUBCHEM_CONFORMER_DIVERSEORDER>
1
35
76
36
46
20
67
14
78
83
45
40
25
53
77
43
8
61
6
82
79
47
64
59
10
42
75
57
49
24
84
66
60
32
73
54
50
51
71
70
22
81
74
23
72
39
80
16
34
2
62
19
41
58
33
3
18
38
5
69
68
9
7
26
52
63
4
31
37
56
12
27
15
11
21
48
13
65
44
29
30
17
28
55

> <PUBCHEM_MMFF94_PARTIAL_CHARGES>
31
1 -0.19
10 0.3
11 0.3
12 0.3
13 0.3
14 0.69
15 0.44
16 0.71
17 -0.14
18 0.05
19 -0.15
2 -0.57
20 -0.15
21 -0.15
22 -0.15
23 -0.15
24 0.19
25 0.14
3 -0.57
37 0.15
38 0.15
39 0.15
4 -0.02
40 0.15
41 0.15
42 0.15
5 -0.66
6 -0.66
7 -0.66
8 -0.41
9 0.3

> <PUBCHEM_EFFECTIVE_ROTOR_COUNT>
5.2

> <PUBCHEM_PHARMACOPHORE_FEATURES>
7
1 2 acceptor
1 3 acceptor
1 8 acceptor
5 4 8 18 21 25 rings
5 5 6 9 10 14 rings
6 17 19 20 22 23 24 rings
6 5 7 9 11 12 13 rings

> <PUBCHEM_HEAVY_ATOM_COUNT>
25

> <PUBCHEM_ATOM_DEF_STEREO_COUNT>
1

> <PUBCHEM_ATOM_UDEF_STEREO_COUNT>
0

> <PUBCHEM_BOND_DEF_STEREO_COUNT>
0

> <PUBCHEM_BOND_UDEF_STEREO_COUNT>
0

> <PUBCHEM_ISOTOPIC_ATOM_COUNT>
0

> <PUBCHEM_COMPONENT_COUNT>
1

> <PUBCHEM_CACTVS_TAUTO_COUNT>
1

> <PUBCHEM_CONFORMER_ID>
047E07FA00000001

> <PUBCHEM_MMFF94_ENERGY>
55.0497

> <PUBCHEM_FEATURE_SELFOVERLAP>
35.621

> <PUBCHEM_SHAPE_FINGERPRINT>
105312 117 16702294672293480413
10753850 27 10953746616680324373
10794284 68 15725073047363333002
11135609 201 18265611172774818344
12390115 104 18336550533364614838
12422481 6 17676764279902639005
12596602 18 18040715866370964713
12616971 3 18338786845552422410
12788726 201 17846502508733225256
12892183 10 17604430691825003269
13075007 39 15864072091860351196
13398642 44 16952548028850292028
13583140 156 16589688085745160174
13782708 43 12830027969442639328
13828863 39 18335425685793233869
14251764 75 18335707208220826484
14341114 328 18410856551556296265
146900 427 18260830405885953624
14790565 3 18410855473192944516
14840074 17 18342749494223714993
14848178 5 11241968183205252657
14950920 106 17096356263686153857
15163728 17 17918280839538731543
15183329 4 12895356577349428561
15188451 53 11674866827693917604
15238133 3 17988916761042117090
15338160 23 18338241586970421587
16126227 98 17898019173102959124
17349148 13 11025798648002322660
1768 23 18342750610556268841
17857418 61 9151181960646227188
18222031 100 9511469931083611204
18785283 64 15864647196433908204
19377110 9 18260274079251884159
200 152 10015582839411624327
20028762 73 7925642098429816072
20621476 91 15719398373288857953
20739085 24 17894912889180984108
21120745 212 17982444112384240119
21302155 148 18412547578976191249
21756936 100 18272366520354408951
22393880 68 13470391267619782597
23559900 14 17988363655302107070
249057 25 18199444662906398871
25122255 55 11458965564933539528
2838139 119 16916775246135801633
3004659 81 10879994661959342064
312425 54 14924210574344425021
312425 83 15122643947355717121
314194 84 9295286187896764196
3178227 256 17895472515257304810
3459 110 17096095817043196041
38570 142 18270697401721647820
392239 28 16805318937385499976
5085150 59 13045934721250018569
5104073 3 18115011031164789946
57724786 102 17985552152571824033
59682541 52 13686023038367954757
633830 44 18412256238459413934
636775 72 17982163737230848320
76465 3 8430319043215584830
7808743 9 18342454876366749755
960060 61 12391512018578121680

> <PUBCHEM_SHAPE_MULTIPOLES>
469.68
14.26
2.93
1.55
0.54
0.3
0.04
-12.12
4.53
-0.85
0.28
0.63
-0.14
-2.46

> <PUBCHEM_SHAPE_SELFOVERLAP>
1017.601

> <PUBCHEM_SHAPE_VOLUME>
258.2

> <PUBCHEM_COORDINATE_TYPE>
2
5
10

$$$$
