71694098
  -OEChem-12032416273D

 52 55  0     0  0  0  0  0  0999 V2000
   -3.2494    3.7783    1.0734 O   0  0  0  0  0  0  0  0  0  0  0  0
    2.1428    2.5630    0.0724 O   0  0  0  0  0  0  0  0  0  0  0  0
   -1.6079   -2.2829   -0.2135 O   0  0  0  0  0  0  0  0  0  0  0  0
    6.7533   -1.7044    0.4514 O   0  0  0  0  0  0  0  0  0  0  0  0
   -2.3442    0.8272    0.3165 N   0  0  0  0  0  0  0  0  0  0  0  0
    0.9196    3.1719   -0.1803 N   0  0  0  0  0  0  0  0  0  0  0  0
   -2.2071    2.2517    0.0013 C   0  0  0  0  0  0  0  0  0  0  0  0
   -3.6045    2.8856   -0.0154 C   0  0  0  0  0  0  0  0  0  0  0  0
   -2.0328    3.0235    1.3160 C   0  0  0  0  0  0  0  0  0  0  0  0
   -1.2585    2.5206   -1.1381 C   0  0  0  0  0  0  0  0  0  0  0  0
   -3.0089    0.1476   -0.7889 C   0  0  0  0  0  0  0  0  0  0  0  0
    0.1635    2.2154   -0.7265 C   0  0  0  0  0  0  0  0  0  0  0  0
   -3.6968   -1.1139   -0.3390 C   0  0  0  0  0  0  0  0  0  0  0  0
    0.8493    0.9940   -0.8424 C   0  0  0  0  0  0  0  0  0  0  0  0
    2.0887    1.2663   -0.3262 C   0  0  0  0  0  0  0  0  0  0  0  0
   -2.9631   -2.2698   -0.0728 C   0  0  0  0  0  0  0  0  0  0  0  0
   -5.0836   -1.1179   -0.1889 C   0  0  0  0  0  0  0  0  0  0  0  0
    3.2860    0.5030   -0.1255 C   0  0  0  0  0  0  0  0  0  0  0  0
   -3.6162   -3.4301    0.3431 C   0  0  0  0  0  0  0  0  0  0  0  0
   -5.7366   -2.2783    0.2269 C   0  0  0  0  0  0  0  0  0  0  0  0
   -5.0030   -3.4343    0.4930 C   0  0  0  0  0  0  0  0  0  0  0  0
    3.3283   -0.8398   -0.5004 C   0  0  0  0  0  0  0  0  0  0  0  0
    4.4087    1.1038    0.4440 C   0  0  0  0  0  0  0  0  0  0  0  0
    4.4930   -1.5820   -0.3056 C   0  0  0  0  0  0  0  0  0  0  0  0
    5.5735    0.3617    0.6388 C   0  0  0  0  0  0  0  0  0  0  0  0
   -0.9381   -3.5076    0.0800 C   0  0  0  0  0  0  0  0  0  0  0  0
    5.6157   -0.9812    0.2640 C   0  0  0  0  0  0  0  0  0  0  0  0
    6.7282   -3.0713    0.0426 C   0  0  0  0  0  0  0  0  0  0  0  0
   -4.4662    2.2744    0.2744 H   0  0  0  0  0  0  0  0  0  0  0  0
   -3.8552    3.4496   -0.9194 H   0  0  0  0  0  0  0  0  0  0  0  0
   -2.1100    2.4563    2.2506 H   0  0  0  0  0  0  0  0  0  0  0  0
   -1.1778    3.7003    1.3874 H   0  0  0  0  0  0  0  0  0  0  0  0
   -1.3101    3.5798   -1.4254 H   0  0  0  0  0  0  0  0  0  0  0  0
   -1.5118    1.9627   -2.0466 H   0  0  0  0  0  0  0  0  0  0  0  0
   -1.4819    0.3454    0.5644 H   0  0  0  0  0  0  0  0  0  0  0  0
   -2.2767   -0.1170   -1.5631 H   0  0  0  0  0  0  0  0  0  0  0  0
   -3.7481    0.7697   -1.3084 H   0  0  0  0  0  0  0  0  0  0  0  0
    0.4868    0.0590   -1.2441 H   0  0  0  0  0  0  0  0  0  0  0  0
   -5.6692   -0.2247   -0.3896 H   0  0  0  0  0  0  0  0  0  0  0  0
   -3.1134   -4.3643    0.5679 H   0  0  0  0  0  0  0  0  0  0  0  0
   -6.8163   -2.2815    0.3443 H   0  0  0  0  0  0  0  0  0  0  0  0
   -5.5127   -4.3371    0.8170 H   0  0  0  0  0  0  0  0  0  0  0  0
    2.4689   -1.3347   -0.9459 H   0  0  0  0  0  0  0  0  0  0  0  0
    4.4152    2.1472    0.7487 H   0  0  0  0  0  0  0  0  0  0  0  0
    4.4573   -2.6197   -0.6193 H   0  0  0  0  0  0  0  0  0  0  0  0
    6.4454    0.8348    1.0824 H   0  0  0  0  0  0  0  0  0  0  0  0
    0.1309   -3.3361   -0.0848 H   0  0  0  0  0  0  0  0  0  0  0  0
   -1.2403   -4.3076   -0.6044 H   0  0  0  0  0  0  0  0  0  0  0  0
   -1.0553   -3.7901    1.1317 H   0  0  0  0  0  0  0  0  0  0  0  0
    7.7141   -3.4931    0.2644 H   0  0  0  0  0  0  0  0  0  0  0  0
    6.5761   -3.1655   -1.0380 H   0  0  0  0  0  0  0  0  0  0  0  0
    5.9966   -3.6497    0.6169 H   0  0  0  0  0  0  0  0  0  0  0  0
  1  8  1  0  0  0  0
  1  9  1  0  0  0  0
  2  6  1  0  0  0  0
  2 15  1  0  0  0  0
  3 16  1  0  0  0  0
  3 26  1  0  0  0  0
  4 27  1  0  0  0  0
  4 28  1  0  0  0  0
  5  7  1  0  0  0  0
  5 11  1  0  0  0  0
  5 35  1  0  0  0  0
  6 12  2  0  0  0  0
  7  8  1  0  0  0  0
  7  9  1  0  0  0  0
  7 10  1  0  0  0  0
  8 29  1  0  0  0  0
  8 30  1  0  0  0  0
  9 31  1  0  0  0  0
  9 32  1  0  0  0  0
 10 12  1  0  0  0  0
 10 33  1  0  0  0  0
 10 34  1  0  0  0  0
 11 13  1  0  0  0  0
 11 36  1  0  0  0  0
 11 37  1  0  0  0  0
 12 14  1  0  0  0  0
 13 16  1  0  0  0  0
 13 17  2  0  0  0  0
 14 15  2  0  0  0  0
 14 38  1  0  0  0  0
 15 18  1  0  0  0  0
 16 19  2  0  0  0  0
 17 20  1  0  0  0  0
 17 39  1  0  0  0  0
 18 22  2  0  0  0  0
 18 23  1  0  0  0  0
 19 21  1  0  0  0  0
 19 40  1  0  0  0  0
 20 21  2  0  0  0  0
 20 41  1  0  0  0  0
 21 42  1  0  0  0  0
 22 24  1  0  0  0  0
 22 43  1  0  0  0  0
 23 25  2  0  0  0  0
 23 44  1  0  0  0  0
 24 27  2  0  0  0  0
 24 45  1  0  0  0  0
 25 27  1  0  0  0  0
 25 46  1  0  0  0  0
 26 47  1  0  0  0  0
 26 48  1  0  0  0  0
 26 49  1  0  0  0  0
 28 50  1  0  0  0  0
 28 51  1  0  0  0  0
 28 52  1  0  0  0  0
M  END
> <PUBCHEM_COMPOUND_CID>
71694098

> <PUBCHEM_CONFORMER_RMSD>
1

> <PUBCHEM_CONFORMER_DIVERSEORDER>
1
121
20
79
56
108
114
39
47
16
82
52
67
61
62
97
45
125
93
83
98
30
126
33
50
101
123
48
130
73
21
15
89
124
110
131
99
13
54
96
104
43
112
59
94
78
100
53
81
58
128
120
76
75
7
24
14
91
119
64
85
77
38
92
80
11
74
57
72
129
37
41
19
28
60
27
44
51
113
25
117
116
68
109
106
12
22
34
107
49
69
65
111
84
127
122
36
5
40
118
10
115
103
90
86
87
17
42
18
32
9
29
66
105
63
95
55
70
6
3
4
102
8
2
71
88
35
31
26
23
46

> <PUBCHEM_MMFF94_PARTIAL_CHARGES>
38
1 -0.52
10 0.18
11 0.41
12 0.11
13 -0.14
14 -0.15
15 0.09
16 0.08
17 -0.15
18 0.05
19 -0.15
2 -0.02
20 -0.15
21 -0.15
22 -0.15
23 -0.15
24 -0.15
25 -0.15
26 0.28
27 0.08
28 0.28
3 -0.36
35 0.36
38 0.15
39 0.15
4 -0.36
40 0.15
41 0.15
42 0.15
43 0.15
44 0.15
45 0.15
46 0.15
5 -0.84
6 -0.41
7 0.21
8 0.26
9 0.26

> <PUBCHEM_EFFECTIVE_ROTOR_COUNT>
8.8

> <PUBCHEM_PHARMACOPHORE_FEATURES>
10
1 1 acceptor
1 3 acceptor
1 4 acceptor
1 5 cation
1 5 donor
1 6 acceptor
4 1 7 8 9 rings
5 2 6 12 14 15 rings
6 13 16 17 19 20 21 rings
6 18 22 23 24 25 27 rings

> <PUBCHEM_HEAVY_ATOM_COUNT>
28

> <PUBCHEM_ATOM_DEF_STEREO_COUNT>
0

> <PUBCHEM_ATOM_UDEF_STEREO_COUNT>
0

> <PUBCHEM_BOND_DEF_STEREO_COUNT>
0

> <PUBCHEM_BOND_UDEF_STEREO_COUNT>
0

> <PUBCHEM_ISOTOPIC_ATOM_COUNT>
0

> <PUBCHEM_COMPONENT_COUNT>
1

> <PUBCHEM_CACTVS_TAUTO_COUNT>
1

> <PUBCHEM_CONFORMER_ID>
0445F71200000001

> <PUBCHEM_MMFF94_ENERGY>
89.2136

> <PUBCHEM_FEATURE_SELFOVERLAP>
50.748

> <PUBCHEM_SHAPE_FINGERPRINT>
10939801 23 18338513171043618226
1100329 8 17762340210764803167
11135609 12 18261944271315739636
117089 54 18341057311817099454
12107183 9 18268163101330620459
12422481 6 18128283162951330883
12760667 363 18340763827994797087
12788726 201 18268446783150725437
13004483 165 18268146642367433005
13402501 40 18409728495207223174
13911852 28 18195806504270116615
14725015 67 18410852183543381807
14844126 61 18343578538864494171
14866123 147 18411423878455951761
15042514 8 18410011005239228236
15320467 1 18409729577787369098
15352361 1 18336826506208508007
15361156 5 17968675813217096892
15927050 60 18052535470594038373
16120349 21 18339371781775813081
17492 89 18338234976287759037
17627616 140 17825660050057755883
19141452 34 18337112241920032892
23559900 14 18338788031043050093
3004659 81 17969778768669841173
3680242 22 18193852646269111619
4073 2 18341611461381491490
463206 1 17977103792607610971
469060 322 17167860833614044374
484985 159 18262231123828323287
5104073 3 18271232838890109352
54583773 228 18334581249233792934
5486654 36 18408890607090552672
563151 248 18265633004262584353
563151 74 15768943342114854029
56633871 153 18268149936586880247
653340 110 18412259510960365698
7970288 3 18265050421676373227
79837 15 18055366747084524929
9961470 85 17907286663721808418
9981440 41 16342294641096703541

> <PUBCHEM_SHAPE_MULTIPOLES>
542.79
14.91
5.49
0.89
17.25
0.05
0.03
-14.4
2.29
-5.15
0.87
-0.22
0.47
-0.16

> <PUBCHEM_SHAPE_SELFOVERLAP>
1173.845

> <PUBCHEM_SHAPE_VOLUME>
300.2

> <PUBCHEM_COORDINATE_TYPE>
2
5
10

$$$$
