45783808
  -OEChem-12032416263D

 48 50  0     1  0  0  0  0  0999 V2000
   -1.4965    0.0811    2.0748 O   0  0  0  0  0  0  0  0  0  0  0  0
   -3.7120   -0.2833   -0.6283 N   0  0  1  0  0  0  0  0  0  0  0  0
   -0.6929   -0.7003    0.1355 N   0  0  0  0  0  0  0  0  0  0  0  0
   -0.1172    0.3238    2.0987 N   0  0  0  0  0  0  0  0  0  0  0  0
    3.9482    0.4739    0.9750 N   0  0  0  0  0  0  0  0  0  0  0  0
    5.6422   -0.0040   -0.6303 N   0  0  0  0  0  0  0  0  0  0  0  0
   -3.1942   -0.8944    0.6121 C   0  0  1  0  0  0  0  0  0  0  0  0
   -3.3921   -2.4086    0.4144 C   0  0  0  0  0  0  0  0  0  0  0  0
   -4.7342   -1.1949   -1.1427 C   0  0  0  0  0  0  0  0  0  0  0  0
   -4.0816   -2.5467   -0.9356 C   0  0  0  0  0  0  0  0  0  0  0  0
   -4.2286    1.0652   -0.4322 C   0  0  0  0  0  0  0  0  0  0  0  0
   -3.1164    2.1279   -0.4445 C   0  0  0  0  0  0  0  0  0  0  0  0
   -1.7515   -0.5241    0.8852 C   0  0  0  0  0  0  0  0  0  0  0  0
   -2.3867    2.0965   -1.7901 C   0  0  0  0  0  0  0  0  0  0  0  0
   -3.6491    3.5387   -0.1809 C   0  0  0  0  0  0  0  0  0  0  0  0
    0.2853   -0.1645    0.9216 C   0  0  0  0  0  0  0  0  0  0  0  0
    1.6566   -0.1340    0.5019 C   0  0  0  0  0  0  0  0  0  0  0  0
    2.0408   -0.6529   -0.7297 C   0  0  0  0  0  0  0  0  0  0  0  0
    2.6398    0.4135    1.3101 C   0  0  0  0  0  0  0  0  0  0  0  0
    3.3777   -0.6091   -1.1097 C   0  0  0  0  0  0  0  0  0  0  0  0
    4.2839   -0.0403   -0.2294 C   0  0  0  0  0  0  0  0  0  0  0  0
    6.0373   -0.5459   -1.9116 C   0  0  0  0  0  0  0  0  0  0  0  0
    6.6412    0.5821    0.2357 C   0  0  0  0  0  0  0  0  0  0  0  0
   -3.8032   -0.5967    1.4773 H   0  0  0  0  0  0  0  0  0  0  0  0
   -2.4620   -2.9865    0.4374 H   0  0  0  0  0  0  0  0  0  0  0  0
   -4.0485   -2.7997    1.2015 H   0  0  0  0  0  0  0  0  0  0  0  0
   -5.6655   -1.1296   -0.5657 H   0  0  0  0  0  0  0  0  0  0  0  0
   -4.9554   -1.0132   -2.1990 H   0  0  0  0  0  0  0  0  0  0  0  0
   -4.8039   -3.3681   -0.9493 H   0  0  0  0  0  0  0  0  0  0  0  0
   -3.3354   -2.7352   -1.7174 H   0  0  0  0  0  0  0  0  0  0  0  0
   -4.8194    1.1401    0.4900 H   0  0  0  0  0  0  0  0  0  0  0  0
   -4.9218    1.3116   -1.2490 H   0  0  0  0  0  0  0  0  0  0  0  0
   -2.3906    1.9284    0.3480 H   0  0  0  0  0  0  0  0  0  0  0  0
   -3.0750    2.2833   -2.6217 H   0  0  0  0  0  0  0  0  0  0  0  0
   -1.6079    2.8665   -1.8228 H   0  0  0  0  0  0  0  0  0  0  0  0
   -1.8939    1.1351   -1.9650 H   0  0  0  0  0  0  0  0  0  0  0  0
   -4.3707    3.8394   -0.9479 H   0  0  0  0  0  0  0  0  0  0  0  0
   -2.8342    4.2702   -0.1745 H   0  0  0  0  0  0  0  0  0  0  0  0
   -4.1500    3.5852    0.7918 H   0  0  0  0  0  0  0  0  0  0  0  0
    1.3202   -1.0964   -1.4120 H   0  0  0  0  0  0  0  0  0  0  0  0
    2.4234    0.8393    2.2854 H   0  0  0  0  0  0  0  0  0  0  0  0
    3.6338   -1.0241   -2.0769 H   0  0  0  0  0  0  0  0  0  0  0  0
    5.8190   -1.6177   -1.9788 H   0  0  0  0  0  0  0  0  0  0  0  0
    5.5544   -0.0134   -2.7388 H   0  0  0  0  0  0  0  0  0  0  0  0
    7.1168   -0.4446   -2.0732 H   0  0  0  0  0  0  0  0  0  0  0  0
    6.4175    1.6375    0.4263 H   0  0  0  0  0  0  0  0  0  0  0  0
    6.6821    0.0528    1.1941 H   0  0  0  0  0  0  0  0  0  0  0  0
    7.6443    0.5373   -0.2016 H   0  0  0  0  0  0  0  0  0  0  0  0
  1  4  1  0  0  0  0
  1 13  1  0  0  0  0
  2  7  1  0  0  0  0
  2  9  1  0  0  0  0
  2 11  1  0  0  0  0
  3 13  2  0  0  0  0
  3 16  1  0  0  0  0
  4 16  2  0  0  0  0
  5 19  1  0  0  0  0
  5 21  2  0  0  0  0
  6 21  1  0  0  0  0
  6 22  1  0  0  0  0
  6 23  1  0  0  0  0
  7  8  1  0  0  0  0
  7 13  1  0  0  0  0
  7 24  1  0  0  0  0
  8 10  1  0  0  0  0
  8 25  1  0  0  0  0
  8 26  1  0  0  0  0
  9 10  1  0  0  0  0
  9 27  1  0  0  0  0
  9 28  1  0  0  0  0
 10 29  1  0  0  0  0
 10 30  1  0  0  0  0
 11 12  1  0  0  0  0
 11 31  1  0  0  0  0
 11 32  1  0  0  0  0
 12 14  1  0  0  0  0
 12 15  1  0  0  0  0
 12 33  1  0  0  0  0
 14 34  1  0  0  0  0
 14 35  1  0  0  0  0
 14 36  1  0  0  0  0
 15 37  1  0  0  0  0
 15 38  1  0  0  0  0
 15 39  1  0  0  0  0
 16 17  1  0  0  0  0
 17 18  1  0  0  0  0
 17 19  2  0  0  0  0
 18 20  2  0  0  0  0
 18 40  1  0  0  0  0
 19 41  1  0  0  0  0
 20 21  1  0  0  0  0
 20 42  1  0  0  0  0
 22 43  1  0  0  0  0
 22 44  1  0  0  0  0
 22 45  1  0  0  0  0
 23 46  1  0  0  0  0
 23 47  1  0  0  0  0
 23 48  1  0  0  0  0
M  END
> <PUBCHEM_COMPOUND_CID>
45783808

> <PUBCHEM_CONFORMER_RMSD>
0.8

> <PUBCHEM_CONFORMER_DIVERSEORDER>
1
13
23
31
21
36
8
37
12
18
24
3
35
22
6
20
14
16
11
17
10
7
32
34
15
28
2
5
4
33
27
9
19
30
26
29
25

> <PUBCHEM_MMFF94_PARTIAL_CHARGES>
21
1 -0.02
11 0.27
13 0.3
16 0.46
17 0.05
18 -0.15
19 0.16
2 -0.81
20 -0.15
21 0.41
22 0.37
23 0.37
3 -0.57
4 -0.41
40 0.15
41 0.15
42 0.15
5 -0.62
6 -0.84
7 0.45
9 0.27

> <PUBCHEM_EFFECTIVE_ROTOR_COUNT>
6

> <PUBCHEM_PHARMACOPHORE_FEATURES>
7
1 2 cation
3 12 14 15 hydrophobe
3 3 4 16 cation
3 5 6 21 cation
5 1 3 4 13 16 rings
5 2 7 8 9 10 rings
6 5 17 18 19 20 21 rings

> <PUBCHEM_HEAVY_ATOM_COUNT>
23

> <PUBCHEM_ATOM_DEF_STEREO_COUNT>
1

> <PUBCHEM_ATOM_UDEF_STEREO_COUNT>
0

> <PUBCHEM_BOND_DEF_STEREO_COUNT>
0

> <PUBCHEM_BOND_UDEF_STEREO_COUNT>
0

> <PUBCHEM_ISOTOPIC_ATOM_COUNT>
0

> <PUBCHEM_COMPONENT_COUNT>
1

> <PUBCHEM_CACTVS_TAUTO_COUNT>
1

> <PUBCHEM_CONFORMER_ID>
02BA9B0000000001

> <PUBCHEM_MMFF94_ENERGY>
53.5483

> <PUBCHEM_FEATURE_SELFOVERLAP>
35.522

> <PUBCHEM_SHAPE_FINGERPRINT>
10 15 11963678863319910990
10087517 78 17967811648279968092
10165383 225 18200600177646670521
10871710 139 17386277693723292693
10937287 8 17688301297090517397
11049842 53 17975951199589839971
11089746 13 17676203611452258572
11315181 36 17240768419455532428
12236239 1 16877938334652216362
13004483 165 8789441544666622081
13761468 95 17608090862554482340
13947920 75 18186794773381409533
13994607 96 16878235181950102929
14251764 38 18260552272684586412
14251764 75 17611741202778903429
14713325 29 18334583434385845683
15183329 4 17312821546812310370
15188451 53 10015567394883437593
15788980 27 15195568996159704106
15961568 22 18045770445583477260
17818456 19 17829867868292964288
17844677 252 18410294744127738940
17857418 61 13614234850675040932
17980427 23 17603597326288037812
1813 80 15195015997440085024
19489759 90 18260265261304210858
200 152 16200434654442694282
20281389 69 13984662590189615814
20300324 65 18187079568420522317
21033650 10 18262529099927200728
21756936 100 17458352896789484745
22393880 68 18272087167424111590
2297311 6 18337110159403745527
23198884 109 18334013869538781348
23402539 116 17894347804417923630
23522609 53 12822461267764162994
23557571 272 18342175561663792869
23559900 14 17560797758029484042
27216 239 12468352454064282275
314194 84 15554450678593767430
3268164 11 18334006199096429981
4169191 19 16227191373806882596
46194498 28 18200304554219582700
484985 159 14333114309237859813
5104073 3 13984951796339872816
5283173 99 18412823564894702304
531348 171 18337956675534837086
59755656 520 17915474813171865809

> <PUBCHEM_SHAPE_MULTIPOLES>
442.55
13.76
2.44
1.67
19.26
1.42
0.15
-0.21
-5.33
-5.76
-0.71
0.51
0.04
0.71

> <PUBCHEM_SHAPE_SELFOVERLAP>
928.003

> <PUBCHEM_SHAPE_VOLUME>
253.8

> <PUBCHEM_COORDINATE_TYPE>
2
5
10

$$$$
