26745453
  -OEChem-12032416353D

 46 49  0     1  0  0  0  0  0999 V2000
    3.9456   -2.3476   -1.1008 S   0  0  0  0  0  0  0  0  0  0  0  0
    1.0469    3.6207    1.6143 O   0  0  0  0  0  0  0  0  0  0  0  0
    0.6601    1.3909    2.0772 O   0  0  0  0  0  0  0  0  0  0  0  0
    3.9973    0.4876    0.2680 O   0  0  0  0  0  0  0  0  0  0  0  0
    1.6999    0.5796   -0.1989 N   0  0  0  0  0  0  0  0  0  0  0  0
   -1.6848    0.3499   -1.7854 N   0  0  0  0  0  0  0  0  0  0  0  0
   -1.3827    2.5126   -2.2547 N   0  0  0  0  0  0  0  0  0  0  0  0
    1.6434    2.0545   -0.0216 C   0  0  1  0  0  0  0  0  0  0  0  0
    0.8620    2.8016   -1.1231 C   0  0  0  0  0  0  0  0  0  0  0  0
   -0.4867    0.6983   -1.2362 C   0  0  0  0  0  0  0  0  0  0  0  0
    0.4331   -0.1608   -0.4684 C   0  0  0  0  0  0  0  0  0  0  0  0
   -0.3270    2.0282   -1.5343 C   0  0  0  0  0  0  0  0  0  0  0  0
   -2.3206   -0.9444   -1.7455 C   0  0  0  0  0  0  0  0  0  0  0  0
   -2.1857    1.4762   -2.3885 C   0  0  0  0  0  0  0  0  0  0  0  0
    1.0580    2.2847    1.3426 C   0  0  0  0  0  0  0  0  0  0  0  0
    2.9236   -0.0683    0.0407 C   0  0  0  0  0  0  0  0  0  0  0  0
   -2.9829   -1.2446   -0.4238 C   0  0  0  0  0  0  0  0  0  0  0  0
    2.9444   -1.5379    0.0279 C   0  0  0  0  0  0  0  0  0  0  0  0
   -2.6176   -2.3818    0.2968 C   0  0  0  0  0  0  0  0  0  0  0  0
   -3.9604   -0.3853    0.0779 C   0  0  0  0  0  0  0  0  0  0  0  0
    2.2469   -2.4186    0.8252 C   0  0  0  0  0  0  0  0  0  0  0  0
    0.5117    3.9842    2.8908 C   0  0  0  0  0  0  0  0  0  0  0  0
   -3.2299   -2.6596    1.5190 C   0  0  0  0  0  0  0  0  0  0  0  0
   -4.5726   -0.6630    1.2999 C   0  0  0  0  0  0  0  0  0  0  0  0
    2.5383   -3.7760    0.5050 C   0  0  0  0  0  0  0  0  0  0  0  0
    3.4473   -3.8810   -0.5246 C   0  0  0  0  0  0  0  0  0  0  0  0
   -4.2074   -1.8003    2.0205 C   0  0  0  0  0  0  0  0  0  0  0  0
    2.6659    2.4495    0.0132 H   0  0  0  0  0  0  0  0  0  0  0  0
    1.5110    2.9056   -2.0019 H   0  0  0  0  0  0  0  0  0  0  0  0
    0.5727    3.8115   -0.8150 H   0  0  0  0  0  0  0  0  0  0  0  0
   -0.0054   -0.4499    0.4910 H   0  0  0  0  0  0  0  0  0  0  0  0
    0.6563   -1.0660   -1.0400 H   0  0  0  0  0  0  0  0  0  0  0  0
   -1.5562   -1.6908   -1.9915 H   0  0  0  0  0  0  0  0  0  0  0  0
   -3.0704   -0.9863   -2.5449 H   0  0  0  0  0  0  0  0  0  0  0  0
   -3.1351    1.4816   -2.9066 H   0  0  0  0  0  0  0  0  0  0  0  0
   -1.8563   -3.0590   -0.0809 H   0  0  0  0  0  0  0  0  0  0  0  0
   -4.2662    0.4997   -0.4729 H   0  0  0  0  0  0  0  0  0  0  0  0
    1.5643   -2.1121    1.6077 H   0  0  0  0  0  0  0  0  0  0  0  0
    1.1077    3.5376    3.6923 H   0  0  0  0  0  0  0  0  0  0  0  0
   -0.5340    3.6710    2.9656 H   0  0  0  0  0  0  0  0  0  0  0  0
    0.5595    5.0725    2.9822 H   0  0  0  0  0  0  0  0  0  0  0  0
   -2.9451   -3.5446    2.0803 H   0  0  0  0  0  0  0  0  0  0  0  0
   -5.3353    0.0048    1.6897 H   0  0  0  0  0  0  0  0  0  0  0  0
    2.1043   -4.6318    1.0054 H   0  0  0  0  0  0  0  0  0  0  0  0
    3.8429   -4.7851   -0.9658 H   0  0  0  0  0  0  0  0  0  0  0  0
   -4.6843   -2.0167    2.9719 H   0  0  0  0  0  0  0  0  0  0  0  0
  1 18  1  0  0  0  0
  1 26  1  0  0  0  0
  2 15  1  0  0  0  0
  2 22  1  0  0  0  0
  3 15  2  0  0  0  0
  4 16  2  0  0  0  0
  5  8  1  0  0  0  0
  5 11  1  0  0  0  0
  5 16  1  0  0  0  0
  6 10  1  0  0  0  0
  6 13  1  0  0  0  0
  6 14  1  0  0  0  0
  7 12  1  0  0  0  0
  7 14  2  0  0  0  0
  8  9  1  0  0  0  0
  8 15  1  0  0  0  0
  8 28  1  0  0  0  0
  9 12  1  0  0  0  0
  9 29  1  0  0  0  0
  9 30  1  0  0  0  0
 10 11  1  0  0  0  0
 10 12  2  0  0  0  0
 11 31  1  0  0  0  0
 11 32  1  0  0  0  0
 13 17  1  0  0  0  0
 13 33  1  0  0  0  0
 13 34  1  0  0  0  0
 14 35  1  0  0  0  0
 16 18  1  0  0  0  0
 17 19  2  0  0  0  0
 17 20  1  0  0  0  0
 18 21  2  0  0  0  0
 19 23  1  0  0  0  0
 19 36  1  0  0  0  0
 20 24  2  0  0  0  0
 20 37  1  0  0  0  0
 21 25  1  0  0  0  0
 21 38  1  0  0  0  0
 22 39  1  0  0  0  0
 22 40  1  0  0  0  0
 22 41  1  0  0  0  0
 23 27  2  0  0  0  0
 23 42  1  0  0  0  0
 24 27  1  0  0  0  0
 24 43  1  0  0  0  0
 25 26  2  0  0  0  0
 25 44  1  0  0  0  0
 26 45  1  0  0  0  0
 27 46  1  0  0  0  0
M  END
> <PUBCHEM_COMPOUND_CID>
26745453

> <PUBCHEM_CONFORMER_RMSD>
0.8

> <PUBCHEM_CONFORMER_DIVERSEORDER>
1
64
44
29
92
81
59
31
94
22
93
13
80
52
12
30
42
50
66
39
84
38
20
70
71
78
19
68
47
35
56
74
60
51
34
36
53
54
14
67
49
45
57
48
28
95
90
9
10
83
65
61
11
43
77
23
96
85
87
82
55
27
15
72
79
21
41
86
73
33
18
24
40
7
16
91
88
6
76
75
46
26
89
32
62
25
37
69
3
4
17
2
63
8
58
5

> <PUBCHEM_MMFF94_PARTIAL_CHARGES>
36
1 -0.08
10 -0.33
11 0.48
12 0.05
13 0.4
14 0.04
15 0.66
16 0.71
17 -0.14
18 -0.05
19 -0.15
2 -0.43
20 -0.15
21 -0.15
22 0.28
23 -0.15
24 -0.15
25 -0.15
26 -0.11
27 -0.15
3 -0.57
35 0.15
36 0.15
37 0.15
38 0.15
4 -0.57
42 0.15
43 0.15
44 0.15
45 0.15
46 0.15
5 -0.66
6 0.05
7 -0.57
8 0.36
9 0.18

> <PUBCHEM_EFFECTIVE_ROTOR_COUNT>
6.8

> <PUBCHEM_PHARMACOPHORE_FEATURES>
7
1 3 acceptor
1 4 acceptor
3 6 7 14 cation
5 1 18 21 25 26 rings
5 6 7 10 12 14 rings
6 17 19 20 23 24 27 rings
6 5 8 9 10 11 12 rings

> <PUBCHEM_HEAVY_ATOM_COUNT>
27

> <PUBCHEM_ATOM_DEF_STEREO_COUNT>
1

> <PUBCHEM_ATOM_UDEF_STEREO_COUNT>
0

> <PUBCHEM_BOND_DEF_STEREO_COUNT>
0

> <PUBCHEM_BOND_UDEF_STEREO_COUNT>
0

> <PUBCHEM_ISOTOPIC_ATOM_COUNT>
0

> <PUBCHEM_COMPONENT_COUNT>
1

> <PUBCHEM_CACTVS_TAUTO_COUNT>
1

> <PUBCHEM_CONFORMER_ID>
01981A6D00000001

> <PUBCHEM_MMFF94_ENERGY>
63.4465

> <PUBCHEM_FEATURE_SELFOVERLAP>
35.626

> <PUBCHEM_SHAPE_FINGERPRINT>
10064457 181 17547862209765777328
10670039 82 11164793552821651090
10764073 3 15117638699864415415
12156800 1 17121185319289918175
12160290 23 17621589519827135486
12506688 2 18409165489587726646
12553582 1 18114464538888223735
12714826 92 18115870702448269407
12788726 201 17555157057373504196
13135754 10 17554071852065701910
13533116 47 18268717289403830971
13583140 156 17985836062921624707
14022347 108 17386268936221412725
15420108 30 16386207383490266973
17974551 9 18337971046996076321
19315092 285 17054670677322429743
21315764 371 17119460624192147747
23466295 7 17830184502015033558
23559900 14 18116437127858537867
3380486 145 17984671538115757346
35225 105 16910869592651761315
3737641 26 18336276682013065414
484985 159 17688039608447741258
57527585 103 17402910920306747831
59444896 2 17183411213665220612
6287921 2 17830468528218142595
6823239 73 17313951964686950211
7097593 13 18272657882615191471
81228 2 17479997719627264444
9981440 41 17189472980373239369

> <PUBCHEM_SHAPE_MULTIPOLES>
526.95
7.38
5.23
2.42
1.88
1.1
-0.37
-8.48
-1.21
-2.93
-2.45
1.66
2.27
2.31

> <PUBCHEM_SHAPE_SELFOVERLAP>
1136.517

> <PUBCHEM_SHAPE_VOLUME>
290.7

> <PUBCHEM_COORDINATE_TYPE>
2
5
10

$$$$
