25389952
  -OEChem-12032416163D

 60 64  0     1  0  0  0  0  0999 V2000
   -4.9443   -4.2632   -1.6645 F   0  0  0  0  0  0  0  0  0  0  0  0
    1.0085   -2.9317    2.0048 O   0  0  0  0  0  0  0  0  0  0  0  0
    0.0539   -0.8991    2.5469 O   0  0  0  0  0  0  0  0  0  0  0  0
   -4.8645    5.7961    0.5706 O   0  0  0  0  0  0  0  0  0  0  0  0
   -0.2397   -0.2104   -0.0845 N   0  0  2  0  0  0  0  0  0  0  0  0
    2.9892    1.7040    0.0450 N   0  0  0  0  0  0  0  0  0  0  0  0
   -1.9757    3.6943   -0.3067 N   0  0  0  0  0  0  0  0  0  0  0  0
    0.5686    0.9500    0.4017 C   0  0  2  0  0  0  0  0  0  0  0  0
   -1.6709   -0.0863    0.2914 C   0  0  1  0  0  0  0  0  0  0  0  0
    0.0140    2.2703   -0.1558 C   0  0  0  0  0  0  0  0  0  0  0  0
   -1.4469    2.4525    0.2549 C   0  0  2  0  0  0  0  0  0  0  0  0
   -2.2650    1.2505   -0.2147 C   0  0  0  0  0  0  0  0  0  0  0  0
    0.3794   -1.5245    0.2410 C   0  0  1  0  0  0  0  0  0  0  0  0
    2.0076    0.7528    0.0287 C   0  0  0  0  0  0  0  0  0  0  0  0
    1.7773   -1.6993   -0.4054 C   0  0  0  0  0  0  0  0  0  0  0  0
    2.5812   -0.4493   -0.3236 C   0  0  0  0  0  0  0  0  0  0  0  0
   -2.5544   -1.2138   -0.2366 C   0  0  0  0  0  0  0  0  0  0  0  0
    3.9621   -0.2170   -0.5672 C   0  0  0  0  0  0  0  0  0  0  0  0
    4.1913    1.1419   -0.3296 C   0  0  0  0  0  0  0  0  0  0  0  0
    0.4484   -1.7196    1.7294 C   0  0  0  0  0  0  0  0  0  0  0  0
   -3.1439    4.1399    0.4370 C   0  0  0  0  0  0  0  0  0  0  0  0
   -3.6427   -1.6571    0.5149 C   0  0  0  0  0  0  0  0  0  0  0  0
   -2.2737   -1.8008   -1.4705 C   0  0  0  0  0  0  0  0  0  0  0  0
    5.0451   -1.0278   -0.9623 C   0  0  0  0  0  0  0  0  0  0  0  0
    5.4540    1.7290   -0.4700 C   0  0  0  0  0  0  0  0  0  0  0  0
   -3.7184    5.4076   -0.1751 C   0  0  0  0  0  0  0  0  0  0  0  0
    6.3124   -0.4524   -1.1082 C   0  0  0  0  0  0  0  0  0  0  0  0
   -4.4500   -2.6873    0.0329 C   0  0  0  0  0  0  0  0  0  0  0  0
   -3.0808   -2.8310   -1.9526 C   0  0  0  0  0  0  0  0  0  0  0  0
    6.5115    0.9050   -0.8655 C   0  0  0  0  0  0  0  0  0  0  0  0
   -4.1690   -3.2743   -1.2009 C   0  0  0  0  0  0  0  0  0  0  0  0
    1.1353   -3.2490    3.3945 C   0  0  0  0  0  0  0  0  0  0  0  0
    0.5292    1.0341    1.4933 H   0  0  0  0  0  0  0  0  0  0  0  0
   -1.7652   -0.0772    1.3834 H   0  0  0  0  0  0  0  0  0  0  0  0
    0.6039    3.1163    0.2211 H   0  0  0  0  0  0  0  0  0  0  0  0
    0.1102    2.2871   -1.2510 H   0  0  0  0  0  0  0  0  0  0  0  0
   -1.4710    2.5011    1.3526 H   0  0  0  0  0  0  0  0  0  0  0  0
   -2.3107    1.2433   -1.3137 H   0  0  0  0  0  0  0  0  0  0  0  0
   -3.3021    1.3310    0.1335 H   0  0  0  0  0  0  0  0  0  0  0  0
   -0.2262   -2.3548   -0.1325 H   0  0  0  0  0  0  0  0  0  0  0  0
    1.6412   -1.9373   -1.4689 H   0  0  0  0  0  0  0  0  0  0  0  0
    2.3390   -2.5291    0.0367 H   0  0  0  0  0  0  0  0  0  0  0  0
    2.8615    2.6759    0.2910 H   0  0  0  0  0  0  0  0  0  0  0  0
   -1.2637    4.4235   -0.2669 H   0  0  0  0  0  0  0  0  0  0  0  0
   -2.8896    4.3360    1.4865 H   0  0  0  0  0  0  0  0  0  0  0  0
   -3.9351    3.3820    0.4467 H   0  0  0  0  0  0  0  0  0  0  0  0
   -3.8733   -1.2074    1.4770 H   0  0  0  0  0  0  0  0  0  0  0  0
   -1.4494   -1.4588   -2.0905 H   0  0  0  0  0  0  0  0  0  0  0  0
    4.9055   -2.0879   -1.1541 H   0  0  0  0  0  0  0  0  0  0  0  0
    5.6110    2.7855   -0.2798 H   0  0  0  0  0  0  0  0  0  0  0  0
   -4.0222    5.2410   -1.2141 H   0  0  0  0  0  0  0  0  0  0  0  0
   -2.9914    6.2261   -0.1443 H   0  0  0  0  0  0  0  0  0  0  0  0
    7.1504   -1.0733   -1.4137 H   0  0  0  0  0  0  0  0  0  0  0  0
   -5.2975   -3.0326    0.6176 H   0  0  0  0  0  0  0  0  0  0  0  0
   -2.8661   -3.2845   -2.9158 H   0  0  0  0  0  0  0  0  0  0  0  0
    7.5045    1.3311   -0.9841 H   0  0  0  0  0  0  0  0  0  0  0  0
    1.5938   -4.2380    3.4769 H   0  0  0  0  0  0  0  0  0  0  0  0
    0.1492   -3.2781    3.8677 H   0  0  0  0  0  0  0  0  0  0  0  0
    1.7818   -2.5193    3.8915 H   0  0  0  0  0  0  0  0  0  0  0  0
   -5.2114    6.6061    0.1591 H   0  0  0  0  0  0  0  0  0  0  0  0
  1 31  1  0  0  0  0
  2 20  1  0  0  0  0
  2 32  1  0  0  0  0
  3 20  2  0  0  0  0
  4 26  1  0  0  0  0
  4 60  1  0  0  0  0
  5  8  1  0  0  0  0
  5  9  1  0  0  0  0
  5 13  1  0  0  0  0
  6 14  1  0  0  0  0
  6 19  1  0  0  0  0
  6 43  1  0  0  0  0
  7 11  1  0  0  0  0
  7 21  1  0  0  0  0
  7 44  1  0  0  0  0
  8 10  1  0  0  0  0
  8 14  1  0  0  0  0
  8 33  1  0  0  0  0
  9 12  1  0  0  0  0
  9 17  1  0  0  0  0
  9 34  1  0  0  0  0
 10 11  1  0  0  0  0
 10 35  1  0  0  0  0
 10 36  1  0  0  0  0
 11 12  1  0  0  0  0
 11 37  1  0  0  0  0
 12 38  1  0  0  0  0
 12 39  1  0  0  0  0
 13 15  1  0  0  0  0
 13 20  1  0  0  0  0
 13 40  1  0  0  0  0
 14 16  2  0  0  0  0
 15 16  1  0  0  0  0
 15 41  1  0  0  0  0
 15 42  1  0  0  0  0
 16 18  1  0  0  0  0
 17 22  2  0  0  0  0
 17 23  1  0  0  0  0
 18 19  1  0  0  0  0
 18 24  2  0  0  0  0
 19 25  2  0  0  0  0
 21 26  1  0  0  0  0
 21 45  1  0  0  0  0
 21 46  1  0  0  0  0
 22 28  1  0  0  0  0
 22 47  1  0  0  0  0
 23 29  2  0  0  0  0
 23 48  1  0  0  0  0
 24 27  1  0  0  0  0
 24 49  1  0  0  0  0
 25 30  1  0  0  0  0
 25 50  1  0  0  0  0
 26 51  1  0  0  0  0
 26 52  1  0  0  0  0
 27 30  2  0  0  0  0
 27 53  1  0  0  0  0
 28 31  2  0  0  0  0
 28 54  1  0  0  0  0
 29 31  1  0  0  0  0
 29 55  1  0  0  0  0
 30 56  1  0  0  0  0
 32 57  1  0  0  0  0
 32 58  1  0  0  0  0
 32 59  1  0  0  0  0
M  END
> <PUBCHEM_COMPOUND_CID>
25389952

> <PUBCHEM_CONFORMER_RMSD>
1

> <PUBCHEM_CONFORMER_DIVERSEORDER>
1
8
7
3
2
4
6
5

> <PUBCHEM_MMFF94_PARTIAL_CHARGES>
40
1 -0.19
11 0.27
13 0.33
14 -0.33
15 0.18
16 -0.18
17 -0.14
19 -0.15
2 -0.43
20 0.66
21 0.27
22 -0.15
23 -0.15
24 -0.15
25 -0.15
26 0.28
27 -0.15
28 -0.15
29 -0.15
3 -0.57
30 -0.15
31 0.19
32 0.28
4 -0.68
43 0.27
44 0.36
47 0.15
48 0.15
49 0.15
5 -0.81
50 0.15
53 0.15
54 0.15
55 0.15
56 0.15
6 0.03
60 0.4
7 -0.9
8 0.45
9 0.41

> <PUBCHEM_EFFECTIVE_ROTOR_COUNT>
7.2

> <PUBCHEM_PHARMACOPHORE_FEATURES>
13
1 3 acceptor
1 4 acceptor
1 4 donor
1 5 cation
1 6 cation
1 6 donor
1 7 cation
1 7 donor
5 6 14 16 18 19 rings
6 17 22 23 28 29 31 rings
6 18 19 24 25 27 30 rings
6 5 8 13 14 15 16 rings
6 5 8 9 10 11 12 rings

> <PUBCHEM_HEAVY_ATOM_COUNT>
32

> <PUBCHEM_ATOM_DEF_STEREO_COUNT>
4

> <PUBCHEM_ATOM_UDEF_STEREO_COUNT>
0

> <PUBCHEM_BOND_DEF_STEREO_COUNT>
0

> <PUBCHEM_BOND_UDEF_STEREO_COUNT>
0

> <PUBCHEM_ISOTOPIC_ATOM_COUNT>
0

> <PUBCHEM_COMPONENT_COUNT>
1

> <PUBCHEM_CACTVS_TAUTO_COUNT>
1

> <PUBCHEM_CONFORMER_ID>
01836B8000000001

> <PUBCHEM_MMFF94_ENERGY>
68.7544

> <PUBCHEM_FEATURE_SELFOVERLAP>
66.166

> <PUBCHEM_SHAPE_FINGERPRINT>
10006869 2 18189899708857057929
10190206 1 18409444761272913581
10411042 1 18196935693799829959
12236239 1 17488476345683700398
12293681 160 17969772167310830499
12633257 1 13685186499166713783
12788726 201 18263077863751154640
13149001 5 17464816066360262859
133893 2 16516790465113606474
13540713 5 18115860820314005906
13590594 115 18267872864235867489
13911987 19 17750797851202526270
140371 6 17973173004516209708
14347332 77 18413106186822775462
14400156 266 17827607324617590546
14400156 350 17182211427373220357
14790565 3 17979357456685250005
14955137 171 18050296057271095919
15198563 99 18342454876873575269
15361156 5 18265357134344697564
15439362 3 17473820010779100765
15629462 23 18334864951779778459
15927050 60 18265618671428871089
16087824 20 18412265018311530837
16090146 7 17240777228270309554
17349148 13 18114746035945918958
18681886 176 17984129642155812087
19301676 85 17263584110018700702
19319366 153 17463145547536105760
20505436 4 17972046842262401632
21033650 10 18193024606697028884
23522609 53 17840062785167460088
23558518 356 18333739004849373412
23559900 14 17899701451747103396
24771750 20 16531166983416486205
283562 15 18261390091458365177
3633792 109 17241303851611978266
38695281 34 17979642234001038493
497634 4 17131012969700229724
5252454 2 18117273649585037404
57527295 17 17969760034930617351
6898599 12 18339369578046842108
9658208 31 18128805361538136113

> <PUBCHEM_SHAPE_MULTIPOLES>
618.72
11.74
6.4
1.8
13.11
8.69
1.47
1.47
-5.87
-14.51
0.58
-0.16
-2.73
-2.97

> <PUBCHEM_SHAPE_SELFOVERLAP>
1351.359

> <PUBCHEM_SHAPE_VOLUME>
336.6

> <PUBCHEM_COORDINATE_TYPE>
2
5
10

$$$$
