38028873
  -OEChem-12032416143D

 61 62  0     1  0  0  0  0  0999 V2000
   -3.8536   -0.6225   -0.3496 O   0  0  0  0  0  0  0  0  0  0  0  0
    3.2305    1.5109   -1.1929 O   0  0  0  0  0  0  0  0  0  0  0  0
    5.4035   -3.0320   -0.6947 O   0  0  0  0  0  0  0  0  0  0  0  0
    4.2906   -2.7421    1.2638 O   0  0  0  0  0  0  0  0  0  0  0  0
   -2.5558   -2.5218   -0.1349 N   0  0  0  0  0  0  0  0  0  0  0  0
    2.0431    1.8365    0.7805 N   0  0  0  0  0  0  0  0  0  0  0  0
   -0.5753    2.1850   -0.6571 C   0  0  1  0  0  0  0  0  0  0  0  0
   -0.0325    3.0824    0.4831 C   0  0  1  0  0  0  0  0  0  0  0  0
   -2.0412    1.8091   -0.3919 C   0  0  0  0  0  0  0  0  0  0  0  0
   -2.2188    1.0625    0.9436 C   0  0  2  0  0  0  0  0  0  0  0  0
   -0.4535    2.8659   -2.0239 C   0  0  0  0  0  0  0  0  0  0  0  0
   -1.4810    1.7491    2.0750 C   0  0  0  0  0  0  0  0  0  0  0  0
   -0.5165    2.6588    1.8502 C   0  0  0  0  0  0  0  0  0  0  0  0
   -1.7892   -0.4035    0.8181 C   0  0  0  0  0  0  0  0  0  0  0  0
    1.4998    3.1226    0.4736 C   0  0  0  0  0  0  0  0  0  0  0  0
   -0.4087    1.8228   -3.1360 C   0  0  0  0  0  0  0  0  0  0  0  0
   -1.6098    3.8370   -2.2392 C   0  0  0  0  0  0  0  0  0  0  0  0
   -2.8324   -1.1803    0.0556 C   0  0  0  0  0  0  0  0  0  0  0  0
   -1.9092    1.3994    3.4731 C   0  0  0  0  0  0  0  0  0  0  0  0
   -3.4650   -3.4094   -0.8451 C   0  0  0  0  0  0  0  0  0  0  0  0
   -1.3674   -3.2401    0.3146 C   0  0  0  0  0  0  0  0  0  0  0  0
   -2.6463   -4.6646   -1.1044 C   0  0  0  0  0  0  0  0  0  0  0  0
   -1.7047   -4.7078    0.0924 C   0  0  0  0  0  0  0  0  0  0  0  0
    2.8744    1.1222   -0.0838 C   0  0  0  0  0  0  0  0  0  0  0  0
    3.2976   -0.2120    0.5039 C   0  0  0  0  0  0  0  0  0  0  0  0
    4.2066   -1.0000   -0.4336 C   0  0  0  0  0  0  0  0  0  0  0  0
    4.6150   -2.3283    0.1595 C   0  0  0  0  0  0  0  0  0  0  0  0
    0.0109    1.2591   -0.6850 H   0  0  0  0  0  0  0  0  0  0  0  0
   -0.3858    4.1113    0.3394 H   0  0  0  0  0  0  0  0  0  0  0  0
   -2.4488    1.2221   -1.2202 H   0  0  0  0  0  0  0  0  0  0  0  0
   -2.6628    2.7103   -0.3111 H   0  0  0  0  0  0  0  0  0  0  0  0
   -3.2879    1.1137    1.1947 H   0  0  0  0  0  0  0  0  0  0  0  0
    0.4809    3.4330   -2.0861 H   0  0  0  0  0  0  0  0  0  0  0  0
   -0.0531    3.1548    2.7010 H   0  0  0  0  0  0  0  0  0  0  0  0
   -1.7084   -0.8645    1.8084 H   0  0  0  0  0  0  0  0  0  0  0  0
   -0.8185   -0.5064    0.3236 H   0  0  0  0  0  0  0  0  0  0  0  0
    1.8645    3.8094    1.2471 H   0  0  0  0  0  0  0  0  0  0  0  0
    1.8941    3.4877   -0.4784 H   0  0  0  0  0  0  0  0  0  0  0  0
   -1.3227    1.2227   -3.1817 H   0  0  0  0  0  0  0  0  0  0  0  0
    0.4380    1.1415   -2.9996 H   0  0  0  0  0  0  0  0  0  0  0  0
   -0.2852    2.3083   -4.1104 H   0  0  0  0  0  0  0  0  0  0  0  0
   -2.5631    3.3349   -2.4347 H   0  0  0  0  0  0  0  0  0  0  0  0
   -1.4068    4.4458   -3.1292 H   0  0  0  0  0  0  0  0  0  0  0  0
   -1.7340    4.5377   -1.4083 H   0  0  0  0  0  0  0  0  0  0  0  0
   -2.9853    1.5614    3.5931 H   0  0  0  0  0  0  0  0  0  0  0  0
   -1.4009    2.0139    4.2240 H   0  0  0  0  0  0  0  0  0  0  0  0
   -1.6865    0.3536    3.7024 H   0  0  0  0  0  0  0  0  0  0  0  0
   -4.3152   -3.6125   -0.1846 H   0  0  0  0  0  0  0  0  0  0  0  0
   -3.8338   -2.9389   -1.7613 H   0  0  0  0  0  0  0  0  0  0  0  0
   -0.5271   -2.9221   -0.3120 H   0  0  0  0  0  0  0  0  0  0  0  0
   -1.1388   -3.0185    1.3602 H   0  0  0  0  0  0  0  0  0  0  0  0
    1.8569    1.4464    1.7000 H   0  0  0  0  0  0  0  0  0  0  0  0
   -2.0659   -4.5510   -2.0280 H   0  0  0  0  0  0  0  0  0  0  0  0
   -3.2655   -5.5610   -1.1953 H   0  0  0  0  0  0  0  0  0  0  0  0
   -2.2345   -5.1076    0.9655 H   0  0  0  0  0  0  0  0  0  0  0  0
   -0.8174   -5.3223   -0.0821 H   0  0  0  0  0  0  0  0  0  0  0  0
    3.8100   -0.0225    1.4550 H   0  0  0  0  0  0  0  0  0  0  0  0
    2.3928   -0.7908    0.7269 H   0  0  0  0  0  0  0  0  0  0  0  0
    5.1154   -0.4248   -0.6437 H   0  0  0  0  0  0  0  0  0  0  0  0
    3.6878   -1.1926   -1.3796 H   0  0  0  0  0  0  0  0  0  0  0  0
    5.6720   -3.8962   -0.3161 H   0  0  0  0  0  0  0  0  0  0  0  0
  1 18  2  0  0  0  0
  2 24  2  0  0  0  0
  3 27  1  0  0  0  0
  3 61  1  0  0  0  0
  4 27  2  0  0  0  0
  5 18  1  0  0  0  0
  5 20  1  0  0  0  0
  5 21  1  0  0  0  0
  6 15  1  0  0  0  0
  6 24  1  0  0  0  0
  6 52  1  0  0  0  0
  7  8  1  0  0  0  0
  7  9  1  0  0  0  0
  7 11  1  0  0  0  0
  7 28  1  0  0  0  0
  8 13  1  0  0  0  0
  8 15  1  0  0  0  0
  8 29  1  0  0  0  0
  9 10  1  0  0  0  0
  9 30  1  0  0  0  0
  9 31  1  0  0  0  0
 10 12  1  0  0  0  0
 10 14  1  0  0  0  0
 10 32  1  0  0  0  0
 11 16  1  0  0  0  0
 11 17  1  0  0  0  0
 11 33  1  0  0  0  0
 12 13  2  0  0  0  0
 12 19  1  0  0  0  0
 13 34  1  0  0  0  0
 14 18  1  0  0  0  0
 14 35  1  0  0  0  0
 14 36  1  0  0  0  0
 15 37  1  0  0  0  0
 15 38  1  0  0  0  0
 16 39  1  0  0  0  0
 16 40  1  0  0  0  0
 16 41  1  0  0  0  0
 17 42  1  0  0  0  0
 17 43  1  0  0  0  0
 17 44  1  0  0  0  0
 19 45  1  0  0  0  0
 19 46  1  0  0  0  0
 19 47  1  0  0  0  0
 20 22  1  0  0  0  0
 20 48  1  0  0  0  0
 20 49  1  0  0  0  0
 21 23  1  0  0  0  0
 21 50  1  0  0  0  0
 21 51  1  0  0  0  0
 22 23  1  0  0  0  0
 22 53  1  0  0  0  0
 22 54  1  0  0  0  0
 23 55  1  0  0  0  0
 23 56  1  0  0  0  0
 24 25  1  0  0  0  0
 25 26  1  0  0  0  0
 25 57  1  0  0  0  0
 25 58  1  0  0  0  0
 26 27  1  0  0  0  0
 26 59  1  0  0  0  0
 26 60  1  0  0  0  0
M  END
> <PUBCHEM_COMPOUND_CID>
38028873

> <PUBCHEM_CONFORMER_RMSD>
1

> <PUBCHEM_CONFORMER_DIVERSEORDER>
1
195
73
41
208
64
54
30
24
178
141
163
39
191
186
103
146
204
82
57
40
109
96
174
85
29
47
126
122
32
149
176
212
148
129
210
132
25
63
144
150
168
55
93
162
140
91
10
180
26
59
198
190
172
99
90
102
131
125
181
154
158
153
179
170
147
46
7
114
2
145
200
60
137
189
84
105
9
56
143
72
107
183
3
50
17
128
167
133
49
182
138
48
31
6
53
62
88
97
173
104
8
157
67
113
142
118
12
197
16
196
155
151
209
81
121
5
192
92
45
165
13
177
100
211
86
95
139
28
42
124
23
69
159
79
112
194
61
76
135
136
78
44
202
164
171
156
188
83
116
187
43
205
193
20
51
68
119
80
160
152
52
94
169
115
175
75
120
37
184
166
127
130
14
206
199
185
4
98
117
161
77
27
201
134
110
58
21
34
87
65
11
207
35
33
89
106
111
74
108
18
36
70
123
19
66
38
203
15
22
101
71

> <PUBCHEM_MMFF94_PARTIAL_CHARGES>
23
1 -0.57
10 0.14
12 -0.28
13 -0.29
14 0.06
15 0.3
18 0.57
19 0.14
2 -0.57
20 0.3
21 0.3
24 0.57
25 0.06
26 0.06
27 0.66
3 -0.65
34 0.15
4 -0.57
5 -0.66
52 0.37
6 -0.73
61 0.5
8 0.14

> <PUBCHEM_EFFECTIVE_ROTOR_COUNT>
11.8

> <PUBCHEM_PHARMACOPHORE_FEATURES>
9
1 1 acceptor
1 2 acceptor
1 3 acceptor
1 4 acceptor
1 6 donor
3 11 16 17 hydrophobe
3 3 4 27 anion
5 5 20 21 22 23 rings
6 7 8 9 10 12 13 rings

> <PUBCHEM_HEAVY_ATOM_COUNT>
27

> <PUBCHEM_ATOM_DEF_STEREO_COUNT>
3

> <PUBCHEM_ATOM_UDEF_STEREO_COUNT>
0

> <PUBCHEM_BOND_DEF_STEREO_COUNT>
0

> <PUBCHEM_BOND_UDEF_STEREO_COUNT>
0

> <PUBCHEM_ISOTOPIC_ATOM_COUNT>
0

> <PUBCHEM_COMPONENT_COUNT>
1

> <PUBCHEM_CACTVS_TAUTO_COUNT>
2

> <PUBCHEM_CONFORMER_ID>
0244464900000001

> <PUBCHEM_MMFF94_ENERGY>
47.9861

> <PUBCHEM_FEATURE_SELFOVERLAP>
45.729

> <PUBCHEM_SHAPE_FINGERPRINT>
10483366 6 18118944924828782805
114674 6 16903838718287482931
12633257 1 18056215591372012568
12969540 37 18124872623536499336
13994607 96 13797784692921629981
14251757 5 18266475217538188110
14863182 85 17113816847743147609
20602899 9 18123175810675272621
20764821 26 17474108700921313886
20775530 9 18338800134144702754
21344244 181 18120906483495523341
23559900 14 17400910294997401215
26353 1 17460024295955116845
3027735 51 18122611765678673431
46194498 28 16742247858646535719
484985 159 18124594172211055124

> <PUBCHEM_SHAPE_MULTIPOLES>
522.21
7.49
6.98
2.45
1.78
5.68
-0.2
12.07
0.95
1.42
1.45
-0.59
-3.19
-1.29

> <PUBCHEM_SHAPE_SELFOVERLAP>
1056.335

> <PUBCHEM_SHAPE_VOLUME>
303.7

> <PUBCHEM_COORDINATE_TYPE>
2
5
10

$$$$
