26743431
  -OEChem-12032416183D

 67 70  0     1  0  0  0  0  0999 V2000
    4.1916    0.4668    1.0485 O   0  0  0  0  0  0  0  0  0  0  0  0
   -3.1203   -0.7568    0.1275 N   0  0  0  0  0  0  0  0  0  0  0  0
    3.6730   -0.8475   -0.7949 N   0  0  0  0  0  0  0  0  0  0  0  0
   -2.8441   -1.8368    0.8781 N   0  0  0  0  0  0  0  0  0  0  0  0
    5.2400    0.8319   -0.9888 N   0  0  0  0  0  0  0  0  0  0  0  0
    0.4117   -1.0585   -0.7967 C   0  0  2  0  0  0  0  0  0  0  0  0
    1.4643   -0.9088    0.3211 C   0  0  0  0  0  0  0  0  0  0  0  0
    2.6961   -1.6881   -0.1558 C   0  0  1  0  0  0  0  0  0  0  0  0
   -1.0060   -1.1269   -0.2773 C   0  0  0  0  0  0  0  0  0  0  0  0
    0.8773   -2.2922   -1.5144 C   0  0  0  0  0  0  0  0  0  0  0  0
    2.1234   -2.6287   -1.1645 C   0  0  0  0  0  0  0  0  0  0  0  0
   -2.0532   -0.2927   -0.5841 C   0  0  0  0  0  0  0  0  0  0  0  0
   -1.5512   -2.0583    0.6266 C   0  0  0  0  0  0  0  0  0  0  0  0
   -8.3645    1.4149    0.1479 C   0  0  0  0  0  0  0  0  0  0  0  0
   -4.4086   -0.2211    0.1331 C   0  0  0  0  0  0  0  0  0  0  0  0
   -2.1232    0.8814   -1.4776 C   0  0  0  0  0  0  0  0  0  0  0  0
   -0.8690   -3.1884    1.2816 C   0  0  0  0  0  0  0  0  0  0  0  0
   -6.9868    0.8443    0.1428 C   0  0  0  0  0  0  0  0  0  0  0  0
    4.3540    0.1781   -0.1363 C   0  0  0  0  0  0  0  0  0  0  0  0
   -5.2052   -0.3332    1.2727 C   0  0  0  0  0  0  0  0  0  0  0  0
   -4.9011    0.4236   -1.0015 C   0  0  0  0  0  0  0  0  0  0  0  0
   -6.4943    0.1995    1.2776 C   0  0  0  0  0  0  0  0  0  0  0  0
   -6.1902    0.9563   -0.9966 C   0  0  0  0  0  0  0  0  0  0  0  0
   -8.8073    2.1130   -1.1808 C   0  0  0  0  0  0  0  0  0  0  0  0
   -9.4339    0.3099    0.4122 C   0  0  0  0  0  0  0  0  0  0  0  0
   -8.5239    2.4987    1.2591 C   0  0  0  0  0  0  0  0  0  0  0  0
    6.0700    1.9330   -0.5601 C   0  0  0  0  0  0  0  0  0  0  0  0
    7.3973    1.4655   -0.0365 C   0  0  0  0  0  0  0  0  0  0  0  0
    7.5467    1.1674    1.3178 C   0  0  0  0  0  0  0  0  0  0  0  0
    8.4807    1.3292   -0.9044 C   0  0  0  0  0  0  0  0  0  0  0  0
    8.7798    0.7331    1.8046 C   0  0  0  0  0  0  0  0  0  0  0  0
    9.7136    0.8947   -0.4178 C   0  0  0  0  0  0  0  0  0  0  0  0
    9.8632    0.5968    0.9367 C   0  0  0  0  0  0  0  0  0  0  0  0
    0.5090   -0.2194   -1.4965 H   0  0  0  0  0  0  0  0  0  0  0  0
    1.6588    0.1513    0.5185 H   0  0  0  0  0  0  0  0  0  0  0  0
    1.1216   -1.3324    1.2711 H   0  0  0  0  0  0  0  0  0  0  0  0
    3.1733   -2.2122    0.6785 H   0  0  0  0  0  0  0  0  0  0  0  0
    0.2920   -2.8240   -2.2513 H   0  0  0  0  0  0  0  0  0  0  0  0
    2.6605   -3.4714   -1.5764 H   0  0  0  0  0  0  0  0  0  0  0  0
    3.9177   -1.0254   -1.7650 H   0  0  0  0  0  0  0  0  0  0  0  0
   -2.4359    0.6053   -2.4888 H   0  0  0  0  0  0  0  0  0  0  0  0
   -2.7230    1.7046   -1.0797 H   0  0  0  0  0  0  0  0  0  0  0  0
   -1.1221    1.3152   -1.5913 H   0  0  0  0  0  0  0  0  0  0  0  0
   -0.1744   -3.6990    0.6110 H   0  0  0  0  0  0  0  0  0  0  0  0
   -0.3189   -2.8499    2.1648 H   0  0  0  0  0  0  0  0  0  0  0  0
   -1.5913   -3.9410    1.6180 H   0  0  0  0  0  0  0  0  0  0  0  0
   -4.8465   -0.8205    2.1760 H   0  0  0  0  0  0  0  0  0  0  0  0
   -4.3975    0.4396   -1.9578 H   0  0  0  0  0  0  0  0  0  0  0  0
   -7.0924    0.1004    2.1789 H   0  0  0  0  0  0  0  0  0  0  0  0
   -6.5335    1.4232   -1.9133 H   0  0  0  0  0  0  0  0  0  0  0  0
   -8.8035    1.4119   -2.0237 H   0  0  0  0  0  0  0  0  0  0  0  0
   -8.1550    2.9589   -1.4269 H   0  0  0  0  0  0  0  0  0  0  0  0
   -9.8271    2.5084   -1.0983 H   0  0  0  0  0  0  0  0  0  0  0  0
  -10.4489    0.7233    0.3875 H   0  0  0  0  0  0  0  0  0  0  0  0
   -9.3733   -0.4796   -0.3462 H   0  0  0  0  0  0  0  0  0  0  0  0
   -9.3011   -0.1621    1.3919 H   0  0  0  0  0  0  0  0  0  0  0  0
   -7.7986    3.3090    1.1191 H   0  0  0  0  0  0  0  0  0  0  0  0
   -8.3666    2.0839    2.2608 H   0  0  0  0  0  0  0  0  0  0  0  0
   -9.5276    2.9392    1.2456 H   0  0  0  0  0  0  0  0  0  0  0  0
    5.3234    0.5092   -1.9479 H   0  0  0  0  0  0  0  0  0  0  0  0
    5.5413    2.5144    0.2047 H   0  0  0  0  0  0  0  0  0  0  0  0
    6.2088    2.5952   -1.4222 H   0  0  0  0  0  0  0  0  0  0  0  0
    6.7129    1.2723    2.0065 H   0  0  0  0  0  0  0  0  0  0  0  0
    8.3765    1.5565   -1.9620 H   0  0  0  0  0  0  0  0  0  0  0  0
    8.8965    0.5018    2.8593 H   0  0  0  0  0  0  0  0  0  0  0  0
   10.5572    0.7881   -1.0934 H   0  0  0  0  0  0  0  0  0  0  0  0
   10.8232    0.2587    1.3156 H   0  0  0  0  0  0  0  0  0  0  0  0
  1 19  2  0  0  0  0
  2  4  1  0  0  0  0
  2 12  1  0  0  0  0
  2 15  1  0  0  0  0
  3  8  1  0  0  0  0
  3 19  1  0  0  0  0
  3 40  1  0  0  0  0
  4 13  2  0  0  0  0
  5 19  1  0  0  0  0
  5 27  1  0  0  0  0
  5 60  1  0  0  0  0
  6  7  1  0  0  0  0
  6  9  1  0  0  0  0
  6 10  1  0  0  0  0
  6 34  1  0  0  0  0
  7  8  1  0  0  0  0
  7 35  1  0  0  0  0
  7 36  1  0  0  0  0
  8 11  1  0  0  0  0
  8 37  1  0  0  0  0
  9 12  2  0  0  0  0
  9 13  1  0  0  0  0
 10 11  2  0  0  0  0
 10 38  1  0  0  0  0
 11 39  1  0  0  0  0
 12 16  1  0  0  0  0
 13 17  1  0  0  0  0
 14 18  1  0  0  0  0
 14 24  1  0  0  0  0
 14 25  1  0  0  0  0
 14 26  1  0  0  0  0
 15 20  2  0  0  0  0
 15 21  1  0  0  0  0
 16 41  1  0  0  0  0
 16 42  1  0  0  0  0
 16 43  1  0  0  0  0
 17 44  1  0  0  0  0
 17 45  1  0  0  0  0
 17 46  1  0  0  0  0
 18 22  2  0  0  0  0
 18 23  1  0  0  0  0
 20 22  1  0  0  0  0
 20 47  1  0  0  0  0
 21 23  2  0  0  0  0
 21 48  1  0  0  0  0
 22 49  1  0  0  0  0
 23 50  1  0  0  0  0
 24 51  1  0  0  0  0
 24 52  1  0  0  0  0
 24 53  1  0  0  0  0
 25 54  1  0  0  0  0
 25 55  1  0  0  0  0
 25 56  1  0  0  0  0
 26 57  1  0  0  0  0
 26 58  1  0  0  0  0
 26 59  1  0  0  0  0
 27 28  1  0  0  0  0
 27 61  1  0  0  0  0
 27 62  1  0  0  0  0
 28 29  2  0  0  0  0
 28 30  1  0  0  0  0
 29 31  1  0  0  0  0
 29 63  1  0  0  0  0
 30 32  2  0  0  0  0
 30 64  1  0  0  0  0
 31 33  2  0  0  0  0
 31 65  1  0  0  0  0
 32 33  1  0  0  0  0
 32 66  1  0  0  0  0
 33 67  1  0  0  0  0
M  END
> <PUBCHEM_COMPOUND_CID>
26743431

> <PUBCHEM_CONFORMER_RMSD>
1.2

> <PUBCHEM_CONFORMER_DIVERSEORDER>
6
146
115
9
50
105
125
118
3
121
84
119
117
79
90
64
74
114
5
99
88
27
55
29
137
26
37
92
123
95
32
69
71
149
140
86
72
112
85
104
42
148
75
113
134
21
136
25
36
109
60
103
68
48
82
73
153
111
39
52
66
152
129
19
106
8
93
150
100
70
139
57
120
122
58
147
80
10
110
67
34
151
51
143
77
24
12
78
56
62
98
20
11
83
96
41
130
49
89
132
81
76
7
45
87
131
28
144
17
44
33
133
46
40
65
54
108
22
94
16
31
18
128
63
145
107
102
30
59
126
142
23
47
14
127
61
116
135
13
124
38
1
43
15
35
141
53
138
4
101
2
97
91

> <PUBCHEM_MMFF94_PARTIAL_CHARGES>
42
1 -0.57
10 -0.29
11 -0.29
12 -0.33
13 0.11
14 0.14
15 -0.02
16 0.18
17 0.18
18 -0.14
19 0.69
2 0.59
20 -0.15
21 -0.15
22 -0.15
23 -0.15
27 0.44
28 -0.14
29 -0.15
3 -0.73
30 -0.15
31 -0.15
32 -0.15
33 -0.15
38 0.15
39 0.15
4 -0.71
40 0.37
47 0.15
48 0.15
49 0.15
5 -0.73
50 0.15
6 0.32
60 0.37
63 0.15
64 0.15
65 0.15
66 0.15
67 0.15
8 0.44
9 -0.18

> <PUBCHEM_EFFECTIVE_ROTOR_COUNT>
8.6

> <PUBCHEM_PHARMACOPHORE_FEATURES>
9
1 1 acceptor
1 3 donor
1 4 acceptor
1 5 donor
4 14 24 25 26 hydrophobe
5 2 4 9 12 13 rings
5 6 7 8 10 11 rings
6 15 18 20 21 22 23 rings
6 28 29 30 31 32 33 rings

> <PUBCHEM_HEAVY_ATOM_COUNT>
33

> <PUBCHEM_ATOM_DEF_STEREO_COUNT>
2

> <PUBCHEM_ATOM_UDEF_STEREO_COUNT>
0

> <PUBCHEM_BOND_DEF_STEREO_COUNT>
0

> <PUBCHEM_BOND_UDEF_STEREO_COUNT>
0

> <PUBCHEM_ISOTOPIC_ATOM_COUNT>
0

> <PUBCHEM_COMPONENT_COUNT>
1

> <PUBCHEM_CACTVS_TAUTO_COUNT>
3

> <PUBCHEM_CONFORMER_ID>
0198128700000006

> <PUBCHEM_MMFF94_ENERGY>
93.3697

> <PUBCHEM_FEATURE_SELFOVERLAP>
45.721

> <PUBCHEM_SHAPE_FINGERPRINT>
10 15 17966969426187367338
10076449 9 10375872987038601559
10165383 225 18272369780777847094
10533779 47 17023181570746148834
10838868 160 18341891845210422417
11297750 10 17755019701450540150
11409948 35 18270686360727612126
11409948 41 15338572531605943716
11672396 167 12468652659847214793
12098696 120 18059857277073009792
12522641 68 18130788971020499391
12559415 43 18201711856163052408
12838862 33 18060693996969131872
13150687 139 16988852683339505342
13530399 1 17559687153393337273
13947947 74 18131917052928269265
14117953 113 18273500091880502804
14150023 24 18342457050043000462
14344974 52 17060051588575904885
14428016 86 18341614806717961926
15183329 4 14189582922569391838
15350500 55 18411982442651703589
15510800 12 8070030003542516184
1754911 235 16773794796688061073
17852330 162 13470106563223057040
1818759 1 11386367036744004712
19302320 297 17967537908829495100
19315958 150 17748824095172044170
20105231 36 12757422836036255304
20156587 128 14979689744821698915
2026 5 9367078748204462924
20505436 4 17989199343920840014
21033648 29 18114189626711244335
21130935 74 17968947367252234827
21585481 151 8070021173859849561
21647283 7 18115314504484494640
21792961 116 13902192599482522815
23389318 12 11743839192784353162
23524908 199 17346608439969990284
23569943 247 9367077640535353141
23576562 1 16558172942824468977
23729398 52 17984993583275341662
24771293 8 18335139783169452285
25269216 80 16128359520143445789
393628 179 18131627902734438720
397638 26 18338229466862563930
4073 2 18411986850032746911
445580 126 18413107264959565948
4760202 170 17704349970867775256
54039377 194 8286202751591395536
5470011 282 14764348258329569004
57303763 176 17345486886338247608
57303763 39 14201698484852547280
6691757 9 17023178375180528979
9953998 17 17167864183952064683
9962374 69 10881693433046009832

> <PUBCHEM_SHAPE_MULTIPOLES>
653.33
35.31
2.6
1.46
23.24
1.31
-0.14
-32.18
-7.21
-0.84
-0.01
0.26
-0.01
0.92

> <PUBCHEM_SHAPE_SELFOVERLAP>
1404.519

> <PUBCHEM_SHAPE_VOLUME>
363.8

> <PUBCHEM_COORDINATE_TYPE>
2
5
10

$$$$
