7134287
  -OEChem-12032416123D

 62 64  0     1  0  0  0  0  0999 V2000
    4.6136   -3.0732    1.9585 S   0  0  0  0  0  0  0  0  0  0  0  0
    0.3276   -0.8813   -1.9149 O   0  0  0  0  0  0  0  0  0  0  0  0
    1.8658    3.1527   -1.6544 O   0  0  0  0  0  0  0  0  0  0  0  0
    3.7574    2.7539   -0.0307 O   0  0  0  0  0  0  0  0  0  0  0  0
   -4.8296   -0.0968   -1.6275 O   0  0  0  0  0  0  0  0  0  0  0  0
   -0.8301   -3.9171    0.3862 O   0  0  0  0  0  0  0  0  0  0  0  0
    6.9705    3.2423    1.4879 O   0  0  0  0  0  0  0  0  0  0  0  0
    6.0403    4.2053   -0.3546 O   0  0  0  0  0  0  0  0  0  0  0  0
    0.4113    1.5555   -0.7858 N   0  0  0  0  0  0  0  0  0  0  0  0
   -3.6431    0.7170    0.1912 N   0  0  0  0  0  0  0  0  0  0  0  0
    0.9657   -1.8561    0.1004 N   0  0  0  0  0  0  0  0  0  0  0  0
    0.0068   -4.8272   -1.5498 N   0  0  0  0  0  0  0  0  0  0  0  0
   -5.9726    1.0068    1.5175 N   0  0  0  0  0  0  0  0  0  0  0  0
   -8.4413    0.3126    0.3817 N   0  0  0  0  0  0  0  0  0  0  0  0
   -2.3344    0.6365   -0.4113 C   0  0  2  0  0  0  0  0  0  0  0  0
    0.1625    0.4014    0.0934 C   0  0  1  0  0  0  0  0  0  0  0  0
   -1.2632    0.3630    0.6482 C   0  0  0  0  0  0  0  0  0  0  0  0
   -2.0118    1.9214   -1.1708 C   0  0  0  0  0  0  0  0  0  0  0  0
   -0.6205    1.8537   -1.7863 C   0  0  0  0  0  0  0  0  0  0  0  0
    0.4930   -0.8295   -0.6990 C   0  0  0  0  0  0  0  0  0  0  0  0
    1.6118    2.2744   -0.8256 C   0  0  0  0  0  0  0  0  0  0  0  0
    1.3336   -3.1548   -0.4159 C   0  0  1  0  0  0  0  0  0  0  0  0
    2.6383    1.9424    0.2290 C   0  0  0  0  0  0  0  0  0  0  0  0
   -4.7966    0.3375   -0.4792 C   0  0  0  0  0  0  0  0  0  0  0  0
    2.4075   -3.8383    0.4393 C   0  0  0  0  0  0  0  0  0  0  0  0
    0.0667   -3.9973   -0.4500 C   0  0  0  0  0  0  0  0  0  0  0  0
   -6.0685    0.5060    0.2698 C   0  0  0  0  0  0  0  0  0  0  0  0
    3.6766   -3.0236    0.5260 C   0  0  0  0  0  0  0  0  0  0  0  0
    4.8095    2.5328    0.9071 C   0  0  0  0  0  0  0  0  0  0  0  0
   -7.2810    0.1649   -0.2880 C   0  0  0  0  0  0  0  0  0  0  0  0
    4.2307   -2.1961   -0.4258 C   0  0  0  0  0  0  0  0  0  0  0  0
    5.4406   -1.5950    0.0270 C   0  0  0  0  0  0  0  0  0  0  0  0
    5.7650   -1.9858    1.3074 C   0  0  0  0  0  0  0  0  0  0  0  0
   -7.1329    1.1546    2.1871 C   0  0  0  0  0  0  0  0  0  0  0  0
    5.9764    3.4237    0.5825 C   0  0  0  0  0  0  0  0  0  0  0  0
   -8.3454    0.8136    1.6293 C   0  0  0  0  0  0  0  0  0  0  0  0
   -2.3455   -0.1980   -1.1241 H   0  0  0  0  0  0  0  0  0  0  0  0
    0.8401    0.4470    0.9508 H   0  0  0  0  0  0  0  0  0  0  0  0
   -1.3446    1.1264    1.4347 H   0  0  0  0  0  0  0  0  0  0  0  0
   -1.4626   -0.5998    1.1358 H   0  0  0  0  0  0  0  0  0  0  0  0
   -2.7536    2.0984   -1.9587 H   0  0  0  0  0  0  0  0  0  0  0  0
   -2.0694    2.7798   -0.4883 H   0  0  0  0  0  0  0  0  0  0  0  0
   -0.4062    2.8168   -2.2630 H   0  0  0  0  0  0  0  0  0  0  0  0
   -0.5848    1.1111   -2.5874 H   0  0  0  0  0  0  0  0  0  0  0  0
   -3.7232    1.1162    1.1224 H   0  0  0  0  0  0  0  0  0  0  0  0
    0.9852   -1.7273    1.1082 H   0  0  0  0  0  0  0  0  0  0  0  0
    1.6899   -3.0207   -1.4448 H   0  0  0  0  0  0  0  0  0  0  0  0
    2.9191    0.8875    0.1522 H   0  0  0  0  0  0  0  0  0  0  0  0
    2.2301    2.1713    1.2187 H   0  0  0  0  0  0  0  0  0  0  0  0
    2.6502   -4.8206    0.0140 H   0  0  0  0  0  0  0  0  0  0  0  0
    2.0084   -4.0230    1.4458 H   0  0  0  0  0  0  0  0  0  0  0  0
    5.1379    1.4903    0.8489 H   0  0  0  0  0  0  0  0  0  0  0  0
    4.4541    2.7729    1.9147 H   0  0  0  0  0  0  0  0  0  0  0  0
   -7.3768   -0.2393   -1.2888 H   0  0  0  0  0  0  0  0  0  0  0  0
    3.8057   -2.0227   -1.4058 H   0  0  0  0  0  0  0  0  0  0  0  0
   -0.7935   -5.4320   -1.7017 H   0  0  0  0  0  0  0  0  0  0  0  0
    0.7533   -4.8810   -2.2353 H   0  0  0  0  0  0  0  0  0  0  0  0
    6.0421   -0.9104   -0.5567 H   0  0  0  0  0  0  0  0  0  0  0  0
    6.6228   -1.6841    1.8917 H   0  0  0  0  0  0  0  0  0  0  0  0
   -7.0565    1.5570    3.1896 H   0  0  0  0  0  0  0  0  0  0  0  0
   -9.2772    0.9326    2.1681 H   0  0  0  0  0  0  0  0  0  0  0  0
    7.7458    3.8130    1.2995 H   0  0  0  0  0  0  0  0  0  0  0  0
  1 28  1  0  0  0  0
  1 33  1  0  0  0  0
  2 20  2  0  0  0  0
  3 21  2  0  0  0  0
  4 23  1  0  0  0  0
  4 29  1  0  0  0  0
  5 24  2  0  0  0  0
  6 26  2  0  0  0  0
  7 35  1  0  0  0  0
  7 62  1  0  0  0  0
  8 35  2  0  0  0  0
  9 16  1  0  0  0  0
  9 19  1  0  0  0  0
  9 21  1  0  0  0  0
 10 15  1  0  0  0  0
 10 24  1  0  0  0  0
 10 45  1  0  0  0  0
 11 20  1  0  0  0  0
 11 22  1  0  0  0  0
 11 46  1  0  0  0  0
 12 26  1  0  0  0  0
 12 56  1  0  0  0  0
 12 57  1  0  0  0  0
 13 27  2  0  0  0  0
 13 34  1  0  0  0  0
 14 30  2  0  0  0  0
 14 36  1  0  0  0  0
 15 17  1  0  0  0  0
 15 18  1  0  0  0  0
 15 37  1  0  0  0  0
 16 17  1  0  0  0  0
 16 20  1  0  0  0  0
 16 38  1  0  0  0  0
 17 39  1  0  0  0  0
 17 40  1  0  0  0  0
 18 19  1  0  0  0  0
 18 41  1  0  0  0  0
 18 42  1  0  0  0  0
 19 43  1  0  0  0  0
 19 44  1  0  0  0  0
 21 23  1  0  0  0  0
 22 25  1  0  0  0  0
 22 26  1  0  0  0  0
 22 47  1  0  0  0  0
 23 48  1  0  0  0  0
 23 49  1  0  0  0  0
 24 27  1  0  0  0  0
 25 28  1  0  0  0  0
 25 50  1  0  0  0  0
 25 51  1  0  0  0  0
 27 30  1  0  0  0  0
 28 31  2  0  0  0  0
 29 35  1  0  0  0  0
 29 52  1  0  0  0  0
 29 53  1  0  0  0  0
 30 54  1  0  0  0  0
 31 32  1  0  0  0  0
 31 55  1  0  0  0  0
 32 33  2  0  0  0  0
 32 58  1  0  0  0  0
 33 59  1  0  0  0  0
 34 36  2  0  0  0  0
 34 60  1  0  0  0  0
 36 61  1  0  0  0  0
M  END
> <PUBCHEM_COMPOUND_CID>
7134287

> <PUBCHEM_CONFORMER_RMSD>
1.2

> <PUBCHEM_CONFORMER_DIVERSEORDER>
1
20
8
36
24
35
30
33
31
14
19
13
22
5
25
38
9
21
17
3
23
6
29
39
40
27
28
7
18
11
10
12
16
15
37
2
26
32
34
4

> <PUBCHEM_MMFF94_PARTIAL_CHARGES>
45
1 -0.08
10 -0.73
11 -0.73
12 -0.8
13 -0.62
14 -0.62
15 0.3
16 0.36
19 0.3
2 -0.57
20 0.57
21 0.57
22 0.36
23 0.34
24 0.54
25 0.18
26 0.57
27 0.4
28 -0.14
29 0.34
3 -0.57
30 0.16
31 -0.15
32 -0.15
33 -0.11
34 0.16
35 0.66
36 0.16
4 -0.56
45 0.37
46 0.37
5 -0.57
54 0.15
55 0.15
56 0.37
57 0.37
58 0.15
59 0.15
6 -0.57
60 0.15
61 0.15
62 0.5
7 -0.65
8 -0.57
9 -0.66

> <PUBCHEM_EFFECTIVE_ROTOR_COUNT>
15.2

> <PUBCHEM_PHARMACOPHORE_FEATURES>
16
1 10 donor
1 11 donor
1 12 donor
1 13 acceptor
1 14 acceptor
1 2 acceptor
1 3 acceptor
1 4 acceptor
1 5 acceptor
1 6 acceptor
1 7 acceptor
1 8 acceptor
3 7 8 35 anion
5 1 28 31 32 33 rings
6 13 14 27 30 34 36 rings
6 9 15 16 17 18 19 rings

> <PUBCHEM_HEAVY_ATOM_COUNT>
36

> <PUBCHEM_ATOM_DEF_STEREO_COUNT>
3

> <PUBCHEM_ATOM_UDEF_STEREO_COUNT>
0

> <PUBCHEM_BOND_DEF_STEREO_COUNT>
0

> <PUBCHEM_BOND_UDEF_STEREO_COUNT>
0

> <PUBCHEM_ISOTOPIC_ATOM_COUNT>
0

> <PUBCHEM_COMPONENT_COUNT>
1

> <PUBCHEM_CACTVS_TAUTO_COUNT>
8

> <PUBCHEM_CONFORMER_ID>
006CDC4F00000001

> <PUBCHEM_MMFF94_ENERGY>
74.7114

> <PUBCHEM_FEATURE_SELFOVERLAP>
81.289

> <PUBCHEM_SHAPE_FINGERPRINT>
11763715 3 17547033839692858838
12522641 24 18202560679007261505
12522641 33 18335979869407330189
12717326 120 16082518715897288865
12758862 65 18042697112835552531
13165054 189 18202290220817162039
13540713 4 17969210145640265509
14028597 1 17989492909066789473
14910700 183 18335420119178827250
15392192 104 18189339133134717712
15927050 60 18268425914252871934
16112460 7 18412829092570216827
19301679 30 18187641371360180688
20642791 268 17914058590497316233
3178227 256 18337673018603821034
4093350 32 17703796916012081868
4149490 64 18334305271440577723
5385378 56 18410856577031220664
5758199 1 18271247226450808329
6669772 16 18187357757547071170
9962374 69 18334575742700753035

> <PUBCHEM_SHAPE_MULTIPOLES>
673.74
19.64
5.99
1.65
34.39
2.11
0.2
-9.8
12.12
-14.12
-0.48
0.96
-0.09
-0.76

> <PUBCHEM_SHAPE_SELFOVERLAP>
1399.998

> <PUBCHEM_SHAPE_VOLUME>
381.5

> <PUBCHEM_COORDINATE_TYPE>
2
5
10

$$$$
