45783785
  -OEChem-12032416263D

 49 52  0     1  0  0  0  0  0999 V2000
    2.5516    2.3805   -0.0580 F   0  0  0  0  0  0  0  0  0  0  0  0
    1.7937    3.8140    1.3906 F   0  0  0  0  0  0  0  0  0  0  0  0
    1.8108    4.3058   -0.7273 F   0  0  0  0  0  0  0  0  0  0  0  0
   -1.6096   -1.6703    2.0018 O   0  0  0  0  0  0  0  0  0  0  0  0
   -3.7261   -0.3488   -0.6961 N   0  0  1  0  0  0  0  0  0  0  0  0
   -0.9620   -1.3134   -0.1124 N   0  0  0  0  0  0  0  0  0  0  0  0
   -0.2130   -1.7771    1.9990 N   0  0  0  0  0  0  0  0  0  0  0  0
    3.8017   -1.8364    0.6984 N   0  0  0  0  0  0  0  0  0  0  0  0
    5.3771   -1.6196   -1.0754 N   0  0  0  0  0  0  0  0  0  0  0  0
   -3.4504   -1.2310    0.4554 C   0  0  1  0  0  0  0  0  0  0  0  0
   -4.1437   -2.5604    0.1044 C   0  0  0  0  0  0  0  0  0  0  0  0
   -4.8318   -2.3099   -1.2300 C   0  0  0  0  0  0  0  0  0  0  0  0
   -4.9919   -0.8036   -1.2717 C   0  0  0  0  0  0  0  0  0  0  0  0
   -3.7614    1.0643   -0.3417 C   0  0  0  0  0  0  0  0  0  0  0  0
   -1.9687   -1.3966    0.7203 C   0  0  0  0  0  0  0  0  0  0  0  0
   -2.3782    1.6451   -0.2140 C   0  0  0  0  0  0  0  0  0  0  0  0
   -1.9728    2.2225    0.9893 C   0  0  0  0  0  0  0  0  0  0  0  0
   -1.5016    1.6049   -1.2984 C   0  0  0  0  0  0  0  0  0  0  0  0
    0.0940   -1.5539    0.7177 C   0  0  0  0  0  0  0  0  0  0  0  0
   -0.6914    2.7601    1.1082 C   0  0  0  0  0  0  0  0  0  0  0  0
   -0.2201    2.1426   -1.1796 C   0  0  0  0  0  0  0  0  0  0  0  0
    0.1850    2.7201    0.0237 C   0  0  0  0  0  0  0  0  0  0  0  0
    1.4445   -1.5659    0.2344 C   0  0  0  0  0  0  0  0  0  0  0  0
    1.5563    3.2921    0.1521 C   0  0  0  0  0  0  0  0  0  0  0  0
    1.7278   -1.3311   -1.1065 C   0  0  0  0  0  0  0  0  0  0  0  0
    2.5075   -1.8113    1.0886 C   0  0  0  0  0  0  0  0  0  0  0  0
    3.0470   -1.3488   -1.5460 C   0  0  0  0  0  0  0  0  0  0  0  0
    4.0384   -1.6039   -0.6121 C   0  0  0  0  0  0  0  0  0  0  0  0
    6.4873   -1.8700   -0.2147 C   0  0  0  0  0  0  0  0  0  0  0  0
   -3.9240   -0.8403    1.3671 H   0  0  0  0  0  0  0  0  0  0  0  0
   -3.4584   -3.4121    0.0349 H   0  0  0  0  0  0  0  0  0  0  0  0
   -4.8966   -2.7958    0.8665 H   0  0  0  0  0  0  0  0  0  0  0  0
   -5.7877   -2.8361   -1.3078 H   0  0  0  0  0  0  0  0  0  0  0  0
   -4.1877   -2.6492   -2.0509 H   0  0  0  0  0  0  0  0  0  0  0  0
   -5.8506   -0.4953   -0.6618 H   0  0  0  0  0  0  0  0  0  0  0  0
   -5.1332   -0.4425   -2.2950 H   0  0  0  0  0  0  0  0  0  0  0  0
   -4.2577    1.6362   -1.1384 H   0  0  0  0  0  0  0  0  0  0  0  0
   -4.3584    1.2419    0.5625 H   0  0  0  0  0  0  0  0  0  0  0  0
   -2.6443    2.2584    1.8430 H   0  0  0  0  0  0  0  0  0  0  0  0
   -1.8041    1.1620   -2.2436 H   0  0  0  0  0  0  0  0  0  0  0  0
   -0.3948    3.2040    2.0544 H   0  0  0  0  0  0  0  0  0  0  0  0
    0.4561    2.1058   -2.0295 H   0  0  0  0  0  0  0  0  0  0  0  0
    0.9419   -1.1318   -1.8303 H   0  0  0  0  0  0  0  0  0  0  0  0
    2.3719   -2.0033    2.1488 H   0  0  0  0  0  0  0  0  0  0  0  0
    3.2746   -1.1667   -2.5913 H   0  0  0  0  0  0  0  0  0  0  0  0
    5.5539   -1.2227   -1.9919 H   0  0  0  0  0  0  0  0  0  0  0  0
    6.4154   -2.8598    0.2477 H   0  0  0  0  0  0  0  0  0  0  0  0
    7.4186   -1.8391   -0.7887 H   0  0  0  0  0  0  0  0  0  0  0  0
    6.5565   -1.1137    0.5740 H   0  0  0  0  0  0  0  0  0  0  0  0
  1 24  1  0  0  0  0
  2 24  1  0  0  0  0
  3 24  1  0  0  0  0
  4  7  1  0  0  0  0
  4 15  1  0  0  0  0
  5 10  1  0  0  0  0
  5 13  1  0  0  0  0
  5 14  1  0  0  0  0
  6 15  2  0  0  0  0
  6 19  1  0  0  0  0
  7 19  2  0  0  0  0
  8 26  1  0  0  0  0
  8 28  2  0  0  0  0
  9 28  1  0  0  0  0
  9 29  1  0  0  0  0
  9 46  1  0  0  0  0
 10 11  1  0  0  0  0
 10 15  1  0  0  0  0
 10 30  1  0  0  0  0
 11 12  1  0  0  0  0
 11 31  1  0  0  0  0
 11 32  1  0  0  0  0
 12 13  1  0  0  0  0
 12 33  1  0  0  0  0
 12 34  1  0  0  0  0
 13 35  1  0  0  0  0
 13 36  1  0  0  0  0
 14 16  1  0  0  0  0
 14 37  1  0  0  0  0
 14 38  1  0  0  0  0
 16 17  2  0  0  0  0
 16 18  1  0  0  0  0
 17 20  1  0  0  0  0
 17 39  1  0  0  0  0
 18 21  2  0  0  0  0
 18 40  1  0  0  0  0
 19 23  1  0  0  0  0
 20 22  2  0  0  0  0
 20 41  1  0  0  0  0
 21 22  1  0  0  0  0
 21 42  1  0  0  0  0
 22 24  1  0  0  0  0
 23 25  1  0  0  0  0
 23 26  2  0  0  0  0
 25 27  2  0  0  0  0
 25 43  1  0  0  0  0
 26 44  1  0  0  0  0
 27 28  1  0  0  0  0
 27 45  1  0  0  0  0
 29 47  1  0  0  0  0
 29 48  1  0  0  0  0
 29 49  1  0  0  0  0
M  END
> <PUBCHEM_COMPOUND_CID>
45783785

> <PUBCHEM_CONFORMER_RMSD>
0.8

> <PUBCHEM_CONFORMER_DIVERSEORDER>
1
55
19
23
56
68
33
63
61
51
13
22
73
16
78
81
77
59
10
28
47
65
2
53
9
66
58
27
48
75
12
30
69
37
74
38
79
54
45
72
8
25
50
43
32
20
36
46
62
71
35
4
49
80
18
40
64
7
70
11
3
44
52
24
31
67
42
60
26
6
39
76
17
34
14
41
57
15
5
21
29

> <PUBCHEM_MMFF94_PARTIAL_CHARGES>
35
1 -0.34
10 0.45
13 0.27
14 0.41
15 0.3
16 -0.14
17 -0.15
18 -0.15
19 0.46
2 -0.34
20 -0.15
21 -0.15
22 -0.14
23 0.05
24 1.16
25 -0.15
26 0.16
27 -0.15
28 0.41
29 0.37
3 -0.34
39 0.15
4 -0.02
40 0.15
41 0.15
42 0.15
43 0.15
44 0.15
45 0.15
46 0.4
5 -0.81
6 -0.57
7 -0.41
8 -0.62
9 -0.87

> <PUBCHEM_EFFECTIVE_ROTOR_COUNT>
7

> <PUBCHEM_PHARMACOPHORE_FEATURES>
8
1 5 cation
1 9 donor
3 6 7 19 cation
3 8 9 28 cation
5 4 6 7 15 19 rings
5 5 10 11 12 13 rings
6 16 17 18 20 21 22 rings
6 8 23 25 26 27 28 rings

> <PUBCHEM_HEAVY_ATOM_COUNT>
29

> <PUBCHEM_ATOM_DEF_STEREO_COUNT>
1

> <PUBCHEM_ATOM_UDEF_STEREO_COUNT>
0

> <PUBCHEM_BOND_DEF_STEREO_COUNT>
0

> <PUBCHEM_BOND_UDEF_STEREO_COUNT>
0

> <PUBCHEM_ISOTOPIC_ATOM_COUNT>
0

> <PUBCHEM_COMPONENT_COUNT>
1

> <PUBCHEM_CACTVS_TAUTO_COUNT>
8

> <PUBCHEM_CONFORMER_ID>
02BA9AE900000001

> <PUBCHEM_MMFF94_ENERGY>
61.7518

> <PUBCHEM_FEATURE_SELFOVERLAP>
40.598

> <PUBCHEM_SHAPE_FINGERPRINT>
107951 10 16810936501379846513
1100329 8 18339644422036821057
11524674 6 17623841732053548992
12156800 1 15577763588861117068
12166972 35 17822017518558872646
12596599 1 18129667370222054897
12645989 146 18342461388202608270
12788726 201 18045501915647804626
133893 2 18122929747803456081
13402501 40 18263075686203098896
13761468 95 17467649091524353670
14787075 74 18261395503618077942
14790565 3 17547007425560007553
16090146 7 17846504691589285331
17492 54 17970900073621099149
17818456 19 17758664556320547282
19319366 153 17462568295853356931
20028762 73 16611391758663563383
20642791 239 18188760631822031333
20642791 35 18335406943067631173
20691752 17 17603856828460091429
20721686 56 18410012174403593528
20764821 26 18336561442924392640
20775438 99 17763442308158707207
20905425 154 18266741462317435877
21344244 246 18052529173723823415
23402539 116 18409731724985823438
23419403 2 18117532184966528925
23557571 272 18200312108840216230
23559900 14 18339070579697969389
238918 7 17688586478058690256
3298306 158 17977944918907589453
392239 28 18337957771289152248
4280585 95 18338226081568491222
5171179 24 18341324569591684281
57527358 35 15401676999056526411
57527585 103 17389424508248923555
59755656 215 17687734357428625479
7471813 234 18412545439839534358

> <PUBCHEM_SHAPE_MULTIPOLES>
544.21
9.79
4.77
1.5
7.42
5.54
0.22
-9.37
-3.48
0.92
0.55
-0.16
-0.32
0.06

> <PUBCHEM_SHAPE_SELFOVERLAP>
1183.645

> <PUBCHEM_SHAPE_VOLUME>
300.1

> <PUBCHEM_COORDINATE_TYPE>
2
5
10

$$$$
