45361399
  -OEChem-12032416333D

 72 75  0     1  0  0  0  0  0999 V2000
    0.9410    4.6919   -0.8234 F   0  0  0  0  0  0  0  0  0  0  0  0
    1.4314   -2.5238    1.6933 O   0  0  0  0  0  0  0  0  0  0  0  0
    3.8390   -0.6579    2.3744 O   0  0  0  0  0  0  0  0  0  0  0  0
   -4.8375   -1.8659   -1.0277 O   0  0  0  0  0  0  0  0  0  0  0  0
   -3.2293   -0.4549   -0.1341 N   0  0  0  0  0  0  0  0  0  0  0  0
    4.9400   -0.0314    0.4315 N   0  0  0  0  0  0  0  0  0  0  0  0
    0.7048   -1.0831   -1.7667 C   0  0  1  0  0  0  0  0  0  0  0  0
    0.4074   -1.7168   -0.3671 C   0  0  2  0  0  0  0  0  0  0  0  0
   -0.8535   -1.0506    0.2917 C   0  0  1  0  0  0  0  0  0  0  0  0
    1.6855   -1.7506    0.5195 C   0  0  2  0  0  0  0  0  0  0  0  0
    1.8792   -1.8361   -2.4352 C   0  0  0  0  0  0  0  0  0  0  0  0
   -0.5380   -1.2519   -2.6710 C   0  0  0  0  0  0  0  0  0  0  0  0
    2.8871   -2.4126   -0.1943 C   0  0  1  0  0  0  0  0  0  0  0  0
   -2.0789   -1.1602   -0.6588 C   0  0  2  0  0  0  0  0  0  0  0  0
    3.1441   -1.8373   -1.5870 C   0  0  0  0  0  0  0  0  0  0  0  0
   -1.7997   -0.6477   -2.0715 C   0  0  0  0  0  0  0  0  0  0  0  0
    1.0670    0.4209   -1.6730 C   0  0  0  0  0  0  0  0  0  0  0  0
    4.1685   -2.3190    0.6431 C   0  0  2  0  0  0  0  0  0  0  0  0
   -1.2207   -1.6474    1.6609 C   0  0  0  0  0  0  0  0  0  0  0  0
    4.1772   -3.4060    1.7123 C   0  0  0  0  0  0  0  0  0  0  0  0
    4.2852   -0.9295    1.2617 C   0  0  0  0  0  0  0  0  0  0  0  0
   -4.5267   -0.8769   -0.3689 C   0  0  0  0  0  0  0  0  0  0  0  0
   -5.5971   -0.0294    0.2167 C   0  0  0  0  0  0  0  0  0  0  0  0
    5.1700    1.3467    0.7980 C   0  0  0  0  0  0  0  0  0  0  0  0
   -6.8603    0.0064   -0.3736 C   0  0  0  0  0  0  0  0  0  0  0  0
   -5.3389    0.7296    1.3581 C   0  0  0  0  0  0  0  0  0  0  0  0
    4.0424    2.2388    0.3657 C   0  0  0  0  0  0  0  0  0  0  0  0
   -7.8655    0.8012    0.1774 C   0  0  0  0  0  0  0  0  0  0  0  0
   -6.3440    1.5244    1.9092 C   0  0  0  0  0  0  0  0  0  0  0  0
   -7.6073    1.5603    1.3188 C   0  0  0  0  0  0  0  0  0  0  0  0
    4.0730    2.8422   -0.8916 C   0  0  0  0  0  0  0  0  0  0  0  0
    2.9644    2.4646    1.2216 C   0  0  0  0  0  0  0  0  0  0  0  0
    3.0256    3.6712   -1.2930 C   0  0  0  0  0  0  0  0  0  0  0  0
    1.9170    3.2937    0.8201 C   0  0  0  0  0  0  0  0  0  0  0  0
    1.9476    3.8970   -0.4371 C   0  0  0  0  0  0  0  0  0  0  0  0
    0.1273   -2.7692   -0.5353 H   0  0  0  0  0  0  0  0  0  0  0  0
   -0.6414    0.0115    0.4688 H   0  0  0  0  0  0  0  0  0  0  0  0
    1.8885   -0.7248    0.8348 H   0  0  0  0  0  0  0  0  0  0  0  0
    2.1053   -1.3951   -3.4145 H   0  0  0  0  0  0  0  0  0  0  0  0
    1.5882   -2.8774   -2.6287 H   0  0  0  0  0  0  0  0  0  0  0  0
   -0.3568   -0.7991   -3.6542 H   0  0  0  0  0  0  0  0  0  0  0  0
   -0.7187   -2.3197   -2.8539 H   0  0  0  0  0  0  0  0  0  0  0  0
    2.6506   -3.4771   -0.3393 H   0  0  0  0  0  0  0  0  0  0  0  0
   -2.3484   -2.2225   -0.7384 H   0  0  0  0  0  0  0  0  0  0  0  0
    3.9090   -2.4356   -2.0979 H   0  0  0  0  0  0  0  0  0  0  0  0
    3.5350   -0.8189   -1.5452 H   0  0  0  0  0  0  0  0  0  0  0  0
   -1.7285    0.4469   -2.0693 H   0  0  0  0  0  0  0  0  0  0  0  0
   -2.6489   -0.8818   -2.7265 H   0  0  0  0  0  0  0  0  0  0  0  0
    0.2525    1.0311   -1.2751 H   0  0  0  0  0  0  0  0  0  0  0  0
    1.3140    0.8220   -2.6628 H   0  0  0  0  0  0  0  0  0  0  0  0
    1.9295    0.5909   -1.0277 H   0  0  0  0  0  0  0  0  0  0  0  0
    5.0436   -2.5017    0.0056 H   0  0  0  0  0  0  0  0  0  0  0  0
   -0.4887   -1.3661    2.4231 H   0  0  0  0  0  0  0  0  0  0  0  0
   -2.1814   -1.2707    2.0267 H   0  0  0  0  0  0  0  0  0  0  0  0
   -1.2893   -2.7390    1.6134 H   0  0  0  0  0  0  0  0  0  0  0  0
   -3.0525    0.4343    0.3215 H   0  0  0  0  0  0  0  0  0  0  0  0
    1.1762   -3.4199    1.4148 H   0  0  0  0  0  0  0  0  0  0  0  0
    3.9473   -4.3910    1.2932 H   0  0  0  0  0  0  0  0  0  0  0  0
    5.1797   -3.4703    2.1532 H   0  0  0  0  0  0  0  0  0  0  0  0
    3.5017   -3.2132    2.5491 H   0  0  0  0  0  0  0  0  0  0  0  0
    5.3092   -0.3467   -0.4602 H   0  0  0  0  0  0  0  0  0  0  0  0
    6.1093    1.6601    0.3283 H   0  0  0  0  0  0  0  0  0  0  0  0
    5.3187    1.4175    1.8821 H   0  0  0  0  0  0  0  0  0  0  0  0
   -7.0799   -0.5744   -1.2656 H   0  0  0  0  0  0  0  0  0  0  0  0
   -4.3797    0.7063    1.8669 H   0  0  0  0  0  0  0  0  0  0  0  0
   -8.8490    0.8298   -0.2825 H   0  0  0  0  0  0  0  0  0  0  0  0
   -6.1457    2.1100    2.8021 H   0  0  0  0  0  0  0  0  0  0  0  0
   -8.3903    2.1781    1.7488 H   0  0  0  0  0  0  0  0  0  0  0  0
    4.9059    2.6717   -1.5686 H   0  0  0  0  0  0  0  0  0  0  0  0
    2.9274    2.0030    2.2044 H   0  0  0  0  0  0  0  0  0  0  0  0
    3.0482    4.1397   -2.2724 H   0  0  0  0  0  0  0  0  0  0  0  0
    1.0770    3.4688    1.4857 H   0  0  0  0  0  0  0  0  0  0  0  0
  1 35  1  0  0  0  0
  2 10  1  0  0  0  0
  2 57  1  0  0  0  0
  3 21  2  0  0  0  0
  4 22  2  0  0  0  0
  5 14  1  0  0  0  0
  5 22  1  0  0  0  0
  5 56  1  0  0  0  0
  6 21  1  0  0  0  0
  6 24  1  0  0  0  0
  6 61  1  0  0  0  0
  7  8  1  0  0  0  0
  7 11  1  0  0  0  0
  7 12  1  0  0  0  0
  7 17  1  0  0  0  0
  8  9  1  0  0  0  0
  8 10  1  0  0  0  0
  8 36  1  0  0  0  0
  9 14  1  0  0  0  0
  9 19  1  0  0  0  0
  9 37  1  0  0  0  0
 10 13  1  0  0  0  0
 10 38  1  0  0  0  0
 11 15  1  0  0  0  0
 11 39  1  0  0  0  0
 11 40  1  0  0  0  0
 12 16  1  0  0  0  0
 12 41  1  0  0  0  0
 12 42  1  0  0  0  0
 13 15  1  0  0  0  0
 13 18  1  0  0  0  0
 13 43  1  0  0  0  0
 14 16  1  0  0  0  0
 14 44  1  0  0  0  0
 15 45  1  0  0  0  0
 15 46  1  0  0  0  0
 16 47  1  0  0  0  0
 16 48  1  0  0  0  0
 17 49  1  0  0  0  0
 17 50  1  0  0  0  0
 17 51  1  0  0  0  0
 18 20  1  0  0  0  0
 18 21  1  0  0  0  0
 18 52  1  0  0  0  0
 19 53  1  0  0  0  0
 19 54  1  0  0  0  0
 19 55  1  0  0  0  0
 20 58  1  0  0  0  0
 20 59  1  0  0  0  0
 20 60  1  0  0  0  0
 22 23  1  0  0  0  0
 23 25  2  0  0  0  0
 23 26  1  0  0  0  0
 24 27  1  0  0  0  0
 24 62  1  0  0  0  0
 24 63  1  0  0  0  0
 25 28  1  0  0  0  0
 25 64  1  0  0  0  0
 26 29  2  0  0  0  0
 26 65  1  0  0  0  0
 27 31  2  0  0  0  0
 27 32  1  0  0  0  0
 28 30  2  0  0  0  0
 28 66  1  0  0  0  0
 29 30  1  0  0  0  0
 29 67  1  0  0  0  0
 30 68  1  0  0  0  0
 31 33  1  0  0  0  0
 31 69  1  0  0  0  0
 32 34  2  0  0  0  0
 32 70  1  0  0  0  0
 33 35  2  0  0  0  0
 33 71  1  0  0  0  0
 34 35  1  0  0  0  0
 34 72  1  0  0  0  0
M  END
> <PUBCHEM_COMPOUND_CID>
45361399

> <PUBCHEM_CONFORMER_RMSD>
1

> <PUBCHEM_CONFORMER_DIVERSEORDER>
1
94
156
72
119
216
220
214
118
193
181
84
80
105
63
171
185
83
147
8
24
18
146
16
215
172
108
43
190
35
29
6
221
82
170
4
164
113
207
149
139
27
101
194
234
45
50
228
53
120
104
136
30
58
235
55
177
77
226
23
62
57
79
123
213
40
150
44
166
227
22
178
38
152
59
100
21
230
91
191
167
9
138
112
162
11
151
137
225
97
198
20
148
187
224
142
129
64
231
89
173
210
157
66
197
69
98
56
47
46
73
60
158
176
109
153
117
19
32
125
233
131
212
52
144
115
199
67
65
160
184
68
93
208
195
159
107
110
102
229
78
70
211
90
87
41
61
196
81
174
71
141
168
17
49
206
204
201
88
86
114
116
2
133
135
169
76
232
163
205
140
217
180
12
219
3
111
127
200
183
28
145
134
51
74
95
39
175
13
192
143
188
36
154
92
122
103
42
165
218
10
85
222
48
121
155
161
189
75
209
26
182
31
5
128
99
37
203
7
33
124
54
132
202
14
130
96
223
186
106
126
15
34
179
25

> <PUBCHEM_MMFF94_PARTIAL_CHARGES>
36
1 -0.19
10 0.28
14 0.3
18 0.06
2 -0.68
21 0.57
22 0.54
23 0.09
24 0.44
25 -0.15
26 -0.15
27 -0.14
28 -0.15
29 -0.15
3 -0.57
30 -0.15
31 -0.15
32 -0.15
33 -0.15
34 -0.15
35 0.19
4 -0.57
5 -0.73
56 0.37
57 0.4
6 -0.73
61 0.37
64 0.15
65 0.15
66 0.15
67 0.15
68 0.15
69 0.15
70 0.15
71 0.15
72 0.15

> <PUBCHEM_EFFECTIVE_ROTOR_COUNT>
9.6

> <PUBCHEM_PHARMACOPHORE_FEATURES>
11
1 2 acceptor
1 2 donor
1 20 hydrophobe
1 3 acceptor
1 4 acceptor
1 5 donor
1 6 donor
6 23 25 26 28 29 30 rings
6 27 31 32 33 34 35 rings
6 7 8 10 11 13 15 rings
6 7 8 9 12 14 16 rings

> <PUBCHEM_HEAVY_ATOM_COUNT>
35

> <PUBCHEM_ATOM_DEF_STEREO_COUNT>
6

> <PUBCHEM_ATOM_UDEF_STEREO_COUNT>
1

> <PUBCHEM_BOND_DEF_STEREO_COUNT>
0

> <PUBCHEM_BOND_UDEF_STEREO_COUNT>
0

> <PUBCHEM_ISOTOPIC_ATOM_COUNT>
0

> <PUBCHEM_COMPONENT_COUNT>
1

> <PUBCHEM_CACTVS_TAUTO_COUNT>
4

> <PUBCHEM_CONFORMER_ID>
02B428F700000001

> <PUBCHEM_MMFF94_ENERGY>
100.3144

> <PUBCHEM_FEATURE_SELFOVERLAP>
55.836

> <PUBCHEM_SHAPE_FINGERPRINT>
10165383 225 17749393685503548910
10190108 129 18337663128375229162
10319926 262 15140676974145533999
10439779 11 17989212538508778953
10673678 19 17774723155424087043
10674148 151 18129107883120713164
10675989 125 18339927142301424640
11456790 92 17968088677685264282
11578080 2 17969520366152229043
12156800 1 17911824396540814780
12422481 6 18341888563670674665
12633257 1 17678714943027762872
13165053 68 18191865846444491867
13165054 235 18059005095638442997
14114211 80 17899704754434542772
14849402 71 18334582360169170405
15082195 135 17488762094300200183
151778 21 17753884215207860172
15475509 35 11746934317067106604
21298829 104 18271804683177897368
21860390 5 18412832408342848574
21927370 108 17972306327808800122
22122407 14 18342182201994255201
22223350 30 17531826748014649003
23559900 14 17560255630273043631
23569914 152 11452557491377041841
3411729 13 18340209681996605124
3493558 16 18273223001632404273
35225 105 17038680617585364764
373842 8 18338514136879133549
392239 28 18114166558341326347
394071 54 18260828198156458867
397830 11 18187375371941298851
5104073 3 18335994138227755955
513532 50 13830131672038217824
57359948 33 16772961268992078337
57816373 69 18192990422673732403
6609424 69 18199189481877983988

> <PUBCHEM_SHAPE_MULTIPOLES>
685.44
16.15
4.62
2.25
37.67
4.8
0.46
5.48
-7.04
-7.27
0.16
-0.82
-0.93
-2.62

> <PUBCHEM_SHAPE_SELFOVERLAP>
1456.053

> <PUBCHEM_SHAPE_VOLUME>
379.8

> <PUBCHEM_COORDINATE_TYPE>
2
5
10

$$$$
