45360614
  -OEChem-12032416193D

 68 72  0     1  0  0  0  0  0999 V2000
    2.1842   -2.2104    0.7831 S   0  0  0  0  0  0  0  0  0  0  0  0
    2.7811   -2.0809    2.0948 O   0  0  0  0  0  0  0  0  0  0  0  0
    2.5950   -3.2607   -0.1233 O   0  0  0  0  0  0  0  0  0  0  0  0
    5.8176    0.0001   -0.6058 O   0  0  0  0  0  0  0  0  0  0  0  0
    4.5477   -0.1043    1.3211 O   0  0  0  0  0  0  0  0  0  0  0  0
   -5.0804    3.4268   -0.2343 O   0  0  0  0  0  0  0  0  0  0  0  0
    2.2870   -0.7049   -0.0281 N   0  0  2  0  0  0  0  0  0  0  0  0
    1.2600    2.8906    0.0633 N   0  0  0  0  0  0  0  0  0  0  0  0
    2.4455    3.0427   -1.8243 N   0  0  0  0  0  0  0  0  0  0  0  0
   -4.1193   -2.9327   -0.6929 N   0  0  0  0  0  0  0  0  0  0  0  0
    3.5377   -0.4564   -0.8326 C   0  0  1  0  0  0  0  0  0  0  0  0
    1.7348    0.4763    0.7319 C   0  0  0  0  0  0  0  0  0  0  0  0
    3.3414    0.6740   -1.8660 C   0  0  0  0  0  0  0  0  0  0  0  0
    1.8367    1.6709   -0.1280 C   0  0  0  0  0  0  0  0  0  0  0  0
    2.5613    1.7907   -1.2881 C   0  0  0  0  0  0  0  0  0  0  0  0
    0.4356   -2.3275    0.9940 C   0  0  0  0  0  0  0  0  0  0  0  0
    4.6667   -0.1700    0.1051 C   0  0  0  0  0  0  0  0  0  0  0  0
    0.4043    3.2908    1.1537 C   0  0  0  0  0  0  0  0  0  0  0  0
    1.6556    3.6827   -0.9853 C   0  0  0  0  0  0  0  0  0  0  0  0
   -0.4473   -2.5436   -0.0766 C   0  0  0  0  0  0  0  0  0  0  0  0
   -0.0448   -2.1945    2.2970 C   0  0  0  0  0  0  0  0  0  0  0  0
   -1.8370   -2.6258    0.1781 C   0  0  0  0  0  0  0  0  0  0  0  0
   -1.0577    3.3275    0.7838 C   0  0  0  0  0  0  0  0  0  0  0  0
    0.0185   -2.6797   -1.3945 C   0  0  0  0  0  0  0  0  0  0  0  0
   -2.7199   -2.8418   -0.8924 C   0  0  0  0  0  0  0  0  0  0  0  0
   -1.4114   -2.2754    2.5475 C   0  0  0  0  0  0  0  0  0  0  0  0
   -2.3029   -2.4897    1.4961 C   0  0  0  0  0  0  0  0  0  0  0  0
   -0.8730   -2.8939   -2.4461 C   0  0  0  0  0  0  0  0  0  0  0  0
   -2.2396   -2.9748   -2.1955 C   0  0  0  0  0  0  0  0  0  0  0  0
   -1.5655    4.4003    0.0508 C   0  0  0  0  0  0  0  0  0  0  0  0
   -1.9019    2.2882    1.1747 C   0  0  0  0  0  0  0  0  0  0  0  0
    6.9851    0.2819    0.1725 C   0  0  0  0  0  0  0  0  0  0  0  0
   -2.9173    4.4337   -0.2912 C   0  0  0  0  0  0  0  0  0  0  0  0
   -3.2538    2.3217    0.8329 C   0  0  0  0  0  0  0  0  0  0  0  0
   -3.7615    3.3944    0.1001 C   0  0  0  0  0  0  0  0  0  0  0  0
   -4.9411   -1.7436   -0.7471 C   0  0  0  0  0  0  0  0  0  0  0  0
   -4.7348   -4.2141   -0.4262 C   0  0  0  0  0  0  0  0  0  0  0  0
   -5.8866    2.3316    0.1978 C   0  0  0  0  0  0  0  0  0  0  0  0
    3.7901   -1.3728   -1.3798 H   0  0  0  0  0  0  0  0  0  0  0  0
    2.2668    0.6284    1.6744 H   0  0  0  0  0  0  0  0  0  0  0  0
    0.6785    0.3016    0.9518 H   0  0  0  0  0  0  0  0  0  0  0  0
    4.2933    1.0434   -2.2611 H   0  0  0  0  0  0  0  0  0  0  0  0
    2.7725    0.2763   -2.7162 H   0  0  0  0  0  0  0  0  0  0  0  0
    0.7316    4.2854    1.4824 H   0  0  0  0  0  0  0  0  0  0  0  0
    0.5784    2.6206    2.0032 H   0  0  0  0  0  0  0  0  0  0  0  0
    1.3482    4.7148   -1.0828 H   0  0  0  0  0  0  0  0  0  0  0  0
    0.6134   -2.0230    3.1431 H   0  0  0  0  0  0  0  0  0  0  0  0
    1.0581   -2.5894   -1.6816 H   0  0  0  0  0  0  0  0  0  0  0  0
   -1.7851   -2.1707    3.5621 H   0  0  0  0  0  0  0  0  0  0  0  0
   -3.3609   -2.5475    1.7394 H   0  0  0  0  0  0  0  0  0  0  0  0
   -0.5014   -2.9882   -3.4625 H   0  0  0  0  0  0  0  0  0  0  0  0
   -2.9227   -3.1399   -3.0251 H   0  0  0  0  0  0  0  0  0  0  0  0
   -0.9241    5.2228   -0.2526 H   0  0  0  0  0  0  0  0  0  0  0  0
   -1.5187    1.4460    1.7448 H   0  0  0  0  0  0  0  0  0  0  0  0
    6.8542    1.2168    0.7258 H   0  0  0  0  0  0  0  0  0  0  0  0
    7.1933   -0.5465    0.8563 H   0  0  0  0  0  0  0  0  0  0  0  0
    7.8307    0.3940   -0.5112 H   0  0  0  0  0  0  0  0  0  0  0  0
   -3.3076    5.2729   -0.8604 H   0  0  0  0  0  0  0  0  0  0  0  0
   -3.8521    1.4808    1.1670 H   0  0  0  0  0  0  0  0  0  0  0  0
   -4.7922   -1.1309    0.1479 H   0  0  0  0  0  0  0  0  0  0  0  0
   -4.6942   -1.1363   -1.6249 H   0  0  0  0  0  0  0  0  0  0  0  0
   -6.0063   -1.9894   -0.8126 H   0  0  0  0  0  0  0  0  0  0  0  0
   -4.8096   -4.7979   -1.3495 H   0  0  0  0  0  0  0  0  0  0  0  0
   -4.1512   -4.7912    0.2994 H   0  0  0  0  0  0  0  0  0  0  0  0
   -5.7434   -4.1012   -0.0148 H   0  0  0  0  0  0  0  0  0  0  0  0
   -5.5639    1.3908   -0.2603 H   0  0  0  0  0  0  0  0  0  0  0  0
   -5.9292    2.2687    1.2904 H   0  0  0  0  0  0  0  0  0  0  0  0
   -6.9065    2.5234   -0.1513 H   0  0  0  0  0  0  0  0  0  0  0  0
  1  2  2  0  0  0  0
  1  3  2  0  0  0  0
  1  7  1  0  0  0  0
  1 16  1  0  0  0  0
  4 17  1  0  0  0  0
  4 32  1  0  0  0  0
  5 17  2  0  0  0  0
  6 35  1  0  0  0  0
  6 38  1  0  0  0  0
  7 11  1  0  0  0  0
  7 12  1  0  0  0  0
  8 14  1  0  0  0  0
  8 18  1  0  0  0  0
  8 19  1  0  0  0  0
  9 15  1  0  0  0  0
  9 19  2  0  0  0  0
 10 25  1  0  0  0  0
 10 36  1  0  0  0  0
 10 37  1  0  0  0  0
 11 13  1  0  0  0  0
 11 17  1  0  0  0  0
 11 39  1  0  0  0  0
 12 14  1  0  0  0  0
 12 40  1  0  0  0  0
 12 41  1  0  0  0  0
 13 15  1  0  0  0  0
 13 42  1  0  0  0  0
 13 43  1  0  0  0  0
 14 15  2  0  0  0  0
 16 20  1  0  0  0  0
 16 21  2  0  0  0  0
 18 23  1  0  0  0  0
 18 44  1  0  0  0  0
 18 45  1  0  0  0  0
 19 46  1  0  0  0  0
 20 22  2  0  0  0  0
 20 24  1  0  0  0  0
 21 26  1  0  0  0  0
 21 47  1  0  0  0  0
 22 25  1  0  0  0  0
 22 27  1  0  0  0  0
 23 30  2  0  0  0  0
 23 31  1  0  0  0  0
 24 28  2  0  0  0  0
 24 48  1  0  0  0  0
 25 29  2  0  0  0  0
 26 27  2  0  0  0  0
 26 49  1  0  0  0  0
 27 50  1  0  0  0  0
 28 29  1  0  0  0  0
 28 51  1  0  0  0  0
 29 52  1  0  0  0  0
 30 33  1  0  0  0  0
 30 53  1  0  0  0  0
 31 34  2  0  0  0  0
 31 54  1  0  0  0  0
 32 55  1  0  0  0  0
 32 56  1  0  0  0  0
 32 57  1  0  0  0  0
 33 35  2  0  0  0  0
 33 58  1  0  0  0  0
 34 35  1  0  0  0  0
 34 59  1  0  0  0  0
 36 60  1  0  0  0  0
 36 61  1  0  0  0  0
 36 62  1  0  0  0  0
 37 63  1  0  0  0  0
 37 64  1  0  0  0  0
 37 65  1  0  0  0  0
 38 66  1  0  0  0  0
 38 67  1  0  0  0  0
 38 68  1  0  0  0  0
M  END
> <PUBCHEM_COMPOUND_CID>
45360614

> <PUBCHEM_CONFORMER_RMSD>
1

> <PUBCHEM_CONFORMER_DIVERSEORDER>
1
134
73
30
6
93
170
75
42
37
118
92
119
103
194
126
132
171
184
82
51
69
89
189
166
200
198
50
125
207
150
152
123
121
135
52
104
70
129
204
95
33
79
91
35
61
157
67
163
202
96
154
26
141
108
12
164
167
181
185
165
18
136
143
41
210
98
27
34
57
199
206
58
85
180
60
25
191
201
209
146
47
83
137
55
106
3
90
174
54
31
56
196
133
53
161
187
76
72
175
23
15
28
208
77
172
130
71
116
178
117
32
2
36
14
81
78
192
144
105
138
120
149
148
176
48
124
177
190
46
68
205
203
17
43
86
99
195
102
88
84
100
87
160
113
10
183
114
107
19
128
111
21
13
127
168
8
155
139
173
29
40
63
153
188
38
142
131
11
156
147
115
74
64
80
112
59
179
182
97
145
122
193
109
62
159
20
39
66
169
101
16
110
94
45
186
197
7
140
49
162
44
151
5
22
158
4
65
9
24

> <PUBCHEM_MMFF94_PARTIAL_CHARGES>
47
1 1.45
10 -0.84
11 0.42
12 0.54
13 0.18
14 -0.33
15 0.05
16 -0.01
17 0.66
18 0.4
19 0.04
2 -0.65
21 -0.15
23 -0.14
24 -0.15
25 0.1
26 -0.15
27 -0.15
28 -0.15
29 -0.15
3 -0.65
30 -0.15
31 -0.15
32 0.28
33 -0.15
34 -0.15
35 0.08
36 0.37
37 0.37
38 0.28
4 -0.43
46 0.15
47 0.15
48 0.15
49 0.15
5 -0.57
50 0.15
51 0.15
52 0.15
53 0.15
54 0.15
58 0.15
59 0.15
6 -0.36
7 -0.85
8 0.05
9 -0.57

> <PUBCHEM_EFFECTIVE_ROTOR_COUNT>
8.8

> <PUBCHEM_PHARMACOPHORE_FEATURES>
11
1 10 cation
1 2 acceptor
1 3 acceptor
1 5 acceptor
1 6 acceptor
3 8 9 19 cation
5 8 9 14 15 19 rings
6 16 20 21 22 26 27 rings
6 20 22 24 25 28 29 rings
6 23 30 31 33 34 35 rings
6 7 11 12 13 14 15 rings

> <PUBCHEM_HEAVY_ATOM_COUNT>
38

> <PUBCHEM_ATOM_DEF_STEREO_COUNT>
1

> <PUBCHEM_ATOM_UDEF_STEREO_COUNT>
0

> <PUBCHEM_BOND_DEF_STEREO_COUNT>
0

> <PUBCHEM_BOND_UDEF_STEREO_COUNT>
0

> <PUBCHEM_ISOTOPIC_ATOM_COUNT>
0

> <PUBCHEM_COMPONENT_COUNT>
1

> <PUBCHEM_CACTVS_TAUTO_COUNT>
1

> <PUBCHEM_CONFORMER_ID>
02B425E600000001

> <PUBCHEM_MMFF94_ENERGY>
129.9702

> <PUBCHEM_FEATURE_SELFOVERLAP>
55.975

> <PUBCHEM_SHAPE_FINGERPRINT>
10675989 125 17762611090674346953
11513181 2 18055916485301494311
11578080 2 17558233628706295642
12107698 1 18337951319473190374
12156800 1 18125127572768518200
12788726 201 18265629856146338972
13590594 115 18268706293706797774
1361 2 18051412864853576729
14725015 67 18341046436605652739
15264996 19 18263380195321586005
15297060 5 17917711245650496971
15484559 13 17902521380443175677
161222 619 17832463850323800401
20737093 15 17832111985603186925
20764821 26 18191882320862437921
21133410 62 18044079178410363973
22113638 7 18192708934768869577
238 59 15749218567448284429
3388396 114 17834116724678143045
35225 105 18267612189416630093
4066623 53 18125152986011003669
463206 1 18340202965317081281
5081480 168 16396105143908066989
5171179 24 17986384702049836664

> <PUBCHEM_SHAPE_MULTIPOLES>
736.6
10.43
7.37
1.97
4.59
4.53
0.1
0.94
-1.37
-9.05
-0.73
0.12
-1.58
-2.1

> <PUBCHEM_SHAPE_SELFOVERLAP>
1596.868

> <PUBCHEM_SHAPE_VOLUME>
405.6

> <PUBCHEM_COORDINATE_TYPE>
2
5
10

$$$$
