11912136
  -OEChem-12032416413D

 59 61  0     1  0  0  0  0  0999 V2000
   -2.2795    0.6579   -0.5682 S   0  0  0  0  0  0  0  0  0  0  0  0
    0.5356   -0.3114    1.3190 O   0  0  0  0  0  0  0  0  0  0  0  0
   -2.4995    0.9770   -1.9592 O   0  0  0  0  0  0  0  0  0  0  0  0
   -1.4743    1.5040    0.2810 O   0  0  0  0  0  0  0  0  0  0  0  0
    1.0964    3.2935   -1.4967 O   0  0  0  0  0  0  0  0  0  0  0  0
   -1.6833   -0.9545   -0.4597 N   0  0  2  0  0  0  0  0  0  0  0  0
    1.3184    0.6483   -0.6521 N   0  0  0  0  0  0  0  0  0  0  0  0
   -0.6714   -3.5647   -1.1657 N   0  0  0  0  0  0  0  0  0  0  0  0
    1.8088    3.9605    0.5823 N   0  0  0  0  0  0  0  0  0  0  0  0
    4.2100    0.0970   -0.1373 C   0  0  0  0  0  0  0  0  0  0  0  0
    4.0956   -0.2065    1.3626 C   0  0  0  0  0  0  0  0  0  0  0  0
    5.6677   -0.0059   -0.6060 C   0  0  0  0  0  0  0  0  0  0  0  0
    3.6381    1.4778   -0.4534 C   0  0  0  0  0  0  0  0  0  0  0  0
    4.7095   -1.5603    1.7123 C   0  0  0  0  0  0  0  0  0  0  0  0
    6.2789   -1.3601   -0.2531 C   0  0  0  0  0  0  0  0  0  0  0  0
    6.1555   -1.6622    1.2371 C   0  0  0  0  0  0  0  0  0  0  0  0
    2.1686    1.6545   -0.0580 C   0  0  1  0  0  0  0  0  0  0  0  0
   -0.2348   -1.1627   -0.7663 C   0  0  2  0  0  0  0  0  0  0  0  0
    0.1657   -2.6048   -0.4467 C   0  0  0  0  0  0  0  0  0  0  0  0
   -2.5359   -1.9612   -1.1678 C   0  0  0  0  0  0  0  0  0  0  0  0
    0.5736   -0.2497    0.0929 C   0  0  0  0  0  0  0  0  0  0  0  0
   -2.0785   -3.3722   -0.8184 C   0  0  0  0  0  0  0  0  0  0  0  0
    1.6222    3.0299   -0.4178 C   0  0  0  0  0  0  0  0  0  0  0  0
   -3.8531    0.4463    0.1994 C   0  0  0  0  0  0  0  0  0  0  0  0
   -5.0179    0.5253   -0.5641 C   0  0  0  0  0  0  0  0  0  0  0  0
   -3.9332    0.2001    1.5700 C   0  0  0  0  0  0  0  0  0  0  0  0
   -6.2626    0.3585    0.0430 C   0  0  0  0  0  0  0  0  0  0  0  0
   -5.1779    0.0332    2.1771 C   0  0  0  0  0  0  0  0  0  0  0  0
   -6.3426    0.1123    1.4136 C   0  0  0  0  0  0  0  0  0  0  0  0
    3.6351   -0.6608   -0.6863 H   0  0  0  0  0  0  0  0  0  0  0  0
    3.0563   -0.2255    1.6952 H   0  0  0  0  0  0  0  0  0  0  0  0
    4.6005    0.5779    1.9411 H   0  0  0  0  0  0  0  0  0  0  0  0
    5.7239    0.1432   -1.6909 H   0  0  0  0  0  0  0  0  0  0  0  0
    6.2660    0.7901   -0.1443 H   0  0  0  0  0  0  0  0  0  0  0  0
    4.2379    2.2545    0.0396 H   0  0  0  0  0  0  0  0  0  0  0  0
    3.7385    1.6639   -1.5315 H   0  0  0  0  0  0  0  0  0  0  0  0
    4.6670   -1.7154    2.7963 H   0  0  0  0  0  0  0  0  0  0  0  0
    4.1160   -2.3597    1.2516 H   0  0  0  0  0  0  0  0  0  0  0  0
    5.7766   -2.1478   -0.8281 H   0  0  0  0  0  0  0  0  0  0  0  0
    7.3348   -1.3751   -0.5459 H   0  0  0  0  0  0  0  0  0  0  0  0
    6.7764   -0.9581    1.8047 H   0  0  0  0  0  0  0  0  0  0  0  0
    6.5417   -2.6668    1.4432 H   0  0  0  0  0  0  0  0  0  0  0  0
    2.0820    1.5688    1.0312 H   0  0  0  0  0  0  0  0  0  0  0  0
   -0.0731   -0.9668   -1.8339 H   0  0  0  0  0  0  0  0  0  0  0  0
    1.2509    0.6370   -1.6655 H   0  0  0  0  0  0  0  0  0  0  0  0
    1.2122   -2.7648   -0.7331 H   0  0  0  0  0  0  0  0  0  0  0  0
    0.1056   -2.8071    0.6311 H   0  0  0  0  0  0  0  0  0  0  0  0
   -3.5824   -1.8784   -0.8683 H   0  0  0  0  0  0  0  0  0  0  0  0
   -2.4745   -1.7985   -2.2508 H   0  0  0  0  0  0  0  0  0  0  0  0
   -2.6836   -4.0965   -1.3743 H   0  0  0  0  0  0  0  0  0  0  0  0
   -2.2333   -3.5719    0.2493 H   0  0  0  0  0  0  0  0  0  0  0  0
   -0.3887   -4.5119   -0.9159 H   0  0  0  0  0  0  0  0  0  0  0  0
    1.4969    4.9189    0.4653 H   0  0  0  0  0  0  0  0  0  0  0  0
    2.2630    3.7351    1.4615 H   0  0  0  0  0  0  0  0  0  0  0  0
   -4.9846    0.7136   -1.6331 H   0  0  0  0  0  0  0  0  0  0  0  0
   -3.0346    0.1326    2.1774 H   0  0  0  0  0  0  0  0  0  0  0  0
   -7.1696    0.4194   -0.5514 H   0  0  0  0  0  0  0  0  0  0  0  0
   -5.2403   -0.1595    3.2441 H   0  0  0  0  0  0  0  0  0  0  0  0
   -7.3117   -0.0181    1.8862 H   0  0  0  0  0  0  0  0  0  0  0  0
  1  3  2  0  0  0  0
  1  4  2  0  0  0  0
  1  6  1  0  0  0  0
  1 24  1  0  0  0  0
  2 21  2  0  0  0  0
  5 23  2  0  0  0  0
  6 18  1  0  0  0  0
  6 20  1  0  0  0  0
  7 17  1  0  0  0  0
  7 21  1  0  0  0  0
  7 45  1  0  0  0  0
  8 19  1  0  0  0  0
  8 22  1  0  0  0  0
  8 52  1  0  0  0  0
  9 23  1  0  0  0  0
  9 53  1  0  0  0  0
  9 54  1  0  0  0  0
 10 11  1  0  0  0  0
 10 12  1  0  0  0  0
 10 13  1  0  0  0  0
 10 30  1  0  0  0  0
 11 14  1  0  0  0  0
 11 31  1  0  0  0  0
 11 32  1  0  0  0  0
 12 15  1  0  0  0  0
 12 33  1  0  0  0  0
 12 34  1  0  0  0  0
 13 17  1  0  0  0  0
 13 35  1  0  0  0  0
 13 36  1  0  0  0  0
 14 16  1  0  0  0  0
 14 37  1  0  0  0  0
 14 38  1  0  0  0  0
 15 16  1  0  0  0  0
 15 39  1  0  0  0  0
 15 40  1  0  0  0  0
 16 41  1  0  0  0  0
 16 42  1  0  0  0  0
 17 23  1  0  0  0  0
 17 43  1  0  0  0  0
 18 19  1  0  0  0  0
 18 21  1  0  0  0  0
 18 44  1  0  0  0  0
 19 46  1  0  0  0  0
 19 47  1  0  0  0  0
 20 22  1  0  0  0  0
 20 48  1  0  0  0  0
 20 49  1  0  0  0  0
 22 50  1  0  0  0  0
 22 51  1  0  0  0  0
 24 25  2  0  0  0  0
 24 26  1  0  0  0  0
 25 27  1  0  0  0  0
 25 55  1  0  0  0  0
 26 28  2  0  0  0  0
 26 56  1  0  0  0  0
 27 29  2  0  0  0  0
 27 57  1  0  0  0  0
 28 29  1  0  0  0  0
 28 58  1  0  0  0  0
 29 59  1  0  0  0  0
M  END
> <PUBCHEM_COMPOUND_CID>
11912136

> <PUBCHEM_CONFORMER_RMSD>
1

> <PUBCHEM_CONFORMER_DIVERSEORDER>
1
22
43
236
255
161
229
211
101
217
168
250
234
201
2
240
13
209
73
208
235
156
30
247
97
181
184
251
219
159
87
118
61
213
103
20
63
75
249
92
218
230
252
19
248
31
34
169
215
115
36
186
199
254
49
71
177
107
53
195
83
142
124
180
187
131
189
214
81
9
149
190
70
206
102
228
238
132
60
164
79
196
222
47
114
220
188
45
145
105
225
200
246
157
174
243
66
89
46
82
110
119
48
224
17
51
39
203
54
178
205
85
162
91
126
27
50
223
198
221
167
204
233
84
143
8
163
129
227
40
78
123
135
183
226
237
210
127
171
125
14
33
141
231
138
80
216
153
112
130
68
155
7
98
154
11
173
59
109
93
244
21
44
136
257
55
56
241
52
207
253
67
193
29
194
245
140
41
134
166
172
94
58
150
120
86
95
64
179
128
117
32
113
137
175
191
139
5
165
147
26
10
242
192
74
116
28
256
148
239
146
158
37
72
6
69
160
4
96
88
25
23
57
108
111
100
182
212
185
144
42
12
35
197
16
152
76
62
77
38
106
202
104
18
99
15
151
90
133
65
3
232
121
24
122
170
176

> <PUBCHEM_MMFF94_PARTIAL_CHARGES>
31
1 1.45
17 0.36
18 0.42
19 0.27
2 -0.57
20 0.36
21 0.57
22 0.27
23 0.57
24 -0.01
25 -0.15
26 -0.15
27 -0.15
28 -0.15
29 -0.15
3 -0.65
4 -0.65
45 0.37
5 -0.57
52 0.36
53 0.37
54 0.37
55 0.15
56 0.15
57 0.15
58 0.15
59 0.15
6 -0.85
7 -0.73
8 -0.9
9 -0.8

> <PUBCHEM_EFFECTIVE_ROTOR_COUNT>
10.4

> <PUBCHEM_PHARMACOPHORE_FEATURES>
11
1 2 acceptor
1 3 acceptor
1 4 acceptor
1 5 acceptor
1 7 donor
1 8 cation
1 8 donor
1 9 donor
6 10 11 12 14 15 16 rings
6 24 25 26 27 28 29 rings
6 6 8 18 19 20 22 rings

> <PUBCHEM_HEAVY_ATOM_COUNT>
29

> <PUBCHEM_ATOM_DEF_STEREO_COUNT>
2

> <PUBCHEM_ATOM_UDEF_STEREO_COUNT>
0

> <PUBCHEM_BOND_DEF_STEREO_COUNT>
0

> <PUBCHEM_BOND_UDEF_STEREO_COUNT>
0

> <PUBCHEM_ISOTOPIC_ATOM_COUNT>
0

> <PUBCHEM_COMPONENT_COUNT>
1

> <PUBCHEM_CACTVS_TAUTO_COUNT>
4

> <PUBCHEM_CONFORMER_ID>
00B5C3C800000001

> <PUBCHEM_MMFF94_ENERGY>
51.2364

> <PUBCHEM_FEATURE_SELFOVERLAP>
55.841

> <PUBCHEM_SHAPE_FINGERPRINT>
1100329 8 18342459291603679529
11045977 3 17603309275880017817
11578080 2 17700687630462894880
11646440 116 18343301436138357624
12107183 9 18413389839052486402
12166972 35 18272649064936738929
12422481 6 18409171008584044959
12553582 1 18335406951636369210
12633257 1 18342459269938952476
13140716 1 18268433606211939213
13540713 5 18125720333894605855
13583140 156 17676477342291750075
13692114 37 17703501195030524383
13782708 43 17676206875036729147
14117953 113 18340484474753413157
14341114 176 17894919546190739249
14840074 17 18411136900945977690
14955137 171 18335989696550674154
15183329 4 18342457045414963870
15537594 2 18259985990057231598
15849732 13 18409169900655951770
16110190 28 18411415150903116360
16112460 7 18272654575574848056
16728300 4 17825091624205408210
17349148 13 17988924478961288420
17492 89 18122900104166662374
17818456 19 18202005468663632168
17980427 23 17703215321732592692
20028762 73 18131066047860391367
21033648 29 18057300852008508161
21033650 10 16269996374134084569
21365058 113 17168155532911357732
22223350 30 18058159712418342531
23558518 356 17904482153182946846
23559900 14 17917715751371942044
23569917 315 18201441398241816215
23622692 88 18411699876589912399
3117164 225 18337394953889146355
3178227 256 18337685160839967649
335352 9 18413108376665038668
340366 18 18410857698159570710
345986 75 18116134594572584720
3680242 22 18412266137852115224
392239 28 18129681806440606627
460360 51 18055914539744261763
465052 167 18186526484033347290
5104073 3 18270956972628997298
5283173 99 12607139373883695123
5385378 56 17988089868026841651
54039377 194 17896879860440655378
56633871 153 18411695465732605750
57527293 21 17898036718186151419
5912855 24 17975422630606814691
59755656 520 17846777399867734639
7226269 152 17489590043355833824

> <PUBCHEM_SHAPE_MULTIPOLES>
557.25
14.6
3.49
1.6
1.39
0.48
0.5
-2.26
6.05
1.8
-1.33
-0.85
-0.2
-1.51

> <PUBCHEM_SHAPE_SELFOVERLAP>
1143.259

> <PUBCHEM_SHAPE_VOLUME>
318.8

> <PUBCHEM_COORDINATE_TYPE>
2
5
10

$$$$
