25390026
  -OEChem-12032416293D

 59 62  0     1  0  0  0  0  0999 V2000
    4.7801    1.9255   -0.6310 O   0  0  0  0  0  0  0  0  0  0  0  0
   -9.0030   -1.5904   -0.1433 O   0  0  0  0  0  0  0  0  0  0  0  0
    2.9416    0.5350   -0.9157 N   0  0  0  0  0  0  0  0  0  0  0  0
   -3.8167    0.3405    0.2224 N   0  0  0  0  0  0  0  0  0  0  0  0
   -3.6057    1.6220    0.5682 N   0  0  0  0  0  0  0  0  0  0  0  0
    5.0331   -0.1822   -1.5675 N   0  0  0  0  0  0  0  0  0  0  0  0
   -0.1572    0.2498    0.0829 C   0  0  2  0  0  0  0  0  0  0  0  0
    0.5478    1.1650   -0.9396 C   0  0  0  0  0  0  0  0  0  0  0  0
    1.9493    1.4245   -0.3736 C   0  0  1  0  0  0  0  0  0  0  0  0
   -1.6398    0.5180    0.2023 C   0  0  0  0  0  0  0  0  0  0  0  0
    0.6293    0.5018    1.3366 C   0  0  0  0  0  0  0  0  0  0  0  0
    1.7773    1.1385    1.0819 C   0  0  0  0  0  0  0  0  0  0  0  0
   -2.6715   -0.3641   -0.0074 C   0  0  0  0  0  0  0  0  0  0  0  0
   -2.2740    1.7244    0.5543 C   0  0  0  0  0  0  0  0  0  0  0  0
   -2.6605   -1.7885   -0.3978 C   0  0  0  0  0  0  0  0  0  0  0  0
   -1.6432    3.0131    0.8899 C   0  0  0  0  0  0  0  0  0  0  0  0
   -5.1213   -0.1455    0.1296 C   0  0  0  0  0  0  0  0  0  0  0  0
    4.2972    0.8573   -1.0044 C   0  0  0  0  0  0  0  0  0  0  0  0
   -5.3854   -1.4892    0.3950 C   0  0  0  0  0  0  0  0  0  0  0  0
   -6.1617    0.7126   -0.2268 C   0  0  0  0  0  0  0  0  0  0  0  0
    6.4603   -0.1086   -1.7736 C   0  0  0  0  0  0  0  0  0  0  0  0
   -6.6899   -1.9749    0.3038 C   0  0  0  0  0  0  0  0  0  0  0  0
   -7.4660    0.2270   -0.3179 C   0  0  0  0  0  0  0  0  0  0  0  0
   -7.7301   -1.1167   -0.0527 C   0  0  0  0  0  0  0  0  0  0  0  0
    7.2264   -0.6173   -0.5867 C   0  0  0  0  0  0  0  0  0  0  0  0
    7.5924    0.2594    0.4347 C   0  0  0  0  0  0  0  0  0  0  0  0
    7.5719   -1.9661   -0.5052 C   0  0  0  0  0  0  0  0  0  0  0  0
    8.3041   -0.2129    1.5376 C   0  0  0  0  0  0  0  0  0  0  0  0
    8.2834   -2.4384    0.5976 C   0  0  0  0  0  0  0  0  0  0  0  0
    8.6496   -1.5618    1.6190 C   0  0  0  0  0  0  0  0  0  0  0  0
  -10.0178   -0.6579   -0.5127 C   0  0  0  0  0  0  0  0  0  0  0  0
    0.0073   -0.7973   -0.1994 H   0  0  0  0  0  0  0  0  0  0  0  0
    0.5743    0.6973   -1.9316 H   0  0  0  0  0  0  0  0  0  0  0  0
    0.0296    2.1208   -1.0689 H   0  0  0  0  0  0  0  0  0  0  0  0
    2.2506    2.4639   -0.5407 H   0  0  0  0  0  0  0  0  0  0  0  0
    0.3239    0.1768    2.3213 H   0  0  0  0  0  0  0  0  0  0  0  0
    2.5044    1.3996    1.8380 H   0  0  0  0  0  0  0  0  0  0  0  0
    2.6573   -0.4041   -1.1790 H   0  0  0  0  0  0  0  0  0  0  0  0
   -2.6679   -2.4497    0.4736 H   0  0  0  0  0  0  0  0  0  0  0  0
   -3.4410   -2.0564   -1.1153 H   0  0  0  0  0  0  0  0  0  0  0  0
   -1.7268   -2.0159   -0.9267 H   0  0  0  0  0  0  0  0  0  0  0  0
   -1.3810    3.5646   -0.0180 H   0  0  0  0  0  0  0  0  0  0  0  0
   -2.3265    3.6458    1.4680 H   0  0  0  0  0  0  0  0  0  0  0  0
   -0.7432    2.8889    1.4963 H   0  0  0  0  0  0  0  0  0  0  0  0
    4.5511   -1.0376   -1.8261 H   0  0  0  0  0  0  0  0  0  0  0  0
   -4.6619   -2.1839    0.7977 H   0  0  0  0  0  0  0  0  0  0  0  0
   -5.9858    1.7621   -0.4499 H   0  0  0  0  0  0  0  0  0  0  0  0
    6.7455    0.9263   -1.9969 H   0  0  0  0  0  0  0  0  0  0  0  0
    6.6949   -0.7014   -2.6650 H   0  0  0  0  0  0  0  0  0  0  0  0
   -6.8951   -3.0162    0.5374 H   0  0  0  0  0  0  0  0  0  0  0  0
   -8.2256    0.9471   -0.6022 H   0  0  0  0  0  0  0  0  0  0  0  0
    7.3335    1.3134    0.3836 H   0  0  0  0  0  0  0  0  0  0  0  0
    7.2910   -2.6594   -1.2936 H   0  0  0  0  0  0  0  0  0  0  0  0
    8.5898    0.4698    2.3326 H   0  0  0  0  0  0  0  0  0  0  0  0
    8.5522   -3.4888    0.6613 H   0  0  0  0  0  0  0  0  0  0  0  0
    9.2037   -1.9295    2.4776 H   0  0  0  0  0  0  0  0  0  0  0  0
  -10.9662   -1.2046   -0.5351 H   0  0  0  0  0  0  0  0  0  0  0  0
   -9.8532   -0.2624   -1.5207 H   0  0  0  0  0  0  0  0  0  0  0  0
  -10.1247    0.1372    0.2331 H   0  0  0  0  0  0  0  0  0  0  0  0
  1 18  2  0  0  0  0
  2 24  1  0  0  0  0
  2 31  1  0  0  0  0
  3  9  1  0  0  0  0
  3 18  1  0  0  0  0
  3 38  1  0  0  0  0
  4  5  1  0  0  0  0
  4 13  1  0  0  0  0
  4 17  1  0  0  0  0
  5 14  2  0  0  0  0
  6 18  1  0  0  0  0
  6 21  1  0  0  0  0
  6 45  1  0  0  0  0
  7  8  1  0  0  0  0
  7 10  1  0  0  0  0
  7 11  1  0  0  0  0
  7 32  1  0  0  0  0
  8  9  1  0  0  0  0
  8 33  1  0  0  0  0
  8 34  1  0  0  0  0
  9 12  1  0  0  0  0
  9 35  1  0  0  0  0
 10 13  2  0  0  0  0
 10 14  1  0  0  0  0
 11 12  2  0  0  0  0
 11 36  1  0  0  0  0
 12 37  1  0  0  0  0
 13 15  1  0  0  0  0
 14 16  1  0  0  0  0
 15 39  1  0  0  0  0
 15 40  1  0  0  0  0
 15 41  1  0  0  0  0
 16 42  1  0  0  0  0
 16 43  1  0  0  0  0
 16 44  1  0  0  0  0
 17 19  2  0  0  0  0
 17 20  1  0  0  0  0
 19 22  1  0  0  0  0
 19 46  1  0  0  0  0
 20 23  2  0  0  0  0
 20 47  1  0  0  0  0
 21 25  1  0  0  0  0
 21 48  1  0  0  0  0
 21 49  1  0  0  0  0
 22 24  2  0  0  0  0
 22 50  1  0  0  0  0
 23 24  1  0  0  0  0
 23 51  1  0  0  0  0
 25 26  2  0  0  0  0
 25 27  1  0  0  0  0
 26 28  1  0  0  0  0
 26 52  1  0  0  0  0
 27 29  2  0  0  0  0
 27 53  1  0  0  0  0
 28 30  2  0  0  0  0
 28 54  1  0  0  0  0
 29 30  1  0  0  0  0
 29 55  1  0  0  0  0
 30 56  1  0  0  0  0
 31 57  1  0  0  0  0
 31 58  1  0  0  0  0
 31 59  1  0  0  0  0
M  END
> <PUBCHEM_COMPOUND_CID>
25390026

> <PUBCHEM_CONFORMER_RMSD>
1

> <PUBCHEM_CONFORMER_DIVERSEORDER>
6
81
114
113
39
97
2
45
88
112
125
35
108
91
50
79
43
109
51
138
80
59
83
13
63
66
15
34
77
38
95
92
21
137
8
64
27
86
17
53
74
140
120
68
61
103
110
135
57
32
69
30
19
28
128
130
82
67
41
129
40
132
101
23
139
106
107
98
33
5
104
99
136
65
44
58
54
131
56
16
31
96
71
100
127
70
9
42
126
90
48
122
78
18
62
102
55
85
22
72
25
116
118
87
75
111
124
20
117
93
11
76
12
105
133
73
115
24
121
123
36
46
60
94
29
3
26
89
84
14
37
49
1
4
134
47
7
52
10
119

> <PUBCHEM_MMFF94_PARTIAL_CHARGES>
43
1 -0.57
10 -0.18
11 -0.29
12 -0.29
13 -0.33
14 0.11
15 0.18
16 0.18
17 -0.02
18 0.69
19 -0.15
2 -0.36
20 -0.15
21 0.44
22 -0.15
23 -0.15
24 0.08
25 -0.14
26 -0.15
27 -0.15
28 -0.15
29 -0.15
3 -0.73
30 -0.15
31 0.28
36 0.15
37 0.15
38 0.37
4 0.59
45 0.37
46 0.15
47 0.15
5 -0.71
50 0.15
51 0.15
52 0.15
53 0.15
54 0.15
55 0.15
56 0.15
6 -0.73
7 0.32
9 0.44

> <PUBCHEM_EFFECTIVE_ROTOR_COUNT>
8.6

> <PUBCHEM_PHARMACOPHORE_FEATURES>
9
1 1 acceptor
1 2 acceptor
1 3 donor
1 5 acceptor
1 6 donor
5 4 5 10 13 14 rings
5 7 8 9 11 12 rings
6 17 19 20 22 23 24 rings
6 25 26 27 28 29 30 rings

> <PUBCHEM_HEAVY_ATOM_COUNT>
31

> <PUBCHEM_ATOM_DEF_STEREO_COUNT>
2

> <PUBCHEM_ATOM_UDEF_STEREO_COUNT>
0

> <PUBCHEM_BOND_DEF_STEREO_COUNT>
0

> <PUBCHEM_BOND_UDEF_STEREO_COUNT>
0

> <PUBCHEM_ISOTOPIC_ATOM_COUNT>
0

> <PUBCHEM_COMPONENT_COUNT>
1

> <PUBCHEM_CACTVS_TAUTO_COUNT>
3

> <PUBCHEM_CONFORMER_ID>
01836BCA00000006

> <PUBCHEM_MMFF94_ENERGY>
87.2649

> <PUBCHEM_FEATURE_SELFOVERLAP>
45.722

> <PUBCHEM_SHAPE_FINGERPRINT>
10 15 10015588294294280109
10369192 42 8214149534473250355
106641 1 14476960094893519421
11181472 205 10954004958514506884
11386260 185 15502667035368933894
11719270 70 18273218582591384158
11991303 11 14273751676406416632
12089408 11 18334017203045599221
12120059 9 18129370661561088159
12539747 91 17203603761963263689
12539765 74 9295293846146083232
12741549 16 16845574210548481793
13383668 251 15481803784276327048
13692114 37 18410571812801028058
13914758 101 17676488311506589380
14202775 3 18041284374529915363
14216079 64 18040714762764790214
14251764 18 12679459781312417698
14537116 161 12324247161915181014
14617042 71 12535331429974943682
14849402 71 12679170627024470234
15183329 4 16515692113854675064
15392192 104 12679464188176263188
15510794 2 18060134354314510505
15706992 2 13045941275797087799
16992610 120 9943524150742598752
1754908 1 16774080674080155166
18335252 114 15285360643607470110
18393751 57 13830132767767114428
18603816 31 18200868578442544479
2026 5 18336544911421852894
20505436 4 10159697971405726308
21095123 293 10519990361227093507
21130935 74 18057609768438269622
21267235 1 18342464781410692873
21792934 111 17989203759125795881
21792961 116 18334856109485873253
22002106 203 17702654605679546447
22149856 69 16414935066781173368
22224240 67 14549020974745193444
23559900 14 18199749314112298609
23569943 247 17750231409983785762
23576562 1 14201980002204164199
24771293 8 12319733661306303953
249057 25 18261972777330558388
3004659 81 18334296509000599709
3044373 193 18341609365680954144
3092352 35 11239997841700443532
3383291 50 18130792269381035967
3991529 128 10879989194234034602
439807 62 18410295822085350482
504579 68 17095239228649585177
5085150 59 18343585140256524630
5283156 175 18334012791850188674
5470011 282 17604439603449600326
57359948 33 13262689145584997798
5758199 1 12679460880940395708
58902169 19 17022907903756816119
59682541 35 16200431377372195270
59682541 52 14345793826258775448
6081469 158 17967531281246018717
6126387 218 16845576388302004529
6201320 82 14130156472123068127
636775 72 9078854965661188823
6438161 24 18410854369676083958
6703917 75 10881395418646426029
9689198 14 9295281751570022038
9937071 3 18409171017210948795
9962374 69 17346025779625916757

> <PUBCHEM_SHAPE_MULTIPOLES>
606.3
32.74
2.27
1.25
4.68
0.13
-0.01
-22.15
1.02
0.25
0.41
2.82
0.06
-1.22

> <PUBCHEM_SHAPE_SELFOVERLAP>
1309.93

> <PUBCHEM_SHAPE_VOLUME>
335.5

> <PUBCHEM_COORDINATE_TYPE>
2
5
10

$$$$
