11882066
  -OEChem-12032416123D

 67 69  0     1  0  0  0  0  0999 V2000
   -6.0522   -2.7385   -1.6286 S   0  0  0  0  0  0  0  0  0  0  0  0
    8.9527   -0.3804   -0.9410 S   0  0  0  0  0  0  0  0  0  0  0  0
   -2.5067    1.1392    1.5473 O   0  0  0  0  0  0  0  0  0  0  0  0
   -0.9531    4.7842   -0.1288 O   0  0  0  0  0  0  0  0  0  0  0  0
    2.2193   -1.3122    0.9173 O   0  0  0  0  0  0  0  0  0  0  0  0
   -1.4816   -3.2827   -0.3875 O   0  0  0  0  0  0  0  0  0  0  0  0
   -0.4783    2.6958    0.7476 N   0  0  0  0  0  0  0  0  0  0  0  0
    2.0279    0.9375    1.4138 N   0  0  0  0  0  0  0  0  0  0  0  0
   -1.7352   -0.6156    0.2265 N   0  0  0  0  0  0  0  0  0  0  0  0
    4.0411    0.1436    0.6477 N   0  0  0  0  0  0  0  0  0  0  0  0
   -3.2128   -3.7127    1.0598 N   0  0  0  0  0  0  0  0  0  0  0  0
    0.6448    0.9012    1.8267 C   0  0  2  0  0  0  0  0  0  0  0  0
   -0.2904    1.2447    0.6637 C   0  0  1  0  0  0  0  0  0  0  0  0
    0.3501    1.9955    2.8540 C   0  0  0  0  0  0  0  0  0  0  0  0
    0.0573    3.2194    1.9986 C   0  0  0  0  0  0  0  0  0  0  0  0
   -1.6336    0.6078    0.8662 C   0  0  0  0  0  0  0  0  0  0  0  0
   -0.9479    3.5569   -0.2289 C   0  0  0  0  0  0  0  0  0  0  0  0
   -2.9192   -1.4421    0.2846 C   0  0  1  0  0  0  0  0  0  0  0  0
    2.7266   -0.1949    0.9809 C   0  0  0  0  0  0  0  0  0  0  0  0
   -1.4765    2.9498   -1.4661 C   0  0  0  0  0  0  0  0  0  0  0  0
   -3.8814   -1.1629   -0.8765 C   0  0  0  0  0  0  0  0  0  0  0  0
   -2.4548   -2.8910    0.2522 C   0  0  0  0  0  0  0  0  0  0  0  0
   -2.7322    3.1027   -1.9198 C   0  0  0  0  0  0  0  0  0  0  0  0
   -5.2893   -1.6217   -0.5782 C   0  0  0  0  0  0  0  0  0  0  0  0
    5.0630   -0.7100    0.1709 C   0  0  0  0  0  0  0  0  0  0  0  0
   -3.3063    2.5016   -3.1727 C   0  0  0  0  0  0  0  0  0  0  0  0
   -3.7097    3.9469   -1.1432 C   0  0  0  0  0  0  0  0  0  0  0  0
   -6.1050   -1.2587    0.4709 C   0  0  0  0  0  0  0  0  0  0  0  0
    6.3280   -0.1948   -0.1117 C   0  0  0  0  0  0  0  0  0  0  0  0
    4.8053   -2.0680   -0.0165 C   0  0  0  0  0  0  0  0  0  0  0  0
   -7.3728   -1.9063    0.4117 C   0  0  0  0  0  0  0  0  0  0  0  0
   -7.4779   -2.7391   -0.6804 C   0  0  0  0  0  0  0  0  0  0  0  0
    7.3353   -1.0374   -0.5816 C   0  0  0  0  0  0  0  0  0  0  0  0
    5.8126   -2.9107   -0.4866 C   0  0  0  0  0  0  0  0  0  0  0  0
    7.0775   -2.3955   -0.7691 C   0  0  0  0  0  0  0  0  0  0  0  0
    8.5754    0.8482   -2.2227 C   0  0  0  0  0  0  0  0  0  0  0  0
    0.4401   -0.0894    2.2486 H   0  0  0  0  0  0  0  0  0  0  0  0
    0.1217    0.9802   -0.3158 H   0  0  0  0  0  0  0  0  0  0  0  0
    1.1660    2.1711    3.5619 H   0  0  0  0  0  0  0  0  0  0  0  0
   -0.5446    1.7306    3.4303 H   0  0  0  0  0  0  0  0  0  0  0  0
    0.9718    3.7766    1.7660 H   0  0  0  0  0  0  0  0  0  0  0  0
   -0.6585    3.9040    2.4640 H   0  0  0  0  0  0  0  0  0  0  0  0
    2.4985    1.8365    1.3736 H   0  0  0  0  0  0  0  0  0  0  0  0
   -0.9486   -0.9498   -0.3236 H   0  0  0  0  0  0  0  0  0  0  0  0
   -3.4004   -1.2400    1.2491 H   0  0  0  0  0  0  0  0  0  0  0  0
   -0.7837    2.3213   -2.0184 H   0  0  0  0  0  0  0  0  0  0  0  0
   -3.9277   -0.0816   -1.0637 H   0  0  0  0  0  0  0  0  0  0  0  0
   -3.5026   -1.6150   -1.8023 H   0  0  0  0  0  0  0  0  0  0  0  0
    4.3033    1.1197    0.7597 H   0  0  0  0  0  0  0  0  0  0  0  0
   -3.6560    3.2885   -3.8484 H   0  0  0  0  0  0  0  0  0  0  0  0
   -2.5583    1.9071   -3.7074 H   0  0  0  0  0  0  0  0  0  0  0  0
   -4.1475    1.8436   -2.9326 H   0  0  0  0  0  0  0  0  0  0  0  0
   -4.6707    3.4252   -1.0651 H   0  0  0  0  0  0  0  0  0  0  0  0
   -3.4048    4.1666   -0.1170 H   0  0  0  0  0  0  0  0  0  0  0  0
   -3.8809    4.8955   -1.6627 H   0  0  0  0  0  0  0  0  0  0  0  0
   -3.0004   -4.7015    1.1404 H   0  0  0  0  0  0  0  0  0  0  0  0
   -4.0084   -3.3749    1.5917 H   0  0  0  0  0  0  0  0  0  0  0  0
   -5.8141   -0.5597    1.2446 H   0  0  0  0  0  0  0  0  0  0  0  0
    6.5215    0.8644    0.0448 H   0  0  0  0  0  0  0  0  0  0  0  0
    3.8534   -2.5407    0.1791 H   0  0  0  0  0  0  0  0  0  0  0  0
   -8.1675   -1.7673    1.1329 H   0  0  0  0  0  0  0  0  0  0  0  0
   -8.3238   -3.3479   -0.9669 H   0  0  0  0  0  0  0  0  0  0  0  0
    5.6130   -3.9683   -0.6331 H   0  0  0  0  0  0  0  0  0  0  0  0
    7.8498   -3.0678   -1.1345 H   0  0  0  0  0  0  0  0  0  0  0  0
    8.0392    0.3797   -3.0525 H   0  0  0  0  0  0  0  0  0  0  0  0
    7.9725    1.6628   -1.8135 H   0  0  0  0  0  0  0  0  0  0  0  0
    9.5108    1.2670   -2.6030 H   0  0  0  0  0  0  0  0  0  0  0  0
  1 24  1  0  0  0  0
  1 32  1  0  0  0  0
  2 33  1  0  0  0  0
  2 36  1  0  0  0  0
  3 16  2  0  0  0  0
  4 17  2  0  0  0  0
  5 19  2  0  0  0  0
  6 22  2  0  0  0  0
  7 13  1  0  0  0  0
  7 15  1  0  0  0  0
  7 17  1  0  0  0  0
  8 12  1  0  0  0  0
  8 19  1  0  0  0  0
  8 43  1  0  0  0  0
  9 16  1  0  0  0  0
  9 18  1  0  0  0  0
  9 44  1  0  0  0  0
 10 19  1  0  0  0  0
 10 25  1  0  0  0  0
 10 49  1  0  0  0  0
 11 22  1  0  0  0  0
 11 56  1  0  0  0  0
 11 57  1  0  0  0  0
 12 13  1  0  0  0  0
 12 14  1  0  0  0  0
 12 37  1  0  0  0  0
 13 16  1  0  0  0  0
 13 38  1  0  0  0  0
 14 15  1  0  0  0  0
 14 39  1  0  0  0  0
 14 40  1  0  0  0  0
 15 41  1  0  0  0  0
 15 42  1  0  0  0  0
 17 20  1  0  0  0  0
 18 21  1  0  0  0  0
 18 22  1  0  0  0  0
 18 45  1  0  0  0  0
 20 23  2  0  0  0  0
 20 46  1  0  0  0  0
 21 24  1  0  0  0  0
 21 47  1  0  0  0  0
 21 48  1  0  0  0  0
 23 26  1  0  0  0  0
 23 27  1  0  0  0  0
 24 28  2  0  0  0  0
 25 29  2  0  0  0  0
 25 30  1  0  0  0  0
 26 50  1  0  0  0  0
 26 51  1  0  0  0  0
 26 52  1  0  0  0  0
 27 53  1  0  0  0  0
 27 54  1  0  0  0  0
 27 55  1  0  0  0  0
 28 31  1  0  0  0  0
 28 58  1  0  0  0  0
 29 33  1  0  0  0  0
 29 59  1  0  0  0  0
 30 34  2  0  0  0  0
 30 60  1  0  0  0  0
 31 32  2  0  0  0  0
 31 61  1  0  0  0  0
 32 62  1  0  0  0  0
 33 35  2  0  0  0  0
 34 35  1  0  0  0  0
 34 63  1  0  0  0  0
 35 64  1  0  0  0  0
 36 65  1  0  0  0  0
 36 66  1  0  0  0  0
 36 67  1  0  0  0  0
M  END
> <PUBCHEM_COMPOUND_CID>
11882066

> <PUBCHEM_CONFORMER_RMSD>
1.2

> <PUBCHEM_CONFORMER_DIVERSEORDER>
1
33
71
50
51
31
68
96
85
89
39
84
70
97
49
61
95
102
103
78
7
76
58
25
40
72
30
105
83
99
37
94
28
5
69
90
12
64
47
13
34
87
88
86
81
18
32
53
36
62
66
20
41
82
21
59
101
67
24
104
79
8
75
16
56
74
63
93
42
15
100
26
19
44
65
14
91
48
3
60
10
45
98
2
11
92
46
22
57
80
29
38
6
23
55
54
35
43
73
52
17
4
9
77
27

> <PUBCHEM_MMFF94_PARTIAL_CHARGES>
48
1 -0.08
10 -0.55
11 -0.8
12 0.3
13 0.36
15 0.3
16 0.57
17 0.62
18 0.36
19 0.69
2 -0.33
20 -0.14
21 0.18
22 0.57
23 -0.28
24 -0.14
25 0.12
26 0.14
27 0.14
28 -0.15
29 -0.15
3 -0.57
30 -0.15
31 -0.15
32 -0.11
33 0.1
34 -0.15
35 -0.15
36 0.23
4 -0.57
43 0.37
44 0.37
46 0.15
49 0.37
5 -0.57
56 0.37
57 0.37
58 0.15
59 0.15
6 -0.57
60 0.15
61 0.15
62 0.15
63 0.15
64 0.15
7 -0.66
8 -0.73
9 -0.73

> <PUBCHEM_EFFECTIVE_ROTOR_COUNT>
14

> <PUBCHEM_PHARMACOPHORE_FEATURES>
13
1 10 donor
1 11 donor
1 3 acceptor
1 36 hydrophobe
1 4 acceptor
1 5 acceptor
1 6 acceptor
1 8 donor
1 9 donor
3 23 26 27 hydrophobe
5 1 24 28 31 32 rings
5 7 12 13 14 15 rings
6 25 29 30 33 34 35 rings

> <PUBCHEM_HEAVY_ATOM_COUNT>
36

> <PUBCHEM_ATOM_DEF_STEREO_COUNT>
3

> <PUBCHEM_ATOM_UDEF_STEREO_COUNT>
0

> <PUBCHEM_BOND_DEF_STEREO_COUNT>
0

> <PUBCHEM_BOND_UDEF_STEREO_COUNT>
0

> <PUBCHEM_ISOTOPIC_ATOM_COUNT>
0

> <PUBCHEM_COMPONENT_COUNT>
1

> <PUBCHEM_CACTVS_TAUTO_COUNT>
12

> <PUBCHEM_CONFORMER_ID>
00B54E5200000001

> <PUBCHEM_MMFF94_ENERGY>
88.2341

> <PUBCHEM_FEATURE_SELFOVERLAP>
66.024

> <PUBCHEM_SHAPE_FINGERPRINT>
10076449 9 18411703209452905163
11756154 67 18340207504923543575
12788726 201 18041267799448513195
13631057 29 18272375252925144890
13673619 4 18341326773336765809
13690498 29 18411412899775790063
15198563 99 18261667095907267773
15264996 44 17317307743469504111
15392192 29 18199485387955436059
15448158 6 18130499825163300539
15781502 461 18201155460403363886
16628084 112 18338513011186472811
16994733 274 14490456578987718159
21049683 271 18410576227430815571
21365058 113 18041558161308671093
21792965 302 18262519320413106034
23559900 14 18122337150160548651
255183 451 18120931974274305703
437815 12 18272367607334816171
5219985 9 18272937141093138162
70634741 139 18409450267853055156

> <PUBCHEM_SHAPE_MULTIPOLES>
700.18
21.93
5.6
2.15
35.73
3.74
-0.31
-21.62
-12.18
-7.54
-1.23
-0.54
2.12
1.36

> <PUBCHEM_SHAPE_SELFOVERLAP>
1438.726

> <PUBCHEM_SHAPE_VOLUME>
404.9

> <PUBCHEM_COORDINATE_TYPE>
2
5
10

$$$$
