23786327
  -OEChem-12032416133D

 81 85  0     1  0  0  0  0  0999 V2000
   -3.9552   -1.0065   -0.1058 O   0  0  0  0  0  0  0  0  0  0  0  0
    3.3994    0.7208   -1.1342 O   0  0  0  0  0  0  0  0  0  0  0  0
   -1.0538   -2.8649    2.3688 O   0  0  0  0  0  0  0  0  0  0  0  0
    4.4436   -1.9285   -1.7408 O   0  0  0  0  0  0  0  0  0  0  0  0
   -4.5230    1.1908   -0.3879 O   0  0  0  0  0  0  0  0  0  0  0  0
    9.1935    2.0798    1.6885 O   0  0  0  0  0  0  0  0  0  0  0  0
    8.7786    3.2835   -0.3577 O   0  0  0  0  0  0  0  0  0  0  0  0
  -10.9405    2.3205   -0.0910 O   0  0  0  0  0  0  0  0  0  0  0  0
    5.1867   -1.8239    0.4587 N   0  0  0  0  0  0  0  0  0  0  0  0
   -6.1293   -0.4739   -0.0293 N   0  0  0  0  0  0  0  0  0  0  0  0
    0.3217   -1.5362   -0.5778 C   0  0  2  0  0  0  0  0  0  0  0  0
   -0.2031   -0.8313    0.7375 C   0  0  2  0  0  0  0  0  0  0  0  0
   -1.7579   -1.0266    1.0158 C   0  0  1  0  0  0  0  0  0  0  0  0
    1.8254   -1.1385   -0.8810 C   0  0  1  0  0  0  0  0  0  0  0  0
   -0.5818   -1.1127   -1.7706 C   0  0  0  0  0  0  0  0  0  0  0  0
    0.1612    0.6855    0.7463 C   0  0  0  0  0  0  0  0  0  0  0  0
   -2.5778   -0.6606   -0.2549 C   0  0  1  0  0  0  0  0  0  0  0  0
    2.0347    0.3866   -0.8934 C   0  0  1  0  0  0  0  0  0  0  0  0
   -2.0739   -1.3365   -1.5295 C   0  0  0  0  0  0  0  0  0  0  0  0
    1.6125    1.0034    0.4257 C   0  0  0  0  0  0  0  0  0  0  0  0
    0.2861   -3.0846   -0.4798 C   0  0  0  0  0  0  0  0  0  0  0  0
   -2.0819   -2.4643    1.4936 C   0  0  0  0  0  0  0  0  0  0  0  0
   -2.2255   -0.1174    2.1881 C   0  0  0  0  0  0  0  0  0  0  0  0
    2.8401   -1.8182    0.0686 C   0  0  0  0  0  0  0  0  0  0  0  0
    4.2197   -1.8636   -0.5351 C   0  0  0  0  0  0  0  0  0  0  0  0
   -4.8525    0.0271   -0.1935 C   0  0  0  0  0  0  0  0  0  0  0  0
    6.6047   -1.8553    0.1822 C   0  0  0  0  0  0  0  0  0  0  0  0
   -7.3517    0.2357   -0.0465 C   0  0  0  0  0  0  0  0  0  0  0  0
    7.1728   -0.4771    0.0029 C   0  0  0  0  0  0  0  0  0  0  0  0
    7.9357    0.0962    1.0230 C   0  0  0  0  0  0  0  0  0  0  0  0
   -7.3540    1.6161   -0.2472 C   0  0  0  0  0  0  0  0  0  0  0  0
   -8.5555   -0.4441    0.1387 C   0  0  0  0  0  0  0  0  0  0  0  0
    6.9306    0.2252   -1.1908 C   0  0  0  0  0  0  0  0  0  0  0  0
    8.4353    1.3651    0.8130 C   0  0  0  0  0  0  0  0  0  0  0  0
    7.4485    1.5090   -1.3781 C   0  0  0  0  0  0  0  0  0  0  0  0
   -8.5600    2.3166   -0.2630 C   0  0  0  0  0  0  0  0  0  0  0  0
   -9.7616    0.2563    0.1230 C   0  0  0  0  0  0  0  0  0  0  0  0
    8.1983    2.0525   -0.3554 C   0  0  0  0  0  0  0  0  0  0  0  0
   -9.7638    1.6367   -0.0779 C   0  0  0  0  0  0  0  0  0  0  0  0
    9.4078    3.2939    0.9400 C   0  0  0  0  0  0  0  0  0  0  0  0
  -12.1338    1.5636    0.1069 C   0  0  0  0  0  0  0  0  0  0  0  0
    0.3666   -1.2487    1.5778 H   0  0  0  0  0  0  0  0  0  0  0  0
    2.0467   -1.4920   -1.8986 H   0  0  0  0  0  0  0  0  0  0  0  0
   -0.4463   -0.0515   -2.0033 H   0  0  0  0  0  0  0  0  0  0  0  0
   -0.2843   -1.6586   -2.6753 H   0  0  0  0  0  0  0  0  0  0  0  0
   -0.0350    1.1108    1.7366 H   0  0  0  0  0  0  0  0  0  0  0  0
   -0.4715    1.2336    0.0396 H   0  0  0  0  0  0  0  0  0  0  0  0
   -2.4580    0.4161   -0.4200 H   0  0  0  0  0  0  0  0  0  0  0  0
    1.4644    0.8358   -1.7126 H   0  0  0  0  0  0  0  0  0  0  0  0
   -2.6347   -0.9391   -2.3860 H   0  0  0  0  0  0  0  0  0  0  0  0
   -2.3187   -2.4041   -1.5201 H   0  0  0  0  0  0  0  0  0  0  0  0
    1.7401    2.0926    0.3754 H   0  0  0  0  0  0  0  0  0  0  0  0
    2.2658    0.6882    1.2467 H   0  0  0  0  0  0  0  0  0  0  0  0
    0.9377   -3.5376   -1.2378 H   0  0  0  0  0  0  0  0  0  0  0  0
   -0.6967   -3.5119   -0.6762 H   0  0  0  0  0  0  0  0  0  0  0  0
    0.6078   -3.4466    0.5006 H   0  0  0  0  0  0  0  0  0  0  0  0
   -3.0370   -2.5122    2.0295 H   0  0  0  0  0  0  0  0  0  0  0  0
   -2.1582   -3.1814    0.6768 H   0  0  0  0  0  0  0  0  0  0  0  0
   -3.2558   -0.3432    2.4878 H   0  0  0  0  0  0  0  0  0  0  0  0
   -2.2190    0.9427    1.9134 H   0  0  0  0  0  0  0  0  0  0  0  0
   -1.5899   -0.2484    3.0710 H   0  0  0  0  0  0  0  0  0  0  0  0
    2.8512   -1.3439    1.0536 H   0  0  0  0  0  0  0  0  0  0  0  0
    2.6065   -2.8712    0.2449 H   0  0  0  0  0  0  0  0  0  0  0  0
    3.4688    1.6906   -1.1487 H   0  0  0  0  0  0  0  0  0  0  0  0
   -1.2609   -3.7675    2.6649 H   0  0  0  0  0  0  0  0  0  0  0  0
    4.9046   -1.7625    1.4326 H   0  0  0  0  0  0  0  0  0  0  0  0
   -6.2026   -1.4769    0.1229 H   0  0  0  0  0  0  0  0  0  0  0  0
    6.7904   -2.4535   -0.7178 H   0  0  0  0  0  0  0  0  0  0  0  0
    7.0867   -2.3745    1.0180 H   0  0  0  0  0  0  0  0  0  0  0  0
    8.1308   -0.4301    1.9511 H   0  0  0  0  0  0  0  0  0  0  0  0
   -6.4626    2.2093   -0.3968 H   0  0  0  0  0  0  0  0  0  0  0  0
   -8.5665   -1.5197    0.2964 H   0  0  0  0  0  0  0  0  0  0  0  0
    6.3507   -0.2228   -1.9920 H   0  0  0  0  0  0  0  0  0  0  0  0
    7.2663    2.0527   -2.2980 H   0  0  0  0  0  0  0  0  0  0  0  0
   -8.5569    3.3920   -0.4192 H   0  0  0  0  0  0  0  0  0  0  0  0
  -10.6593   -0.3336    0.2734 H   0  0  0  0  0  0  0  0  0  0  0  0
    9.0091    4.1365    1.5165 H   0  0  0  0  0  0  0  0  0  0  0  0
   10.4860    3.4378    0.8061 H   0  0  0  0  0  0  0  0  0  0  0  0
  -12.2870    0.8363   -0.6976 H   0  0  0  0  0  0  0  0  0  0  0  0
  -12.1549    1.0972    1.0978 H   0  0  0  0  0  0  0  0  0  0  0  0
  -12.9725    2.2662    0.0666 H   0  0  0  0  0  0  0  0  0  0  0  0
  1 17  1  0  0  0  0
  1 26  1  0  0  0  0
  2 18  1  0  0  0  0
  2 64  1  0  0  0  0
  3 22  1  0  0  0  0
  3 65  1  0  0  0  0
  4 25  2  0  0  0  0
  5 26  2  0  0  0  0
  6 34  1  0  0  0  0
  6 40  1  0  0  0  0
  7 38  1  0  0  0  0
  7 40  1  0  0  0  0
  8 39  1  0  0  0  0
  8 41  1  0  0  0  0
  9 25  1  0  0  0  0
  9 27  1  0  0  0  0
  9 66  1  0  0  0  0
 10 26  1  0  0  0  0
 10 28  1  0  0  0  0
 10 67  1  0  0  0  0
 11 12  1  0  0  0  0
 11 14  1  0  0  0  0
 11 15  1  0  0  0  0
 11 21  1  0  0  0  0
 12 13  1  0  0  0  0
 12 16  1  0  0  0  0
 12 42  1  0  0  0  0
 13 17  1  0  0  0  0
 13 22  1  0  0  0  0
 13 23  1  0  0  0  0
 14 18  1  0  0  0  0
 14 24  1  0  0  0  0
 14 43  1  0  0  0  0
 15 19  1  0  0  0  0
 15 44  1  0  0  0  0
 15 45  1  0  0  0  0
 16 20  1  0  0  0  0
 16 46  1  0  0  0  0
 16 47  1  0  0  0  0
 17 19  1  0  0  0  0
 17 48  1  0  0  0  0
 18 20  1  0  0  0  0
 18 49  1  0  0  0  0
 19 50  1  0  0  0  0
 19 51  1  0  0  0  0
 20 52  1  0  0  0  0
 20 53  1  0  0  0  0
 21 54  1  0  0  0  0
 21 55  1  0  0  0  0
 21 56  1  0  0  0  0
 22 57  1  0  0  0  0
 22 58  1  0  0  0  0
 23 59  1  0  0  0  0
 23 60  1  0  0  0  0
 23 61  1  0  0  0  0
 24 25  1  0  0  0  0
 24 62  1  0  0  0  0
 24 63  1  0  0  0  0
 27 29  1  0  0  0  0
 27 68  1  0  0  0  0
 27 69  1  0  0  0  0
 28 31  2  0  0  0  0
 28 32  1  0  0  0  0
 29 30  2  0  0  0  0
 29 33  1  0  0  0  0
 30 34  1  0  0  0  0
 30 70  1  0  0  0  0
 31 36  1  0  0  0  0
 31 71  1  0  0  0  0
 32 37  2  0  0  0  0
 32 72  1  0  0  0  0
 33 35  2  0  0  0  0
 33 73  1  0  0  0  0
 34 38  2  0  0  0  0
 35 38  1  0  0  0  0
 35 74  1  0  0  0  0
 36 39  2  0  0  0  0
 36 75  1  0  0  0  0
 37 39  1  0  0  0  0
 37 76  1  0  0  0  0
 40 77  1  0  0  0  0
 40 78  1  0  0  0  0
 41 79  1  0  0  0  0
 41 80  1  0  0  0  0
 41 81  1  0  0  0  0
M  END
> <PUBCHEM_COMPOUND_CID>
23786327

> <PUBCHEM_CONFORMER_RMSD>
1.2

> <PUBCHEM_CONFORMER_DIVERSEORDER>
57
6
115
39
74
5
124
108
130
87
17
114
27
143
71
12
67
59
3
16
142
90
84
35
110
49
95
19
40
122
4
82
26
7
112
18
88
102
32
145
78
15
132
144
51
86
28
133
107
137
80
64
33
113
2
65
96
50
129
99
55
37
77
101
24
30
109
136
38
134
70
141
138
9
54
46
119
121
106
103
140
25
123
116
125
22
20
73
92
100
21
91
98
53
131
11
36
72
83
120
8
117
76
56
127
94
118
66
111
68
23
29
10
63
31
85
89
79
97
69
93
48
52
1
34
139
47
75
42
135
43
13
45
61
41
128
44
58
105
60
126
81
104
62
14

> <PUBCHEM_MMFF94_PARTIAL_CHARGES>
42
1 -0.43
10 -0.55
17 0.28
18 0.28
2 -0.68
22 0.28
24 0.06
25 0.57
26 0.78
27 0.44
28 0.12
29 -0.14
3 -0.68
30 -0.15
31 -0.15
32 -0.15
33 -0.15
34 0.08
35 -0.15
36 -0.15
37 -0.15
38 0.08
39 0.08
4 -0.57
40 0.56
41 0.28
5 -0.57
6 -0.36
64 0.4
65 0.4
66 0.37
67 0.37
7 -0.36
70 0.15
71 0.15
72 0.15
73 0.15
74 0.15
75 0.15
76 0.15
8 -0.36
9 -0.73

> <PUBCHEM_EFFECTIVE_ROTOR_COUNT>
13.2

> <PUBCHEM_PHARMACOPHORE_FEATURES>
16
1 10 donor
1 2 acceptor
1 2 donor
1 3 acceptor
1 3 donor
1 4 acceptor
1 5 acceptor
1 6 acceptor
1 7 acceptor
1 8 acceptor
1 9 donor
5 6 7 34 38 40 rings
6 11 12 13 15 17 19 rings
6 11 12 14 16 18 20 rings
6 28 31 32 36 37 39 rings
6 29 30 33 34 35 38 rings

> <PUBCHEM_HEAVY_ATOM_COUNT>
41

> <PUBCHEM_ATOM_DEF_STEREO_COUNT>
5

> <PUBCHEM_ATOM_UDEF_STEREO_COUNT>
1

> <PUBCHEM_BOND_DEF_STEREO_COUNT>
0

> <PUBCHEM_BOND_UDEF_STEREO_COUNT>
0

> <PUBCHEM_ISOTOPIC_ATOM_COUNT>
0

> <PUBCHEM_COMPONENT_COUNT>
1

> <PUBCHEM_CACTVS_TAUTO_COUNT>
4

> <PUBCHEM_CONFORMER_ID>
016AF35700000039

> <PUBCHEM_MMFF94_ENERGY>
146.2662

> <PUBCHEM_FEATURE_SELFOVERLAP>
81.414

> <PUBCHEM_SHAPE_FINGERPRINT>
10029044 110 18343587330699966401
10076449 9 12751521769471200139
10533779 1 16987425612395985304
10533779 47 16153706479498133209
11181472 205 17917159277590958090
11211813 74 18272651260255616880
11443803 9 17603586327188197955
11578821 258 18343019986884841825
11607047 141 18115018590671838442
11621639 179 18271797999913469617
12664476 115 18410008803155492317
13782708 43 9151167633072982578
14040221 8 16415482623830295537
14117953 113 14836401445324525049
14400156 266 14189582918818036827
15198563 99 14692579784320955699
15604295 49 18338232670803496653
15840311 113 18409170987731201102
16728433 110 18411138009933724221
16991971 28 13110957643486860363
17686467 74 18114185238156325709
19315958 150 18412829071021969134
20105231 36 9727642700291985164
2026 5 8430331129765733064
21057603 308 17702951469571883088
21792934 111 18410291394664989442
21792938 703 13398334812470836125
22899556 105 10735340705355837596
23576562 1 16056016070320238353
437795 160 17530972418926842475
4403749 210 18340209695167291795
45270241 37 18130229255309028414
4760202 170 17703785964162826592
5028188 123 18202559589403762453
54583773 228 18060418045404636167
57035037 87 18410012147599866761
6081469 158 9655573007198912815
9937071 3 11602821302250399412

> <PUBCHEM_SHAPE_MULTIPOLES>
786.84
38.86
3.14
1.46
44.71
0.59
-0.32
40.54
-1.85
-4.19
-0.39
-1.41
-0.49
1.6

> <PUBCHEM_SHAPE_SELFOVERLAP>
1686.364

> <PUBCHEM_SHAPE_VOLUME>
430.6

> <PUBCHEM_COORDINATE_TYPE>
2
5
10

$$$$
