26761840
  -OEChem-12032416403D

 38 40  0     1  0  0  0  0  0999 V2000
   -4.5408    0.8285   -0.3575 O   0  0  0  0  0  0  0  0  0  0  0  0
    0.8874   -2.9213   -0.1476 O   0  0  0  0  0  0  0  0  0  0  0  0
   -0.0333   -1.5572    1.4736 O   0  0  0  0  0  0  0  0  0  0  0  0
   -0.3557    0.5021   -0.2871 N   0  0  2  0  0  0  0  0  0  0  0  0
    2.8458    2.0700    0.8088 N   0  0  0  0  0  0  0  0  0  0  0  0
    3.7702    0.7636   -0.7534 N   0  0  0  0  0  0  0  0  0  0  0  0
   -1.7466    0.3316    0.1262 C   0  0  0  0  0  0  0  0  0  0  0  0
    0.2699   -0.7513   -0.7793 C   0  0  1  0  0  0  0  0  0  0  0  0
   -2.3953    1.6939    0.3874 C   0  0  0  0  0  0  0  0  0  0  0  0
   -2.5460   -0.4354   -0.9319 C   0  0  0  0  0  0  0  0  0  0  0  0
    0.4281    1.2265    0.7400 C   0  0  0  0  0  0  0  0  0  0  0  0
    1.6797   -0.5261   -1.3986 C   0  0  0  0  0  0  0  0  0  0  0  0
    1.8491    1.2757    0.3298 C   0  0  0  0  0  0  0  0  0  0  0  0
    2.4402    0.4816   -0.6218 C   0  0  0  0  0  0  0  0  0  0  0  0
   -3.8783    1.5240    0.6987 C   0  0  0  0  0  0  0  0  0  0  0  0
   -4.0205   -0.4873   -0.5474 C   0  0  0  0  0  0  0  0  0  0  0  0
    0.3441   -1.7649    0.3283 C   0  0  0  0  0  0  0  0  0  0  0  0
    3.9848    1.7247    0.1238 C   0  0  0  0  0  0  0  0  0  0  0  0
    1.0171   -3.9787    0.8080 C   0  0  0  0  0  0  0  0  0  0  0  0
   -1.8232   -0.2260    1.0666 H   0  0  0  0  0  0  0  0  0  0  0  0
   -0.3147   -1.1912   -1.5929 H   0  0  0  0  0  0  0  0  0  0  0  0
   -1.9440    2.2161    1.2369 H   0  0  0  0  0  0  0  0  0  0  0  0
   -2.2887    2.3309   -0.5003 H   0  0  0  0  0  0  0  0  0  0  0  0
   -2.4496    0.0608   -1.9063 H   0  0  0  0  0  0  0  0  0  0  0  0
   -2.2209   -1.4750   -1.0356 H   0  0  0  0  0  0  0  0  0  0  0  0
    0.3417    0.7857    1.7385 H   0  0  0  0  0  0  0  0  0  0  0  0
    0.0923    2.2671    0.8063 H   0  0  0  0  0  0  0  0  0  0  0  0
    1.5578   -0.1369   -2.4177 H   0  0  0  0  0  0  0  0  0  0  0  0
    2.2621   -1.4501   -1.4737 H   0  0  0  0  0  0  0  0  0  0  0  0
   -4.0304    0.9855    1.6416 H   0  0  0  0  0  0  0  0  0  0  0  0
   -4.3524    2.5056    0.7990 H   0  0  0  0  0  0  0  0  0  0  0  0
   -4.5978   -0.9608   -1.3480 H   0  0  0  0  0  0  0  0  0  0  0  0
   -4.1758   -1.0756    0.3647 H   0  0  0  0  0  0  0  0  0  0  0  0
    2.7687    2.7757    1.5294 H   0  0  0  0  0  0  0  0  0  0  0  0
    4.9313    2.2108    0.3132 H   0  0  0  0  0  0  0  0  0  0  0  0
    1.4608   -4.8408    0.3031 H   0  0  0  0  0  0  0  0  0  0  0  0
    0.0332   -4.2644    1.1923 H   0  0  0  0  0  0  0  0  0  0  0  0
    1.6773   -3.6715    1.6247 H   0  0  0  0  0  0  0  0  0  0  0  0
  1 15  1  0  0  0  0
  1 16  1  0  0  0  0
  2 17  1  0  0  0  0
  2 19  1  0  0  0  0
  3 17  2  0  0  0  0
  4  7  1  0  0  0  0
  4  8  1  0  0  0  0
  4 11  1  0  0  0  0
  5 13  1  0  0  0  0
  5 18  1  0  0  0  0
  5 34  1  0  0  0  0
  6 14  1  0  0  0  0
  6 18  2  0  0  0  0
  7  9  1  0  0  0  0
  7 10  1  0  0  0  0
  7 20  1  0  0  0  0
  8 12  1  0  0  0  0
  8 17  1  0  0  0  0
  8 21  1  0  0  0  0
  9 15  1  0  0  0  0
  9 22  1  0  0  0  0
  9 23  1  0  0  0  0
 10 16  1  0  0  0  0
 10 24  1  0  0  0  0
 10 25  1  0  0  0  0
 11 13  1  0  0  0  0
 11 26  1  0  0  0  0
 11 27  1  0  0  0  0
 12 14  1  0  0  0  0
 12 28  1  0  0  0  0
 12 29  1  0  0  0  0
 13 14  2  0  0  0  0
 15 30  1  0  0  0  0
 15 31  1  0  0  0  0
 16 32  1  0  0  0  0
 16 33  1  0  0  0  0
 18 35  1  0  0  0  0
 19 36  1  0  0  0  0
 19 37  1  0  0  0  0
 19 38  1  0  0  0  0
M  END
> <PUBCHEM_COMPOUND_CID>
26761840

> <PUBCHEM_CONFORMER_RMSD>
0.6

> <PUBCHEM_CONFORMER_DIVERSEORDER>
1
22
12
21
19
20
8
5
9
18
11
13
16
7
4
10
6
3
23
2
17
14
15

> <PUBCHEM_MMFF94_PARTIAL_CHARGES>
19
1 -0.56
11 0.45
12 0.18
13 -0.33
14 0.05
15 0.28
16 0.28
17 0.66
18 0.04
19 0.28
2 -0.43
3 -0.57
34 0.27
35 0.15
4 -0.81
5 0.03
6 -0.57
7 0.27
8 0.33

> <PUBCHEM_EFFECTIVE_ROTOR_COUNT>
5

> <PUBCHEM_PHARMACOPHORE_FEATURES>
8
1 1 acceptor
1 3 acceptor
1 4 cation
1 5 donor
3 5 6 18 cation
5 5 6 13 14 18 rings
6 1 7 9 10 15 16 rings
6 4 8 11 12 13 14 rings

> <PUBCHEM_HEAVY_ATOM_COUNT>
19

> <PUBCHEM_ATOM_DEF_STEREO_COUNT>
1

> <PUBCHEM_ATOM_UDEF_STEREO_COUNT>
0

> <PUBCHEM_BOND_DEF_STEREO_COUNT>
0

> <PUBCHEM_BOND_UDEF_STEREO_COUNT>
0

> <PUBCHEM_ISOTOPIC_ATOM_COUNT>
0

> <PUBCHEM_COMPONENT_COUNT>
1

> <PUBCHEM_CACTVS_TAUTO_COUNT>
2

> <PUBCHEM_CONFORMER_ID>
01985A7000000001

> <PUBCHEM_MMFF94_ENERGY>
42.6183

> <PUBCHEM_FEATURE_SELFOVERLAP>
40.697

> <PUBCHEM_SHAPE_FINGERPRINT>
10922049 32 18339926012286084292
121448 382 18268707384528329147
12532896 13 18339357595129562534
12553582 1 17618504281578753119
12592029 89 18410856533938688002
12644460 14 18268440035983729673
12730499 353 18337118895419616025
12788726 201 17468755642693418762
13004483 165 16749299576002155195
13464514 151 18341622460038505369
13583140 156 16661764564722782993
14178342 30 18187096065621975891
14787075 74 17984136243509080453
15852999 172 17822016419004890659
16945 1 18267019449274319324
18186145 218 18411139134318402748
18915476 22 18043508548374694839
19765921 60 18272369788819142425
19784866 9 18340484465435198720
200 152 14979689805299797084
201361 129 18340208483932668929
204376 136 18261115217835819493
20510252 161 18053104205103295451
20567600 347 18334011709402782003
20645477 70 18201439108848991541
212916 134 18198604683852714768
21421861 104 18120378644298015481
21501502 16 18198621034798504169
21524375 3 18343300392218640036
2255824 54 18267022747962729087
22854114 111 18338520742184685837
23366157 5 18043253439832922523
23402539 116 18270390711044988764
23419403 2 17622499021717211958
23526113 38 18060148651854424680
23558518 356 17765978881040055729
23559900 14 17487620710698632447
25 1 18343868818244950604
2748010 2 18191893264513006390
276578 36 18040992955906484336
2871803 45 18271800255224409373
298252 57 17560799974132232446
305870 269 18409446959963176998
3071541 236 18120084241833701178
3091708 16 9335115918982291619
3250762 1 17610321767262341556
34934 24 18272367551822124437
3759504 43 18262242252051637830
4340502 62 18113342999179638843
43471831 8 18409724062753000643
458136 41 18262532410988062091
474 4 18408328808452182309
59755656 520 18335414729563536854
6138700 20 18268998588307728366
633830 44 18343582962174823004
7364860 26 18267303123300984039
81228 2 17614275989106636282
81539 233 18334009475903321157
84936 182 18341333284069479680

> <PUBCHEM_SHAPE_MULTIPOLES>
358.46
6.8
3.12
1.1
4.02
3.73
-0.02
-4.67
-0.79
-1.84
1.27
-0.15
0.25
-0.32

> <PUBCHEM_SHAPE_SELFOVERLAP>
762.117

> <PUBCHEM_SHAPE_VOLUME>
198.3

> <PUBCHEM_COORDINATE_TYPE>
2
5
10

$$$$
