45783436
  -OEChem-12032416273D

 55 58  0     1  0  0  0  0  0999 V2000
   -2.8011   -1.4840    1.6956 O   0  0  0  0  0  0  0  0  0  0  0  0
    3.5069   -1.7053   -1.1911 O   0  0  0  0  0  0  0  0  0  0  0  0
    2.6115    2.6196    0.6623 O   0  0  0  0  0  0  0  0  0  0  0  0
    1.7556    3.2014    2.6861 O   0  0  0  0  0  0  0  0  0  0  0  0
    5.1706    0.4886   -1.7070 O   0  0  0  0  0  0  0  0  0  0  0  0
   -3.6238    0.3718   -1.3677 N   0  0  1  0  0  0  0  0  0  0  0  0
   -1.4284   -1.1575   -0.0439 N   0  0  0  0  0  0  0  0  0  0  0  0
   -1.5258   -1.8693    2.1282 N   0  0  0  0  0  0  0  0  0  0  0  0
    1.1640   -2.3905    2.1720 N   0  0  0  0  0  0  0  0  0  0  0  0
   -3.9087   -0.6053   -0.2979 C   0  0  1  0  0  0  0  0  0  0  0  0
   -4.6621   -1.7484   -1.0027 C   0  0  0  0  0  0  0  0  0  0  0  0
   -4.8067   -1.2971   -2.4492 C   0  0  0  0  0  0  0  0  0  0  0  0
   -4.6805    0.2107   -2.3667 C   0  0  0  0  0  0  0  0  0  0  0  0
   -3.5316    1.7432   -0.8835 C   0  0  0  0  0  0  0  0  0  0  0  0
   -2.6549   -1.0788    0.4069 C   0  0  0  0  0  0  0  0  0  0  0  0
   -2.1938    2.0266   -0.2535 C   0  0  0  0  0  0  0  0  0  0  0  0
   -2.1239    2.4487    1.0742 C   0  0  0  0  0  0  0  0  0  0  0  0
   -1.0245    1.8672   -0.9973 C   0  0  0  0  0  0  0  0  0  0  0  0
   -0.7718   -1.6475    1.0473 C   0  0  0  0  0  0  0  0  0  0  0  0
   -0.8848    2.7113    1.6580 C   0  0  0  0  0  0  0  0  0  0  0  0
    0.2146    2.1299   -0.4133 C   0  0  0  0  0  0  0  0  0  0  0  0
    0.2846    2.5518    0.9144 C   0  0  0  0  0  0  0  0  0  0  0  0
    0.6389   -1.9063    1.0242 C   0  0  0  0  0  0  0  0  0  0  0  0
    1.3760   -1.6607   -0.1230 C   0  0  0  0  0  0  0  0  0  0  0  0
    1.5769    2.8248    1.5230 C   0  0  0  0  0  0  0  0  0  0  0  0
    2.7399   -1.9293   -0.0902 C   0  0  0  0  0  0  0  0  0  0  0  0
    2.4929   -2.6395    2.1662 C   0  0  0  0  0  0  0  0  0  0  0  0
    3.3168   -2.4282    1.0724 C   0  0  0  0  0  0  0  0  0  0  0  0
    3.0976   -0.6540   -2.0653 C   0  0  0  0  0  0  0  0  0  0  0  0
    4.3248   -0.0469   -2.7176 C   0  0  0  0  0  0  0  0  0  0  0  0
    6.3508    1.0530   -2.2612 C   0  0  0  0  0  0  0  0  0  0  0  0
   -4.5864   -0.1743    0.4525 H   0  0  0  0  0  0  0  0  0  0  0  0
   -4.1516   -2.7159   -0.9463 H   0  0  0  0  0  0  0  0  0  0  0  0
   -5.6562   -1.8660   -0.5544 H   0  0  0  0  0  0  0  0  0  0  0  0
   -5.7563   -1.6155   -2.8891 H   0  0  0  0  0  0  0  0  0  0  0  0
   -3.9929   -1.7167   -3.0536 H   0  0  0  0  0  0  0  0  0  0  0  0
   -5.6274    0.6541   -2.0331 H   0  0  0  0  0  0  0  0  0  0  0  0
   -4.4045    0.6445   -3.3328 H   0  0  0  0  0  0  0  0  0  0  0  0
   -4.3578    1.9910   -0.2042 H   0  0  0  0  0  0  0  0  0  0  0  0
   -3.6241    2.4430   -1.7260 H   0  0  0  0  0  0  0  0  0  0  0  0
   -3.0266    2.5750    1.6659 H   0  0  0  0  0  0  0  0  0  0  0  0
   -1.0634    1.5446   -2.0344 H   0  0  0  0  0  0  0  0  0  0  0  0
   -0.8515    3.0380    2.6940 H   0  0  0  0  0  0  0  0  0  0  0  0
    1.0986    1.9995   -1.0300 H   0  0  0  0  0  0  0  0  0  0  0  0
    0.8900   -1.2988   -1.0228 H   0  0  0  0  0  0  0  0  0  0  0  0
    2.8938   -3.0272    3.0969 H   0  0  0  0  0  0  0  0  0  0  0  0
    4.3777   -2.6462    1.1266 H   0  0  0  0  0  0  0  0  0  0  0  0
    2.5949    0.1467   -1.5098 H   0  0  0  0  0  0  0  0  0  0  0  0
    2.4255   -1.0586   -2.8296 H   0  0  0  0  0  0  0  0  0  0  0  0
    3.4784    2.8047    1.0824 H   0  0  0  0  0  0  0  0  0  0  0  0
    4.8735   -0.8218   -3.2653 H   0  0  0  0  0  0  0  0  0  0  0  0
    4.0266    0.7461   -3.4122 H   0  0  0  0  0  0  0  0  0  0  0  0
    6.9314    0.2890   -2.7872 H   0  0  0  0  0  0  0  0  0  0  0  0
    6.1012    1.8726   -2.9420 H   0  0  0  0  0  0  0  0  0  0  0  0
    6.9583    1.4512   -1.4441 H   0  0  0  0  0  0  0  0  0  0  0  0
  1  8  1  0  0  0  0
  1 15  1  0  0  0  0
  2 26  1  0  0  0  0
  2 29  1  0  0  0  0
  3 25  1  0  0  0  0
  3 50  1  0  0  0  0
  4 25  2  0  0  0  0
  5 30  1  0  0  0  0
  5 31  1  0  0  0  0
  6 10  1  0  0  0  0
  6 13  1  0  0  0  0
  6 14  1  0  0  0  0
  7 15  2  0  0  0  0
  7 19  1  0  0  0  0
  8 19  2  0  0  0  0
  9 23  2  0  0  0  0
  9 27  1  0  0  0  0
 10 11  1  0  0  0  0
 10 15  1  0  0  0  0
 10 32  1  0  0  0  0
 11 12  1  0  0  0  0
 11 33  1  0  0  0  0
 11 34  1  0  0  0  0
 12 13  1  0  0  0  0
 12 35  1  0  0  0  0
 12 36  1  0  0  0  0
 13 37  1  0  0  0  0
 13 38  1  0  0  0  0
 14 16  1  0  0  0  0
 14 39  1  0  0  0  0
 14 40  1  0  0  0  0
 16 17  2  0  0  0  0
 16 18  1  0  0  0  0
 17 20  1  0  0  0  0
 17 41  1  0  0  0  0
 18 21  2  0  0  0  0
 18 42  1  0  0  0  0
 19 23  1  0  0  0  0
 20 22  2  0  0  0  0
 20 43  1  0  0  0  0
 21 22  1  0  0  0  0
 21 44  1  0  0  0  0
 22 25  1  0  0  0  0
 23 24  1  0  0  0  0
 24 26  2  0  0  0  0
 24 45  1  0  0  0  0
 26 28  1  0  0  0  0
 27 28  2  0  0  0  0
 27 46  1  0  0  0  0
 28 47  1  0  0  0  0
 29 30  1  0  0  0  0
 29 48  1  0  0  0  0
 29 49  1  0  0  0  0
 30 51  1  0  0  0  0
 30 52  1  0  0  0  0
 31 53  1  0  0  0  0
 31 54  1  0  0  0  0
 31 55  1  0  0  0  0
M  END
> <PUBCHEM_COMPOUND_CID>
45783436

> <PUBCHEM_CONFORMER_RMSD>
1

> <PUBCHEM_CONFORMER_DIVERSEORDER>
1
17
26
30
49
45
19
21
7
32
27
37
34
16
9
18
33
39
36
15
44
48
38
35
41
25
5
42
14
28
23
6
20
11
43
2
8
40
47
29
13
4
24
3
10
12
31
46
22

> <PUBCHEM_MMFF94_PARTIAL_CHARGES>
37
1 -0.02
10 0.45
13 0.27
14 0.41
15 0.3
16 -0.14
17 -0.15
18 -0.15
19 0.46
2 -0.36
20 -0.15
21 -0.15
22 0.09
23 0.36
24 -0.15
25 0.63
26 0.08
27 0.16
28 -0.15
29 0.28
3 -0.65
30 0.28
31 0.28
4 -0.57
41 0.15
42 0.15
43 0.15
44 0.15
45 0.15
46 0.15
47 0.15
5 -0.56
50 0.5
6 -0.81
7 -0.57
8 -0.41
9 -0.62

> <PUBCHEM_EFFECTIVE_ROTOR_COUNT>
10

> <PUBCHEM_PHARMACOPHORE_FEATURES>
12
1 2 acceptor
1 3 acceptor
1 4 acceptor
1 5 acceptor
1 6 cation
1 9 acceptor
3 3 4 25 anion
3 7 8 19 cation
5 1 7 8 15 19 rings
5 6 10 11 12 13 rings
6 16 17 18 20 21 22 rings
6 9 23 24 26 27 28 rings

> <PUBCHEM_HEAVY_ATOM_COUNT>
31

> <PUBCHEM_ATOM_DEF_STEREO_COUNT>
1

> <PUBCHEM_ATOM_UDEF_STEREO_COUNT>
0

> <PUBCHEM_BOND_DEF_STEREO_COUNT>
0

> <PUBCHEM_BOND_UDEF_STEREO_COUNT>
0

> <PUBCHEM_ISOTOPIC_ATOM_COUNT>
0

> <PUBCHEM_COMPONENT_COUNT>
1

> <PUBCHEM_CACTVS_TAUTO_COUNT>
1

> <PUBCHEM_CONFORMER_ID>
02BA998C00000001

> <PUBCHEM_MMFF94_ENERGY>
75.509

> <PUBCHEM_FEATURE_SELFOVERLAP>
60.96

> <PUBCHEM_SHAPE_FINGERPRINT>
1100329 8 18053361233870508001
11524674 6 17410746457179131848
12156800 1 14929520021700314572
12166972 35 17534042095871303802
12596599 1 17773020969806426873
12788726 201 17984150253281690568
13009979 54 17541362558437384499
13165053 68 13407357451900715425
13383661 66 16761690565267573199
13617811 41 17748819710095071861
14931854 50 18335426755034239766
19319366 153 17756429258223945355
20028762 73 16756047885201590335
20691752 17 17677590005262477729
20764821 26 18338229350249626960
20905425 154 18267280188671190305
22182313 1 18042673074694529459
238918 7 17834941345524051041
3298306 158 18049417521420341233
469060 322 16736687430190677570
57527295 17 18410568501074462967
59755656 215 17759488430469957999
70251023 43 17988648527307161509
9981440 41 16950856898172242362

> <PUBCHEM_SHAPE_MULTIPOLES>
588.69
9.91
4.11
2.89
4.02
1.81
-0.54
-1.85
-10.17
1.28
2.97
1.71
-0.06
-1.15

> <PUBCHEM_SHAPE_SELFOVERLAP>
1267.01

> <PUBCHEM_SHAPE_VOLUME>
324.9

> <PUBCHEM_COORDINATE_TYPE>
2
5
10

$$$$
