26742396
  -OEChem-12032416183D

 56 60  0     1  0  0  0  0  0999 V2000
    6.2096    1.4191   -0.0112 S   0  0  0  0  0  0  0  0  0  0  0  0
   -5.1128   -0.4676    1.8384 O   0  0  0  0  0  0  0  0  0  0  0  0
   -1.1952   -2.5092    0.6370 N   0  0  2  0  0  0  0  0  0  0  0  0
   -3.2377    0.6225    1.0258 N   0  0  0  0  0  0  0  0  0  0  0  0
    1.3881    0.4833   -1.6418 N   0  0  0  0  0  0  0  0  0  0  0  0
    3.4252    1.5467   -0.9163 N   0  0  0  0  0  0  0  0  0  0  0  0
   -0.5561   -1.6224   -1.7269 C   0  0  2  0  0  0  0  0  0  0  0  0
   -2.0950   -1.3894    0.2538 C   0  0  2  0  0  0  0  0  0  0  0  0
    0.7040   -1.7179   -0.8229 C   0  0  2  0  0  0  0  0  0  0  0  0
   -1.6044   -0.7171   -1.0466 C   0  0  0  0  0  0  0  0  0  0  0  0
   -1.1605   -3.0410   -1.7994 C   0  0  0  0  0  0  0  0  0  0  0  0
    0.2180   -2.0560    0.6155 C   0  0  0  0  0  0  0  0  0  0  0  0
   -1.3520   -3.5837   -0.3724 C   0  0  0  0  0  0  0  0  0  0  0  0
   -2.2787   -0.3760    1.3855 C   0  0  0  0  0  0  0  0  0  0  0  0
    1.6912   -0.5597   -0.8414 C   0  0  0  0  0  0  0  0  0  0  0  0
   -5.4312    1.7137    0.7861 C   0  0  0  0  0  0  0  0  0  0  0  0
   -5.5557    1.9118   -0.7390 C   0  0  0  0  0  0  0  0  0  0  0  0
   -6.9681    1.5817    0.8172 C   0  0  0  0  0  0  0  0  0  0  0  0
   -4.6054    0.5098    1.2785 C   0  0  0  0  0  0  0  0  0  0  0  0
   -6.9896    2.4189   -0.4786 C   0  0  0  0  0  0  0  0  0  0  0  0
    2.8269   -0.6216   -0.0598 C   0  0  0  0  0  0  0  0  0  0  0  0
    3.6660    0.4711   -0.1382 C   0  0  0  0  0  0  0  0  0  0  0  0
    2.2854    1.4873   -1.6311 C   0  0  0  0  0  0  0  0  0  0  0  0
    4.8854    0.5374    0.6226 C   0  0  0  0  0  0  0  0  0  0  0  0
    1.9842    2.6594   -2.5025 C   0  0  0  0  0  0  0  0  0  0  0  0
    5.1767   -0.0245    1.8461 C   0  0  0  0  0  0  0  0  0  0  0  0
    6.5043    0.2729    2.2690 C   0  0  0  0  0  0  0  0  0  0  0  0
    7.1773    1.0505    1.3526 C   0  0  0  0  0  0  0  0  0  0  0  0
   -0.3151   -1.2578   -2.7310 H   0  0  0  0  0  0  0  0  0  0  0  0
   -3.0905   -1.8156    0.0585 H   0  0  0  0  0  0  0  0  0  0  0  0
    1.2841   -2.5782   -1.1917 H   0  0  0  0  0  0  0  0  0  0  0  0
   -1.1726    0.2714   -0.8541 H   0  0  0  0  0  0  0  0  0  0  0  0
   -2.4555   -0.5677   -1.7227 H   0  0  0  0  0  0  0  0  0  0  0  0
   -0.5020   -3.7093   -2.3664 H   0  0  0  0  0  0  0  0  0  0  0  0
   -2.1226   -3.0100   -2.3253 H   0  0  0  0  0  0  0  0  0  0  0  0
    0.8504   -2.8521    1.0310 H   0  0  0  0  0  0  0  0  0  0  0  0
    0.3473   -1.2094    1.2996 H   0  0  0  0  0  0  0  0  0  0  0  0
   -2.3433   -4.0443   -0.2789 H   0  0  0  0  0  0  0  0  0  0  0  0
   -0.6340   -4.3892   -0.1723 H   0  0  0  0  0  0  0  0  0  0  0  0
   -1.3486    0.1516    1.6190 H   0  0  0  0  0  0  0  0  0  0  0  0
   -2.6144   -0.8823    2.2980 H   0  0  0  0  0  0  0  0  0  0  0  0
   -2.9003    1.4576    0.5558 H   0  0  0  0  0  0  0  0  0  0  0  0
   -5.1034    2.6361    1.2903 H   0  0  0  0  0  0  0  0  0  0  0  0
   -5.5127    0.9842   -1.3219 H   0  0  0  0  0  0  0  0  0  0  0  0
   -4.8730    2.6420   -1.1814 H   0  0  0  0  0  0  0  0  0  0  0  0
   -7.4672    2.0362    1.6771 H   0  0  0  0  0  0  0  0  0  0  0  0
   -7.3465    0.5615    0.6843 H   0  0  0  0  0  0  0  0  0  0  0  0
   -7.0520    3.4994   -0.3061 H   0  0  0  0  0  0  0  0  0  0  0  0
   -7.7387    2.1305   -1.2199 H   0  0  0  0  0  0  0  0  0  0  0  0
    3.0437   -1.4827    0.5607 H   0  0  0  0  0  0  0  0  0  0  0  0
    2.4212    2.5045   -3.4933 H   0  0  0  0  0  0  0  0  0  0  0  0
    0.9036    2.7942   -2.6124 H   0  0  0  0  0  0  0  0  0  0  0  0
    2.3989    3.5779   -2.0755 H   0  0  0  0  0  0  0  0  0  0  0  0
    4.4806   -0.6182    2.4258 H   0  0  0  0  0  0  0  0  0  0  0  0
    6.9431   -0.0653    3.1987 H   0  0  0  0  0  0  0  0  0  0  0  0
    8.1908    1.4202    1.4189 H   0  0  0  0  0  0  0  0  0  0  0  0
  1 24  1  0  0  0  0
  1 28  1  0  0  0  0
  2 19  2  0  0  0  0
  3  8  1  0  0  0  0
  3 12  1  0  0  0  0
  3 13  1  0  0  0  0
  4 14  1  0  0  0  0
  4 19  1  0  0  0  0
  4 42  1  0  0  0  0
  5 15  2  0  0  0  0
  5 23  1  0  0  0  0
  6 22  1  0  0  0  0
  6 23  2  0  0  0  0
  7  9  1  0  0  0  0
  7 10  1  0  0  0  0
  7 11  1  0  0  0  0
  7 29  1  0  0  0  0
  8 10  1  0  0  0  0
  8 14  1  0  0  0  0
  8 30  1  0  0  0  0
  9 12  1  0  0  0  0
  9 15  1  0  0  0  0
  9 31  1  0  0  0  0
 10 32  1  0  0  0  0
 10 33  1  0  0  0  0
 11 13  1  0  0  0  0
 11 34  1  0  0  0  0
 11 35  1  0  0  0  0
 12 36  1  0  0  0  0
 12 37  1  0  0  0  0
 13 38  1  0  0  0  0
 13 39  1  0  0  0  0
 14 40  1  0  0  0  0
 14 41  1  0  0  0  0
 15 21  1  0  0  0  0
 16 17  1  0  0  0  0
 16 18  1  0  0  0  0
 16 19  1  0  0  0  0
 16 43  1  0  0  0  0
 17 20  1  0  0  0  0
 17 44  1  0  0  0  0
 17 45  1  0  0  0  0
 18 20  1  0  0  0  0
 18 46  1  0  0  0  0
 18 47  1  0  0  0  0
 20 48  1  0  0  0  0
 20 49  1  0  0  0  0
 21 22  2  0  0  0  0
 21 50  1  0  0  0  0
 22 24  1  0  0  0  0
 23 25  1  0  0  0  0
 24 26  2  0  0  0  0
 25 51  1  0  0  0  0
 25 52  1  0  0  0  0
 25 53  1  0  0  0  0
 26 27  1  0  0  0  0
 26 54  1  0  0  0  0
 27 28  2  0  0  0  0
 27 55  1  0  0  0  0
 28 56  1  0  0  0  0
M  END
> <PUBCHEM_COMPOUND_CID>
26742396

> <PUBCHEM_CONFORMER_RMSD>
1

> <PUBCHEM_CONFORMER_DIVERSEORDER>
1
17
47
48
18
54
41
3
65
66
24
64
34
32
61
11
60
35
58
39
46
21
33
44
2
16
42
43
38
14
56
26
59
53
23
57
50
31
22
20
25
29
30
63
68
27
67
15
40
8
7
52
19
6
10
4
37
9
49
62
13
28
51
55
5
45
12
36

> <PUBCHEM_MMFF94_PARTIAL_CHARGES>
27
1 -0.08
12 0.27
13 0.27
14 0.3
15 0.17
16 0.05
19 0.58
2 -0.57
21 -0.15
22 0.36
23 0.48
24 -0.01
25 0.14
26 -0.15
27 -0.15
28 -0.11
3 -0.81
4 -0.73
42 0.37
5 -0.62
50 0.15
54 0.15
55 0.15
56 0.15
6 -0.62
8 0.27
9 0.14

> <PUBCHEM_EFFECTIVE_ROTOR_COUNT>
8

> <PUBCHEM_PHARMACOPHORE_FEATURES>
9
1 2 acceptor
1 3 cation
1 4 donor
1 5 acceptor
3 5 6 23 cation
4 16 17 18 20 rings
5 1 24 26 27 28 rings
6 5 6 15 21 22 23 rings
8 3 7 8 9 10 11 12 13 rings

> <PUBCHEM_HEAVY_ATOM_COUNT>
28

> <PUBCHEM_ATOM_DEF_STEREO_COUNT>
3

> <PUBCHEM_ATOM_UDEF_STEREO_COUNT>
0

> <PUBCHEM_BOND_DEF_STEREO_COUNT>
0

> <PUBCHEM_BOND_UDEF_STEREO_COUNT>
0

> <PUBCHEM_ISOTOPIC_ATOM_COUNT>
0

> <PUBCHEM_COMPONENT_COUNT>
1

> <PUBCHEM_CACTVS_TAUTO_COUNT>
2

> <PUBCHEM_CONFORMER_ID>
01980E7C00000001

> <PUBCHEM_MMFF94_ENERGY>
66.7481

> <PUBCHEM_FEATURE_SELFOVERLAP>
45.672

> <PUBCHEM_SHAPE_FINGERPRINT>
10319926 262 17458640986163407555
10692045 39 18271247102039207754
10764073 3 16805882892910018023
10928967 22 8502087371586533153
10939801 23 18041005076647955844
11374522 165 18046328756961695321
11399510 152 16880783999906020849
11823591 26 18271799099656673395
11961588 58 16558743512007610198
12107183 9 17894348890954965960
12403259 118 18260839228096705267
12422481 6 18187083931685315044
12633257 1 17385730226488435642
12760667 363 12324240577070335619
12788726 201 17835536185816308583
13103583 49 17603586374179649618
13150687 139 17632582612895828495
13540713 5 17970915698427142950
1361 2 14189279478877082944
13782708 43 14273726387412227712
13911987 19 13398350243908340074
13941219 33 16877935040908107962
14123256 34 10809347732670652257
14251764 30 11169917186448257041
14294032 229 18129391556482141639
14765038 42 17677050265602143416
14767858 380 11671781589608175828
14950920 106 17241617289091351315
15238133 3 17749685051161811612
15320295 40 16370722648373221365
15669420 48 15697990860769453597
15684973 49 18126566954139400838
16994733 274 16343705383650790513
17492 54 14117794717380474262
17974551 9 16879371088750995937
17980427 23 18270113660306430460
19246450 95 17968082084689171753
20554085 129 18060128813247413187
20567600 254 18201719531273838753
20642791 105 18269836583139106907
20715895 44 18189060807176110517
21033648 29 18335433339519933455
21304303 282 17988349473193703287
21344244 181 8214135287967444096
21403212 168 18260821566742732779
21591331 117 11314316035506957473
21859007 373 18263645061116112300
22149856 69 17985016781215626915
23522609 53 17459486605284072964
23559900 14 18046650927206755003
249057 25 18116151245875974015
25269216 80 14979948169885682269
2748736 6 18201720634928103033
2838139 119 16702028538945160696
312425 54 16443069421361989225
3459 39 18273209807123534520
393628 194 17988933275118635097
437815 12 10953749889255454453
445580 126 18410014291580306393
5104073 3 17970621003894724072
54728670 133 17606092041274227860
57527585 21 14762964059010171218
6058803 2 17754178901334843758
6086070 43 16128650886772872322
6371009 1 18409731746935608317
999808 66 14779256502183203616

> <PUBCHEM_SHAPE_MULTIPOLES>
554.28
17.56
3.24
2.12
2.42
2.03
-0.26
-17.28
10.21
3.26
-1.5
-1.32
-0.48
-0.61

> <PUBCHEM_SHAPE_SELFOVERLAP>
1181.837

> <PUBCHEM_SHAPE_VOLUME>
310.6

> <PUBCHEM_COORDINATE_TYPE>
2
5
10

$$$$
