45783275
  -OEChem-12032416273D

 43 45  0     1  0  0  0  0  0999 V2000
   -2.9953    1.8715   -0.0184 O   0  0  0  0  0  0  0  0  0  0  0  0
    5.1859   -2.3339   -0.6322 O   0  0  0  0  0  0  0  0  0  0  0  0
   -3.8221   -1.4450   -0.8342 N   0  0  1  0  0  0  0  0  0  0  0  0
   -1.4073    0.3020    0.1603 N   0  0  0  0  0  0  0  0  0  0  0  0
   -1.7705    2.5482   -0.0776 N   0  0  0  0  0  0  0  0  0  0  0  0
    3.6543   -0.1188    0.2529 N   0  0  0  0  0  0  0  0  0  0  0  0
    3.2937    2.2232    0.0032 N   0  0  0  0  0  0  0  0  0  0  0  0
   -3.8614   -0.4024    0.2106 C   0  0  1  0  0  0  0  0  0  0  0  0
   -3.8937   -1.1809    1.5388 C   0  0  0  0  0  0  0  0  0  0  0  0
   -3.9321   -2.6489    1.1386 C   0  0  0  0  0  0  0  0  0  0  0  0
   -4.4873   -2.6200   -0.2710 C   0  0  0  0  0  0  0  0  0  0  0  0
   -2.6913    0.5547    0.1223 C   0  0  0  0  0  0  0  0  0  0  0  0
   -4.4272   -1.0222   -2.0907 C   0  0  0  0  0  0  0  0  0  0  0  0
   -0.8829    1.5554    0.0341 C   0  0  0  0  0  0  0  0  0  0  0  0
    0.5334    1.7819    0.0248 C   0  0  0  0  0  0  0  0  0  0  0  0
    1.4125    0.7112    0.1445 C   0  0  0  0  0  0  0  0  0  0  0  0
    1.0329    3.0730   -0.1057 C   0  0  0  0  0  0  0  0  0  0  0  0
    2.7711    0.9826    0.1283 C   0  0  0  0  0  0  0  0  0  0  0  0
    3.1950   -1.4622    0.3906 C   0  0  0  0  0  0  0  0  0  0  0  0
    2.4085    3.2388   -0.1107 C   0  0  0  0  0  0  0  0  0  0  0  0
    4.3784   -2.4037    0.5363 C   0  0  0  0  0  0  0  0  0  0  0  0
    6.3051   -3.2048   -0.5449 C   0  0  0  0  0  0  0  0  0  0  0  0
   -4.7950    0.1739    0.1420 H   0  0  0  0  0  0  0  0  0  0  0  0
   -3.0404   -0.9784    2.1951 H   0  0  0  0  0  0  0  0  0  0  0  0
   -4.8075   -0.9284    2.0907 H   0  0  0  0  0  0  0  0  0  0  0  0
   -4.5449   -3.2474    1.8191 H   0  0  0  0  0  0  0  0  0  0  0  0
   -2.9159   -3.0625    1.1414 H   0  0  0  0  0  0  0  0  0  0  0  0
   -5.5779   -2.5003   -0.2466 H   0  0  0  0  0  0  0  0  0  0  0  0
   -4.2421   -3.5346   -0.8197 H   0  0  0  0  0  0  0  0  0  0  0  0
   -5.4826   -0.7513   -1.9744 H   0  0  0  0  0  0  0  0  0  0  0  0
   -4.3592   -1.8238   -2.8343 H   0  0  0  0  0  0  0  0  0  0  0  0
   -3.8948   -0.1596   -2.5056 H   0  0  0  0  0  0  0  0  0  0  0  0
    1.0192   -0.2939    0.2441 H   0  0  0  0  0  0  0  0  0  0  0  0
    0.3963    3.9462   -0.2029 H   0  0  0  0  0  0  0  0  0  0  0  0
    2.5613   -1.5744    1.2780 H   0  0  0  0  0  0  0  0  0  0  0  0
    2.6256   -1.7585   -0.4987 H   0  0  0  0  0  0  0  0  0  0  0  0
    4.6454    0.0928    0.2359 H   0  0  0  0  0  0  0  0  0  0  0  0
    2.8490    4.2255   -0.2099 H   0  0  0  0  0  0  0  0  0  0  0  0
    4.9784   -2.1275    1.4121 H   0  0  0  0  0  0  0  0  0  0  0  0
    4.0150   -3.4294    0.6686 H   0  0  0  0  0  0  0  0  0  0  0  0
    6.9425   -2.9269    0.3002 H   0  0  0  0  0  0  0  0  0  0  0  0
    5.9764   -4.2436   -0.4440 H   0  0  0  0  0  0  0  0  0  0  0  0
    6.8869   -3.1110   -1.4658 H   0  0  0  0  0  0  0  0  0  0  0  0
  1  5  1  0  0  0  0
  1 12  1  0  0  0  0
  2 21  1  0  0  0  0
  2 22  1  0  0  0  0
  3  8  1  0  0  0  0
  3 11  1  0  0  0  0
  3 13  1  0  0  0  0
  4 12  2  0  0  0  0
  4 14  1  0  0  0  0
  5 14  2  0  0  0  0
  6 18  1  0  0  0  0
  6 19  1  0  0  0  0
  6 37  1  0  0  0  0
  7 18  2  0  0  0  0
  7 20  1  0  0  0  0
  8  9  1  0  0  0  0
  8 12  1  0  0  0  0
  8 23  1  0  0  0  0
  9 10  1  0  0  0  0
  9 24  1  0  0  0  0
  9 25  1  0  0  0  0
 10 11  1  0  0  0  0
 10 26  1  0  0  0  0
 10 27  1  0  0  0  0
 11 28  1  0  0  0  0
 11 29  1  0  0  0  0
 13 30  1  0  0  0  0
 13 31  1  0  0  0  0
 13 32  1  0  0  0  0
 14 15  1  0  0  0  0
 15 16  2  0  0  0  0
 15 17  1  0  0  0  0
 16 18  1  0  0  0  0
 16 33  1  0  0  0  0
 17 20  2  0  0  0  0
 17 34  1  0  0  0  0
 19 21  1  0  0  0  0
 19 35  1  0  0  0  0
 19 36  1  0  0  0  0
 20 38  1  0  0  0  0
 21 39  1  0  0  0  0
 21 40  1  0  0  0  0
 22 41  1  0  0  0  0
 22 42  1  0  0  0  0
 22 43  1  0  0  0  0
M  END
> <PUBCHEM_COMPOUND_CID>
45783275

> <PUBCHEM_CONFORMER_RMSD>
0.8

> <PUBCHEM_CONFORMER_DIVERSEORDER>
1
22
58
101
54
76
93
84
105
91
15
88
69
9
12
107
34
89
108
4
39
28
43
45
98
30
63
73
97
20
47
53
85
67
46
31
72
19
87
49
32
100
48
13
29
99
102
51
3
82
44
83
37
55
10
27
80
52
79
92
90
33
25
71
74
18
66
6
62
21
96
5
77
59
23
40
64
41
16
78
38
86
75
94
56
8
60
17
42
11
50
81
36
61
111
70
57
2
103
65
112
14
35
109
7
106
104
110
68
95
24
26

> <PUBCHEM_MMFF94_PARTIAL_CHARGES>
24
1 -0.02
11 0.27
12 0.3
13 0.27
14 0.46
15 0.05
16 -0.15
17 -0.15
18 0.41
19 0.37
2 -0.56
20 0.16
21 0.28
22 0.28
3 -0.81
33 0.15
34 0.15
37 0.4
38 0.15
4 -0.57
5 -0.41
6 -0.87
7 -0.62
8 0.45

> <PUBCHEM_EFFECTIVE_ROTOR_COUNT>
7

> <PUBCHEM_PHARMACOPHORE_FEATURES>
8
1 2 acceptor
1 3 cation
1 6 donor
3 4 5 14 cation
3 6 7 18 cation
5 1 4 5 12 14 rings
5 3 8 9 10 11 rings
6 7 15 16 17 18 20 rings

> <PUBCHEM_HEAVY_ATOM_COUNT>
22

> <PUBCHEM_ATOM_DEF_STEREO_COUNT>
1

> <PUBCHEM_ATOM_UDEF_STEREO_COUNT>
0

> <PUBCHEM_BOND_DEF_STEREO_COUNT>
0

> <PUBCHEM_BOND_UDEF_STEREO_COUNT>
0

> <PUBCHEM_ISOTOPIC_ATOM_COUNT>
0

> <PUBCHEM_COMPONENT_COUNT>
1

> <PUBCHEM_CACTVS_TAUTO_COUNT>
2

> <PUBCHEM_CONFORMER_ID>
02BA98EB00000001

> <PUBCHEM_MMFF94_ENERGY>
48.3705

> <PUBCHEM_FEATURE_SELFOVERLAP>
40.597

> <PUBCHEM_SHAPE_FINGERPRINT>
10042902 136 18339366254242560958
10622 236 17629460150645920935
108634 29 17243582189226655338
10968037 57 18341615884580868347
12107183 9 18197513843832663273
12969540 37 18334292063862162756
13009979 54 18131079190623678440
13533116 47 18269555121379445435
13690498 29 18042414542789380020
13740256 8 18338802209067145602
14767858 380 18189071884233890630
14866123 147 18267307521959269409
15352361 1 18410011009797764162
17492 89 18411138082051388891
20286276 3 18408609166500272353
20621476 21 17630053655360552526
20645477 70 18189605223822968513
20693207 138 17967527999685327767
20775530 9 18337670824044052234
21033650 10 16081354233893244981
21307412 95 18124310506574144862
221490 88 18408045130241248584
22907989 373 12107792964642817377
23379529 103 18340495448210373998
235170 7 17242157158001319725
23559900 14 18409721867945941929
314194 84 18342175617782970412
335352 9 18265896848351357277
3421961 26 18411420639718385616
4280585 95 18262228903541429130
44062 13 18336828576446022221
46194498 28 17098327894889154959
5104073 3 18273498974334191416
5365585 94 18187654642966952619
5486654 36 18336840683974667321
59682541 52 18052790797989108855
6431902 208 18410292493454560782
6433294 58 18265053724527095786
7970288 3 18339079272970869526
88748 71 18408328786729036163
9709674 26 18334577979154549809

> <PUBCHEM_SHAPE_MULTIPOLES>
416.11
12.37
4.48
1.07
6.44
0.07
-0.25
-15.1
-1.63
4.44
-0.14
-1.52
-0.66
0.64

> <PUBCHEM_SHAPE_SELFOVERLAP>
874.922

> <PUBCHEM_SHAPE_VOLUME>
236.5

> <PUBCHEM_COORDINATE_TYPE>
2
5
10

$$$$
