25390940
  -OEChem-12032416193D

 52 55  0     1  0  0  0  0  0999 V2000
    7.3300   -1.2573    0.2834 S   0  0  0  0  0  0  0  0  0  0  0  0
   -7.3817   -2.5082    0.3656 F   0  0  0  0  0  0  0  0  0  0  0  0
   -5.5088   -3.1149   -0.5572 F   0  0  0  0  0  0  0  0  0  0  0  0
   -5.6053   -2.7969    1.5859 F   0  0  0  0  0  0  0  0  0  0  0  0
    3.6537    2.4129    0.3034 O   0  0  0  0  0  0  0  0  0  0  0  0
    0.2231   -0.6246   -2.1863 O   0  0  0  0  0  0  0  0  0  0  0  0
    7.3109   -1.0096   -1.1450 O   0  0  0  0  0  0  0  0  0  0  0  0
    8.1161   -2.3427    0.8378 O   0  0  0  0  0  0  0  0  0  0  0  0
    1.9535   -0.1844   -0.7024 N   0  0  0  0  0  0  0  0  0  0  0  0
    5.7376   -1.3978    0.8709 N   0  0  0  0  0  0  0  0  0  0  0  0
    1.3813    2.5961    0.1322 N   0  0  0  0  0  0  0  0  0  0  0  0
    4.6838   -0.6593    0.2169 C   0  0  2  0  0  0  0  0  0  0  0  0
    2.3671    0.3892    0.5719 C   0  0  1  0  0  0  0  0  0  0  0  0
    3.5859   -0.2855    1.2122 C   0  0  0  0  0  0  0  0  0  0  0  0
    4.0781   -1.4723   -0.9222 C   0  0  0  0  0  0  0  0  0  0  0  0
    2.9853   -0.6778   -1.6180 C   0  0  0  0  0  0  0  0  0  0  0  0
    2.5470    1.8728    0.3039 C   0  0  0  0  0  0  0  0  0  0  0  0
    0.6435   -0.0711   -1.1694 C   0  0  0  0  0  0  0  0  0  0  0  0
   -0.2961    0.8265   -0.4459 C   0  0  0  0  0  0  0  0  0  0  0  0
    0.0614    2.0982    0.0392 C   0  0  0  0  0  0  0  0  0  0  0  0
   -1.6468    0.4384   -0.4466 C   0  0  0  0  0  0  0  0  0  0  0  0
   -0.9540    2.9772    0.4507 C   0  0  0  0  0  0  0  0  0  0  0  0
    7.8479    0.2398    1.0913 C   0  0  0  0  0  0  0  0  0  0  0  0
   -2.6361    1.3063    0.0134 C   0  0  0  0  0  0  0  0  0  0  0  0
   -2.2914    2.5804    0.4490 C   0  0  0  0  0  0  0  0  0  0  0  0
   -4.0221    0.8916    0.0126 C   0  0  0  0  0  0  0  0  0  0  0  0
   -4.3484   -0.4520    0.1972 C   0  0  0  0  0  0  0  0  0  0  0  0
   -5.0321    1.8356   -0.1727 C   0  0  0  0  0  0  0  0  0  0  0  0
   -5.6848   -0.8515    0.1966 C   0  0  0  0  0  0  0  0  0  0  0  0
   -6.3685    1.4361   -0.1734 C   0  0  0  0  0  0  0  0  0  0  0  0
   -6.6949    0.0925    0.0111 C   0  0  0  0  0  0  0  0  0  0  0  0
   -6.0351   -2.2879    0.3936 C   0  0  0  0  0  0  0  0  0  0  0  0
    5.0969    0.2696   -0.1940 H   0  0  0  0  0  0  0  0  0  0  0  0
    1.5481    0.2841    1.2953 H   0  0  0  0  0  0  0  0  0  0  0  0
    3.9995    0.3468    2.0084 H   0  0  0  0  0  0  0  0  0  0  0  0
    3.2406   -1.2044    1.7077 H   0  0  0  0  0  0  0  0  0  0  0  0
    3.6597   -2.4088   -0.5302 H   0  0  0  0  0  0  0  0  0  0  0  0
    4.8408   -1.7563   -1.6552 H   0  0  0  0  0  0  0  0  0  0  0  0
    3.4151    0.2021   -2.1126 H   0  0  0  0  0  0  0  0  0  0  0  0
    2.5296   -1.2898   -2.4036 H   0  0  0  0  0  0  0  0  0  0  0  0
    5.5721   -1.7556    1.8190 H   0  0  0  0  0  0  0  0  0  0  0  0
    1.4774    3.6076    0.1783 H   0  0  0  0  0  0  0  0  0  0  0  0
   -1.9069   -0.5345   -0.8587 H   0  0  0  0  0  0  0  0  0  0  0  0
   -0.7073    3.9731    0.8140 H   0  0  0  0  0  0  0  0  0  0  0  0
    8.8899    0.4249    0.8208 H   0  0  0  0  0  0  0  0  0  0  0  0
    7.2256    1.0682    0.7490 H   0  0  0  0  0  0  0  0  0  0  0  0
    7.7643    0.1065    2.1715 H   0  0  0  0  0  0  0  0  0  0  0  0
   -3.0224    3.2887    0.8291 H   0  0  0  0  0  0  0  0  0  0  0  0
   -3.5892   -1.2099    0.3745 H   0  0  0  0  0  0  0  0  0  0  0  0
   -4.8253    2.8874   -0.3508 H   0  0  0  0  0  0  0  0  0  0  0  0
   -7.1550    2.1698   -0.3247 H   0  0  0  0  0  0  0  0  0  0  0  0
   -7.7418   -0.1978    0.0055 H   0  0  0  0  0  0  0  0  0  0  0  0
  1  7  2  0  0  0  0
  1  8  2  0  0  0  0
  1 10  1  0  0  0  0
  1 23  1  0  0  0  0
  2 32  1  0  0  0  0
  3 32  1  0  0  0  0
  4 32  1  0  0  0  0
  5 17  2  0  0  0  0
  6 18  2  0  0  0  0
  9 13  1  0  0  0  0
  9 16  1  0  0  0  0
  9 18  1  0  0  0  0
 10 12  1  0  0  0  0
 10 41  1  0  0  0  0
 11 17  1  0  0  0  0
 11 20  1  0  0  0  0
 11 42  1  0  0  0  0
 12 14  1  0  0  0  0
 12 15  1  0  0  0  0
 12 33  1  0  0  0  0
 13 14  1  0  0  0  0
 13 17  1  0  0  0  0
 13 34  1  0  0  0  0
 14 35  1  0  0  0  0
 14 36  1  0  0  0  0
 15 16  1  0  0  0  0
 15 37  1  0  0  0  0
 15 38  1  0  0  0  0
 16 39  1  0  0  0  0
 16 40  1  0  0  0  0
 18 19  1  0  0  0  0
 19 20  2  0  0  0  0
 19 21  1  0  0  0  0
 20 22  1  0  0  0  0
 21 24  2  0  0  0  0
 21 43  1  0  0  0  0
 22 25  2  0  0  0  0
 22 44  1  0  0  0  0
 23 45  1  0  0  0  0
 23 46  1  0  0  0  0
 23 47  1  0  0  0  0
 24 25  1  0  0  0  0
 24 26  1  0  0  0  0
 25 48  1  0  0  0  0
 26 27  2  0  0  0  0
 26 28  1  0  0  0  0
 27 29  1  0  0  0  0
 27 49  1  0  0  0  0
 28 30  2  0  0  0  0
 28 50  1  0  0  0  0
 29 31  2  0  0  0  0
 29 32  1  0  0  0  0
 30 31  1  0  0  0  0
 30 51  1  0  0  0  0
 31 52  1  0  0  0  0
M  END
> <PUBCHEM_COMPOUND_CID>
25390940

> <PUBCHEM_CONFORMER_RMSD>
0.8

> <PUBCHEM_CONFORMER_DIVERSEORDER>
1
10
16
6
12
9
13
7
4
11
2
14
5
15
3
8

> <PUBCHEM_MMFF94_PARTIAL_CHARGES>
37
1 1.33
10 -0.91
11 -0.55
12 0.36
13 0.36
16 0.3
17 0.57
18 0.54
19 0.09
2 -0.34
20 0.12
21 -0.15
22 -0.15
23 0.11
25 -0.15
27 -0.15
28 -0.15
29 -0.14
3 -0.34
30 -0.15
31 -0.15
32 1.16
4 -0.34
41 0.42
42 0.37
43 0.15
44 0.15
48 0.15
49 0.15
5 -0.57
50 0.15
51 0.15
52 0.15
6 -0.57
7 -0.65
8 -0.65
9 -0.66

> <PUBCHEM_EFFECTIVE_ROTOR_COUNT>
5

> <PUBCHEM_PHARMACOPHORE_FEATURES>
10
1 10 donor
1 11 donor
1 5 acceptor
1 6 acceptor
1 7 acceptor
1 8 acceptor
6 19 20 21 22 24 25 rings
6 26 27 28 29 30 31 rings
6 9 12 13 14 15 16 rings
7 9 11 13 17 18 19 20 rings

> <PUBCHEM_HEAVY_ATOM_COUNT>
32

> <PUBCHEM_ATOM_DEF_STEREO_COUNT>
2

> <PUBCHEM_ATOM_UDEF_STEREO_COUNT>
0

> <PUBCHEM_BOND_DEF_STEREO_COUNT>
0

> <PUBCHEM_BOND_UDEF_STEREO_COUNT>
0

> <PUBCHEM_ISOTOPIC_ATOM_COUNT>
0

> <PUBCHEM_COMPONENT_COUNT>
1

> <PUBCHEM_CACTVS_TAUTO_COUNT>
9

> <PUBCHEM_CONFORMER_ID>
01836F5C00000001

> <PUBCHEM_MMFF94_ENERGY>
98.0093

> <PUBCHEM_FEATURE_SELFOVERLAP>
50.79

> <PUBCHEM_SHAPE_FINGERPRINT>
10 15 18060129926313835730
10369192 42 9079112259264057105
10391435 84 18411973650595101609
11135609 99 18410011056878913230
11646440 116 16773794780045853232
11796584 16 18333729088133753873
11963148 33 17906171007686766439
12035758 1 17274814736985634302
12166972 35 17894634772526086925
12422481 6 17561083618389090255
12643181 29 18336543833800935557
13165053 68 17971484137712791142
13383668 362 18198889500678290592
13782708 43 18040432196354676976
13811026 1 18412821404626021703
14068700 675 18113902645417558124
15183329 4 14562526284796139563
15728490 51 18408881850406382754
18608769 82 18342172259108326738
19611394 137 18272088305495240104
1979834 28 17274835670360842821
20028762 73 18341612637464961735
20105231 36 17846502517987726622
21267235 1 18343302527381979324
21424621 283 11239997858463145908
21781051 124 18131361795794005486
23522609 53 18119281452064362188
23559900 14 18411416203218031441
23569914 152 12688414143863958811
2747138 104 18130788932839676312
2838139 119 8502360118724766648
3004659 81 18114179730942869241
3009799 131 13045953382750842348
3178227 256 17632576059282058458
3383291 50 18335138725912022931
439807 62 18260834834582577315
4461854 278 17917997213090062718
4625314 4 18336547114881935604
465052 167 18342741840174735644
5104073 3 18273219716262303289
54583773 228 18335147531628363156
5718773 13 18408885165799511867
59682541 35 18131342004610650290
636775 8 18340494366390221278
9896288 288 18057607555617560993

> <PUBCHEM_SHAPE_MULTIPOLES>
602.15
22.06
3.12
1.17
11.69
0.18
0.28
16.38
-5.22
-3.69
-0.65
0.99
0.46
0.96

> <PUBCHEM_SHAPE_SELFOVERLAP>
1302.322

> <PUBCHEM_SHAPE_VOLUME>
332.6

> <PUBCHEM_COORDINATE_TYPE>
2
5
10

$$$$
