75536635
  -OEChem-12032416313D

 47 49  0     1  0  0  0  0  0999 V2000
    7.7111    2.0092    0.0559 F   0  0  0  0  0  0  0  0  0  0  0  0
   -0.4086    0.4527   -0.8988 O   0  0  0  0  0  0  0  0  0  0  0  0
   -1.7490   -2.4438    0.7501 O   0  0  0  0  0  0  0  0  0  0  0  0
   -7.4225    1.1177    0.8007 O   0  0  0  0  0  0  0  0  0  0  0  0
    2.8278   -1.8141    1.1972 O   0  0  0  0  0  0  0  0  0  0  0  0
   -3.8796   -0.6061   -0.6495 N   0  0  0  0  0  0  0  0  0  0  0  0
    2.1295   -0.8977   -0.8165 N   0  0  0  0  0  0  0  0  0  0  0  0
   -2.5334   -0.3261   -0.1774 C   0  0  1  0  0  0  0  0  0  0  0  0
   -1.5881   -1.5071   -0.2974 C   0  0  1  0  0  0  0  0  0  0  0  0
   -0.2365   -0.8088   -0.2318 C   0  0  1  0  0  0  0  0  0  0  0  0
   -4.8166    0.4240   -0.2076 C   0  0  0  0  0  0  0  0  0  0  0  0
   -1.8172    0.7189   -1.0171 C   0  0  0  0  0  0  0  0  0  0  0  0
   -5.2117    0.2177    1.2580 C   0  0  0  0  0  0  0  0  0  0  0  0
   -6.0664    0.4221   -1.0925 C   0  0  0  0  0  0  0  0  0  0  0  0
    0.8782   -1.5944   -0.8992 C   0  0  0  0  0  0  0  0  0  0  0  0
   -6.2887    1.2184    1.6623 C   0  0  0  0  0  0  0  0  0  0  0  0
   -7.0961    1.4113   -0.5578 C   0  0  0  0  0  0  0  0  0  0  0  0
    3.0174   -1.0663    0.2416 C   0  0  0  0  0  0  0  0  0  0  0  0
    4.2590   -0.2520    0.1924 C   0  0  0  0  0  0  0  0  0  0  0  0
    4.9125    0.0951    1.3750 C   0  0  0  0  0  0  0  0  0  0  0  0
    4.7718    0.1649   -1.0359 C   0  0  0  0  0  0  0  0  0  0  0  0
    6.0783    0.8592    1.3292 C   0  0  0  0  0  0  0  0  0  0  0  0
    5.9377    0.9291   -1.0818 C   0  0  0  0  0  0  0  0  0  0  0  0
    6.5910    1.2763    0.1007 C   0  0  0  0  0  0  0  0  0  0  0  0
   -2.5353   -0.0168    0.8750 H   0  0  0  0  0  0  0  0  0  0  0  0
   -1.7205   -2.0230   -1.2566 H   0  0  0  0  0  0  0  0  0  0  0  0
    0.0390   -0.5930    0.8090 H   0  0  0  0  0  0  0  0  0  0  0  0
   -4.3624    1.4185   -0.3124 H   0  0  0  0  0  0  0  0  0  0  0  0
   -2.0712    0.6440   -2.0808 H   0  0  0  0  0  0  0  0  0  0  0  0
   -2.0190    1.7418   -0.6857 H   0  0  0  0  0  0  0  0  0  0  0  0
   -4.1863   -1.5184   -0.3130 H   0  0  0  0  0  0  0  0  0  0  0  0
   -4.3583    0.3254    1.9347 H   0  0  0  0  0  0  0  0  0  0  0  0
   -5.6105   -0.7968    1.3900 H   0  0  0  0  0  0  0  0  0  0  0  0
   -6.5104   -0.5822   -1.0949 H   0  0  0  0  0  0  0  0  0  0  0  0
   -5.8097    0.6720   -2.1284 H   0  0  0  0  0  0  0  0  0  0  0  0
    0.6705   -1.7261   -1.9668 H   0  0  0  0  0  0  0  0  0  0  0  0
    0.9818   -2.5838   -0.4408 H   0  0  0  0  0  0  0  0  0  0  0  0
   -6.6266    1.0093    2.6823 H   0  0  0  0  0  0  0  0  0  0  0  0
   -5.9064    2.2458    1.6443 H   0  0  0  0  0  0  0  0  0  0  0  0
   -8.0177    1.3418   -1.1443 H   0  0  0  0  0  0  0  0  0  0  0  0
   -6.7342    2.4436   -0.6313 H   0  0  0  0  0  0  0  0  0  0  0  0
   -1.6326   -1.9796    1.5963 H   0  0  0  0  0  0  0  0  0  0  0  0
    2.3155   -0.2107   -1.5392 H   0  0  0  0  0  0  0  0  0  0  0  0
    4.5265   -0.2164    2.3421 H   0  0  0  0  0  0  0  0  0  0  0  0
    4.3120   -0.1092   -1.9807 H   0  0  0  0  0  0  0  0  0  0  0  0
    6.5870    1.1305    2.2495 H   0  0  0  0  0  0  0  0  0  0  0  0
    6.3415    1.2483   -2.0381 H   0  0  0  0  0  0  0  0  0  0  0  0
  1 24  1  0  0  0  0
  2 10  1  0  0  0  0
  2 12  1  0  0  0  0
  3  9  1  0  0  0  0
  3 42  1  0  0  0  0
  4 16  1  0  0  0  0
  4 17  1  0  0  0  0
  5 18  2  0  0  0  0
  6  8  1  0  0  0  0
  6 11  1  0  0  0  0
  6 31  1  0  0  0  0
  7 15  1  0  0  0  0
  7 18  1  0  0  0  0
  7 43  1  0  0  0  0
  8  9  1  0  0  0  0
  8 12  1  0  0  0  0
  8 25  1  0  0  0  0
  9 10  1  0  0  0  0
  9 26  1  0  0  0  0
 10 15  1  0  0  0  0
 10 27  1  0  0  0  0
 11 13  1  0  0  0  0
 11 14  1  0  0  0  0
 11 28  1  0  0  0  0
 12 29  1  0  0  0  0
 12 30  1  0  0  0  0
 13 16  1  0  0  0  0
 13 32  1  0  0  0  0
 13 33  1  0  0  0  0
 14 17  1  0  0  0  0
 14 34  1  0  0  0  0
 14 35  1  0  0  0  0
 15 36  1  0  0  0  0
 15 37  1  0  0  0  0
 16 38  1  0  0  0  0
 16 39  1  0  0  0  0
 17 40  1  0  0  0  0
 17 41  1  0  0  0  0
 18 19  1  0  0  0  0
 19 20  2  0  0  0  0
 19 21  1  0  0  0  0
 20 22  1  0  0  0  0
 20 44  1  0  0  0  0
 21 23  2  0  0  0  0
 21 45  1  0  0  0  0
 22 24  2  0  0  0  0
 22 46  1  0  0  0  0
 23 24  1  0  0  0  0
 23 47  1  0  0  0  0
M  END
> <PUBCHEM_COMPOUND_CID>
75536635

> <PUBCHEM_CONFORMER_RMSD>
0.8

> <PUBCHEM_CONFORMER_DIVERSEORDER>
1
134
85
124
46
92
95
33
78
127
109
115
24
131
67
106
129
116
19
83
75
69
89
99
23
123
64
5
77
110
63
86
25
112
102
94
74
57
119
90
76
39
104
130
47
30
11
132
49
35
122
88
51
34
12
73
22
97
82
43
87
118
120
126
136
37
111
84
70
125
61
55
81
10
36
96
31
42
53
65
45
26
38
72
117
27
56
113
133
9
41
121
13
108
16
54
20
71
4
100
6
7
62
48
101
93
105
79
32
114
135
128
103
2
59
66
40
68
58
107
15
21
60
91
137
50
18
3
52
17
29
8
14
44
80
28
98

> <PUBCHEM_MMFF94_PARTIAL_CHARGES>
29
1 -0.19
10 0.28
11 0.27
12 0.28
15 0.3
16 0.28
17 0.28
18 0.54
19 0.09
2 -0.56
20 -0.15
21 -0.15
22 -0.15
23 -0.15
24 0.19
3 -0.68
31 0.36
4 -0.56
42 0.4
43 0.37
44 0.15
45 0.15
46 0.15
47 0.15
5 -0.57
6 -0.9
7 -0.73
8 0.27
9 0.28

> <PUBCHEM_EFFECTIVE_ROTOR_COUNT>
8.2

> <PUBCHEM_PHARMACOPHORE_FEATURES>
11
1 2 acceptor
1 3 acceptor
1 3 donor
1 4 acceptor
1 5 acceptor
1 6 cation
1 6 donor
1 7 donor
5 2 8 9 10 12 rings
6 19 20 21 22 23 24 rings
6 4 11 13 14 16 17 rings

> <PUBCHEM_HEAVY_ATOM_COUNT>
24

> <PUBCHEM_ATOM_DEF_STEREO_COUNT>
3

> <PUBCHEM_ATOM_UDEF_STEREO_COUNT>
0

> <PUBCHEM_BOND_DEF_STEREO_COUNT>
0

> <PUBCHEM_BOND_UDEF_STEREO_COUNT>
0

> <PUBCHEM_ISOTOPIC_ATOM_COUNT>
0

> <PUBCHEM_COMPONENT_COUNT>
1

> <PUBCHEM_CACTVS_TAUTO_COUNT>
2

> <PUBCHEM_CONFORMER_ID>
048098FB00000001

> <PUBCHEM_MMFF94_ENERGY>
47.0822

> <PUBCHEM_FEATURE_SELFOVERLAP>
55.822

> <PUBCHEM_SHAPE_FINGERPRINT>
10 15 17603587430287767573
10554248 39 17772739494898301487
106641 1 18260554442122157355
10670039 82 14117526415374708539
10753850 27 10737284645269124374
10906281 52 18340780290082398087
11315181 36 18272931627663093141
11991303 11 13542168507720991469
12166972 35 13110956552681303195
125118 31 18335419007124785813
12596602 18 16008749099833259005
12616971 3 16588305038078663214
12670543 26 13039188083088487307
12760667 363 8646772200989513639
12954195 1 11023841552092316443
13533116 47 18269273469882177790
13668630 136 10447923967112016029
13685833 64 11674878892314704166
13782708 43 7853571305545053527
13862211 1 8358257042641210623
14251752 14 13686297954792012701
14251764 18 18261111894227373583
14341114 176 17748820813953776714
14347332 77 10087653584465410642
14528608 73 16702297949216558495
15048467 5 18272932717524547931
15183329 4 13830138281966603466
15188451 53 11674874503011056348
15348495 7 16371017338041271429
15510800 12 8213867041431931056
15706992 2 17988376926903558057
16994733 274 18272650104798567345
1768 124 12973879308702406448
17980427 23 18260547882710565159
190975 80 16732991959104589769
2026 5 10953457445096560881
20281389 69 18341330007320623433
20526848 3 18344148102872619296
21033648 29 17988632056613931690
21150785 3 15626220225991050781
21267235 1 10735875093248634967
21424621 283 18200602397833071299
21637258 2 11602542035166310679
221357 26 14979958069115140418
2215653 11 12391511992581419116
22224240 67 18260550009584318195
23081809 10 17846207822658456375
3004659 81 12103844566715619990
3383291 50 8070024467403933821
4058900 60 15984555420717465423
4073 2 18272373079303019127
4340502 62 16588023498423982162
445580 37 16486978380168860849
465052 167 8286190678137710939
5104073 3 17677614344609814976
5718773 13 8069758381811483192
5758199 1 18342741797926409683
59682541 35 17822015337052894977
59682541 52 14333413337645356748
59755656 215 11312062036496411284
6438161 24 11743841335799233580

> <PUBCHEM_SHAPE_MULTIPOLES>
453.2
22.41
1.75
1.37
2.65
0.42
0.27
-15.87
2.68
-0.54
0.25
0.19
-0.17
-0.48

> <PUBCHEM_SHAPE_SELFOVERLAP>
949.079

> <PUBCHEM_SHAPE_VOLUME>
257.2

> <PUBCHEM_COORDINATE_TYPE>
2
5
10

$$$$
