25338545
  -OEChem-12032416203D

 54 57  0     1  0  0  0  0  0999 V2000
   -2.8273    3.1549   -0.5475 O   0  0  0  0  0  0  0  0  0  0  0  0
    3.8208    1.6461   -1.7924 O   0  0  0  0  0  0  0  0  0  0  0  0
    4.6755   -4.0403    0.8481 O   0  0  0  0  0  0  0  0  0  0  0  0
   -5.1387   -4.1088    0.0779 O   0  0  0  0  0  0  0  0  0  0  0  0
    0.1904    3.4992    1.2389 N   0  0  1  0  0  0  0  0  0  0  0  0
    2.4213    1.8575    0.0445 N   0  0  0  0  0  0  0  0  0  0  0  0
   -1.6988    1.2970   -0.0076 N   0  0  0  0  0  0  0  0  0  0  0  0
   -3.7579    2.1089   -0.5862 N   0  0  0  0  0  0  0  0  0  0  0  0
    1.9584    3.1930   -0.2493 C   0  0  1  0  0  0  0  0  0  0  0  0
   -0.4565    3.5263   -0.0868 C   0  0  1  0  0  0  0  0  0  0  0  0
    0.6723    3.1737   -1.0753 C   0  0  0  0  0  0  0  0  0  0  0  0
    1.5726    3.9371    1.0201 C   0  0  0  0  0  0  0  0  0  0  0  0
   -1.6413    2.5908   -0.1994 C   0  0  0  0  0  0  0  0  0  0  0  0
   -0.4920    4.3253    2.2276 C   0  0  0  0  0  0  0  0  0  0  0  0
    3.3267    1.1889   -0.7652 C   0  0  0  0  0  0  0  0  0  0  0  0
   -3.0169    1.0468   -0.2564 C   0  0  0  0  0  0  0  0  0  0  0  0
    3.6825   -0.1892   -0.3396 C   0  0  0  0  0  0  0  0  0  0  0  0
   -3.5620   -0.2770   -0.1681 C   0  0  0  0  0  0  0  0  0  0  0  0
    4.0910   -1.1277   -1.2873 C   0  0  0  0  0  0  0  0  0  0  0  0
    3.6079   -0.5449    1.0071 C   0  0  0  0  0  0  0  0  0  0  0  0
   -2.7393   -1.3486    0.1795 C   0  0  0  0  0  0  0  0  0  0  0  0
   -4.9143   -0.4932   -0.4331 C   0  0  0  0  0  0  0  0  0  0  0  0
    4.4248   -2.4220   -0.8884 C   0  0  0  0  0  0  0  0  0  0  0  0
    3.9417   -1.8390    1.4061 C   0  0  0  0  0  0  0  0  0  0  0  0
    4.3501   -2.7776    0.4584 C   0  0  0  0  0  0  0  0  0  0  0  0
   -3.2690   -2.6364    0.2621 C   0  0  0  0  0  0  0  0  0  0  0  0
   -5.4439   -1.7808   -0.3506 C   0  0  0  0  0  0  0  0  0  0  0  0
   -4.6215   -2.8524   -0.0031 C   0  0  0  0  0  0  0  0  0  0  0  0
    5.0848   -4.9495   -0.1728 C   0  0  0  0  0  0  0  0  0  0  0  0
   -4.2415   -5.1580    0.4389 C   0  0  0  0  0  0  0  0  0  0  0  0
    2.7531    3.7234   -0.7860 H   0  0  0  0  0  0  0  0  0  0  0  0
   -0.7923    4.5472   -0.3197 H   0  0  0  0  0  0  0  0  0  0  0  0
    0.5222    2.2138   -1.5833 H   0  0  0  0  0  0  0  0  0  0  0  0
    0.7227    3.9507   -1.8486 H   0  0  0  0  0  0  0  0  0  0  0  0
    2.2177    3.6884    1.8695 H   0  0  0  0  0  0  0  0  0  0  0  0
    1.6201    5.0199    0.8449 H   0  0  0  0  0  0  0  0  0  0  0  0
    1.9719    1.3762    0.8165 H   0  0  0  0  0  0  0  0  0  0  0  0
   -1.5126    3.9651    2.3952 H   0  0  0  0  0  0  0  0  0  0  0  0
   -0.5440    5.3780    1.9275 H   0  0  0  0  0  0  0  0  0  0  0  0
    0.0252    4.2692    3.1916 H   0  0  0  0  0  0  0  0  0  0  0  0
    4.1507   -0.8702   -2.3416 H   0  0  0  0  0  0  0  0  0  0  0  0
    3.3242    0.1633    1.7800 H   0  0  0  0  0  0  0  0  0  0  0  0
   -1.6816   -1.2114    0.3911 H   0  0  0  0  0  0  0  0  0  0  0  0
   -5.5857    0.3166   -0.7072 H   0  0  0  0  0  0  0  0  0  0  0  0
    4.7328   -3.1009   -1.6761 H   0  0  0  0  0  0  0  0  0  0  0  0
    3.8882   -2.1090    2.4573 H   0  0  0  0  0  0  0  0  0  0  0  0
   -2.5745   -3.4228    0.5371 H   0  0  0  0  0  0  0  0  0  0  0  0
   -6.4981   -1.9436   -0.5581 H   0  0  0  0  0  0  0  0  0  0  0  0
    5.3053   -5.9048    0.3148 H   0  0  0  0  0  0  0  0  0  0  0  0
    6.0083   -4.6186   -0.6598 H   0  0  0  0  0  0  0  0  0  0  0  0
    4.2799   -5.1360   -0.8919 H   0  0  0  0  0  0  0  0  0  0  0  0
   -4.8208   -6.0870    0.4554 H   0  0  0  0  0  0  0  0  0  0  0  0
   -3.8392   -5.0143    1.4474 H   0  0  0  0  0  0  0  0  0  0  0  0
   -3.4517   -5.2870   -0.3088 H   0  0  0  0  0  0  0  0  0  0  0  0
  1  8  1  0  0  0  0
  1 13  1  0  0  0  0
  2 15  2  0  0  0  0
  3 25  1  0  0  0  0
  3 29  1  0  0  0  0
  4 28  1  0  0  0  0
  4 30  1  0  0  0  0
  5 10  1  0  0  0  0
  5 12  1  0  0  0  0
  5 14  1  0  0  0  0
  6  9  1  0  0  0  0
  6 15  1  0  0  0  0
  6 37  1  0  0  0  0
  7 13  2  0  0  0  0
  7 16  1  0  0  0  0
  8 16  2  0  0  0  0
  9 11  1  0  0  0  0
  9 12  1  0  0  0  0
  9 31  1  0  0  0  0
 10 11  1  0  0  0  0
 10 13  1  0  0  0  0
 10 32  1  0  0  0  0
 11 33  1  0  0  0  0
 11 34  1  0  0  0  0
 12 35  1  0  0  0  0
 12 36  1  0  0  0  0
 14 38  1  0  0  0  0
 14 39  1  0  0  0  0
 14 40  1  0  0  0  0
 15 17  1  0  0  0  0
 16 18  1  0  0  0  0
 17 19  2  0  0  0  0
 17 20  1  0  0  0  0
 18 21  2  0  0  0  0
 18 22  1  0  0  0  0
 19 23  1  0  0  0  0
 19 41  1  0  0  0  0
 20 24  2  0  0  0  0
 20 42  1  0  0  0  0
 21 26  1  0  0  0  0
 21 43  1  0  0  0  0
 22 27  2  0  0  0  0
 22 44  1  0  0  0  0
 23 25  2  0  0  0  0
 23 45  1  0  0  0  0
 24 25  1  0  0  0  0
 24 46  1  0  0  0  0
 26 28  2  0  0  0  0
 26 47  1  0  0  0  0
 27 28  1  0  0  0  0
 27 48  1  0  0  0  0
 29 49  1  0  0  0  0
 29 50  1  0  0  0  0
 29 51  1  0  0  0  0
 30 52  1  0  0  0  0
 30 53  1  0  0  0  0
 30 54  1  0  0  0  0
M  END
> <PUBCHEM_COMPOUND_CID>
25338545

> <PUBCHEM_CONFORMER_RMSD>
1

> <PUBCHEM_CONFORMER_DIVERSEORDER>
1
26
11
30
13
18
31
19
2
12
22
3
8
17
5
23
16
27
20
29
4
7
21
14
28
15
6
9
25
24
10

> <PUBCHEM_MMFF94_PARTIAL_CHARGES>
38
1 -0.02
10 0.45
12 0.27
13 0.3
14 0.27
15 0.54
16 0.46
17 0.09
18 0.05
19 -0.15
2 -0.57
20 -0.15
21 -0.15
22 -0.15
23 -0.15
24 -0.15
25 0.08
26 -0.15
27 -0.15
28 0.08
29 0.28
3 -0.36
30 0.28
37 0.37
4 -0.36
41 0.15
42 0.15
43 0.15
44 0.15
45 0.15
46 0.15
47 0.15
48 0.15
5 -0.81
6 -0.73
7 -0.57
8 -0.41
9 0.3

> <PUBCHEM_EFFECTIVE_ROTOR_COUNT>
8

> <PUBCHEM_PHARMACOPHORE_FEATURES>
10
1 2 acceptor
1 3 acceptor
1 4 acceptor
1 5 cation
1 6 donor
3 7 8 16 cation
5 1 7 8 13 16 rings
5 5 9 10 11 12 rings
6 17 19 20 23 24 25 rings
6 18 21 22 26 27 28 rings

> <PUBCHEM_HEAVY_ATOM_COUNT>
30

> <PUBCHEM_ATOM_DEF_STEREO_COUNT>
2

> <PUBCHEM_ATOM_UDEF_STEREO_COUNT>
0

> <PUBCHEM_BOND_DEF_STEREO_COUNT>
0

> <PUBCHEM_BOND_UDEF_STEREO_COUNT>
0

> <PUBCHEM_ISOTOPIC_ATOM_COUNT>
0

> <PUBCHEM_COMPONENT_COUNT>
1

> <PUBCHEM_CACTVS_TAUTO_COUNT>
2

> <PUBCHEM_CONFORMER_ID>
0182A2B100000001

> <PUBCHEM_MMFF94_ENERGY>
87.841

> <PUBCHEM_FEATURE_SELFOVERLAP>
50.747

> <PUBCHEM_SHAPE_FINGERPRINT>
10254770 206 17974271141211210323
10571361 74 17541937594824610122
10622 236 17970625186860892242
10838868 229 18192160506907777747
10928967 22 18264226758469989586
11285246 1 18040721337658354531
11374522 301 17465972726713020098
114674 6 17836367425059275912
11828042 163 10841444118564976343
12147406 95 18120627361949653123
12969540 37 18337668723879592420
13165053 137 17330546545772140339
13553639 21 17972038299405009842
1361 2 17546165667804261195
13631057 29 18411991265116559764
14289585 56 14293748884632308736
14508693 111 18188202109927035146
14863182 85 17688027930473952453
14866123 147 18125160438312512257
15003188 105 18189614024406247286
15320294 125 17538843581846102942
15320467 1 18121218946065596918
15776043 110 18053978236034264419
16992828 155 13582691623116513711
17492 89 18409729560395834406
17909252 39 18266458883012021025
19301676 85 18337381670289146567
19319366 153 18122348145187357612
20028762 73 16825867977160769555
20501277 246 18058155301518773442
20775530 9 18341617031115655276
21315759 227 18263066855349230132
22440779 20 15407272131090846116
23379529 103 18265897947899394870
23559900 14 18338225046935105573
25222932 49 18127692836480706852
3146121 3 18335137537551071586
325973 47 18408887325767706682
3383291 50 18123184598621121385
345986 75 17631464513071913313
4017518 198 16968294809117811084
437795 163 18335142012500019758
4394409 98 17538821617346012741
4435113 14 16838261126910912854
463206 1 18265052427351721536
4756261 7 17901913613449981592
50009960 94 17973132270534879882
50080093 196 17621580040682404150
5309563 4 18123194760149428437
56633871 153 18267873778757810241
6201320 77 17098377218509938763
6433294 58 18194964268960525881
6679774 75 17042370075437780577
7970288 3 18337670806875095966
86090 222 17616823565974305475
9831232 110 17901666296306457671

> <PUBCHEM_SHAPE_MULTIPOLES>
573.98
12.97
8.32
1.27
2.94
2.84
0.29
19.63
-1.31
-0.47
2.26
-1.15
-0.93
-0.1

> <PUBCHEM_SHAPE_SELFOVERLAP>
1239.797

> <PUBCHEM_SHAPE_VOLUME>
317.8

> <PUBCHEM_COORDINATE_TYPE>
2
5
10

$$$$
