45361340
  -OEChem-12032416123D

 70 73  0     1  0  0  0  0  0999 V2000
    3.0708   -1.9731   -1.2448 S   0  0  0  0  0  0  0  0  0  0  0  0
   -2.4796    1.4945    0.5790 O   0  0  0  0  0  0  0  0  0  0  0  0
   -6.3631   -2.0419    0.7797 O   0  0  0  0  0  0  0  0  0  0  0  0
    5.4104    1.6075    0.6557 O   0  0  0  0  0  0  0  0  0  0  0  0
    2.7983    0.2061    0.1199 N   0  0  0  0  0  0  0  0  0  0  0  0
   -6.7624   -0.1876   -0.5455 N   0  0  0  0  0  0  0  0  0  0  0  0
    5.0399   -0.3963   -0.5295 N   0  0  0  0  0  0  0  0  0  0  0  0
    8.2432    1.0347    0.6598 N   0  0  0  0  0  0  0  0  0  0  0  0
   -6.6390    4.6648   -0.9930 N   0  0  0  0  0  0  0  0  0  0  0  0
   -0.8770   -1.9188   -0.0925 C   0  0  1  0  0  0  0  0  0  0  0  0
   -1.0079   -0.3458   -0.0332 C   0  0  1  0  0  0  0  0  0  0  0  0
   -2.2931    0.0876    0.7274 C   0  0  2  0  0  0  0  0  0  0  0  0
   -3.5664   -0.6018    0.1904 C   0  0  1  0  0  0  0  0  0  0  0  0
   -2.1802   -2.5288   -0.6601 C   0  0  0  0  0  0  0  0  0  0  0  0
    0.3107    0.3377    0.5162 C   0  0  1  0  0  0  0  0  0  0  0  0
   -3.4219   -2.1221    0.1215 C   0  0  0  0  0  0  0  0  0  0  0  0
    0.2835   -2.3162   -1.0573 C   0  0  0  0  0  0  0  0  0  0  0  0
   -0.6007   -2.5328    1.3048 C   0  0  0  0  0  0  0  0  0  0  0  0
   -4.8035   -0.2413    1.0218 C   0  0  2  0  0  0  0  0  0  0  0  0
    1.5349   -0.3264   -0.0670 C   0  0  0  0  0  0  0  0  0  0  0  0
    1.5035   -1.5186   -0.7604 C   0  0  0  0  0  0  0  0  0  0  0  0
    0.3626    1.8506    0.2571 C   0  0  0  0  0  0  0  0  0  0  0  0
   -4.5922   -0.6873    2.4696 C   0  0  0  0  0  0  0  0  0  0  0  0
   -6.0445   -0.9036    0.4183 C   0  0  0  0  0  0  0  0  0  0  0  0
    3.6829   -0.5702   -0.4673 C   0  0  0  0  0  0  0  0  0  0  0  0
   -6.4749    1.1710   -1.0015 C   0  0  0  0  0  0  0  0  0  0  0  0
   -7.9377   -0.7991   -1.1565 C   0  0  0  0  0  0  0  0  0  0  0  0
    5.8273    0.6488    0.0147 C   0  0  0  0  0  0  0  0  0  0  0  0
   -7.1985    2.2277   -0.1757 C   0  0  0  0  0  0  0  0  0  0  0  0
    7.2946    0.5444   -0.1992 C   0  0  0  0  0  0  0  0  0  0  0  0
   -6.8852    3.5895   -0.6330 C   0  0  0  0  0  0  0  0  0  0  0  0
    7.9489   -0.0451   -1.2583 C   0  0  0  0  0  0  0  0  0  0  0  0
    9.4931    0.7663    0.1655 C   0  0  0  0  0  0  0  0  0  0  0  0
    9.3397    0.0953   -1.0277 C   0  0  0  0  0  0  0  0  0  0  0  0
    7.9835    1.7304    1.9011 C   0  0  0  0  0  0  0  0  0  0  0  0
   -1.1213    0.0034   -1.0723 H   0  0  0  0  0  0  0  0  0  0  0  0
   -2.1322   -0.1066    1.7894 H   0  0  0  0  0  0  0  0  0  0  0  0
   -3.7345   -0.2432   -0.8349 H   0  0  0  0  0  0  0  0  0  0  0  0
   -2.3096   -2.2132   -1.7043 H   0  0  0  0  0  0  0  0  0  0  0  0
   -2.1090   -3.6240   -0.6792 H   0  0  0  0  0  0  0  0  0  0  0  0
    0.3538    0.1861    1.6030 H   0  0  0  0  0  0  0  0  0  0  0  0
   -4.2737   -2.5719   -0.3997 H   0  0  0  0  0  0  0  0  0  0  0  0
   -3.3732   -2.5941    1.1045 H   0  0  0  0  0  0  0  0  0  0  0  0
   -0.0076   -2.1172   -2.0971 H   0  0  0  0  0  0  0  0  0  0  0  0
    0.4892   -3.3911   -0.9801 H   0  0  0  0  0  0  0  0  0  0  0  0
   -0.5949   -3.6278    1.2509 H   0  0  0  0  0  0  0  0  0  0  0  0
    0.3689   -2.2305    1.7118 H   0  0  0  0  0  0  0  0  0  0  0  0
   -1.3565   -2.2478    2.0420 H   0  0  0  0  0  0  0  0  0  0  0  0
   -4.9445    0.8422    1.0523 H   0  0  0  0  0  0  0  0  0  0  0  0
    0.1568    2.0813   -0.7938 H   0  0  0  0  0  0  0  0  0  0  0  0
    1.3472    2.2678    0.4974 H   0  0  0  0  0  0  0  0  0  0  0  0
   -0.3497    2.3936    0.8822 H   0  0  0  0  0  0  0  0  0  0  0  0
   -2.5848    1.6862   -0.3685 H   0  0  0  0  0  0  0  0  0  0  0  0
   -4.4214   -1.7578    2.5998 H   0  0  0  0  0  0  0  0  0  0  0  0
   -5.5054   -0.4709    3.0399 H   0  0  0  0  0  0  0  0  0  0  0  0
   -3.7959   -0.1353    2.9745 H   0  0  0  0  0  0  0  0  0  0  0  0
    5.5253   -1.1371   -1.0289 H   0  0  0  0  0  0  0  0  0  0  0  0
   -5.3960    1.3497   -0.9717 H   0  0  0  0  0  0  0  0  0  0  0  0
   -6.7575    1.2496   -2.0592 H   0  0  0  0  0  0  0  0  0  0  0  0
   -7.7834   -0.8575   -2.2381 H   0  0  0  0  0  0  0  0  0  0  0  0
   -8.1200   -1.8073   -0.7763 H   0  0  0  0  0  0  0  0  0  0  0  0
   -8.8149   -0.1816   -0.9439 H   0  0  0  0  0  0  0  0  0  0  0  0
   -6.9317    2.1289    0.8827 H   0  0  0  0  0  0  0  0  0  0  0  0
   -8.2818    2.0699   -0.2336 H   0  0  0  0  0  0  0  0  0  0  0  0
    7.4873   -0.5222   -2.1119 H   0  0  0  0  0  0  0  0  0  0  0  0
   10.3855    1.0719    0.6949 H   0  0  0  0  0  0  0  0  0  0  0  0
   10.1426   -0.2529   -1.6622 H   0  0  0  0  0  0  0  0  0  0  0  0
    7.5713    2.7149    1.6673 H   0  0  0  0  0  0  0  0  0  0  0  0
    7.2870    1.1387    2.5003 H   0  0  0  0  0  0  0  0  0  0  0  0
    8.9204    1.8476    2.4526 H   0  0  0  0  0  0  0  0  0  0  0  0
  1 21  1  0  0  0  0
  1 25  1  0  0  0  0
  2 12  1  0  0  0  0
  2 53  1  0  0  0  0
  3 24  2  0  0  0  0
  4 28  2  0  0  0  0
  5 20  1  0  0  0  0
  5 25  2  0  0  0  0
  6 24  1  0  0  0  0
  6 26  1  0  0  0  0
  6 27  1  0  0  0  0
  7 25  1  0  0  0  0
  7 28  1  0  0  0  0
  7 57  1  0  0  0  0
  8 30  1  0  0  0  0
  8 33  1  0  0  0  0
  8 35  1  0  0  0  0
  9 31  3  0  0  0  0
 10 11  1  0  0  0  0
 10 14  1  0  0  0  0
 10 17  1  0  0  0  0
 10 18  1  0  0  0  0
 11 12  1  0  0  0  0
 11 15  1  0  0  0  0
 11 36  1  0  0  0  0
 12 13  1  0  0  0  0
 12 37  1  0  0  0  0
 13 16  1  0  0  0  0
 13 19  1  0  0  0  0
 13 38  1  0  0  0  0
 14 16  1  0  0  0  0
 14 39  1  0  0  0  0
 14 40  1  0  0  0  0
 15 20  1  0  0  0  0
 15 22  1  0  0  0  0
 15 41  1  0  0  0  0
 16 42  1  0  0  0  0
 16 43  1  0  0  0  0
 17 21  1  0  0  0  0
 17 44  1  0  0  0  0
 17 45  1  0  0  0  0
 18 46  1  0  0  0  0
 18 47  1  0  0  0  0
 18 48  1  0  0  0  0
 19 23  1  0  0  0  0
 19 24  1  0  0  0  0
 19 49  1  0  0  0  0
 20 21  2  0  0  0  0
 22 50  1  0  0  0  0
 22 51  1  0  0  0  0
 22 52  1  0  0  0  0
 23 54  1  0  0  0  0
 23 55  1  0  0  0  0
 23 56  1  0  0  0  0
 26 29  1  0  0  0  0
 26 58  1  0  0  0  0
 26 59  1  0  0  0  0
 27 60  1  0  0  0  0
 27 61  1  0  0  0  0
 27 62  1  0  0  0  0
 28 30  1  0  0  0  0
 29 31  1  0  0  0  0
 29 63  1  0  0  0  0
 29 64  1  0  0  0  0
 30 32  2  0  0  0  0
 32 34  1  0  0  0  0
 32 65  1  0  0  0  0
 33 34  2  0  0  0  0
 33 66  1  0  0  0  0
 34 67  1  0  0  0  0
 35 68  1  0  0  0  0
 35 69  1  0  0  0  0
 35 70  1  0  0  0  0
M  END
> <PUBCHEM_COMPOUND_CID>
45361340

> <PUBCHEM_CONFORMER_RMSD>
1

> <PUBCHEM_CONFORMER_DIVERSEORDER>
1
170
43
23
172
141
93
176
179
91
178
165
174
76
119
101
45
132
164
75
125
53
158
90
16
171
110
142
150
148
89
121
117
168
13
20
157
39
24
123
146
63
31
102
180
74
69
173
95
144
175
156
68
160
109
177
115
108
167
94
147
162
58
64
86
182
126
18
67
8
159
152
163
129
52
50
22
81
105
133
59
127
5
103
47
124
82
34
56
77
97
155
181
111
54
37
161
46
36
30
128
99
140
154
79
21
138
25
116
139
3
120
48
65
113
40
57
114
42
149
98
104
143
88
49
136
112
151
73
84
85
145
6
41
62
130
134
55
2
166
17
66
96
9
87
131
106
137
92
26
80
153
78
4
12
107
11
19
32
169
28
71
122
27
10
38
70
33
51
61
44
60
7
135
72
118
35
29
15
83
100
14

> <PUBCHEM_MMFF94_PARTIAL_CHARGES>
32
1 -0.08
12 0.28
15 0.18
17 0.18
19 0.06
2 -0.68
20 0.05
21 -0.14
24 0.57
25 0.44
26 0.3
27 0.3
28 0.71
29 0.2
3 -0.57
30 -0.24
31 0.36
32 -0.15
33 -0.3
34 -0.15
35 0.26
4 -0.57
5 -0.57
53 0.4
57 0.37
6 -0.66
65 0.15
66 0.15
67 0.15
7 -0.49
8 0.05
9 -0.56

> <PUBCHEM_EFFECTIVE_ROTOR_COUNT>
9.2

> <PUBCHEM_PHARMACOPHORE_FEATURES>
12
1 2 acceptor
1 2 donor
1 23 hydrophobe
1 3 acceptor
1 4 acceptor
1 7 donor
1 8 cation
1 9 acceptor
5 1 5 20 21 25 rings
5 8 30 32 33 34 rings
6 10 11 12 13 14 16 rings
6 10 11 15 17 20 21 rings

> <PUBCHEM_HEAVY_ATOM_COUNT>
35

> <PUBCHEM_ATOM_DEF_STEREO_COUNT>
5

> <PUBCHEM_ATOM_UDEF_STEREO_COUNT>
1

> <PUBCHEM_BOND_DEF_STEREO_COUNT>
0

> <PUBCHEM_BOND_UDEF_STEREO_COUNT>
0

> <PUBCHEM_ISOTOPIC_ATOM_COUNT>
0

> <PUBCHEM_COMPONENT_COUNT>
1

> <PUBCHEM_CACTVS_TAUTO_COUNT>
3

> <PUBCHEM_CONFORMER_ID>
02B428BC00000001

> <PUBCHEM_MMFF94_ENERGY>
89.0051

> <PUBCHEM_FEATURE_SELFOVERLAP>
60.977

> <PUBCHEM_SHAPE_FINGERPRINT>
10 15 18407760348256089306
10533779 1 17969778580757963189
10835480 77 18340769243748317933
11135926 11 17632587040954674511
11181472 205 18040438759761024716
11315181 36 17489311914438604507
11477941 20 15769777936387111609
11578821 258 18335986454252455428
12133447 93 18337402547792220324
12539745 222 16588317137391439483
12838862 33 18271514369231850334
13782708 43 10735861864902408813
13811026 1 18412547587634080774
14040221 310 18272639169991036709
14117953 113 18342181090056895180
14294032 229 17822567209822008333
150020 25 18202003209890915364
15131766 46 16664604677057543004
15350500 55 18409164376921866636
15444296 121 17749394801440457409
15461852 350 17775565372851799063
15604295 49 18337668719801052348
17324776 126 8571562277716197697
21033648 29 18114471071691626071
21150785 3 14476967796076089414
21792938 79 14691983909712349072
23559900 14 17702660102361238338
24771293 8 18059585680041259448
249057 3 18341615966707278380
335352 9 18131356349732918364
4169191 19 18060145318764604819
4339292 15 10951757561649571913
437795 83 17845938433741179609
44802255 64 18131627869018031959
5937810 71 17988648433420001961
6009941 240 17895198834712689546
636775 72 18335702711558957245
9896288 288 11170176641507371519

> <PUBCHEM_SHAPE_MULTIPOLES>
681.62
29.03
3.23
1.37
38.43
2.52
0.49
18.64
-3.2
-7.23
-0.74
-0.23
-0.08
3.39

> <PUBCHEM_SHAPE_SELFOVERLAP>
1427.781

> <PUBCHEM_SHAPE_VOLUME>
390.6

> <PUBCHEM_COORDINATE_TYPE>
2
5
10

$$$$
