26743244
  -OEChem-12032416193D

 77 81  0     1  0  0  0  0  0999 V2000
   -5.3819   -1.5746   -1.6997 O   0  0  0  0  0  0  0  0  0  0  0  0
    1.8672    1.4312   -2.2263 O   0  0  0  0  0  0  0  0  0  0  0  0
   -2.1475    2.7317    0.9962 N   0  0  0  0  0  0  0  0  0  0  0  0
    3.0916    0.2171   -0.6699 N   0  0  0  0  0  0  0  0  0  0  0  0
    5.6026   -0.2401    0.6317 N   0  0  0  0  0  0  0  0  0  0  0  0
   -4.0785   -1.1816   -1.9783 N   0  0  0  0  0  0  0  0  0  0  0  0
   -0.5000    1.3370   -1.0156 C   0  0  1  0  0  0  0  0  0  0  0  0
   -1.8896    0.8223   -0.5703 C   0  0  2  0  0  0  0  0  0  0  0  0
   -0.4236    2.8531   -0.7689 C   0  0  0  0  0  0  0  0  0  0  0  0
   -2.2329    1.2774    0.8582 C   0  0  0  0  0  0  0  0  0  0  0  0
    0.6762    0.6156   -0.3467 C   0  0  0  0  0  0  0  0  0  0  0  0
   -2.0371   -0.6942   -0.7010 C   0  0  0  0  0  0  0  0  0  0  0  0
   -0.8168    3.2324    0.6582 C   0  0  0  0  0  0  0  0  0  0  0  0
   -7.8794   -0.9943    0.1063 C   0  0  0  0  0  0  0  0  0  0  0  0
   -9.2526   -1.4984    0.5703 C   0  0  0  0  0  0  0  0  0  0  0  0
   -7.4014    0.1725    0.9811 C   0  0  0  0  0  0  0  0  0  0  0  0
    1.9258    0.7945   -1.1714 C   0  0  0  0  0  0  0  0  0  0  0  0
   -6.8570   -2.1292    0.1150 C   0  0  0  0  0  0  0  0  0  0  0  0
   -3.4804   -1.0981   -0.7865 C   0  0  0  0  0  0  0  0  0  0  0  0
  -10.2797   -0.3696    0.6211 C   0  0  0  0  0  0  0  0  0  0  0  0
   -8.4317    1.2984    1.0313 C   0  0  0  0  0  0  0  0  0  0  0  0
   -9.7974    0.7920    1.4844 C   0  0  0  0  0  0  0  0  0  0  0  0
   -5.5304   -1.7153   -0.3577 C   0  0  0  0  0  0  0  0  0  0  0  0
    4.3463    0.3500   -1.4087 C   0  0  0  0  0  0  0  0  0  0  0  0
    3.1679   -0.6540    0.5065 C   0  0  0  0  0  0  0  0  0  0  0  0
   -4.3484   -1.4236    0.2702 C   0  0  0  0  0  0  0  0  0  0  0  0
    5.5014    0.7186   -0.4782 C   0  0  0  0  0  0  0  0  0  0  0  0
    4.3493   -0.2712    1.4000 C   0  0  0  0  0  0  0  0  0  0  0  0
    6.7293    0.0970    1.5004 C   0  0  0  0  0  0  0  0  0  0  0  0
    8.0368   -0.3762    0.9341 C   0  0  0  0  0  0  0  0  0  0  0  0
    8.5132   -1.6487    1.2490 C   0  0  0  0  0  0  0  0  0  0  0  0
    8.7749    0.4565    0.0931 C   0  0  0  0  0  0  0  0  0  0  0  0
    9.7279   -2.0887    0.7230 C   0  0  0  0  0  0  0  0  0  0  0  0
    9.9896    0.0167   -0.4330 C   0  0  0  0  0  0  0  0  0  0  0  0
   10.4661   -1.2559   -0.1181 C   0  0  0  0  0  0  0  0  0  0  0  0
   -0.4539    1.1713   -2.1009 H   0  0  0  0  0  0  0  0  0  0  0  0
   -2.6207    1.2968   -1.2439 H   0  0  0  0  0  0  0  0  0  0  0  0
   -1.1050    3.3568   -1.4681 H   0  0  0  0  0  0  0  0  0  0  0  0
    0.5755    3.2470   -0.9836 H   0  0  0  0  0  0  0  0  0  0  0  0
   -3.2573    0.9919    1.1147 H   0  0  0  0  0  0  0  0  0  0  0  0
   -1.5751    0.7939    1.5910 H   0  0  0  0  0  0  0  0  0  0  0  0
    0.4925   -0.4616   -0.2981 H   0  0  0  0  0  0  0  0  0  0  0  0
    0.8485    0.9824    0.6686 H   0  0  0  0  0  0  0  0  0  0  0  0
   -1.5723   -1.2141    0.1458 H   0  0  0  0  0  0  0  0  0  0  0  0
   -1.5272   -1.0463   -1.6074 H   0  0  0  0  0  0  0  0  0  0  0  0
   -0.0790    2.8720    1.3832 H   0  0  0  0  0  0  0  0  0  0  0  0
   -0.8261    4.3249    0.7417 H   0  0  0  0  0  0  0  0  0  0  0  0
   -7.9838   -0.6238   -0.9236 H   0  0  0  0  0  0  0  0  0  0  0  0
   -2.3726    2.9934    1.9556 H   0  0  0  0  0  0  0  0  0  0  0  0
   -9.1674   -1.9523    1.5660 H   0  0  0  0  0  0  0  0  0  0  0  0
   -9.6118   -2.2827   -0.1066 H   0  0  0  0  0  0  0  0  0  0  0  0
   -6.4654    0.5947    0.5992 H   0  0  0  0  0  0  0  0  0  0  0  0
   -7.2025   -0.1797    2.0015 H   0  0  0  0  0  0  0  0  0  0  0  0
   -7.2191   -2.9515   -0.5154 H   0  0  0  0  0  0  0  0  0  0  0  0
   -6.7678   -2.5424    1.1282 H   0  0  0  0  0  0  0  0  0  0  0  0
  -11.2282   -0.7522    1.0146 H   0  0  0  0  0  0  0  0  0  0  0  0
  -10.4776   -0.0107   -0.3965 H   0  0  0  0  0  0  0  0  0  0  0  0
   -8.5226    1.7544    0.0376 H   0  0  0  0  0  0  0  0  0  0  0  0
   -8.0859    2.0841    1.7125 H   0  0  0  0  0  0  0  0  0  0  0  0
  -10.5261    1.6094    1.4439 H   0  0  0  0  0  0  0  0  0  0  0  0
   -9.7376    0.4683    2.5310 H   0  0  0  0  0  0  0  0  0  0  0  0
    4.2519    1.1037   -2.1973 H   0  0  0  0  0  0  0  0  0  0  0  0
    4.5373   -0.6131   -1.8981 H   0  0  0  0  0  0  0  0  0  0  0  0
    3.2867   -1.6797    0.1356 H   0  0  0  0  0  0  0  0  0  0  0  0
    2.2497   -0.6313    1.0959 H   0  0  0  0  0  0  0  0  0  0  0  0
   -4.1473   -1.4462    1.3311 H   0  0  0  0  0  0  0  0  0  0  0  0
    6.4067    0.7180   -1.0912 H   0  0  0  0  0  0  0  0  0  0  0  0
    5.3537    1.7388   -0.0995 H   0  0  0  0  0  0  0  0  0  0  0  0
    4.1579    0.7063    1.8625 H   0  0  0  0  0  0  0  0  0  0  0  0
    4.4195   -1.0112    2.2063 H   0  0  0  0  0  0  0  0  0  0  0  0
    6.6109   -0.3864    2.4806 H   0  0  0  0  0  0  0  0  0  0  0  0
    6.7706    1.1724    1.7229 H   0  0  0  0  0  0  0  0  0  0  0  0
    7.9472   -2.3087    1.9011 H   0  0  0  0  0  0  0  0  0  0  0  0
    8.4272    1.4571   -0.1490 H   0  0  0  0  0  0  0  0  0  0  0  0
   10.0988   -3.0797    0.9678 H   0  0  0  0  0  0  0  0  0  0  0  0
   10.5663    0.6664   -1.0848 H   0  0  0  0  0  0  0  0  0  0  0  0
   11.4122   -1.5981   -0.5271 H   0  0  0  0  0  0  0  0  0  0  0  0
  1  6  1  0  0  0  0
  1 23  1  0  0  0  0
  2 17  2  0  0  0  0
  3 10  1  0  0  0  0
  3 13  1  0  0  0  0
  3 49  1  0  0  0  0
  4 17  1  0  0  0  0
  4 24  1  0  0  0  0
  4 25  1  0  0  0  0
  5 27  1  0  0  0  0
  5 28  1  0  0  0  0
  5 29  1  0  0  0  0
  6 19  2  0  0  0  0
  7  8  1  0  0  0  0
  7  9  1  0  0  0  0
  7 11  1  0  0  0  0
  7 36  1  0  0  0  0
  8 10  1  0  0  0  0
  8 12  1  0  0  0  0
  8 37  1  0  0  0  0
  9 13  1  0  0  0  0
  9 38  1  0  0  0  0
  9 39  1  0  0  0  0
 10 40  1  0  0  0  0
 10 41  1  0  0  0  0
 11 17  1  0  0  0  0
 11 42  1  0  0  0  0
 11 43  1  0  0  0  0
 12 19  1  0  0  0  0
 12 44  1  0  0  0  0
 12 45  1  0  0  0  0
 13 46  1  0  0  0  0
 13 47  1  0  0  0  0
 14 15  1  0  0  0  0
 14 16  1  0  0  0  0
 14 18  1  0  0  0  0
 14 48  1  0  0  0  0
 15 20  1  0  0  0  0
 15 50  1  0  0  0  0
 15 51  1  0  0  0  0
 16 21  1  0  0  0  0
 16 52  1  0  0  0  0
 16 53  1  0  0  0  0
 18 23  1  0  0  0  0
 18 54  1  0  0  0  0
 18 55  1  0  0  0  0
 19 26  1  0  0  0  0
 20 22  1  0  0  0  0
 20 56  1  0  0  0  0
 20 57  1  0  0  0  0
 21 22  1  0  0  0  0
 21 58  1  0  0  0  0
 21 59  1  0  0  0  0
 22 60  1  0  0  0  0
 22 61  1  0  0  0  0
 23 26  2  0  0  0  0
 24 27  1  0  0  0  0
 24 62  1  0  0  0  0
 24 63  1  0  0  0  0
 25 28  1  0  0  0  0
 25 64  1  0  0  0  0
 25 65  1  0  0  0  0
 26 66  1  0  0  0  0
 27 67  1  0  0  0  0
 27 68  1  0  0  0  0
 28 69  1  0  0  0  0
 28 70  1  0  0  0  0
 29 30  1  0  0  0  0
 29 71  1  0  0  0  0
 29 72  1  0  0  0  0
 30 31  2  0  0  0  0
 30 32  1  0  0  0  0
 31 33  1  0  0  0  0
 31 73  1  0  0  0  0
 32 34  2  0  0  0  0
 32 74  1  0  0  0  0
 33 35  2  0  0  0  0
 33 75  1  0  0  0  0
 34 35  1  0  0  0  0
 34 76  1  0  0  0  0
 35 77  1  0  0  0  0
M  END
> <PUBCHEM_COMPOUND_CID>
26743244

> <PUBCHEM_CONFORMER_RMSD>
1.6

> <PUBCHEM_CONFORMER_DIVERSEORDER>
1
45
51
54
43
27
30
76
78
67
69
36
26
29
16
52
44
15
56
23
24
80
13
87
62
25
35
61
12
46
49
57
20
21
53
31
11
89
72
19
7
17
63
48
58
71
73
66
64
42
83
88
40
41
22
39
79
85
10
28
81
2
60
59
82
37
86
65
68
32
74
84
14
47
18
55
9
34
33
3
50
38
6
77
70
4
75
5
8

> <PUBCHEM_MMFF94_PARTIAL_CHARGES>
33
1 -0.02
10 0.27
11 0.06
12 0.18
13 0.27
17 0.57
18 0.18
19 0.11
2 -0.57
23 -0.04
24 0.3
25 0.3
26 -0.15
27 0.27
28 0.27
29 0.41
3 -0.9
30 -0.14
31 -0.15
32 -0.15
33 -0.15
34 -0.15
35 -0.15
4 -0.66
49 0.36
5 -0.81
6 -0.41
66 0.15
73 0.15
74 0.15
75 0.15
76 0.15
77 0.15

> <PUBCHEM_EFFECTIVE_ROTOR_COUNT>
12.6

> <PUBCHEM_PHARMACOPHORE_FEATURES>
10
1 2 acceptor
1 3 cation
1 3 donor
1 5 cation
1 6 acceptor
5 1 6 19 23 26 rings
6 14 15 16 20 21 22 rings
6 3 7 8 9 10 13 rings
6 30 31 32 33 34 35 rings
6 4 5 24 25 27 28 rings

> <PUBCHEM_HEAVY_ATOM_COUNT>
35

> <PUBCHEM_ATOM_DEF_STEREO_COUNT>
2

> <PUBCHEM_ATOM_UDEF_STEREO_COUNT>
0

> <PUBCHEM_BOND_DEF_STEREO_COUNT>
0

> <PUBCHEM_BOND_UDEF_STEREO_COUNT>
0

> <PUBCHEM_ISOTOPIC_ATOM_COUNT>
0

> <PUBCHEM_COMPONENT_COUNT>
1

> <PUBCHEM_CACTVS_TAUTO_COUNT>
1

> <PUBCHEM_CONFORMER_ID>
019811CC00000001

> <PUBCHEM_MMFF94_ENERGY>
56.5666

> <PUBCHEM_FEATURE_SELFOVERLAP>
50.748

> <PUBCHEM_SHAPE_FINGERPRINT>
10076449 9 15936127460761970735
10190206 1 12685087065107957621
10429389 143 13758085065639931019
10625338 86 15410901743122011243
10674148 151 18413670227428871411
10904742 90 11240002265305423780
10930396 42 17203889652582377321
11146851 88 17531247279194987626
11456790 92 18335989748675792329
11476731 38 17748830735607617452
11672396 167 18263080084972946095
12144603 126 18335426819501291052
12539745 222 18343584019259251281
12539747 363 18408318904305668041
12664476 115 13614520749373550186
12741549 16 17418093217892691248
14150022 121 17418380168409463113
14279260 333 18260828173304377737
14344974 52 11242259567088337662
15064986 266 16660364757750752485
15274700 256 18272088297048198128
15320294 125 18408601487219937415
15392192 29 18260267481729073515
15419008 145 18411703171916888729
1754911 235 9871751287113675811
17852330 162 12613334074419307134
1818759 1 17822009813661817314
19315958 150 16845298245407974535
20105231 36 14634873068189116921
21057603 130 17749111109912234879
21591340 7 11815894557322830006
21756936 100 11599717402811442372
21792934 111 18202562899763900321
21792961 116 18260539014356965839
21927370 108 18412261735748799732
232437 2 18260548926397958851
23389318 12 17458347447467392830
24771293 8 11383846978248701203
249057 3 11097859579905163822
306946 40 15985105185405721473
3552219 110 18334295375087516700
45377200 153 14490484136078326841
4874694 18 15482674584917434135
54039377 194 17748544835965402223
57035037 87 15698008418811784635
57527295 17 15502918728330718108
6201320 215 18059858308308734241
636775 8 12757155689085852203
6673363 416 10809341131681198815
9953998 17 16343701062238535158

> <PUBCHEM_SHAPE_MULTIPOLES>
688.62
39.86
2.42
1.52
16.08
1.21
-0.29
-20.7
14.29
-1.76
0.12
-0.2
0.16
-2.67

> <PUBCHEM_SHAPE_SELFOVERLAP>
1443.42

> <PUBCHEM_SHAPE_VOLUME>
384.1

> <PUBCHEM_COORDINATE_TYPE>
2
5
10

$$$$
