7113976
  -OEChem-12032416113D

 62 66  0     1  0  0  0  0  0999 V2000
   -1.2756   -2.6254    1.2033 S   0  0  0  0  0  0  0  0  0  0  0  0
   -4.5237   -0.1830   -1.8644 F   0  0  0  0  0  0  0  0  0  0  0  0
    1.7846   -2.5996    1.8322 O   0  0  0  0  0  0  0  0  0  0  0  0
    2.5074    2.6003    1.6503 O   0  0  0  0  0  0  0  0  0  0  0  0
   -1.4902   -3.5662    2.2867 O   0  0  0  0  0  0  0  0  0  0  0  0
   -0.8422   -1.2704    1.4873 O   0  0  0  0  0  0  0  0  0  0  0  0
   -4.6427    3.9848   -0.4584 O   0  0  0  0  0  0  0  0  0  0  0  0
    3.6945    1.6305   -0.0832 N   0  0  0  0  0  0  0  0  0  0  0  0
    2.9970   -1.4747    0.1725 N   0  0  0  0  0  0  0  0  0  0  0  0
    1.6160    2.6715   -0.4890 N   0  0  0  0  0  0  0  0  0  0  0  0
   -0.2584   -3.3169    0.0406 N   0  0  0  0  0  0  0  0  0  0  0  0
    5.1886   -0.2409    0.6381 C   0  0  1  0  0  0  0  0  0  0  0  0
    4.2496   -0.2391   -1.6332 C   0  0  2  0  0  0  0  0  0  0  0  0
    5.5073   -0.5376   -0.8216 C   0  0  0  0  0  0  0  0  0  0  0  0
    4.7874    1.2338    0.8093 C   0  0  0  0  0  0  0  0  0  0  0  0
    4.0890   -1.1970    1.1136 C   0  0  0  0  0  0  0  0  0  0  0  0
    3.8796    1.2528   -1.4962 C   0  0  0  0  0  0  0  0  0  0  0  0
    3.0846   -1.0978   -1.1744 C   0  0  0  0  0  0  0  0  0  0  0  0
    2.1283   -1.4635   -2.0477 C   0  0  0  0  0  0  0  0  0  0  0  0
    1.9101   -2.2262    0.6666 C   0  0  0  0  0  0  0  0  0  0  0  0
    2.5846    2.3219    0.4508 C   0  0  0  0  0  0  0  0  0  0  0  0
    0.8759   -2.5774   -0.3388 C   0  0  0  0  0  0  0  0  0  0  0  0
    0.9869   -2.2264   -1.6204 C   0  0  0  0  0  0  0  0  0  0  0  0
    0.2383    2.9020   -0.2531 C   0  0  0  0  0  0  0  0  0  0  0  0
   -2.7884   -2.5159    0.2934 C   0  0  0  0  0  0  0  0  0  0  0  0
   -0.2922    2.6899    1.0165 C   0  0  0  0  0  0  0  0  0  0  0  0
   -0.5778    3.3392   -1.2929 C   0  0  0  0  0  0  0  0  0  0  0  0
   -1.6488    2.9168    1.2483 C   0  0  0  0  0  0  0  0  0  0  0  0
   -1.9345    3.5661   -1.0612 C   0  0  0  0  0  0  0  0  0  0  0  0
   -3.0549   -1.3710   -0.4360 C   0  0  0  0  0  0  0  0  0  0  0  0
   -3.6760   -3.5764    0.3301 C   0  0  0  0  0  0  0  0  0  0  0  0
   -2.4700    3.3548    0.2094 C   0  0  0  0  0  0  0  0  0  0  0  0
   -4.2485   -1.2838   -1.1526 C   0  0  0  0  0  0  0  0  0  0  0  0
   -4.8696   -3.4893   -0.3865 C   0  0  0  0  0  0  0  0  0  0  0  0
   -5.1558   -2.3430   -1.1277 C   0  0  0  0  0  0  0  0  0  0  0  0
   -3.8842    3.5925    0.4507 C   0  0  0  0  0  0  0  0  0  0  0  0
   -4.4763    3.3647    1.8373 C   0  0  0  0  0  0  0  0  0  0  0  0
    6.0820   -0.4137    1.2510 H   0  0  0  0  0  0  0  0  0  0  0  0
    4.4675   -0.4456   -2.6892 H   0  0  0  0  0  0  0  0  0  0  0  0
    6.3428    0.0840   -1.1660 H   0  0  0  0  0  0  0  0  0  0  0  0
    5.8124   -1.5842   -0.9459 H   0  0  0  0  0  0  0  0  0  0  0  0
    4.5321    1.4324    1.8553 H   0  0  0  0  0  0  0  0  0  0  0  0
    5.6399    1.8790    0.5628 H   0  0  0  0  0  0  0  0  0  0  0  0
    4.5433   -2.1727    1.3340 H   0  0  0  0  0  0  0  0  0  0  0  0
    3.6557   -0.8465    2.0588 H   0  0  0  0  0  0  0  0  0  0  0  0
    2.9960    1.4557   -2.1033 H   0  0  0  0  0  0  0  0  0  0  0  0
    4.6904    1.8798   -1.8867 H   0  0  0  0  0  0  0  0  0  0  0  0
    2.1710   -1.1718   -3.0919 H   0  0  0  0  0  0  0  0  0  0  0  0
    0.2411   -2.4785   -2.3668 H   0  0  0  0  0  0  0  0  0  0  0  0
    1.9088    2.8187   -1.4487 H   0  0  0  0  0  0  0  0  0  0  0  0
   -0.7484   -3.7363   -0.7624 H   0  0  0  0  0  0  0  0  0  0  0  0
    0.2848    2.3155    1.8528 H   0  0  0  0  0  0  0  0  0  0  0  0
   -0.1726    3.5069   -2.2873 H   0  0  0  0  0  0  0  0  0  0  0  0
   -2.0268    2.7318    2.2489 H   0  0  0  0  0  0  0  0  0  0  0  0
   -2.5539    3.9069   -1.8867 H   0  0  0  0  0  0  0  0  0  0  0  0
   -2.3588   -0.5388   -0.4733 H   0  0  0  0  0  0  0  0  0  0  0  0
   -3.4677   -4.4797    0.8950 H   0  0  0  0  0  0  0  0  0  0  0  0
   -5.5754   -4.3147   -0.3688 H   0  0  0  0  0  0  0  0  0  0  0  0
   -6.0848   -2.2750   -1.6860 H   0  0  0  0  0  0  0  0  0  0  0  0
   -5.5451    3.6005    1.8131 H   0  0  0  0  0  0  0  0  0  0  0  0
   -4.3685    2.3161    2.1263 H   0  0  0  0  0  0  0  0  0  0  0  0
   -4.0011    4.0274    2.5652 H   0  0  0  0  0  0  0  0  0  0  0  0
  1  5  2  0  0  0  0
  1  6  2  0  0  0  0
  1 11  1  0  0  0  0
  1 25  1  0  0  0  0
  2 33  1  0  0  0  0
  3 20  2  0  0  0  0
  4 21  2  0  0  0  0
  7 36  2  0  0  0  0
  8 15  1  0  0  0  0
  8 17  1  0  0  0  0
  8 21  1  0  0  0  0
  9 16  1  0  0  0  0
  9 18  1  0  0  0  0
  9 20  1  0  0  0  0
 10 21  1  0  0  0  0
 10 24  1  0  0  0  0
 10 50  1  0  0  0  0
 11 22  1  0  0  0  0
 11 51  1  0  0  0  0
 12 14  1  0  0  0  0
 12 15  1  0  0  0  0
 12 16  1  0  0  0  0
 12 38  1  0  0  0  0
 13 14  1  0  0  0  0
 13 17  1  0  0  0  0
 13 18  1  0  0  0  0
 13 39  1  0  0  0  0
 14 40  1  0  0  0  0
 14 41  1  0  0  0  0
 15 42  1  0  0  0  0
 15 43  1  0  0  0  0
 16 44  1  0  0  0  0
 16 45  1  0  0  0  0
 17 46  1  0  0  0  0
 17 47  1  0  0  0  0
 18 19  2  0  0  0  0
 19 23  1  0  0  0  0
 19 48  1  0  0  0  0
 20 22  1  0  0  0  0
 22 23  2  0  0  0  0
 23 49  1  0  0  0  0
 24 26  2  0  0  0  0
 24 27  1  0  0  0  0
 25 30  1  0  0  0  0
 25 31  2  0  0  0  0
 26 28  1  0  0  0  0
 26 52  1  0  0  0  0
 27 29  2  0  0  0  0
 27 53  1  0  0  0  0
 28 32  2  0  0  0  0
 28 54  1  0  0  0  0
 29 32  1  0  0  0  0
 29 55  1  0  0  0  0
 30 33  2  0  0  0  0
 30 56  1  0  0  0  0
 31 34  1  0  0  0  0
 31 57  1  0  0  0  0
 32 36  1  0  0  0  0
 33 35  1  0  0  0  0
 34 35  2  0  0  0  0
 34 58  1  0  0  0  0
 35 59  1  0  0  0  0
 36 37  1  0  0  0  0
 37 60  1  0  0  0  0
 37 61  1  0  0  0  0
 37 62  1  0  0  0  0
M  END
> <PUBCHEM_COMPOUND_CID>
7113976

> <PUBCHEM_CONFORMER_RMSD>
1

> <PUBCHEM_CONFORMER_DIVERSEORDER>
1
32
128
96
229
129
177
130
218
176
225
51
185
47
138
213
84
202
156
162
152
60
169
199
215
231
226
136
153
149
227
22
203
161
183
198
143
210
62
219
8
86
196
16
132
174
97
110
163
14
158
139
192
113
92
179
111
135
88
228
58
209
223
150
124
2
87
178
39
201
99
103
189
134
80
17
186
137
122
151
221
118
217
173
38
220
191
121
48
216
188
167
23
200
164
6
76
68
31
66
89
142
140
116
40
34
147
59
194
29
93
120
90
197
95
75
78
155
166
55
144
26
172
230
67
168
190
212
15
133
44
114
184
125
19
65
5
73
71
180
224
171
127
24
175
43
106
98
85
145
53
182
91
222
146
70
131
42
154
105
107
148
170
13
165
108
72
208
102
74
77
187
123
49
33
141
82
81
193
18
195
112
21
181
157
46
64
94
11
214
25
211
36
100
50
101
126
56
232
205
20
10
45
204
12
159
4
119
57
83
61
27
52
207
41
109
69
104
233
7
206
35
115
79
30
117
63
3
160
28
9
54
37

> <PUBCHEM_MMFF94_PARTIAL_CHARGES>
47
1 1.45
10 -0.55
11 -0.75
13 0.14
15 0.3
16 0.3
17 0.3
18 -0.03
19 -0.15
2 -0.19
20 0.62
21 0.69
22 0.21
23 -0.15
24 0.12
25 -0.01
26 -0.15
27 -0.15
28 -0.15
29 -0.15
3 -0.57
30 -0.15
31 -0.15
32 0.09
33 0.19
34 -0.15
35 -0.15
36 0.42
37 0.06
4 -0.57
48 0.15
49 0.15
5 -0.65
50 0.37
51 0.42
52 0.15
53 0.15
54 0.15
55 0.15
56 0.15
57 0.15
58 0.15
59 0.15
6 -0.65
7 -0.57
8 -0.66
9 -0.47

> <PUBCHEM_EFFECTIVE_ROTOR_COUNT>
8

> <PUBCHEM_PHARMACOPHORE_FEATURES>
12
1 10 donor
1 11 donor
1 3 acceptor
1 4 acceptor
1 5 acceptor
1 6 acceptor
1 7 acceptor
6 24 26 27 28 29 32 rings
6 25 30 31 33 34 35 rings
6 8 12 13 14 15 17 rings
6 9 12 13 14 16 18 rings
6 9 18 19 20 22 23 rings

> <PUBCHEM_HEAVY_ATOM_COUNT>
37

> <PUBCHEM_ATOM_DEF_STEREO_COUNT>
2

> <PUBCHEM_ATOM_UDEF_STEREO_COUNT>
0

> <PUBCHEM_BOND_DEF_STEREO_COUNT>
0

> <PUBCHEM_BOND_UDEF_STEREO_COUNT>
0

> <PUBCHEM_ISOTOPIC_ATOM_COUNT>
0

> <PUBCHEM_COMPONENT_COUNT>
1

> <PUBCHEM_CACTVS_TAUTO_COUNT>
9

> <PUBCHEM_CONFORMER_ID>
006C8CF800000001

> <PUBCHEM_MMFF94_ENERGY>
96.1547

> <PUBCHEM_FEATURE_SELFOVERLAP>
62.487

> <PUBCHEM_SHAPE_FINGERPRINT>
10190206 1 17684680957788289628
10675989 125 17904483248748176041
10864689 126 17764035666105297133
12156800 1 18194936639794627256
12788726 201 18338803410929988446
13402501 40 18192987338474503807
140371 6 18048038767988312921
14681490 219 18268707389234519287
14725015 67 18339631356033747458
15001296 14 18340486772281321953
150020 26 17398955367506938969
15351339 4 18264751235034807433
15781502 589 18271238301777897287
15968369 153 17987503969751551357
15975801 100 17607821499843897652
16112460 7 17984709918207447233
161222 10 18193856846235353421
20764821 26 18335141951315780305
20775438 99 17913193279141367495
21860390 5 17836090348477080326
354706 35 16392099670524145837
4066623 53 18267286798636401959
463206 1 18340485547741317332
469060 322 17894628119679865604
508706 21 18411990156333761510
5309563 4 18125157393000591439
57527573 199 17618774104773361544
653340 110 18412537726094114320

> <PUBCHEM_SHAPE_MULTIPOLES>
708.75
11.1
6.72
1.84
0.48
3.29
0.07
-1.13
-1.64
-9.11
1.16
0.1
-0.36
-0.56

> <PUBCHEM_SHAPE_SELFOVERLAP>
1538.046

> <PUBCHEM_SHAPE_VOLUME>
389

> <PUBCHEM_COORDINATE_TYPE>
2
5
10

$$$$
