7155596
  -OEChem-12032416113D

 60 64  0     1  0  0  0  0  0999 V2000
   -7.9264    2.8318    0.6811 F   0  0  0  0  0  0  0  0  0  0  0  0
   -0.8331   -0.9442    2.0515 O   0  0  0  0  0  0  0  0  0  0  0  0
    3.4350   -0.3377   -2.0023 O   0  0  0  0  0  0  0  0  0  0  0  0
   -4.1575   -1.7665   -1.3131 O   0  0  0  0  0  0  0  0  0  0  0  0
    3.2705    5.7990    0.1231 O   0  0  0  0  0  0  0  0  0  0  0  0
    3.4948   -1.9392   -0.3326 N   0  0  0  0  0  0  0  0  0  0  0  0
    0.5046   -2.3620    0.7627 N   0  0  0  0  0  0  0  0  0  0  0  0
    4.0879    0.2973    0.1314 N   0  0  0  0  0  0  0  0  0  0  0  0
   -2.6673   -0.5953    0.0354 N   0  0  0  0  0  0  0  0  0  0  0  0
    2.7175   -3.3269    1.6094 C   0  0  1  0  0  0  0  0  0  0  0  0
    1.9435   -3.8644   -0.6579 C   0  0  2  0  0  0  0  0  0  0  0  0
    2.4288   -4.4758    0.6534 C   0  0  0  0  0  0  0  0  0  0  0  0
    3.7958   -2.3858    1.0372 C   0  0  0  0  0  0  0  0  0  0  0  0
    1.4067   -2.5851    1.8995 C   0  0  0  0  0  0  0  0  0  0  0  0
    3.0637   -2.9963   -1.2560 C   0  0  0  0  0  0  0  0  0  0  0  0
    0.6954   -3.0273   -0.4520 C   0  0  0  0  0  0  0  0  0  0  0  0
   -0.2064   -2.9013   -1.4402 C   0  0  0  0  0  0  0  0  0  0  0  0
   -0.6132   -1.5346    0.9929 C   0  0  0  0  0  0  0  0  0  0  0  0
    3.6509   -0.6225   -0.8217 C   0  0  0  0  0  0  0  0  0  0  0  0
   -1.5807   -1.4001   -0.1419 C   0  0  0  0  0  0  0  0  0  0  0  0
   -1.3654   -2.0692   -1.2794 C   0  0  0  0  0  0  0  0  0  0  0  0
    3.8792    1.6986    0.1295 C   0  0  0  0  0  0  0  0  0  0  0  0
   -3.8977   -0.8279   -0.5642 C   0  0  0  0  0  0  0  0  0  0  0  0
    4.4674    2.4869    1.1147 C   0  0  0  0  0  0  0  0  0  0  0  0
    3.0874    2.2791   -0.8575 C   0  0  0  0  0  0  0  0  0  0  0  0
   -4.9700    0.1466   -0.2336 C   0  0  0  0  0  0  0  0  0  0  0  0
    4.2621    3.8667    1.1128 C   0  0  0  0  0  0  0  0  0  0  0  0
    2.8821    3.6588   -0.8593 C   0  0  0  0  0  0  0  0  0  0  0  0
    3.4695    4.4526    0.1258 C   0  0  0  0  0  0  0  0  0  0  0  0
   -6.2846   -0.2668   -0.2881 C   0  0  0  0  0  0  0  0  0  0  0  0
   -4.6159    1.4323    0.1182 C   0  0  0  0  0  0  0  0  0  0  0  0
   -7.2912    0.6473    0.0235 C   0  0  0  0  0  0  0  0  0  0  0  0
   -5.6225    2.3464    0.4300 C   0  0  0  0  0  0  0  0  0  0  0  0
   -6.9601    1.9539    0.3825 C   0  0  0  0  0  0  0  0  0  0  0  0
    2.4492    6.3319   -0.9149 C   0  0  0  0  0  0  0  0  0  0  0  0
    3.0993   -3.7264    2.5573 H   0  0  0  0  0  0  0  0  0  0  0  0
    1.7282   -4.6827   -1.3574 H   0  0  0  0  0  0  0  0  0  0  0  0
    3.3332   -5.0740    0.4884 H   0  0  0  0  0  0  0  0  0  0  0  0
    1.6706   -5.1484    1.0737 H   0  0  0  0  0  0  0  0  0  0  0  0
    3.9235   -1.5510    1.7278 H   0  0  0  0  0  0  0  0  0  0  0  0
    4.7561   -2.9131    0.9847 H   0  0  0  0  0  0  0  0  0  0  0  0
    0.8260   -3.1685    2.6272 H   0  0  0  0  0  0  0  0  0  0  0  0
    1.6092   -1.6201    2.3809 H   0  0  0  0  0  0  0  0  0  0  0  0
    2.7451   -2.5702   -2.2136 H   0  0  0  0  0  0  0  0  0  0  0  0
    3.9473   -3.6129   -1.4631 H   0  0  0  0  0  0  0  0  0  0  0  0
   -0.0739   -3.3971   -2.3962 H   0  0  0  0  0  0  0  0  0  0  0  0
   -1.9958   -1.9855   -2.1569 H   0  0  0  0  0  0  0  0  0  0  0  0
    4.6495   -0.0421    0.9046 H   0  0  0  0  0  0  0  0  0  0  0  0
   -2.6201    0.0449    0.8236 H   0  0  0  0  0  0  0  0  0  0  0  0
    5.0870    2.0425    1.8891 H   0  0  0  0  0  0  0  0  0  0  0  0
    2.5771    1.7123   -1.6263 H   0  0  0  0  0  0  0  0  0  0  0  0
    4.7225    4.4800    1.8826 H   0  0  0  0  0  0  0  0  0  0  0  0
    2.2495    4.0482   -1.6499 H   0  0  0  0  0  0  0  0  0  0  0  0
   -6.5592   -1.2816   -0.5602 H   0  0  0  0  0  0  0  0  0  0  0  0
   -3.5886    1.7818    0.1376 H   0  0  0  0  0  0  0  0  0  0  0  0
   -8.3327    0.3419   -0.0120 H   0  0  0  0  0  0  0  0  0  0  0  0
   -5.3659    3.3657    0.7032 H   0  0  0  0  0  0  0  0  0  0  0  0
    2.4001    7.4153   -0.7640 H   0  0  0  0  0  0  0  0  0  0  0  0
    2.8915    6.1665   -1.9031 H   0  0  0  0  0  0  0  0  0  0  0  0
    1.4233    5.9536   -0.8505 H   0  0  0  0  0  0  0  0  0  0  0  0
  1 34  1  0  0  0  0
  2 18  2  0  0  0  0
  3 19  2  0  0  0  0
  4 23  2  0  0  0  0
  5 29  1  0  0  0  0
  5 35  1  0  0  0  0
  6 13  1  0  0  0  0
  6 15  1  0  0  0  0
  6 19  1  0  0  0  0
  7 14  1  0  0  0  0
  7 16  1  0  0  0  0
  7 18  1  0  0  0  0
  8 19  1  0  0  0  0
  8 22  1  0  0  0  0
  8 48  1  0  0  0  0
  9 20  1  0  0  0  0
  9 23  1  0  0  0  0
  9 49  1  0  0  0  0
 10 12  1  0  0  0  0
 10 13  1  0  0  0  0
 10 14  1  0  0  0  0
 10 36  1  0  0  0  0
 11 12  1  0  0  0  0
 11 15  1  0  0  0  0
 11 16  1  0  0  0  0
 11 37  1  0  0  0  0
 12 38  1  0  0  0  0
 12 39  1  0  0  0  0
 13 40  1  0  0  0  0
 13 41  1  0  0  0  0
 14 42  1  0  0  0  0
 14 43  1  0  0  0  0
 15 44  1  0  0  0  0
 15 45  1  0  0  0  0
 16 17  2  0  0  0  0
 17 21  1  0  0  0  0
 17 46  1  0  0  0  0
 18 20  1  0  0  0  0
 20 21  2  0  0  0  0
 21 47  1  0  0  0  0
 22 24  2  0  0  0  0
 22 25  1  0  0  0  0
 23 26  1  0  0  0  0
 24 27  1  0  0  0  0
 24 50  1  0  0  0  0
 25 28  2  0  0  0  0
 25 51  1  0  0  0  0
 26 30  2  0  0  0  0
 26 31  1  0  0  0  0
 27 29  2  0  0  0  0
 27 52  1  0  0  0  0
 28 29  1  0  0  0  0
 28 53  1  0  0  0  0
 30 32  1  0  0  0  0
 30 54  1  0  0  0  0
 31 33  2  0  0  0  0
 31 55  1  0  0  0  0
 32 34  2  0  0  0  0
 32 56  1  0  0  0  0
 33 34  1  0  0  0  0
 33 57  1  0  0  0  0
 35 58  1  0  0  0  0
 35 59  1  0  0  0  0
 35 60  1  0  0  0  0
M  END
> <PUBCHEM_COMPOUND_CID>
7155596

> <PUBCHEM_CONFORMER_RMSD>
1

> <PUBCHEM_CONFORMER_DIVERSEORDER>
2
16
12
11
23
10
14
19
8
21
9
15
18
17
5
7
6
22
20
3
1
4
13

> <PUBCHEM_MMFF94_PARTIAL_CHARGES>
45
1 -0.19
11 0.14
13 0.3
14 0.3
15 0.3
16 -0.03
17 -0.15
18 0.62
19 0.69
2 -0.57
20 0.12
21 -0.15
22 0.12
23 0.54
24 -0.15
25 -0.15
26 0.09
27 -0.15
28 -0.15
29 0.08
3 -0.57
30 -0.15
31 -0.15
32 -0.15
33 -0.15
34 0.19
35 0.28
4 -0.57
46 0.15
47 0.15
48 0.37
49 0.37
5 -0.36
50 0.15
51 0.15
52 0.15
53 0.15
54 0.15
55 0.15
56 0.15
57 0.15
6 -0.66
7 -0.47
8 -0.55
9 -0.54

> <PUBCHEM_EFFECTIVE_ROTOR_COUNT>
8

> <PUBCHEM_PHARMACOPHORE_FEATURES>
11
1 2 acceptor
1 3 acceptor
1 4 acceptor
1 5 acceptor
1 8 donor
1 9 donor
6 22 24 25 27 28 29 rings
6 26 30 31 32 33 34 rings
6 6 10 11 12 13 15 rings
6 7 10 11 12 14 16 rings
6 7 16 17 18 20 21 rings

> <PUBCHEM_HEAVY_ATOM_COUNT>
35

> <PUBCHEM_ATOM_DEF_STEREO_COUNT>
2

> <PUBCHEM_ATOM_UDEF_STEREO_COUNT>
0

> <PUBCHEM_BOND_DEF_STEREO_COUNT>
0

> <PUBCHEM_BOND_UDEF_STEREO_COUNT>
0

> <PUBCHEM_ISOTOPIC_ATOM_COUNT>
0

> <PUBCHEM_COMPONENT_COUNT>
1

> <PUBCHEM_CACTVS_TAUTO_COUNT>
4

> <PUBCHEM_CONFORMER_ID>
006D2F8C00000002

> <PUBCHEM_MMFF94_ENERGY>
116.1935

> <PUBCHEM_FEATURE_SELFOVERLAP>
57.377

> <PUBCHEM_SHAPE_FINGERPRINT>
10581848 197 17912042224096843696
10673678 19 18272373079307760795
10675989 125 18412547643015819544
10917259 69 17977667838722874140
10937287 8 18194399133296226694
11331351 85 17686888428743527298
11479125 193 18196097857349796889
11578080 2 17459778997546196163
11621639 336 18124319311811690392
11761917 142 17044852188879804248
11966995 178 18271539589738988981
12107183 9 17974826661962921056
12925494 130 18408605890040819803
13761468 95 17114700821333956508
13944108 23 18335994069075860452
14790565 3 18267302225868765633
14849402 71 18335133207421670738
15001296 14 18411981352083782633
15320295 44 18130782421363554383
15326921 28 17261866067708648232
15400415 2 18122343746777654325
15475509 35 10737584825108328615
19053607 189 18197209463389810848
20715895 44 18342736347201337706
21344244 78 17755285787438097042
21591340 35 18338521940733970300
22122407 14 18338527339718390859
23522609 53 17632030689162504211
23569914 2 17536267589654230789
24204213 163 18200860787972795154
24204213 92 17773335461162081054
3411729 13 18410011035646520171
376196 1 18197500838692867414
4487111 67 16897367014380200124
4760202 170 18119797020940543501
5047190 92 18121784087063872637
508180 173 18268732575001942494
5109719 28 18337401555839183065
550186 72 17618785103841806127
57091435 61 18410569634481475241
57527306 92 18200027336246760250
5776283 40 18265070162042249284
5951187 136 18272378580997123022
6036956 94 17038098988139529725
6086070 43 18263097556002984626
6176135 31 18338790234060969505
6609424 69 17910667662393509902
9849439 229 18119531191684991004

> <PUBCHEM_SHAPE_MULTIPOLES>
669.61
15.39
8.23
1.48
37.11
10.23
-0.14
15.18
-1.45
-13.54
0.22
-1.05
-0.87
-1.38

> <PUBCHEM_SHAPE_SELFOVERLAP>
1470.647

> <PUBCHEM_SHAPE_VOLUME>
358.8

> <PUBCHEM_COORDINATE_TYPE>
2
5
10

$$$$
