11884128
  -OEChem-12032416203D

 45 47  0     1  0  0  0  0  0999 V2000
    2.0498   -0.4630   -1.2817 O   0  0  0  0  0  0  0  0  0  0  0  0
    1.4509   -2.7017    0.7266 O   0  0  0  0  0  0  0  0  0  0  0  0
    4.3393   -0.6305    0.2791 O   0  0  0  0  0  0  0  0  0  0  0  0
   -2.7480   -1.7445    0.1049 O   0  0  0  0  0  0  0  0  0  0  0  0
    3.8933    1.5488    0.8509 O   0  0  0  0  0  0  0  0  0  0  0  0
   -1.0357   -0.4600   -0.7692 N   0  0  0  0  0  0  0  0  0  0  0  0
   -3.0945    0.5094   -0.4526 N   0  0  0  0  0  0  0  0  0  0  0  0
    5.8570    0.9677   -0.2394 N   0  0  0  0  0  0  0  0  0  0  0  0
    0.8107   -1.4296    0.4940 C   0  0  1  0  0  0  0  0  0  0  0  0
    1.9074   -0.4425    0.1484 C   0  0  1  0  0  0  0  0  0  0  0  0
   -0.0286   -1.4928   -0.7607 C   0  0  2  0  0  0  0  0  0  0  0  0
    3.1112   -1.0371    0.8391 C   0  0  1  0  0  0  0  0  0  0  0  0
    1.0045   -1.2663   -1.8510 C   0  0  0  0  0  0  0  0  0  0  0  0
    2.8736   -2.5212    0.6731 C   0  0  0  0  0  0  0  0  0  0  0  0
   -2.3483   -0.6657   -0.3266 C   0  0  0  0  0  0  0  0  0  0  0  0
    4.6330    0.7127    0.3425 C   0  0  0  0  0  0  0  0  0  0  0  0
   -4.4529    0.7152   -0.1169 C   0  0  0  0  0  0  0  0  0  0  0  0
    6.4434    2.2851   -0.3290 C   0  0  0  0  0  0  0  0  0  0  0  0
   -5.0195    1.9635   -0.3177 C   0  0  0  0  0  0  0  0  0  0  0  0
   -5.1897   -0.3356    0.4051 C   0  0  0  0  0  0  0  0  0  0  0  0
    5.5466    3.3353    0.2933 C   0  0  0  0  0  0  0  0  0  0  0  0
   -6.3594    2.1666    0.0129 C   0  0  0  0  0  0  0  0  0  0  0  0
   -6.5296   -0.1324    0.7355 C   0  0  0  0  0  0  0  0  0  0  0  0
   -7.1143    1.1187    0.5394 C   0  0  0  0  0  0  0  0  0  0  0  0
    0.2588   -1.1651    1.4017 H   0  0  0  0  0  0  0  0  0  0  0  0
    1.6633    0.5810    0.4449 H   0  0  0  0  0  0  0  0  0  0  0  0
   -0.5191   -2.4631   -0.8938 H   0  0  0  0  0  0  0  0  0  0  0  0
    3.0880   -0.7970    1.9107 H   0  0  0  0  0  0  0  0  0  0  0  0
    0.6073   -0.7677   -2.7404 H   0  0  0  0  0  0  0  0  0  0  0  0
    1.4592   -2.2135   -2.1616 H   0  0  0  0  0  0  0  0  0  0  0  0
    3.3480   -3.1091    1.4646 H   0  0  0  0  0  0  0  0  0  0  0  0
    3.2426   -2.8973   -0.2877 H   0  0  0  0  0  0  0  0  0  0  0  0
   -0.7638    0.4779   -1.0486 H   0  0  0  0  0  0  0  0  0  0  0  0
   -2.6091    1.3185   -0.8319 H   0  0  0  0  0  0  0  0  0  0  0  0
    6.3754    0.1855   -0.6270 H   0  0  0  0  0  0  0  0  0  0  0  0
    6.6174    2.4980   -1.3882 H   0  0  0  0  0  0  0  0  0  0  0  0
    7.4131    2.2502    0.1767 H   0  0  0  0  0  0  0  0  0  0  0  0
   -4.4405    2.7865   -0.7273 H   0  0  0  0  0  0  0  0  0  0  0  0
   -4.8107   -1.3304    0.5862 H   0  0  0  0  0  0  0  0  0  0  0  0
    6.0427    4.3092    0.1951 H   0  0  0  0  0  0  0  0  0  0  0  0
    5.4033    3.1902    1.3690 H   0  0  0  0  0  0  0  0  0  0  0  0
    4.5905    3.4431   -0.2294 H   0  0  0  0  0  0  0  0  0  0  0  0
   -6.8148    3.1407   -0.1398 H   0  0  0  0  0  0  0  0  0  0  0  0
   -7.1189   -0.9476    1.1457 H   0  0  0  0  0  0  0  0  0  0  0  0
   -8.1576    1.2769    0.7967 H   0  0  0  0  0  0  0  0  0  0  0  0
  1 10  1  0  0  0  0
  1 13  1  0  0  0  0
  2  9  1  0  0  0  0
  2 14  1  0  0  0  0
  3 12  1  0  0  0  0
  3 16  1  0  0  0  0
  4 15  2  0  0  0  0
  5 16  2  0  0  0  0
  6 11  1  0  0  0  0
  6 15  1  0  0  0  0
  6 33  1  0  0  0  0
  7 15  1  0  0  0  0
  7 17  1  0  0  0  0
  7 34  1  0  0  0  0
  8 16  1  0  0  0  0
  8 18  1  0  0  0  0
  8 35  1  0  0  0  0
  9 10  1  0  0  0  0
  9 11  1  0  0  0  0
  9 25  1  0  0  0  0
 10 12  1  0  0  0  0
 10 26  1  0  0  0  0
 11 13  1  0  0  0  0
 11 27  1  0  0  0  0
 12 14  1  0  0  0  0
 12 28  1  0  0  0  0
 13 29  1  0  0  0  0
 13 30  1  0  0  0  0
 14 31  1  0  0  0  0
 14 32  1  0  0  0  0
 17 19  2  0  0  0  0
 17 20  1  0  0  0  0
 18 21  1  0  0  0  0
 18 36  1  0  0  0  0
 18 37  1  0  0  0  0
 19 22  1  0  0  0  0
 19 38  1  0  0  0  0
 20 23  2  0  0  0  0
 20 39  1  0  0  0  0
 21 40  1  0  0  0  0
 21 41  1  0  0  0  0
 21 42  1  0  0  0  0
 22 24  2  0  0  0  0
 22 43  1  0  0  0  0
 23 24  1  0  0  0  0
 23 44  1  0  0  0  0
 24 45  1  0  0  0  0
M  END
> <PUBCHEM_COMPOUND_CID>
11884128

> <PUBCHEM_CONFORMER_RMSD>
1

> <PUBCHEM_CONFORMER_DIVERSEORDER>
1
20
36
13
21
3
32
19
29
26
7
22
8
27
35
2
17
33
9
30
14
11
25
6
28
12
23
5
10
31
34
24
4
16
15
18

> <PUBCHEM_MMFF94_PARTIAL_CHARGES>
31
1 -0.56
10 0.28
11 0.3
12 0.28
13 0.28
14 0.28
15 0.69
16 0.78
17 0.12
18 0.3
19 -0.15
2 -0.56
20 -0.15
22 -0.15
23 -0.15
24 -0.15
3 -0.43
33 0.37
34 0.37
35 0.37
38 0.15
39 0.15
4 -0.57
43 0.15
44 0.15
45 0.15
5 -0.57
6 -0.73
7 -0.55
8 -0.73
9 0.28

> <PUBCHEM_EFFECTIVE_ROTOR_COUNT>
9.2

> <PUBCHEM_PHARMACOPHORE_FEATURES>
10
1 1 acceptor
1 2 acceptor
1 4 acceptor
1 5 acceptor
1 6 donor
1 7 donor
1 8 donor
5 1 9 10 11 13 rings
5 2 9 10 12 14 rings
6 17 19 20 22 23 24 rings

> <PUBCHEM_HEAVY_ATOM_COUNT>
24

> <PUBCHEM_ATOM_DEF_STEREO_COUNT>
4

> <PUBCHEM_ATOM_UDEF_STEREO_COUNT>
0

> <PUBCHEM_BOND_DEF_STEREO_COUNT>
0

> <PUBCHEM_BOND_UDEF_STEREO_COUNT>
0

> <PUBCHEM_ISOTOPIC_ATOM_COUNT>
0

> <PUBCHEM_COMPONENT_COUNT>
1

> <PUBCHEM_CACTVS_TAUTO_COUNT>
6

> <PUBCHEM_CONFORMER_ID>
00B5566000000001

> <PUBCHEM_MMFF94_ENERGY>
68.5105

> <PUBCHEM_FEATURE_SELFOVERLAP>
51.515

> <PUBCHEM_SHAPE_FINGERPRINT>
10 15 18113337530916345569
10411042 1 17833266425235537394
10670039 82 16486983855661495393
10693767 8 10880002332903152900
10753850 27 9727642691538117724
11724838 91 18409730690620735551
11991303 11 16988838419288762271
12596602 18 18187082819900689529
12788726 201 17560521694806687593
13685833 64 10809343343029355301
13885169 86 18337113496240419764
13955234 65 18115298969914930274
14251732 16 18335140908313642507
14251751 18 8790887384559483449
14347332 77 9583525317271257995
14565420 104 18113896078981800682
14863182 85 14273736192732933098
14933364 13 18410858745983923569
14951699 99 18334018293608654725
15183329 4 12247684855087805565
15188451 53 11602813610111314532
15475509 35 15864901020901842754
15519825 34 16516257374157819265
15961568 22 18341616992820236909
16760501 71 18335702766950147349
17857418 61 11097857384849652441
17980427 23 17749673011904751335
18335252 114 17989203733730310908
20511986 3 17822002078916158643
20567600 234 17749111114349848125
21033648 29 18267578190866926184
21315764 119 12175625075154435569
21344244 78 16370732521601052669
21585482 111 18261672571463653181
21637258 2 8286206032746020814
21641784 216 16486982752086944345
21756936 100 18268984470496797806
22061861 79 10087631599065477201
22224240 67 17676204701472112347
23559900 14 18057615261216554487
270888 7 18340203102739924488
2838139 119 18272362114113933452
2916195 48 18335701624873416305
3411729 13 18409729552196166326
3472631 163 18343584066234333340
34797466 226 18131357371692535255
4073 2 18113904874980358115
4340502 62 17894349964628387162
5104073 3 17532362072316110201
5718773 13 9727372216331841812
59682541 35 18114754815207108705
59682541 52 14261359020108618492
633830 44 18412254056763772478
636775 72 17836078250177498712
6438161 24 8646767773015660501
7808743 9 18342171210861869991
9689198 14 18340494456067498172
9841814 1 14562827524769592750

> <PUBCHEM_SHAPE_MULTIPOLES>
449.62
18.71
2.96
1.03
13.17
1.11
0.29
16.98
-3.16
-3.85
-0.34
-0.31
-0.34
-0.08

> <PUBCHEM_SHAPE_SELFOVERLAP>
953.579

> <PUBCHEM_SHAPE_VOLUME>
250.4

> <PUBCHEM_COORDINATE_TYPE>
2
5
10

$$$$
