45361435
  -OEChem-12032416353D

 72 74  0     1  0  0  0  0  0999 V2000
    2.0467   -1.8734   -0.1498 O   0  0  0  0  0  0  0  0  0  0  0  0
    6.4527    0.5648    1.3567 O   0  0  0  0  0  0  0  0  0  0  0  0
   -3.8099    1.0821   -2.1751 O   0  0  0  0  0  0  0  0  0  0  0  0
   -2.8974    0.3398   -0.1772 N   0  0  0  0  0  0  0  0  0  0  0  0
    6.6184   -0.7520   -0.5387 N   0  0  0  0  0  0  0  0  0  0  0  0
  -10.1500   -1.4769    1.0068 N   0  0  0  0  0  0  0  0  0  0  0  0
    1.1053    1.7659    0.5173 C   0  0  1  0  0  0  0  0  0  0  0  0
    0.9557    0.3033   -0.0188 C   0  0  2  0  0  0  0  0  0  0  0  0
   -0.5066   -0.2264    0.2025 C   0  0  1  0  0  0  0  0  0  0  0  0
    2.0884   -0.6148    0.5242 C   0  0  2  0  0  0  0  0  0  0  0  0
    2.5196    2.2960    0.1827 C   0  0  0  0  0  0  0  0  0  0  0  0
    3.4982   -0.0284    0.2786 C   0  0  1  0  0  0  0  0  0  0  0  0
    0.0804    2.6736   -0.2014 C   0  0  0  0  0  0  0  0  0  0  0  0
   -1.5334    0.7345   -0.4603 C   0  0  2  0  0  0  0  0  0  0  0  0
    3.6311    1.4207    0.7466 C   0  0  0  0  0  0  0  0  0  0  0  0
   -1.3556    2.1945   -0.0443 C   0  0  0  0  0  0  0  0  0  0  0  0
    0.8869    1.8626    2.0485 C   0  0  0  0  0  0  0  0  0  0  0  0
    4.5913   -0.8809    0.9346 C   0  0  2  0  0  0  0  0  0  0  0  0
   -0.7322   -1.6521   -0.3287 C   0  0  0  0  0  0  0  0  0  0  0  0
    4.3572   -0.9356    2.4452 C   0  0  0  0  0  0  0  0  0  0  0  0
    5.9683   -0.2952    0.6126 C   0  0  0  0  0  0  0  0  0  0  0  0
   -3.9307    0.5520   -1.0737 C   0  0  0  0  0  0  0  0  0  0  0  0
   -5.2767    0.1137   -0.6229 C   0  0  0  0  0  0  0  0  0  0  0  0
    6.1332   -1.7872   -1.4493 C   0  0  0  0  0  0  0  0  0  0  0  0
    7.9227   -0.1980   -0.8861 C   0  0  0  0  0  0  0  0  0  0  0  0
    6.6115   -3.1622   -1.0311 C   0  0  0  0  0  0  0  0  0  0  0  0
    7.7884    1.0216   -1.7742 C   0  0  0  0  0  0  0  0  0  0  0  0
   -6.4184    0.7383   -1.1250 C   0  0  0  0  0  0  0  0  0  0  0  0
   -5.3985   -0.9236    0.3017 C   0  0  0  0  0  0  0  0  0  0  0  0
   -7.6818    0.3255   -0.7026 C   0  0  0  0  0  0  0  0  0  0  0  0
   -6.6621   -1.3363    0.7242 C   0  0  0  0  0  0  0  0  0  0  0  0
   -7.8039   -0.7119    0.2219 C   0  0  0  0  0  0  0  0  0  0  0  0
   -9.0985   -1.1342    0.6550 C   0  0  0  0  0  0  0  0  0  0  0  0
    1.0914    0.3377   -1.1118 H   0  0  0  0  0  0  0  0  0  0  0  0
   -0.7098   -0.2666    1.2802 H   0  0  0  0  0  0  0  0  0  0  0  0
    1.8876   -0.8050    1.5799 H   0  0  0  0  0  0  0  0  0  0  0  0
    2.6422    2.3567   -0.9073 H   0  0  0  0  0  0  0  0  0  0  0  0
    2.6414    3.3193    0.5606 H   0  0  0  0  0  0  0  0  0  0  0  0
    3.6764   -0.0331   -0.8063 H   0  0  0  0  0  0  0  0  0  0  0  0
    0.3150    2.7179   -1.2735 H   0  0  0  0  0  0  0  0  0  0  0  0
    0.1569    3.7029    0.1716 H   0  0  0  0  0  0  0  0  0  0  0  0
   -1.3909    0.6797   -1.5485 H   0  0  0  0  0  0  0  0  0  0  0  0
    3.6286    1.5267    1.8326 H   0  0  0  0  0  0  0  0  0  0  0  0
    4.5735    1.8557    0.3955 H   0  0  0  0  0  0  0  0  0  0  0  0
   -2.0098    2.8356   -0.6494 H   0  0  0  0  0  0  0  0  0  0  0  0
   -1.6888    2.3360    0.9912 H   0  0  0  0  0  0  0  0  0  0  0  0
   -0.1231    1.5757    2.3523 H   0  0  0  0  0  0  0  0  0  0  0  0
    1.0438    2.8907    2.3956 H   0  0  0  0  0  0  0  0  0  0  0  0
    1.5726    1.2224    2.6104 H   0  0  0  0  0  0  0  0  0  0  0  0
    4.5393   -1.9133    0.5797 H   0  0  0  0  0  0  0  0  0  0  0  0
   -0.3942   -1.7481   -1.3656 H   0  0  0  0  0  0  0  0  0  0  0  0
   -1.7885   -1.9380   -0.2968 H   0  0  0  0  0  0  0  0  0  0  0  0
   -0.2123   -2.3902    0.2884 H   0  0  0  0  0  0  0  0  0  0  0  0
   -3.0911    0.0016    0.7596 H   0  0  0  0  0  0  0  0  0  0  0  0
    2.1767   -1.7118   -1.0998 H   0  0  0  0  0  0  0  0  0  0  0  0
    3.4444   -1.4709    2.7167 H   0  0  0  0  0  0  0  0  0  0  0  0
    5.1769   -1.5022    2.9067 H   0  0  0  0  0  0  0  0  0  0  0  0
    4.3629    0.0341    2.9469 H   0  0  0  0  0  0  0  0  0  0  0  0
    6.4745   -1.5595   -2.4656 H   0  0  0  0  0  0  0  0  0  0  0  0
    5.0412   -1.7761   -1.4832 H   0  0  0  0  0  0  0  0  0  0  0  0
    8.5317   -0.9658   -1.3757 H   0  0  0  0  0  0  0  0  0  0  0  0
    8.4484    0.0878    0.0320 H   0  0  0  0  0  0  0  0  0  0  0  0
    6.2201   -3.9240   -1.7126 H   0  0  0  0  0  0  0  0  0  0  0  0
    7.7043   -3.2250   -1.0466 H   0  0  0  0  0  0  0  0  0  0  0  0
    6.2824   -3.4109   -0.0172 H   0  0  0  0  0  0  0  0  0  0  0  0
    8.7752    1.4300   -2.0129 H   0  0  0  0  0  0  0  0  0  0  0  0
    7.2044    1.8066   -1.2822 H   0  0  0  0  0  0  0  0  0  0  0  0
    7.2855    0.7748   -2.7148 H   0  0  0  0  0  0  0  0  0  0  0  0
   -6.3439    1.5511   -1.8426 H   0  0  0  0  0  0  0  0  0  0  0  0
   -4.5373   -1.4570    0.6934 H   0  0  0  0  0  0  0  0  0  0  0  0
   -8.5625    0.8228   -1.1022 H   0  0  0  0  0  0  0  0  0  0  0  0
   -6.7418   -2.1507    1.4404 H   0  0  0  0  0  0  0  0  0  0  0  0
  1 10  1  0  0  0  0
  1 55  1  0  0  0  0
  2 21  2  0  0  0  0
  3 22  2  0  0  0  0
  4 14  1  0  0  0  0
  4 22  1  0  0  0  0
  4 54  1  0  0  0  0
  5 21  1  0  0  0  0
  5 24  1  0  0  0  0
  5 25  1  0  0  0  0
  6 33  3  0  0  0  0
  7  8  1  0  0  0  0
  7 11  1  0  0  0  0
  7 13  1  0  0  0  0
  7 17  1  0  0  0  0
  8  9  1  0  0  0  0
  8 10  1  0  0  0  0
  8 34  1  0  0  0  0
  9 14  1  0  0  0  0
  9 19  1  0  0  0  0
  9 35  1  0  0  0  0
 10 12  1  0  0  0  0
 10 36  1  0  0  0  0
 11 15  1  0  0  0  0
 11 37  1  0  0  0  0
 11 38  1  0  0  0  0
 12 15  1  0  0  0  0
 12 18  1  0  0  0  0
 12 39  1  0  0  0  0
 13 16  1  0  0  0  0
 13 40  1  0  0  0  0
 13 41  1  0  0  0  0
 14 16  1  0  0  0  0
 14 42  1  0  0  0  0
 15 43  1  0  0  0  0
 15 44  1  0  0  0  0
 16 45  1  0  0  0  0
 16 46  1  0  0  0  0
 17 47  1  0  0  0  0
 17 48  1  0  0  0  0
 17 49  1  0  0  0  0
 18 20  1  0  0  0  0
 18 21  1  0  0  0  0
 18 50  1  0  0  0  0
 19 51  1  0  0  0  0
 19 52  1  0  0  0  0
 19 53  1  0  0  0  0
 20 56  1  0  0  0  0
 20 57  1  0  0  0  0
 20 58  1  0  0  0  0
 22 23  1  0  0  0  0
 23 28  2  0  0  0  0
 23 29  1  0  0  0  0
 24 26  1  0  0  0  0
 24 59  1  0  0  0  0
 24 60  1  0  0  0  0
 25 27  1  0  0  0  0
 25 61  1  0  0  0  0
 25 62  1  0  0  0  0
 26 63  1  0  0  0  0
 26 64  1  0  0  0  0
 26 65  1  0  0  0  0
 27 66  1  0  0  0  0
 27 67  1  0  0  0  0
 27 68  1  0  0  0  0
 28 30  1  0  0  0  0
 28 69  1  0  0  0  0
 29 31  2  0  0  0  0
 29 70  1  0  0  0  0
 30 32  2  0  0  0  0
 30 71  1  0  0  0  0
 31 32  1  0  0  0  0
 31 72  1  0  0  0  0
 32 33  1  0  0  0  0
M  END
> <PUBCHEM_COMPOUND_CID>
45361435

> <PUBCHEM_CONFORMER_RMSD>
1

> <PUBCHEM_CONFORMER_DIVERSEORDER>
1
16
29
34
41
24
53
20
42
27
50
45
22
2
44
47
38
52
46
35
8
37
28
33
51
13
48
32
19
26
5
23
43
21
10
36
54
39
31
3
49
40
25
6
9
17
30
18
4
11
7
14
12
15

> <PUBCHEM_MMFF94_PARTIAL_CHARGES>
26
1 -0.68
10 0.28
14 0.3
18 0.06
2 -0.57
21 0.57
22 0.54
23 0.09
24 0.3
25 0.3
28 -0.15
29 -0.15
3 -0.57
30 -0.15
31 -0.15
32 0.07
33 0.48
4 -0.73
5 -0.66
54 0.37
55 0.4
6 -0.56
69 0.15
70 0.15
71 0.15
72 0.15

> <PUBCHEM_EFFECTIVE_ROTOR_COUNT>
9.6

> <PUBCHEM_PHARMACOPHORE_FEATURES>
10
1 1 acceptor
1 1 donor
1 2 acceptor
1 20 hydrophobe
1 3 acceptor
1 4 donor
1 6 acceptor
6 23 28 29 30 31 32 rings
6 7 8 10 11 12 15 rings
6 7 8 9 13 14 16 rings

> <PUBCHEM_HEAVY_ATOM_COUNT>
33

> <PUBCHEM_ATOM_DEF_STEREO_COUNT>
6

> <PUBCHEM_ATOM_UDEF_STEREO_COUNT>
1

> <PUBCHEM_BOND_DEF_STEREO_COUNT>
0

> <PUBCHEM_BOND_UDEF_STEREO_COUNT>
0

> <PUBCHEM_ISOTOPIC_ATOM_COUNT>
0

> <PUBCHEM_COMPONENT_COUNT>
1

> <PUBCHEM_CACTVS_TAUTO_COUNT>
2

> <PUBCHEM_CONFORMER_ID>
02B4291B00000001

> <PUBCHEM_MMFF94_ENERGY>
92.4784

> <PUBCHEM_FEATURE_SELFOVERLAP>
50.761

> <PUBCHEM_SHAPE_FINGERPRINT>
10076449 9 18407763646442630953
10299344 5 17749106686839712049
10533779 1 12469226609080564958
11331351 85 17775562035546879777
117089 54 18053946143665230934
12522641 24 16343979217917708354
13165053 68 16662352820586465547
13617811 41 18410296904987029548
13673619 4 18187362143331399765
13782708 43 17968082115297228923
14347424 109 13542455480634875690
15183329 4 18187081728404359737
15301273 46 18131349683263251209
15352257 5 18187078473647227131
15840311 113 17095529513643411782
16067689 302 18343025449692755182
16728433 281 16590249920051733957
18335252 98 18413388722930526182
18365409 1 14996578333987963363
19301679 30 17703236109162983800
19315958 150 17917141806233762512
20105231 36 18342460335043960167
21049683 271 18113900480691062325
21150785 3 16298385764236153140
21267235 1 18412545405310925549
21403212 168 8935000356733011828
21781051 124 18261119598955941715
21781055 127 16486434160478334777
23569943 247 17345187805442057550
24771750 20 18046354295448973004
25269216 80 18339371777433750116
2747138 104 18413105065398507001
312425 54 15984524690041683302
3178227 256 18341891913734174619
335352 9 18412543240594375439
439807 62 17603860088377127979
4461854 278 17846501452255822567
5470011 282 18259988163220889894
6058803 2 15838426107781423477

> <PUBCHEM_SHAPE_MULTIPOLES>
646.57
27.53
2.41
1.56
33.77
0.04
-0.21
-14.63
2.87
-2.37
0.14
-1.53
0.08
2.13

> <PUBCHEM_SHAPE_SELFOVERLAP>
1342.579

> <PUBCHEM_SHAPE_VOLUME>
362.9

> <PUBCHEM_COORDINATE_TYPE>
2
5
10

$$$$
