51137941
  -OEChem-12032416243D

 44 47  0     1  0  0  0  0  0999 V2000
    6.0521    2.6110   -0.3422 F   0  0  0  0  0  0  0  0  0  0  0  0
    7.8748    1.4599   -0.6257 F   0  0  0  0  0  0  0  0  0  0  0  0
    6.9420    1.5639    1.3357 F   0  0  0  0  0  0  0  0  0  0  0  0
   -9.8609    0.3160   -0.2246 F   0  0  0  0  0  0  0  0  0  0  0  0
   -1.6291    0.1500    1.0005 O   0  0  0  0  0  0  0  0  0  0  0  0
   -4.3859   -0.1608   -0.1824 O   0  0  0  0  0  0  0  0  0  0  0  0
    2.7121   -1.1257    0.4974 N   0  0  0  0  0  0  0  0  0  0  0  0
   -0.1272    0.5833   -0.5998 N   0  0  0  0  0  0  0  0  0  0  0  0
    4.6496    0.1223    0.2496 N   0  0  0  0  0  0  0  0  0  0  0  0
    4.3537   -1.9736   -0.9025 N   0  0  0  0  0  0  0  0  0  0  0  0
   -1.3558    1.0483   -1.0300 N   0  0  0  0  0  0  0  0  0  0  0  0
    0.6479   -0.5905    1.5440 C   0  0  1  0  0  0  0  0  0  0  0  0
    0.7311   -2.1025    1.3133 C   0  0  0  0  0  0  0  0  0  0  0  0
    2.1219   -0.1590    1.4240 C   0  0  0  0  0  0  0  0  0  0  0  0
    1.8259   -2.2610    0.2583 C   0  0  0  0  0  0  0  0  0  0  0  0
   -0.3343    0.0676    0.5893 C   0  0  0  0  0  0  0  0  0  0  0  0
    3.9581   -0.9864   -0.0762 C   0  0  0  0  0  0  0  0  0  0  0  0
   -2.2021    0.7740   -0.0649 C   0  0  0  0  0  0  0  0  0  0  0  0
    5.8641    0.2263   -0.3288 C   0  0  0  0  0  0  0  0  0  0  0  0
   -3.6428    1.0441    0.0209 C   0  0  0  0  0  0  0  0  0  0  0  0
    5.5773   -1.8054   -1.4455 C   0  0  0  0  0  0  0  0  0  0  0  0
    6.3850   -0.7154   -1.1926 C   0  0  0  0  0  0  0  0  0  0  0  0
    6.6644    1.4405    0.0042 C   0  0  0  0  0  0  0  0  0  0  0  0
   -5.7475   -0.0422   -0.1929 C   0  0  0  0  0  0  0  0  0  0  0  0
   -6.3401    1.2075   -0.0112 C   0  0  0  0  0  0  0  0  0  0  0  0
   -6.5443   -1.1707   -0.3855 C   0  0  0  0  0  0  0  0  0  0  0  0
   -7.7296    1.3285   -0.0219 C   0  0  0  0  0  0  0  0  0  0  0  0
   -7.9339   -1.0497   -0.3962 C   0  0  0  0  0  0  0  0  0  0  0  0
   -8.5265    0.1999   -0.2144 C   0  0  0  0  0  0  0  0  0  0  0  0
    0.2909   -0.3799    2.5600 H   0  0  0  0  0  0  0  0  0  0  0  0
    1.0517   -2.5937    2.2411 H   0  0  0  0  0  0  0  0  0  0  0  0
   -0.2120   -2.5609    0.9993 H   0  0  0  0  0  0  0  0  0  0  0  0
    2.6232   -0.2391    2.3957 H   0  0  0  0  0  0  0  0  0  0  0  0
    2.2098    0.8708    1.0603 H   0  0  0  0  0  0  0  0  0  0  0  0
    2.3359   -3.2229    0.3783 H   0  0  0  0  0  0  0  0  0  0  0  0
    1.4055   -2.2022   -0.7520 H   0  0  0  0  0  0  0  0  0  0  0  0
   -3.8819    1.7759   -0.7611 H   0  0  0  0  0  0  0  0  0  0  0  0
   -3.8589    1.4625    1.0119 H   0  0  0  0  0  0  0  0  0  0  0  0
    5.9014   -2.5976   -2.1119 H   0  0  0  0  0  0  0  0  0  0  0  0
    7.3602   -0.6253   -1.6531 H   0  0  0  0  0  0  0  0  0  0  0  0
   -5.7878    2.1266    0.1495 H   0  0  0  0  0  0  0  0  0  0  0  0
   -6.0882   -2.1466   -0.5276 H   0  0  0  0  0  0  0  0  0  0  0  0
   -8.1928    2.3005    0.1207 H   0  0  0  0  0  0  0  0  0  0  0  0
   -8.5547   -1.9281   -0.5460 H   0  0  0  0  0  0  0  0  0  0  0  0
  1 23  1  0  0  0  0
  2 23  1  0  0  0  0
  3 23  1  0  0  0  0
  4 29  1  0  0  0  0
  5 16  1  0  0  0  0
  5 18  1  0  0  0  0
  6 20  1  0  0  0  0
  6 24  1  0  0  0  0
  7 14  1  0  0  0  0
  7 15  1  0  0  0  0
  7 17  1  0  0  0  0
  8 11  1  0  0  0  0
  8 16  2  0  0  0  0
  9 17  1  0  0  0  0
  9 19  2  0  0  0  0
 10 17  2  0  0  0  0
 10 21  1  0  0  0  0
 11 18  2  0  0  0  0
 12 13  1  0  0  0  0
 12 14  1  0  0  0  0
 12 16  1  0  0  0  0
 12 30  1  0  0  0  0
 13 15  1  0  0  0  0
 13 31  1  0  0  0  0
 13 32  1  0  0  0  0
 14 33  1  0  0  0  0
 14 34  1  0  0  0  0
 15 35  1  0  0  0  0
 15 36  1  0  0  0  0
 18 20  1  0  0  0  0
 19 22  1  0  0  0  0
 19 23  1  0  0  0  0
 20 37  1  0  0  0  0
 20 38  1  0  0  0  0
 21 22  2  0  0  0  0
 21 39  1  0  0  0  0
 22 40  1  0  0  0  0
 24 25  2  0  0  0  0
 24 26  1  0  0  0  0
 25 27  1  0  0  0  0
 25 41  1  0  0  0  0
 26 28  2  0  0  0  0
 26 42  1  0  0  0  0
 27 29  2  0  0  0  0
 27 43  1  0  0  0  0
 28 29  1  0  0  0  0
 28 44  1  0  0  0  0
M  END
> <PUBCHEM_COMPOUND_CID>
51137941

> <PUBCHEM_CONFORMER_RMSD>
1.2

> <PUBCHEM_CONFORMER_DIVERSEORDER>
1
61
55
52
95
15
21
87
85
92
9
37
60
69
88
16
83
65
39
71
17
74
53
13
32
100
80
73
79
70
94
3
93
28
54
2
75
22
84
44
62
7
25
33
50
18
49
58
40
90
41
34
6
86
99
67
63
45
64
5
38
11
89
14
8
51
81
96
46
35
72
42
66
98
30
97
43
47
27
24
56
12
23
19
68
36
91
76
77
26
10
4
78
59
31
57
29
48
82
20

> <PUBCHEM_MMFF94_PARTIAL_CHARGES>
34
1 -0.34
10 -0.62
11 -0.34
12 0.18
14 0.37
15 0.37
16 0.3
17 0.72
18 0.3
19 0.17
2 -0.34
20 0.46
21 0.16
22 -0.15
23 1.16
24 0.08
25 -0.15
26 -0.15
27 -0.15
28 -0.15
29 0.19
3 -0.34
39 0.15
4 -0.19
40 0.15
41 0.15
42 0.15
43 0.15
44 0.15
5 -0.28
6 -0.36
7 -0.84
8 -0.34
9 -0.62

> <PUBCHEM_EFFECTIVE_ROTOR_COUNT>
7

> <PUBCHEM_PHARMACOPHORE_FEATURES>
7
1 6 acceptor
1 9 acceptor
4 7 9 10 17 cation
5 5 8 11 16 18 rings
5 7 12 13 14 15 rings
6 24 25 26 27 28 29 rings
6 9 10 17 19 21 22 rings

> <PUBCHEM_HEAVY_ATOM_COUNT>
29

> <PUBCHEM_ATOM_DEF_STEREO_COUNT>
1

> <PUBCHEM_ATOM_UDEF_STEREO_COUNT>
0

> <PUBCHEM_BOND_DEF_STEREO_COUNT>
0

> <PUBCHEM_BOND_UDEF_STEREO_COUNT>
0

> <PUBCHEM_ISOTOPIC_ATOM_COUNT>
0

> <PUBCHEM_COMPONENT_COUNT>
1

> <PUBCHEM_CACTVS_TAUTO_COUNT>
1

> <PUBCHEM_CONFORMER_ID>
030C4D9500000001

> <PUBCHEM_MMFF94_ENERGY>
70.0688

> <PUBCHEM_FEATURE_SELFOVERLAP>
35.523

> <PUBCHEM_SHAPE_FINGERPRINT>
10 15 12612759012251935651
10299344 5 17775567520630800255
10533779 47 9078839627783894525
10666366 153 12175627252586615497
11211813 74 18409164386045181005
11315181 36 18343022182567041841
11374522 155 18115871982898033540
11638347 137 10665227042778717097
11719270 70 14273454764768792824
12592606 108 11312053257994532757
13673619 4 14620793777933532827
14123256 10 17748827406327668983
14216079 64 10735884967294357396
14347424 109 8142080949640872518
150020 25 18410581681743856503
15183329 4 15195566801325901137
15352257 5 17346877845471946727
15849732 13 18411982460264116055
16994733 274 16878221949319745381
1754911 235 18409448077224581493
18365409 1 18263085564723488215
20157964 124 18411420601464632310
20554085 129 16370442267479326896
20812841 46 8286203846507421197
21150785 3 18341894095624942681
21344244 181 17845942840161704934
21360443 126 18187368765485232906
21521721 280 18410579482752067914
21591340 7 8142080945709427673
21774942 28 12974151949158313887
21781051 124 14979670048465897949
22224240 67 17894347782858600387
23424782 7 18412263969226245555
23516275 137 17773899540144365439
24180151 214 18412831261233563259
246663 6 15051734187949334753
24771293 8 17967254186878039181
34797466 226 18342177743622918748
4073 2 18261114067692420155
4325135 7 17894632535074861799
437795 51 18272929453106914217
44426701 97 17755560678182717690
5265222 85 18202279221758980879
54039377 194 16486419759817235974
5758199 1 18040998432248210827
57634706 280 18259981613269182554
6394761 36 13901907813133434359

> <PUBCHEM_SHAPE_MULTIPOLES>
531.07
28.3
1.99
1.15
32.42
0.12
0.19
-7.42
-7.06
-3
-0.07
-1.45
0.29
0.6

> <PUBCHEM_SHAPE_SELFOVERLAP>
1157.117

> <PUBCHEM_SHAPE_VOLUME>
291.3

> <PUBCHEM_COORDINATE_TYPE>
2
5
10

$$$$
