26761934
  -OEChem-12032416353D

 49 53  0     1  0  0  0  0  0999 V2000
    4.8660    1.7506   -2.9226 Cl  0  0  0  0  0  0  0  0  0  0  0  0
    7.0775    1.9384   -0.9579 F   0  0  0  0  0  0  0  0  0  0  0  0
    1.3515   -2.0114    2.1687 O   0  0  0  0  0  0  0  0  0  0  0  0
   -2.8976    5.4379   -1.2052 O   0  0  0  0  0  0  0  0  0  0  0  0
   -4.9348    5.1841   -0.2295 O   0  0  0  0  0  0  0  0  0  0  0  0
   -1.6502   -1.2532    0.4618 N   0  0  1  0  0  0  0  0  0  0  0  0
   -4.0433   -3.6494   -1.1499 N   0  0  0  0  0  0  0  0  0  0  0  0
   -2.2086   -4.8183   -1.6657 N   0  0  0  0  0  0  0  0  0  0  0  0
    1.5468   -1.0677    0.1468 N   0  0  0  0  0  0  0  0  0  0  0  0
    2.6187   -1.4154    2.1378 N   0  0  0  0  0  0  0  0  0  0  0  0
   -0.6171   -2.3108    0.7351 C   0  0  1  0  0  0  0  0  0  0  0  0
   -0.5372   -3.3817   -0.4103 C   0  0  0  0  0  0  0  0  0  0  0  0
   -3.0214   -1.8248    0.3243 C   0  0  0  0  0  0  0  0  0  0  0  0
   -2.9997   -3.0208   -0.5418 C   0  0  0  0  0  0  0  0  0  0  0  0
   -1.8907   -3.7576   -0.8660 C   0  0  0  0  0  0  0  0  0  0  0  0
   -1.6874   -0.2243    1.5099 C   0  0  0  0  0  0  0  0  0  0  0  0
    0.7878   -1.7599    0.9583 C   0  0  0  0  0  0  0  0  0  0  0  0
   -2.2405    1.0788    0.9969 C   0  0  0  0  0  0  0  0  0  0  0  0
   -3.5155   -4.7278   -1.8164 C   0  0  0  0  0  0  0  0  0  0  0  0
   -3.5451    1.4564    1.3150 C   0  0  0  0  0  0  0  0  0  0  0  0
   -1.4481    1.9082    0.2033 C   0  0  0  0  0  0  0  0  0  0  0  0
    2.6593   -0.8799    0.9142 C   0  0  0  0  0  0  0  0  0  0  0  0
   -4.0572    2.6635    0.8394 C   0  0  0  0  0  0  0  0  0  0  0  0
   -1.9602    3.1152   -0.2721 C   0  0  0  0  0  0  0  0  0  0  0  0
   -3.2647    3.4930    0.0459 C   0  0  0  0  0  0  0  0  0  0  0  0
    3.7962   -0.1529    0.4274 C   0  0  0  0  0  0  0  0  0  0  0  0
    3.7826    0.3833   -0.8602 C   0  0  0  0  0  0  0  0  0  0  0  0
    4.9153    0.0179    1.2424 C   0  0  0  0  0  0  0  0  0  0  0  0
   -3.7984    4.7522   -0.4492 C   0  0  0  0  0  0  0  0  0  0  0  0
    4.8881    1.0904   -1.3327 C   0  0  0  0  0  0  0  0  0  0  0  0
    6.0208    0.7250    0.7699 C   0  0  0  0  0  0  0  0  0  0  0  0
    6.0071    1.2613   -0.5178 C   0  0  0  0  0  0  0  0  0  0  0  0
   -0.9169   -2.8322    1.6570 H   0  0  0  0  0  0  0  0  0  0  0  0
    0.0033   -4.2665   -0.0536 H   0  0  0  0  0  0  0  0  0  0  0  0
    0.0183   -2.9821   -1.2686 H   0  0  0  0  0  0  0  0  0  0  0  0
   -3.6931   -1.0803   -0.1172 H   0  0  0  0  0  0  0  0  0  0  0  0
   -3.4256   -2.1171    1.3023 H   0  0  0  0  0  0  0  0  0  0  0  0
   -0.6853    0.0152    1.8857 H   0  0  0  0  0  0  0  0  0  0  0  0
   -2.2345   -0.5651    2.3997 H   0  0  0  0  0  0  0  0  0  0  0  0
   -5.0183   -3.3818   -1.1169 H   0  0  0  0  0  0  0  0  0  0  0  0
   -4.1364   -5.4021   -2.3890 H   0  0  0  0  0  0  0  0  0  0  0  0
   -4.1731    0.8192    1.9320 H   0  0  0  0  0  0  0  0  0  0  0  0
   -0.4302    1.6243   -0.0510 H   0  0  0  0  0  0  0  0  0  0  0  0
   -5.0760    2.9396    1.0984 H   0  0  0  0  0  0  0  0  0  0  0  0
   -1.3089    3.7304   -0.8865 H   0  0  0  0  0  0  0  0  0  0  0  0
    2.9175    0.2594   -1.5084 H   0  0  0  0  0  0  0  0  0  0  0  0
    4.9623   -0.3853    2.2509 H   0  0  0  0  0  0  0  0  0  0  0  0
    6.8924    0.8585    1.4039 H   0  0  0  0  0  0  0  0  0  0  0  0
   -3.2670    6.2852   -1.5339 H   0  0  0  0  0  0  0  0  0  0  0  0
  1 30  1  0  0  0  0
  2 32  1  0  0  0  0
  3 10  1  0  0  0  0
  3 17  1  0  0  0  0
  4 29  1  0  0  0  0
  4 49  1  0  0  0  0
  5 29  2  0  0  0  0
  6 11  1  0  0  0  0
  6 13  1  0  0  0  0
  6 16  1  0  0  0  0
  7 14  1  0  0  0  0
  7 19  1  0  0  0  0
  7 40  1  0  0  0  0
  8 15  1  0  0  0  0
  8 19  2  0  0  0  0
  9 17  2  0  0  0  0
  9 22  1  0  0  0  0
 10 22  2  0  0  0  0
 11 12  1  0  0  0  0
 11 17  1  0  0  0  0
 11 33  1  0  0  0  0
 12 15  1  0  0  0  0
 12 34  1  0  0  0  0
 12 35  1  0  0  0  0
 13 14  1  0  0  0  0
 13 36  1  0  0  0  0
 13 37  1  0  0  0  0
 14 15  2  0  0  0  0
 16 18  1  0  0  0  0
 16 38  1  0  0  0  0
 16 39  1  0  0  0  0
 18 20  2  0  0  0  0
 18 21  1  0  0  0  0
 19 41  1  0  0  0  0
 20 23  1  0  0  0  0
 20 42  1  0  0  0  0
 21 24  2  0  0  0  0
 21 43  1  0  0  0  0
 22 26  1  0  0  0  0
 23 25  2  0  0  0  0
 23 44  1  0  0  0  0
 24 25  1  0  0  0  0
 24 45  1  0  0  0  0
 25 29  1  0  0  0  0
 26 27  2  0  0  0  0
 26 28  1  0  0  0  0
 27 30  1  0  0  0  0
 27 46  1  0  0  0  0
 28 31  2  0  0  0  0
 28 47  1  0  0  0  0
 30 32  2  0  0  0  0
 31 32  1  0  0  0  0
 31 48  1  0  0  0  0
M  END
> <PUBCHEM_COMPOUND_CID>
26761934

> <PUBCHEM_CONFORMER_RMSD>
0.8

> <PUBCHEM_CONFORMER_DIVERSEORDER>
1
63
109
87
93
90
20
101
111
57
119
43
7
64
65
103
99
15
35
85
83
89
124
30
88
26
37
72
33
12
80
117
125
17
36
82
123
68
56
116
78
19
10
97
113
76
59
62
121
100
69
127
29
114
96
54
122
110
5
128
98
71
105
77
84
34
46
126
58
45
104
91
75
28
32
6
60
4
79
53
52
81
2
25
107
106
102
39
86
40
38
66
120
112
13
11
21
61
129
16
23
67
31
51
47
94
55
50
18
14
48
22
108
92
95
8
42
9
49
73
41
27
115
118
24
3
70
74
44

> <PUBCHEM_MMFF94_PARTIAL_CHARGES>
42
1 -0.18
10 -0.41
11 0.45
12 0.18
13 0.45
14 -0.33
15 0.05
16 0.41
17 0.3
18 -0.14
19 0.04
2 -0.19
20 -0.15
21 -0.15
22 0.46
23 -0.15
24 -0.15
25 0.09
26 0.05
27 -0.15
28 -0.15
29 0.63
3 -0.02
30 0.18
31 -0.15
32 0.19
4 -0.65
40 0.27
41 0.15
42 0.15
43 0.15
44 0.15
45 0.15
46 0.15
47 0.15
48 0.15
49 0.5
5 -0.57
6 -0.81
7 0.03
8 -0.57
9 -0.57

> <PUBCHEM_EFFECTIVE_ROTOR_COUNT>
5.8

> <PUBCHEM_PHARMACOPHORE_FEATURES>
12
1 4 acceptor
1 5 acceptor
1 6 cation
1 7 donor
3 4 5 29 anion
3 7 8 19 cation
3 9 10 22 cation
5 3 9 10 17 22 rings
5 7 8 14 15 19 rings
6 18 20 21 23 24 25 rings
6 26 27 28 30 31 32 rings
6 6 11 12 13 14 15 rings

> <PUBCHEM_HEAVY_ATOM_COUNT>
32

> <PUBCHEM_ATOM_DEF_STEREO_COUNT>
1

> <PUBCHEM_ATOM_UDEF_STEREO_COUNT>
0

> <PUBCHEM_BOND_DEF_STEREO_COUNT>
0

> <PUBCHEM_BOND_UDEF_STEREO_COUNT>
0

> <PUBCHEM_ISOTOPIC_ATOM_COUNT>
0

> <PUBCHEM_COMPONENT_COUNT>
1

> <PUBCHEM_CACTVS_TAUTO_COUNT>
2

> <PUBCHEM_CONFORMER_ID>
01985ACE00000001

> <PUBCHEM_MMFF94_ENERGY>
72.8783

> <PUBCHEM_FEATURE_SELFOVERLAP>
61.054

> <PUBCHEM_SHAPE_FINGERPRINT>
10673678 19 17906451031154682137
10871710 139 18336269028254587491
10937287 8 18196088841938855865
11386260 185 16320606551217515109
11477941 20 18054786454047309484
11513181 2 18123190108420240108
12107183 9 18045490929770561802
12788726 201 18337379543625947347
13540713 5 18188757384863809578
13617811 41 18126285487061723038
13911987 19 18128254494018678809
14040221 178 17760643669151083893
14068700 675 18120365707956577780
14114206 34 18125134255669688719
14114211 80 18127702530122290521
14294032 229 18412831278560806289
14556957 393 18190742131588651214
14910302 57 17845672442200529918
15064981 113 18273209782129444454
15198563 99 18269833280435487447
15420108 30 18263076622279044828
15448158 71 18188220805825014456
15705408 1 17403152186210726855
15968369 153 18048055226366132824
16067690 210 17903668472071676268
16992828 155 18260548896381356148
17686467 74 17769374165353297360
17980427 26 17459466654855781626
19309040 13 17768249008118165701
21033650 10 18265638609658809998
21641784 216 18267589198187766318
21792964 463 17894349986477568927
23516275 100 17475228480722137168
23929065 36 18197473299161748536
249057 25 18115577271411143914
24941158 1 17112677204241613197
255183 451 17337582806036334383
3057174 1 17842270364150489367
3388396 114 17615981336248144732
340366 18 18052256198609171962
376196 1 17828487960136894241
4066623 53 17981589774410469893
44249763 50 18272645784019457672
46194498 28 17201646786596261912
5219985 13 18265337209595915145
6058803 2 18189878877876036034
6608658 132 18337113491644122790
6700243 42 17771370800622234302
7808743 9 18410293584291364760

> <PUBCHEM_SHAPE_MULTIPOLES>
610.63
12.98
7.73
1.91
22.64
2.9
-0.49
9.66
-3.61
-17.8
-4.48
1.58
-0.61
-3.55

> <PUBCHEM_SHAPE_SELFOVERLAP>
1346.1

> <PUBCHEM_SHAPE_VOLUME>
329.9

> <PUBCHEM_COORDINATE_TYPE>
2
5
10

$$$$
