26745347
  -OEChem-12032416283D

 48 51  0     1  0  0  0  0  0999 V2000
    1.7393   -1.0656    1.6984 O   0  0  0  0  0  0  0  0  0  0  0  0
    0.7136   -4.6541    0.8987 O   0  0  0  0  0  0  0  0  0  0  0  0
   -6.1177    1.8885   -0.4430 O   0  0  0  0  0  0  0  0  0  0  0  0
   -5.9857    0.8588    1.5792 O   0  0  0  0  0  0  0  0  0  0  0  0
    0.9401    0.9455   -0.2522 N   0  0  1  0  0  0  0  0  0  0  0  0
    2.2632    4.4405   -0.5038 N   0  0  0  0  0  0  0  0  0  0  0  0
    4.0005    3.6445    0.6574 N   0  0  0  0  0  0  0  0  0  0  0  0
    2.6650   -2.0287   -0.2082 N   0  0  0  0  0  0  0  0  0  0  0  0
    2.2975    0.3369   -0.1508 C   0  0  1  0  0  0  0  0  0  0  0  0
    3.3008    1.2056    0.6664 C   0  0  0  0  0  0  0  0  0  0  0  0
    0.9727    2.2708   -0.9344 C   0  0  0  0  0  0  0  0  0  0  0  0
    2.0719    3.0971   -0.3922 C   0  0  0  0  0  0  0  0  0  0  0  0
    3.1498    2.6323    0.3159 C   0  0  0  0  0  0  0  0  0  0  0  0
   -0.0101    0.0797   -0.9612 C   0  0  0  0  0  0  0  0  0  0  0  0
    2.1887   -0.9791    0.5586 C   0  0  0  0  0  0  0  0  0  0  0  0
   -1.4316    0.3708   -0.5750 C   0  0  0  0  0  0  0  0  0  0  0  0
    3.4395    4.7230    0.1461 C   0  0  0  0  0  0  0  0  0  0  0  0
   -1.9221   -0.0639    0.6563 C   0  0  0  0  0  0  0  0  0  0  0  0
   -2.2613    1.0756   -1.4469 C   0  0  0  0  0  0  0  0  0  0  0  0
    2.6921   -3.3974    0.2548 C   0  0  0  0  0  0  0  0  0  0  0  0
   -3.2425    0.2064    1.0156 C   0  0  0  0  0  0  0  0  0  0  0  0
   -3.5817    1.3458   -1.0877 C   0  0  0  0  0  0  0  0  0  0  0  0
    1.4465   -4.1441   -0.1258 C   0  0  0  0  0  0  0  0  0  0  0  0
   -4.0723    0.9113    0.1437 C   0  0  0  0  0  0  0  0  0  0  0  0
    0.8582   -4.4381   -1.3340 C   0  0  0  0  0  0  0  0  0  0  0  0
   -5.4489    1.1941    0.5181 C   0  0  0  0  0  0  0  0  0  0  0  0
   -0.3113   -5.1759   -1.0325 C   0  0  0  0  0  0  0  0  0  0  0  0
   -0.3542   -5.2803    0.3386 C   0  0  0  0  0  0  0  0  0  0  0  0
    2.6972    0.2073   -1.1663 H   0  0  0  0  0  0  0  0  0  0  0  0
    4.3252    0.8720    0.4631 H   0  0  0  0  0  0  0  0  0  0  0  0
    3.1350    1.0971    1.7456 H   0  0  0  0  0  0  0  0  0  0  0  0
    0.0236    2.7954   -0.7782 H   0  0  0  0  0  0  0  0  0  0  0  0
    1.1290    2.1540   -2.0146 H   0  0  0  0  0  0  0  0  0  0  0  0
    0.1373   -0.9817   -0.7298 H   0  0  0  0  0  0  0  0  0  0  0  0
    0.1250    0.1358   -2.0502 H   0  0  0  0  0  0  0  0  0  0  0  0
    1.6624    5.1043   -0.9748 H   0  0  0  0  0  0  0  0  0  0  0  0
    3.8270    5.7300    0.2085 H   0  0  0  0  0  0  0  0  0  0  0  0
    3.0022   -1.8516   -1.1496 H   0  0  0  0  0  0  0  0  0  0  0  0
   -1.2859   -0.6147    1.3440 H   0  0  0  0  0  0  0  0  0  0  0  0
   -1.8910    1.4205   -2.4087 H   0  0  0  0  0  0  0  0  0  0  0  0
    2.8276   -3.4080    1.3417 H   0  0  0  0  0  0  0  0  0  0  0  0
    3.5618   -3.8808   -0.2021 H   0  0  0  0  0  0  0  0  0  0  0  0
   -3.6056   -0.1410    1.9793 H   0  0  0  0  0  0  0  0  0  0  0  0
   -4.1927    1.8978   -1.7964 H   0  0  0  0  0  0  0  0  0  0  0  0
    1.2243   -4.1563   -2.3110 H   0  0  0  0  0  0  0  0  0  0  0  0
   -1.0329   -5.5806   -1.7272 H   0  0  0  0  0  0  0  0  0  0  0  0
   -1.0413   -5.7428    1.0319 H   0  0  0  0  0  0  0  0  0  0  0  0
   -7.0446    2.0741   -0.1807 H   0  0  0  0  0  0  0  0  0  0  0  0
  1 15  2  0  0  0  0
  2 23  1  0  0  0  0
  2 28  1  0  0  0  0
  3 26  1  0  0  0  0
  3 48  1  0  0  0  0
  4 26  2  0  0  0  0
  5  9  1  0  0  0  0
  5 11  1  0  0  0  0
  5 14  1  0  0  0  0
  6 12  1  0  0  0  0
  6 17  1  0  0  0  0
  6 36  1  0  0  0  0
  7 13  1  0  0  0  0
  7 17  2  0  0  0  0
  8 15  1  0  0  0  0
  8 20  1  0  0  0  0
  8 38  1  0  0  0  0
  9 10  1  0  0  0  0
  9 15  1  0  0  0  0
  9 29  1  0  0  0  0
 10 13  1  0  0  0  0
 10 30  1  0  0  0  0
 10 31  1  0  0  0  0
 11 12  1  0  0  0  0
 11 32  1  0  0  0  0
 11 33  1  0  0  0  0
 12 13  2  0  0  0  0
 14 16  1  0  0  0  0
 14 34  1  0  0  0  0
 14 35  1  0  0  0  0
 16 18  2  0  0  0  0
 16 19  1  0  0  0  0
 17 37  1  0  0  0  0
 18 21  1  0  0  0  0
 18 39  1  0  0  0  0
 19 22  2  0  0  0  0
 19 40  1  0  0  0  0
 20 23  1  0  0  0  0
 20 41  1  0  0  0  0
 20 42  1  0  0  0  0
 21 24  2  0  0  0  0
 21 43  1  0  0  0  0
 22 24  1  0  0  0  0
 22 44  1  0  0  0  0
 23 25  2  0  0  0  0
 24 26  1  0  0  0  0
 25 27  1  0  0  0  0
 25 45  1  0  0  0  0
 27 28  2  0  0  0  0
 27 46  1  0  0  0  0
 28 47  1  0  0  0  0
M  END
> <PUBCHEM_COMPOUND_CID>
26745347

> <PUBCHEM_CONFORMER_RMSD>
1

> <PUBCHEM_CONFORMER_DIVERSEORDER>
4
37
84
75
46
100
88
55
51
59
86
49
58
54
16
27
31
85
40
33
77
60
69
34
74
56
48
35
11
101
81
93
61
67
94
36
44
97
39
12
89
17
96
30
10
79
63
65
83
28
95
21
90
73
32
3
13
19
80
47
41
87
20
76
98
38
2
91
62
71
78
23
99
82
42
9
64
24
68
57
26
45
18
70
8
52
29
53
43
72
5
92
6
15
22
25
66
14
1
7
50

> <PUBCHEM_MMFF94_PARTIAL_CHARGES>
39
1 -0.57
10 0.18
11 0.45
12 -0.33
13 0.05
14 0.41
15 0.57
16 -0.14
17 0.04
18 -0.15
19 -0.15
2 -0.28
20 0.48
21 -0.15
22 -0.15
23 -0.04
24 0.09
25 -0.15
26 0.63
27 -0.15
28 -0.01
3 -0.65
36 0.27
37 0.15
38 0.37
39 0.15
4 -0.57
40 0.15
43 0.15
44 0.15
45 0.15
46 0.15
47 0.15
48 0.5
5 -0.81
6 0.03
7 -0.57
8 -0.73
9 0.33

> <PUBCHEM_EFFECTIVE_ROTOR_COUNT>
7.8

> <PUBCHEM_PHARMACOPHORE_FEATURES>
13
1 1 acceptor
1 2 acceptor
1 3 acceptor
1 4 acceptor
1 5 cation
1 6 donor
1 8 donor
3 3 4 26 anion
3 6 7 17 cation
5 2 23 25 27 28 rings
5 6 7 12 13 17 rings
6 16 18 19 21 22 24 rings
6 5 9 10 11 12 13 rings

> <PUBCHEM_HEAVY_ATOM_COUNT>
28

> <PUBCHEM_ATOM_DEF_STEREO_COUNT>
1

> <PUBCHEM_ATOM_UDEF_STEREO_COUNT>
0

> <PUBCHEM_BOND_DEF_STEREO_COUNT>
0

> <PUBCHEM_BOND_UDEF_STEREO_COUNT>
0

> <PUBCHEM_ISOTOPIC_ATOM_COUNT>
0

> <PUBCHEM_COMPONENT_COUNT>
1

> <PUBCHEM_CACTVS_TAUTO_COUNT>
4

> <PUBCHEM_CONFORMER_ID>
01981A0300000004

> <PUBCHEM_MMFF94_ENERGY>
58.7635

> <PUBCHEM_FEATURE_SELFOVERLAP>
66.129

> <PUBCHEM_SHAPE_FINGERPRINT>
10006869 2 16106700566774129276
10816530 23 18338238288187248753
11505856 67 17252605967372215541
12553582 1 18051681149453062694
12788726 201 17548118387533093246
13757389 114 17829628488418277340
13785724 45 17623017794232677455
13911987 19 18119842165114600662
13955234 65 18339089190017778785
14363568 33 18338237038225274854
15420108 30 18192698150290690368
15439362 3 18342178912419220596
15664445 248 18126298441151793486
15927050 60 18266742579372832188
17138139 8 17267465776879724463
19319366 153 18272929453545095153
19427546 62 18338515356274604041
21307412 95 18055101945935774908
23558518 356 18126274475113248550
23559900 14 18337674109936470665
23845131 108 18194957663659819625
23929065 36 17262420216915013848
24941158 1 18050887396778652531
38695281 34 18410572928943197192
5309563 4 17978789000346170631
59025328 239 17190608509284751279
653340 110 17763182840382183626
6695519 79 16333512777396788506
79837 15 18122899004327519048
86090 222 17461189598603979427
9658208 31 18123765406980260524
9777508 108 17979635967880760304

> <PUBCHEM_SHAPE_MULTIPOLES>
532.83
8.93
8.43
1.22
12.08
12.58
0.01
-13.69
2.49
-5.3
-1
0.66
0.2
-0.25

> <PUBCHEM_SHAPE_SELFOVERLAP>
1162.926

> <PUBCHEM_SHAPE_VOLUME>
289.6

> <PUBCHEM_COORDINATE_TYPE>
2
5
10

$$$$
