40481380
  -OEChem-12032416393D

 51 54  0     1  0  0  0  0  0999 V2000
   -1.4833   -1.2515    0.9860 O   0  0  0  0  0  0  0  0  0  0  0  0
   -0.5291   -2.2158   -1.7642 O   0  0  0  0  0  0  0  0  0  0  0  0
   -3.4426   -0.3801   -0.7770 O   0  0  0  0  0  0  0  0  0  0  0  0
    3.5064   -2.1079   -0.0810 O   0  0  0  0  0  0  0  0  0  0  0  0
    1.6436   -1.2955    1.0426 N   0  0  0  0  0  0  0  0  0  0  0  0
    3.7381   -0.5137    1.5889 N   0  0  0  0  0  0  0  0  0  0  0  0
    0.0613   -1.3061   -0.8125 C   0  0  1  0  0  0  0  0  0  0  0  0
   -1.0770   -0.5258   -0.1863 C   0  0  1  0  0  0  0  0  0  0  0  0
    0.6519   -2.0771    0.3450 C   0  0  2  0  0  0  0  0  0  0  0  0
   -2.1332   -0.5676   -1.2644 C   0  0  1  0  0  0  0  0  0  0  0  0
   -0.5654   -2.3313    1.2172 C   0  0  0  0  0  0  0  0  0  0  0  0
   -1.9362   -1.9473   -1.8508 C   0  0  0  0  0  0  0  0  0  0  0  0
   -3.7728    1.0009   -0.6523 C   0  0  0  0  0  0  0  0  0  0  0  0
    3.0088   -1.3737    0.7715 C   0  0  0  0  0  0  0  0  0  0  0  0
   -5.1744    1.1245   -0.1308 C   0  0  0  0  0  0  0  0  0  0  0  0
    5.1755   -0.3965    1.5164 C   0  0  0  0  0  0  0  0  0  0  0  0
   -6.2467    1.1834   -1.0208 C   0  0  0  0  0  0  0  0  0  0  0  0
   -5.4049    1.1803    1.2437 C   0  0  0  0  0  0  0  0  0  0  0  0
    5.6045    0.6604    0.5402 C   0  0  0  0  0  0  0  0  0  0  0  0
   -7.5498    1.2983   -0.5363 C   0  0  0  0  0  0  0  0  0  0  0  0
   -6.7079    1.2951    1.7282 C   0  0  0  0  0  0  0  0  0  0  0  0
   -7.7803    1.3542    0.8382 C   0  0  0  0  0  0  0  0  0  0  0  0
    5.8262    0.3268   -0.7959 C   0  0  0  0  0  0  0  0  0  0  0  0
    5.7812    1.9758    0.9692 C   0  0  0  0  0  0  0  0  0  0  0  0
    6.2249    1.3086   -1.7031 C   0  0  0  0  0  0  0  0  0  0  0  0
    6.1797    2.9576    0.0622 C   0  0  0  0  0  0  0  0  0  0  0  0
    6.4016    2.6241   -1.2740 C   0  0  0  0  0  0  0  0  0  0  0  0
    0.7734   -0.6752   -1.3537 H   0  0  0  0  0  0  0  0  0  0  0  0
   -0.8019    0.4855    0.1269 H   0  0  0  0  0  0  0  0  0  0  0  0
    1.1068   -3.0241    0.0348 H   0  0  0  0  0  0  0  0  0  0  0  0
   -1.8927    0.1663   -2.0464 H   0  0  0  0  0  0  0  0  0  0  0  0
   -1.0735   -3.2553    0.9196 H   0  0  0  0  0  0  0  0  0  0  0  0
   -0.3390   -2.3923    2.2861 H   0  0  0  0  0  0  0  0  0  0  0  0
   -2.4789   -2.7184   -1.2926 H   0  0  0  0  0  0  0  0  0  0  0  0
   -2.2574   -2.0052   -2.8952 H   0  0  0  0  0  0  0  0  0  0  0  0
    1.3288   -0.6081    1.7209 H   0  0  0  0  0  0  0  0  0  0  0  0
   -3.6930    1.4962   -1.6282 H   0  0  0  0  0  0  0  0  0  0  0  0
   -3.0731    1.4986    0.0301 H   0  0  0  0  0  0  0  0  0  0  0  0
    3.2383    0.0725    2.2504 H   0  0  0  0  0  0  0  0  0  0  0  0
    5.6090   -1.3662    1.2441 H   0  0  0  0  0  0  0  0  0  0  0  0
    5.5372   -0.1590    2.5233 H   0  0  0  0  0  0  0  0  0  0  0  0
   -6.0801    1.1386   -2.0938 H   0  0  0  0  0  0  0  0  0  0  0  0
   -4.5777    1.1329    1.9469 H   0  0  0  0  0  0  0  0  0  0  0  0
   -8.3849    1.3437   -1.2293 H   0  0  0  0  0  0  0  0  0  0  0  0
   -6.8876    1.3379    2.7985 H   0  0  0  0  0  0  0  0  0  0  0  0
   -8.7948    1.4433    1.2154 H   0  0  0  0  0  0  0  0  0  0  0  0
    5.6962   -0.6942   -1.1440 H   0  0  0  0  0  0  0  0  0  0  0  0
    5.6097    2.2487    2.0071 H   0  0  0  0  0  0  0  0  0  0  0  0
    6.3984    1.0488   -2.7432 H   0  0  0  0  0  0  0  0  0  0  0  0
    6.3169    3.9820    0.3960 H   0  0  0  0  0  0  0  0  0  0  0  0
    6.7120    3.3886   -1.9803 H   0  0  0  0  0  0  0  0  0  0  0  0
  1  8  1  0  0  0  0
  1 11  1  0  0  0  0
  2  7  1  0  0  0  0
  2 12  1  0  0  0  0
  3 10  1  0  0  0  0
  3 13  1  0  0  0  0
  4 14  2  0  0  0  0
  5  9  1  0  0  0  0
  5 14  1  0  0  0  0
  5 36  1  0  0  0  0
  6 14  1  0  0  0  0
  6 16  1  0  0  0  0
  6 39  1  0  0  0  0
  7  8  1  0  0  0  0
  7  9  1  0  0  0  0
  7 28  1  0  0  0  0
  8 10  1  0  0  0  0
  8 29  1  0  0  0  0
  9 11  1  0  0  0  0
  9 30  1  0  0  0  0
 10 12  1  0  0  0  0
 10 31  1  0  0  0  0
 11 32  1  0  0  0  0
 11 33  1  0  0  0  0
 12 34  1  0  0  0  0
 12 35  1  0  0  0  0
 13 15  1  0  0  0  0
 13 37  1  0  0  0  0
 13 38  1  0  0  0  0
 15 17  2  0  0  0  0
 15 18  1  0  0  0  0
 16 19  1  0  0  0  0
 16 40  1  0  0  0  0
 16 41  1  0  0  0  0
 17 20  1  0  0  0  0
 17 42  1  0  0  0  0
 18 21  2  0  0  0  0
 18 43  1  0  0  0  0
 19 23  2  0  0  0  0
 19 24  1  0  0  0  0
 20 22  2  0  0  0  0
 20 44  1  0  0  0  0
 21 22  1  0  0  0  0
 21 45  1  0  0  0  0
 22 46  1  0  0  0  0
 23 25  1  0  0  0  0
 23 47  1  0  0  0  0
 24 26  2  0  0  0  0
 24 48  1  0  0  0  0
 25 27  2  0  0  0  0
 25 49  1  0  0  0  0
 26 27  1  0  0  0  0
 26 50  1  0  0  0  0
 27 51  1  0  0  0  0
M  END
> <PUBCHEM_COMPOUND_CID>
40481380

> <PUBCHEM_CONFORMER_RMSD>
1

> <PUBCHEM_CONFORMER_DIVERSEORDER>
1
64
47
84
144
36
110
160
19
104
173
88
109
2
181
55
20
143
101
129
131
157
145
132
40
41
17
151
97
90
179
30
56
78
83
139
134
65
76
102
57
87
162
184
33
126
158
85
112
5
31
95
168
94
135
118
66
137
152
106
67
53
58
98
153
121
174
178
44
35
96
72
48
93
155
111
34
99
60
127
133
80
59
140
21
9
73
122
11
28
103
125
169
54
136
42
82
141
175
25
3
70
119
123
46
146
161
86
91
38
182
92
29
170
12
167
77
115
172
81
62
7
39
51
32
163
165
159
61
4
15
45
63
124
176
52
50
105
71
183
108
69
147
171
75
24
149
100
150
16
27
22
26
23
128
185
120
43
18
13
138
177
107
79
37
113
49
154
14
164
130
148
89
180
142
68
186
74
166
8
116
156
6
117
10
114

> <PUBCHEM_MMFF94_PARTIAL_CHARGES>
39
1 -0.56
10 0.28
11 0.28
12 0.28
13 0.42
14 0.69
15 -0.14
16 0.44
17 -0.15
18 -0.15
19 -0.14
2 -0.56
20 -0.15
21 -0.15
22 -0.15
23 -0.15
24 -0.15
25 -0.15
26 -0.15
27 -0.15
3 -0.56
36 0.37
39 0.37
4 -0.57
42 0.15
43 0.15
44 0.15
45 0.15
46 0.15
47 0.15
48 0.15
49 0.15
5 -0.73
50 0.15
51 0.15
6 -0.73
7 0.28
8 0.28
9 0.3

> <PUBCHEM_EFFECTIVE_ROTOR_COUNT>
9.2

> <PUBCHEM_PHARMACOPHORE_FEATURES>
10
1 1 acceptor
1 2 acceptor
1 3 acceptor
1 4 acceptor
1 5 donor
1 6 donor
5 1 7 8 9 11 rings
5 2 7 8 10 12 rings
6 15 17 18 20 21 22 rings
6 19 23 24 25 26 27 rings

> <PUBCHEM_HEAVY_ATOM_COUNT>
27

> <PUBCHEM_ATOM_DEF_STEREO_COUNT>
4

> <PUBCHEM_ATOM_UDEF_STEREO_COUNT>
0

> <PUBCHEM_BOND_DEF_STEREO_COUNT>
0

> <PUBCHEM_BOND_UDEF_STEREO_COUNT>
0

> <PUBCHEM_ISOTOPIC_ATOM_COUNT>
0

> <PUBCHEM_COMPONENT_COUNT>
1

> <PUBCHEM_CACTVS_TAUTO_COUNT>
3

> <PUBCHEM_CONFORMER_ID>
0269B26400000001

> <PUBCHEM_MMFF94_ENERGY>
70.351

> <PUBCHEM_FEATURE_SELFOVERLAP>
51.518

> <PUBCHEM_SHAPE_FINGERPRINT>
10 15 17385727984789683585
10693767 8 11167935849004003276
10753850 27 9511458931192318167
10981352 41 10665222657981378008
11399510 152 14346332633753419372
11475781 23 16630516350373053946
12342043 65 15721344341630665210
13782708 43 11815022675031415245
13885169 86 18408886269289712560
14537116 161 17704068478052059032
14565420 104 17749103361923492354
14840074 17 18411700980518301057
14849402 71 18335422404723660549
15183329 4 14333411133894539019
15188451 53 8214149547094413988
15338160 23 18042127720652680675
15350500 16 12391522936865439396
15475509 8 15841834439028494857
15519825 34 14779838216743779129
15840311 113 18336547127492167469
16760501 71 17894632569234153076
16993427 108 11241963806702188989
18393751 57 17821727222051671339
19304671 126 18272379719892229260
19958102 18 14692577619477471922
20567600 234 17676490527503641237
20621476 91 14129060309424179379
21315764 119 14333404558252441321
21637258 2 7997967972966602607
22224240 67 17530964657999955707
23569914 152 13972023540165711852
3418910 222 18059861632951382489
3472631 163 18343863346741160156
3610482 184 17632284680068650279
3711267 37 18060703862356634761
38570 142 17275106107340264895
397830 11 17822300093395130315
406291 66 9078847272683561184
4258327 124 18412823608250219423
437795 70 15913333489354042368
4403749 210 17966970535455157155
474113 269 11602813623481597913
5104073 3 17313653967361377474
5718773 13 10303823072771749612
57724786 102 18187072971926041474
5911458 16 18343025484015362153
59682541 52 15985111795260338628
6438161 24 7925622294472081689
6712543 237 15285349613884028121
6898599 12 17916581093488914662
9689198 14 18410581690449517169

> <PUBCHEM_SHAPE_MULTIPOLES>
522.21
22.91
2.93
1.77
9.66
0.06
0.11
23.47
-1.79
-2.98
0.23
-0.09
-0.21
-2.09

> <PUBCHEM_SHAPE_SELFOVERLAP>
1120.397

> <PUBCHEM_SHAPE_VOLUME>
288.5

> <PUBCHEM_COORDINATE_TYPE>
2
5
10

$$$$
