23757048
  -OEChem-12032416133D

 83 87  0     1  0  0  0  0  0999 V2000
    0.0268   -3.0738    0.3485 O   0  0  0  0  0  0  0  0  0  0  0  0
   -4.7055    0.5997    1.3951 O   0  0  0  0  0  0  0  0  0  0  0  0
   -1.4710   -5.1734    1.6642 O   0  0  0  0  0  0  0  0  0  0  0  0
   -4.5201    2.2785   -2.4846 O   0  0  0  0  0  0  0  0  0  0  0  0
    1.7429   -3.5763   -1.0772 O   0  0  0  0  0  0  0  0  0  0  0  0
   -5.8249    4.3178    2.0225 O   0  0  0  0  0  0  0  0  0  0  0  0
    7.1084   -0.0328   -0.0899 O   0  0  0  0  0  0  0  0  0  0  0  0
   -4.3622    3.5088   -0.5350 N   0  0  0  0  0  0  0  0  0  0  0  0
    1.9394   -1.9293    0.5749 N   0  0  0  0  0  0  0  0  0  0  0  0
   -2.5430   -1.0152   -0.2721 C   0  0  2  0  0  0  0  0  0  0  0  0
   -3.2904   -2.3962   -0.2265 C   0  0  1  0  0  0  0  0  0  0  0  0
   -2.3821   -3.6621    0.0528 C   0  0  1  0  0  0  0  0  0  0  0  0
   -3.5758    0.0919   -0.7411 C   0  0  1  0  0  0  0  0  0  0  0  0
   -1.3821   -1.0932   -1.3177 C   0  0  0  0  0  0  0  0  0  0  0  0
   -4.5595   -2.3366    0.6503 C   0  0  0  0  0  0  0  0  0  0  0  0
   -0.9636   -3.5003   -0.5835 C   0  0  1  0  0  0  0  0  0  0  0  0
   -4.8926    0.1125    0.0706 C   0  0  1  0  0  0  0  0  0  0  0  0
   -0.9687   -2.5069   -1.7388 C   0  0  0  0  0  0  0  0  0  0  0  0
   -5.5319   -1.2691    0.1538 C   0  0  0  0  0  0  0  0  0  0  0  0
   -1.9358   -0.6333    1.0997 C   0  0  0  0  0  0  0  0  0  0  0  0
   -2.2926   -4.0326    1.5486 C   0  0  0  0  0  0  0  0  0  0  0  0
   -2.9844    1.5092   -0.8350 C   0  0  0  0  0  0  0  0  0  0  0  0
   -3.0525   -4.8780   -0.6520 C   0  0  0  0  0  0  0  0  0  0  0  0
   -4.0239    2.4602   -1.3716 C   0  0  0  0  0  0  0  0  0  0  0  0
    1.2974   -2.9182   -0.1449 C   0  0  0  0  0  0  0  0  0  0  0  0
   -3.8155    3.7757    0.7952 C   0  0  0  0  0  0  0  0  0  0  0  0
   -5.3539    4.5066   -0.9068 C   0  0  0  0  0  0  0  0  0  0  0  0
   -4.7005    4.8826    1.3569 C   0  0  1  0  0  0  0  0  0  0  0  0
   -5.1739    5.6241    0.1118 C   0  0  0  0  0  0  0  0  0  0  0  0
    3.2569   -1.4460    0.4062 C   0  0  0  0  0  0  0  0  0  0  0  0
    3.7229   -0.4391    1.2363 C   0  0  0  0  0  0  0  0  0  0  0  0
    4.0566   -1.9880   -0.5875 C   0  0  0  0  0  0  0  0  0  0  0  0
    5.0226    0.0386    1.0684 C   0  0  0  0  0  0  0  0  0  0  0  0
    5.3564   -1.5106   -0.7554 C   0  0  0  0  0  0  0  0  0  0  0  0
    5.8396   -0.4973    0.0726 C   0  0  0  0  0  0  0  0  0  0  0  0
    7.2993    1.3387   -0.0703 C   0  0  0  0  0  0  0  0  0  0  0  0
    6.4360    2.1494   -0.7848 C   0  0  0  0  0  0  0  0  0  0  0  0
    8.3489    1.8621    0.6627 C   0  0  0  0  0  0  0  0  0  0  0  0
    6.6289    3.5306   -0.7658 C   0  0  0  0  0  0  0  0  0  0  0  0
    8.5417    3.2435    0.6819 C   0  0  0  0  0  0  0  0  0  0  0  0
    7.6816    4.0777   -0.0324 C   0  0  0  0  0  0  0  0  0  0  0  0
   -3.6711   -2.5341   -1.2521 H   0  0  0  0  0  0  0  0  0  0  0  0
   -3.8753   -0.1928   -1.7625 H   0  0  0  0  0  0  0  0  0  0  0  0
   -0.5010   -0.5580   -0.9409 H   0  0  0  0  0  0  0  0  0  0  0  0
   -1.6600   -0.5710   -2.2418 H   0  0  0  0  0  0  0  0  0  0  0  0
   -5.0828   -3.2987    0.6307 H   0  0  0  0  0  0  0  0  0  0  0  0
   -4.3054   -2.1411    1.6975 H   0  0  0  0  0  0  0  0  0  0  0  0
   -0.6360   -4.4774   -0.9635 H   0  0  0  0  0  0  0  0  0  0  0  0
   -5.6233    0.7750   -0.4060 H   0  0  0  0  0  0  0  0  0  0  0  0
   -0.0089   -2.4405   -2.2604 H   0  0  0  0  0  0  0  0  0  0  0  0
   -1.6737   -2.8624   -2.5021 H   0  0  0  0  0  0  0  0  0  0  0  0
   -5.9017   -1.5572   -0.8382 H   0  0  0  0  0  0  0  0  0  0  0  0
   -6.3983   -1.2464    0.8258 H   0  0  0  0  0  0  0  0  0  0  0  0
   -2.6762   -0.6090    1.9012 H   0  0  0  0  0  0  0  0  0  0  0  0
   -1.4443    0.3436    1.0731 H   0  0  0  0  0  0  0  0  0  0  0  0
   -1.1608   -1.3290    1.4176 H   0  0  0  0  0  0  0  0  0  0  0  0
   -1.8654   -3.2327    2.1564 H   0  0  0  0  0  0  0  0  0  0  0  0
   -3.2729   -4.2868    1.9640 H   0  0  0  0  0  0  0  0  0  0  0  0
   -2.1497    1.5353   -1.5450 H   0  0  0  0  0  0  0  0  0  0  0  0
   -2.5685    1.8302    0.1167 H   0  0  0  0  0  0  0  0  0  0  0  0
   -2.4582   -5.7934   -0.5511 H   0  0  0  0  0  0  0  0  0  0  0  0
   -4.0438   -5.0911   -0.2389 H   0  0  0  0  0  0  0  0  0  0  0  0
   -3.1750   -4.6968   -1.7260 H   0  0  0  0  0  0  0  0  0  0  0  0
   -5.5770    0.6368    1.8245 H   0  0  0  0  0  0  0  0  0  0  0  0
   -1.4241   -5.4016    2.6081 H   0  0  0  0  0  0  0  0  0  0  0  0
   -2.7856    4.1225    0.6588 H   0  0  0  0  0  0  0  0  0  0  0  0
   -3.8306    2.8840    1.4217 H   0  0  0  0  0  0  0  0  0  0  0  0
   -5.2057    4.8385   -1.9387 H   0  0  0  0  0  0  0  0  0  0  0  0
   -6.3420    4.0404   -0.8250 H   0  0  0  0  0  0  0  0  0  0  0  0
   -4.1675    5.5221    2.0661 H   0  0  0  0  0  0  0  0  0  0  0  0
   -6.0999    6.1878    0.2572 H   0  0  0  0  0  0  0  0  0  0  0  0
   -4.3900    6.3101   -0.2305 H   0  0  0  0  0  0  0  0  0  0  0  0
    1.3992   -1.4930    1.3181 H   0  0  0  0  0  0  0  0  0  0  0  0
   -6.3879    5.0533    2.3184 H   0  0  0  0  0  0  0  0  0  0  0  0
    3.0964   -0.0185    2.0179 H   0  0  0  0  0  0  0  0  0  0  0  0
    3.7534   -2.7720   -1.2660 H   0  0  0  0  0  0  0  0  0  0  0  0
    5.3798    0.8118    1.7435 H   0  0  0  0  0  0  0  0  0  0  0  0
    5.9890   -1.9308   -1.5327 H   0  0  0  0  0  0  0  0  0  0  0  0
    5.6236    1.7465   -1.3827 H   0  0  0  0  0  0  0  0  0  0  0  0
    9.0190    1.2139    1.2193 H   0  0  0  0  0  0  0  0  0  0  0  0
    5.9628    4.1801   -1.3263 H   0  0  0  0  0  0  0  0  0  0  0  0
    9.3616    3.6695    1.2527 H   0  0  0  0  0  0  0  0  0  0  0  0
    7.8326    5.1532   -0.0185 H   0  0  0  0  0  0  0  0  0  0  0  0
  1 16  1  0  0  0  0
  1 25  1  0  0  0  0
  2 17  1  0  0  0  0
  2 64  1  0  0  0  0
  3 21  1  0  0  0  0
  3 65  1  0  0  0  0
  4 24  2  0  0  0  0
  5 25  2  0  0  0  0
  6 28  1  0  0  0  0
  6 74  1  0  0  0  0
  7 35  1  0  0  0  0
  7 36  1  0  0  0  0
  8 24  1  0  0  0  0
  8 26  1  0  0  0  0
  8 27  1  0  0  0  0
  9 25  1  0  0  0  0
  9 30  1  0  0  0  0
  9 73  1  0  0  0  0
 10 11  1  0  0  0  0
 10 13  1  0  0  0  0
 10 14  1  0  0  0  0
 10 20  1  0  0  0  0
 11 12  1  0  0  0  0
 11 15  1  0  0  0  0
 11 42  1  0  0  0  0
 12 16  1  0  0  0  0
 12 21  1  0  0  0  0
 12 23  1  0  0  0  0
 13 17  1  0  0  0  0
 13 22  1  0  0  0  0
 13 43  1  0  0  0  0
 14 18  1  0  0  0  0
 14 44  1  0  0  0  0
 14 45  1  0  0  0  0
 15 19  1  0  0  0  0
 15 46  1  0  0  0  0
 15 47  1  0  0  0  0
 16 18  1  0  0  0  0
 16 48  1  0  0  0  0
 17 19  1  0  0  0  0
 17 49  1  0  0  0  0
 18 50  1  0  0  0  0
 18 51  1  0  0  0  0
 19 52  1  0  0  0  0
 19 53  1  0  0  0  0
 20 54  1  0  0  0  0
 20 55  1  0  0  0  0
 20 56  1  0  0  0  0
 21 57  1  0  0  0  0
 21 58  1  0  0  0  0
 22 24  1  0  0  0  0
 22 59  1  0  0  0  0
 22 60  1  0  0  0  0
 23 61  1  0  0  0  0
 23 62  1  0  0  0  0
 23 63  1  0  0  0  0
 26 28  1  0  0  0  0
 26 66  1  0  0  0  0
 26 67  1  0  0  0  0
 27 29  1  0  0  0  0
 27 68  1  0  0  0  0
 27 69  1  0  0  0  0
 28 29  1  0  0  0  0
 28 70  1  0  0  0  0
 29 71  1  0  0  0  0
 29 72  1  0  0  0  0
 30 31  2  0  0  0  0
 30 32  1  0  0  0  0
 31 33  1  0  0  0  0
 31 75  1  0  0  0  0
 32 34  2  0  0  0  0
 32 76  1  0  0  0  0
 33 35  2  0  0  0  0
 33 77  1  0  0  0  0
 34 35  1  0  0  0  0
 34 78  1  0  0  0  0
 36 37  2  0  0  0  0
 36 38  1  0  0  0  0
 37 39  1  0  0  0  0
 37 79  1  0  0  0  0
 38 40  2  0  0  0  0
 38 80  1  0  0  0  0
 39 41  2  0  0  0  0
 39 81  1  0  0  0  0
 40 41  1  0  0  0  0
 40 82  1  0  0  0  0
 41 83  1  0  0  0  0
M  END
> <PUBCHEM_COMPOUND_CID>
23757048

> <PUBCHEM_CONFORMER_RMSD>
1.2

> <PUBCHEM_CONFORMER_DIVERSEORDER>
1
3
55
92
93
110
36
83
41
94
38
115
114
80
123
119
116
76
24
65
54
78
22
66
117
72
118
18
109
45
58
81
50
47
15
108
56
9
86
120
44
31
60
113
63
103
19
102
40
71
42
16
35
8
98
77
100
104
85
10
95
59
30
106
61
101
27
62
57
43
51
34
67
33
87
29
121
111
14
82
70
20
17
5
52
11
79
73
89
97
75
122
53
6
32
49
112
2
12
69
105
90
88
37
96
107
46
99
26
84
39
64
68
48
7
28
74
23
91
25
21
4
13

> <PUBCHEM_MMFF94_PARTIAL_CHARGES>
43
1 -0.43
16 0.28
17 0.28
2 -0.68
21 0.28
22 0.06
24 0.57
25 0.78
26 0.3
27 0.3
28 0.28
3 -0.68
30 0.12
31 -0.15
32 -0.15
33 -0.15
34 -0.15
35 0.08
36 0.08
37 -0.15
38 -0.15
39 -0.15
4 -0.57
40 -0.15
41 -0.15
5 -0.57
6 -0.68
64 0.4
65 0.4
7 -0.17
73 0.37
74 0.4
75 0.15
76 0.15
77 0.15
78 0.15
79 0.15
8 -0.66
80 0.15
81 0.15
82 0.15
83 0.15
9 -0.55

> <PUBCHEM_EFFECTIVE_ROTOR_COUNT>
12.6

> <PUBCHEM_PHARMACOPHORE_FEATURES>
15
1 2 acceptor
1 2 donor
1 3 acceptor
1 3 donor
1 4 acceptor
1 5 acceptor
1 6 acceptor
1 6 donor
1 7 acceptor
1 9 donor
5 8 26 27 28 29 rings
6 10 11 12 14 16 18 rings
6 10 11 13 15 17 19 rings
6 30 31 32 33 34 35 rings
6 36 37 38 39 40 41 rings

> <PUBCHEM_HEAVY_ATOM_COUNT>
41

> <PUBCHEM_ATOM_DEF_STEREO_COUNT>
6

> <PUBCHEM_ATOM_UDEF_STEREO_COUNT>
1

> <PUBCHEM_BOND_DEF_STEREO_COUNT>
0

> <PUBCHEM_BOND_UDEF_STEREO_COUNT>
0

> <PUBCHEM_ISOTOPIC_ATOM_COUNT>
0

> <PUBCHEM_COMPONENT_COUNT>
1

> <PUBCHEM_CACTVS_TAUTO_COUNT>
2

> <PUBCHEM_CONFORMER_ID>
016A80F800000001

> <PUBCHEM_MMFF94_ENERGY>
161.0377

> <PUBCHEM_FEATURE_SELFOVERLAP>
76.143

> <PUBCHEM_SHAPE_FINGERPRINT>
10625338 131 18410284797553382544
10675989 125 17907296550931371162
11007060 377 18409172125095882331
11477941 20 17911790585625084174
11505856 67 18411407428357103543
11578080 2 17979361859601020627
11621639 148 18336838606292391771
11621639 254 18270387391625736477
11761917 142 18339916130484981600
11828422 8 17984991388346106470
12013929 29 18198906899158250188
12581076 85 18197212770377744832
13726171 33 18410856521185934632
13782708 43 11241975880313895158
14251764 75 18194120720362153385
14415360 78 18262785268888655757
14664723 55 18199469874528242344
15183329 4 15338574837977149662
15361156 5 18270675501578040414
15448158 71 18340765961992493938
16728433 281 18336560391190740196
18603816 31 12829482709995059163
19053607 189 18269821052674209920
19304144 158 18200310061269145222
19309040 13 18058725780454606997
20609170 109 17097230539334897329
20691028 202 18339356362590441452
21033648 29 18190468159978179151
23191077 185 18410281524319252466
23569914 152 10847208449938850465
23569914 2 16592507131171232125
23729398 52 16826713501434205031
24893989 43 10991420849276258365
3418910 222 17903085760773687366
3525247 154 18202279247318081208
3918712 181 18334565807555090013
4144715 1 18261962942277345906
4616759 239 17315347279102305642
50009960 94 9799120778924852508
5223283 242 16907795332782802327
5265222 85 18411417289591732017
59584819 99 17190673273821061081
6036956 94 18409734005581341357
6201320 215 18339636858704375416

> <PUBCHEM_SHAPE_MULTIPOLES>
792.71
22.23
8.82
1.48
51.94
5.79
-0.03
30
1.68
-12.9
1.23
-1.54
0.28
-0.05

> <PUBCHEM_SHAPE_SELFOVERLAP>
1696.714

> <PUBCHEM_SHAPE_VOLUME>
433.1

> <PUBCHEM_COORDINATE_TYPE>
2
5
10

$$$$
