44715958
  -OEChem-12032416153D

 57 60  0     1  0  0  0  0  0999 V2000
    1.5478   -0.8962   -1.2689 O   0  0  0  0  0  0  0  0  0  0  0  0
    5.9704   -2.3365    0.4123 O   0  0  0  0  0  0  0  0  0  0  0  0
    0.5998    2.8055   -0.7807 N   0  0  2  0  0  0  0  0  0  0  0  0
    3.4775   -1.0863    0.0080 N   0  0  0  0  0  0  0  0  0  0  0  0
   -2.6366    0.7609   -0.6505 N   0  0  0  0  0  0  0  0  0  0  0  0
   -3.5020    1.5054    0.0569 N   0  0  0  0  0  0  0  0  0  0  0  0
   -4.4748    0.6981    0.4654 N   0  0  0  0  0  0  0  0  0  0  0  0
    1.4795    1.2739    1.1304 C   0  0  2  0  0  0  0  0  0  0  0  0
    2.2868    1.0679   -0.1657 C   0  0  2  0  0  0  0  0  0  0  0  0
   -0.5262    2.0343   -0.1896 C   0  0  2  0  0  0  0  0  0  0  0  0
   -0.0112    1.0065    0.8418 C   0  0  0  0  0  0  0  0  0  0  0  0
    1.6138    2.7607    1.5056 C   0  0  0  0  0  0  0  0  0  0  0  0
    1.6393    1.8824   -1.2998 C   0  0  0  0  0  0  0  0  0  0  0  0
    1.2064    3.6252    0.2979 C   0  0  0  0  0  0  0  0  0  0  0  0
   -1.4075    1.3789   -1.2552 C   0  0  0  0  0  0  0  0  0  0  0  0
    2.3957   -0.3916   -0.5286 C   0  0  0  0  0  0  0  0  0  0  0  0
    3.6611   -2.5050   -0.2975 C   0  0  0  0  0  0  0  0  0  0  0  0
    4.4293   -0.5534    0.9886 C   0  0  0  0  0  0  0  0  0  0  0  0
   -3.0299   -0.5404   -0.7145 C   0  0  0  0  0  0  0  0  0  0  0  0
    5.1162   -2.7897   -0.6414 C   0  0  0  0  0  0  0  0  0  0  0  0
    5.8541   -0.9230    0.5954 C   0  0  0  0  0  0  0  0  0  0  0  0
   -4.2006   -0.5584    0.0012 C   0  0  0  0  0  0  0  0  0  0  0  0
   -5.0941   -1.6883    0.2867 C   0  0  0  0  0  0  0  0  0  0  0  0
   -5.6576   -2.3393   -1.0246 C   0  0  0  0  0  0  0  0  0  0  0  0
   -4.3653   -2.8291    1.0793 C   0  0  0  0  0  0  0  0  0  0  0  0
   -6.3721   -1.3627    1.1474 C   0  0  0  0  0  0  0  0  0  0  0  0
    1.8327    0.6313    1.9434 H   0  0  0  0  0  0  0  0  0  0  0  0
    3.2866    1.4972   -0.0586 H   0  0  0  0  0  0  0  0  0  0  0  0
   -1.1616    2.7554    0.3445 H   0  0  0  0  0  0  0  0  0  0  0  0
   -0.5857    1.1072    1.7714 H   0  0  0  0  0  0  0  0  0  0  0  0
   -0.1464   -0.0256    0.5015 H   0  0  0  0  0  0  0  0  0  0  0  0
    0.9742    2.9896    2.3664 H   0  0  0  0  0  0  0  0  0  0  0  0
    2.6459    2.9894    1.7963 H   0  0  0  0  0  0  0  0  0  0  0  0
    1.2246    1.2715   -2.1078 H   0  0  0  0  0  0  0  0  0  0  0  0
    2.4149    2.4824   -1.7959 H   0  0  0  0  0  0  0  0  0  0  0  0
    0.5021    4.4034    0.6171 H   0  0  0  0  0  0  0  0  0  0  0  0
    2.0792    4.1640   -0.0925 H   0  0  0  0  0  0  0  0  0  0  0  0
   -1.7873    2.1101   -1.9781 H   0  0  0  0  0  0  0  0  0  0  0  0
   -0.9027    0.5722   -1.7962 H   0  0  0  0  0  0  0  0  0  0  0  0
    3.3696   -3.0574    0.6036 H   0  0  0  0  0  0  0  0  0  0  0  0
    3.0065   -2.8203   -1.1156 H   0  0  0  0  0  0  0  0  0  0  0  0
    4.3568    0.5183    1.1582 H   0  0  0  0  0  0  0  0  0  0  0  0
    4.1770   -1.0406    1.9389 H   0  0  0  0  0  0  0  0  0  0  0  0
   -2.4686   -1.3022   -1.2368 H   0  0  0  0  0  0  0  0  0  0  0  0
    5.4088   -2.3019   -1.5788 H   0  0  0  0  0  0  0  0  0  0  0  0
    5.2711   -3.8664   -0.7608 H   0  0  0  0  0  0  0  0  0  0  0  0
    6.5500   -0.6304    1.3879 H   0  0  0  0  0  0  0  0  0  0  0  0
    6.1592   -0.4120   -0.3254 H   0  0  0  0  0  0  0  0  0  0  0  0
   -4.8448   -2.7103   -1.6596 H   0  0  0  0  0  0  0  0  0  0  0  0
   -6.2243   -1.6046   -1.6083 H   0  0  0  0  0  0  0  0  0  0  0  0
   -6.3197   -3.1841   -0.8038 H   0  0  0  0  0  0  0  0  0  0  0  0
   -3.9856   -2.4531    2.0365 H   0  0  0  0  0  0  0  0  0  0  0  0
   -3.5100   -3.2161    0.5134 H   0  0  0  0  0  0  0  0  0  0  0  0
   -5.0365   -3.6705    1.2851 H   0  0  0  0  0  0  0  0  0  0  0  0
   -6.9926   -0.6111    0.6457 H   0  0  0  0  0  0  0  0  0  0  0  0
   -6.0850   -0.9555    2.1237 H   0  0  0  0  0  0  0  0  0  0  0  0
   -6.9871   -2.2533    1.3176 H   0  0  0  0  0  0  0  0  0  0  0  0
  1 16  2  0  0  0  0
  2 20  1  0  0  0  0
  2 21  1  0  0  0  0
  3 10  1  0  0  0  0
  3 13  1  0  0  0  0
  3 14  1  0  0  0  0
  4 16  1  0  0  0  0
  4 17  1  0  0  0  0
  4 18  1  0  0  0  0
  5  6  1  0  0  0  0
  5 15  1  0  0  0  0
  5 19  1  0  0  0  0
  6  7  2  0  0  0  0
  7 22  1  0  0  0  0
  8  9  1  0  0  0  0
  8 11  1  0  0  0  0
  8 12  1  0  0  0  0
  8 27  1  0  0  0  0
  9 13  1  0  0  0  0
  9 16  1  0  0  0  0
  9 28  1  0  0  0  0
 10 11  1  0  0  0  0
 10 15  1  0  0  0  0
 10 29  1  0  0  0  0
 11 30  1  0  0  0  0
 11 31  1  0  0  0  0
 12 14  1  0  0  0  0
 12 32  1  0  0  0  0
 12 33  1  0  0  0  0
 13 34  1  0  0  0  0
 13 35  1  0  0  0  0
 14 36  1  0  0  0  0
 14 37  1  0  0  0  0
 15 38  1  0  0  0  0
 15 39  1  0  0  0  0
 17 20  1  0  0  0  0
 17 40  1  0  0  0  0
 17 41  1  0  0  0  0
 18 21  1  0  0  0  0
 18 42  1  0  0  0  0
 18 43  1  0  0  0  0
 19 22  2  0  0  0  0
 19 44  1  0  0  0  0
 20 45  1  0  0  0  0
 20 46  1  0  0  0  0
 21 47  1  0  0  0  0
 21 48  1  0  0  0  0
 22 23  1  0  0  0  0
 23 24  1  0  0  0  0
 23 25  1  0  0  0  0
 23 26  1  0  0  0  0
 24 49  1  0  0  0  0
 24 50  1  0  0  0  0
 24 51  1  0  0  0  0
 25 52  1  0  0  0  0
 25 53  1  0  0  0  0
 25 54  1  0  0  0  0
 26 55  1  0  0  0  0
 26 56  1  0  0  0  0
 26 57  1  0  0  0  0
M  END
> <PUBCHEM_COMPOUND_CID>
44715958

> <PUBCHEM_CONFORMER_RMSD>
0.8

> <PUBCHEM_CONFORMER_DIVERSEORDER>
2
53
155
55
165
105
150
142
131
92
154
22
102
156
143
67
168
60
171
73
16
146
153
139
159
175
52
136
101
44
56
115
108
134
174
76
1
34
37
162
94
75
164
99
145
81
97
163
88
78
5
122
80
126
133
7
124
10
45
39
86
152
148
49
11
128
112
62
121
166
9
72
140
65
47
87
116
104
144
114
79
43
119
169
59
71
64
167
127
98
40
8
38
21
89
70
132
54
12
147
42
6
20
84
33
100
111
141
172
161
32
110
13
96
95
28
15
170
106
83
29
123
61
107
50
31
120
125
24
109
173
158
36
157
66
30
19
35
23
27
68
14
160
77
26
149
58
41
151
90
69
4
48
113
129
18
118
135
63
57
3
103
25
74
46
93
137
130
51
17
85
82
91
117
138

> <PUBCHEM_MMFF94_PARTIAL_CHARGES>
21
1 -0.57
10 0.27
13 0.27
14 0.27
15 0.26
16 0.57
17 0.3
18 0.3
19 -0.3
2 -0.56
20 0.28
21 0.28
22 0.05
23 0.18
3 -0.81
4 -0.66
44 0.15
5 0.31
6 -0.42
7 -0.23
9 0.06

> <PUBCHEM_EFFECTIVE_ROTOR_COUNT>
7.4

> <PUBCHEM_PHARMACOPHORE_FEATURES>
7
1 1 acceptor
1 2 acceptor
1 3 cation
4 23 24 25 26 hydrophobe
5 5 6 7 19 22 rings
6 2 4 17 18 20 21 rings
8 3 8 9 10 11 12 13 14 rings

> <PUBCHEM_HEAVY_ATOM_COUNT>
26

> <PUBCHEM_ATOM_DEF_STEREO_COUNT>
2

> <PUBCHEM_ATOM_UDEF_STEREO_COUNT>
1

> <PUBCHEM_BOND_DEF_STEREO_COUNT>
0

> <PUBCHEM_BOND_UDEF_STEREO_COUNT>
0

> <PUBCHEM_ISOTOPIC_ATOM_COUNT>
0

> <PUBCHEM_COMPONENT_COUNT>
1

> <PUBCHEM_CACTVS_TAUTO_COUNT>
1

> <PUBCHEM_CONFORMER_ID>
02AA4FB600000002

> <PUBCHEM_MMFF94_ENERGY>
64.2571

> <PUBCHEM_FEATURE_SELFOVERLAP>
35.522

> <PUBCHEM_SHAPE_FINGERPRINT>
10622 236 17098603580097782226
11135609 12 18335416898142570433
11405975 8 18342745130926825585
114674 6 18189048845027404083
11578080 2 14637165549722001036
11796584 16 18115579336351578388
11828532 37 17751369589234652851
12107183 9 18270412577393425585
12596602 18 16343421808097916075
12633257 1 17489311944666763095
13103583 49 18059867120995705569
13402501 40 18409449172009270595
13533116 47 18267025132375979379
13544653 18 18200583697303118140
13631057 29 18263362495898534282
13690498 29 17894631418509848765
13740256 8 18409448072597206912
13955234 65 18125161790599482689
14251751 18 18334014969098031367
14251764 30 18410291372357041066
14347424 109 18270973444377242721
14420673 8 18338521824848864235
14866123 147 18123192295271113545
14955137 171 18130790049145830438
15352361 1 18409166593120002079
15475509 84 17918284138443393681
15927050 60 17767400550471419836
16110190 28 18272651251011587350
17138139 8 17676486129737141218
17492 89 18337954623077974619
19315092 285 17487892522563831835
1979834 28 17346330279716787831
20567600 70 18407759248686328914
20775530 9 18336260167705543383
21033650 10 16226313838646934525
21475661 188 9943515332784258770
21521721 280 18053109711769314200
22950370 63 18411421670315442004
23379529 103 18334299789923168691
23559900 14 18261389001190565821
2838139 119 9006765480619656114
314194 84 18271799146816794430
316301 35 18336264647298248667
329604 57 18334298656505236398
3421961 26 18340204193028498081
46194498 28 17458907153386026164
5104073 3 18200886179323407737
5486654 36 18337118886687419225
6327066 14 9511166444051764818
636775 8 18127137377963852966
7808743 9 8827760052352121226
7970288 3 18337108956349205146

> <PUBCHEM_SHAPE_MULTIPOLES>
498.42
14.08
3.98
1.26
7.92
0.67
-0.04
-16.31
-2.55
-2.4
-0.13
0.18
0.19
0.82

> <PUBCHEM_SHAPE_SELFOVERLAP>
1045.794

> <PUBCHEM_SHAPE_VOLUME>
278.7

> <PUBCHEM_COORDINATE_TYPE>
2
5
10

$$$$
