40779107
  -OEChem-12032416163D

 69 73  0     1  0  0  0  0  0999 V2000
   -1.1116   -4.7546    1.2098 Cl  0  0  0  0  0  0  0  0  0  0  0  0
    5.8197    0.3246   -4.4995 Cl  0  0  0  0  0  0  0  0  0  0  0  0
   -5.5569   -0.9983   -1.1453 S   0  0  0  0  0  0  0  0  0  0  0  0
    4.9033   -0.9059    1.5861 S   0  0  0  0  0  0  0  0  0  0  0  0
   -5.5199   -1.1137   -2.5908 O   0  0  0  0  0  0  0  0  0  0  0  0
   -6.7806   -1.2852   -0.4218 O   0  0  0  0  0  0  0  0  0  0  0  0
    4.8503   -2.3435    1.7440 O   0  0  0  0  0  0  0  0  0  0  0  0
    5.8386   -0.1062    2.3476 O   0  0  0  0  0  0  0  0  0  0  0  0
   -2.1698    3.0201   -1.1454 N   0  0  2  0  0  0  0  0  0  0  0  0
    0.7397    0.9071    1.3454 N   0  0  0  0  0  0  0  0  0  0  0  0
   -4.9876    0.5411   -0.6895 N   0  0  0  0  0  0  0  0  0  0  0  0
    3.3289   -0.2629    1.7876 N   0  0  0  0  0  0  0  0  0  0  0  0
   -2.2529    3.3027    1.4392 C   0  0  2  0  0  0  0  0  0  0  0  0
   -0.9177    2.6615    0.9969 C   0  0  2  0  0  0  0  0  0  0  0  0
   -3.4192    2.4178   -0.6070 C   0  0  2  0  0  0  0  0  0  0  0  0
   -3.4244    2.4383    0.9378 C   0  0  0  0  0  0  0  0  0  0  0  0
   -0.9829    2.3860   -0.5222 C   0  0  0  0  0  0  0  0  0  0  0  0
   -2.3530    4.6647    0.7261 C   0  0  0  0  0  0  0  0  0  0  0  0
   -2.1659    4.4596   -0.7876 C   0  0  0  0  0  0  0  0  0  0  0  0
   -0.5653    1.4009    1.7832 C   0  0  0  0  0  0  0  0  0  0  0  0
   -3.6741    1.0128   -1.1576 C   0  0  0  0  0  0  0  0  0  0  0  0
    1.8214    1.6788    1.9735 C   0  0  0  0  0  0  0  0  0  0  0  0
    0.8811   -0.5229    1.6536 C   0  0  0  0  0  0  0  0  0  0  0  0
    3.1874    1.1913    1.4929 C   0  0  0  0  0  0  0  0  0  0  0  0
    2.2287   -1.0537    1.1664 C   0  0  0  0  0  0  0  0  0  0  0  0
   -4.3052   -2.0559   -0.4823 C   0  0  0  0  0  0  0  0  0  0  0  0
    5.1610   -0.5597   -0.1258 C   0  0  0  0  0  0  0  0  0  0  0  0
   -4.4272   -2.5522    0.8157 C   0  0  0  0  0  0  0  0  0  0  0  0
   -3.1956   -2.3943   -1.2569 C   0  0  0  0  0  0  0  0  0  0  0  0
    5.7378    0.6496   -0.5136 C   0  0  0  0  0  0  0  0  0  0  0  0
    4.7881   -1.4957   -1.0904 C   0  0  0  0  0  0  0  0  0  0  0  0
   -3.4396   -3.3867    1.3390 C   0  0  0  0  0  0  0  0  0  0  0  0
   -2.2080   -3.2287   -0.7337 C   0  0  0  0  0  0  0  0  0  0  0  0
    5.9415    0.9232   -1.8661 C   0  0  0  0  0  0  0  0  0  0  0  0
    4.9917   -1.2222   -2.4429 C   0  0  0  0  0  0  0  0  0  0  0  0
   -2.3301   -3.7249    0.5642 C   0  0  0  0  0  0  0  0  0  0  0  0
    5.5684   -0.0128   -2.8308 C   0  0  0  0  0  0  0  0  0  0  0  0
   -2.2972    3.4316    2.5257 H   0  0  0  0  0  0  0  0  0  0  0  0
   -0.1461    3.4221    1.1717 H   0  0  0  0  0  0  0  0  0  0  0  0
   -4.2601    3.0368   -0.9540 H   0  0  0  0  0  0  0  0  0  0  0  0
   -3.3583    1.4333    1.3673 H   0  0  0  0  0  0  0  0  0  0  0  0
   -4.3696    2.8697    1.2918 H   0  0  0  0  0  0  0  0  0  0  0  0
   -0.0771    2.7838   -0.9991 H   0  0  0  0  0  0  0  0  0  0  0  0
   -0.9696    1.3154   -0.7537 H   0  0  0  0  0  0  0  0  0  0  0  0
   -1.5889    5.3528    1.1060 H   0  0  0  0  0  0  0  0  0  0  0  0
   -3.3297    5.1215    0.9270 H   0  0  0  0  0  0  0  0  0  0  0  0
   -2.9587    4.9833   -1.3359 H   0  0  0  0  0  0  0  0  0  0  0  0
   -1.2271    4.9216   -1.1187 H   0  0  0  0  0  0  0  0  0  0  0  0
   -1.3297    0.6395    1.5865 H   0  0  0  0  0  0  0  0  0  0  0  0
   -0.5878    1.5896    2.8641 H   0  0  0  0  0  0  0  0  0  0  0  0
   -2.9005    0.3290   -0.8014 H   0  0  0  0  0  0  0  0  0  0  0  0
   -3.6611    1.0213   -2.2527 H   0  0  0  0  0  0  0  0  0  0  0  0
    1.7702    1.5966    3.0678 H   0  0  0  0  0  0  0  0  0  0  0  0
    1.7523    2.7420    1.7239 H   0  0  0  0  0  0  0  0  0  0  0  0
    0.0904   -1.0947    1.1526 H   0  0  0  0  0  0  0  0  0  0  0  0
    0.7814   -0.6973    2.7333 H   0  0  0  0  0  0  0  0  0  0  0  0
   -5.3084    0.8991    0.2180 H   0  0  0  0  0  0  0  0  0  0  0  0
    3.2692    1.3797    0.4176 H   0  0  0  0  0  0  0  0  0  0  0  0
    3.9661    1.7576    2.0141 H   0  0  0  0  0  0  0  0  0  0  0  0
    2.3105   -2.1062    1.4558 H   0  0  0  0  0  0  0  0  0  0  0  0
    2.2754   -0.9853    0.0745 H   0  0  0  0  0  0  0  0  0  0  0  0
   -5.2789   -2.2955    1.4392 H   0  0  0  0  0  0  0  0  0  0  0  0
   -3.0785   -2.0150   -2.2681 H   0  0  0  0  0  0  0  0  0  0  0  0
    6.0350    1.3939    0.2198 H   0  0  0  0  0  0  0  0  0  0  0  0
    4.3350   -2.4428   -0.8116 H   0  0  0  0  0  0  0  0  0  0  0  0
   -3.5467   -3.7645    2.3526 H   0  0  0  0  0  0  0  0  0  0  0  0
   -1.3478   -3.4824   -1.3479 H   0  0  0  0  0  0  0  0  0  0  0  0
    6.3915    1.8698   -2.1538 H   0  0  0  0  0  0  0  0  0  0  0  0
    4.6954   -1.9604   -3.1838 H   0  0  0  0  0  0  0  0  0  0  0  0
  1 36  1  0  0  0  0
  2 37  1  0  0  0  0
  3  5  2  0  0  0  0
  3  6  2  0  0  0  0
  3 11  1  0  0  0  0
  3 26  1  0  0  0  0
  4  7  2  0  0  0  0
  4  8  2  0  0  0  0
  4 12  1  0  0  0  0
  4 27  1  0  0  0  0
  9 15  1  0  0  0  0
  9 17  1  0  0  0  0
  9 19  1  0  0  0  0
 10 20  1  0  0  0  0
 10 22  1  0  0  0  0
 10 23  1  0  0  0  0
 11 21  1  0  0  0  0
 11 57  1  0  0  0  0
 12 24  1  0  0  0  0
 12 25  1  0  0  0  0
 13 14  1  0  0  0  0
 13 16  1  0  0  0  0
 13 18  1  0  0  0  0
 13 38  1  0  0  0  0
 14 17  1  0  0  0  0
 14 20  1  0  0  0  0
 14 39  1  0  0  0  0
 15 16  1  0  0  0  0
 15 21  1  0  0  0  0
 15 40  1  0  0  0  0
 16 41  1  0  0  0  0
 16 42  1  0  0  0  0
 17 43  1  0  0  0  0
 17 44  1  0  0  0  0
 18 19  1  0  0  0  0
 18 45  1  0  0  0  0
 18 46  1  0  0  0  0
 19 47  1  0  0  0  0
 19 48  1  0  0  0  0
 20 49  1  0  0  0  0
 20 50  1  0  0  0  0
 21 51  1  0  0  0  0
 21 52  1  0  0  0  0
 22 24  1  0  0  0  0
 22 53  1  0  0  0  0
 22 54  1  0  0  0  0
 23 25  1  0  0  0  0
 23 55  1  0  0  0  0
 23 56  1  0  0  0  0
 24 58  1  0  0  0  0
 24 59  1  0  0  0  0
 25 60  1  0  0  0  0
 25 61  1  0  0  0  0
 26 28  2  0  0  0  0
 26 29  1  0  0  0  0
 27 30  2  0  0  0  0
 27 31  1  0  0  0  0
 28 32  1  0  0  0  0
 28 62  1  0  0  0  0
 29 33  2  0  0  0  0
 29 63  1  0  0  0  0
 30 34  1  0  0  0  0
 30 64  1  0  0  0  0
 31 35  2  0  0  0  0
 31 65  1  0  0  0  0
 32 36  2  0  0  0  0
 32 66  1  0  0  0  0
 33 36  1  0  0  0  0
 33 67  1  0  0  0  0
 34 37  2  0  0  0  0
 34 68  1  0  0  0  0
 35 37  1  0  0  0  0
 35 69  1  0  0  0  0
M  END
> <PUBCHEM_COMPOUND_CID>
40779107

> <PUBCHEM_CONFORMER_RMSD>
1.4

> <PUBCHEM_CONFORMER_DIVERSEORDER>
1
39
186
113
177
148
28
180
24
48
17
99
140
182
119
101
151
84
122
41
184
141
36
188
60
105
80
61
68
152
69
109
78
100
183
189
150
95
125
70
116
96
115
118
2
42
153
161
174
50
145
166
128
114
130
18
149
163
136
187
82
12
29
35
103
73
104
31
57
94
165
110
55
179
76
157
127
121
34
142
175
111
131
108
5
77
144
75
97
6
124
14
85
106
164
102
45
181
52
160
138
139
21
169
20
143
190
123
44
56
117
132
86
146
11
173
63
58
168
137
3
93
37
172
89
30
22
38
88
170
27
112
176
25
47
171
156
185
40
83
129
178
91
162
154
155
107
23
15
134
167
71
120
51
72
66
158
64
92
135
126
159
87
59
79
67
90
74
16
43
26
81
32
4
62
7
65
49
33
13
98
53
19
8
133
10
9
147
54
46

> <PUBCHEM_MMFF94_PARTIAL_CHARGES>
42
1 -0.18
10 -0.81
11 -0.91
12 -0.85
15 0.27
17 0.27
19 0.27
2 -0.18
20 0.27
21 0.36
22 0.27
23 0.27
24 0.36
25 0.36
26 -0.01
27 -0.01
28 -0.15
29 -0.15
3 1.45
30 -0.15
31 -0.15
32 -0.15
33 -0.15
34 -0.15
35 -0.15
36 0.18
37 0.18
4 1.45
5 -0.65
57 0.42
6 -0.65
62 0.15
63 0.15
64 0.15
65 0.15
66 0.15
67 0.15
68 0.15
69 0.15
7 -0.65
8 -0.65
9 -0.81

> <PUBCHEM_EFFECTIVE_ROTOR_COUNT>
10.4

> <PUBCHEM_PHARMACOPHORE_FEATURES>
11
1 10 cation
1 11 donor
1 5 acceptor
1 6 acceptor
1 7 acceptor
1 8 acceptor
1 9 cation
6 10 12 22 23 24 25 rings
6 26 28 29 32 33 36 rings
6 27 30 31 34 35 37 rings
8 9 13 14 15 16 17 18 19 rings

> <PUBCHEM_HEAVY_ATOM_COUNT>
37

> <PUBCHEM_ATOM_DEF_STEREO_COUNT>
3

> <PUBCHEM_ATOM_UDEF_STEREO_COUNT>
0

> <PUBCHEM_BOND_DEF_STEREO_COUNT>
0

> <PUBCHEM_BOND_UDEF_STEREO_COUNT>
0

> <PUBCHEM_ISOTOPIC_ATOM_COUNT>
0

> <PUBCHEM_COMPONENT_COUNT>
1

> <PUBCHEM_CACTVS_TAUTO_COUNT>
1

> <PUBCHEM_CONFORMER_ID>
026E3D6300000001

> <PUBCHEM_MMFF94_ENERGY>
66.2469

> <PUBCHEM_FEATURE_SELFOVERLAP>
55.858

> <PUBCHEM_SHAPE_FINGERPRINT>
10462674 369 17827083106056862994
10974685 15 18268429027956344804
11200772 71 18041286564245135534
11227688 84 15766715693540721390
12422481 6 12103580653507098856
12728209 76 16805870823624635310
12788726 201 18408323306599069706
13111901 137 18202294606046908030
13383661 66 17037849368787144008
14251757 5 18335703874809084235
15001296 14 18114743866301833973
15021287 119 17024304120763473842
15328829 1 17386824180940195602
15361156 5 18131630105809931429
15406563 228 17974299720778237702
15669420 48 18200880681876681324
15950262 2 15431141488994784287
16067689 391 17557720070460300294
16708801 149 18261950743889639870
17627616 140 17977371738643146123
19958102 18 18339068294411345211
21796203 349 18118152301890026961
22440779 20 17130454383170175744
25223398 141 18190723285646520464
3044373 233 16557648325907800726
4058900 60 17623022191984549785
437795 70 18273495706302006343
4435113 14 17346052086263623620
5265222 85 18334006169523036013
563151 40 17984998003096602713
57307002 85 17988373602023916670
6201320 77 16700368289087829550

> <PUBCHEM_SHAPE_MULTIPOLES>
729.48
16.08
5.8
3.1
13.57
0.9
-2.33
-5.96
-10.04
-9.62
1.62
5.83
-0.14
-0.7

> <PUBCHEM_SHAPE_SELFOVERLAP>
1507.31

> <PUBCHEM_SHAPE_VOLUME>
420.5

> <PUBCHEM_COORDINATE_TYPE>
2
5
10

$$$$
