45784037
  -OEChem-12032416363D

 70 73  0     1  0  0  0  0  0999 V2000
   -8.1590   -3.5466    0.3884 F   0  0  0  0  0  0  0  0  0  0  0  0
   -1.8533    1.8678    0.8506 O   0  0  0  0  0  0  0  0  0  0  0  0
   -4.1530    0.1802   -0.1288 O   0  0  0  0  0  0  0  0  0  0  0  0
    4.8140   -0.9248    0.4654 N   0  0  0  0  0  0  0  0  0  0  0  0
    7.3549   -2.3035    0.5018 N   0  0  0  0  0  0  0  0  0  0  0  0
   -1.8596    3.8687   -0.1497 N   0  0  0  0  0  0  0  0  0  0  0  0
   -3.1604    3.4014   -0.1209 N   0  0  0  0  0  0  0  0  0  0  0  0
    1.2224    0.0327   -0.4737 C   0  0  1  0  0  0  0  0  0  0  0  0
    2.7711    0.0604   -0.4963 C   0  0  2  0  0  0  0  0  0  0  0  0
    0.6534    1.2516   -1.2157 C   0  0  0  0  0  0  0  0  0  0  0  0
    1.1268    2.5818   -0.5999 C   0  0  2  0  0  0  0  0  0  0  0  0
    0.6677   -1.2553   -1.0902 C   0  0  0  0  0  0  0  0  0  0  0  0
    3.3567   -0.8767    0.5663 C   0  0  0  0  0  0  0  0  0  0  0  0
    3.3403    1.4478   -0.3124 C   0  0  0  0  0  0  0  0  0  0  0  0
    2.6198    2.5830   -0.3417 C   0  0  0  0  0  0  0  0  0  0  0  0
    0.3483    2.9057    0.6802 C   0  0  0  0  0  0  0  0  0  0  0  0
    0.6425   -1.1489   -2.6116 C   0  0  0  0  0  0  0  0  0  0  0  0
   -0.7266   -1.5485   -0.5453 C   0  0  0  0  0  0  0  0  0  0  0  0
    5.2315   -1.7833   -0.6498 C   0  0  0  0  0  0  0  0  0  0  0  0
    5.4085   -1.3939    1.7230 C   0  0  0  0  0  0  0  0  0  0  0  0
    3.2750    3.9243   -0.1630 C   0  0  0  0  0  0  0  0  0  0  0  0
    6.7594   -1.8349   -0.7556 C   0  0  0  0  0  0  0  0  0  0  0  0
    6.9365   -1.4467    1.6180 C   0  0  0  0  0  0  0  0  0  0  0  0
   -1.1318    2.9418    0.4280 C   0  0  0  0  0  0  0  0  0  0  0  0
    8.8123   -2.3496    0.4006 C   0  0  0  0  0  0  0  0  0  0  0  0
   -3.1090    2.2313    0.4713 C   0  0  0  0  0  0  0  0  0  0  0  0
   -4.1925    1.2881    0.7748 C   0  0  0  0  0  0  0  0  0  0  0  0
   -5.1493   -0.7465   -0.0002 C   0  0  0  0  0  0  0  0  0  0  0  0
   -6.1333   -0.5820    0.9746 C   0  0  0  0  0  0  0  0  0  0  0  0
   -5.1820   -1.8569   -0.8438 C   0  0  0  0  0  0  0  0  0  0  0  0
   -7.1500   -1.5278    1.1059 C   0  0  0  0  0  0  0  0  0  0  0  0
   -6.1987   -2.8027   -0.7126 C   0  0  0  0  0  0  0  0  0  0  0  0
   -7.1826   -2.6382    0.2623 C   0  0  0  0  0  0  0  0  0  0  0  0
    0.9024    0.0818    0.5760 H   0  0  0  0  0  0  0  0  0  0  0  0
    3.0961   -0.2630   -1.4910 H   0  0  0  0  0  0  0  0  0  0  0  0
    1.0233    1.2677   -2.2502 H   0  0  0  0  0  0  0  0  0  0  0  0
   -0.4362    1.2093   -1.2939 H   0  0  0  0  0  0  0  0  0  0  0  0
    0.9096    3.3628   -1.3430 H   0  0  0  0  0  0  0  0  0  0  0  0
    1.2974   -2.1101   -0.8234 H   0  0  0  0  0  0  0  0  0  0  0  0
    2.9339   -1.8859    0.5116 H   0  0  0  0  0  0  0  0  0  0  0  0
    3.0672   -0.4837    1.5516 H   0  0  0  0  0  0  0  0  0  0  0  0
    4.4167    1.5345   -0.1822 H   0  0  0  0  0  0  0  0  0  0  0  0
    0.5688    2.1843    1.4762 H   0  0  0  0  0  0  0  0  0  0  0  0
    0.6400    3.8899    1.0662 H   0  0  0  0  0  0  0  0  0  0  0  0
   -0.1411   -0.4808   -2.9842 H   0  0  0  0  0  0  0  0  0  0  0  0
    0.4181   -2.1352   -3.0367 H   0  0  0  0  0  0  0  0  0  0  0  0
    1.6057   -0.8451   -3.0318 H   0  0  0  0  0  0  0  0  0  0  0  0
   -1.4459   -0.7660   -0.8047 H   0  0  0  0  0  0  0  0  0  0  0  0
   -0.7097   -1.6459    0.5454 H   0  0  0  0  0  0  0  0  0  0  0  0
   -1.1067   -2.4914   -0.9537 H   0  0  0  0  0  0  0  0  0  0  0  0
    4.8396   -2.8025   -0.5286 H   0  0  0  0  0  0  0  0  0  0  0  0
    4.8556   -1.4044   -1.6055 H   0  0  0  0  0  0  0  0  0  0  0  0
    5.1474   -0.7075    2.5378 H   0  0  0  0  0  0  0  0  0  0  0  0
    5.0207   -2.3856    1.9929 H   0  0  0  0  0  0  0  0  0  0  0  0
    2.9030    4.4205    0.7383 H   0  0  0  0  0  0  0  0  0  0  0  0
    4.3631    3.8433   -0.0680 H   0  0  0  0  0  0  0  0  0  0  0  0
    3.0678    4.5661   -1.0255 H   0  0  0  0  0  0  0  0  0  0  0  0
    7.0260   -2.5207   -1.5690 H   0  0  0  0  0  0  0  0  0  0  0  0
    7.1445   -0.8421   -1.0257 H   0  0  0  0  0  0  0  0  0  0  0  0
    7.3333   -0.4290    1.5005 H   0  0  0  0  0  0  0  0  0  0  0  0
    7.3332   -1.8449    2.5598 H   0  0  0  0  0  0  0  0  0  0  0  0
    9.2494   -2.7426    1.3252 H   0  0  0  0  0  0  0  0  0  0  0  0
    9.1203   -3.0258   -0.4046 H   0  0  0  0  0  0  0  0  0  0  0  0
    9.2462   -1.3621    0.2065 H   0  0  0  0  0  0  0  0  0  0  0  0
   -5.1376    1.8350    0.6662 H   0  0  0  0  0  0  0  0  0  0  0  0
   -4.0707    0.9409    1.8085 H   0  0  0  0  0  0  0  0  0  0  0  0
   -6.1705    0.2500    1.6690 H   0  0  0  0  0  0  0  0  0  0  0  0
   -4.4175   -1.9903   -1.6044 H   0  0  0  0  0  0  0  0  0  0  0  0
   -7.9162   -1.4018    1.8653 H   0  0  0  0  0  0  0  0  0  0  0  0
   -6.2244   -3.6675   -1.3690 H   0  0  0  0  0  0  0  0  0  0  0  0
  1 33  1  0  0  0  0
  2 24  1  0  0  0  0
  2 26  1  0  0  0  0
  3 27  1  0  0  0  0
  3 28  1  0  0  0  0
  4 13  1  0  0  0  0
  4 19  1  0  0  0  0
  4 20  1  0  0  0  0
  5 22  1  0  0  0  0
  5 23  1  0  0  0  0
  5 25  1  0  0  0  0
  6  7  1  0  0  0  0
  6 24  2  0  0  0  0
  7 26  2  0  0  0  0
  8  9  1  0  0  0  0
  8 10  1  0  0  0  0
  8 12  1  0  0  0  0
  8 34  1  0  0  0  0
  9 13  1  0  0  0  0
  9 14  1  0  0  0  0
  9 35  1  0  0  0  0
 10 11  1  0  0  0  0
 10 36  1  0  0  0  0
 10 37  1  0  0  0  0
 11 15  1  0  0  0  0
 11 16  1  0  0  0  0
 11 38  1  0  0  0  0
 12 17  1  0  0  0  0
 12 18  1  0  0  0  0
 12 39  1  0  0  0  0
 13 40  1  0  0  0  0
 13 41  1  0  0  0  0
 14 15  2  0  0  0  0
 14 42  1  0  0  0  0
 15 21  1  0  0  0  0
 16 24  1  0  0  0  0
 16 43  1  0  0  0  0
 16 44  1  0  0  0  0
 17 45  1  0  0  0  0
 17 46  1  0  0  0  0
 17 47  1  0  0  0  0
 18 48  1  0  0  0  0
 18 49  1  0  0  0  0
 18 50  1  0  0  0  0
 19 22  1  0  0  0  0
 19 51  1  0  0  0  0
 19 52  1  0  0  0  0
 20 23  1  0  0  0  0
 20 53  1  0  0  0  0
 20 54  1  0  0  0  0
 21 55  1  0  0  0  0
 21 56  1  0  0  0  0
 21 57  1  0  0  0  0
 22 58  1  0  0  0  0
 22 59  1  0  0  0  0
 23 60  1  0  0  0  0
 23 61  1  0  0  0  0
 25 62  1  0  0  0  0
 25 63  1  0  0  0  0
 25 64  1  0  0  0  0
 26 27  1  0  0  0  0
 27 65  1  0  0  0  0
 27 66  1  0  0  0  0
 28 29  2  0  0  0  0
 28 30  1  0  0  0  0
 29 31  1  0  0  0  0
 29 67  1  0  0  0  0
 30 32  2  0  0  0  0
 30 68  1  0  0  0  0
 31 33  2  0  0  0  0
 31 69  1  0  0  0  0
 32 33  1  0  0  0  0
 32 70  1  0  0  0  0
M  END
> <PUBCHEM_COMPOUND_CID>
45784037

> <PUBCHEM_CONFORMER_RMSD>
1.4

> <PUBCHEM_CONFORMER_DIVERSEORDER>
1
151
126
52
134
25
167
92
75
30
145
96
6
45
130
67
135
77
181
23
177
176
86
113
148
11
51
170
104
159
125
9
110
4
41
93
173
58
123
3
137
70
171
105
116
81
90
87
182
32
111
37
175
16
19
76
147
48
12
69
55
106
152
129
108
79
73
60
115
178
34
54
24
144
40
2
31
119
65
114
153
88
39
155
132
136
26
78
162
127
164
74
47
66
131
165
140
18
122
5
166
149
72
161
103
53
15
49
13
61
36
172
43
64
84
82
10
143
138
99
163
85
109
22
91
128
124
94
8
168
98
27
156
118
120
7
97
142
154
42
28
46
117
33
95
50
35
141
80
59
63
101
160
107
44
169
174
62
56
158
71
100
150
139
17
179
146
157
14
121
29
112
20
68
83
38
133
102
21
89
183
57
180

> <PUBCHEM_MMFF94_PARTIAL_CHARGES>
33
1 -0.19
11 0.14
13 0.27
14 -0.29
15 -0.28
16 0.18
19 0.27
2 -0.28
20 0.27
21 0.14
22 0.27
23 0.27
24 0.3
25 0.27
26 0.3
27 0.46
28 0.08
29 -0.15
3 -0.36
30 -0.15
31 -0.15
32 -0.15
33 0.19
4 -0.81
42 0.15
5 -0.81
6 -0.34
67 0.15
68 0.15
69 0.15
7 -0.34
70 0.15
9 0.14

> <PUBCHEM_EFFECTIVE_ROTOR_COUNT>
10

> <PUBCHEM_PHARMACOPHORE_FEATURES>
8
1 3 acceptor
1 4 cation
1 5 cation
3 12 17 18 hydrophobe
5 2 6 7 24 26 rings
6 28 29 30 31 32 33 rings
6 4 5 19 20 22 23 rings
6 8 9 10 11 14 15 rings

> <PUBCHEM_HEAVY_ATOM_COUNT>
33

> <PUBCHEM_ATOM_DEF_STEREO_COUNT>
3

> <PUBCHEM_ATOM_UDEF_STEREO_COUNT>
0

> <PUBCHEM_BOND_DEF_STEREO_COUNT>
0

> <PUBCHEM_BOND_UDEF_STEREO_COUNT>
0

> <PUBCHEM_ISOTOPIC_ATOM_COUNT>
0

> <PUBCHEM_COMPONENT_COUNT>
1

> <PUBCHEM_CACTVS_TAUTO_COUNT>
1

> <PUBCHEM_CONFORMER_ID>
02BA9BE500000001

> <PUBCHEM_MMFF94_ENERGY>
72.5197

> <PUBCHEM_FEATURE_SELFOVERLAP>
40.599

> <PUBCHEM_SHAPE_FINGERPRINT>
11135609 99 18410573963877542805
11136131 41 17691961987562623033
11578080 2 14763500629554762100
11963148 33 17978789335485280527
12107698 1 18409450288578746771
12166972 35 17895196640569431023
12422481 6 17775565347171432079
12522641 126 17968669315148304716
131258 38 18049711116451772391
13383668 362 18270671091411687896
1361 4 18192433198190304411
13782708 43 17822282509588159991
14068700 675 18408323280559928808
14117953 113 18272089362774528845
14429380 30 18408045117303638171
14725015 67 18411698803538957739
14910700 183 17766269156384567152
15347591 1 18409449193600606341
15803439 3 14273456989730917769
17492 89 18409449197868874957
19303781 99 18336816572060221167
19841028 212 18334858376822664555
20028762 73 18413392024959244638
208703 8 18409443700415744115
23569914 152 11604192316779647736
23729417 116 18189619350551797932
25269216 80 18339934715235694318
255183 313 17060327531207698638
3383291 50 18335417976090418890
3680242 22 18269285715339593771
397830 11 18130211702146473920
406291 66 18408321103291513379
439807 62 18334859476698054755
5104073 3 18202569488280942009
5718773 13 18409449198010384089
5874358 3 17241028913633424738
6691757 9 18126004863385452681
6712543 237 16487259885231747495

> <PUBCHEM_SHAPE_MULTIPOLES>
640.19
22.05
4.94
1.36
1.25
3.77
0.28
-30.06
-7.54
2.11
-0.07
-0.81
-0.61
-1.27

> <PUBCHEM_SHAPE_SELFOVERLAP>
1339.672

> <PUBCHEM_SHAPE_VOLUME>
365.7

> <PUBCHEM_COORDINATE_TYPE>
2
5
10

$$$$
