56775668
  -OEChem-12032416323D

 45 46  0     0  0  0  0  0  0999 V2000
    0.9261    1.6399   -1.5817 O   0  0  0  0  0  0  0  0  0  0  0  0
   -2.0537   -1.8484   -0.4435 O   0  0  0  0  0  0  0  0  0  0  0  0
    3.1949    0.3258   -0.0719 N   0  0  0  0  0  0  0  0  0  0  0  0
   -0.6665   -1.9163   -0.4005 N   0  0  0  0  0  0  0  0  0  0  0  0
    1.7426    0.2681   -0.1650 C   0  0  0  0  0  0  0  0  0  0  0  0
    1.3451    0.2573   -1.6366 C   0  0  0  0  0  0  0  0  0  0  0  0
    1.1933    1.6901   -0.1617 C   0  0  0  0  0  0  0  0  0  0  0  0
    1.1241   -0.7713    0.7793 C   0  0  0  0  0  0  0  0  0  0  0  0
    3.6012    0.3615    1.3381 C   0  0  0  0  0  0  0  0  0  0  0  0
    3.7816   -0.8456   -0.7337 C   0  0  0  0  0  0  0  0  0  0  0  0
   -0.3017   -0.9795    0.4794 C   0  0  0  0  0  0  0  0  0  0  0  0
    3.0253    1.5769    2.0448 C   0  0  0  0  0  0  0  0  0  0  0  0
    5.2987   -0.8179   -0.6556 C   0  0  0  0  0  0  0  0  0  0  0  0
   -1.4047   -0.2953    1.0186 C   0  0  0  0  0  0  0  0  0  0  0  0
   -2.4815   -0.8794    0.4056 C   0  0  0  0  0  0  0  0  0  0  0  0
   -3.9734   -0.6658    0.4876 C   0  0  0  0  0  0  0  0  0  0  0  0
   -4.4138    0.7792    0.1820 C   0  0  0  0  0  0  0  0  0  0  0  0
   -5.9310    0.9033    0.3419 C   0  0  0  0  0  0  0  0  0  0  0  0
   -4.0067    1.2176   -1.2270 C   0  0  0  0  0  0  0  0  0  0  0  0
    2.0945    0.1728   -2.4267 H   0  0  0  0  0  0  0  0  0  0  0  0
    0.5076   -0.3682   -1.9516 H   0  0  0  0  0  0  0  0  0  0  0  0
    0.2690    1.8672    0.3951 H   0  0  0  0  0  0  0  0  0  0  0  0
    1.8635    2.5325    0.0224 H   0  0  0  0  0  0  0  0  0  0  0  0
    1.1928   -0.4703    1.8303 H   0  0  0  0  0  0  0  0  0  0  0  0
    1.6258   -1.7430    0.7072 H   0  0  0  0  0  0  0  0  0  0  0  0
    4.6868    0.4980    1.4023 H   0  0  0  0  0  0  0  0  0  0  0  0
    3.3843   -0.5582    1.8941 H   0  0  0  0  0  0  0  0  0  0  0  0
    3.5568   -0.8896   -1.8008 H   0  0  0  0  0  0  0  0  0  0  0  0
    3.4419   -1.7950   -0.3055 H   0  0  0  0  0  0  0  0  0  0  0  0
    3.3109    2.5109    1.5500 H   0  0  0  0  0  0  0  0  0  0  0  0
    1.9475    1.5490    2.2134 H   0  0  0  0  0  0  0  0  0  0  0  0
    3.4690    1.6308    3.0475 H   0  0  0  0  0  0  0  0  0  0  0  0
    5.7028    0.1554   -0.9546 H   0  0  0  0  0  0  0  0  0  0  0  0
    5.6733   -1.0698    0.3413 H   0  0  0  0  0  0  0  0  0  0  0  0
    5.7152   -1.5659   -1.3401 H   0  0  0  0  0  0  0  0  0  0  0  0
   -1.4191    0.5017    1.7472 H   0  0  0  0  0  0  0  0  0  0  0  0
   -4.4735   -1.3594   -0.2006 H   0  0  0  0  0  0  0  0  0  0  0  0
   -4.2956   -0.9410    1.4998 H   0  0  0  0  0  0  0  0  0  0  0  0
   -3.9382    1.4590    0.9005 H   0  0  0  0  0  0  0  0  0  0  0  0
   -6.2580    1.9333    0.1638 H   0  0  0  0  0  0  0  0  0  0  0  0
   -6.2385    0.6269    1.3559 H   0  0  0  0  0  0  0  0  0  0  0  0
   -6.4607    0.2530   -0.3627 H   0  0  0  0  0  0  0  0  0  0  0  0
   -4.3684    2.2301   -1.4366 H   0  0  0  0  0  0  0  0  0  0  0  0
   -2.9186    1.2306   -1.3452 H   0  0  0  0  0  0  0  0  0  0  0  0
   -4.4231    0.5471   -1.9866 H   0  0  0  0  0  0  0  0  0  0  0  0
  1  6  1  0  0  0  0
  1  7  1  0  0  0  0
  2  4  1  0  0  0  0
  2 15  1  0  0  0  0
  3  5  1  0  0  0  0
  3  9  1  0  0  0  0
  3 10  1  0  0  0  0
  4 11  2  0  0  0  0
  5  6  1  0  0  0  0
  5  7  1  0  0  0  0
  5  8  1  0  0  0  0
  6 20  1  0  0  0  0
  6 21  1  0  0  0  0
  7 22  1  0  0  0  0
  7 23  1  0  0  0  0
  8 11  1  0  0  0  0
  8 24  1  0  0  0  0
  8 25  1  0  0  0  0
  9 12  1  0  0  0  0
  9 26  1  0  0  0  0
  9 27  1  0  0  0  0
 10 13  1  0  0  0  0
 10 28  1  0  0  0  0
 10 29  1  0  0  0  0
 11 14  1  0  0  0  0
 12 30  1  0  0  0  0
 12 31  1  0  0  0  0
 12 32  1  0  0  0  0
 13 33  1  0  0  0  0
 13 34  1  0  0  0  0
 13 35  1  0  0  0  0
 14 15  2  0  0  0  0
 14 36  1  0  0  0  0
 15 16  1  0  0  0  0
 16 17  1  0  0  0  0
 16 37  1  0  0  0  0
 16 38  1  0  0  0  0
 17 18  1  0  0  0  0
 17 19  1  0  0  0  0
 17 39  1  0  0  0  0
 18 40  1  0  0  0  0
 18 41  1  0  0  0  0
 18 42  1  0  0  0  0
 19 43  1  0  0  0  0
 19 44  1  0  0  0  0
 19 45  1  0  0  0  0
M  END
> <PUBCHEM_COMPOUND_CID>
56775668

> <PUBCHEM_CONFORMER_RMSD>
0.8

> <PUBCHEM_CONFORMER_DIVERSEORDER>
1
31
24
29
14
25
12
19
18
30
6
22
26
28
16
13
27
11
20
4
21
10
7
8
23
15
2
3
9
5
17

> <PUBCHEM_MMFF94_PARTIAL_CHARGES>
15
1 -0.52
10 0.27
11 0.11
14 -0.15
15 -0.04
16 0.18
2 -0.02
3 -0.75
36 0.15
4 -0.41
5 0.21
6 0.26
7 0.26
8 0.18
9 0.27

> <PUBCHEM_EFFECTIVE_ROTOR_COUNT>
7.8

> <PUBCHEM_PHARMACOPHORE_FEATURES>
6
1 1 acceptor
1 3 cation
1 4 acceptor
3 17 18 19 hydrophobe
4 1 5 6 7 rings
5 2 4 11 14 15 rings

> <PUBCHEM_HEAVY_ATOM_COUNT>
19

> <PUBCHEM_ATOM_DEF_STEREO_COUNT>
0

> <PUBCHEM_ATOM_UDEF_STEREO_COUNT>
0

> <PUBCHEM_BOND_DEF_STEREO_COUNT>
0

> <PUBCHEM_BOND_UDEF_STEREO_COUNT>
0

> <PUBCHEM_ISOTOPIC_ATOM_COUNT>
0

> <PUBCHEM_COMPONENT_COUNT>
1

> <PUBCHEM_CACTVS_TAUTO_COUNT>
1

> <PUBCHEM_CONFORMER_ID>
036253F400000001

> <PUBCHEM_MMFF94_ENERGY>
42.8902

> <PUBCHEM_FEATURE_SELFOVERLAP>
30.446

> <PUBCHEM_SHAPE_FINGERPRINT>
10354089 29 17676211260424886161
10646746 165 18412823594663950785
106641 1 13335037018559295305
11646440 116 18343311353503025369
11961588 58 12462709850705818498
12011746 2 17703801305938059262
12166972 35 18412268354572620753
12403259 415 18272092737943667907
12500047 106 18129942411628010374
12507560 40 18130223890746623242
12596602 18 14923950029133562561
12633257 1 17022620888546184073
12670546 177 16415188006153496377
128620 24 10592045747608970555
13134695 92 17418372510825496368
13583140 156 17345183600768482034
13675066 3 18338801216349633755
14178342 30 17971177364962625554
14251752 14 17968098565227863406
14251764 38 17561367266287768601
14341114 176 15791739581360778961
15099037 51 18408610248894756471
15207287 21 15410900651667515718
15238133 3 17167855335887288232
15295992 7 17822302335326042705
15531645 54 18341336604232232006
15788980 27 16845573114951505175
1601671 61 17967251966553331486
16945 1 17676756686722147386
17349148 13 15482678974220976830
17834072 8 18412268311100493767
18186145 218 18342736325689662395
19078846 21 17385433332642422572
192875 21 16415483748547237218
19433438 38 14333130733023545457
200 152 15482673459382683603
20233049 118 17821453456171764420
20261772 1 18040432183586021141
20645477 56 18342454889473191483
20645477 70 17203618107259195374
21033648 29 18341886411548882913
21079973 296 10952042360255093375
21285901 2 18191598453836876846
21503847 285 17676493873051251268
21524375 3 18333735728221953707
22892500 29 17775000206927231304
23402539 116 16988847142166788305
23557571 272 18059294391581151019
23559900 14 17775283893970426666
312423 11 17605848134059566695
347723 3 16732708246914232166
351380 180 17561362872335101393
3545911 37 18335424543659000451
495365 180 17561072627557574082
5385378 56 18264494971162872267
58051976 378 12607407680548301801
6328613 192 18339090362618236132
633830 44 17967815002358963498
6913067 236 13470401115547074051
7164475 11 17979073017917218343
7832392 63 18335980960334187603
9971528 1 18410291432459962492

> <PUBCHEM_SHAPE_MULTIPOLES>
369.31
10.54
1.71
1.47
7
0.02
0.02
1.57
-0.03
0.01
0
-0.93
0.58
1.08

> <PUBCHEM_SHAPE_SELFOVERLAP>
749.132

> <PUBCHEM_SHAPE_VOLUME>
219.4

> <PUBCHEM_COORDINATE_TYPE>
2
5
10

$$$$
