75536749
  -OEChem-12032416343D

 52 54  0     1  0  0  0  0  0999 V2000
   -7.2269    0.6553   -0.4062 F   0  0  0  0  0  0  0  0  0  0  0  0
   -7.5901   -1.2985   -1.2888 F   0  0  0  0  0  0  0  0  0  0  0  0
    0.5112   -0.8116    0.7237 O   0  0  0  0  0  0  0  0  0  0  0  0
   -0.6145    2.5243    0.0091 O   0  0  0  0  0  0  0  0  0  0  0  0
    7.6883   -1.3353   -0.5057 O   0  0  0  0  0  0  0  0  0  0  0  0
    3.8049    1.7138   -0.8303 O   0  0  0  0  0  0  0  0  0  0  0  0
   -2.8543    0.5446    0.9781 N   0  0  0  0  0  0  0  0  0  0  0  0
    3.1694    0.3009    0.8622 N   0  0  0  0  0  0  0  0  0  0  0  0
    5.1330   -0.1341   -0.3801 N   0  0  0  0  0  0  0  0  0  0  0  0
   -1.5569    0.3011    0.3688 C   0  0  1  0  0  0  0  0  0  0  0  0
   -3.8977   -0.2466    0.3280 C   0  0  0  0  0  0  0  0  0  0  0  0
   -0.5035    1.3247    0.7501 C   0  0  1  0  0  0  0  0  0  0  0  0
    0.7750    0.5677    0.4168 C   0  0  1  0  0  0  0  0  0  0  0  0
   -4.3421    0.4429   -0.9678 C   0  0  0  0  0  0  0  0  0  0  0  0
   -5.0783   -0.4394    1.2877 C   0  0  0  0  0  0  0  0  0  0  0  0
   -0.9108   -0.9884    0.8480 C   0  0  0  0  0  0  0  0  0  0  0  0
   -5.4830   -0.3195   -1.6390 C   0  0  0  0  0  0  0  0  0  0  0  0
   -6.2196   -1.2019    0.6174 C   0  0  0  0  0  0  0  0  0  0  0  0
   -6.6431   -0.5399   -0.6830 C   0  0  0  0  0  0  0  0  0  0  0  0
    1.9800    1.0477    1.2059 C   0  0  0  0  0  0  0  0  0  0  0  0
    4.0223    0.6982   -0.1609 C   0  0  0  0  0  0  0  0  0  0  0  0
    6.0809    0.2055   -1.4439 C   0  0  0  0  0  0  0  0  0  0  0  0
    5.3840   -1.4320    0.2628 C   0  0  0  0  0  0  0  0  0  0  0  0
    7.5151    0.0004   -0.9821 C   0  0  0  0  0  0  0  0  0  0  0  0
    6.8568   -1.5799    0.6292 C   0  0  0  0  0  0  0  0  0  0  0  0
   -1.6249    0.2949   -0.7262 H   0  0  0  0  0  0  0  0  0  0  0  0
   -3.5230   -1.2498    0.0849 H   0  0  0  0  0  0  0  0  0  0  0  0
   -0.5541    1.5637    1.8197 H   0  0  0  0  0  0  0  0  0  0  0  0
    0.9930    0.6273   -0.6576 H   0  0  0  0  0  0  0  0  0  0  0  0
   -3.0869    1.5359    0.9272 H   0  0  0  0  0  0  0  0  0  0  0  0
   -3.5189    0.5255   -1.6854 H   0  0  0  0  0  0  0  0  0  0  0  0
   -4.6782    1.4667   -0.7554 H   0  0  0  0  0  0  0  0  0  0  0  0
   -5.4505    0.5356    1.6292 H   0  0  0  0  0  0  0  0  0  0  0  0
   -4.7540   -0.9861    2.1818 H   0  0  0  0  0  0  0  0  0  0  0  0
   -1.1193   -1.1909    1.9049 H   0  0  0  0  0  0  0  0  0  0  0  0
   -1.2173   -1.8607    0.2631 H   0  0  0  0  0  0  0  0  0  0  0  0
   -5.8308    0.2418   -2.5137 H   0  0  0  0  0  0  0  0  0  0  0  0
   -5.1211   -1.2865   -2.0087 H   0  0  0  0  0  0  0  0  0  0  0  0
   -5.9147   -2.2370    0.4216 H   0  0  0  0  0  0  0  0  0  0  0  0
   -7.0753   -1.2500    1.3004 H   0  0  0  0  0  0  0  0  0  0  0  0
    1.8237    0.8904    2.2789 H   0  0  0  0  0  0  0  0  0  0  0  0
    2.1569    2.1149    1.0354 H   0  0  0  0  0  0  0  0  0  0  0  0
   -0.5719    2.3045   -0.9370 H   0  0  0  0  0  0  0  0  0  0  0  0
    3.3357   -0.5385    1.3980 H   0  0  0  0  0  0  0  0  0  0  0  0
    5.9379    1.2342   -1.7879 H   0  0  0  0  0  0  0  0  0  0  0  0
    5.8554   -0.4653   -2.2815 H   0  0  0  0  0  0  0  0  0  0  0  0
    5.1071   -2.1922   -0.4773 H   0  0  0  0  0  0  0  0  0  0  0  0
    4.7813   -1.6012    1.1532 H   0  0  0  0  0  0  0  0  0  0  0  0
    7.7870    0.7080   -0.1898 H   0  0  0  0  0  0  0  0  0  0  0  0
    8.2048    0.1519   -1.8182 H   0  0  0  0  0  0  0  0  0  0  0  0
    7.0551   -2.5984    0.9778 H   0  0  0  0  0  0  0  0  0  0  0  0
    7.1352   -0.8914    1.4361 H   0  0  0  0  0  0  0  0  0  0  0  0
  1 19  1  0  0  0  0
  2 19  1  0  0  0  0
  3 13  1  0  0  0  0
  3 16  1  0  0  0  0
  4 12  1  0  0  0  0
  4 43  1  0  0  0  0
  5 24  1  0  0  0  0
  5 25  1  0  0  0  0
  6 21  2  0  0  0  0
  7 10  1  0  0  0  0
  7 11  1  0  0  0  0
  7 30  1  0  0  0  0
  8 20  1  0  0  0  0
  8 21  1  0  0  0  0
  8 44  1  0  0  0  0
  9 21  1  0  0  0  0
  9 22  1  0  0  0  0
  9 23  1  0  0  0  0
 10 12  1  0  0  0  0
 10 16  1  0  0  0  0
 10 26  1  0  0  0  0
 11 14  1  0  0  0  0
 11 15  1  0  0  0  0
 11 27  1  0  0  0  0
 12 13  1  0  0  0  0
 12 28  1  0  0  0  0
 13 20  1  0  0  0  0
 13 29  1  0  0  0  0
 14 17  1  0  0  0  0
 14 31  1  0  0  0  0
 14 32  1  0  0  0  0
 15 18  1  0  0  0  0
 15 33  1  0  0  0  0
 15 34  1  0  0  0  0
 16 35  1  0  0  0  0
 16 36  1  0  0  0  0
 17 19  1  0  0  0  0
 17 37  1  0  0  0  0
 17 38  1  0  0  0  0
 18 19  1  0  0  0  0
 18 39  1  0  0  0  0
 18 40  1  0  0  0  0
 20 41  1  0  0  0  0
 20 42  1  0  0  0  0
 22 24  1  0  0  0  0
 22 45  1  0  0  0  0
 22 46  1  0  0  0  0
 23 25  1  0  0  0  0
 23 47  1  0  0  0  0
 23 48  1  0  0  0  0
 24 49  1  0  0  0  0
 24 50  1  0  0  0  0
 25 51  1  0  0  0  0
 25 52  1  0  0  0  0
M  END
> <PUBCHEM_COMPOUND_CID>
75536749

> <PUBCHEM_CONFORMER_RMSD>
1

> <PUBCHEM_CONFORMER_DIVERSEORDER>
1
13
8
73
28
32
27
63
42
24
62
16
56
57
45
60
49
58
41
69
66
67
30
19
47
61
46
54
59
72
36
52
44
26
20
40
18
17
12
22
29
3
37
68
50
65
48
7
5
51
33
25
70
23
39
11
71
15
34
35
2
38
4
55
64
53
6
43
10
9
31
14
21

> <PUBCHEM_MMFF94_PARTIAL_CHARGES>
24
1 -0.34
10 0.27
11 0.27
12 0.28
13 0.28
16 0.28
19 0.68
2 -0.34
20 0.3
21 0.69
22 0.3
23 0.3
24 0.28
25 0.28
3 -0.56
30 0.36
4 -0.68
43 0.4
44 0.37
5 -0.56
6 -0.57
7 -0.9
8 -0.73
9 -0.66

> <PUBCHEM_EFFECTIVE_ROTOR_COUNT>
9.4

> <PUBCHEM_PHARMACOPHORE_FEATURES>
11
1 3 acceptor
1 4 acceptor
1 4 donor
1 5 acceptor
1 6 acceptor
1 7 cation
1 7 donor
1 8 donor
5 3 10 12 13 16 rings
6 11 14 15 17 18 19 rings
6 5 9 22 23 24 25 rings

> <PUBCHEM_HEAVY_ATOM_COUNT>
25

> <PUBCHEM_ATOM_DEF_STEREO_COUNT>
3

> <PUBCHEM_ATOM_UDEF_STEREO_COUNT>
0

> <PUBCHEM_BOND_DEF_STEREO_COUNT>
0

> <PUBCHEM_BOND_UDEF_STEREO_COUNT>
0

> <PUBCHEM_ISOTOPIC_ATOM_COUNT>
0

> <PUBCHEM_COMPONENT_COUNT>
1

> <PUBCHEM_CACTVS_TAUTO_COUNT>
2

> <PUBCHEM_CONFORMER_ID>
0480996D00000001

> <PUBCHEM_MMFF94_ENERGY>
41.2906

> <PUBCHEM_FEATURE_SELFOVERLAP>
55.822

> <PUBCHEM_SHAPE_FINGERPRINT>
10066227 49 18261392188057202546
10299344 5 17918278657552679487
106641 1 13470682651170258626
10670039 82 17749103357549643821
10906281 52 7781509352241914560
11991303 11 18040999600053125651
12166972 35 18041003963765713716
12236239 1 17632294618913155569
125118 31 7853587815405062367
12670543 26 18186518795783580409
13073987 5 12031524167343646331
13177829 20 12751232614739536270
13533116 47 17703788171654320616
13540713 5 17899971638716317696
13668630 136 17846780715028384823
13673619 4 17989486316418421496
13685833 64 17346880048800172768
13862211 1 18273495671546148426
13885169 127 16415484814047286201
14251752 14 18040431088232158458
14251764 18 9511454520340078553
14849402 71 8286187362777159487
14933364 13 16805324396410213127
15048467 5 13406792233323651505
15183329 4 17749389239489360120
15198563 99 17968093067005672100
15348495 7 12823002153642012743
15419008 91 16629947837973073168
15690457 1 17203604895565116743
15706992 2 12540701375311645367
15716309 27 15051729798213235373
15849732 13 17167866382701507358
16994733 274 12829479351235259445
17093844 174 13973971987557385467
17834072 8 17821447967182337316
18335252 114 17022900168662569086
190975 80 12319446701745903397
2026 5 17632859711575814647
20281389 69 12829481554247513614
21150785 3 17603586330881699686
21267235 1 18342458171255350105
21637258 2 17704351073914389897
21792961 116 17603869983433080417
221357 26 17603867797959806644
22224240 67 10015865384077973149
23035841 295 17846498149683816647
23081809 10 18060147551979157592
23198884 109 16153427238030886545
23522609 53 17772503232884859384
23559900 14 18336267959198283392
23576562 1 17459751622136301567
3004659 81 18113897169782193704
3383291 50 16271924956721934695
4340502 62 13686301275018101532
445580 37 15864067650763511493
5758199 1 11458422431974798857
59682541 35 11599715190502130814
59682541 52 17675926470171552170
5969126 39 18412824655669098573
59755656 215 18334011674863825403
6438161 24 18260821584740539770

> <PUBCHEM_SHAPE_MULTIPOLES>
461.52
23.96
1.55
1.31
5.69
0.29
-0.24
-9.6
-9.45
1.02
0.14
-0.74
-0.01
-0.46

> <PUBCHEM_SHAPE_SELFOVERLAP>
948.167

> <PUBCHEM_SHAPE_VOLUME>
267.2

> <PUBCHEM_COORDINATE_TYPE>
2
5
10

$$$$
