11912130
  -OEChem-12032416133D

 55 57  0     1  0  0  0  0  0999 V2000
   -5.8666   -0.1378   -0.8062 S   0  0  0  0  0  0  0  0  0  0  0  0
   -0.4492    0.6716    1.0308 O   0  0  0  0  0  0  0  0  0  0  0  0
    1.3417    3.6860   -0.8890 O   0  0  0  0  0  0  0  0  0  0  0  0
   -3.0970    1.3509   -1.4111 O   0  0  0  0  0  0  0  0  0  0  0  0
    1.2053    0.9226   -0.5885 N   0  0  0  0  0  0  0  0  0  0  0  0
   -2.1119   -0.5530   -0.5257 N   0  0  0  0  0  0  0  0  0  0  0  0
   -0.0739   -2.5806   -0.6850 N   0  0  0  0  0  0  0  0  0  0  0  0
    2.0535    3.8304    1.2896 N   0  0  0  0  0  0  0  0  0  0  0  0
    3.9784   -0.0922   -0.1566 C   0  0  0  0  0  0  0  0  0  0  0  0
    3.7684   -0.6648    1.2516 C   0  0  0  0  0  0  0  0  0  0  0  0
    5.4287   -0.2916   -0.6169 C   0  0  0  0  0  0  0  0  0  0  0  0
    3.5970    1.3863   -0.2002 C   0  0  0  0  0  0  0  0  0  0  0  0
    4.1935   -2.1292    1.3339 C   0  0  0  0  0  0  0  0  0  0  0  0
    5.8509   -1.7566   -0.5316 C   0  0  0  0  0  0  0  0  0  0  0  0
    5.6327   -2.3247    0.8673 C   0  0  0  0  0  0  0  0  0  0  0  0
    2.1478    1.6701    0.2028 C   0  0  1  0  0  0  0  0  0  0  0  0
   -0.8169   -0.2482   -1.1438 C   0  0  2  0  0  0  0  0  0  0  0  0
   -0.0849   -1.4875   -1.6586 C   0  0  0  0  0  0  0  0  0  0  0  0
   -0.0188    0.4850   -0.1044 C   0  0  0  0  0  0  0  0  0  0  0  0
    1.7901    3.1483    0.1208 C   0  0  0  0  0  0  0  0  0  0  0  0
   -2.1573   -1.7495    0.3303 C   0  0  0  0  0  0  0  0  0  0  0  0
   -1.4386   -2.9355   -0.3044 C   0  0  0  0  0  0  0  0  0  0  0  0
   -3.1778    0.3600   -0.6826 C   0  0  0  0  0  0  0  0  0  0  0  0
   -4.4067    0.0944    0.0581 C   0  0  0  0  0  0  0  0  0  0  0  0
   -4.5906   -0.0054    1.4197 C   0  0  0  0  0  0  0  0  0  0  0  0
   -5.9480   -0.2762    1.7577 C   0  0  0  0  0  0  0  0  0  0  0  0
   -6.7498   -0.3729    0.6418 C   0  0  0  0  0  0  0  0  0  0  0  0
    3.3349   -0.6474   -0.8522 H   0  0  0  0  0  0  0  0  0  0  0  0
    4.3372   -0.0794    1.9850 H   0  0  0  0  0  0  0  0  0  0  0  0
    2.7152   -0.6155    1.5456 H   0  0  0  0  0  0  0  0  0  0  0  0
    6.1038    0.3139    0.0015 H   0  0  0  0  0  0  0  0  0  0  0  0
    5.5453    0.0577   -1.6497 H   0  0  0  0  0  0  0  0  0  0  0  0
    4.2691    1.9663    0.4461 H   0  0  0  0  0  0  0  0  0  0  0  0
    3.7627    1.7652   -1.2181 H   0  0  0  0  0  0  0  0  0  0  0  0
    4.0891   -2.4860    2.3648 H   0  0  0  0  0  0  0  0  0  0  0  0
    3.5231   -2.7388    0.7155 H   0  0  0  0  0  0  0  0  0  0  0  0
    5.2765   -2.3445   -1.2581 H   0  0  0  0  0  0  0  0  0  0  0  0
    6.9072   -1.8521   -0.8074 H   0  0  0  0  0  0  0  0  0  0  0  0
    6.3145   -1.8321    1.5714 H   0  0  0  0  0  0  0  0  0  0  0  0
    5.8814   -3.3918    0.8751 H   0  0  0  0  0  0  0  0  0  0  0  0
    1.9981    1.3765    1.2486 H   0  0  0  0  0  0  0  0  0  0  0  0
   -0.9688    0.4429   -1.9819 H   0  0  0  0  0  0  0  0  0  0  0  0
    1.4092    0.8160   -1.5779 H   0  0  0  0  0  0  0  0  0  0  0  0
   -0.5812   -1.8429   -2.5711 H   0  0  0  0  0  0  0  0  0  0  0  0
    0.9478   -1.2699   -1.9484 H   0  0  0  0  0  0  0  0  0  0  0  0
   -1.7072   -1.4962    1.2964 H   0  0  0  0  0  0  0  0  0  0  0  0
   -3.1890   -2.0537    0.5202 H   0  0  0  0  0  0  0  0  0  0  0  0
   -1.4089   -3.7697    0.4048 H   0  0  0  0  0  0  0  0  0  0  0  0
   -1.9889   -3.2887   -1.1852 H   0  0  0  0  0  0  0  0  0  0  0  0
    0.4388   -2.2831    0.1452 H   0  0  0  0  0  0  0  0  0  0  0  0
    1.8677    4.8250    1.3644 H   0  0  0  0  0  0  0  0  0  0  0  0
    2.4429    3.3782    2.1106 H   0  0  0  0  0  0  0  0  0  0  0  0
   -3.7956    0.1149    2.1449 H   0  0  0  0  0  0  0  0  0  0  0  0
   -6.3177   -0.3927    2.7682 H   0  0  0  0  0  0  0  0  0  0  0  0
   -7.8120   -0.5701    0.6077 H   0  0  0  0  0  0  0  0  0  0  0  0
  1 24  1  0  0  0  0
  1 27  1  0  0  0  0
  2 19  2  0  0  0  0
  3 20  2  0  0  0  0
  4 23  2  0  0  0  0
  5 16  1  0  0  0  0
  5 19  1  0  0  0  0
  5 43  1  0  0  0  0
  6 17  1  0  0  0  0
  6 21  1  0  0  0  0
  6 23  1  0  0  0  0
  7 18  1  0  0  0  0
  7 22  1  0  0  0  0
  7 50  1  0  0  0  0
  8 20  1  0  0  0  0
  8 51  1  0  0  0  0
  8 52  1  0  0  0  0
  9 10  1  0  0  0  0
  9 11  1  0  0  0  0
  9 12  1  0  0  0  0
  9 28  1  0  0  0  0
 10 13  1  0  0  0  0
 10 29  1  0  0  0  0
 10 30  1  0  0  0  0
 11 14  1  0  0  0  0
 11 31  1  0  0  0  0
 11 32  1  0  0  0  0
 12 16  1  0  0  0  0
 12 33  1  0  0  0  0
 12 34  1  0  0  0  0
 13 15  1  0  0  0  0
 13 35  1  0  0  0  0
 13 36  1  0  0  0  0
 14 15  1  0  0  0  0
 14 37  1  0  0  0  0
 14 38  1  0  0  0  0
 15 39  1  0  0  0  0
 15 40  1  0  0  0  0
 16 20  1  0  0  0  0
 16 41  1  0  0  0  0
 17 18  1  0  0  0  0
 17 19  1  0  0  0  0
 17 42  1  0  0  0  0
 18 44  1  0  0  0  0
 18 45  1  0  0  0  0
 21 22  1  0  0  0  0
 21 46  1  0  0  0  0
 21 47  1  0  0  0  0
 22 48  1  0  0  0  0
 22 49  1  0  0  0  0
 23 24  1  0  0  0  0
 24 25  2  0  0  0  0
 25 26  1  0  0  0  0
 25 53  1  0  0  0  0
 26 27  2  0  0  0  0
 26 54  1  0  0  0  0
 27 55  1  0  0  0  0
M  END
> <PUBCHEM_COMPOUND_CID>
11912130

> <PUBCHEM_CONFORMER_RMSD>
1

> <PUBCHEM_CONFORMER_DIVERSEORDER>
1
93
65
40
88
120
32
82
44
100
106
132
37
26
14
101
55
29
34
140
143
103
128
119
9
145
19
113
104
49
38
90
56
151
159
118
154
148
76
24
25
67
155
59
126
73
12
23
95
157
142
51
57
91
71
116
75
21
112
144
78
72
153
156
45
39
147
69
108
30
70
61
64
105
46
134
87
102
52
122
139
74
36
127
20
138
158
111
83
133
54
121
31
94
129
50
53
125
11
137
8
92
81
109
136
6
124
146
141
79
149
86
2
115
114
84
131
35
77
7
68
43
135
130
117
60
98
47
28
22
5
123
150
96
62
110
13
18
89
107
33
152
97
58
4
16
15
63
99
85
80
41
3
42
17
10
48
66
27

> <PUBCHEM_MMFF94_PARTIAL_CHARGES>
27
1 -0.08
16 0.36
17 0.36
18 0.27
19 0.57
2 -0.57
20 0.57
21 0.3
22 0.27
23 0.71
24 -0.05
25 -0.15
26 -0.15
27 -0.11
3 -0.57
4 -0.57
43 0.37
5 -0.73
50 0.36
51 0.37
52 0.37
53 0.15
54 0.15
55 0.15
6 -0.66
7 -0.9
8 -0.8

> <PUBCHEM_EFFECTIVE_ROTOR_COUNT>
10.4

> <PUBCHEM_PHARMACOPHORE_FEATURES>
10
1 2 acceptor
1 3 acceptor
1 4 acceptor
1 5 donor
1 7 cation
1 7 donor
1 8 donor
5 1 24 25 26 27 rings
6 6 7 17 18 21 22 rings
6 9 10 11 13 14 15 rings

> <PUBCHEM_HEAVY_ATOM_COUNT>
27

> <PUBCHEM_ATOM_DEF_STEREO_COUNT>
2

> <PUBCHEM_ATOM_UDEF_STEREO_COUNT>
0

> <PUBCHEM_BOND_DEF_STEREO_COUNT>
0

> <PUBCHEM_BOND_UDEF_STEREO_COUNT>
0

> <PUBCHEM_ISOTOPIC_ATOM_COUNT>
0

> <PUBCHEM_COMPONENT_COUNT>
1

> <PUBCHEM_CACTVS_TAUTO_COUNT>
4

> <PUBCHEM_CONFORMER_ID>
00B5C3C200000001

> <PUBCHEM_MMFF94_ENERGY>
52.7843

> <PUBCHEM_FEATURE_SELFOVERLAP>
50.747

> <PUBCHEM_SHAPE_FINGERPRINT>
10673678 19 17097797891820415324
10692045 39 17489593324674515414
10763959 59 18041271137002462885
11045977 3 17894916239213588763
11405975 8 18269275836276678521
11578080 2 17415547981327679616
12107183 9 18341898489086674155
12166972 35 18060137647858140297
12422481 6 17773041851757993681
12553582 1 18338502068241830822
12592029 89 18410293579811988635
12633257 1 18341898514961758439
12788726 201 18131359570468306368
13140716 1 18270402831452851127
13533116 47 18410574023880386913
13583140 156 18043825383795781483
13673619 4 17894914005434676340
13782708 43 17967531264108723779
13899415 154 18408892810914930698
14341114 176 18260833721700926229
14466204 15 18270685238485509609
14767858 380 8070021151619817099
14955137 171 18412268311216694234
17349148 13 17917714599545194537
17818456 19 17917995009396357273
18785283 64 18337678606477170221
20567600 75 17385439904332990119
21033648 29 17896020174953273709
21365058 113 17749681739304800788
21682296 61 18335421206105745763
22849341 161 18343868805481465680
23559900 14 18340480187658392672
3004659 81 18041277669969297390
3117164 225 18337115678136339683
314173 41 18409166619680752422
3178227 256 18409176506294781771
345986 75 18265884775261020624
34797466 226 15936701427211599951
392239 28 18200332012747061163
4325135 7 11241969291459795858
46194498 28 17167864192705776988
465052 167 18335425655559800646
5104073 3 18270960283695458531
54039377 194 18115588116257366082
7097593 13 18267014149690890508
8509985 295 18342739636940668412
8863177 126 18040724709249964147

> <PUBCHEM_SHAPE_MULTIPOLES>
521.96
14.77
3.39
1.41
7.1
2.46
-0.19
-5.79
-3.82
-4.29
-0.22
0.69
-0.14
-0.27

> <PUBCHEM_SHAPE_SELFOVERLAP>
1070.861

> <PUBCHEM_SHAPE_VOLUME>
299.7

> <PUBCHEM_COORDINATE_TYPE>
2
5
10

$$$$
