75536869
  -OEChem-12032416333D

 42 44  0     1  0  0  0  0  0999 V2000
    4.8594   -0.6244    1.8651 F   0  0  0  0  0  0  0  0  0  0  0  0
    5.8011    0.3697    0.1833 F   0  0  0  0  0  0  0  0  0  0  0  0
    5.1907   -1.7100    0.0105 F   0  0  0  0  0  0  0  0  0  0  0  0
   -2.8473    3.0554    0.1800 O   0  0  0  0  0  0  0  0  0  0  0  0
   -0.2776    1.0875   -1.3950 O   0  0  0  0  0  0  0  0  0  0  0  0
   -3.3338   -0.0143    0.4383 N   0  0  2  0  0  0  0  0  0  0  0  0
   -3.9735   -2.3042   -0.1199 C   0  0  0  0  0  0  0  0  0  0  0  0
   -3.9324   -3.7828    0.1498 C   0  0  0  0  0  0  0  0  0  0  0  0
   -2.8716   -3.1449   -0.7032 C   0  0  0  0  0  0  0  0  0  0  0  0
   -3.6785   -1.3312    0.9752 C   0  0  0  0  0  0  0  0  0  0  0  0
   -1.9896   -0.0452   -0.1486 C   0  0  0  0  0  0  0  0  0  0  0  0
   -3.5335    1.0395    1.4341 C   0  0  0  0  0  0  0  0  0  0  0  0
   -1.2902    1.2982   -0.4099 C   0  0  2  0  0  0  0  0  0  0  0  0
   -3.9396    2.3412    0.7418 C   0  0  0  0  0  0  0  0  0  0  0  0
   -2.2135    2.3996   -0.9131 C   0  0  0  0  0  0  0  0  0  0  0  0
    0.9517    0.7033   -0.9353 C   0  0  0  0  0  0  0  0  0  0  0  0
    1.5015   -0.5112   -1.3458 C   0  0  0  0  0  0  0  0  0  0  0  0
    1.6555    1.5255   -0.0552 C   0  0  0  0  0  0  0  0  0  0  0  0
    2.7549   -0.9035   -0.8763 C   0  0  0  0  0  0  0  0  0  0  0  0
    2.9089    1.1332    0.4143 C   0  0  0  0  0  0  0  0  0  0  0  0
    3.4588   -0.0812    0.0037 C   0  0  0  0  0  0  0  0  0  0  0  0
    4.7987   -0.5002    0.5061 C   0  0  0  0  0  0  0  0  0  0  0  0
   -4.7519   -1.9536   -0.7892 H   0  0  0  0  0  0  0  0  0  0  0  0
   -4.6681   -4.4061   -0.3436 H   0  0  0  0  0  0  0  0  0  0  0  0
   -3.6474   -4.1215    1.1382 H   0  0  0  0  0  0  0  0  0  0  0  0
   -1.8754   -3.0760   -0.2842 H   0  0  0  0  0  0  0  0  0  0  0  0
   -2.8968   -3.3378   -1.7687 H   0  0  0  0  0  0  0  0  0  0  0  0
   -2.9090   -1.7026    1.6650 H   0  0  0  0  0  0  0  0  0  0  0  0
   -4.6047   -1.2668    1.5608 H   0  0  0  0  0  0  0  0  0  0  0  0
   -1.3078   -0.6383    0.4772 H   0  0  0  0  0  0  0  0  0  0  0  0
   -2.0495   -0.5762   -1.1072 H   0  0  0  0  0  0  0  0  0  0  0  0
   -2.6509    1.1706    2.0713 H   0  0  0  0  0  0  0  0  0  0  0  0
   -4.3687    0.7796    2.0966 H   0  0  0  0  0  0  0  0  0  0  0  0
   -0.8566    1.6422    0.5387 H   0  0  0  0  0  0  0  0  0  0  0  0
   -4.7114    2.1774   -0.0207 H   0  0  0  0  0  0  0  0  0  0  0  0
   -4.3830    3.0055    1.4923 H   0  0  0  0  0  0  0  0  0  0  0  0
   -1.6221    3.1626   -1.4323 H   0  0  0  0  0  0  0  0  0  0  0  0
   -2.9497    2.0348   -1.6397 H   0  0  0  0  0  0  0  0  0  0  0  0
    0.9567   -1.1560   -2.0300 H   0  0  0  0  0  0  0  0  0  0  0  0
    1.2515    2.4838    0.2597 H   0  0  0  0  0  0  0  0  0  0  0  0
    3.1651   -1.8533   -1.2078 H   0  0  0  0  0  0  0  0  0  0  0  0
    3.4516    1.7823    1.0964 H   0  0  0  0  0  0  0  0  0  0  0  0
  1 22  1  0  0  0  0
  2 22  1  0  0  0  0
  3 22  1  0  0  0  0
  4 14  1  0  0  0  0
  4 15  1  0  0  0  0
  5 13  1  0  0  0  0
  5 16  1  0  0  0  0
  6 10  1  0  0  0  0
  6 11  1  0  0  0  0
  6 12  1  0  0  0  0
  7  8  1  0  0  0  0
  7  9  1  0  0  0  0
  7 10  1  0  0  0  0
  7 23  1  0  0  0  0
  8  9  1  0  0  0  0
  8 24  1  0  0  0  0
  8 25  1  0  0  0  0
  9 26  1  0  0  0  0
  9 27  1  0  0  0  0
 10 28  1  0  0  0  0
 10 29  1  0  0  0  0
 11 13  1  0  0  0  0
 11 30  1  0  0  0  0
 11 31  1  0  0  0  0
 12 14  1  0  0  0  0
 12 32  1  0  0  0  0
 12 33  1  0  0  0  0
 13 15  1  0  0  0  0
 13 34  1  0  0  0  0
 14 35  1  0  0  0  0
 14 36  1  0  0  0  0
 15 37  1  0  0  0  0
 15 38  1  0  0  0  0
 16 17  2  0  0  0  0
 16 18  1  0  0  0  0
 17 19  1  0  0  0  0
 17 39  1  0  0  0  0
 18 20  2  0  0  0  0
 18 40  1  0  0  0  0
 19 21  2  0  0  0  0
 19 41  1  0  0  0  0
 20 21  1  0  0  0  0
 20 42  1  0  0  0  0
 21 22  1  0  0  0  0
M  END
> <PUBCHEM_COMPOUND_CID>
75536869

> <PUBCHEM_CONFORMER_RMSD>
0.8

> <PUBCHEM_CONFORMER_DIVERSEORDER>
2
67
19
56
45
60
9
50
5
52
63
53
59
36
65
24
64
66
54
25
57
23
38
68
58
47
34
41
4
12
35
21
27
37
46
55
61
17
22
20
29
8
1
11
49
3
42
7
6
30
43
31
10
51
48
44
16
14
33
18
15
39
32
28
13
62
40
26

> <PUBCHEM_MMFF94_PARTIAL_CHARGES>
31
1 -0.34
10 0.37
11 0.27
12 0.27
13 0.28
14 0.28
15 0.28
16 0.08
17 -0.15
18 -0.15
19 -0.15
2 -0.34
20 -0.15
21 -0.14
22 1.16
23 0.1
24 0.1
25 0.1
26 0.1
27 0.1
3 -0.34
39 0.15
4 -0.56
40 0.15
41 0.15
42 0.15
5 -0.36
6 -0.81
7 -0.19
8 -0.2
9 -0.2

> <PUBCHEM_EFFECTIVE_ROTOR_COUNT>
7

> <PUBCHEM_PHARMACOPHORE_FEATURES>
5
1 4 acceptor
1 5 acceptor
1 6 cation
6 16 17 18 19 20 21 rings
7 4 6 11 12 13 14 15 rings

> <PUBCHEM_HEAVY_ATOM_COUNT>
22

> <PUBCHEM_ATOM_DEF_STEREO_COUNT>
1

> <PUBCHEM_ATOM_UDEF_STEREO_COUNT>
0

> <PUBCHEM_BOND_DEF_STEREO_COUNT>
0

> <PUBCHEM_BOND_UDEF_STEREO_COUNT>
0

> <PUBCHEM_ISOTOPIC_ATOM_COUNT>
0

> <PUBCHEM_COMPONENT_COUNT>
1

> <PUBCHEM_CACTVS_TAUTO_COUNT>
1

> <PUBCHEM_CONFORMER_ID>
048099E500000002

> <PUBCHEM_MMFF94_ENERGY>
66.3071

> <PUBCHEM_FEATURE_SELFOVERLAP>
25.372

> <PUBCHEM_SHAPE_FINGERPRINT>
11370993 144 17845663529594315870
11552529 35 18413668019525283609
12523318 42 18342167882272687707
12553582 1 17907886207571941335
12633257 1 18129958848409791497
13004483 165 18197777911391208087
13583140 156 17561077016533790848
13675066 3 17775282747077001764
13994607 96 11599729514914622407
14100547 121 18411416168536559163
14178342 30 18411709772395113663
14844126 61 18409451405945633267
15042514 8 18409455804197553891
15099037 37 18342176682650062527
15183329 4 12607408772219386500
15348495 7 18272642429776086960
15537594 2 17749677268660232250
17980427 26 17260176706488638245
1813 80 16588884364541430500
19032999 76 18192134091892964707
19141452 34 18409172073909682869
19377110 9 18187366588575006852
20681677 274 18269553999876120361
20871999 31 8286202725858495213
21065198 57 18411702041485752464
21650355 55 18412831300405238641
21673915 165 18409728478254194082
22122407 14 15841555163001193617
23402655 69 8790619095274705198
23559900 14 18339633546857952025
25147074 1 18042421259886440981
312423 11 18041852808185206860
3459 110 17702934975941468712
5104073 3 18342444934166137738
5924683 9 18411417328124468395
59755656 520 18263917744954566837
602551 16 18410297995243824310
7970288 3 18046911751669925379

> <PUBCHEM_SHAPE_MULTIPOLES>
414.21
11.36
3.58
1.22
11.78
1.43
-0.11
5.26
-4.07
-6.55
0.2
0.25
-0.09
-0.55

> <PUBCHEM_SHAPE_SELFOVERLAP>
865.233

> <PUBCHEM_SHAPE_VOLUME>
235.4

> <PUBCHEM_COORDINATE_TYPE>
2
5
10

$$$$
