11941470
  -OEChem-12032416153D

 59 63  0     1  0  0  0  0  0999 V2000
   -4.8684   -4.5884    0.1147 Cl  0  0  0  0  0  0  0  0  0  0  0  0
    4.9773   -0.5641    1.2303 O   0  0  0  0  0  0  0  0  0  0  0  0
    2.6518    3.2512    1.7275 O   0  0  0  0  0  0  0  0  0  0  0  0
   -0.4777    1.9110   -2.2935 O   0  0  0  0  0  0  0  0  0  0  0  0
   -5.2418    1.2553   -0.3533 O   0  0  0  0  0  0  0  0  0  0  0  0
    1.4341    1.8905   -1.0154 N   0  0  0  0  0  0  0  0  0  0  0  0
    4.0938    0.2507   -0.7633 N   0  0  0  0  0  0  0  0  0  0  0  0
    0.5342    2.4125    1.7366 N   0  0  0  0  0  0  0  0  0  0  0  0
    3.6513    1.5359   -0.2727 C   0  0  2  0  0  0  0  0  0  0  0  0
    2.1796    1.4809    0.1602 C   0  0  1  0  0  0  0  0  0  0  0  0
    3.6560    2.5849   -1.3866 C   0  0  0  0  0  0  0  0  0  0  0  0
    5.0515   -1.9430   -0.7161 C   0  0  0  0  0  0  0  0  0  0  0  0
    2.3124    2.3798   -2.0682 C   0  0  0  0  0  0  0  0  0  0  0  0
    3.8955   -2.9445   -0.6151 C   0  0  0  0  0  0  0  0  0  0  0  0
    6.2709   -2.6339   -0.1038 C   0  0  0  0  0  0  0  0  0  0  0  0
    4.4999   -4.2216   -0.0411 C   0  0  0  0  0  0  0  0  0  0  0  0
    5.6898   -3.7380    0.7678 C   0  0  0  0  0  0  0  0  0  0  0  0
    4.7207   -0.6899    0.0359 C   0  0  0  0  0  0  0  0  0  0  0  0
    1.8196    2.4830    1.2414 C   0  0  0  0  0  0  0  0  0  0  0  0
    0.0845    1.6980   -1.2194 C   0  0  0  0  0  0  0  0  0  0  0  0
   -0.7372    1.2312   -0.0725 C   0  0  0  0  0  0  0  0  0  0  0  0
   -0.5532    1.6510    1.2560 C   0  0  0  0  0  0  0  0  0  0  0  0
   -1.8622    0.4536   -0.4023 C   0  0  0  0  0  0  0  0  0  0  0  0
   -1.5377    1.3357    2.2089 C   0  0  0  0  0  0  0  0  0  0  0  0
   -2.8039    0.1108    0.5668 C   0  0  0  0  0  0  0  0  0  0  0  0
   -2.6483    0.5629    1.8708 C   0  0  0  0  0  0  0  0  0  0  0  0
   -3.9524   -0.6937    0.2105 C   0  0  0  0  0  0  0  0  0  0  0  0
   -5.1334   -0.0992   -0.2378 C   0  0  0  0  0  0  0  0  0  0  0  0
   -3.8721   -2.0832    0.3185 C   0  0  0  0  0  0  0  0  0  0  0  0
   -6.2302   -0.8914   -0.5767 C   0  0  0  0  0  0  0  0  0  0  0  0
   -4.9687   -2.8755   -0.0204 C   0  0  0  0  0  0  0  0  0  0  0  0
   -6.1479   -2.2797   -0.4680 C   0  0  0  0  0  0  0  0  0  0  0  0
   -6.4879    1.7670   -0.8197 C   0  0  0  0  0  0  0  0  0  0  0  0
    4.3214    1.8287    0.5425 H   0  0  0  0  0  0  0  0  0  0  0  0
    1.8786    0.4771    0.4831 H   0  0  0  0  0  0  0  0  0  0  0  0
    4.4942    2.4901   -2.0835 H   0  0  0  0  0  0  0  0  0  0  0  0
    3.6908    3.5890   -0.9464 H   0  0  0  0  0  0  0  0  0  0  0  0
    1.9090    3.2966   -2.5087 H   0  0  0  0  0  0  0  0  0  0  0  0
    2.3656    1.6114   -2.8475 H   0  0  0  0  0  0  0  0  0  0  0  0
    5.2649   -1.6947   -1.7628 H   0  0  0  0  0  0  0  0  0  0  0  0
    3.4454   -3.1361   -1.5952 H   0  0  0  0  0  0  0  0  0  0  0  0
    3.0958   -2.5805    0.0414 H   0  0  0  0  0  0  0  0  0  0  0  0
    6.9350   -1.9718    0.4606 H   0  0  0  0  0  0  0  0  0  0  0  0
    6.8686   -3.0877   -0.9047 H   0  0  0  0  0  0  0  0  0  0  0  0
    3.8736    0.0091   -1.7253 H   0  0  0  0  0  0  0  0  0  0  0  0
    4.8385   -4.8729   -0.8558 H   0  0  0  0  0  0  0  0  0  0  0  0
    3.7832   -4.7834    0.5647 H   0  0  0  0  0  0  0  0  0  0  0  0
    5.3581   -3.3334    1.7309 H   0  0  0  0  0  0  0  0  0  0  0  0
    6.4119   -4.5363    0.9617 H   0  0  0  0  0  0  0  0  0  0  0  0
    0.3751    2.9123    2.6083 H   0  0  0  0  0  0  0  0  0  0  0  0
   -2.0139    0.1232   -1.4293 H   0  0  0  0  0  0  0  0  0  0  0  0
   -1.4340    1.6698    3.2397 H   0  0  0  0  0  0  0  0  0  0  0  0
   -3.3787    0.3222    2.6394 H   0  0  0  0  0  0  0  0  0  0  0  0
   -2.9536   -2.5520    0.6675 H   0  0  0  0  0  0  0  0  0  0  0  0
   -7.1786   -0.5034   -0.9314 H   0  0  0  0  0  0  0  0  0  0  0  0
   -7.0100   -2.8858   -0.7352 H   0  0  0  0  0  0  0  0  0  0  0  0
   -6.7025    1.4404   -1.8430 H   0  0  0  0  0  0  0  0  0  0  0  0
   -6.3955    2.8578   -0.8500 H   0  0  0  0  0  0  0  0  0  0  0  0
   -7.3046    1.5390   -0.1263 H   0  0  0  0  0  0  0  0  0  0  0  0
  1 31  1  0  0  0  0
  2 18  2  0  0  0  0
  3 19  2  0  0  0  0
  4 20  2  0  0  0  0
  5 28  1  0  0  0  0
  5 33  1  0  0  0  0
  6 10  1  0  0  0  0
  6 13  1  0  0  0  0
  6 20  1  0  0  0  0
  7  9  1  0  0  0  0
  7 18  1  0  0  0  0
  7 45  1  0  0  0  0
  8 19  1  0  0  0  0
  8 22  1  0  0  0  0
  8 50  1  0  0  0  0
  9 10  1  0  0  0  0
  9 11  1  0  0  0  0
  9 34  1  0  0  0  0
 10 19  1  0  0  0  0
 10 35  1  0  0  0  0
 11 13  1  0  0  0  0
 11 36  1  0  0  0  0
 11 37  1  0  0  0  0
 12 14  1  0  0  0  0
 12 15  1  0  0  0  0
 12 18  1  0  0  0  0
 12 40  1  0  0  0  0
 13 38  1  0  0  0  0
 13 39  1  0  0  0  0
 14 16  1  0  0  0  0
 14 41  1  0  0  0  0
 14 42  1  0  0  0  0
 15 17  1  0  0  0  0
 15 43  1  0  0  0  0
 15 44  1  0  0  0  0
 16 17  1  0  0  0  0
 16 46  1  0  0  0  0
 16 47  1  0  0  0  0
 17 48  1  0  0  0  0
 17 49  1  0  0  0  0
 20 21  1  0  0  0  0
 21 22  2  0  0  0  0
 21 23  1  0  0  0  0
 22 24  1  0  0  0  0
 23 25  2  0  0  0  0
 23 51  1  0  0  0  0
 24 26  2  0  0  0  0
 24 52  1  0  0  0  0
 25 26  1  0  0  0  0
 25 27  1  0  0  0  0
 26 53  1  0  0  0  0
 27 28  2  0  0  0  0
 27 29  1  0  0  0  0
 28 30  1  0  0  0  0
 29 31  2  0  0  0  0
 29 54  1  0  0  0  0
 30 32  2  0  0  0  0
 30 55  1  0  0  0  0
 31 32  1  0  0  0  0
 32 56  1  0  0  0  0
 33 57  1  0  0  0  0
 33 58  1  0  0  0  0
 33 59  1  0  0  0  0
M  END
> <PUBCHEM_COMPOUND_CID>
11941470

> <PUBCHEM_CONFORMER_RMSD>
1

> <PUBCHEM_CONFORMER_DIVERSEORDER>
2
16
17
21
5
20
19
3
8
6
4
18
11
14
15
23
9
22
7
12
10
1
13
24

> <PUBCHEM_MMFF94_PARTIAL_CHARGES>
34
1 -0.18
10 0.36
12 0.06
13 0.3
18 0.57
19 0.57
2 -0.57
20 0.54
21 0.09
22 0.12
23 -0.15
24 -0.15
26 -0.15
28 0.08
29 -0.15
3 -0.57
30 -0.15
31 0.18
32 -0.15
33 0.28
4 -0.57
45 0.37
5 -0.36
50 0.37
51 0.15
52 0.15
53 0.15
54 0.15
55 0.15
56 0.15
6 -0.66
7 -0.73
8 -0.55
9 0.3

> <PUBCHEM_EFFECTIVE_ROTOR_COUNT>
6.8

> <PUBCHEM_PHARMACOPHORE_FEATURES>
11
1 2 acceptor
1 3 acceptor
1 4 acceptor
1 5 acceptor
1 7 donor
1 8 donor
5 12 14 15 16 17 rings
5 6 9 10 11 13 rings
6 21 22 23 24 25 26 rings
6 27 28 29 30 31 32 rings
7 6 8 10 19 20 21 22 rings

> <PUBCHEM_HEAVY_ATOM_COUNT>
33

> <PUBCHEM_ATOM_DEF_STEREO_COUNT>
2

> <PUBCHEM_ATOM_UDEF_STEREO_COUNT>
0

> <PUBCHEM_BOND_DEF_STEREO_COUNT>
0

> <PUBCHEM_BOND_UDEF_STEREO_COUNT>
0

> <PUBCHEM_ISOTOPIC_ATOM_COUNT>
0

> <PUBCHEM_COMPONENT_COUNT>
1

> <PUBCHEM_CACTVS_TAUTO_COUNT>
6

> <PUBCHEM_CONFORMER_ID>
00B6365E00000002

> <PUBCHEM_MMFF94_ENERGY>
115.2719

> <PUBCHEM_FEATURE_SELFOVERLAP>
55.882

> <PUBCHEM_SHAPE_FINGERPRINT>
11796584 16 18412550928797026597
12107183 9 18267315222582787129
12633046 712 18340477959203726573
13533116 47 18342741861549040001
1361 4 18192434289006866039
13782708 43 18341610477802579271
14068700 675 18337672997629702650
14848178 5 18412262826712054410
14910302 57 18262790882816410837
15019793 15 18053380182644472663
15183329 4 17603860118151910561
15361156 5 17749404649499774276
15419009 47 18191021214759603613
15475509 35 18200311159710063538
15475509 8 17458628852823183341
15803439 3 17030544124234200204
17349148 13 16127827390933809793
19315092 285 18059581329539751002
19319366 153 18054794159366682268
19958102 18 18336819892839931495
20775530 9 18340475695803466534
21315764 119 18334571339847461437
21703447 108 17988080105592506936
23559900 14 18341321237297975369
244849 19 18126255645834658696
25222932 49 17485364800453428293
2838139 119 8862936161456625650
3004659 81 18334857233944339568
32027 91 18341324526884227753
376196 1 15796536978084485444
3886686 26 17125099550767605618
404807 14 17903923253526539011
4280585 95 18261950735067622322
437795 70 17241044288888408797
484985 159 17762339120190658952
50009960 94 18265593503369949010
5104073 3 17346049973334925481
5326457 24 18337958990669604087
6697151 62 17846200151520227121
7970288 3 18268431231454389906

> <PUBCHEM_SHAPE_MULTIPOLES>
642.57
16.6
5.33
1.66
6.28
5.45
0.24
16.55
-2.41
-3.82
0.06
-0.44
-1.64
-0.51

> <PUBCHEM_SHAPE_SELFOVERLAP>
1401.971

> <PUBCHEM_SHAPE_VOLUME>
349.7

> <PUBCHEM_COORDINATE_TYPE>
2
5
10

$$$$
