11913299
  -OEChem-12032416293D

 51 54  0     1  0  0  0  0  0999 V2000
    0.2082    0.8477    1.7236 O   0  0  0  0  0  0  0  0  0  0  0  0
    0.0480    3.5586    0.1867 O   0  0  0  0  0  0  0  0  0  0  0  0
   -4.4747    1.5124    1.1000 O   0  0  0  0  0  0  0  0  0  0  0  0
    4.0152   -1.8466    1.4253 O   0  0  0  0  0  0  0  0  0  0  0  0
   -8.4656   -3.0285   -1.3259 O   0  0  0  0  0  0  0  0  0  0  0  0
   -8.6684   -1.2090    0.0177 O   0  0  0  0  0  0  0  0  0  0  0  0
   -2.4593    0.8954    0.1289 N   0  0  0  0  0  0  0  0  0  0  0  0
    2.5545    2.0392   -0.8071 N   0  0  0  0  0  0  0  0  0  0  0  0
    3.6277    0.0440   -0.2962 N   0  0  0  0  0  0  0  0  0  0  0  0
    3.9729    1.1436   -2.4125 N   0  0  0  0  0  0  0  0  0  0  0  0
   -0.4347    2.2352   -0.0986 C   0  0  1  0  0  0  0  0  0  0  0  0
    0.6081    1.2563    0.4046 C   0  0  1  0  0  0  0  0  0  0  0  0
   -1.6580    1.9307    0.7356 C   0  0  2  0  0  0  0  0  0  0  0  0
    1.8782    2.0712    0.4712 C   0  0  2  0  0  0  0  0  0  0  0  0
   -1.0496    1.4599    2.0447 C   0  0  0  0  0  0  0  0  0  0  0  0
    1.3620    3.4694    0.7572 C   0  0  0  0  0  0  0  0  0  0  0  0
   -3.8214    0.7740    0.3679 C   0  0  0  0  0  0  0  0  0  0  0  0
    3.4228    1.0317   -1.1884 C   0  0  0  0  0  0  0  0  0  0  0  0
   -4.4180   -0.4138   -0.3683 C   0  0  0  0  0  0  0  0  0  0  0  0
   -5.9175   -0.5900   -0.1369 C   0  0  0  0  0  0  0  0  0  0  0  0
   -6.4885   -1.7867   -0.9004 C   0  0  0  0  0  0  0  0  0  0  0  0
    4.4790   -0.9212   -0.7010 C   0  0  0  0  0  0  0  0  0  0  0  0
    4.8136    0.1446   -2.7524 C   0  0  0  0  0  0  0  0  0  0  0  0
    5.1072   -0.9236   -1.9296 C   0  0  0  0  0  0  0  0  0  0  0  0
    4.6951   -1.9736    0.2559 C   0  0  0  0  0  0  0  0  0  0  0  0
   -7.9736   -1.9463   -0.6677 C   0  0  0  0  0  0  0  0  0  0  0  0
    5.4577   -3.1184    0.2622 C   0  0  0  0  0  0  0  0  0  0  0  0
    5.2319   -3.7343    1.5163 C   0  0  0  0  0  0  0  0  0  0  0  0
    4.3472   -2.9221    2.1869 C   0  0  0  0  0  0  0  0  0  0  0  0
   -0.5981    2.1713   -1.1792 H   0  0  0  0  0  0  0  0  0  0  0  0
    0.6720    0.3522   -0.2092 H   0  0  0  0  0  0  0  0  0  0  0  0
   -2.2880    2.8109    0.9038 H   0  0  0  0  0  0  0  0  0  0  0  0
    2.5558    1.7684    1.2779 H   0  0  0  0  0  0  0  0  0  0  0  0
   -1.6708    0.7442    2.5917 H   0  0  0  0  0  0  0  0  0  0  0  0
   -0.8382    2.3079    2.7054 H   0  0  0  0  0  0  0  0  0  0  0  0
    1.9891    4.2677    0.3483 H   0  0  0  0  0  0  0  0  0  0  0  0
    1.2578    3.6343    1.8354 H   0  0  0  0  0  0  0  0  0  0  0  0
   -1.9956    0.1991   -0.4482 H   0  0  0  0  0  0  0  0  0  0  0  0
    2.3555    2.7576   -1.4942 H   0  0  0  0  0  0  0  0  0  0  0  0
   -4.2232   -0.2799   -1.4394 H   0  0  0  0  0  0  0  0  0  0  0  0
   -3.8862   -1.3161   -0.0429 H   0  0  0  0  0  0  0  0  0  0  0  0
   -6.4439    0.3248   -0.4386 H   0  0  0  0  0  0  0  0  0  0  0  0
   -6.1109   -0.7113    0.9368 H   0  0  0  0  0  0  0  0  0  0  0  0
   -6.3241   -1.6538   -1.9753 H   0  0  0  0  0  0  0  0  0  0  0  0
   -5.9901   -2.7056   -0.5724 H   0  0  0  0  0  0  0  0  0  0  0  0
    5.2597    0.2294   -3.7376 H   0  0  0  0  0  0  0  0  0  0  0  0
    5.7900   -1.6993   -2.2520 H   0  0  0  0  0  0  0  0  0  0  0  0
    6.1003   -3.4763   -0.5298 H   0  0  0  0  0  0  0  0  0  0  0  0
    5.6602   -4.6550    1.8854 H   0  0  0  0  0  0  0  0  0  0  0  0
   -9.4296   -3.1374   -1.1805 H   0  0  0  0  0  0  0  0  0  0  0  0
    3.8816   -2.9666    3.1605 H   0  0  0  0  0  0  0  0  0  0  0  0
  1 12  1  0  0  0  0
  1 15  1  0  0  0  0
  2 11  1  0  0  0  0
  2 16  1  0  0  0  0
  3 17  2  0  0  0  0
  4 25  1  0  0  0  0
  4 29  1  0  0  0  0
  5 26  1  0  0  0  0
  5 50  1  0  0  0  0
  6 26  2  0  0  0  0
  7 13  1  0  0  0  0
  7 17  1  0  0  0  0
  7 38  1  0  0  0  0
  8 14  1  0  0  0  0
  8 18  1  0  0  0  0
  8 39  1  0  0  0  0
  9 18  1  0  0  0  0
  9 22  2  0  0  0  0
 10 18  2  0  0  0  0
 10 23  1  0  0  0  0
 11 12  1  0  0  0  0
 11 13  1  0  0  0  0
 11 30  1  0  0  0  0
 12 14  1  0  0  0  0
 12 31  1  0  0  0  0
 13 15  1  0  0  0  0
 13 32  1  0  0  0  0
 14 16  1  0  0  0  0
 14 33  1  0  0  0  0
 15 34  1  0  0  0  0
 15 35  1  0  0  0  0
 16 36  1  0  0  0  0
 16 37  1  0  0  0  0
 17 19  1  0  0  0  0
 19 20  1  0  0  0  0
 19 40  1  0  0  0  0
 19 41  1  0  0  0  0
 20 21  1  0  0  0  0
 20 42  1  0  0  0  0
 20 43  1  0  0  0  0
 21 26  1  0  0  0  0
 21 44  1  0  0  0  0
 21 45  1  0  0  0  0
 22 24  1  0  0  0  0
 22 25  1  0  0  0  0
 23 24  2  0  0  0  0
 23 46  1  0  0  0  0
 24 47  1  0  0  0  0
 25 27  2  0  0  0  0
 27 28  1  0  0  0  0
 27 48  1  0  0  0  0
 28 29  2  0  0  0  0
 28 49  1  0  0  0  0
 29 51  1  0  0  0  0
M  END
> <PUBCHEM_COMPOUND_CID>
11913299

> <PUBCHEM_CONFORMER_RMSD>
1

> <PUBCHEM_CONFORMER_DIVERSEORDER>
1
59
118
128
125
76
71
91
81
15
122
53
41
136
103
38
121
139
129
104
97
132
45
94
109
115
112
113
133
65
20
30
101
84
110
143
55
73
83
106
35
107
39
88
134
111
63
21
119
108
117
120
142
98
58
28
114
137
87
31
140
92
141
85
47
33
89
135
66
11
96
79
54
127
126
123
52
19
99
102
78
100
40
105
86
138
64
10
43
5
131
95
130
50
57
46
77
49
48
34
42
9
80
44
82
67
12
32
22
90
124
17
24
51
29
75
56
37
25
70
6
74
23
4
7
27
72
68
18
60
36
2
26
116
61
93
16
13
69
14
62
8
3

> <PUBCHEM_MMFF94_PARTIAL_CHARGES>
36
1 -0.56
10 -0.62
11 0.28
12 0.28
13 0.3
14 0.37
15 0.28
16 0.28
17 0.57
18 0.72
19 0.06
2 -0.56
21 0.06
22 0.36
23 0.16
24 -0.15
25 0.09
26 0.66
27 -0.15
28 -0.15
29 -0.01
3 -0.57
38 0.37
39 0.4
4 -0.28
46 0.15
47 0.15
48 0.15
49 0.15
5 -0.65
50 0.5
51 0.15
6 -0.57
7 -0.73
8 -0.87
9 -0.62

> <PUBCHEM_EFFECTIVE_ROTOR_COUNT>
10.2

> <PUBCHEM_PHARMACOPHORE_FEATURES>
15
1 1 acceptor
1 2 acceptor
1 3 acceptor
1 4 acceptor
1 5 acceptor
1 6 acceptor
1 7 donor
1 8 donor
1 9 acceptor
3 5 6 26 anion
4 8 9 10 18 cation
5 1 11 12 13 15 rings
5 2 11 12 14 16 rings
5 4 25 27 28 29 rings
6 9 10 18 22 23 24 rings

> <PUBCHEM_HEAVY_ATOM_COUNT>
29

> <PUBCHEM_ATOM_DEF_STEREO_COUNT>
4

> <PUBCHEM_ATOM_UDEF_STEREO_COUNT>
0

> <PUBCHEM_BOND_DEF_STEREO_COUNT>
0

> <PUBCHEM_BOND_UDEF_STEREO_COUNT>
0

> <PUBCHEM_ISOTOPIC_ATOM_COUNT>
0

> <PUBCHEM_COMPONENT_COUNT>
1

> <PUBCHEM_CACTVS_TAUTO_COUNT>
6

> <PUBCHEM_CONFORMER_ID>
00B5C85300000001

> <PUBCHEM_MMFF94_ENERGY>
57.9055

> <PUBCHEM_FEATURE_SELFOVERLAP>
76.902

> <PUBCHEM_SHAPE_FINGERPRINT>
10622 236 17825103697780418418
10693767 8 18335133198615452195
11069576 57 17969514719151345678
11607047 403 18198887292811945016
11828042 38 17386013819570762395
12047536 79 14548743893715413571
12342043 65 16055492560951406620
12661589 4 18272367624430438419
13782708 43 18341326773901255421
14347332 77 18413106157016590289
17134984 74 18261957452559594094
17324776 126 17826502267628516466
20567600 234 10231761085229846977
20567600 247 18335984190128339603
20691028 202 10737273650796561215
20775438 99 18188765188239157250
208703 8 18339638937068373478
21133410 171 15505155071327050786
21304303 94 17967531315458070506
21585481 104 17313380090197468901
21585483 132 18409158922889316411
21792938 131 18412535523651890419
23522609 53 18122379863236592217
25222932 49 18342737429928917220
2748736 6 8502374408640454123
397830 11 11311774029886949357
4066623 53 14996552959558769238
439807 62 18335139791780615471
463206 1 18335146349726152474
5104073 3 17418097633235167729
5719381 36 18057873818764991895
57527295 17 18335997380443293808
57676310 82 17343770759030106096
59025328 239 17241617109441339724
59682541 52 17675925404223025815
86090 222 16056063275672735452
96874 4 18336821987914059899

> <PUBCHEM_SHAPE_MULTIPOLES>
541.67
20.56
4.44
2.04
46.83
0.88
-0.51
27.05
-7.39
-2.47
1.61
-3.32
0.41
-5.12

> <PUBCHEM_SHAPE_SELFOVERLAP>
1164.174

> <PUBCHEM_SHAPE_VOLUME>
297.1

> <PUBCHEM_COORDINATE_TYPE>
2
5
10

$$$$
