11942988
  -OEChem-12032416153D

 55 59  0     1  0  0  0  0  0999 V2000
   -2.2959    0.1436    1.5778 O   0  0  0  0  0  0  0  0  0  0  0  0
   -0.5074   -2.7996   -1.0616 N   0  0  2  0  0  0  0  0  0  0  0  0
    2.0315   -0.0019   -0.7742 N   0  0  0  0  0  0  0  0  0  0  0  0
   -3.8904   -0.2826   -0.0991 N   0  0  0  0  0  0  0  0  0  0  0  0
    1.8177    1.0070    0.0758 N   0  0  0  0  0  0  0  0  0  0  0  0
    3.0103    1.4919    0.4038 N   0  0  0  0  0  0  0  0  0  0  0  0
   -1.1250   -2.2968    1.4158 C   0  0  2  0  0  0  0  0  0  0  0  0
    0.5390   -1.9437   -0.4416 C   0  0  2  0  0  0  0  0  0  0  0  0
   -2.2923   -1.9558    0.4697 C   0  0  2  0  0  0  0  0  0  0  0  0
    0.1233   -1.5042    0.9795 C   0  0  0  0  0  0  0  0  0  0  0  0
   -0.8125   -3.7905    1.2150 C   0  0  0  0  0  0  0  0  0  0  0  0
   -1.8299   -2.1307   -0.9877 C   0  0  0  0  0  0  0  0  0  0  0  0
   -0.5837   -4.0616   -0.2838 C   0  0  0  0  0  0  0  0  0  0  0  0
    0.9099   -0.7476   -1.3210 C   0  0  0  0  0  0  0  0  0  0  0  0
   -2.8121   -0.5734    0.7267 C   0  0  0  0  0  0  0  0  0  0  0  0
    3.3467   -0.2017   -1.0216 C   0  0  0  0  0  0  0  0  0  0  0  0
    3.9574    0.7627   -0.2599 C   0  0  0  0  0  0  0  0  0  0  0  0
   -4.6396    0.9170   -0.1469 C   0  0  0  0  0  0  0  0  0  0  0  0
    5.3617    1.0267   -0.1278 C   0  0  0  0  0  0  0  0  0  0  0  0
    5.8395    2.1340    0.7669 C   0  0  0  0  0  0  0  0  0  0  0  0
    7.3304    1.8279    0.9153 C   0  0  0  0  0  0  0  0  0  0  0  0
    7.7064    0.9839   -0.2987 C   0  0  0  0  0  0  0  0  0  0  0  0
    6.3951    0.4017   -0.7096 C   0  0  0  0  0  0  0  0  0  0  0  0
   -5.6905    1.0241   -1.0429 C   0  0  0  0  0  0  0  0  0  0  0  0
   -4.3069    1.9583    0.7036 C   0  0  0  0  0  0  0  0  0  0  0  0
   -6.4294    2.2064   -1.0899 C   0  0  0  0  0  0  0  0  0  0  0  0
   -5.0459    3.1404    0.6566 C   0  0  0  0  0  0  0  0  0  0  0  0
   -6.1071    3.2643   -0.2402 C   0  0  0  0  0  0  0  0  0  0  0  0
   -1.3671   -2.0932    2.4646 H   0  0  0  0  0  0  0  0  0  0  0  0
    1.4505   -2.5533   -0.3508 H   0  0  0  0  0  0  0  0  0  0  0  0
   -3.1191   -2.6511    0.6744 H   0  0  0  0  0  0  0  0  0  0  0  0
    0.9455   -1.7100    1.6767 H   0  0  0  0  0  0  0  0  0  0  0  0
   -0.0742   -0.4323    1.0372 H   0  0  0  0  0  0  0  0  0  0  0  0
    0.0799   -4.0677    1.7890 H   0  0  0  0  0  0  0  0  0  0  0  0
   -1.6409   -4.4073    1.5824 H   0  0  0  0  0  0  0  0  0  0  0  0
   -2.5627   -2.7455   -1.5271 H   0  0  0  0  0  0  0  0  0  0  0  0
   -1.8013   -1.1837   -1.5383 H   0  0  0  0  0  0  0  0  0  0  0  0
    0.3375   -4.6415   -0.4214 H   0  0  0  0  0  0  0  0  0  0  0  0
   -1.3887   -4.6932   -0.6807 H   0  0  0  0  0  0  0  0  0  0  0  0
    1.2050   -1.0789   -2.3239 H   0  0  0  0  0  0  0  0  0  0  0  0
    0.0840   -0.0370   -1.4385 H   0  0  0  0  0  0  0  0  0  0  0  0
   -4.1995   -1.0058   -0.7451 H   0  0  0  0  0  0  0  0  0  0  0  0
    3.7164   -0.9735   -1.6826 H   0  0  0  0  0  0  0  0  0  0  0  0
    5.6813    3.1076    0.2895 H   0  0  0  0  0  0  0  0  0  0  0  0
    5.3505    2.1337    1.7465 H   0  0  0  0  0  0  0  0  0  0  0  0
    7.4999    1.2514    1.8343 H   0  0  0  0  0  0  0  0  0  0  0  0
    7.9335    2.7386    0.9889 H   0  0  0  0  0  0  0  0  0  0  0  0
    8.4310    0.2095   -0.0311 H   0  0  0  0  0  0  0  0  0  0  0  0
    8.1204    1.5962   -1.1062 H   0  0  0  0  0  0  0  0  0  0  0  0
    6.3126   -0.4186   -1.4090 H   0  0  0  0  0  0  0  0  0  0  0  0
   -5.9499    0.2061   -1.7091 H   0  0  0  0  0  0  0  0  0  0  0  0
   -3.5012    1.9385    1.4225 H   0  0  0  0  0  0  0  0  0  0  0  0
   -7.2556    2.3030   -1.7881 H   0  0  0  0  0  0  0  0  0  0  0  0
   -4.7960    3.9654    1.3175 H   0  0  0  0  0  0  0  0  0  0  0  0
   -6.6824    4.1848   -0.2769 H   0  0  0  0  0  0  0  0  0  0  0  0
  1 15  2  0  0  0  0
  2  8  1  0  0  0  0
  2 12  1  0  0  0  0
  2 13  1  0  0  0  0
  3  5  1  0  0  0  0
  3 14  1  0  0  0  0
  3 16  1  0  0  0  0
  4 15  1  0  0  0  0
  4 18  1  0  0  0  0
  4 42  1  0  0  0  0
  5  6  2  0  0  0  0
  6 17  1  0  0  0  0
  7  9  1  0  0  0  0
  7 10  1  0  0  0  0
  7 11  1  0  0  0  0
  7 29  1  0  0  0  0
  8 10  1  0  0  0  0
  8 14  1  0  0  0  0
  8 30  1  0  0  0  0
  9 12  1  0  0  0  0
  9 15  1  0  0  0  0
  9 31  1  0  0  0  0
 10 32  1  0  0  0  0
 10 33  1  0  0  0  0
 11 13  1  0  0  0  0
 11 34  1  0  0  0  0
 11 35  1  0  0  0  0
 12 36  1  0  0  0  0
 12 37  1  0  0  0  0
 13 38  1  0  0  0  0
 13 39  1  0  0  0  0
 14 40  1  0  0  0  0
 14 41  1  0  0  0  0
 16 17  2  0  0  0  0
 16 43  1  0  0  0  0
 17 19  1  0  0  0  0
 18 24  2  0  0  0  0
 18 25  1  0  0  0  0
 19 20  1  0  0  0  0
 19 23  2  0  0  0  0
 20 21  1  0  0  0  0
 20 44  1  0  0  0  0
 20 45  1  0  0  0  0
 21 22  1  0  0  0  0
 21 46  1  0  0  0  0
 21 47  1  0  0  0  0
 22 23  1  0  0  0  0
 22 48  1  0  0  0  0
 22 49  1  0  0  0  0
 23 50  1  0  0  0  0
 24 26  1  0  0  0  0
 24 51  1  0  0  0  0
 25 27  2  0  0  0  0
 25 52  1  0  0  0  0
 26 28  2  0  0  0  0
 26 53  1  0  0  0  0
 27 28  1  0  0  0  0
 27 54  1  0  0  0  0
 28 55  1  0  0  0  0
M  END
> <PUBCHEM_COMPOUND_CID>
11942988

> <PUBCHEM_CONFORMER_RMSD>
1

> <PUBCHEM_CONFORMER_DIVERSEORDER>
1
10
12
4
13
5
15
16
6
20
9
17
21
7
8
11
19
18
2
14
3

> <PUBCHEM_MMFF94_PARTIAL_CHARGES>
32
1 -0.57
12 0.27
13 0.27
14 0.26
15 0.57
16 -0.3
17 0.18
18 0.12
19 -0.09
2 -0.81
20 0.14
22 0.14
23 -0.29
24 -0.15
25 -0.15
26 -0.15
27 -0.15
28 -0.15
3 0.31
4 -0.55
42 0.37
43 0.15
5 -0.42
50 0.15
51 0.15
52 0.15
53 0.15
54 0.15
55 0.15
6 -0.23
8 0.27
9 0.06

> <PUBCHEM_EFFECTIVE_ROTOR_COUNT>
7.8

> <PUBCHEM_PHARMACOPHORE_FEATURES>
7
1 1 acceptor
1 2 cation
1 4 donor
5 19 20 21 22 23 rings
5 3 5 6 16 17 rings
6 18 24 25 26 27 28 rings
8 2 7 8 9 10 11 12 13 rings

> <PUBCHEM_HEAVY_ATOM_COUNT>
28

> <PUBCHEM_ATOM_DEF_STEREO_COUNT>
3

> <PUBCHEM_ATOM_UDEF_STEREO_COUNT>
0

> <PUBCHEM_BOND_DEF_STEREO_COUNT>
0

> <PUBCHEM_BOND_UDEF_STEREO_COUNT>
0

> <PUBCHEM_ISOTOPIC_ATOM_COUNT>
0

> <PUBCHEM_COMPONENT_COUNT>
1

> <PUBCHEM_CACTVS_TAUTO_COUNT>
2

> <PUBCHEM_CONFORMER_ID>
00B63C4C00000001

> <PUBCHEM_MMFF94_ENERGY>
68.3396

> <PUBCHEM_FEATURE_SELFOVERLAP>
35.522

> <PUBCHEM_SHAPE_FINGERPRINT>
10042902 136 9078819784723451209
105312 117 18408889550728837111
10675989 125 18196942071826387794
10904742 38 18271517693315505152
11135609 127 17903063440699237789
11135609 201 18341905048282152177
11763715 3 17182796895829306974
12107183 9 18261945268286080106
12293681 160 17917430900028522657
12633257 1 15791741818911990295
13103583 49 15502665930818279387
13150687 139 18202284667260333655
1361 4 9295026660778923156
13726171 33 17845378765806903745
13941219 33 15936399053525361680
14251764 30 8646765595002972292
14904525 67 18125439968065176900
14950920 106 15430331281430925125
15238133 3 18114190761072734172
15439362 3 18265333898170926523
15803439 3 17131827655723222975
16120349 189 18334012783302764485
17093844 174 18199467843878467362
17899979 129 17984426235538346893
17980427 26 18264195920911571831
18608769 82 18340772645789638979
19438510 23 18336550417674674849
20511986 3 17917986222800923134
20554085 129 18199732696429831953
20567600 254 18335416846919344013
21033648 29 18188224134044392799
21279426 13 18270694082128893502
21304303 282 18338791321157220127
21401589 2 18338529585886131387
21424621 283 18410572868533885364
21756936 100 18335698381783230867
21859007 373 18262237712413878052
2748736 6 18410569574331451156
2838139 119 18343298192958079212
393628 179 18271229578140454792
393628 194 18409736149177224173
4015057 19 16845011328892297000
4112364 45 17969778584397607179
4144715 1 18118410785684807024
4938544 92 18265898132788560988
59755656 520 18408597067676912214
6009941 240 18336549404436692328
6086070 43 16916779734919957674
6327066 14 18409445869442716013
6328613 192 18261397810285262412
636775 8 8286209383744197960
6376802 90 18271813462086081350
7226269 152 18343869935142189224
7288768 16 18259704489131629035
8217 86 9367348132958173668
9896288 288 17968947512273879379
9981440 41 18335430066807959315

> <PUBCHEM_SHAPE_MULTIPOLES>
545.45
18.26
4.44
1.27
18.95
2.84
-0.08
-24.52
1.24
-5.18
-0.69
-0.34
0.34
1.2

> <PUBCHEM_SHAPE_SELFOVERLAP>
1188.5

> <PUBCHEM_SHAPE_VOLUME>
294.8

> <PUBCHEM_COORDINATE_TYPE>
2
5
10

$$$$
