11943039
  -OEChem-12032416153D

 48 50  0     1  0  0  0  0  0999 V2000
   -2.0720    1.9041   -0.5809 O   0  0  0  0  0  0  0  0  0  0  0  0
    2.5091    1.5587   -0.1871 N   0  0  2  0  0  0  0  0  0  0  0  0
   -0.8131   -0.0178   -0.9687 N   0  0  0  0  0  0  0  0  0  0  0  0
    3.0158   -0.5801    1.2032 C   0  0  2  0  0  0  0  0  0  0  0  0
    1.2553    0.7909    0.0399 C   0  0  2  0  0  0  0  0  0  0  0  0
    3.9461   -0.4955   -0.0299 C   0  0  2  0  0  0  0  0  0  0  0  0
    1.5501   -0.5613    0.7263 C   0  0  0  0  0  0  0  0  0  0  0  0
    3.2478    0.6946    2.0356 C   0  0  0  0  0  0  0  0  0  0  0  0
    3.5101    0.7166   -0.8875 C   0  0  0  0  0  0  0  0  0  0  0  0
    3.0643    1.9293    1.1368 C   0  0  0  0  0  0  0  0  0  0  0  0
    0.4416    0.6114   -1.2435 C   0  0  0  0  0  0  0  0  0  0  0  0
    3.9726   -1.7635   -0.8289 C   0  0  0  0  0  0  0  0  0  0  0  0
   -3.1548   -0.2195   -0.4395 C   0  0  0  0  0  0  0  0  0  0  0  0
   -1.9761    0.6820   -0.6577 C   0  0  0  0  0  0  0  0  0  0  0  0
   -3.2339   -0.6273    1.0334 C   0  0  0  0  0  0  0  0  0  0  0  0
   -4.4373    0.4791   -0.8967 C   0  0  0  0  0  0  0  0  0  0  0  0
   -4.4738   -1.4703    1.3194 C   0  0  0  0  0  0  0  0  0  0  0  0
   -5.6746   -0.3664   -0.6059 C   0  0  0  0  0  0  0  0  0  0  0  0
   -5.7494   -0.7679    0.8641 C   0  0  0  0  0  0  0  0  0  0  0  0
    5.0722   -2.4970   -1.0325 C   0  0  0  0  0  0  0  0  0  0  0  0
    3.2178   -1.4747    1.8026 H   0  0  0  0  0  0  0  0  0  0  0  0
    0.6267    1.3826    0.7218 H   0  0  0  0  0  0  0  0  0  0  0  0
    1.3543   -1.4126    0.0661 H   0  0  0  0  0  0  0  0  0  0  0  0
    0.8852   -0.6785    1.5917 H   0  0  0  0  0  0  0  0  0  0  0  0
    4.9627   -0.2948    0.3390 H   0  0  0  0  0  0  0  0  0  0  0  0
    4.2569    0.6924    2.4639 H   0  0  0  0  0  0  0  0  0  0  0  0
    2.5395    0.7287    2.8722 H   0  0  0  0  0  0  0  0  0  0  0  0
    4.3919    1.3316   -1.1130 H   0  0  0  0  0  0  0  0  0  0  0  0
    3.1290    0.4134   -1.8696 H   0  0  0  0  0  0  0  0  0  0  0  0
    2.4048    2.6548    1.6292 H   0  0  0  0  0  0  0  0  0  0  0  0
    4.0226    2.4478    1.0058 H   0  0  0  0  0  0  0  0  0  0  0  0
    0.9584   -0.0216   -1.9715 H   0  0  0  0  0  0  0  0  0  0  0  0
    0.2564    1.5838   -1.7145 H   0  0  0  0  0  0  0  0  0  0  0  0
    3.0478   -2.1010   -1.2893 H   0  0  0  0  0  0  0  0  0  0  0  0
   -0.8438   -1.0329   -0.9967 H   0  0  0  0  0  0  0  0  0  0  0  0
   -3.0303   -1.1245   -1.0496 H   0  0  0  0  0  0  0  0  0  0  0  0
   -3.2482    0.2676    1.6696 H   0  0  0  0  0  0  0  0  0  0  0  0
   -2.3368   -1.1909    1.3177 H   0  0  0  0  0  0  0  0  0  0  0  0
   -4.3852    0.6956   -1.9709 H   0  0  0  0  0  0  0  0  0  0  0  0
   -4.5500    1.4469   -0.3906 H   0  0  0  0  0  0  0  0  0  0  0  0
   -4.5340   -1.6849    2.3923 H   0  0  0  0  0  0  0  0  0  0  0  0
   -4.3849   -2.4352    0.8051 H   0  0  0  0  0  0  0  0  0  0  0  0
   -5.6543   -1.2683   -1.2300 H   0  0  0  0  0  0  0  0  0  0  0  0
   -6.5761    0.1921   -0.8820 H   0  0  0  0  0  0  0  0  0  0  0  0
   -6.6102   -1.4270    1.0231 H   0  0  0  0  0  0  0  0  0  0  0  0
   -5.9130    0.1259    1.4786 H   0  0  0  0  0  0  0  0  0  0  0  0
    5.0262   -3.4011   -1.6300 H   0  0  0  0  0  0  0  0  0  0  0  0
    6.0307   -2.2142   -0.6116 H   0  0  0  0  0  0  0  0  0  0  0  0
  1 14  2  0  0  0  0
  2  5  1  0  0  0  0
  2  9  1  0  0  0  0
  2 10  1  0  0  0  0
  3 11  1  0  0  0  0
  3 14  1  0  0  0  0
  3 35  1  0  0  0  0
  4  6  1  0  0  0  0
  4  7  1  0  0  0  0
  4  8  1  0  0  0  0
  4 21  1  0  0  0  0
  5  7  1  0  0  0  0
  5 11  1  0  0  0  0
  5 22  1  0  0  0  0
  6  9  1  0  0  0  0
  6 12  1  0  0  0  0
  6 25  1  0  0  0  0
  7 23  1  0  0  0  0
  7 24  1  0  0  0  0
  8 10  1  0  0  0  0
  8 26  1  0  0  0  0
  8 27  1  0  0  0  0
  9 28  1  0  0  0  0
  9 29  1  0  0  0  0
 10 30  1  0  0  0  0
 10 31  1  0  0  0  0
 11 32  1  0  0  0  0
 11 33  1  0  0  0  0
 12 20  2  0  0  0  0
 12 34  1  0  0  0  0
 13 14  1  0  0  0  0
 13 15  1  0  0  0  0
 13 16  1  0  0  0  0
 13 36  1  0  0  0  0
 15 17  1  0  0  0  0
 15 37  1  0  0  0  0
 15 38  1  0  0  0  0
 16 18  1  0  0  0  0
 16 39  1  0  0  0  0
 16 40  1  0  0  0  0
 17 19  1  0  0  0  0
 17 41  1  0  0  0  0
 17 42  1  0  0  0  0
 18 19  1  0  0  0  0
 18 43  1  0  0  0  0
 18 44  1  0  0  0  0
 19 45  1  0  0  0  0
 19 46  1  0  0  0  0
 20 47  1  0  0  0  0
 20 48  1  0  0  0  0
M  END
> <PUBCHEM_COMPOUND_CID>
11943039

> <PUBCHEM_CONFORMER_RMSD>
0.8

> <PUBCHEM_CONFORMER_DIVERSEORDER>
1
26
25
31
5
19
23
30
24
11
20
6
28
17
16
9
7
14
8
21
29
2
18
13
4
3
27
12
22
32
15
10

> <PUBCHEM_MMFF94_PARTIAL_CHARGES>
16
1 -0.57
10 0.27
11 0.3
12 -0.29
13 0.06
14 0.57
2 -0.81
20 -0.3
3 -0.73
34 0.15
35 0.37
47 0.15
48 0.15
5 0.27
6 0.14
9 0.27

> <PUBCHEM_EFFECTIVE_ROTOR_COUNT>
7.4

> <PUBCHEM_PHARMACOPHORE_FEATURES>
6
1 1 acceptor
1 2 cation
1 20 hydrophobe
1 3 donor
6 13 15 16 17 18 19 rings
8 2 4 5 6 7 8 9 10 rings

> <PUBCHEM_HEAVY_ATOM_COUNT>
20

> <PUBCHEM_ATOM_DEF_STEREO_COUNT>
3

> <PUBCHEM_ATOM_UDEF_STEREO_COUNT>
0

> <PUBCHEM_BOND_DEF_STEREO_COUNT>
0

> <PUBCHEM_BOND_UDEF_STEREO_COUNT>
0

> <PUBCHEM_ISOTOPIC_ATOM_COUNT>
0

> <PUBCHEM_COMPONENT_COUNT>
1

> <PUBCHEM_CACTVS_TAUTO_COUNT>
2

> <PUBCHEM_CONFORMER_ID>
00B63C7F00000001

> <PUBCHEM_MMFF94_ENERGY>
35.7156

> <PUBCHEM_FEATURE_SELFOVERLAP>
30.446

> <PUBCHEM_SHAPE_FINGERPRINT>
10366900 7 17968097495253122379
10912923 1 16558744654917024709
11128504 68 13695589949017385815
11545043 162 18340205185313500189
11552529 35 17487336199412736543
11796584 16 17749387096516918355
12403259 118 14836126537917338555
12507560 40 18342731901530826340
12596602 18 17418089975313603699
12616971 3 16487252171322426245
12616999 72 15719110249570858698
12633257 1 17132116840055420287
12788726 201 15792004529155778709
13167823 11 16732977648468816049
13533116 47 18131914862278591683
13675066 3 18336539499767542365
13911852 28 17772475582085620702
13914758 101 17631732665576749985
13955234 65 18272649087001931560
14251740 57 18262807383775066471
14251764 30 17843976849252368926
14252887 29 18412257355092602224
14341114 176 18272936011495471091
14528608 73 15285648706615944478
14617045 38 17385730179776785963
15142526 21 16554499565108148944
15238133 3 15123517998991375195
15880784 105 18059572525258142415
17844677 252 18131071524170461953
17870717 6 17675929781427826511
18222031 100 17603584136353748525
193927 3 18334863792085152423
20645477 70 18410848863248364542
21065201 7 18114173086749645245
212847 35 14764352660232976712
21365058 113 18339377279313087340
21521239 73 15502661439332774450
21521721 280 18130228281089579040
21682296 61 17986681367671933902
2215653 11 18187077343923135247
23559900 14 18113901567575529757
239999 70 17967816089338954988
2871803 45 17748825215535567499
3004659 81 15068608371204541472
312423 11 18410867541903431197
34797466 226 17895201038352236989
46194498 28 18261118461311315894
465052 167 18201726136944473190
5104073 3 18339919320922677896
5374978 207 18334566975738825353
6823239 73 18041002847205636906
8509985 295 15410896245215647146
8863177 126 18411423920789206038
90127 26 18411132533217405993
960060 61 14779546785605191887

> <PUBCHEM_SHAPE_MULTIPOLES>
395.76
13.1
1.87
1.53
11.97
0.35
0.46
5.66
0.68
-2.56
-0.14
-0.29
-0.03
2.04

> <PUBCHEM_SHAPE_SELFOVERLAP>
814.824

> <PUBCHEM_SHAPE_VOLUME>
222.3

> <PUBCHEM_COORDINATE_TYPE>
2
5
10

$$$$
