45783404
  -OEChem-12032416263D

 59 62  0     1  0  0  0  0  0999 V2000
    2.9166    3.1399   -0.5359 S   0  0  0  0  0  0  0  0  0  0  0  0
   -0.8850    0.1192    2.6810 O   0  0  0  0  0  0  0  0  0  0  0  0
    3.2693    3.0393   -1.9455 O   0  0  0  0  0  0  0  0  0  0  0  0
    3.2232    4.3578    0.2006 O   0  0  0  0  0  0  0  0  0  0  0  0
   -1.4858   -2.0322   -2.8973 O   0  0  0  0  0  0  0  0  0  0  0  0
   -3.2649    0.5899    0.1388 N   0  0  1  0  0  0  0  0  0  0  0  0
   -0.8279   -1.2406    0.9021 N   0  0  0  0  0  0  0  0  0  0  0  0
    0.4142   -0.4018    2.6306 N   0  0  0  0  0  0  0  0  0  0  0  0
    0.7637   -1.8318   -1.1844 N   0  0  0  0  0  0  0  0  0  0  0  0
    2.7657   -2.9858   -0.6750 N   0  0  0  0  0  0  0  0  0  0  0  0
   -2.9976   -0.0144    1.4593 C   0  0  1  0  0  0  0  0  0  0  0  0
   -3.9686   -1.2062    1.5478 C   0  0  0  0  0  0  0  0  0  0  0  0
   -4.7803   -1.1544    0.2613 C   0  0  0  0  0  0  0  0  0  0  0  0
   -4.6619    0.2913   -0.1772 C   0  0  0  0  0  0  0  0  0  0  0  0
   -2.9863    2.0196    0.0943 C   0  0  0  0  0  0  0  0  0  0  0  0
   -1.5501   -0.4258    1.6289 C   0  0  0  0  0  0  0  0  0  0  0  0
   -1.5154    2.2995   -0.0634 C   0  0  0  0  0  0  0  0  0  0  0  0
   -0.8430    3.0574    0.8954 C   0  0  0  0  0  0  0  0  0  0  0  0
   -0.8249    1.8007   -1.1680 C   0  0  0  0  0  0  0  0  0  0  0  0
    0.3693   -1.1939    1.5552 C   0  0  0  0  0  0  0  0  0  0  0  0
    0.5197    3.3167    0.7493 C   0  0  0  0  0  0  0  0  0  0  0  0
    0.5378    2.0600   -1.3141 C   0  0  0  0  0  0  0  0  0  0  0  0
    1.2101    2.8180   -0.3554 C   0  0  0  0  0  0  0  0  0  0  0  0
    1.5014   -1.9527    1.1080 C   0  0  0  0  0  0  0  0  0  0  0  0
    1.7094   -2.2728   -0.2240 C   0  0  0  0  0  0  0  0  0  0  0  0
    2.4379   -2.3925    2.0369 C   0  0  0  0  0  0  0  0  0  0  0  0
    3.7129    1.7836    0.2948 C   0  0  0  0  0  0  0  0  0  0  0  0
    3.5382   -3.1286    1.6115 C   0  0  0  0  0  0  0  0  0  0  0  0
    0.8933   -2.1125   -2.5765 C   0  0  0  0  0  0  0  0  0  0  0  0
    3.6550   -3.3962    0.2570 C   0  0  0  0  0  0  0  0  0  0  0  0
   -0.2545   -1.4783   -3.3435 C   0  0  0  0  0  0  0  0  0  0  0  0
   -2.5913   -1.4725   -3.5926 C   0  0  0  0  0  0  0  0  0  0  0  0
   -3.2623    0.6825    2.2670 H   0  0  0  0  0  0  0  0  0  0  0  0
   -3.4735   -2.1772    1.6567 H   0  0  0  0  0  0  0  0  0  0  0  0
   -4.6371   -1.0731    2.4073 H   0  0  0  0  0  0  0  0  0  0  0  0
   -5.8186   -1.4632    0.4140 H   0  0  0  0  0  0  0  0  0  0  0  0
   -4.3330   -1.8192   -0.4882 H   0  0  0  0  0  0  0  0  0  0  0  0
   -5.3532    0.9212    0.3969 H   0  0  0  0  0  0  0  0  0  0  0  0
   -4.8766    0.4062   -1.2442 H   0  0  0  0  0  0  0  0  0  0  0  0
   -3.4053    2.5427    0.9639 H   0  0  0  0  0  0  0  0  0  0  0  0
   -3.4756    2.4676   -0.7821 H   0  0  0  0  0  0  0  0  0  0  0  0
   -1.3674    3.4488    1.7629 H   0  0  0  0  0  0  0  0  0  0  0  0
   -1.3421    1.2196   -1.9249 H   0  0  0  0  0  0  0  0  0  0  0  0
    1.0247    3.9018    1.5127 H   0  0  0  0  0  0  0  0  0  0  0  0
    1.0574    1.6580   -2.1791 H   0  0  0  0  0  0  0  0  0  0  0  0
    2.3345   -2.1844    3.0990 H   0  0  0  0  0  0  0  0  0  0  0  0
    3.4306    0.8507   -0.1972 H   0  0  0  0  0  0  0  0  0  0  0  0
    3.4047    1.7780    1.3420 H   0  0  0  0  0  0  0  0  0  0  0  0
    4.7929    1.9297    0.2250 H   0  0  0  0  0  0  0  0  0  0  0  0
    0.2043   -1.0269   -0.9234 H   0  0  0  0  0  0  0  0  0  0  0  0
    4.2801   -3.4833    2.3177 H   0  0  0  0  0  0  0  0  0  0  0  0
    1.8415   -1.7220   -2.9630 H   0  0  0  0  0  0  0  0  0  0  0  0
    0.8754   -3.1973   -2.7353 H   0  0  0  0  0  0  0  0  0  0  0  0
    4.4946   -3.9667   -0.1260 H   0  0  0  0  0  0  0  0  0  0  0  0
   -0.1311   -1.6867   -4.4128 H   0  0  0  0  0  0  0  0  0  0  0  0
   -0.2598   -0.3933   -3.2034 H   0  0  0  0  0  0  0  0  0  0  0  0
   -3.5063   -1.9330   -3.2107 H   0  0  0  0  0  0  0  0  0  0  0  0
   -2.5164   -1.6806   -4.6642 H   0  0  0  0  0  0  0  0  0  0  0  0
   -2.6477   -0.3934   -3.4207 H   0  0  0  0  0  0  0  0  0  0  0  0
  1  3  2  0  0  0  0
  1  4  2  0  0  0  0
  1 23  1  0  0  0  0
  1 27  1  0  0  0  0
  2  8  1  0  0  0  0
  2 16  1  0  0  0  0
  5 31  1  0  0  0  0
  5 32  1  0  0  0  0
  6 11  1  0  0  0  0
  6 14  1  0  0  0  0
  6 15  1  0  0  0  0
  7 16  2  0  0  0  0
  7 20  1  0  0  0  0
  8 20  2  0  0  0  0
  9 25  1  0  0  0  0
  9 29  1  0  0  0  0
  9 50  1  0  0  0  0
 10 25  1  0  0  0  0
 10 30  2  0  0  0  0
 11 12  1  0  0  0  0
 11 16  1  0  0  0  0
 11 33  1  0  0  0  0
 12 13  1  0  0  0  0
 12 34  1  0  0  0  0
 12 35  1  0  0  0  0
 13 14  1  0  0  0  0
 13 36  1  0  0  0  0
 13 37  1  0  0  0  0
 14 38  1  0  0  0  0
 14 39  1  0  0  0  0
 15 17  1  0  0  0  0
 15 40  1  0  0  0  0
 15 41  1  0  0  0  0
 17 18  2  0  0  0  0
 17 19  1  0  0  0  0
 18 21  1  0  0  0  0
 18 42  1  0  0  0  0
 19 22  2  0  0  0  0
 19 43  1  0  0  0  0
 20 24  1  0  0  0  0
 21 23  2  0  0  0  0
 21 44  1  0  0  0  0
 22 23  1  0  0  0  0
 22 45  1  0  0  0  0
 24 25  2  0  0  0  0
 24 26  1  0  0  0  0
 26 28  2  0  0  0  0
 26 46  1  0  0  0  0
 27 47  1  0  0  0  0
 27 48  1  0  0  0  0
 27 49  1  0  0  0  0
 28 30  1  0  0  0  0
 28 51  1  0  0  0  0
 29 31  1  0  0  0  0
 29 52  1  0  0  0  0
 29 53  1  0  0  0  0
 30 54  1  0  0  0  0
 31 55  1  0  0  0  0
 31 56  1  0  0  0  0
 32 57  1  0  0  0  0
 32 58  1  0  0  0  0
 32 59  1  0  0  0  0
M  END
> <PUBCHEM_COMPOUND_CID>
45783404

> <PUBCHEM_CONFORMER_RMSD>
1

> <PUBCHEM_CONFORMER_DIVERSEORDER>
1
153
108
119
52
129
22
97
55
113
162
71
2
123
139
54
115
60
154
109
160
141
101
127
14
66
116
152
91
61
166
70
134
4
165
102
63
132
37
27
126
11
35
94
157
34
142
137
135
12
146
57
79
121
81
136
120
83
125
40
67
41
167
145
45
104
114
99
64
65
13
6
31
159
122
128
93
140
117
156
30
76
3
82
107
111
110
95
158
144
43
38
62
9
77
133
74
131
42
50
20
92
8
39
33
148
96
49
75
161
7
168
90
149
112
16
44
130
47
5
73
164
21
124
143
100
32
19
98
155
18
150
89
86
29
118
24
69
51
25
53
80
163
72
147
58
106
10
151
138
103
87
48
68
56
84
17
105
26
85
36
88
59
23
78
46
15
28

> <PUBCHEM_MMFF94_PARTIAL_CHARGES>
38
1 1.2
10 -0.62
11 0.45
14 0.27
15 0.41
16 0.3
17 -0.14
18 -0.15
19 -0.15
2 -0.02
20 0.46
21 -0.15
22 -0.15
23 -0.01
24 0.05
25 0.41
26 -0.15
27 0.11
28 -0.15
29 0.37
3 -0.65
30 0.16
31 0.28
32 0.28
4 -0.65
42 0.15
43 0.15
44 0.15
45 0.15
46 0.15
5 -0.56
50 0.4
51 0.15
54 0.15
6 -0.81
7 -0.57
8 -0.41
9 -0.87

> <PUBCHEM_EFFECTIVE_ROTOR_COUNT>
10

> <PUBCHEM_PHARMACOPHORE_FEATURES>
12
1 10 acceptor
1 3 acceptor
1 4 acceptor
1 5 acceptor
1 6 cation
1 9 cation
1 9 donor
3 7 8 20 cation
5 2 7 8 16 20 rings
5 6 11 12 13 14 rings
6 10 24 25 26 28 30 rings
6 17 18 19 21 22 23 rings

> <PUBCHEM_HEAVY_ATOM_COUNT>
32

> <PUBCHEM_ATOM_DEF_STEREO_COUNT>
1

> <PUBCHEM_ATOM_UDEF_STEREO_COUNT>
0

> <PUBCHEM_BOND_DEF_STEREO_COUNT>
0

> <PUBCHEM_BOND_UDEF_STEREO_COUNT>
0

> <PUBCHEM_ISOTOPIC_ATOM_COUNT>
0

> <PUBCHEM_COMPONENT_COUNT>
1

> <PUBCHEM_CACTVS_TAUTO_COUNT>
8

> <PUBCHEM_CONFORMER_ID>
02BA996C00000001

> <PUBCHEM_MMFF94_ENERGY>
68.5768

> <PUBCHEM_FEATURE_SELFOVERLAP>
60.915

> <PUBCHEM_SHAPE_FINGERPRINT>
11421498 54 17553189313343162782
11578080 2 16806147874916627493
12156800 1 17032508997882495135
133893 2 18193306085209175032
13615921 28 17970912146230817110
13761468 95 16021155693157962510
15274700 242 17833815454698363832
15876981 60 17755882826493789462
15968369 153 18340476761529985650
20028762 73 17329453030076881203
20600515 1 17541386739213796773
20764821 26 17899716574189523688
20905425 154 18336277777145206113
21133410 230 16885309607240636906
21304303 282 16902964589643093833
21860390 5 18335141960359070890
23419403 2 17531791511427673254
3298306 158 18335987583158278084
35225 105 16527507791422749023
469060 322 17910075106825121087
550186 7 17185591317980340310
59755656 215 18117565252658186153

> <PUBCHEM_SHAPE_MULTIPOLES>
614.01
6.87
5.39
3.1
3.07
4.33
2.47
-2.6
-1.4
-6.39
0.68
0.84
-2.53
-1.58

> <PUBCHEM_SHAPE_SELFOVERLAP>
1297.855

> <PUBCHEM_SHAPE_VOLUME>
347.9

> <PUBCHEM_COORDINATE_TYPE>
2
5
10

$$$$
