71692874
  -OEChem-12032416403D

 87 91  0     1  0  0  0  0  0999 V2000
    4.8549   -2.8267    0.1126 O   0  0  0  0  0  0  0  0  0  0  0  0
   -2.0789    0.8603    0.1967 O   0  0  0  0  0  0  0  0  0  0  0  0
   -1.6507   -3.6050   -2.0040 O   0  0  0  0  0  0  0  0  0  0  0  0
    9.9576    4.0183   -1.1092 O   0  0  0  0  0  0  0  0  0  0  0  0
  -10.3050    2.1588   -0.5144 O   0  0  0  0  0  0  0  0  0  0  0  0
   -0.2127   -3.2524   -0.2197 N   0  0  0  0  0  0  0  0  0  0  0  0
    5.8619   -0.7651    0.4741 N   0  0  0  0  0  0  0  0  0  0  0  0
    7.9808    1.0548   -0.1637 N   0  0  0  0  0  0  0  0  0  0  0  0
   -3.1144   -2.0652    0.4289 N   0  0  0  0  0  0  0  0  0  0  0  0
   -7.5762    1.5863   -0.1609 N   0  0  0  0  0  0  0  0  0  0  0  0
    1.0418   -1.7884    1.3743 C   0  0  2  0  0  0  0  0  0  0  0  0
    2.3360   -2.1091    0.5794 C   0  0  1  0  0  0  0  0  0  0  0  0
    2.0175   -2.3813   -0.8973 C   0  0  0  0  0  0  0  0  0  0  0  0
    0.0581   -2.9704    1.1993 C   0  0  0  0  0  0  0  0  0  0  0  0
    0.3932   -0.4431    0.9666 C   0  0  0  0  0  0  0  0  0  0  0  0
    0.9777   -3.4879   -1.0419 C   0  0  0  0  0  0  0  0  0  0  0  0
    3.4197   -1.0390    0.7135 C   0  0  0  0  0  0  0  0  0  0  0  0
   -0.6644    0.0477    1.9650 C   0  0  0  0  0  0  0  0  0  0  0  0
    4.7719   -1.6317    0.4067 C   0  0  0  0  0  0  0  0  0  0  0  0
   -1.4748   -3.4235   -0.7937 C   0  0  0  0  0  0  0  0  0  0  0  0
   -1.4584    1.2417    1.4304 C   0  0  0  0  0  0  0  0  0  0  0  0
    7.2064   -1.2620    0.1857 C   0  0  0  0  0  0  0  0  0  0  0  0
    5.8147    0.6215    0.9473 C   0  0  0  0  0  0  0  0  0  0  0  0
    7.9682   -0.3026   -0.7281 C   0  0  0  0  0  0  0  0  0  0  0  0
    6.6078    1.5468    0.0226 C   0  0  0  0  0  0  0  0  0  0  0  0
   -2.6864   -3.4272    0.1173 C   0  0  0  0  0  0  0  0  0  0  0  0
    8.7391    1.9618   -1.0243 C   0  0  0  0  0  0  0  0  0  0  0  0
   -3.6331   -1.3355   -0.7314 C   0  0  0  0  0  0  0  0  0  0  0  0
   -3.4327    1.0576    0.1445 C   0  0  0  0  0  0  0  0  0  0  0  0
   -4.2290    0.0004   -0.3324 C   0  0  0  0  0  0  0  0  0  0  0  0
    9.2129    3.1750   -0.2402 C   0  0  0  0  0  0  0  0  0  0  0  0
   -5.6164    0.1915   -0.4199 C   0  0  0  0  0  0  0  0  0  0  0  0
   -4.0091    2.2882    0.4780 C   0  0  0  0  0  0  0  0  0  0  0  0
   -6.1917    1.4125   -0.0639 C   0  0  0  0  0  0  0  0  0  0  0  0
   -5.3886    2.4604    0.3793 C   0  0  0  0  0  0  0  0  0  0  0  0
   -8.2055    1.4197   -1.4782 C   0  0  0  0  0  0  0  0  0  0  0  0
   -8.2626    2.5122    0.7466 C   0  0  0  0  0  0  0  0  0  0  0  0
   -9.6942    1.1399   -1.3059 C   0  0  0  0  0  0  0  0  0  0  0  0
   -9.7486    2.1748    0.7997 C   0  0  0  0  0  0  0  0  0  0  0  0
   10.4132    5.1858   -0.4390 C   0  0  0  0  0  0  0  0  0  0  0  0
    1.3072   -1.7263    2.4383 H   0  0  0  0  0  0  0  0  0  0  0  0
    2.7126   -3.0462    1.0154 H   0  0  0  0  0  0  0  0  0  0  0  0
    2.9138   -2.6708   -1.4558 H   0  0  0  0  0  0  0  0  0  0  0  0
    1.6400   -1.4681   -1.3737 H   0  0  0  0  0  0  0  0  0  0  0  0
    0.5031   -3.8833    1.6157 H   0  0  0  0  0  0  0  0  0  0  0  0
   -0.8546   -2.7987    1.7668 H   0  0  0  0  0  0  0  0  0  0  0  0
   -0.0461   -0.5372   -0.0322 H   0  0  0  0  0  0  0  0  0  0  0  0
    1.1573    0.3387    0.8936 H   0  0  0  0  0  0  0  0  0  0  0  0
    0.7087   -3.6003   -2.0971 H   0  0  0  0  0  0  0  0  0  0  0  0
    1.4018   -4.4461   -0.7174 H   0  0  0  0  0  0  0  0  0  0  0  0
    3.4421   -0.6674    1.7444 H   0  0  0  0  0  0  0  0  0  0  0  0
    3.2291   -0.2034    0.0317 H   0  0  0  0  0  0  0  0  0  0  0  0
   -1.3516   -0.7479    2.2539 H   0  0  0  0  0  0  0  0  0  0  0  0
   -0.1582    0.3523    2.8896 H   0  0  0  0  0  0  0  0  0  0  0  0
   -2.1785    1.5488    2.1988 H   0  0  0  0  0  0  0  0  0  0  0  0
   -0.7909    2.0862    1.2273 H   0  0  0  0  0  0  0  0  0  0  0  0
    7.1611   -2.2538   -0.2758 H   0  0  0  0  0  0  0  0  0  0  0  0
    7.7240   -1.3717    1.1466 H   0  0  0  0  0  0  0  0  0  0  0  0
    6.2453    0.6289    1.9564 H   0  0  0  0  0  0  0  0  0  0  0  0
    4.7909    0.9901    1.0327 H   0  0  0  0  0  0  0  0  0  0  0  0
    8.9934   -0.6765   -0.8368 H   0  0  0  0  0  0  0  0  0  0  0  0
    7.5085   -0.3003   -1.7255 H   0  0  0  0  0  0  0  0  0  0  0  0
    6.6027    2.5441    0.4742 H   0  0  0  0  0  0  0  0  0  0  0  0
    6.0906    1.6211   -0.9435 H   0  0  0  0  0  0  0  0  0  0  0  0
   -3.4964   -3.9833   -0.3700 H   0  0  0  0  0  0  0  0  0  0  0  0
   -2.4662   -3.9777    1.0368 H   0  0  0  0  0  0  0  0  0  0  0  0
    8.1720    2.2656   -1.9143 H   0  0  0  0  0  0  0  0  0  0  0  0
    9.6381    1.4620   -1.4105 H   0  0  0  0  0  0  0  0  0  0  0  0
   -2.3325   -1.5476    0.8122 H   0  0  0  0  0  0  0  0  0  0  0  0
   -4.3999   -1.9369   -1.2354 H   0  0  0  0  0  0  0  0  0  0  0  0
   -2.8433   -1.1508   -1.4698 H   0  0  0  0  0  0  0  0  0  0  0  0
    9.8507    2.8614    0.5955 H   0  0  0  0  0  0  0  0  0  0  0  0
    8.3693    3.7469    0.1598 H   0  0  0  0  0  0  0  0  0  0  0  0
   -6.2467   -0.6283   -0.7585 H   0  0  0  0  0  0  0  0  0  0  0  0
   -3.3937    3.1224    0.8035 H   0  0  0  0  0  0  0  0  0  0  0  0
   -5.8009    3.4314    0.6387 H   0  0  0  0  0  0  0  0  0  0  0  0
   -7.7583    0.6015   -2.0529 H   0  0  0  0  0  0  0  0  0  0  0  0
   -8.0659    2.3459   -2.0496 H   0  0  0  0  0  0  0  0  0  0  0  0
   -8.1385    3.5377    0.3774 H   0  0  0  0  0  0  0  0  0  0  0  0
   -7.8531    2.4519    1.7618 H   0  0  0  0  0  0  0  0  0  0  0  0
   -9.8657    0.1627   -0.8385 H   0  0  0  0  0  0  0  0  0  0  0  0
  -10.1880    1.1318   -2.2827 H   0  0  0  0  0  0  0  0  0  0  0  0
  -10.2828    2.9318    1.3825 H   0  0  0  0  0  0  0  0  0  0  0  0
   -9.9207    1.2038    1.2799 H   0  0  0  0  0  0  0  0  0  0  0  0
   10.9830    5.7902   -1.1499 H   0  0  0  0  0  0  0  0  0  0  0  0
   11.0685    4.9185    0.3956 H   0  0  0  0  0  0  0  0  0  0  0  0
    9.5659    5.7775   -0.0791 H   0  0  0  0  0  0  0  0  0  0  0  0
  1 19  2  0  0  0  0
  2 21  1  0  0  0  0
  2 29  1  0  0  0  0
  3 20  2  0  0  0  0
  4 31  1  0  0  0  0
  4 40  1  0  0  0  0
  5 38  1  0  0  0  0
  5 39  1  0  0  0  0
  6 14  1  0  0  0  0
  6 16  1  0  0  0  0
  6 20  1  0  0  0  0
  7 19  1  0  0  0  0
  7 22  1  0  0  0  0
  7 23  1  0  0  0  0
  8 24  1  0  0  0  0
  8 25  1  0  0  0  0
  8 27  1  0  0  0  0
  9 26  1  0  0  0  0
  9 28  1  0  0  0  0
  9 69  1  0  0  0  0
 10 34  1  0  0  0  0
 10 36  1  0  0  0  0
 10 37  1  0  0  0  0
 11 12  1  0  0  0  0
 11 14  1  0  0  0  0
 11 15  1  0  0  0  0
 11 41  1  0  0  0  0
 12 13  1  0  0  0  0
 12 17  1  0  0  0  0
 12 42  1  0  0  0  0
 13 16  1  0  0  0  0
 13 43  1  0  0  0  0
 13 44  1  0  0  0  0
 14 45  1  0  0  0  0
 14 46  1  0  0  0  0
 15 18  1  0  0  0  0
 15 47  1  0  0  0  0
 15 48  1  0  0  0  0
 16 49  1  0  0  0  0
 16 50  1  0  0  0  0
 17 19  1  0  0  0  0
 17 51  1  0  0  0  0
 17 52  1  0  0  0  0
 18 21  1  0  0  0  0
 18 53  1  0  0  0  0
 18 54  1  0  0  0  0
 20 26  1  0  0  0  0
 21 55  1  0  0  0  0
 21 56  1  0  0  0  0
 22 24  1  0  0  0  0
 22 57  1  0  0  0  0
 22 58  1  0  0  0  0
 23 25  1  0  0  0  0
 23 59  1  0  0  0  0
 23 60  1  0  0  0  0
 24 61  1  0  0  0  0
 24 62  1  0  0  0  0
 25 63  1  0  0  0  0
 25 64  1  0  0  0  0
 26 65  1  0  0  0  0
 26 66  1  0  0  0  0
 27 31  1  0  0  0  0
 27 67  1  0  0  0  0
 27 68  1  0  0  0  0
 28 30  1  0  0  0  0
 28 70  1  0  0  0  0
 28 71  1  0  0  0  0
 29 30  2  0  0  0  0
 29 33  1  0  0  0  0
 30 32  1  0  0  0  0
 31 72  1  0  0  0  0
 31 73  1  0  0  0  0
 32 34  2  0  0  0  0
 32 74  1  0  0  0  0
 33 35  2  0  0  0  0
 33 75  1  0  0  0  0
 34 35  1  0  0  0  0
 35 76  1  0  0  0  0
 36 38  1  0  0  0  0
 36 77  1  0  0  0  0
 36 78  1  0  0  0  0
 37 39  1  0  0  0  0
 37 79  1  0  0  0  0
 37 80  1  0  0  0  0
 38 81  1  0  0  0  0
 38 82  1  0  0  0  0
 39 83  1  0  0  0  0
 39 84  1  0  0  0  0
 40 85  1  0  0  0  0
 40 86  1  0  0  0  0
 40 87  1  0  0  0  0
M  END
> <PUBCHEM_COMPOUND_CID>
71692874

> <PUBCHEM_CONFORMER_RMSD>
1.2

> <PUBCHEM_CONFORMER_DIVERSEORDER>
1
48
32
15
63
60
53
62
61
35
18
21
44
57
27
52
51
72
73
9
64
39
69
58
45
19
65
47
34
50
54
26
43
12
22
38
55
10
31
67
70
42
28
40
20
3
46
66
30
68
16
24
56
25
7
49
37
8
71
14
74
59
23
36
2
5
29
41
33
17
4
6
13
11

> <PUBCHEM_MMFF94_PARTIAL_CHARGES>
39
1 -0.57
10 -0.84
14 0.3
16 0.3
17 0.06
19 0.57
2 -0.36
20 0.57
21 0.28
22 0.3
23 0.3
24 0.27
25 0.27
26 0.33
27 0.27
28 0.41
29 0.08
3 -0.57
30 -0.14
31 0.28
32 -0.15
33 -0.15
34 0.1
35 -0.15
36 0.37
37 0.37
38 0.28
39 0.28
4 -0.56
40 0.28
5 -0.56
6 -0.66
69 0.36
7 -0.66
74 0.15
75 0.15
76 0.15
8 -0.81
9 -0.9

> <PUBCHEM_EFFECTIVE_ROTOR_COUNT>
11.6

> <PUBCHEM_PHARMACOPHORE_FEATURES>
13
1 1 acceptor
1 10 cation
1 2 acceptor
1 3 acceptor
1 4 acceptor
1 5 acceptor
1 8 cation
1 9 cation
1 9 donor
6 29 30 32 33 34 35 rings
6 5 10 36 37 38 39 rings
6 6 11 12 13 14 16 rings
6 7 8 22 23 24 25 rings

> <PUBCHEM_HEAVY_ATOM_COUNT>
40

> <PUBCHEM_ATOM_DEF_STEREO_COUNT>
2

> <PUBCHEM_ATOM_UDEF_STEREO_COUNT>
0

> <PUBCHEM_BOND_DEF_STEREO_COUNT>
0

> <PUBCHEM_BOND_UDEF_STEREO_COUNT>
0

> <PUBCHEM_ISOTOPIC_ATOM_COUNT>
0

> <PUBCHEM_COMPONENT_COUNT>
1

> <PUBCHEM_CACTVS_TAUTO_COUNT>
2

> <PUBCHEM_CONFORMER_ID>
0445F24A00000001

> <PUBCHEM_MMFF94_ENERGY>
120.8628

> <PUBCHEM_FEATURE_SELFOVERLAP>
65.974

> <PUBCHEM_SHAPE_FINGERPRINT>
10209105 3 10231763270820250224
10533779 1 18337109077674140216
10533779 47 10303517451747396973
10930396 42 16370725916468799933
11374522 155 18410858724979202709
11409948 8 18262250963263647347
11421887 21 18341903983342239276
11421887 45 18339628049537943492
11621639 148 18186809093303917277
12013929 94 18412545415271964825
12522641 33 18341897367946897725
13150687 139 18342182124595646926
13726171 33 18411426094116056979
13947947 74 18060414682434590593
14142895 15 18411136909789035273
14664723 55 18341900658266321078
15347591 1 18409168849007377266
15685185 35 18409728487191736493
15840311 113 18260831436762845198
15890870 6 18342174436398393447
18608769 82 18343014455747166619
19301679 30 8646773309349389584
2026 5 10159705685456535980
20982279 24 12391513143844080653
21360443 126 18412259519645765459
21585482 111 18336266843023750980
23522609 53 17630338432623152137
23528521 120 18113893863322546677
23569943 247 8790592729272738077
23729417 116 17694499647784362006
406291 66 9871753494626307708
4112364 45 17458355125956509743
44802255 64 17773887583192342462
4516262 110 18186792557015287039
474113 269 9295281729921170913
5265222 85 18342737437770031627
54583773 228 18410290337828884135
5776283 40 18273208703754750617
6201320 82 18339095886326266228
6204607 403 18272095933991128609

> <PUBCHEM_SHAPE_MULTIPOLES>
768.93
35.31
5.52
1.32
16.09
0.72
0.02
55.76
-10.18
8.65
-1.38
-0.65
-0.28
-2.69

> <PUBCHEM_SHAPE_SELFOVERLAP>
1592.539

> <PUBCHEM_SHAPE_VOLUME>
433.5

> <PUBCHEM_COORDINATE_TYPE>
2
5
10

$$$$
