11882868
  -OEChem-12032416173D

 70 74  0     1  0  0  0  0  0999 V2000
   -0.7433    3.1703    0.3847 S   0  0  0  0  0  0  0  0  0  0  0  0
    5.7950    2.3615   -0.4056 S   0  0  0  0  0  0  0  0  0  0  0  0
   -7.4838   -0.7478   -0.5317 O   0  0  0  0  0  0  0  0  0  0  0  0
   -7.4814    0.9019    1.2070 O   0  0  0  0  0  0  0  0  0  0  0  0
    0.4457   -1.5316   -1.8563 O   0  0  0  0  0  0  0  0  0  0  0  0
    3.2006    0.9205   -0.4814 O   0  0  0  0  0  0  0  0  0  0  0  0
    0.2989    0.8729   -0.1885 N   0  0  0  0  0  0  0  0  0  0  0  0
    1.0998   -3.1375   -0.3088 N   0  0  0  0  0  0  0  0  0  0  0  0
    1.8177    2.7315    0.0315 N   0  0  0  0  0  0  0  0  0  0  0  0
   -3.1991   -0.6830    0.2714 C   0  0  2  0  0  0  0  0  0  0  0  0
   -3.9383    0.6420   -0.2116 C   0  0  1  0  0  0  0  0  0  0  0  0
   -5.5132    0.6555   -0.1243 C   0  0  1  0  0  0  0  0  0  0  0  0
   -1.7075   -0.6520   -0.3011 C   0  0  1  0  0  0  0  0  0  0  0  0
   -3.9230   -1.9214   -0.3178 C   0  0  0  0  0  0  0  0  0  0  0  0
   -6.0702   -0.6716   -0.7129 C   0  0  1  0  0  0  0  0  0  0  0  0
   -3.2666    1.9157    0.3796 C   0  0  0  0  0  0  0  0  0  0  0  0
   -5.4301   -1.9143   -0.1043 C   0  0  0  0  0  0  0  0  0  0  0  0
   -3.1560   -0.8195    1.8134 C   0  0  0  0  0  0  0  0  0  0  0  0
   -1.0671    0.6931   -0.0725 C   0  0  0  0  0  0  0  0  0  0  0  0
   -6.0741    0.9078    1.2927 C   0  0  0  0  0  0  0  0  0  0  0  0
   -6.0597    1.8163   -1.0028 C   0  0  0  0  0  0  0  0  0  0  0  0
   -1.7867    1.8353    0.2137 C   0  0  0  0  0  0  0  0  0  0  0  0
   -0.8097   -1.7933    0.1955 C   0  0  0  0  0  0  0  0  0  0  0  0
    0.2957   -2.1119   -0.7844 C   0  0  0  0  0  0  0  0  0  0  0  0
    0.5840    2.1367    0.0391 C   0  0  0  0  0  0  0  0  0  0  0  0
    2.2351   -3.6538   -1.0385 C   0  0  0  0  0  0  0  0  0  0  0  0
    3.0626    2.1141   -0.2240 C   0  0  0  0  0  0  0  0  0  0  0  0
    3.5153   -3.4977   -0.2697 C   0  0  0  0  0  0  0  0  0  0  0  0
    4.2337    3.0025   -0.1164 C   0  0  0  0  0  0  0  0  0  0  0  0
    4.2796   -2.3399   -0.4159 C   0  0  0  0  0  0  0  0  0  0  0  0
    3.9402   -4.5099    0.5909 C   0  0  0  0  0  0  0  0  0  0  0  0
    4.2753    4.3432    0.1974 C   0  0  0  0  0  0  0  0  0  0  0  0
    5.4689   -2.1945    0.2984 C   0  0  0  0  0  0  0  0  0  0  0  0
    5.1295   -4.3643    1.3051 C   0  0  0  0  0  0  0  0  0  0  0  0
    5.6066    4.8509    0.2004 C   0  0  0  0  0  0  0  0  0  0  0  0
    5.8938   -3.2066    1.1589 C   0  0  0  0  0  0  0  0  0  0  0  0
    6.5317    3.8789   -0.1112 C   0  0  0  0  0  0  0  0  0  0  0  0
   -3.7310    0.6804   -1.2953 H   0  0  0  0  0  0  0  0  0  0  0  0
   -1.8071   -0.7378   -1.3936 H   0  0  0  0  0  0  0  0  0  0  0  0
   -3.7319   -1.9793   -1.3976 H   0  0  0  0  0  0  0  0  0  0  0  0
   -3.5248   -2.8472    0.1126 H   0  0  0  0  0  0  0  0  0  0  0  0
   -5.8908   -0.6835   -1.7963 H   0  0  0  0  0  0  0  0  0  0  0  0
   -3.6379    2.8096   -0.1327 H   0  0  0  0  0  0  0  0  0  0  0  0
   -3.5013    2.0241    1.4437 H   0  0  0  0  0  0  0  0  0  0  0  0
   -5.8627   -2.8090   -0.5705 H   0  0  0  0  0  0  0  0  0  0  0  0
   -5.6826   -2.0001    0.9583 H   0  0  0  0  0  0  0  0  0  0  0  0
   -2.6535    0.0233    2.2960 H   0  0  0  0  0  0  0  0  0  0  0  0
   -4.1434   -0.9158    2.2599 H   0  0  0  0  0  0  0  0  0  0  0  0
   -2.6168   -1.7239    2.1161 H   0  0  0  0  0  0  0  0  0  0  0  0
   -5.7935    0.1365    2.0055 H   0  0  0  0  0  0  0  0  0  0  0  0
   -5.7591    1.8780    1.6885 H   0  0  0  0  0  0  0  0  0  0  0  0
   -5.6326    1.7790   -2.0117 H   0  0  0  0  0  0  0  0  0  0  0  0
   -5.8204    2.7967   -0.5778 H   0  0  0  0  0  0  0  0  0  0  0  0
   -7.1484    1.7747   -1.1202 H   0  0  0  0  0  0  0  0  0  0  0  0
   -0.3593   -1.5509    1.1663 H   0  0  0  0  0  0  0  0  0  0  0  0
   -1.3803   -2.7196    0.3168 H   0  0  0  0  0  0  0  0  0  0  0  0
   -7.7914   -1.5675   -0.9545 H   0  0  0  0  0  0  0  0  0  0  0  0
   -7.8269    1.0710    2.1000 H   0  0  0  0  0  0  0  0  0  0  0  0
    0.8784   -3.5668    0.5854 H   0  0  0  0  0  0  0  0  0  0  0  0
    1.7919    3.7245    0.2398 H   0  0  0  0  0  0  0  0  0  0  0  0
    2.0367   -4.7143   -1.2333 H   0  0  0  0  0  0  0  0  0  0  0  0
    2.3167   -3.1675   -2.0172 H   0  0  0  0  0  0  0  0  0  0  0  0
    3.9624   -1.5508   -1.0910 H   0  0  0  0  0  0  0  0  0  0  0  0
    3.3529   -5.4158    0.7151 H   0  0  0  0  0  0  0  0  0  0  0  0
    3.4131    4.9575    0.4193 H   0  0  0  0  0  0  0  0  0  0  0  0
    6.0650   -1.2941    0.1829 H   0  0  0  0  0  0  0  0  0  0  0  0
    5.4604   -5.1522    1.9755 H   0  0  0  0  0  0  0  0  0  0  0  0
    5.8724    5.8767    0.4200 H   0  0  0  0  0  0  0  0  0  0  0  0
    6.8199   -3.0934    1.7148 H   0  0  0  0  0  0  0  0  0  0  0  0
    7.6049    3.9873   -0.1801 H   0  0  0  0  0  0  0  0  0  0  0  0
  1 22  1  0  0  0  0
  1 25  1  0  0  0  0
  2 29  1  0  0  0  0
  2 37  1  0  0  0  0
  3 15  1  0  0  0  0
  3 57  1  0  0  0  0
  4 20  1  0  0  0  0
  4 58  1  0  0  0  0
  5 24  2  0  0  0  0
  6 27  2  0  0  0  0
  7 19  1  0  0  0  0
  7 25  2  0  0  0  0
  8 24  1  0  0  0  0
  8 26  1  0  0  0  0
  8 59  1  0  0  0  0
  9 25  1  0  0  0  0
  9 27  1  0  0  0  0
  9 60  1  0  0  0  0
 10 11  1  0  0  0  0
 10 13  1  0  0  0  0
 10 14  1  0  0  0  0
 10 18  1  0  0  0  0
 11 12  1  0  0  0  0
 11 16  1  0  0  0  0
 11 38  1  0  0  0  0
 12 15  1  0  0  0  0
 12 20  1  0  0  0  0
 12 21  1  0  0  0  0
 13 19  1  0  0  0  0
 13 23  1  0  0  0  0
 13 39  1  0  0  0  0
 14 17  1  0  0  0  0
 14 40  1  0  0  0  0
 14 41  1  0  0  0  0
 15 17  1  0  0  0  0
 15 42  1  0  0  0  0
 16 22  1  0  0  0  0
 16 43  1  0  0  0  0
 16 44  1  0  0  0  0
 17 45  1  0  0  0  0
 17 46  1  0  0  0  0
 18 47  1  0  0  0  0
 18 48  1  0  0  0  0
 18 49  1  0  0  0  0
 19 22  2  0  0  0  0
 20 50  1  0  0  0  0
 20 51  1  0  0  0  0
 21 52  1  0  0  0  0
 21 53  1  0  0  0  0
 21 54  1  0  0  0  0
 23 24  1  0  0  0  0
 23 55  1  0  0  0  0
 23 56  1  0  0  0  0
 26 28  1  0  0  0  0
 26 61  1  0  0  0  0
 26 62  1  0  0  0  0
 27 29  1  0  0  0  0
 28 30  2  0  0  0  0
 28 31  1  0  0  0  0
 29 32  2  0  0  0  0
 30 33  1  0  0  0  0
 30 63  1  0  0  0  0
 31 34  2  0  0  0  0
 31 64  1  0  0  0  0
 32 35  1  0  0  0  0
 32 65  1  0  0  0  0
 33 36  2  0  0  0  0
 33 66  1  0  0  0  0
 34 36  1  0  0  0  0
 34 67  1  0  0  0  0
 35 37  2  0  0  0  0
 35 68  1  0  0  0  0
 36 69  1  0  0  0  0
 37 70  1  0  0  0  0
M  END
> <PUBCHEM_COMPOUND_CID>
11882868

> <PUBCHEM_CONFORMER_RMSD>
1

> <PUBCHEM_CONFORMER_DIVERSEORDER>
1
30
41
70
26
47
12
61
48
35
54
68
14
43
78
63
20
18
81
33
56
25
6
77
50
76
71
55
34
24
44
40
37
15
9
27
75
60
72
67
46
80
10
5
66
49
62
7
74
73
16
28
42
53
32
65
59
11
36
79
22
19
29
38
64
4
58
39
17
69
13
3
52
31
21
57
51
23
8
45
2

> <PUBCHEM_MMFF94_PARTIAL_CHARGES>
42
1 -0.08
13 0.18
15 0.28
16 0.18
19 0.05
2 -0.08
20 0.28
22 -0.14
23 0.06
24 0.57
25 0.44
26 0.44
27 0.71
28 -0.14
29 -0.05
3 -0.68
30 -0.15
31 -0.15
32 -0.15
33 -0.15
34 -0.15
35 -0.15
36 -0.15
37 -0.11
4 -0.68
5 -0.57
57 0.4
58 0.4
59 0.37
6 -0.57
60 0.37
63 0.15
64 0.15
65 0.15
66 0.15
67 0.15
68 0.15
69 0.15
7 -0.57
70 0.15
8 -0.73
9 -0.49

> <PUBCHEM_EFFECTIVE_ROTOR_COUNT>
10.2

> <PUBCHEM_PHARMACOPHORE_FEATURES>
13
1 3 acceptor
1 3 donor
1 4 acceptor
1 4 donor
1 5 acceptor
1 6 acceptor
1 8 donor
1 9 donor
5 1 7 19 22 25 rings
5 2 29 32 35 37 rings
6 10 11 12 14 15 17 rings
6 10 11 13 16 19 22 rings
6 28 30 31 33 34 36 rings

> <PUBCHEM_HEAVY_ATOM_COUNT>
37

> <PUBCHEM_ATOM_DEF_STEREO_COUNT>
5

> <PUBCHEM_ATOM_UDEF_STEREO_COUNT>
0

> <PUBCHEM_BOND_DEF_STEREO_COUNT>
0

> <PUBCHEM_BOND_UDEF_STEREO_COUNT>
0

> <PUBCHEM_ISOTOPIC_ATOM_COUNT>
0

> <PUBCHEM_COMPONENT_COUNT>
1

> <PUBCHEM_CACTVS_TAUTO_COUNT>
6

> <PUBCHEM_CONFORMER_ID>
00B5517400000001

> <PUBCHEM_MMFF94_ENERGY>
103.2393

> <PUBCHEM_FEATURE_SELFOVERLAP>
66.119

> <PUBCHEM_SHAPE_FINGERPRINT>
10050765 1 18410573960104710741
10290309 65 18337945796747056604
11135926 11 18338229465834461492
11136131 41 18335411422655542602
11578080 2 17532348921822530845
11719270 70 18338512066942026936
11963148 33 18051686943960550631
12107183 9 18125448501099246385
12107698 1 18338232644141818019
12440605 4 18197220458590530107
12660671 118 18272377447379094654
12677640 9 17908985400982539712
12857493 111 18122334688422296652
12977781 61 17823154456457787587
13560911 43 18337107844537569474
14790565 3 17978231891864717948
15200665 1 17619912098832726186
15347591 1 18410291403180941087
15400415 2 18122061181195449652
15439362 3 18408882958106959969
15815584 197 18122087508700558366
15927050 60 18197214969838207374
16067689 302 18341335604465571815
17627616 140 18339359781452733990
19319366 153 18268428126340559252
20721686 56 18408608050161742322
21133665 82 18124319561531600372
21344244 246 18338509842195953335
21360443 120 18336548338873800940
22311459 1 18050567348885206871
23559900 14 18339070485456440019
3411729 13 18412266168096397046
4073 2 18265057022866663672
4149490 64 18335146397762213371
5265222 85 17905329876922905252
5385378 56 18340216262377268809
563151 97 18050842518549240566
5776283 40 18337404842011319252
58083652 198 18411419472072811201
6669772 16 18336547217491489686
67856867 119 18410575067742179607
9896288 288 17760088815247749674
99344 41 18340203089575486716
9961470 85 18268145543499214730

> <PUBCHEM_SHAPE_MULTIPOLES>
730.72
18.45
6.97
1.08
11.58
0.36
0.14
-3.73
1.97
-18.56
0.67
0.47
0.56
-1.57

> <PUBCHEM_SHAPE_SELFOVERLAP>
1548.3

> <PUBCHEM_SHAPE_VOLUME>
410

> <PUBCHEM_COORDINATE_TYPE>
2
5
10

$$$$
