45783914
  -OEChem-12032416203D

 69 72  0     1  0  0  0  0  0999 V2000
   -3.3770    0.0625    0.7084 O   0  0  0  0  0  0  0  0  0  0  0  0
    7.9864   -3.6879   -0.7750 O   0  0  0  0  0  0  0  0  0  0  0  0
    2.9508    0.1687    0.6837 N   0  0  0  0  0  0  0  0  0  0  0  0
    5.1242   -1.7250    0.4635 N   0  0  0  0  0  0  0  0  0  0  0  0
   -4.2512    1.6537   -0.5987 N   0  0  0  0  0  0  0  0  0  0  0  0
   -4.8436    0.4509   -0.9356 N   0  0  0  0  0  0  0  0  0  0  0  0
   -4.9846   -4.6136    0.1376 N   0  0  0  0  0  0  0  0  0  0  0  0
    0.8396    1.5995   -0.7609 C   0  0  1  0  0  0  0  0  0  0  0  0
    1.7323    2.2754    0.3059 C   0  0  2  0  0  0  0  0  0  0  0  0
   -0.5770    1.3753   -0.2133 C   0  0  0  0  0  0  0  0  0  0  0  0
   -1.2554    2.6724    0.2770 C   0  0  2  0  0  0  0  0  0  0  0  0
    0.8093    2.4129   -2.0620 C   0  0  0  0  0  0  0  0  0  0  0  0
    2.2419    1.2658    1.3395 C   0  0  0  0  0  0  0  0  0  0  0  0
    1.0299    3.4028    1.0186 C   0  0  0  0  0  0  0  0  0  0  0  0
   -0.3006    3.6042    1.0080 C   0  0  0  0  0  0  0  0  0  0  0  0
   -2.4817    2.2956    1.1177 C   0  0  0  0  0  0  0  0  0  0  0  0
    4.2915    0.5927    0.2617 C   0  0  0  0  0  0  0  0  0  0  0  0
    3.0372   -0.9993    1.5689 C   0  0  0  0  0  0  0  0  0  0  0  0
    2.2266    2.6550   -2.5713 C   0  0  0  0  0  0  0  0  0  0  0  0
   -0.0298    1.6986   -3.1165 C   0  0  0  0  0  0  0  0  0  0  0  0
    5.0380   -0.5576   -0.4225 C   0  0  0  0  0  0  0  0  0  0  0  0
    3.7831   -2.1493    0.8835 C   0  0  0  0  0  0  0  0  0  0  0  0
   -0.8897    4.8127    1.6825 C   0  0  0  0  0  0  0  0  0  0  0  0
   -3.4029    1.3792    0.3646 C   0  0  0  0  0  0  0  0  0  0  0  0
    5.8347   -2.8219   -0.1908 C   0  0  0  0  0  0  0  0  0  0  0  0
    7.3368   -2.5919   -0.1444 C   0  0  0  0  0  0  0  0  0  0  0  0
   -4.3031   -0.4492   -0.1478 C   0  0  0  0  0  0  0  0  0  0  0  0
   -4.5338   -1.8613   -0.0518 C   0  0  0  0  0  0  0  0  0  0  0  0
   -3.5844   -2.6849    0.5431 C   0  0  0  0  0  0  0  0  0  0  0  0
   -5.7084   -2.4123   -0.5520 C   0  0  0  0  0  0  0  0  0  0  0  0
   -3.8551   -4.0420    0.6124 C   0  0  0  0  0  0  0  0  0  0  0  0
   -5.8842   -3.7816   -0.4337 C   0  0  0  0  0  0  0  0  0  0  0  0
    1.2431    0.6124   -1.0197 H   0  0  0  0  0  0  0  0  0  0  0  0
    2.6132    2.7319   -0.1459 H   0  0  0  0  0  0  0  0  0  0  0  0
   -1.1977    0.8584   -0.9515 H   0  0  0  0  0  0  0  0  0  0  0  0
   -0.5023    0.6702    0.6267 H   0  0  0  0  0  0  0  0  0  0  0  0
   -1.6106    3.2179   -0.6089 H   0  0  0  0  0  0  0  0  0  0  0  0
    0.3578    3.3988   -1.8985 H   0  0  0  0  0  0  0  0  0  0  0  0
    1.3815    0.8715    1.8969 H   0  0  0  0  0  0  0  0  0  0  0  0
    2.8785    1.7572    2.0887 H   0  0  0  0  0  0  0  0  0  0  0  0
    1.6706    4.0986    1.5565 H   0  0  0  0  0  0  0  0  0  0  0  0
   -3.0574    3.1893    1.3861 H   0  0  0  0  0  0  0  0  0  0  0  0
   -2.1764    1.8196    2.0582 H   0  0  0  0  0  0  0  0  0  0  0  0
    4.2396    1.4151   -0.4582 H   0  0  0  0  0  0  0  0  0  0  0  0
    4.8783    0.9490    1.1195 H   0  0  0  0  0  0  0  0  0  0  0  0
    3.5399   -0.7398    2.5106 H   0  0  0  0  0  0  0  0  0  0  0  0
    2.0292   -1.3504    1.8216 H   0  0  0  0  0  0  0  0  0  0  0  0
    2.2069    2.9976   -3.6127 H   0  0  0  0  0  0  0  0  0  0  0  0
    2.7423    3.4440   -2.0168 H   0  0  0  0  0  0  0  0  0  0  0  0
    2.8316    1.7426   -2.5434 H   0  0  0  0  0  0  0  0  0  0  0  0
   -1.0975    1.7233   -2.8795 H   0  0  0  0  0  0  0  0  0  0  0  0
    0.0749    2.1892   -4.0910 H   0  0  0  0  0  0  0  0  0  0  0  0
    0.2774    0.6545   -3.2397 H   0  0  0  0  0  0  0  0  0  0  0  0
    4.5302   -0.8143   -1.3624 H   0  0  0  0  0  0  0  0  0  0  0  0
    6.0369   -0.1917   -0.6828 H   0  0  0  0  0  0  0  0  0  0  0  0
    3.8606   -2.9781    1.5976 H   0  0  0  0  0  0  0  0  0  0  0  0
    3.2005   -2.5097    0.0247 H   0  0  0  0  0  0  0  0  0  0  0  0
   -1.5379    5.3570    0.9879 H   0  0  0  0  0  0  0  0  0  0  0  0
   -0.1185    5.5118    2.0237 H   0  0  0  0  0  0  0  0  0  0  0  0
   -1.4770    4.5198    2.5581 H   0  0  0  0  0  0  0  0  0  0  0  0
    5.6412   -3.7690    0.3314 H   0  0  0  0  0  0  0  0  0  0  0  0
    5.4935   -2.9853   -1.2217 H   0  0  0  0  0  0  0  0  0  0  0  0
    7.6337   -1.6842   -0.6768 H   0  0  0  0  0  0  0  0  0  0  0  0
    7.6931   -2.5276    0.8893 H   0  0  0  0  0  0  0  0  0  0  0  0
    8.9430   -3.5211   -0.7233 H   0  0  0  0  0  0  0  0  0  0  0  0
   -2.6486   -2.3084    0.9432 H   0  0  0  0  0  0  0  0  0  0  0  0
   -6.4761   -1.8062   -1.0221 H   0  0  0  0  0  0  0  0  0  0  0  0
   -3.1463   -4.7275    1.0651 H   0  0  0  0  0  0  0  0  0  0  0  0
   -6.7832   -4.2606   -0.8075 H   0  0  0  0  0  0  0  0  0  0  0  0
  1 24  1  0  0  0  0
  1 27  1  0  0  0  0
  2 26  1  0  0  0  0
  2 65  1  0  0  0  0
  3 13  1  0  0  0  0
  3 17  1  0  0  0  0
  3 18  1  0  0  0  0
  4 21  1  0  0  0  0
  4 22  1  0  0  0  0
  4 25  1  0  0  0  0
  5  6  1  0  0  0  0
  5 24  2  0  0  0  0
  6 27  2  0  0  0  0
  7 31  2  0  0  0  0
  7 32  1  0  0  0  0
  8  9  1  0  0  0  0
  8 10  1  0  0  0  0
  8 12  1  0  0  0  0
  8 33  1  0  0  0  0
  9 13  1  0  0  0  0
  9 14  1  0  0  0  0
  9 34  1  0  0  0  0
 10 11  1  0  0  0  0
 10 35  1  0  0  0  0
 10 36  1  0  0  0  0
 11 15  1  0  0  0  0
 11 16  1  0  0  0  0
 11 37  1  0  0  0  0
 12 19  1  0  0  0  0
 12 20  1  0  0  0  0
 12 38  1  0  0  0  0
 13 39  1  0  0  0  0
 13 40  1  0  0  0  0
 14 15  2  0  0  0  0
 14 41  1  0  0  0  0
 15 23  1  0  0  0  0
 16 24  1  0  0  0  0
 16 42  1  0  0  0  0
 16 43  1  0  0  0  0
 17 21  1  0  0  0  0
 17 44  1  0  0  0  0
 17 45  1  0  0  0  0
 18 22  1  0  0  0  0
 18 46  1  0  0  0  0
 18 47  1  0  0  0  0
 19 48  1  0  0  0  0
 19 49  1  0  0  0  0
 19 50  1  0  0  0  0
 20 51  1  0  0  0  0
 20 52  1  0  0  0  0
 20 53  1  0  0  0  0
 21 54  1  0  0  0  0
 21 55  1  0  0  0  0
 22 56  1  0  0  0  0
 22 57  1  0  0  0  0
 23 58  1  0  0  0  0
 23 59  1  0  0  0  0
 23 60  1  0  0  0  0
 25 26  1  0  0  0  0
 25 61  1  0  0  0  0
 25 62  1  0  0  0  0
 26 63  1  0  0  0  0
 26 64  1  0  0  0  0
 27 28  1  0  0  0  0
 28 29  2  0  0  0  0
 28 30  1  0  0  0  0
 29 31  1  0  0  0  0
 29 66  1  0  0  0  0
 30 32  2  0  0  0  0
 30 67  1  0  0  0  0
 31 68  1  0  0  0  0
 32 69  1  0  0  0  0
M  END
> <PUBCHEM_COMPOUND_CID>
45783914

> <PUBCHEM_CONFORMER_RMSD>
1

> <PUBCHEM_CONFORMER_DIVERSEORDER>
13
135
10
63
184
53
155
107
130
114
71
187
76
171
51
120
64
11
35
98
197
132
67
40
33
185
93
176
104
152
109
199
157
73
188
186
18
96
133
77
19
122
47
198
16
168
48
164
182
23
178
72
74
128
189
119
192
79
118
58
172
30
17
154
54
195
75
123
116
191
70
90
139
25
136
153
99
173
160
91
38
103
175
92
12
194
149
108
174
34
44
52
88
110
134
105
145
36
106
179
190
193
3
6
69
131
78
26
37
141
177
112
166
129
150
144
94
143
39
65
169
8
117
83
50
170
151
15
24
84
43
21
89
165
162
156
124
86
87
138
66
181
158
62
147
82
2
55
137
142
85
148
81
115
183
68
146
161
196
29
140
127
27
113
9
46
61
159
95
56
60
32
125
101
167
49
102
41
126
100
14
5
59
80
28
7
111
97
42
163
22
31
20
180
57
121
45
1
4

> <PUBCHEM_MMFF94_PARTIAL_CHARGES>
33
1 -0.28
11 0.14
13 0.27
14 -0.29
15 -0.28
16 0.18
17 0.27
18 0.27
2 -0.68
21 0.27
22 0.27
23 0.14
24 0.3
25 0.27
26 0.28
27 0.43
28 0.05
29 -0.15
3 -0.81
30 -0.15
31 0.16
32 0.16
4 -0.81
41 0.15
5 -0.34
6 -0.34
65 0.4
66 0.15
67 0.15
68 0.15
69 0.15
7 -0.62
9 0.14

> <PUBCHEM_EFFECTIVE_ROTOR_COUNT>
10

> <PUBCHEM_PHARMACOPHORE_FEATURES>
10
1 2 acceptor
1 2 donor
1 3 cation
1 4 cation
1 7 acceptor
3 12 19 20 hydrophobe
5 1 5 6 24 27 rings
6 3 4 17 18 21 22 rings
6 7 28 29 30 31 32 rings
6 8 9 10 11 14 15 rings

> <PUBCHEM_HEAVY_ATOM_COUNT>
32

> <PUBCHEM_ATOM_DEF_STEREO_COUNT>
3

> <PUBCHEM_ATOM_UDEF_STEREO_COUNT>
0

> <PUBCHEM_BOND_DEF_STEREO_COUNT>
0

> <PUBCHEM_BOND_UDEF_STEREO_COUNT>
0

> <PUBCHEM_ISOTOPIC_ATOM_COUNT>
0

> <PUBCHEM_COMPONENT_COUNT>
1

> <PUBCHEM_CACTVS_TAUTO_COUNT>
1

> <PUBCHEM_CONFORMER_ID>
02BA9B6A0000000D

> <PUBCHEM_MMFF94_ENERGY>
62.2928

> <PUBCHEM_FEATURE_SELFOVERLAP>
50.748

> <PUBCHEM_SHAPE_FINGERPRINT>
10042902 136 18408886217976399758
10928967 22 17835818756468212727
10940486 97 18187650133109042517
11069576 57 17974287934743613263
11285246 1 17749951180226103859
11387372 6 17983859986823131110
11497681 19 18408608055147461948
117089 54 18341617027037660814
11756154 5 18342164528483880530
12107183 9 18200046139903057905
12120059 20 18260269685531957202
12522641 68 16669919278222259028
12633046 712 18338506560714865309
12969540 37 18335691797550926080
131258 38 18049712220422261686
13533116 47 18121213444955665615
1361 4 18196091046165375406
13690498 29 18113899321471300461
14068700 675 18408323263775711264
14251764 75 8285939998509704943
14856354 85 17984142561717469020
15705408 1 17531257183716529908
15803439 3 17175437396522069957
15911013 46 18339637825009083546
15968369 26 17469589072670309553
17492 89 18268425905499140507
17909252 39 18049163559961768779
19319366 153 17690566711396305772
19438510 23 10519989278757548599
20775530 9 18187080680822307755
21307412 95 18339632353125484773
21315764 119 17969485182903454879
21792965 302 18113898299917917470
23559900 14 18267291201210047505
23569914 152 17984950862068370831
239999 70 17409946047242503989
25222932 49 17696751430311818797
2838139 119 8646480822087282600
32027 91 18268701874681082081
376196 1 14422641158555709173
4017518 198 17616816526639432453
4435113 14 17271734871525179302
463206 1 18409168818413910065
484985 159 18121775032755679104
5109719 28 9544954995283501082
7970288 3 18412542102460080050
9980921 52 17342636075884072719

> <PUBCHEM_SHAPE_MULTIPOLES>
621.9
15.68
6.8
1.8
11.07
1.99
1.38
28.44
1.58
-2.3
-1.21
0.82
-2
-0.46

> <PUBCHEM_SHAPE_SELFOVERLAP>
1301.606

> <PUBCHEM_SHAPE_VOLUME>
350.3

> <PUBCHEM_COORDINATE_TYPE>
2
5
10

$$$$
