25313080
  -OEChem-12032416193D

 68 71  0     1  0  0  0  0  0999 V2000
    2.7018    2.9520    1.0509 O   0  0  0  0  0  0  0  0  0  0  0  0
    5.3041   -4.9133    1.1027 O   0  0  0  0  0  0  0  0  0  0  0  0
    6.4829   -3.0356    0.5876 O   0  0  0  0  0  0  0  0  0  0  0  0
    3.2661    1.1218   -0.2641 N   0  0  0  0  0  0  0  0  0  0  0  0
   -0.8217   -1.8555   -0.6845 N   0  0  0  0  0  0  0  0  0  0  0  0
   -3.6247   -1.5209   -0.2487 N   0  0  0  0  0  0  0  0  0  0  0  0
    2.9149   -1.2215   -1.0117 C   0  0  2  0  0  0  0  0  0  0  0  0
    4.1365   -1.6390   -0.1537 C   0  0  1  0  0  0  0  0  0  0  0  0
    3.0491    0.2544   -1.4289 C   0  0  0  0  0  0  0  0  0  0  0  0
    4.3564   -0.6749    1.0243 C   0  0  0  0  0  0  0  0  0  0  0  0
    1.5626   -1.4609   -0.3286 C   0  0  0  0  0  0  0  0  0  0  0  0
    4.4312    0.7737    0.5488 C   0  0  0  0  0  0  0  0  0  0  0  0
    0.4587   -1.6464   -1.3597 C   0  0  0  0  0  0  0  0  0  0  0  0
    4.0586   -3.0836    0.3394 C   0  0  0  0  0  0  0  0  0  0  0  0
   -1.7941   -2.4629   -1.6010 C   0  0  0  0  0  0  0  0  0  0  0  0
   -1.3464   -0.5842   -0.1707 C   0  0  0  0  0  0  0  0  0  0  0  0
    2.4824    2.2226    0.0805 C   0  0  0  0  0  0  0  0  0  0  0  0
   -3.1217   -2.7390   -0.8909 C   0  0  0  0  0  0  0  0  0  0  0  0
   -2.6583   -0.7982    0.5878 C   0  0  0  0  0  0  0  0  0  0  0  0
    5.4189   -3.6296    0.6749 C   0  0  0  0  0  0  0  0  0  0  0  0
    1.2980    2.5133   -0.8063 C   0  0  0  0  0  0  0  0  0  0  0  0
   -4.9820   -1.4170    0.0757 C   0  0  0  0  0  0  0  0  0  0  0  0
    0.5790    3.7408   -0.3407 C   0  0  0  0  0  0  0  0  0  0  0  0
   -5.7133   -2.5621    0.3910 C   0  0  0  0  0  0  0  0  0  0  0  0
   -5.6035   -0.1683    0.0836 C   0  0  0  0  0  0  0  0  0  0  0  0
   -0.4559    3.6328    0.5882 C   0  0  0  0  0  0  0  0  0  0  0  0
    0.9440    4.9927   -0.8359 C   0  0  0  0  0  0  0  0  0  0  0  0
   -7.0663   -2.4586    0.7142 C   0  0  0  0  0  0  0  0  0  0  0  0
   -6.9565   -0.0648    0.4068 C   0  0  0  0  0  0  0  0  0  0  0  0
   -7.6879   -1.2099    0.7220 C   0  0  0  0  0  0  0  0  0  0  0  0
   -1.1259    4.7767    1.0219 C   0  0  0  0  0  0  0  0  0  0  0  0
    0.2740    6.1366   -0.4020 C   0  0  0  0  0  0  0  0  0  0  0  0
   -0.7610    6.0287    0.5269 C   0  0  0  0  0  0  0  0  0  0  0  0
    2.9503   -1.8288   -1.9269 H   0  0  0  0  0  0  0  0  0  0  0  0
    5.0126   -1.5459   -0.8126 H   0  0  0  0  0  0  0  0  0  0  0  0
    3.9276    0.3757   -2.0754 H   0  0  0  0  0  0  0  0  0  0  0  0
    2.1901    0.5684   -2.0222 H   0  0  0  0  0  0  0  0  0  0  0  0
    5.2769   -0.9181    1.5655 H   0  0  0  0  0  0  0  0  0  0  0  0
    3.5313   -0.7737    1.7414 H   0  0  0  0  0  0  0  0  0  0  0  0
    1.3517   -0.6448    0.3682 H   0  0  0  0  0  0  0  0  0  0  0  0
    1.5913   -2.3711    0.2800 H   0  0  0  0  0  0  0  0  0  0  0  0
    4.5178    1.4405    1.4126 H   0  0  0  0  0  0  0  0  0  0  0  0
    5.3216    0.9274   -0.0723 H   0  0  0  0  0  0  0  0  0  0  0  0
    0.7103   -2.5344   -1.9549 H   0  0  0  0  0  0  0  0  0  0  0  0
    0.4036   -0.8052   -2.0606 H   0  0  0  0  0  0  0  0  0  0  0  0
    3.4311   -3.1642    1.2338 H   0  0  0  0  0  0  0  0  0  0  0  0
    3.6431   -3.7225   -0.4489 H   0  0  0  0  0  0  0  0  0  0  0  0
   -1.4101   -3.4170   -1.9824 H   0  0  0  0  0  0  0  0  0  0  0  0
   -1.9683   -1.8106   -2.4675 H   0  0  0  0  0  0  0  0  0  0  0  0
   -1.5142    0.1266   -0.9913 H   0  0  0  0  0  0  0  0  0  0  0  0
   -0.6501   -0.1127    0.5291 H   0  0  0  0  0  0  0  0  0  0  0  0
   -3.8357   -3.1074   -1.6381 H   0  0  0  0  0  0  0  0  0  0  0  0
   -2.9791   -3.5262   -0.1394 H   0  0  0  0  0  0  0  0  0  0  0  0
   -2.4750   -1.3728    1.5050 H   0  0  0  0  0  0  0  0  0  0  0  0
   -3.0385    0.1835    0.8930 H   0  0  0  0  0  0  0  0  0  0  0  0
    0.6162    1.6571   -0.8024 H   0  0  0  0  0  0  0  0  0  0  0  0
    1.6401    2.6638   -1.8369 H   0  0  0  0  0  0  0  0  0  0  0  0
    6.1754   -5.3018    1.3313 H   0  0  0  0  0  0  0  0  0  0  0  0
   -5.2591   -3.5486    0.4089 H   0  0  0  0  0  0  0  0  0  0  0  0
   -5.0548    0.7341   -0.1731 H   0  0  0  0  0  0  0  0  0  0  0  0
   -0.7489    2.6632    0.9824 H   0  0  0  0  0  0  0  0  0  0  0  0
    1.7499    5.0907   -1.5584 H   0  0  0  0  0  0  0  0  0  0  0  0
   -7.6355   -3.3496    0.9628 H   0  0  0  0  0  0  0  0  0  0  0  0
   -7.4414    0.9071    0.4098 H   0  0  0  0  0  0  0  0  0  0  0  0
   -8.7413   -1.1292    0.9736 H   0  0  0  0  0  0  0  0  0  0  0  0
   -1.9316    4.6926    1.7454 H   0  0  0  0  0  0  0  0  0  0  0  0
    0.5584    7.1116   -0.7870 H   0  0  0  0  0  0  0  0  0  0  0  0
   -1.2825    6.9194    0.8649 H   0  0  0  0  0  0  0  0  0  0  0  0
  1 17  2  0  0  0  0
  2 20  1  0  0  0  0
  2 58  1  0  0  0  0
  3 20  2  0  0  0  0
  4  9  1  0  0  0  0
  4 12  1  0  0  0  0
  4 17  1  0  0  0  0
  5 13  1  0  0  0  0
  5 15  1  0  0  0  0
  5 16  1  0  0  0  0
  6 18  1  0  0  0  0
  6 19  1  0  0  0  0
  6 22  1  0  0  0  0
  7  8  1  0  0  0  0
  7  9  1  0  0  0  0
  7 11  1  0  0  0  0
  7 34  1  0  0  0  0
  8 10  1  0  0  0  0
  8 14  1  0  0  0  0
  8 35  1  0  0  0  0
  9 36  1  0  0  0  0
  9 37  1  0  0  0  0
 10 12  1  0  0  0  0
 10 38  1  0  0  0  0
 10 39  1  0  0  0  0
 11 13  1  0  0  0  0
 11 40  1  0  0  0  0
 11 41  1  0  0  0  0
 12 42  1  0  0  0  0
 12 43  1  0  0  0  0
 13 44  1  0  0  0  0
 13 45  1  0  0  0  0
 14 20  1  0  0  0  0
 14 46  1  0  0  0  0
 14 47  1  0  0  0  0
 15 18  1  0  0  0  0
 15 48  1  0  0  0  0
 15 49  1  0  0  0  0
 16 19  1  0  0  0  0
 16 50  1  0  0  0  0
 16 51  1  0  0  0  0
 17 21  1  0  0  0  0
 18 52  1  0  0  0  0
 18 53  1  0  0  0  0
 19 54  1  0  0  0  0
 19 55  1  0  0  0  0
 21 23  1  0  0  0  0
 21 56  1  0  0  0  0
 21 57  1  0  0  0  0
 22 24  2  0  0  0  0
 22 25  1  0  0  0  0
 23 26  2  0  0  0  0
 23 27  1  0  0  0  0
 24 28  1  0  0  0  0
 24 59  1  0  0  0  0
 25 29  2  0  0  0  0
 25 60  1  0  0  0  0
 26 31  1  0  0  0  0
 26 61  1  0  0  0  0
 27 32  2  0  0  0  0
 27 62  1  0  0  0  0
 28 30  2  0  0  0  0
 28 63  1  0  0  0  0
 29 30  1  0  0  0  0
 29 64  1  0  0  0  0
 30 65  1  0  0  0  0
 31 33  2  0  0  0  0
 31 66  1  0  0  0  0
 32 33  1  0  0  0  0
 32 67  1  0  0  0  0
 33 68  1  0  0  0  0
M  END
> <PUBCHEM_COMPOUND_CID>
25313080

> <PUBCHEM_CONFORMER_RMSD>
1.2

> <PUBCHEM_CONFORMER_DIVERSEORDER>
1
37
35
23
42
44
48
18
33
38
21
50
7
34
52
40
13
27
11
31
45
6
39
10
24
12
43
19
15
5
22
4
25
49
36
26
30
41
20
32
51
28
14
29
46
9
17
16
47
8
2
3

> <PUBCHEM_MMFF94_PARTIAL_CHARGES>
40
1 -0.57
12 0.3
13 0.27
14 0.06
15 0.27
16 0.27
17 0.57
18 0.37
19 0.37
2 -0.65
20 0.66
21 0.2
22 0.1
23 -0.14
24 -0.15
25 -0.15
26 -0.15
27 -0.15
28 -0.15
29 -0.15
3 -0.57
30 -0.15
31 -0.15
32 -0.15
33 -0.15
4 -0.66
5 -0.81
58 0.5
59 0.15
6 -0.84
60 0.15
61 0.15
62 0.15
63 0.15
64 0.15
65 0.15
66 0.15
67 0.15
68 0.15
9 0.3

> <PUBCHEM_EFFECTIVE_ROTOR_COUNT>
11.4

> <PUBCHEM_PHARMACOPHORE_FEATURES>
10
1 1 acceptor
1 2 acceptor
1 3 acceptor
1 5 cation
1 6 cation
3 2 3 20 anion
6 22 24 25 28 29 30 rings
6 23 26 27 31 32 33 rings
6 4 7 8 9 10 12 rings
6 5 6 15 16 18 19 rings

> <PUBCHEM_HEAVY_ATOM_COUNT>
33

> <PUBCHEM_ATOM_DEF_STEREO_COUNT>
2

> <PUBCHEM_ATOM_UDEF_STEREO_COUNT>
0

> <PUBCHEM_BOND_DEF_STEREO_COUNT>
0

> <PUBCHEM_BOND_UDEF_STEREO_COUNT>
0

> <PUBCHEM_ISOTOPIC_ATOM_COUNT>
0

> <PUBCHEM_COMPONENT_COUNT>
1

> <PUBCHEM_CACTVS_TAUTO_COUNT>
1

> <PUBCHEM_CONFORMER_ID>
01823F3800000001

> <PUBCHEM_MMFF94_ENERGY>
89.0123

> <PUBCHEM_FEATURE_SELFOVERLAP>
50.806

> <PUBCHEM_SHAPE_FINGERPRINT>
10074138 170 17545009647623834674
10190108 129 18339635746608935328
10439779 11 18202006572913832729
10675989 125 17838911674135159345
13150687 139 9367341579366068706
13165054 54 17608934179699413923
13692114 37 17764295159503034269
13785724 45 18340778073657863647
15264996 151 18336272318685144721
15264996 154 18190472729823148366
15400415 2 17329710333183819181
15439362 3 17475240575207241220
15475509 84 18339641123285244102
15483637 11 17978789004809475042
16067689 134 17472982182740407180
16992752 21 18337965485261646582
19301679 30 18337386033801579506
19302320 297 18341349829486238633
21304303 94 8142087580948661650
21344244 78 18336254696381328402
22223350 30 17406286429915675846
3680242 22 18412834598723779339
4015057 19 18336538434800977131
4058900 60 17472139952020663485
4144715 1 18334021609861763411
4760202 170 18337656565765226327
59520757 100 17832427497245631772
60111433 81 16986869292917325881
6058803 2 17769929401061061687
6609424 69 18058173834334076742
9777508 108 17764029064729773116

> <PUBCHEM_SHAPE_MULTIPOLES>
646.57
15.72
8.83
1.16
24.14
15.39
0.19
-21.84
-5.57
-7.92
-1.19
-0.43
-0.27
-1.74

> <PUBCHEM_SHAPE_SELFOVERLAP>
1360.409

> <PUBCHEM_SHAPE_VOLUME>
359.9

> <PUBCHEM_COORDINATE_TYPE>
2
5
10

$$$$
