75368563
  -OEChem-12032416393D

 36 38  0     1  0  0  0  0  0999 V2000
   -5.0852    0.5493    0.0487 O   0  0  0  0  0  0  0  0  0  0  0  0
   -2.7485    0.3252    0.2124 N   0  0  0  0  0  0  0  0  0  0  0  0
   -0.0233    0.6971   -0.3722 N   0  0  2  0  0  0  0  0  0  0  0  0
   -4.0196   -1.5233    0.3253 N   0  0  0  0  0  0  0  0  0  0  0  0
    2.7046   -1.0945   -1.0111 N   0  0  0  0  0  0  0  0  0  0  0  0
   -1.8155   -0.7419    0.5072 C   0  0  2  0  0  0  0  0  0  0  0  0
   -0.6044   -0.6600   -0.4212 C   0  0  0  0  0  0  0  0  0  0  0  0
   -2.2588    1.6823    0.0901 C   0  0  0  0  0  0  0  0  0  0  0  0
   -2.6574   -2.0062    0.3558 C   0  0  0  0  0  0  0  0  0  0  0  0
   -1.0115    1.7095   -0.7971 C   0  0  0  0  0  0  0  0  0  0  0  0
   -4.0726   -0.1239    0.1820 C   0  0  0  0  0  0  0  0  0  0  0  0
    1.1727    0.7695   -1.2113 C   0  0  0  0  0  0  0  0  0  0  0  0
    2.3626    0.1288   -0.5480 C   0  0  0  0  0  0  0  0  0  0  0  0
    3.0334    0.7884    0.4692 C   0  0  0  0  0  0  0  0  0  0  0  0
    4.1254    0.1518    1.0486 C   0  0  0  0  0  0  0  0  0  0  0  0
    2.6190    2.1374    0.9462 C   0  0  0  0  0  0  0  0  0  0  0  0
    3.7712   -1.6822   -0.4238 C   0  0  0  0  0  0  0  0  0  0  0  0
    4.5079   -1.1072    0.5992 C   0  0  0  0  0  0  0  0  0  0  0  0
   -1.5063   -0.6185    1.5535 H   0  0  0  0  0  0  0  0  0  0  0  0
    0.1209   -1.4133   -0.0940 H   0  0  0  0  0  0  0  0  0  0  0  0
   -0.8974   -0.9091   -1.4503 H   0  0  0  0  0  0  0  0  0  0  0  0
   -2.0205    2.0345    1.1003 H   0  0  0  0  0  0  0  0  0  0  0  0
   -3.0488    2.3223   -0.3153 H   0  0  0  0  0  0  0  0  0  0  0  0
   -2.4700   -2.5379   -0.5822 H   0  0  0  0  0  0  0  0  0  0  0  0
   -2.5335   -2.6968    1.1943 H   0  0  0  0  0  0  0  0  0  0  0  0
   -1.3033    1.5352   -1.8414 H   0  0  0  0  0  0  0  0  0  0  0  0
   -0.5739    2.7134   -0.7402 H   0  0  0  0  0  0  0  0  0  0  0  0
   -4.8392   -2.1222    0.3212 H   0  0  0  0  0  0  0  0  0  0  0  0
    0.9958    0.3031   -2.1907 H   0  0  0  0  0  0  0  0  0  0  0  0
    1.4329    1.8101   -1.4439 H   0  0  0  0  0  0  0  0  0  0  0  0
    4.6880    0.6227    1.8501 H   0  0  0  0  0  0  0  0  0  0  0  0
    2.6655    2.8724    0.1365 H   0  0  0  0  0  0  0  0  0  0  0  0
    1.6093    2.1144    1.3666 H   0  0  0  0  0  0  0  0  0  0  0  0
    3.2829    2.5010    1.7389 H   0  0  0  0  0  0  0  0  0  0  0  0
    4.0284   -2.6630   -0.8100 H   0  0  0  0  0  0  0  0  0  0  0  0
    5.3557   -1.6224    1.0360 H   0  0  0  0  0  0  0  0  0  0  0  0
  1 11  2  0  0  0  0
  2  6  1  0  0  0  0
  2  8  1  0  0  0  0
  2 11  1  0  0  0  0
  3  7  1  0  0  0  0
  3 10  1  0  0  0  0
  3 12  1  0  0  0  0
  4  9  1  0  0  0  0
  4 11  1  0  0  0  0
  4 28  1  0  0  0  0
  5 13  1  0  0  0  0
  5 17  2  0  0  0  0
  6  7  1  0  0  0  0
  6  9  1  0  0  0  0
  6 19  1  0  0  0  0
  7 20  1  0  0  0  0
  7 21  1  0  0  0  0
  8 10  1  0  0  0  0
  8 22  1  0  0  0  0
  8 23  1  0  0  0  0
  9 24  1  0  0  0  0
  9 25  1  0  0  0  0
 10 26  1  0  0  0  0
 10 27  1  0  0  0  0
 12 13  1  0  0  0  0
 12 29  1  0  0  0  0
 12 30  1  0  0  0  0
 13 14  2  0  0  0  0
 14 15  1  0  0  0  0
 14 16  1  0  0  0  0
 15 18  2  0  0  0  0
 15 31  1  0  0  0  0
 16 32  1  0  0  0  0
 16 33  1  0  0  0  0
 16 34  1  0  0  0  0
 17 18  1  0  0  0  0
 17 35  1  0  0  0  0
 18 36  1  0  0  0  0
M  END
> <PUBCHEM_COMPOUND_CID>
75368563

> <PUBCHEM_CONFORMER_RMSD>
0.6

> <PUBCHEM_CONFORMER_DIVERSEORDER>
1
28
19
16
24
13
11
26
7
25
22
17
12
29
27
4
21
15
5
6
14
20
23
18
2
8
10
9
3

> <PUBCHEM_MMFF94_PARTIAL_CHARGES>
22
1 -0.57
10 0.27
11 0.69
12 0.41
13 0.17
14 -0.14
15 -0.15
16 0.14
17 0.16
18 -0.15
2 -0.66
28 0.37
3 -0.81
31 0.15
35 0.15
36 0.15
4 -0.73
5 -0.62
6 0.3
7 0.27
8 0.3
9 0.3

> <PUBCHEM_EFFECTIVE_ROTOR_COUNT>
3.2

> <PUBCHEM_PHARMACOPHORE_FEATURES>
7
1 1 acceptor
1 3 cation
1 4 donor
1 5 acceptor
5 2 4 6 9 11 rings
6 2 3 6 7 8 10 rings
6 5 13 14 15 17 18 rings

> <PUBCHEM_HEAVY_ATOM_COUNT>
18

> <PUBCHEM_ATOM_DEF_STEREO_COUNT>
1

> <PUBCHEM_ATOM_UDEF_STEREO_COUNT>
0

> <PUBCHEM_BOND_DEF_STEREO_COUNT>
0

> <PUBCHEM_BOND_UDEF_STEREO_COUNT>
0

> <PUBCHEM_ISOTOPIC_ATOM_COUNT>
0

> <PUBCHEM_COMPONENT_COUNT>
1

> <PUBCHEM_CACTVS_TAUTO_COUNT>
2

> <PUBCHEM_CONFORMER_ID>
047E087300000001

> <PUBCHEM_MMFF94_ENERGY>
44.2882

> <PUBCHEM_FEATURE_SELFOVERLAP>
35.617

> <PUBCHEM_SHAPE_FINGERPRINT>
10062212 137 18260830440678318971
10366900 7 18342742961377256832
10618630 7 18259705613995919980
11132069 177 18409169913530330159
11370993 70 18202281402885137095
12251169 10 18202279225805540932
12346177 29 18186793652268325333
12507560 40 18271520923388932260
12633257 1 18272943703818919544
13533116 47 18343021069094475523
13675066 3 18187930620543162371
14289901 80 17418376908613141227
14341114 176 18342460344092278392
14866123 147 16687113397706487962
15196674 1 18408324419026896819
15653759 3 18411416185742360408
15885798 251 18113900463726840445
16752209 62 16732969904231422173
17804303 29 18410016494386358332
17834072 14 18411698820307285639
17834074 16 18411699872310736922
1813 80 17167582691457848990
18186145 218 15430318087312094437
19049666 15 18054789481909575564
19141452 34 18411700998051201807
19784866 240 15430304794710132120
19862831 5 15647055962483649088
200 152 17775277262324487725
20361792 2 16443064997851271836
21065198 57 18413670218506393057
21065199 12 18343016688312073928
21501925 9 18408322211350266940
22646028 28 17821729437916782746
22854114 59 17846780714970180310
23402539 116 18412537700840944101
23559900 14 18410014355492885244
24859131 72 18410855447364806807
26918003 58 18272084989653841250
31174 14 18272365421233476464
351380 180 18273210885350138425
42 15 18408886230660899986
4340502 62 15913333490124025943
474 4 13686005536465420418
5104073 3 18410863200144591715
5374978 207 18412828001258139961
69090 78 18272646848770218767
9709674 26 18337394949409523491
9981440 41 17033048896921018213

> <PUBCHEM_SHAPE_MULTIPOLES>
344.64
9.53
2.02
0.99
2.1
0.09
0.07
-2.59
-2.12
-0.05
-0.13
-0.7
0.13
0.77

> <PUBCHEM_SHAPE_SELFOVERLAP>
731.725

> <PUBCHEM_SHAPE_VOLUME>
193.5

> <PUBCHEM_COORDINATE_TYPE>
2
5
10

$$$$
