75537115
  -OEChem-12032416313D

 40 42  0     1  0  0  0  0  0999 V2000
    5.1567    0.5932    0.2019 O   0  0  0  0  0  0  0  0  0  0  0  0
   -4.4251   -1.9732    0.1803 O   0  0  0  0  0  0  0  0  0  0  0  0
    2.8300    0.6096   -0.1227 N   0  0  0  0  0  0  0  0  0  0  0  0
    0.1194    1.2011    0.3392 N   0  0  2  0  0  0  0  0  0  0  0  0
    3.9241   -1.3368   -0.3637 N   0  0  0  0  0  0  0  0  0  0  0  0
   -2.8238   -0.3491    0.6072 N   0  0  0  0  0  0  0  0  0  0  0  0
    1.8201   -0.3201   -0.5834 C   0  0  2  0  0  0  0  0  0  0  0  0
    0.5613   -0.2068    0.2759 C   0  0  0  0  0  0  0  0  0  0  0  0
    2.5202   -1.6761   -0.5209 C   0  0  0  0  0  0  0  0  0  0  0  0
    2.4658    1.9906    0.1165 C   0  0  0  0  0  0  0  0  0  0  0  0
    1.1696    2.0567    0.9280 C   0  0  0  0  0  0  0  0  0  0  0  0
    4.1040    0.0288   -0.0652 C   0  0  0  0  0  0  0  0  0  0  0  0
   -1.1191    1.3119    1.1095 C   0  0  0  0  0  0  0  0  0  0  0  0
    4.9615   -2.3445   -0.3703 C   0  0  0  0  0  0  0  0  0  0  0  0
   -2.3169    0.8690    0.3121 C   0  0  0  0  0  0  0  0  0  0  0  0
   -2.8333    1.7089   -0.6613 C   0  0  0  0  0  0  0  0  0  0  0  0
   -3.9416    1.2708   -1.3778 C   0  0  0  0  0  0  0  0  0  0  0  0
   -3.9007   -0.7410   -0.1100 C   0  0  0  0  0  0  0  0  0  0  0  0
   -4.4916    0.0236   -1.1030 C   0  0  0  0  0  0  0  0  0  0  0  0
   -3.7807   -2.7169    1.2079 C   0  0  0  0  0  0  0  0  0  0  0  0
    1.5970   -0.0601   -1.6266 H   0  0  0  0  0  0  0  0  0  0  0  0
    0.7566   -0.5873    1.2879 H   0  0  0  0  0  0  0  0  0  0  0  0
   -0.2098   -0.8440   -0.1715 H   0  0  0  0  0  0  0  0  0  0  0  0
    2.2140   -2.2737    0.3439 H   0  0  0  0  0  0  0  0  0  0  0  0
    2.3756   -2.2565   -1.4370 H   0  0  0  0  0  0  0  0  0  0  0  0
    2.3324    2.4659   -0.8621 H   0  0  0  0  0  0  0  0  0  0  0  0
    3.2841    2.5019    0.6333 H   0  0  0  0  0  0  0  0  0  0  0  0
    1.3710    1.7473    1.9624 H   0  0  0  0  0  0  0  0  0  0  0  0
    0.8370    3.1013    0.9554 H   0  0  0  0  0  0  0  0  0  0  0  0
   -1.3007    2.3562    1.3995 H   0  0  0  0  0  0  0  0  0  0  0  0
   -1.0607    0.7509    2.0521 H   0  0  0  0  0  0  0  0  0  0  0  0
    4.7832   -3.0374    0.4562 H   0  0  0  0  0  0  0  0  0  0  0  0
    5.9427   -1.8788   -0.2482 H   0  0  0  0  0  0  0  0  0  0  0  0
    4.9247   -2.8837   -1.3203 H   0  0  0  0  0  0  0  0  0  0  0  0
   -2.3976    2.6805   -0.8683 H   0  0  0  0  0  0  0  0  0  0  0  0
   -4.3758    1.9001   -2.1488 H   0  0  0  0  0  0  0  0  0  0  0  0
   -5.3559   -0.3325   -1.6528 H   0  0  0  0  0  0  0  0  0  0  0  0
   -4.3104   -3.6678    1.3179 H   0  0  0  0  0  0  0  0  0  0  0  0
   -3.8324   -2.1890    2.1660 H   0  0  0  0  0  0  0  0  0  0  0  0
   -2.7420   -2.9383    0.9402 H   0  0  0  0  0  0  0  0  0  0  0  0
  1 12  2  0  0  0  0
  2 18  1  0  0  0  0
  2 20  1  0  0  0  0
  3  7  1  0  0  0  0
  3 10  1  0  0  0  0
  3 12  1  0  0  0  0
  4  8  1  0  0  0  0
  4 11  1  0  0  0  0
  4 13  1  0  0  0  0
  5  9  1  0  0  0  0
  5 12  1  0  0  0  0
  5 14  1  0  0  0  0
  6 15  2  0  0  0  0
  6 18  1  0  0  0  0
  7  8  1  0  0  0  0
  7  9  1  0  0  0  0
  7 21  1  0  0  0  0
  8 22  1  0  0  0  0
  8 23  1  0  0  0  0
  9 24  1  0  0  0  0
  9 25  1  0  0  0  0
 10 11  1  0  0  0  0
 10 26  1  0  0  0  0
 10 27  1  0  0  0  0
 11 28  1  0  0  0  0
 11 29  1  0  0  0  0
 13 15  1  0  0  0  0
 13 30  1  0  0  0  0
 13 31  1  0  0  0  0
 14 32  1  0  0  0  0
 14 33  1  0  0  0  0
 14 34  1  0  0  0  0
 15 16  1  0  0  0  0
 16 17  2  0  0  0  0
 16 35  1  0  0  0  0
 17 19  1  0  0  0  0
 17 36  1  0  0  0  0
 18 19  2  0  0  0  0
 19 37  1  0  0  0  0
 20 38  1  0  0  0  0
 20 39  1  0  0  0  0
 20 40  1  0  0  0  0
M  END
> <PUBCHEM_COMPOUND_CID>
75537115

> <PUBCHEM_CONFORMER_RMSD>
0.6

> <PUBCHEM_CONFORMER_DIVERSEORDER>
1
57
2
40
61
71
53
28
36
74
54
73
26
58
68
48
44
69
56
62
76
72
33
34
8
70
15
63
77
17
12
67
49
59
52
37
51
4
42
30
47
65
75
20
25
32
50
18
22
41
35
21
10
16
39
55
24
6
46
66
38
64
19
7
23
43
60
45
27
31
3
11
29
13
14
5
9

> <PUBCHEM_MMFF94_PARTIAL_CHARGES>
23
1 -0.57
10 0.3
11 0.27
12 0.69
13 0.41
14 0.3
15 0.17
16 -0.15
17 -0.15
18 0.39
19 -0.15
2 -0.36
20 0.28
3 -0.66
35 0.15
36 0.15
37 0.15
4 -0.81
5 -0.66
6 -0.62
7 0.3
8 0.27
9 0.3

> <PUBCHEM_EFFECTIVE_ROTOR_COUNT>
4.2

> <PUBCHEM_PHARMACOPHORE_FEATURES>
7
1 1 acceptor
1 2 acceptor
1 4 cation
1 6 acceptor
5 3 5 7 9 12 rings
6 3 4 7 8 10 11 rings
6 6 15 16 17 18 19 rings

> <PUBCHEM_HEAVY_ATOM_COUNT>
20

> <PUBCHEM_ATOM_DEF_STEREO_COUNT>
1

> <PUBCHEM_ATOM_UDEF_STEREO_COUNT>
0

> <PUBCHEM_BOND_DEF_STEREO_COUNT>
0

> <PUBCHEM_BOND_UDEF_STEREO_COUNT>
0

> <PUBCHEM_ISOTOPIC_ATOM_COUNT>
0

> <PUBCHEM_COMPONENT_COUNT>
1

> <PUBCHEM_CACTVS_TAUTO_COUNT>
1

> <PUBCHEM_CONFORMER_ID>
04809ADB00000001

> <PUBCHEM_MMFF94_ENERGY>
51.5065

> <PUBCHEM_FEATURE_SELFOVERLAP>
35.664

> <PUBCHEM_SHAPE_FINGERPRINT>
10803635 8 17968936371175477375
10871710 139 15816218747628491323
11089746 13 15068619426919911668
11543360 7 17894639187652116764
11796584 16 18187639172473367402
11806522 49 18343301461871302896
121448 382 17676489462483634323
12596602 18 15338828824477201271
12670546 177 18113620118110406901
12892183 10 11887954358731725477
13402501 40 18337678619716246971
13544653 18 17988923344900128688
14123255 352 8862942766747360499
14251757 17 18408322202628905643
15196674 1 18342177735133217116
15352361 1 18413390921120370798
15961568 22 17241887786312015476
17870717 6 18261678086601554751
193927 3 17845664650986994798
19433438 38 18333729126276724109
19784866 170 9871750204169591090
200 152 17917987270139849669
20261772 1 17632576075961092870
20645477 70 18341890813858582236
20693207 138 18408325510006580101
21065201 7 18040988544832718041
21713013 43 18259700112485679341
221490 88 18410858806007990216
22393880 68 18114455678233151915
22646028 28 17988924453012234021
23402539 116 16298102073246319404
23403322 49 18413107247473715583
23557571 272 18041553745797596605
23559900 14 18408595976718678505
2838139 119 16299252223155571364
314194 84 17917706907512079190
4921388 177 17749112205825279747
5104073 3 18202003183962505946
5281201 14 18187367644482795173
5283173 99 18190453866369307004
57724786 102 11531025336466723007
633830 44 15285651953716370870
9709674 26 18336263543723554139

> <PUBCHEM_SHAPE_MULTIPOLES>
379.93
11.18
2.61
1.05
2.79
1.05
0.01
5.26
2.06
-0.28
-0.52
-0.98
-0.06
1.76

> <PUBCHEM_SHAPE_SELFOVERLAP>
799.098

> <PUBCHEM_SHAPE_VOLUME>
215.6

> <PUBCHEM_COORDINATE_TYPE>
2
5
10

$$$$
