9391268
  -OEChem-12032416153D

 56 59  0     1  0  0  0  0  0999 V2000
    0.2339    2.7847    0.5639 S   0  0  0  0  0  0  0  0  0  0  0  0
   -6.7356   -0.7852   -0.7436 F   0  0  0  0  0  0  0  0  0  0  0  0
    3.0236   -1.5558   -3.0980 O   0  0  0  0  0  0  0  0  0  0  0  0
   -0.7782   -3.2796   -0.1902 O   0  0  0  0  0  0  0  0  0  0  0  0
   -0.3637    2.3622   -0.6884 O   0  0  0  0  0  0  0  0  0  0  0  0
   -0.4485    2.5812    1.8271 O   0  0  0  0  0  0  0  0  0  0  0  0
    2.7532   -1.0308   -0.8300 N   0  0  0  0  0  0  0  0  0  0  0  0
    0.6265   -2.1157    1.2283 N   0  0  0  0  0  0  0  0  0  0  0  0
    1.8226    2.1865    0.6766 N   0  0  0  0  0  0  0  0  0  0  0  0
   -1.3171   -1.0935    0.3714 N   0  0  0  0  0  0  0  0  0  0  0  0
    3.0039   -2.8014    1.0059 C   0  0  2  0  0  0  0  0  0  0  0  0
    2.4429   -0.4787    1.6064 C   0  0  2  0  0  0  0  0  0  0  0  0
    3.4227   -1.6235    1.8743 C   0  0  0  0  0  0  0  0  0  0  0  0
    3.1691   -2.3913   -0.4593 C   0  0  0  0  0  0  0  0  0  0  0  0
    1.5612   -3.2382    1.3300 C   0  0  0  0  0  0  0  0  0  0  0  0
    1.0255   -0.9316    2.0073 C   0  0  0  0  0  0  0  0  0  0  0  0
    2.4553   -0.0514    0.1399 C   0  0  0  0  0  0  0  0  0  0  0  0
    2.1620    1.1980   -0.2768 C   0  0  0  0  0  0  0  0  0  0  0  0
    2.7562   -0.7453   -2.2101 C   0  0  0  0  0  0  0  0  0  0  0  0
   -0.5284   -2.2419    0.4281 C   0  0  0  0  0  0  0  0  0  0  0  0
    2.1527    1.5555   -1.6663 C   0  0  0  0  0  0  0  0  0  0  0  0
    2.4220    0.6474   -2.6056 C   0  0  0  0  0  0  0  0  0  0  0  0
    0.5874    4.5189    0.4192 C   0  0  0  0  0  0  0  0  0  0  0  0
   -2.7022   -1.0146    0.0857 C   0  0  0  0  0  0  0  0  0  0  0  0
   -0.6885    5.3355    0.2980 C   0  0  0  0  0  0  0  0  0  0  0  0
   -3.4451   -2.1823   -0.0663 C   0  0  0  0  0  0  0  0  0  0  0  0
   -3.3132    0.2299   -0.0406 C   0  0  0  0  0  0  0  0  0  0  0  0
   -0.3879    6.8181    0.1541 C   0  0  0  0  0  0  0  0  0  0  0  0
   -4.8094   -2.1049   -0.3464 C   0  0  0  0  0  0  0  0  0  0  0  0
   -4.6774    0.3075   -0.3207 C   0  0  0  0  0  0  0  0  0  0  0  0
   -5.4257   -0.8599   -0.4738 C   0  0  0  0  0  0  0  0  0  0  0  0
    3.6614   -3.6571    1.2026 H   0  0  0  0  0  0  0  0  0  0  0  0
    2.7510    0.3398    2.2640 H   0  0  0  0  0  0  0  0  0  0  0  0
    3.4023   -1.9053    2.9343 H   0  0  0  0  0  0  0  0  0  0  0  0
    4.4508   -1.3167    1.6444 H   0  0  0  0  0  0  0  0  0  0  0  0
    2.6536   -3.1053   -1.1142 H   0  0  0  0  0  0  0  0  0  0  0  0
    4.2336   -2.4559   -0.7238 H   0  0  0  0  0  0  0  0  0  0  0  0
    1.5053   -3.6093    2.3606 H   0  0  0  0  0  0  0  0  0  0  0  0
    1.2623   -4.0624    0.6745 H   0  0  0  0  0  0  0  0  0  0  0  0
    0.3150   -0.1102    1.9287 H   0  0  0  0  0  0  0  0  0  0  0  0
    1.0157   -1.2336    3.0626 H   0  0  0  0  0  0  0  0  0  0  0  0
    1.9495    2.5806   -1.9578 H   0  0  0  0  0  0  0  0  0  0  0  0
    2.4286    0.9005   -3.6592 H   0  0  0  0  0  0  0  0  0  0  0  0
    2.1632    2.0469    1.6331 H   0  0  0  0  0  0  0  0  0  0  0  0
   -0.8659   -0.1953    0.5036 H   0  0  0  0  0  0  0  0  0  0  0  0
    1.1515    4.8151    1.3096 H   0  0  0  0  0  0  0  0  0  0  0  0
    1.2163    4.6548   -0.4665 H   0  0  0  0  0  0  0  0  0  0  0  0
   -1.3211    5.1797    1.1796 H   0  0  0  0  0  0  0  0  0  0  0  0
   -1.2698    5.0016   -0.5693 H   0  0  0  0  0  0  0  0  0  0  0  0
   -3.0304   -3.1754    0.0549 H   0  0  0  0  0  0  0  0  0  0  0  0
   -2.7453    1.1474    0.0811 H   0  0  0  0  0  0  0  0  0  0  0  0
    0.2114    7.0118   -0.7413 H   0  0  0  0  0  0  0  0  0  0  0  0
    0.1615    7.1931    1.0236 H   0  0  0  0  0  0  0  0  0  0  0  0
   -1.3189    7.3874    0.0693 H   0  0  0  0  0  0  0  0  0  0  0  0
   -5.3945   -3.0130   -0.4585 H   0  0  0  0  0  0  0  0  0  0  0  0
   -5.1577    1.2766   -0.4186 H   0  0  0  0  0  0  0  0  0  0  0  0
  1  5  2  0  0  0  0
  1  6  2  0  0  0  0
  1  9  1  0  0  0  0
  1 23  1  0  0  0  0
  2 31  1  0  0  0  0
  3 19  2  0  0  0  0
  4 20  2  0  0  0  0
  7 14  1  0  0  0  0
  7 17  1  0  0  0  0
  7 19  1  0  0  0  0
  8 15  1  0  0  0  0
  8 16  1  0  0  0  0
  8 20  1  0  0  0  0
  9 18  1  0  0  0  0
  9 44  1  0  0  0  0
 10 20  1  0  0  0  0
 10 24  1  0  0  0  0
 10 45  1  0  0  0  0
 11 13  1  0  0  0  0
 11 14  1  0  0  0  0
 11 15  1  0  0  0  0
 11 32  1  0  0  0  0
 12 13  1  0  0  0  0
 12 16  1  0  0  0  0
 12 17  1  0  0  0  0
 12 33  1  0  0  0  0
 13 34  1  0  0  0  0
 13 35  1  0  0  0  0
 14 36  1  0  0  0  0
 14 37  1  0  0  0  0
 15 38  1  0  0  0  0
 15 39  1  0  0  0  0
 16 40  1  0  0  0  0
 16 41  1  0  0  0  0
 17 18  2  0  0  0  0
 18 21  1  0  0  0  0
 19 22  1  0  0  0  0
 21 22  2  0  0  0  0
 21 42  1  0  0  0  0
 22 43  1  0  0  0  0
 23 25  1  0  0  0  0
 23 46  1  0  0  0  0
 23 47  1  0  0  0  0
 24 26  2  0  0  0  0
 24 27  1  0  0  0  0
 25 28  1  0  0  0  0
 25 48  1  0  0  0  0
 25 49  1  0  0  0  0
 26 29  1  0  0  0  0
 26 50  1  0  0  0  0
 27 30  2  0  0  0  0
 27 51  1  0  0  0  0
 28 52  1  0  0  0  0
 28 53  1  0  0  0  0
 28 54  1  0  0  0  0
 29 31  2  0  0  0  0
 29 55  1  0  0  0  0
 30 31  1  0  0  0  0
 30 56  1  0  0  0  0
M  END
> <PUBCHEM_COMPOUND_CID>
9391268

> <PUBCHEM_CONFORMER_RMSD>
1

> <PUBCHEM_CONFORMER_DIVERSEORDER>
1
65
64
66
3
41
7
16
54
52
69
49
8
30
19
25
22
35
44
59
39
60
48
31
45
17
57
24
28
32
13
61
12
18
9
47
37
42
43
21
10
67
51
26
5
62
50
40
36
20
53
68
11
34
14
56
4
38
63
46
29
55
2
70
6
58
15
23
27
33

> <PUBCHEM_MMFF94_PARTIAL_CHARGES>
35
1 1.33
10 -0.55
12 0.14
14 0.3
15 0.3
16 0.3
17 -0.03
18 0.19
19 0.62
2 -0.19
20 0.69
21 -0.15
22 -0.14
23 0.11
24 0.12
26 -0.15
27 -0.15
29 -0.15
3 -0.57
30 -0.15
31 0.19
4 -0.57
42 0.15
43 0.15
44 0.42
45 0.37
5 -0.65
50 0.15
51 0.15
55 0.15
56 0.15
6 -0.65
7 -0.47
8 -0.66
9 -0.75

> <PUBCHEM_EFFECTIVE_ROTOR_COUNT>
8

> <PUBCHEM_PHARMACOPHORE_FEATURES>
11
1 10 donor
1 28 hydrophobe
1 3 acceptor
1 4 acceptor
1 5 acceptor
1 6 acceptor
1 9 donor
6 24 26 27 29 30 31 rings
6 7 11 12 13 14 17 rings
6 7 17 18 19 21 22 rings
6 8 11 12 13 15 16 rings

> <PUBCHEM_HEAVY_ATOM_COUNT>
31

> <PUBCHEM_ATOM_DEF_STEREO_COUNT>
2

> <PUBCHEM_ATOM_UDEF_STEREO_COUNT>
0

> <PUBCHEM_BOND_DEF_STEREO_COUNT>
0

> <PUBCHEM_BOND_UDEF_STEREO_COUNT>
0

> <PUBCHEM_ISOTOPIC_ATOM_COUNT>
0

> <PUBCHEM_COMPONENT_COUNT>
1

> <PUBCHEM_CACTVS_TAUTO_COUNT>
2

> <PUBCHEM_CONFORMER_ID>
008F4CA400000001

> <PUBCHEM_MMFF94_ENERGY>
78.5619

> <PUBCHEM_FEATURE_SELFOVERLAP>
57.427

> <PUBCHEM_SHAPE_FINGERPRINT>
12156800 1 17693388741549677894
12166972 35 17895467033987776803
12293681 160 18045244836433715804
12788726 201 18265631887212319140
138480 1 18337659902010959161
14068700 675 18334851672283769402
14114206 34 17904527044207641804
14537116 161 18342465846620507629
15297060 5 16902702351698333993
15664445 248 18340771562593230145
17974551 9 12690655128686514942
17980427 23 17839148025873585186
18681886 176 18339910584917551819
21857420 4 18265314154243262037
21860390 5 18199460141983903230
23559900 14 17845944051500016607
238 59 17980209908397048699
3052486 1 18050858714665068016
338550 245 17327746098061558341
376196 1 17548418566770663601
513532 50 18201438120674457134
57527573 199 18190735526298468128
5776283 40 17687767333343655252
653340 110 18051395280534508144
9862522 239 15823276151736634168

> <PUBCHEM_SHAPE_MULTIPOLES>
591.14
8.3
6.88
2.02
15.75
15.73
1.1
-7.59
2.6
0.5
-1.98
-2.84
-0.56
-1.05

> <PUBCHEM_SHAPE_SELFOVERLAP>
1255.162

> <PUBCHEM_SHAPE_VOLUME>
331.5

> <PUBCHEM_COORDINATE_TYPE>
2
5
10

$$$$
