45784245
  -OEChem-12032416203D

 43 46  0     1  0  0  0  0  0999 V2000
   -7.5264    1.0533    0.8752 O   0  0  0  0  0  0  0  0  0  0  0  0
   -7.7157   -1.1332    0.2837 O   0  0  0  0  0  0  0  0  0  0  0  0
   -0.6252   -0.2653   -0.2404 N   0  0  1  0  0  0  0  0  0  0  0  0
    3.9988   -1.3544    0.3855 N   0  0  0  0  0  0  0  0  0  0  0  0
    3.4679    0.7696    0.0019 N   0  0  0  0  0  0  0  0  0  0  0  0
    1.5487   -0.8133    0.4476 C   0  0  1  0  0  0  0  0  0  0  0  0
    0.8186   -0.0785    1.5853 C   0  0  0  0  0  0  0  0  0  0  0  0
    0.7002   -0.5366   -0.8009 C   0  0  0  0  0  0  0  0  0  0  0  0
   -0.3762    0.5913    0.9190 C   0  0  0  0  0  0  0  0  0  0  0  0
    2.9994   -0.4284    0.2712 C   0  0  0  0  0  0  0  0  0  0  0  0
   -1.5200    0.3555   -1.2060 C   0  0  0  0  0  0  0  0  0  0  0  0
   -2.9626    0.2338   -0.7925 C   0  0  0  0  0  0  0  0  0  0  0  0
    5.1915   -0.7112    0.1760 C   0  0  0  0  0  0  0  0  0  0  0  0
    4.8335    0.6131   -0.0612 C   0  0  0  0  0  0  0  0  0  0  0  0
   -3.6314   -0.9807   -0.9455 C   0  0  0  0  0  0  0  0  0  0  0  0
   -3.6302    1.3352   -0.2568 C   0  0  0  0  0  0  0  0  0  0  0  0
    6.5125   -1.1603    0.1739 C   0  0  0  0  0  0  0  0  0  0  0  0
    5.8403    1.5592   -0.3177 C   0  0  0  0  0  0  0  0  0  0  0  0
   -4.9678   -1.0937   -0.5627 C   0  0  0  0  0  0  0  0  0  0  0  0
   -4.9667    1.2220    0.1260 C   0  0  0  0  0  0  0  0  0  0  0  0
    7.5016   -0.2053   -0.0834 C   0  0  0  0  0  0  0  0  0  0  0  0
    7.1737    1.1308   -0.3250 C   0  0  0  0  0  0  0  0  0  0  0  0
   -5.6356    0.0074   -0.0268 C   0  0  0  0  0  0  0  0  0  0  0  0
   -7.0288   -0.1103    0.3734 C   0  0  0  0  0  0  0  0  0  0  0  0
    1.4983   -1.8896    0.6677 H   0  0  0  0  0  0  0  0  0  0  0  0
    0.4750   -0.8089    2.3285 H   0  0  0  0  0  0  0  0  0  0  0  0
    1.4470    0.6528    2.1046 H   0  0  0  0  0  0  0  0  0  0  0  0
    1.0823    0.3273   -1.3611 H   0  0  0  0  0  0  0  0  0  0  0  0
    0.6877   -1.4021   -1.4724 H   0  0  0  0  0  0  0  0  0  0  0  0
   -1.2308    0.6369    1.6013 H   0  0  0  0  0  0  0  0  0  0  0  0
   -0.1072    1.6138    0.6238 H   0  0  0  0  0  0  0  0  0  0  0  0
   -1.4266   -0.1496   -2.1779 H   0  0  0  0  0  0  0  0  0  0  0  0
   -1.2544    1.4032   -1.4022 H   0  0  0  0  0  0  0  0  0  0  0  0
    3.8832   -2.3385    0.5882 H   0  0  0  0  0  0  0  0  0  0  0  0
   -3.1220   -1.8459   -1.3617 H   0  0  0  0  0  0  0  0  0  0  0  0
   -3.1197    2.2863   -0.1310 H   0  0  0  0  0  0  0  0  0  0  0  0
    6.7645   -2.1978    0.3618 H   0  0  0  0  0  0  0  0  0  0  0  0
    5.5957    2.5996   -0.5067 H   0  0  0  0  0  0  0  0  0  0  0  0
   -5.4711   -2.0487   -0.6898 H   0  0  0  0  0  0  0  0  0  0  0  0
   -5.4478    2.1041    0.5391 H   0  0  0  0  0  0  0  0  0  0  0  0
    8.5453   -0.5096   -0.0951 H   0  0  0  0  0  0  0  0  0  0  0  0
    7.9647    1.8500   -0.5219 H   0  0  0  0  0  0  0  0  0  0  0  0
   -8.4661    0.9633    1.1420 H   0  0  0  0  0  0  0  0  0  0  0  0
  1 24  1  0  0  0  0
  1 43  1  0  0  0  0
  2 24  2  0  0  0  0
  3  8  1  0  0  0  0
  3  9  1  0  0  0  0
  3 11  1  0  0  0  0
  4 10  1  0  0  0  0
  4 13  1  0  0  0  0
  4 34  1  0  0  0  0
  5 10  2  0  0  0  0
  5 14  1  0  0  0  0
  6  7  1  0  0  0  0
  6  8  1  0  0  0  0
  6 10  1  0  0  0  0
  6 25  1  0  0  0  0
  7  9  1  0  0  0  0
  7 26  1  0  0  0  0
  7 27  1  0  0  0  0
  8 28  1  0  0  0  0
  8 29  1  0  0  0  0
  9 30  1  0  0  0  0
  9 31  1  0  0  0  0
 11 12  1  0  0  0  0
 11 32  1  0  0  0  0
 11 33  1  0  0  0  0
 12 15  2  0  0  0  0
 12 16  1  0  0  0  0
 13 14  1  0  0  0  0
 13 17  2  0  0  0  0
 14 18  2  0  0  0  0
 15 19  1  0  0  0  0
 15 35  1  0  0  0  0
 16 20  2  0  0  0  0
 16 36  1  0  0  0  0
 17 21  1  0  0  0  0
 17 37  1  0  0  0  0
 18 22  1  0  0  0  0
 18 38  1  0  0  0  0
 19 23  2  0  0  0  0
 19 39  1  0  0  0  0
 20 23  1  0  0  0  0
 20 40  1  0  0  0  0
 21 22  2  0  0  0  0
 21 41  1  0  0  0  0
 22 42  1  0  0  0  0
 23 24  1  0  0  0  0
M  END
> <PUBCHEM_COMPOUND_CID>
45784245

> <PUBCHEM_CONFORMER_RMSD>
0.8

> <PUBCHEM_CONFORMER_DIVERSEORDER>
1
27
2
20
16
30
12
7
24
28
17
15
22
18
5
19
6
29
23
26
9
8
25
10
11
4
21
13
3
14

> <PUBCHEM_MMFF94_PARTIAL_CHARGES>
33
1 -0.65
10 0.01
11 0.41
12 -0.14
13 -0.15
14 0.23
15 -0.15
16 -0.15
17 -0.15
18 -0.15
19 -0.15
2 -0.57
20 -0.15
21 -0.15
22 -0.15
23 0.09
24 0.63
3 -0.81
34 0.27
35 0.15
36 0.15
37 0.15
38 0.15
39 0.15
4 0.03
40 0.15
41 0.15
42 0.15
43 0.5
5 -0.57
6 0.18
8 0.27
9 0.27

> <PUBCHEM_EFFECTIVE_ROTOR_COUNT>
5

> <PUBCHEM_PHARMACOPHORE_FEATURES>
10
1 1 acceptor
1 2 acceptor
1 3 cation
1 4 donor
3 1 2 24 anion
3 4 5 10 cation
5 3 6 7 8 9 rings
5 4 5 10 13 14 rings
6 12 15 16 19 20 23 rings
6 13 14 17 18 21 22 rings

> <PUBCHEM_HEAVY_ATOM_COUNT>
24

> <PUBCHEM_ATOM_DEF_STEREO_COUNT>
1

> <PUBCHEM_ATOM_UDEF_STEREO_COUNT>
0

> <PUBCHEM_BOND_DEF_STEREO_COUNT>
0

> <PUBCHEM_BOND_UDEF_STEREO_COUNT>
0

> <PUBCHEM_ISOTOPIC_ATOM_COUNT>
0

> <PUBCHEM_COMPONENT_COUNT>
1

> <PUBCHEM_CACTVS_TAUTO_COUNT>
1

> <PUBCHEM_CONFORMER_ID>
02BA9CB500000001

> <PUBCHEM_MMFF94_ENERGY>
55.2498

> <PUBCHEM_FEATURE_SELFOVERLAP>
50.911

> <PUBCHEM_SHAPE_FINGERPRINT>
10 15 18343586240015272895
10299344 5 18342457049657254759
10595046 47 18408601431521901112
106641 1 18260553342615719675
10968037 39 18186237338698739455
11315181 36 18408041815301942897
11524674 6 16128654180596038447
11638347 137 15791725292278879312
11724838 91 17749390394888180470
12166972 35 18187365428902422476
12236239 1 18343862213064907460
12516196 113 16443345368699608157
12730499 353 17821445738764509898
13073987 5 16588295038840500392
13533116 47 16805592617935390274
14123256 10 16660081105193603411
14170010 4 17894912953848391908
1420 363 17240202122968388903
14251752 14 17703789206677627968
14251764 18 18202562891184040999
14251764 46 16370725928625662171
14849402 71 18261398913554131620
14856354 85 17917432055738734663
14933364 13 18411699880900690972
15142383 8 16702301239488340648
15183329 4 11095889262940393965
15461852 350 11963398435861474857
15537594 2 16487251063041626854
15716309 27 18408039606876440975
18006028 8 11600007652311308378
18335252 98 18408889537633081514
20157964 124 18261111877332250026
20281389 69 18343298167467986520
20735858 18 15285357323175834584
21095086 128 18407758135952266835
21267235 1 18410013229989790636
21315763 28 18335137570860263696
21521721 280 18259987097641738786
21792961 116 17560520599378685284
220451 1 17774996890748580262
22224240 67 16805322205903033018
23035841 295 18343299267000466339
23198884 109 18407759235400169099
23516275 137 18127993948001571323
23536379 177 18412260623609953334
23569943 247 17025704859653854994
2747138 104 16950290602238914973
28498 318 11887962042575683344
29717793 49 17917997166556506468
314173 85 14620793812551493154
34797466 226 18342181072602420468
3545911 37 17894347779043596254
4073 2 18114185280346727018
4325135 7 18335139799552658141
5104073 3 16009857330249991993
5283156 175 17489591135142813110
5385378 56 15841565041674114863
5758199 1 18040718069198570322
59682541 35 16660368116251705448
59755656 215 14261359037435927196
59755656 520 18259699021090011795

> <PUBCHEM_SHAPE_MULTIPOLES>
467.23
23.48
1.33
0.99
3.55
0.13
-0.08
1.09
-1.07
-0.35
0.04
0.46
0
-0.78

> <PUBCHEM_SHAPE_SELFOVERLAP>
1027.904

> <PUBCHEM_SHAPE_VOLUME>
252.6

> <PUBCHEM_COORDINATE_TYPE>
2
5
10

$$$$
