71693187
  -OEChem-12032416303D

 73 76  0     1  0  0  0  0  0999 V2000
   -5.6404    0.5279    0.4529 O   0  0  0  0  0  0  0  0  0  0  0  0
   -5.6403    1.8308   -1.4449 O   0  0  0  0  0  0  0  0  0  0  0  0
    1.7676   -2.5268    0.4719 N   0  0  0  0  0  0  0  0  0  0  0  0
   -1.7328   -4.7286   -0.5096 N   0  0  0  0  0  0  0  0  0  0  0  0
   -0.3240    2.5891   -1.3816 N   0  0  0  0  0  0  0  0  0  0  0  0
    0.2736    2.5975    0.7591 N   0  0  0  0  0  0  0  0  0  0  0  0
    3.5396   -0.4301   -0.5423 C   0  0  1  0  0  0  0  0  0  0  0  0
    3.1637   -0.5645    0.9517 C   0  0  2  0  0  0  0  0  0  0  0  0
    2.8169    0.7685   -1.1732 C   0  0  0  0  0  0  0  0  0  0  0  0
    3.0998    2.1028   -0.4504 C   0  0  2  0  0  0  0  0  0  0  0  0
    5.0592   -0.3230   -0.7294 C   0  0  0  0  0  0  0  0  0  0  0  0
    1.7976   -1.2339    1.1335 C   0  0  0  0  0  0  0  0  0  0  0  0
    3.1500    1.9612    1.0634 C   0  0  0  0  0  0  0  0  0  0  0  0
    3.1661    0.7603    1.6708 C   0  0  0  0  0  0  0  0  0  0  0  0
    2.0720    3.1406   -0.9185 C   0  0  0  0  0  0  0  0  0  0  0  0
    0.4649   -3.1690    0.6312 C   0  0  0  0  0  0  0  0  0  0  0  0
    5.7175   -1.6839   -0.5268 C   0  0  0  0  0  0  0  0  0  0  0  0
    5.3870    0.2364   -2.1101 C   0  0  0  0  0  0  0  0  0  0  0  0
   -0.5695   -2.5525   -0.3152 C   0  0  0  0  0  0  0  0  0  0  0  0
    0.5801   -4.6730    0.3705 C   0  0  0  0  0  0  0  0  0  0  0  0
    3.2423    3.2231    1.8765 C   0  0  0  0  0  0  0  0  0  0  0  0
   -1.9046   -3.2965   -0.2284 C   0  0  0  0  0  0  0  0  0  0  0  0
   -0.7927   -5.3477    0.4352 C   0  0  0  0  0  0  0  0  0  0  0  0
    0.6836    2.7757   -0.4767 C   0  0  0  0  0  0  0  0  0  0  0  0
   -3.0233   -5.4159   -0.4722 C   0  0  0  0  0  0  0  0  0  0  0  0
   -1.4599    2.2691   -0.6832 C   0  0  0  0  0  0  0  0  0  0  0  0
   -1.0610    2.2809    0.6504 C   0  0  0  0  0  0  0  0  0  0  0  0
   -2.7624    1.9793   -1.0911 C   0  0  0  0  0  0  0  0  0  0  0  0
   -2.0043    1.9887    1.6500 C   0  0  0  0  0  0  0  0  0  0  0  0
   -3.6882    1.6907   -0.0830 C   0  0  0  0  0  0  0  0  0  0  0  0
   -3.3180    1.6947    1.2638 C   0  0  0  0  0  0  0  0  0  0  0  0
   -5.0626    1.3810   -0.4469 C   0  0  0  0  0  0  0  0  0  0  0  0
   -6.9975    0.1469    0.2024 C   0  0  0  0  0  0  0  0  0  0  0  0
    3.2148   -1.3156   -1.1030 H   0  0  0  0  0  0  0  0  0  0  0  0
    3.9018   -1.1962    1.4595 H   0  0  0  0  0  0  0  0  0  0  0  0
    3.0075    0.8662   -2.2476 H   0  0  0  0  0  0  0  0  0  0  0  0
    1.7455    0.5350   -1.1304 H   0  0  0  0  0  0  0  0  0  0  0  0
    4.0863    2.4709   -0.7570 H   0  0  0  0  0  0  0  0  0  0  0  0
    5.4905    0.3641    0.0093 H   0  0  0  0  0  0  0  0  0  0  0  0
    1.0152   -0.5722    0.7469 H   0  0  0  0  0  0  0  0  0  0  0  0
    1.6026   -1.3606    2.2071 H   0  0  0  0  0  0  0  0  0  0  0  0
    3.2027    0.7116    2.7571 H   0  0  0  0  0  0  0  0  0  0  0  0
    2.1098    3.2273   -2.0121 H   0  0  0  0  0  0  0  0  0  0  0  0
    2.3143    4.1367   -0.5294 H   0  0  0  0  0  0  0  0  0  0  0  0
    0.1173   -3.0508    1.6673 H   0  0  0  0  0  0  0  0  0  0  0  0
    2.4958   -3.1195    0.8705 H   0  0  0  0  0  0  0  0  0  0  0  0
    5.3281   -2.4248   -1.2337 H   0  0  0  0  0  0  0  0  0  0  0  0
    6.7994   -1.6141   -0.6863 H   0  0  0  0  0  0  0  0  0  0  0  0
    5.5712   -2.0725    0.4844 H   0  0  0  0  0  0  0  0  0  0  0  0
    5.1569    1.2980   -2.2209 H   0  0  0  0  0  0  0  0  0  0  0  0
    6.4643    0.1522   -2.2992 H   0  0  0  0  0  0  0  0  0  0  0  0
    4.8840   -0.3255   -2.9052 H   0  0  0  0  0  0  0  0  0  0  0  0
   -0.2027   -2.5853   -1.3502 H   0  0  0  0  0  0  0  0  0  0  0  0
   -0.7509   -1.4986   -0.0769 H   0  0  0  0  0  0  0  0  0  0  0  0
    1.2450   -5.1373    1.1093 H   0  0  0  0  0  0  0  0  0  0  0  0
    1.0259   -4.8543   -0.6171 H   0  0  0  0  0  0  0  0  0  0  0  0
    4.0686    3.8434    1.5132 H   0  0  0  0  0  0  0  0  0  0  0  0
    3.4382    3.0149    2.9343 H   0  0  0  0  0  0  0  0  0  0  0  0
    2.3222    3.8104    1.8294 H   0  0  0  0  0  0  0  0  0  0  0  0
   -2.3482   -3.1426    0.7642 H   0  0  0  0  0  0  0  0  0  0  0  0
   -2.5892   -2.8543   -0.9626 H   0  0  0  0  0  0  0  0  0  0  0  0
   -0.6628   -6.4082    0.1873 H   0  0  0  0  0  0  0  0  0  0  0  0
   -1.1798   -5.2982    1.4616 H   0  0  0  0  0  0  0  0  0  0  0  0
   -0.2486    2.6700   -2.3869 H   0  0  0  0  0  0  0  0  0  0  0  0
   -3.7088   -4.9879   -1.2120 H   0  0  0  0  0  0  0  0  0  0  0  0
   -3.4973   -5.3538    0.5141 H   0  0  0  0  0  0  0  0  0  0  0  0
   -2.9036   -6.4738   -0.7315 H   0  0  0  0  0  0  0  0  0  0  0  0
   -3.0321    1.9777   -2.1418 H   0  0  0  0  0  0  0  0  0  0  0  0
   -1.7264    1.9919    2.6992 H   0  0  0  0  0  0  0  0  0  0  0  0
   -4.0399    1.4838    2.0496 H   0  0  0  0  0  0  0  0  0  0  0  0
   -7.3141   -0.5297    1.0005 H   0  0  0  0  0  0  0  0  0  0  0  0
   -7.0712   -0.3777   -0.7548 H   0  0  0  0  0  0  0  0  0  0  0  0
   -7.6443    1.0292    0.2106 H   0  0  0  0  0  0  0  0  0  0  0  0
  1 32  1  0  0  0  0
  1 33  1  0  0  0  0
  2 32  2  0  0  0  0
  3 12  1  0  0  0  0
  3 16  1  0  0  0  0
  3 46  1  0  0  0  0
  4 22  1  0  0  0  0
  4 23  1  0  0  0  0
  4 25  1  0  0  0  0
  5 24  1  0  0  0  0
  5 26  1  0  0  0  0
  5 64  1  0  0  0  0
  6 24  2  0  0  0  0
  6 27  1  0  0  0  0
  7  8  1  0  0  0  0
  7  9  1  0  0  0  0
  7 11  1  0  0  0  0
  7 34  1  0  0  0  0
  8 12  1  0  0  0  0
  8 14  1  0  0  0  0
  8 35  1  0  0  0  0
  9 10  1  0  0  0  0
  9 36  1  0  0  0  0
  9 37  1  0  0  0  0
 10 13  1  0  0  0  0
 10 15  1  0  0  0  0
 10 38  1  0  0  0  0
 11 17  1  0  0  0  0
 11 18  1  0  0  0  0
 11 39  1  0  0  0  0
 12 40  1  0  0  0  0
 12 41  1  0  0  0  0
 13 14  2  0  0  0  0
 13 21  1  0  0  0  0
 14 42  1  0  0  0  0
 15 24  1  0  0  0  0
 15 43  1  0  0  0  0
 15 44  1  0  0  0  0
 16 19  1  0  0  0  0
 16 20  1  0  0  0  0
 16 45  1  0  0  0  0
 17 47  1  0  0  0  0
 17 48  1  0  0  0  0
 17 49  1  0  0  0  0
 18 50  1  0  0  0  0
 18 51  1  0  0  0  0
 18 52  1  0  0  0  0
 19 22  1  0  0  0  0
 19 53  1  0  0  0  0
 19 54  1  0  0  0  0
 20 23  1  0  0  0  0
 20 55  1  0  0  0  0
 20 56  1  0  0  0  0
 21 57  1  0  0  0  0
 21 58  1  0  0  0  0
 21 59  1  0  0  0  0
 22 60  1  0  0  0  0
 22 61  1  0  0  0  0
 23 62  1  0  0  0  0
 23 63  1  0  0  0  0
 25 65  1  0  0  0  0
 25 66  1  0  0  0  0
 25 67  1  0  0  0  0
 26 27  2  0  0  0  0
 26 28  1  0  0  0  0
 27 29  1  0  0  0  0
 28 30  2  0  0  0  0
 28 68  1  0  0  0  0
 29 31  2  0  0  0  0
 29 69  1  0  0  0  0
 30 31  1  0  0  0  0
 30 32  1  0  0  0  0
 31 70  1  0  0  0  0
 33 71  1  0  0  0  0
 33 72  1  0  0  0  0
 33 73  1  0  0  0  0
M  END
> <PUBCHEM_COMPOUND_CID>
71693187

> <PUBCHEM_CONFORMER_RMSD>
1

> <PUBCHEM_CONFORMER_DIVERSEORDER>
10
87
12
61
38
30
74
56
97
59
110
82
83
67
25
53
63
5
42
106
99
55
33
39
78
96
32
60
17
46
26
44
4
102
108
23
37
36
64
93
8
27
69
85
50
40
95
65
43
88
80
92
28
66
68
9
49
34
20
62
19
18
41
29
86
22
89
45
94
98
79
3
104
54
76
75
70
100
51
6
103
15
72
47
71
84
81
16
7
21
58
90
107
77
48
11
73
31
13
14
101
24
35
2
1
105
57
109
91
52

> <PUBCHEM_MMFF94_PARTIAL_CHARGES>
32
1 -0.43
10 0.14
12 0.27
13 -0.28
14 -0.29
15 0.18
16 0.27
2 -0.57
21 0.14
22 0.27
23 0.27
24 0.01
25 0.27
26 -0.15
27 0.23
28 -0.15
29 -0.15
3 -0.9
30 0.09
31 -0.15
32 0.63
33 0.28
4 -0.81
42 0.15
46 0.36
5 0.03
6 -0.57
64 0.27
68 0.15
69 0.15
70 0.15
8 0.14

> <PUBCHEM_EFFECTIVE_ROTOR_COUNT>
10

> <PUBCHEM_PHARMACOPHORE_FEATURES>
11
1 2 acceptor
1 3 cation
1 3 donor
1 4 cation
1 5 donor
3 11 17 18 hydrophobe
3 5 6 24 cation
5 5 6 24 26 27 rings
6 26 27 28 29 30 31 rings
6 4 16 19 20 22 23 rings
6 7 8 9 10 13 14 rings

> <PUBCHEM_HEAVY_ATOM_COUNT>
33

> <PUBCHEM_ATOM_DEF_STEREO_COUNT>
3

> <PUBCHEM_ATOM_UDEF_STEREO_COUNT>
0

> <PUBCHEM_BOND_DEF_STEREO_COUNT>
0

> <PUBCHEM_BOND_UDEF_STEREO_COUNT>
0

> <PUBCHEM_ISOTOPIC_ATOM_COUNT>
0

> <PUBCHEM_COMPONENT_COUNT>
1

> <PUBCHEM_CACTVS_TAUTO_COUNT>
7

> <PUBCHEM_CONFORMER_ID>
0445F3830000000A

> <PUBCHEM_MMFF94_ENERGY>
59.5581

> <PUBCHEM_FEATURE_SELFOVERLAP>
55.928

> <PUBCHEM_SHAPE_FINGERPRINT>
10316853 100 18411138034637605733
10675989 125 17183061882816152231
1100329 8 18411139164219344471
11285246 1 16904165866526870038
11513181 2 18053957422174776974
12156800 1 17836047406977090400
12788726 201 17543068338862997465
13383661 66 17411912674060052310
1361 2 18409445878338358873
14028597 1 17845951641356017177
15001296 14 18118958337942919803
15419008 42 17681243609624868341
15483637 11 18193276523308238455
16067690 210 16343712023801943411
16114785 44 16765601451741528664
18681886 176 18187087218121910116
20028762 73 18343302535243972559
20764821 26 18336256963897155127
20775438 99 18057019488848217830
21133410 62 18188196603863494183
21304303 94 18338249210458387460
21344244 181 18270134405046176902
23559900 14 17616797852559121961
338550 245 18262237858194884749
3737641 26 17764600819729998616
4280585 95 16385075337643615642
463206 1 18340763853585518793
5309563 4 17835230152379297943
653340 110 17835507598508107689
86090 222 18340219487623291191

> <PUBCHEM_SHAPE_MULTIPOLES>
647.46
11.54
7.28
1.54
8.39
12.69
0.1
-3.67
-2.76
4.45
0.24
-1.12
-1.04
0.45

> <PUBCHEM_SHAPE_SELFOVERLAP>
1363.353

> <PUBCHEM_SHAPE_VOLUME>
364.3

> <PUBCHEM_COORDINATE_TYPE>
2
5
10

$$$$
