26744006
  -OEChem-12032416293D

 52 55  0     1  0  0  0  0  0999 V2000
   -3.2309   -5.7854    0.4505 Cl  0  0  0  0  0  0  0  0  0  0  0  0
    2.5171    0.1831   -0.5992 S   0  0  0  0  0  0  0  0  0  0  0  0
   -5.3170    2.8814    2.0820 O   0  0  0  0  0  0  0  0  0  0  0  0
   -0.6855    3.3066   -1.2146 O   0  0  0  0  0  0  0  0  0  0  0  0
    2.5362    0.4043   -2.0330 O   0  0  0  0  0  0  0  0  0  0  0  0
    1.6360   -0.8127   -0.0192 O   0  0  0  0  0  0  0  0  0  0  0  0
   -3.1663    0.8973    0.0305 N   0  0  1  0  0  0  0  0  0  0  0  0
   -0.2843    1.6491    0.2374 N   0  0  0  0  0  0  0  0  0  0  0  0
    0.7079    3.2060   -1.1136 N   0  0  0  0  0  0  0  0  0  0  0  0
   -2.7016    2.2555   -0.3172 C   0  0  1  0  0  0  0  0  0  0  0  0
   -3.3090    3.1683    0.7643 C   0  0  0  0  0  0  0  0  0  0  0  0
   -4.1344    2.2397    1.6462 C   0  0  2  0  0  0  0  0  0  0  0  0
   -4.4344    1.0621    0.7384 C   0  0  0  0  0  0  0  0  0  0  0  0
   -3.2938    0.0203   -1.1261 C   0  0  0  0  0  0  0  0  0  0  0  0
   -1.1924    2.3551   -0.3875 C   0  0  0  0  0  0  0  0  0  0  0  0
   -3.2787   -1.4329   -0.7323 C   0  0  0  0  0  0  0  0  0  0  0  0
    0.8657    2.2074   -0.2398 C   0  0  0  0  0  0  0  0  0  0  0  0
   -2.0693   -2.1250   -0.6675 C   0  0  0  0  0  0  0  0  0  0  0  0
   -4.4735   -2.0870   -0.4318 C   0  0  0  0  0  0  0  0  0  0  0  0
    2.1930    1.7419    0.1773 C   0  0  0  0  0  0  0  0  0  0  0  0
   -2.0548   -3.4712   -0.3028 C   0  0  0  0  0  0  0  0  0  0  0  0
   -4.4591   -3.4331   -0.0671 C   0  0  0  0  0  0  0  0  0  0  0  0
    4.1597   -0.2128   -0.0832 C   0  0  0  0  0  0  0  0  0  0  0  0
   -3.2498   -4.1253   -0.0027 C   0  0  0  0  0  0  0  0  0  0  0  0
    4.3657   -0.9427    1.0874 C   0  0  0  0  0  0  0  0  0  0  0  0
    5.2505    0.2067   -0.8448 C   0  0  0  0  0  0  0  0  0  0  0  0
    5.6625   -1.2531    1.4965 C   0  0  0  0  0  0  0  0  0  0  0  0
    6.5473   -0.1037   -0.4356 C   0  0  0  0  0  0  0  0  0  0  0  0
    6.7533   -0.8337    0.7350 C   0  0  0  0  0  0  0  0  0  0  0  0
    8.1399   -1.1658    1.1726 C   0  0  0  0  0  0  0  0  0  0  0  0
   -3.1178    2.5626   -1.2872 H   0  0  0  0  0  0  0  0  0  0  0  0
   -2.5555    3.6913    1.3644 H   0  0  0  0  0  0  0  0  0  0  0  0
   -3.9436    3.9343    0.3013 H   0  0  0  0  0  0  0  0  0  0  0  0
   -3.5553    1.9195    2.5211 H   0  0  0  0  0  0  0  0  0  0  0  0
   -4.7083    0.1848    1.3329 H   0  0  0  0  0  0  0  0  0  0  0  0
   -5.2720    1.2946    0.0675 H   0  0  0  0  0  0  0  0  0  0  0  0
   -2.4514    0.1771   -1.8142 H   0  0  0  0  0  0  0  0  0  0  0  0
   -4.1885    0.2479   -1.7216 H   0  0  0  0  0  0  0  0  0  0  0  0
   -5.0526    3.6659    2.5921 H   0  0  0  0  0  0  0  0  0  0  0  0
   -1.1315   -1.6265   -0.8975 H   0  0  0  0  0  0  0  0  0  0  0  0
   -5.4235   -1.5619   -0.4835 H   0  0  0  0  0  0  0  0  0  0  0  0
    2.2350    1.5985    1.2608 H   0  0  0  0  0  0  0  0  0  0  0  0
    2.9801    2.4404   -0.1228 H   0  0  0  0  0  0  0  0  0  0  0  0
   -1.1048   -3.9975   -0.2558 H   0  0  0  0  0  0  0  0  0  0  0  0
   -5.3979   -3.9301    0.1634 H   0  0  0  0  0  0  0  0  0  0  0  0
    3.5312   -1.2730    1.6993 H   0  0  0  0  0  0  0  0  0  0  0  0
    5.1122    0.7816   -1.7559 H   0  0  0  0  0  0  0  0  0  0  0  0
    5.8103   -1.8225    2.4104 H   0  0  0  0  0  0  0  0  0  0  0  0
    7.3891    0.2284   -1.0373 H   0  0  0  0  0  0  0  0  0  0  0  0
    8.4491   -2.1248    0.7451 H   0  0  0  0  0  0  0  0  0  0  0  0
    8.8499   -0.3946    0.8549 H   0  0  0  0  0  0  0  0  0  0  0  0
    8.2050   -1.2306    2.2641 H   0  0  0  0  0  0  0  0  0  0  0  0
  1 24  1  0  0  0  0
  2  5  2  0  0  0  0
  2  6  2  0  0  0  0
  2 20  1  0  0  0  0
  2 23  1  0  0  0  0
  3 12  1  0  0  0  0
  3 39  1  0  0  0  0
  4  9  1  0  0  0  0
  4 15  1  0  0  0  0
  7 10  1  0  0  0  0
  7 13  1  0  0  0  0
  7 14  1  0  0  0  0
  8 15  2  0  0  0  0
  8 17  1  0  0  0  0
  9 17  2  0  0  0  0
 10 11  1  0  0  0  0
 10 15  1  0  0  0  0
 10 31  1  0  0  0  0
 11 12  1  0  0  0  0
 11 32  1  0  0  0  0
 11 33  1  0  0  0  0
 12 13  1  0  0  0  0
 12 34  1  0  0  0  0
 13 35  1  0  0  0  0
 13 36  1  0  0  0  0
 14 16  1  0  0  0  0
 14 37  1  0  0  0  0
 14 38  1  0  0  0  0
 16 18  2  0  0  0  0
 16 19  1  0  0  0  0
 17 20  1  0  0  0  0
 18 21  1  0  0  0  0
 18 40  1  0  0  0  0
 19 22  2  0  0  0  0
 19 41  1  0  0  0  0
 20 42  1  0  0  0  0
 20 43  1  0  0  0  0
 21 24  2  0  0  0  0
 21 44  1  0  0  0  0
 22 24  1  0  0  0  0
 22 45  1  0  0  0  0
 23 25  2  0  0  0  0
 23 26  1  0  0  0  0
 25 27  1  0  0  0  0
 25 46  1  0  0  0  0
 26 28  2  0  0  0  0
 26 47  1  0  0  0  0
 27 29  2  0  0  0  0
 27 48  1  0  0  0  0
 28 29  1  0  0  0  0
 28 49  1  0  0  0  0
 29 30  1  0  0  0  0
 30 50  1  0  0  0  0
 30 51  1  0  0  0  0
 30 52  1  0  0  0  0
M  END
> <PUBCHEM_COMPOUND_CID>
26744006

> <PUBCHEM_CONFORMER_RMSD>
1.2

> <PUBCHEM_CONFORMER_DIVERSEORDER>
1
80
117
45
27
61
131
29
35
97
135
98
62
79
136
127
94
24
18
92
134
90
73
121
91
124
63
128
120
77
2
54
68
26
15
33
99
114
46
104
115
17
107
76
12
20
125
106
13
36
28
43
75
105
116
34
113
86
3
48
83
108
10
109
21
7
82
122
87
84
32
112
67
8
52
30
119
42
19
126
51
40
39
50
5
44
102
132
23
101
118
57
55
70
81
111
14
60
85
16
53
41
93
47
4
37
95
110
56
72
100
129
103
89
78
66
22
11
123
74
9
59
58
6
31
25
133
49
69
96
64
137
38
65
88
71
130

> <PUBCHEM_MMFF94_PARTIAL_CHARGES>
38
1 -0.18
10 0.45
12 0.28
13 0.27
14 0.41
15 0.3
16 -0.14
17 0.34
18 -0.15
19 -0.15
2 1.2
20 0.29
21 -0.15
22 -0.15
23 -0.01
24 0.18
25 -0.15
26 -0.15
27 -0.15
28 -0.15
29 -0.14
3 -0.68
30 0.14
39 0.4
4 -0.02
40 0.15
41 0.15
44 0.15
45 0.15
46 0.15
47 0.15
48 0.15
49 0.15
5 -0.65
6 -0.65
7 -0.81
8 -0.57
9 -0.41

> <PUBCHEM_EFFECTIVE_ROTOR_COUNT>
7

> <PUBCHEM_PHARMACOPHORE_FEATURES>
10
1 3 acceptor
1 3 donor
1 5 acceptor
1 6 acceptor
1 7 cation
3 8 9 17 cation
5 4 8 9 15 17 rings
5 7 10 11 12 13 rings
6 16 18 19 21 22 24 rings
6 23 25 26 27 28 29 rings

> <PUBCHEM_HEAVY_ATOM_COUNT>
30

> <PUBCHEM_ATOM_DEF_STEREO_COUNT>
2

> <PUBCHEM_ATOM_UDEF_STEREO_COUNT>
0

> <PUBCHEM_BOND_DEF_STEREO_COUNT>
0

> <PUBCHEM_BOND_UDEF_STEREO_COUNT>
0

> <PUBCHEM_ISOTOPIC_ATOM_COUNT>
0

> <PUBCHEM_COMPONENT_COUNT>
1

> <PUBCHEM_CACTVS_TAUTO_COUNT>
1

> <PUBCHEM_CONFORMER_ID>
019814C600000001

> <PUBCHEM_MMFF94_ENERGY>
53.145

> <PUBCHEM_FEATURE_SELFOVERLAP>
50.764

> <PUBCHEM_SHAPE_FINGERPRINT>
10290309 65 17977386027539656580
10305334 12 18411138000879819279
10319688 45 18408316666606270116
10483366 6 18190155964049661541
10622 236 18264766751860202127
10673678 19 8824401036382941632
11014199 57 18193841663525915815
11315621 246 18335988584676397510
117089 54 17829896777734748891
13726171 33 17983328025038158028
14068700 675 18128804413014495431
14395042 24 18411709803425223155
14705955 166 17275114899132948651
14844126 61 18410012139521784979
14856354 85 18272652316511863828
14866123 147 18412831309200739395
15250474 111 18334573547370948094
15320294 125 18187646851595317807
15537594 2 18113901511809572208
15728490 83 18261958551976913531
15803439 3 17174293986217483149
16110190 28 18410579452887782376
17492 89 18048594025797485047
17686467 74 18266166405463228040
20775530 9 18052539069275530991
21033648 29 17203616981861570134
229767 44 18411421665978380811
23559900 14 18120361323201468431
3383291 50 18341618114328537883
397830 11 18200296815642947384
4073 2 18202565047658589026
4435113 14 17916600743397265518
4616759 239 17988069003507430008
484985 159 18408882962797631263
5104073 3 18272929453729822296
5364581 5 17916570060082350520
5486654 36 18409172146887216849
563151 74 15913058572982114399
6371380 46 18272079449595286473
6679774 75 17900861217228761491
9953998 17 18271799082946419928
9961470 85 18053385400965790623

> <PUBCHEM_SHAPE_MULTIPOLES>
584.68
16.35
5.94
1.36
31.54
5.42
-0.22
8.07
-5.75
-12.57
-0.82
0.07
-0.69
-2.96

> <PUBCHEM_SHAPE_SELFOVERLAP>
1236.069

> <PUBCHEM_SHAPE_VOLUME>
330.6

> <PUBCHEM_COORDINATE_TYPE>
2
5
10

$$$$
