25390368
  -OEChem-12032416173D

 62 65  0     1  0  0  0  0  0999 V2000
   -3.9179   -0.3881   -0.9072 O   0  0  0  0  0  0  0  0  0  0  0  0
   -5.7595   -2.5228    0.2355 O   0  0  0  0  0  0  0  0  0  0  0  0
   -6.2094   -0.3474    1.8582 O   0  0  0  0  0  0  0  0  0  0  0  0
   -1.6245   -1.9178   -2.0715 O   0  0  0  0  0  0  0  0  0  0  0  0
   -2.1783    1.9981   -1.3978 O   0  0  0  0  0  0  0  0  0  0  0  0
    0.1586   -1.6459   -0.6066 N   0  0  0  0  0  0  0  0  0  0  0  0
    2.9813   -1.2727   -0.0837 N   0  0  0  0  0  0  0  0  0  0  0  0
   -3.4112    1.9887    0.5593 N   0  0  0  0  0  0  0  0  0  0  0  0
    4.9588   -0.0402   -0.4672 N   0  0  0  0  0  0  0  0  0  0  0  0
   -1.1379    2.3534    0.6764 N   0  0  0  0  0  0  0  0  0  0  0  0
   -3.5960   -1.6609   -0.3012 C   0  0  2  0  0  0  0  0  0  0  0  0
   -4.6204   -1.8804    0.8067 C   0  0  1  0  0  0  0  0  0  0  0  0
   -4.9630   -0.4598    1.2053 C   0  0  1  0  0  0  0  0  0  0  0  0
   -4.9589    0.2438   -0.1415 C   0  0  1  0  0  0  0  0  0  0  0  0
   -2.1661   -1.5824    0.2160 C   0  0  0  0  0  0  0  0  0  0  0  0
   -4.6871    1.7341   -0.0414 C   0  0  0  0  0  0  0  0  0  0  0  0
   -1.1960   -1.7302   -0.9304 C   0  0  0  0  0  0  0  0  0  0  0  0
    1.1606   -1.7839   -1.6602 C   0  0  0  0  0  0  0  0  0  0  0  0
    0.6656   -1.4124    0.7476 C   0  0  0  0  0  0  0  0  0  0  0  0
    2.3993   -0.9340   -1.3854 C   0  0  0  0  0  0  0  0  0  0  0  0
    2.1106   -1.8780    0.9272 C   0  0  0  0  0  0  0  0  0  0  0  0
    4.3339   -1.0565    0.1685 C   0  0  0  0  0  0  0  0  0  0  0  0
   -2.2188    2.1058   -0.1745 C   0  0  0  0  0  0  0  0  0  0  0  0
    4.9559   -1.9097    1.0658 C   0  0  0  0  0  0  0  0  0  0  0  0
    6.3063   -1.7065    1.3276 C   0  0  0  0  0  0  0  0  0  0  0  0
    6.2710    0.1265   -0.1876 C   0  0  0  0  0  0  0  0  0  0  0  0
    6.9837   -0.6711    0.6932 C   0  0  0  0  0  0  0  0  0  0  0  0
    0.2204    2.5320    0.3248 C   0  0  0  0  0  0  0  0  0  0  0  0
    1.1717    2.7713    1.3163 C   0  0  0  0  0  0  0  0  0  0  0  0
    0.6085    2.4690   -1.0134 C   0  0  0  0  0  0  0  0  0  0  0  0
    2.5114    2.9478    0.9698 C   0  0  0  0  0  0  0  0  0  0  0  0
    1.9481    2.6454   -1.3601 C   0  0  0  0  0  0  0  0  0  0  0  0
    2.8995    2.8848   -0.3685 C   0  0  0  0  0  0  0  0  0  0  0  0
   -3.7068   -2.4308   -1.0735 H   0  0  0  0  0  0  0  0  0  0  0  0
   -4.2743   -2.4952    1.6424 H   0  0  0  0  0  0  0  0  0  0  0  0
   -4.1840   -0.0758    1.8730 H   0  0  0  0  0  0  0  0  0  0  0  0
   -5.9096    0.0918   -0.6678 H   0  0  0  0  0  0  0  0  0  0  0  0
   -1.9911   -2.4148    0.9063 H   0  0  0  0  0  0  0  0  0  0  0  0
   -1.9749   -0.6363    0.7298 H   0  0  0  0  0  0  0  0  0  0  0  0
   -5.4496    2.2313    0.5665 H   0  0  0  0  0  0  0  0  0  0  0  0
   -4.6949    2.1819   -1.0411 H   0  0  0  0  0  0  0  0  0  0  0  0
    0.7277   -1.5135   -2.6291 H   0  0  0  0  0  0  0  0  0  0  0  0
    1.4278   -2.8469   -1.7066 H   0  0  0  0  0  0  0  0  0  0  0  0
    0.0326   -1.9159    1.4829 H   0  0  0  0  0  0  0  0  0  0  0  0
    0.5897   -0.3362    0.9324 H   0  0  0  0  0  0  0  0  0  0  0  0
    3.1249   -1.1098   -2.1887 H   0  0  0  0  0  0  0  0  0  0  0  0
    2.1347    0.1187   -1.3981 H   0  0  0  0  0  0  0  0  0  0  0  0
    2.4220   -1.5965    1.9407 H   0  0  0  0  0  0  0  0  0  0  0  0
    2.1607   -2.9706    0.8434 H   0  0  0  0  0  0  0  0  0  0  0  0
   -5.4871   -3.4188   -0.0266 H   0  0  0  0  0  0  0  0  0  0  0  0
   -6.1809   -0.9216    2.6423 H   0  0  0  0  0  0  0  0  0  0  0  0
   -3.3684    2.0989    1.5677 H   0  0  0  0  0  0  0  0  0  0  0  0
    4.4529   -2.7363    1.5554 H   0  0  0  0  0  0  0  0  0  0  0  0
   -1.3441    2.4116    1.6704 H   0  0  0  0  0  0  0  0  0  0  0  0
    6.8315   -2.3565    2.0210 H   0  0  0  0  0  0  0  0  0  0  0  0
    6.7528    0.9475   -0.7081 H   0  0  0  0  0  0  0  0  0  0  0  0
    8.0365   -0.4948    0.8813 H   0  0  0  0  0  0  0  0  0  0  0  0
    0.8828    2.8215    2.3630 H   0  0  0  0  0  0  0  0  0  0  0  0
   -0.0677    2.2853   -1.8361 H   0  0  0  0  0  0  0  0  0  0  0  0
    3.2527    3.1326    1.7418 H   0  0  0  0  0  0  0  0  0  0  0  0
    2.2519    2.5965   -2.4019 H   0  0  0  0  0  0  0  0  0  0  0  0
    3.9425    3.0214   -0.6385 H   0  0  0  0  0  0  0  0  0  0  0  0
  1 11  1  0  0  0  0
  1 14  1  0  0  0  0
  2 12  1  0  0  0  0
  2 50  1  0  0  0  0
  3 13  1  0  0  0  0
  3 51  1  0  0  0  0
  4 17  2  0  0  0  0
  5 23  2  0  0  0  0
  6 17  1  0  0  0  0
  6 18  1  0  0  0  0
  6 19  1  0  0  0  0
  7 20  1  0  0  0  0
  7 21  1  0  0  0  0
  7 22  1  0  0  0  0
  8 16  1  0  0  0  0
  8 23  1  0  0  0  0
  8 52  1  0  0  0  0
  9 22  1  0  0  0  0
  9 26  2  0  0  0  0
 10 23  1  0  0  0  0
 10 28  1  0  0  0  0
 10 54  1  0  0  0  0
 11 12  1  0  0  0  0
 11 15  1  0  0  0  0
 11 34  1  0  0  0  0
 12 13  1  0  0  0  0
 12 35  1  0  0  0  0
 13 14  1  0  0  0  0
 13 36  1  0  0  0  0
 14 16  1  0  0  0  0
 14 37  1  0  0  0  0
 15 17  1  0  0  0  0
 15 38  1  0  0  0  0
 15 39  1  0  0  0  0
 16 40  1  0  0  0  0
 16 41  1  0  0  0  0
 18 20  1  0  0  0  0
 18 42  1  0  0  0  0
 18 43  1  0  0  0  0
 19 21  1  0  0  0  0
 19 44  1  0  0  0  0
 19 45  1  0  0  0  0
 20 46  1  0  0  0  0
 20 47  1  0  0  0  0
 21 48  1  0  0  0  0
 21 49  1  0  0  0  0
 22 24  2  0  0  0  0
 24 25  1  0  0  0  0
 24 53  1  0  0  0  0
 25 27  2  0  0  0  0
 25 55  1  0  0  0  0
 26 27  1  0  0  0  0
 26 56  1  0  0  0  0
 27 57  1  0  0  0  0
 28 29  2  0  0  0  0
 28 30  1  0  0  0  0
 29 31  1  0  0  0  0
 29 58  1  0  0  0  0
 30 32  2  0  0  0  0
 30 59  1  0  0  0  0
 31 33  2  0  0  0  0
 31 60  1  0  0  0  0
 32 33  1  0  0  0  0
 32 61  1  0  0  0  0
 33 62  1  0  0  0  0
M  END
> <PUBCHEM_COMPOUND_CID>
25390368

> <PUBCHEM_CONFORMER_RMSD>
1.2

> <PUBCHEM_CONFORMER_DIVERSEORDER>
2
63
70
57
123
65
19
58
93
113
87
48
101
80
112
39
20
42
74
102
84
97
32
59
12
118
45
76
103
52
28
56
125
115
25
24
124
72
78
92
88
53
96
121
108
79
13
69
94
81
111
85
109
67
66
128
126
61
91
86
120
46
44
54
98
22
51
105
104
107
43
6
127
49
27
64
100
38
119
82
37
16
3
122
62
14
35
106
117
75
41
21
17
7
73
30
23
116
34
77
90
89
71
9
18
60
1
26
15
50
95
47
40
55
31
29
99
110
83
8
68
36
11
5
10
33
114
4

> <PUBCHEM_MMFF94_PARTIAL_CHARGES>
46
1 -0.56
10 -0.55
11 0.28
12 0.28
13 0.28
14 0.28
15 0.06
16 0.3
17 0.57
18 0.3
19 0.3
2 -0.68
20 0.37
21 0.37
22 0.41
23 0.69
24 -0.15
25 -0.15
26 0.16
27 -0.15
28 0.12
29 -0.15
3 -0.68
30 -0.15
31 -0.15
32 -0.15
33 -0.15
4 -0.57
5 -0.57
50 0.4
51 0.4
52 0.37
53 0.15
54 0.37
55 0.15
56 0.15
57 0.15
58 0.15
59 0.15
6 -0.66
60 0.15
61 0.15
62 0.15
7 -0.84
8 -0.73
9 -0.62

> <PUBCHEM_EFFECTIVE_ROTOR_COUNT>
11.2

> <PUBCHEM_PHARMACOPHORE_FEATURES>
15
1 1 acceptor
1 10 donor
1 2 acceptor
1 2 donor
1 3 acceptor
1 3 donor
1 4 acceptor
1 5 acceptor
1 7 cation
1 8 donor
1 9 acceptor
5 1 11 12 13 14 rings
6 28 29 30 31 32 33 rings
6 6 7 18 19 20 21 rings
6 9 22 24 25 26 27 rings

> <PUBCHEM_HEAVY_ATOM_COUNT>
33

> <PUBCHEM_ATOM_DEF_STEREO_COUNT>
4

> <PUBCHEM_ATOM_UDEF_STEREO_COUNT>
0

> <PUBCHEM_BOND_DEF_STEREO_COUNT>
0

> <PUBCHEM_BOND_UDEF_STEREO_COUNT>
0

> <PUBCHEM_ISOTOPIC_ATOM_COUNT>
0

> <PUBCHEM_COMPONENT_COUNT>
1

> <PUBCHEM_CACTVS_TAUTO_COUNT>
3

> <PUBCHEM_CONFORMER_ID>
01836D2000000002

> <PUBCHEM_MMFF94_ENERGY>
100.3357

> <PUBCHEM_FEATURE_SELFOVERLAP>
76.187

> <PUBCHEM_SHAPE_FINGERPRINT>
10290309 65 18193275191721002231
10939801 23 18269274724634866972
1100329 8 18412539912480368076
11578080 2 17201333378653588104
11963148 33 17616254023811730339
12107698 1 18409166636486374187
12166972 35 17603871092057128766
12422481 6 18341602750528770288
12596602 18 17821728321399775146
13140716 1 18412830166602353385
13402501 40 18412825776449256312
14040221 10 17201389358191973745
14466204 15 18337670823901886890
14849402 71 18189060961451853732
14955137 171 18272937094238738460
15274700 147 12958042093376695098
15927050 60 17836647801278349572
15968369 153 18130221657780711480
16110190 28 18413389843046552376
18336668 15 18334295357669893684
20642791 178 18335151864285149965
20721686 56 18337387266113659011
21033648 29 17559940078566889770
23559900 14 18260541256166740213
338550 245 18336548325751781988
350125 39 18410577305182679309
3680242 22 18337680702479349776
392239 28 18336276699430103507
4112364 45 16988283208560387489
4144715 1 18335994111556222979
439807 62 18040443204714598393
469060 322 17531528668714950772
5104073 3 18269009733726632963
5265222 85 17474105888108553896

> <PUBCHEM_SHAPE_MULTIPOLES>
624.87
14.49
3.95
1.48
4.38
2.65
-0.21
-7.21
5.32
0.23
0.05
-0.11
-0.2
-0.52

> <PUBCHEM_SHAPE_SELFOVERLAP>
1329.112

> <PUBCHEM_SHAPE_VOLUME>
344.3

> <PUBCHEM_COORDINATE_TYPE>
2
5
10

$$$$
