45783830
  -OEChem-12032416203D

 55 58  0     1  0  0  0  0  0999 V2000
    0.8580    3.8047   -0.3217 S   0  0  0  0  0  0  0  0  0  0  0  0
   -1.7599   -1.5930   -1.3574 O   0  0  0  0  0  0  0  0  0  0  0  0
    0.5570    4.6708   -1.4535 O   0  0  0  0  0  0  0  0  0  0  0  0
    1.3546    4.3831    0.9187 O   0  0  0  0  0  0  0  0  0  0  0  0
   -4.1443   -0.6607    0.1317 N   0  0  1  0  0  0  0  0  0  0  0  0
   -0.7222   -1.6080    0.6276 N   0  0  0  0  0  0  0  0  0  0  0  0
   -0.3904   -1.4920   -1.6331 N   0  0  0  0  0  0  0  0  0  0  0  0
    3.7927   -1.2385   -1.1337 N   0  0  0  0  0  0  0  0  0  0  0  0
    5.6751   -1.1731    0.3250 N   0  0  0  0  0  0  0  0  0  0  0  0
   -3.2696   -1.7719    0.5563 C   0  0  1  0  0  0  0  0  0  0  0  0
   -3.9961   -3.0444    0.0828 C   0  0  0  0  0  0  0  0  0  0  0  0
   -5.2948   -2.5525   -0.5402 C   0  0  0  0  0  0  0  0  0  0  0  0
   -5.5058   -1.1953    0.0999 C   0  0  0  0  0  0  0  0  0  0  0  0
   -4.0366    0.5143    0.9870 C   0  0  0  0  0  0  0  0  0  0  0  0
   -1.8677   -1.6562   -0.0044 C   0  0  0  0  0  0  0  0  0  0  0  0
   -2.8172    1.3352    0.6610 C   0  0  0  0  0  0  0  0  0  0  0  0
   -1.8567    1.5776    1.6429 C   0  0  0  0  0  0  0  0  0  0  0  0
   -2.6479    1.8529   -0.6232 C   0  0  0  0  0  0  0  0  0  0  0  0
    0.1548   -1.5075   -0.4131 C   0  0  0  0  0  0  0  0  0  0  0  0
   -0.7271    2.3380    1.3409 C   0  0  0  0  0  0  0  0  0  0  0  0
   -1.5184    2.6134   -0.9253 C   0  0  0  0  0  0  0  0  0  0  0  0
   -0.5579    2.8559    0.0568 C   0  0  0  0  0  0  0  0  0  0  0  0
    1.5706   -1.4228   -0.1995 C   0  0  0  0  0  0  0  0  0  0  0  0
    2.1039   -1.4401    1.0845 C   0  0  0  0  0  0  0  0  0  0  0  0
    2.4498   -1.3214   -1.2655 C   0  0  0  0  0  0  0  0  0  0  0  0
    2.0516    2.6126   -0.8855 C   0  0  0  0  0  0  0  0  0  0  0  0
    3.4808   -1.3567    1.2607 C   0  0  0  0  0  0  0  0  0  0  0  0
    4.2745   -1.2583    0.1293 C   0  0  0  0  0  0  0  0  0  0  0  0
    6.5641   -1.0760   -0.8116 C   0  0  0  0  0  0  0  0  0  0  0  0
    6.2252   -1.1903    1.6623 C   0  0  0  0  0  0  0  0  0  0  0  0
   -3.1961   -1.8201    1.6517 H   0  0  0  0  0  0  0  0  0  0  0  0
   -4.2251   -3.6787    0.9480 H   0  0  0  0  0  0  0  0  0  0  0  0
   -3.4250   -3.6483   -0.6306 H   0  0  0  0  0  0  0  0  0  0  0  0
   -6.1276   -3.2375   -0.3563 H   0  0  0  0  0  0  0  0  0  0  0  0
   -5.1714   -2.4486   -1.6254 H   0  0  0  0  0  0  0  0  0  0  0  0
   -6.1804   -0.5710   -0.4942 H   0  0  0  0  0  0  0  0  0  0  0  0
   -5.9215   -1.3110    1.1090 H   0  0  0  0  0  0  0  0  0  0  0  0
   -4.8995    1.1752    0.8234 H   0  0  0  0  0  0  0  0  0  0  0  0
   -4.0695    0.2465    2.0513 H   0  0  0  0  0  0  0  0  0  0  0  0
   -1.9735    1.1769    2.6462 H   0  0  0  0  0  0  0  0  0  0  0  0
   -3.3891    1.6750   -1.3979 H   0  0  0  0  0  0  0  0  0  0  0  0
    0.0124    2.5063    2.1187 H   0  0  0  0  0  0  0  0  0  0  0  0
   -1.4033    3.0016   -1.9333 H   0  0  0  0  0  0  0  0  0  0  0  0
    1.4705   -1.5167    1.9646 H   0  0  0  0  0  0  0  0  0  0  0  0
    2.1147   -1.3002   -2.2983 H   0  0  0  0  0  0  0  0  0  0  0  0
    1.6547    2.0985   -1.7628 H   0  0  0  0  0  0  0  0  0  0  0  0
    2.2536    1.9059   -0.0786 H   0  0  0  0  0  0  0  0  0  0  0  0
    2.9669    3.1471   -1.1488 H   0  0  0  0  0  0  0  0  0  0  0  0
    3.8542   -1.3732    2.2773 H   0  0  0  0  0  0  0  0  0  0  0  0
    6.4638   -1.9548   -1.4580 H   0  0  0  0  0  0  0  0  0  0  0  0
    6.3432   -0.1791   -1.4009 H   0  0  0  0  0  0  0  0  0  0  0  0
    7.6150   -1.0139   -0.5097 H   0  0  0  0  0  0  0  0  0  0  0  0
    5.8704   -0.3383    2.2533 H   0  0  0  0  0  0  0  0  0  0  0  0
    5.9920   -2.1275    2.1802 H   0  0  0  0  0  0  0  0  0  0  0  0
    7.3186   -1.1150    1.6462 H   0  0  0  0  0  0  0  0  0  0  0  0
  1  3  2  0  0  0  0
  1  4  2  0  0  0  0
  1 22  1  0  0  0  0
  1 26  1  0  0  0  0
  2  7  1  0  0  0  0
  2 15  1  0  0  0  0
  5 10  1  0  0  0  0
  5 13  1  0  0  0  0
  5 14  1  0  0  0  0
  6 15  2  0  0  0  0
  6 19  1  0  0  0  0
  7 19  2  0  0  0  0
  8 25  1  0  0  0  0
  8 28  2  0  0  0  0
  9 28  1  0  0  0  0
  9 29  1  0  0  0  0
  9 30  1  0  0  0  0
 10 11  1  0  0  0  0
 10 15  1  0  0  0  0
 10 31  1  0  0  0  0
 11 12  1  0  0  0  0
 11 32  1  0  0  0  0
 11 33  1  0  0  0  0
 12 13  1  0  0  0  0
 12 34  1  0  0  0  0
 12 35  1  0  0  0  0
 13 36  1  0  0  0  0
 13 37  1  0  0  0  0
 14 16  1  0  0  0  0
 14 38  1  0  0  0  0
 14 39  1  0  0  0  0
 16 17  2  0  0  0  0
 16 18  1  0  0  0  0
 17 20  1  0  0  0  0
 17 40  1  0  0  0  0
 18 21  2  0  0  0  0
 18 41  1  0  0  0  0
 19 23  1  0  0  0  0
 20 22  2  0  0  0  0
 20 42  1  0  0  0  0
 21 22  1  0  0  0  0
 21 43  1  0  0  0  0
 23 24  1  0  0  0  0
 23 25  2  0  0  0  0
 24 27  2  0  0  0  0
 24 44  1  0  0  0  0
 25 45  1  0  0  0  0
 26 46  1  0  0  0  0
 26 47  1  0  0  0  0
 26 48  1  0  0  0  0
 27 28  1  0  0  0  0
 27 49  1  0  0  0  0
 29 50  1  0  0  0  0
 29 51  1  0  0  0  0
 29 52  1  0  0  0  0
 30 53  1  0  0  0  0
 30 54  1  0  0  0  0
 30 55  1  0  0  0  0
M  END
> <PUBCHEM_COMPOUND_CID>
45783830

> <PUBCHEM_CONFORMER_RMSD>
0.8

> <PUBCHEM_CONFORMER_DIVERSEORDER>
1
66
135
68
124
131
119
141
96
65
24
130
64
167
87
140
26
127
166
123
106
137
67
158
98
160
104
29
157
90
132
91
42
121
110
86
53
84
156
12
154
126
34
94
159
151
3
152
62
57
99
8
32
45
82
50
136
148
74
105
38
122
117
144
129
5
20
108
61
31
97
83
146
143
161
153
95
100
138
40
9
162
59
89
49
155
78
147
19
70
128
11
28
69
85
10
113
43
27
125
79
71
139
76
77
109
33
120
145
58
163
133
7
2
102
80
93
115
150
6
35
134
63
15
164
18
52
48
118
116
107
114
103
72
16
36
39
101
56
149
73
22
142
112
44
13
81
92
14
111
30
21
41
37
23
55
4
47
165
88
25
54
46
75
17
51
60

> <PUBCHEM_MMFF94_PARTIAL_CHARGES>
35
1 1.2
10 0.45
13 0.27
14 0.41
15 0.3
16 -0.14
17 -0.15
18 -0.15
19 0.46
2 -0.02
20 -0.15
21 -0.15
22 -0.01
23 0.05
24 -0.15
25 0.16
26 0.11
27 -0.15
28 0.41
29 0.37
3 -0.65
30 0.37
4 -0.65
40 0.15
41 0.15
42 0.15
43 0.15
44 0.15
45 0.15
49 0.15
5 -0.81
6 -0.57
7 -0.41
8 -0.62
9 -0.84

> <PUBCHEM_EFFECTIVE_ROTOR_COUNT>
7

> <PUBCHEM_PHARMACOPHORE_FEATURES>
9
1 3 acceptor
1 4 acceptor
1 5 cation
3 6 7 19 cation
3 8 9 28 cation
5 2 6 7 15 19 rings
5 5 10 11 12 13 rings
6 16 17 18 20 21 22 rings
6 8 23 24 25 27 28 rings

> <PUBCHEM_HEAVY_ATOM_COUNT>
30

> <PUBCHEM_ATOM_DEF_STEREO_COUNT>
1

> <PUBCHEM_ATOM_UDEF_STEREO_COUNT>
0

> <PUBCHEM_BOND_DEF_STEREO_COUNT>
0

> <PUBCHEM_BOND_UDEF_STEREO_COUNT>
0

> <PUBCHEM_ISOTOPIC_ATOM_COUNT>
0

> <PUBCHEM_COMPONENT_COUNT>
1

> <PUBCHEM_CACTVS_TAUTO_COUNT>
1

> <PUBCHEM_CONFORMER_ID>
02BA9B1600000001

> <PUBCHEM_MMFF94_ENERGY>
68.8225

> <PUBCHEM_FEATURE_SELFOVERLAP>
45.69

> <PUBCHEM_SHAPE_FINGERPRINT>
10032420 55 17822561738027839385
10670039 82 18339092480437767278
1100329 8 18411709759984900417
11578080 2 17678155274593081431
11595378 159 18191294997512924642
11963148 33 17115223128054696999
12107698 1 18410853283023192370
12156800 1 15695231064438876809
12166972 35 17894350003536177078
12422481 6 18270104846395346329
12788726 201 18187926119122498698
133893 2 18048621466744121889
13782708 43 17560243505849626142
13941206 138 17325222113063715724
14068700 675 18342176691287359347
14117953 113 18268153067875995549
14142880 1 18056765325911576473
15927050 60 17547858911304825158
17980427 23 18202290191073331901
18336668 15 18186806872299306644
20721686 56 18263927803487872800
20771845 171 17682393999366023991
20905425 154 18054524753295032805
21033648 29 17489576836300464618
21133665 82 17329153980506068940
21344244 246 17980185711442944319
21360443 120 17829896786651419164
23557571 272 18202006490607794727
23559900 14 18338791338378799923
25019877 29 16773794830947723254
3504750 166 18268972221219499258
392239 28 18336268938376720456
4280585 95 18335974316225307945
463206 1 18261970612144418288
469060 322 18338244777382010674
9981440 41 17325761479372651217

> <PUBCHEM_SHAPE_MULTIPOLES>
578.72
11.59
5.11
1.43
10.71
6.94
0.1
-11.32
1.43
-1.15
-0.81
0.76
0.22
-0.87

> <PUBCHEM_SHAPE_SELFOVERLAP>
1232.094

> <PUBCHEM_SHAPE_VOLUME>
327.7

> <PUBCHEM_COORDINATE_TYPE>
2
5
10

$$$$
