45784296
  -OEChem-12032416283D

 43 46  0     1  0  0  0  0  0999 V2000
    7.0612   -0.1593   -0.2592 O   0  0  0  0  0  0  0  0  0  0  0  0
   -2.3796   -0.2719   -0.1077 N   0  0  1  0  0  0  0  0  0  0  0  0
    2.3068   -1.1668    0.3388 N   0  0  0  0  0  0  0  0  0  0  0  0
    1.6679    0.9423    0.0491 N   0  0  0  0  0  0  0  0  0  0  0  0
   -5.3665    1.2004   -0.0028 N   0  0  0  0  0  0  0  0  0  0  0  0
   -0.1624   -0.7426    0.4938 C   0  0  1  0  0  0  0  0  0  0  0  0
   -0.8883   -0.0832    1.6793 C   0  0  0  0  0  0  0  0  0  0  0  0
   -1.0617   -0.4615   -0.7175 C   0  0  0  0  0  0  0  0  0  0  0  0
   -2.1327    0.5538    1.0744 C   0  0  0  0  0  0  0  0  0  0  0  0
    1.2632   -0.2850    0.2881 C   0  0  0  0  0  0  0  0  0  0  0  0
   -3.3317    0.3406   -1.0225 C   0  0  0  0  0  0  0  0  0  0  0  0
    3.4618   -0.4615    0.1176 C   0  0  0  0  0  0  0  0  0  0  0  0
   -4.7535    0.1376   -0.5705 C   0  0  0  0  0  0  0  0  0  0  0  0
    3.0365    0.8521   -0.0603 C   0  0  0  0  0  0  0  0  0  0  0  0
    4.8012   -0.8480    0.0596 C   0  0  0  0  0  0  0  0  0  0  0  0
    3.9904    1.8526   -0.3118 C   0  0  0  0  0  0  0  0  0  0  0  0
   -5.3537   -1.0977   -0.7535 C   0  0  0  0  0  0  0  0  0  0  0  0
    5.7371    0.1607   -0.1917 C   0  0  0  0  0  0  0  0  0  0  0  0
    5.3411    1.4876   -0.3742 C   0  0  0  0  0  0  0  0  0  0  0  0
   -6.6679   -1.2521   -0.3263 C   0  0  0  0  0  0  0  0  0  0  0  0
   -6.6433    1.0126    0.4000 C   0  0  0  0  0  0  0  0  0  0  0  0
   -7.3321   -0.1816    0.2623 C   0  0  0  0  0  0  0  0  0  0  0  0
    7.4058   -1.5289   -0.0649 C   0  0  0  0  0  0  0  0  0  0  0  0
   -0.1569   -1.8273    0.6756 H   0  0  0  0  0  0  0  0  0  0  0  0
   -1.1749   -0.8546    2.4051 H   0  0  0  0  0  0  0  0  0  0  0  0
   -0.2775    0.6576    2.2060 H   0  0  0  0  0  0  0  0  0  0  0  0
   -0.7371    0.4384   -1.2568 H   0  0  0  0  0  0  0  0  0  0  0  0
   -1.0564   -1.3023   -1.4197 H   0  0  0  0  0  0  0  0  0  0  0  0
   -2.9681    0.5363    1.7814 H   0  0  0  0  0  0  0  0  0  0  0  0
   -1.9192    1.5973    0.8091 H   0  0  0  0  0  0  0  0  0  0  0  0
   -3.2433   -0.1153   -2.0185 H   0  0  0  0  0  0  0  0  0  0  0  0
   -3.1294    1.4099   -1.1702 H   0  0  0  0  0  0  0  0  0  0  0  0
    2.2426   -2.1618    0.5088 H   0  0  0  0  0  0  0  0  0  0  0  0
    5.0418   -1.8923    0.2098 H   0  0  0  0  0  0  0  0  0  0  0  0
    3.6928    2.8864   -0.4552 H   0  0  0  0  0  0  0  0  0  0  0  0
   -4.8275   -1.9270   -1.2140 H   0  0  0  0  0  0  0  0  0  0  0  0
    6.0873    2.2545   -0.5683 H   0  0  0  0  0  0  0  0  0  0  0  0
   -7.1737   -2.2047   -0.4519 H   0  0  0  0  0  0  0  0  0  0  0  0
   -7.1163    1.8777    0.8529 H   0  0  0  0  0  0  0  0  0  0  0  0
   -8.3566   -0.2792    0.6027 H   0  0  0  0  0  0  0  0  0  0  0  0
    7.1430   -1.8725    0.9414 H   0  0  0  0  0  0  0  0  0  0  0  0
    6.9804   -2.1671   -0.8470 H   0  0  0  0  0  0  0  0  0  0  0  0
    8.4949   -1.6032   -0.1517 H   0  0  0  0  0  0  0  0  0  0  0  0
  1 18  1  0  0  0  0
  1 23  1  0  0  0  0
  2  8  1  0  0  0  0
  2  9  1  0  0  0  0
  2 11  1  0  0  0  0
  3 10  1  0  0  0  0
  3 12  1  0  0  0  0
  3 33  1  0  0  0  0
  4 10  2  0  0  0  0
  4 14  1  0  0  0  0
  5 13  1  0  0  0  0
  5 21  2  0  0  0  0
  6  7  1  0  0  0  0
  6  8  1  0  0  0  0
  6 10  1  0  0  0  0
  6 24  1  0  0  0  0
  7  9  1  0  0  0  0
  7 25  1  0  0  0  0
  7 26  1  0  0  0  0
  8 27  1  0  0  0  0
  8 28  1  0  0  0  0
  9 29  1  0  0  0  0
  9 30  1  0  0  0  0
 11 13  1  0  0  0  0
 11 31  1  0  0  0  0
 11 32  1  0  0  0  0
 12 14  2  0  0  0  0
 12 15  1  0  0  0  0
 13 17  2  0  0  0  0
 14 16  1  0  0  0  0
 15 18  2  0  0  0  0
 15 34  1  0  0  0  0
 16 19  2  0  0  0  0
 16 35  1  0  0  0  0
 17 20  1  0  0  0  0
 17 36  1  0  0  0  0
 18 19  1  0  0  0  0
 19 37  1  0  0  0  0
 20 22  2  0  0  0  0
 20 38  1  0  0  0  0
 21 22  1  0  0  0  0
 21 39  1  0  0  0  0
 22 40  1  0  0  0  0
 23 41  1  0  0  0  0
 23 42  1  0  0  0  0
 23 43  1  0  0  0  0
M  END
> <PUBCHEM_COMPOUND_CID>
45784296

> <PUBCHEM_CONFORMER_RMSD>
0.8

> <PUBCHEM_CONFORMER_DIVERSEORDER>
1
91
95
85
22
78
86
60
36
12
76
72
57
88
44
62
63
65
82
33
47
38
31
81
58
28
61
55
90
84
87
4
29
75
13
25
94
59
77
41
68
5
3
30
42
69
67
54
92
56
17
15
43
37
24
66
8
89
64
16
52
79
19
20
83
70
21
74
18
7
45
2
53
6
73
11
80
14
39
71
50
51
26
9
46
32
23
93
48
35
49
10
34
27
40

> <PUBCHEM_MMFF94_PARTIAL_CHARGES>
30
1 -0.36
10 0.01
11 0.41
12 -0.15
13 0.17
14 0.23
15 -0.15
16 -0.15
17 -0.15
18 0.08
19 -0.15
2 -0.81
20 -0.15
21 0.16
22 -0.15
23 0.28
3 0.03
33 0.27
34 0.15
35 0.15
36 0.15
37 0.15
38 0.15
39 0.15
4 -0.57
40 0.15
5 -0.62
6 0.18
8 0.27
9 0.27

> <PUBCHEM_EFFECTIVE_ROTOR_COUNT>
5

> <PUBCHEM_PHARMACOPHORE_FEATURES>
9
1 1 acceptor
1 2 cation
1 3 donor
1 5 acceptor
3 3 4 10 cation
5 2 6 7 8 9 rings
5 3 4 10 12 14 rings
6 12 14 15 16 18 19 rings
6 5 13 17 20 21 22 rings

> <PUBCHEM_HEAVY_ATOM_COUNT>
23

> <PUBCHEM_ATOM_DEF_STEREO_COUNT>
1

> <PUBCHEM_ATOM_UDEF_STEREO_COUNT>
0

> <PUBCHEM_BOND_DEF_STEREO_COUNT>
0

> <PUBCHEM_BOND_UDEF_STEREO_COUNT>
0

> <PUBCHEM_ISOTOPIC_ATOM_COUNT>
0

> <PUBCHEM_COMPONENT_COUNT>
1

> <PUBCHEM_CACTVS_TAUTO_COUNT>
2

> <PUBCHEM_CONFORMER_ID>
02BA9CE800000001

> <PUBCHEM_MMFF94_ENERGY>
57.9433

> <PUBCHEM_FEATURE_SELFOVERLAP>
45.779

> <PUBCHEM_SHAPE_FINGERPRINT>
10 15 13262399977049877572
10066227 49 18200596883006289094
10299344 5 18343302583116210575
10595046 47 18410572882004245633
106641 1 12396308066449182117
10670039 82 16226040046912840916
11315181 36 16917068876318339883
11408170 108 17702388352520769214
11524674 6 15769773581163640407
11646440 116 16950287303899210797
11719270 70 17846498115256039830
12091667 2 18334858312529737523
12166972 35 18408323306499122028
12236239 1 18202001036041059172
12730499 353 17821729420695014794
12788726 201 17131838616849078715
13167372 99 18411700950289850209
13533116 47 17023172787332332586
13668630 136 18131073719062118470
13914758 101 18411984624479376400
14170010 4 18334011709919538580
14251752 14 17775286058264613385
14251764 18 18186800283993222536
14251764 46 17917992775944823959
14294032 229 17129884741415407001
14856354 85 17846221098934767535
14933364 13 18409167714523061381
15183329 4 18335697234968537811
15537594 2 16128654146146388615
17093844 174 13614521858007381231
18006028 8 12823295697782845427
21033648 29 17677051382146388928
21095086 128 18410291432966559591
21150785 3 18411983572649985276
21267235 1 18410577267002396076
21315763 28 18411981377663312077
21792961 116 17846499197871906827
221357 26 18260827094766985268
22224240 67 10519980457506749404
23035841 295 17775284976143922919
23198884 109 18408886248347145545
23536379 177 18413107260416613745
23559900 14 18269268126662780393
23569943 247 17460583732641342066
23622692 88 14490193825314293286
29717793 49 17988931067894729908
3004659 81 18341891892243377378
314173 85 14333130788779031723
328311 84 18186242822665283178
335352 9 18333455340288609494
347723 3 17346598577643760011
3545911 37 17603585231238151226
4073 2 17968381259389931906
4098825 35 18336827489887945905
4325135 7 18408602570215690399
4339292 15 16558172926842060479
5283156 175 17632300051450679210
542803 24 18413666920419798653
59682541 35 15575003892538912273
59755656 215 17458344117976539074
59755656 520 17894627080340243635
9996256 80 18334010584147392733

> <PUBCHEM_SHAPE_MULTIPOLES>
447.54
21.62
1.41
0.94
4.39
0.18
-0.19
-2.21
2.49
-1.04
0.1
0.62
0.01
-0.7

> <PUBCHEM_SHAPE_SELFOVERLAP>
977.872

> <PUBCHEM_SHAPE_VOLUME>
243.9

> <PUBCHEM_COORDINATE_TYPE>
2
5
10

$$$$
