75536713
  -OEChem-12032416313D

 56 58  0     1  0  0  0  0  0999 V2000
    3.9733    1.9045   -0.2505 S   0  0  0  0  0  0  0  0  0  0  0  0
   -5.2834    0.7026   -0.1777 S   0  0  0  0  0  0  0  0  0  0  0  0
    3.2680   -2.3260    1.2389 O   0  0  0  0  0  0  0  0  0  0  0  0
    2.9886   -4.0209   -1.4662 O   0  0  0  0  0  0  0  0  0  0  0  0
    4.2766    1.8389   -1.6674 O   0  0  0  0  0  0  0  0  0  0  0  0
    4.8559    2.6188    0.6521 O   0  0  0  0  0  0  0  0  0  0  0  0
   -4.9865    1.6952   -1.2014 O   0  0  0  0  0  0  0  0  0  0  0  0
   -6.5509   -0.0132   -0.2111 O   0  0  0  0  0  0  0  0  0  0  0  0
    0.2987   -2.9301    0.7272 N   0  0  0  0  0  0  0  0  0  0  0  0
    3.7271    0.3305    0.3465 N   0  0  0  0  0  0  0  0  0  0  0  0
    1.5144   -3.6573    0.3686 C   0  0  1  0  0  0  0  0  0  0  0  0
    2.2315   -3.0069   -0.8014 C   0  0  1  0  0  0  0  0  0  0  0  0
    3.1923   -2.0049   -0.1626 C   0  0  1  0  0  0  0  0  0  0  0  0
    2.5537   -3.5456    1.4721 C   0  0  0  0  0  0  0  0  0  0  0  0
    2.7407   -0.5587   -0.2976 C   0  0  0  0  0  0  0  0  0  0  0  0
   -0.8385   -3.3871   -0.0626 C   0  0  0  0  0  0  0  0  0  0  0  0
   -1.9464   -2.3680   -0.0922 C   0  0  0  0  0  0  0  0  0  0  0  0
    2.3650    2.6156   -0.0699 C   0  0  0  0  0  0  0  0  0  0  0  0
   -1.7027   -1.0870   -0.5872 C   0  0  0  0  0  0  0  0  0  0  0  0
   -3.2166   -2.7050    0.3757 C   0  0  0  0  0  0  0  0  0  0  0  0
   -3.9992   -0.4799   -0.1468 C   0  0  0  0  0  0  0  0  0  0  0  0
   -2.7290   -0.1429   -0.6146 C   0  0  0  0  0  0  0  0  0  0  0  0
   -4.2430   -1.7610    0.3483 C   0  0  0  0  0  0  0  0  0  0  0  0
    2.0217    3.2718    1.1122 C   0  0  0  0  0  0  0  0  0  0  0  0
    1.4384    2.5180   -1.1080 C   0  0  0  0  0  0  0  0  0  0  0  0
    0.7518    3.8305    1.2561 C   0  0  0  0  0  0  0  0  0  0  0  0
    0.1686    3.0767   -0.9640 C   0  0  0  0  0  0  0  0  0  0  0  0
   -0.1748    3.7331    0.2180 C   0  0  0  0  0  0  0  0  0  0  0  0
   -5.1629    1.5276    1.3935 C   0  0  0  0  0  0  0  0  0  0  0  0
   -1.5326    4.3305    0.3720 C   0  0  0  0  0  0  0  0  0  0  0  0
    1.2891   -4.7193    0.2097 H   0  0  0  0  0  0  0  0  0  0  0  0
    1.5697   -2.5638   -1.5522 H   0  0  0  0  0  0  0  0  0  0  0  0
    4.2055   -2.1104   -0.5696 H   0  0  0  0  0  0  0  0  0  0  0  0
    2.1384   -3.5417    2.4848 H   0  0  0  0  0  0  0  0  0  0  0  0
    3.2756   -4.3686    1.4107 H   0  0  0  0  0  0  0  0  0  0  0  0
    1.7794   -0.4076    0.2050 H   0  0  0  0  0  0  0  0  0  0  0  0
    2.6336   -0.3089   -1.3575 H   0  0  0  0  0  0  0  0  0  0  0  0
    0.0844   -3.0590    1.7158 H   0  0  0  0  0  0  0  0  0  0  0  0
   -1.1990   -4.3436    0.3363 H   0  0  0  0  0  0  0  0  0  0  0  0
   -0.5554   -3.5750   -1.1067 H   0  0  0  0  0  0  0  0  0  0  0  0
    3.4704   -3.5924   -2.1943 H   0  0  0  0  0  0  0  0  0  0  0  0
    3.9039    0.1525    1.3431 H   0  0  0  0  0  0  0  0  0  0  0  0
   -0.7195   -0.8106   -0.9593 H   0  0  0  0  0  0  0  0  0  0  0  0
   -3.4208   -3.6984    0.7661 H   0  0  0  0  0  0  0  0  0  0  0  0
   -2.5159    0.8507   -0.9987 H   0  0  0  0  0  0  0  0  0  0  0  0
   -5.2222   -2.0431    0.7248 H   0  0  0  0  0  0  0  0  0  0  0  0
    2.7249    3.3531    1.9361 H   0  0  0  0  0  0  0  0  0  0  0  0
    1.6831    2.0088   -2.0357 H   0  0  0  0  0  0  0  0  0  0  0  0
    0.4964    4.3392    2.1819 H   0  0  0  0  0  0  0  0  0  0  0  0
   -0.5452    2.9941   -1.7794 H   0  0  0  0  0  0  0  0  0  0  0  0
   -5.9495    2.2837    1.4405 H   0  0  0  0  0  0  0  0  0  0  0  0
   -5.3025    0.7952    2.1908 H   0  0  0  0  0  0  0  0  0  0  0  0
   -4.1835    2.0040    1.4703 H   0  0  0  0  0  0  0  0  0  0  0  0
   -1.8359    4.3615    1.4241 H   0  0  0  0  0  0  0  0  0  0  0  0
   -2.2852    3.7379   -0.1596 H   0  0  0  0  0  0  0  0  0  0  0  0
   -1.5421    5.3503   -0.0252 H   0  0  0  0  0  0  0  0  0  0  0  0
  1  5  2  0  0  0  0
  1  6  2  0  0  0  0
  1 10  1  0  0  0  0
  1 18  1  0  0  0  0
  2  7  2  0  0  0  0
  2  8  2  0  0  0  0
  2 21  1  0  0  0  0
  2 29  1  0  0  0  0
  3 13  1  0  0  0  0
  3 14  1  0  0  0  0
  4 12  1  0  0  0  0
  4 41  1  0  0  0  0
  9 11  1  0  0  0  0
  9 16  1  0  0  0  0
  9 38  1  0  0  0  0
 10 15  1  0  0  0  0
 10 42  1  0  0  0  0
 11 12  1  0  0  0  0
 11 14  1  0  0  0  0
 11 31  1  0  0  0  0
 12 13  1  0  0  0  0
 12 32  1  0  0  0  0
 13 15  1  0  0  0  0
 13 33  1  0  0  0  0
 14 34  1  0  0  0  0
 14 35  1  0  0  0  0
 15 36  1  0  0  0  0
 15 37  1  0  0  0  0
 16 17  1  0  0  0  0
 16 39  1  0  0  0  0
 16 40  1  0  0  0  0
 17 19  2  0  0  0  0
 17 20  1  0  0  0  0
 18 24  2  0  0  0  0
 18 25  1  0  0  0  0
 19 22  1  0  0  0  0
 19 43  1  0  0  0  0
 20 23  2  0  0  0  0
 20 44  1  0  0  0  0
 21 22  2  0  0  0  0
 21 23  1  0  0  0  0
 22 45  1  0  0  0  0
 23 46  1  0  0  0  0
 24 26  1  0  0  0  0
 24 47  1  0  0  0  0
 25 27  2  0  0  0  0
 25 48  1  0  0  0  0
 26 28  2  0  0  0  0
 26 49  1  0  0  0  0
 27 28  1  0  0  0  0
 27 50  1  0  0  0  0
 28 30  1  0  0  0  0
 29 51  1  0  0  0  0
 29 52  1  0  0  0  0
 29 53  1  0  0  0  0
 30 54  1  0  0  0  0
 30 55  1  0  0  0  0
 30 56  1  0  0  0  0
M  END
> <PUBCHEM_COMPOUND_CID>
75536713

> <PUBCHEM_CONFORMER_RMSD>
1.2

> <PUBCHEM_CONFORMER_DIVERSEORDER>
2
28
187
32
121
78
149
66
99
104
154
127
54
157
158
62
138
119
106
118
24
169
146
109
16
15
136
73
45
84
41
179
76
137
115
186
46
151
189
123
81
126
17
120
68
18
161
131
102
185
58
64
23
29
159
77
13
135
4
20
70
107
90
82
67
85
36
155
12
147
53
92
141
108
172
162
177
56
173
145
168
61
26
48
50
6
125
140
43
57
156
49
148
5
150
132
196
91
72
167
22
95
74
38
181
69
166
11
195
27
1
34
153
75
160
35
30
25
188
178
55
128
117
93
191
47
110
144
59
96
152
170
79
39
100
133
164
190
171
7
83
105
163
175
19
37
116
122
174
33
113
44
142
80
182
8
130
192
134
193
112
60
103
129
31
198
184
101
124
94
10
40
194
65
197
87
88
139
9
114
143
180
14
176
42
3
86
98
97
89
21
183
165
111
71
52
63
51

> <PUBCHEM_MMFF94_PARTIAL_CHARGES>
41
1 1.45
10 -0.91
11 0.27
12 0.28
13 0.28
14 0.28
15 0.36
16 0.41
17 -0.14
18 -0.01
19 -0.15
2 1.2
20 -0.15
21 -0.01
22 -0.15
23 -0.15
24 -0.15
25 -0.15
26 -0.15
27 -0.15
28 -0.14
29 0.11
3 -0.56
30 0.14
38 0.36
4 -0.68
41 0.4
42 0.42
43 0.15
44 0.15
45 0.15
46 0.15
47 0.15
48 0.15
49 0.15
5 -0.65
50 0.15
6 -0.65
7 -0.65
8 -0.65
9 -0.9

> <PUBCHEM_EFFECTIVE_ROTOR_COUNT>
9

> <PUBCHEM_PHARMACOPHORE_FEATURES>
13
1 10 donor
1 3 acceptor
1 4 acceptor
1 4 donor
1 5 acceptor
1 6 acceptor
1 7 acceptor
1 8 acceptor
1 9 cation
1 9 donor
5 3 11 12 13 14 rings
6 17 19 20 21 22 23 rings
6 18 24 25 26 27 28 rings

> <PUBCHEM_HEAVY_ATOM_COUNT>
30

> <PUBCHEM_ATOM_DEF_STEREO_COUNT>
3

> <PUBCHEM_ATOM_UDEF_STEREO_COUNT>
0

> <PUBCHEM_BOND_DEF_STEREO_COUNT>
0

> <PUBCHEM_BOND_UDEF_STEREO_COUNT>
0

> <PUBCHEM_ISOTOPIC_ATOM_COUNT>
0

> <PUBCHEM_COMPONENT_COUNT>
1

> <PUBCHEM_CACTVS_TAUTO_COUNT>
1

> <PUBCHEM_CONFORMER_ID>
0480994900000002

> <PUBCHEM_MMFF94_ENERGY>
50.3091

> <PUBCHEM_FEATURE_SELFOVERLAP>
66.01

> <PUBCHEM_SHAPE_FINGERPRINT>
10439779 11 18195234749322125730
12788726 201 18121504540052633270
12925494 130 18338234972963138707
12978246 48 17976540833784121803
13122387 1 18337953389715491912
14466204 15 18194398029605604912
150020 26 18261683670222686697
15082195 135 18269815641321950215
15320467 1 18410855486119959969
15351339 4 18337673014218981560
15475509 84 17828190005207651434
16760501 71 18409737270584739483
16992727 255 17899713529264225732
17627616 140 18410297978196018953
19930381 70 18337669827680314931
20567600 299 18341889752985855386
20764821 26 18336252539801005660
21860390 5 18343021077516014982
23559900 14 18271529680295265766
325973 47 18194962933605725841
3298306 158 18338797952290403303
437795 70 17265265267185783567
5081480 168 17698485162512085670
5265222 85 17900556866829094884
6371009 1 17834658766714721838
6433294 58 18338513045503330916

> <PUBCHEM_SHAPE_MULTIPOLES>
579.91
10.78
7.25
1.23
11.91
0.15
-0.04
1.99
0.27
-5.02
-1.08
-0.51
0.15
-0.12

> <PUBCHEM_SHAPE_SELFOVERLAP>
1193.627

> <PUBCHEM_SHAPE_VOLUME>
335.2

> <PUBCHEM_COORDINATE_TYPE>
2
5
10

$$$$
