11941380
  -OEChem-12032416153D

 58 62  0     1  0  0  0  0  0999 V2000
   -2.5092   -3.8249    1.2681 O   0  0  0  0  0  0  0  0  0  0  0  0
    0.3182   -1.5523   -2.5529 O   0  0  0  0  0  0  0  0  0  0  0  0
   -6.1341   -0.4574    0.5565 O   0  0  0  0  0  0  0  0  0  0  0  0
    3.2918    1.8942    1.3640 O   0  0  0  0  0  0  0  0  0  0  0  0
    7.6150    2.3160   -0.5853 O   0  0  0  0  0  0  0  0  0  0  0  0
   -1.4526   -1.7994   -1.1065 N   0  0  0  0  0  0  0  0  0  0  0  0
   -3.9289   -0.1634   -0.0972 N   0  0  0  0  0  0  0  0  0  0  0  0
   -0.3380   -3.1371    1.2650 N   0  0  0  0  0  0  0  0  0  0  0  0
   -4.3923    2.4453   -0.3204 N   0  0  0  0  0  0  0  0  0  0  0  0
   -6.8952    3.5778    0.2449 N   0  0  0  0  0  0  0  0  0  0  0  0
   -2.0442   -1.7062    0.2153 C   0  0  1  0  0  0  0  0  0  0  0  0
   -3.5502   -1.5569   -0.0412 C   0  0  2  0  0  0  0  0  0  0  0  0
   -3.7504   -2.2396   -1.3958 C   0  0  0  0  0  0  0  0  0  0  0  0
   -2.4664   -1.9183   -2.1444 C   0  0  0  0  0  0  0  0  0  0  0  0
   -1.6666   -2.9944    0.9231 C   0  0  0  0  0  0  0  0  0  0  0  0
   -0.1178   -1.6277   -1.4043 C   0  0  0  0  0  0  0  0  0  0  0  0
    0.8471   -1.5544   -0.2764 C   0  0  0  0  0  0  0  0  0  0  0  0
    0.7578   -2.3279    0.8934 C   0  0  0  0  0  0  0  0  0  0  0  0
   -5.2080    0.2718    0.2114 C   0  0  0  0  0  0  0  0  0  0  0  0
    1.9962   -0.7752   -0.5039 C   0  0  0  0  0  0  0  0  0  0  0  0
    1.8528   -2.3524    1.7750 C   0  0  0  0  0  0  0  0  0  0  0  0
    3.0524   -0.7756    0.4059 C   0  0  0  0  0  0  0  0  0  0  0  0
    2.9863   -1.5746    1.5399 C   0  0  0  0  0  0  0  0  0  0  0  0
   -5.4447    1.7324    0.0795 C   0  0  0  0  0  0  0  0  0  0  0  0
    4.2244    0.0356    0.1578 C   0  0  0  0  0  0  0  0  0  0  0  0
    4.3091    1.3419    0.6430 C   0  0  0  0  0  0  0  0  0  0  0  0
   -6.6684    2.2542    0.3604 C   0  0  0  0  0  0  0  0  0  0  0  0
    5.2822   -0.5023   -0.5776 C   0  0  0  0  0  0  0  0  0  0  0  0
    5.4479    2.1078    0.3934 C   0  0  0  0  0  0  0  0  0  0  0  0
    6.4208    0.2636   -0.8271 C   0  0  0  0  0  0  0  0  0  0  0  0
    6.5037    1.5687   -0.3416 C   0  0  0  0  0  0  0  0  0  0  0  0
   -4.6192    3.7688   -0.4359 C   0  0  0  0  0  0  0  0  0  0  0  0
   -5.8484    4.3251   -0.1582 C   0  0  0  0  0  0  0  0  0  0  0  0
    3.4725    3.2341    1.8157 C   0  0  0  0  0  0  0  0  0  0  0  0
    8.6565    1.7025   -1.3434 C   0  0  0  0  0  0  0  0  0  0  0  0
   -1.6314   -0.8555    0.7704 H   0  0  0  0  0  0  0  0  0  0  0  0
   -4.1609   -2.0393    0.7294 H   0  0  0  0  0  0  0  0  0  0  0  0
   -4.6406   -1.9061   -1.9377 H   0  0  0  0  0  0  0  0  0  0  0  0
   -3.8258   -3.3245   -1.2532 H   0  0  0  0  0  0  0  0  0  0  0  0
   -2.1858   -2.6884   -2.8691 H   0  0  0  0  0  0  0  0  0  0  0  0
   -2.5315   -0.9553   -2.6632 H   0  0  0  0  0  0  0  0  0  0  0  0
   -3.2430    0.5118   -0.4238 H   0  0  0  0  0  0  0  0  0  0  0  0
   -0.1377   -3.8740    1.9371 H   0  0  0  0  0  0  0  0  0  0  0  0
    2.0747   -0.1715   -1.4073 H   0  0  0  0  0  0  0  0  0  0  0  0
    1.8215   -2.9627    2.6758 H   0  0  0  0  0  0  0  0  0  0  0  0
    3.8049   -1.6035    2.2551 H   0  0  0  0  0  0  0  0  0  0  0  0
   -7.5179    1.6670    0.6853 H   0  0  0  0  0  0  0  0  0  0  0  0
    5.2343   -1.5182   -0.9637 H   0  0  0  0  0  0  0  0  0  0  0  0
    5.5805    3.1274    0.7393 H   0  0  0  0  0  0  0  0  0  0  0  0
    7.2032   -0.2168   -1.4045 H   0  0  0  0  0  0  0  0  0  0  0  0
   -3.7785    4.3700   -0.7597 H   0  0  0  0  0  0  0  0  0  0  0  0
   -6.0298    5.3887   -0.2512 H   0  0  0  0  0  0  0  0  0  0  0  0
    3.5554    3.9363    0.9789 H   0  0  0  0  0  0  0  0  0  0  0  0
    4.3095    3.3160    2.5175 H   0  0  0  0  0  0  0  0  0  0  0  0
    2.5690    3.5101    2.3697 H   0  0  0  0  0  0  0  0  0  0  0  0
    9.4613    2.4384   -1.4414 H   0  0  0  0  0  0  0  0  0  0  0  0
    8.3242    1.4554   -2.3574 H   0  0  0  0  0  0  0  0  0  0  0  0
    9.0773    0.8362   -0.8217 H   0  0  0  0  0  0  0  0  0  0  0  0
  1 15  2  0  0  0  0
  2 16  2  0  0  0  0
  3 19  2  0  0  0  0
  4 26  1  0  0  0  0
  4 34  1  0  0  0  0
  5 31  1  0  0  0  0
  5 35  1  0  0  0  0
  6 11  1  0  0  0  0
  6 14  1  0  0  0  0
  6 16  1  0  0  0  0
  7 12  1  0  0  0  0
  7 19  1  0  0  0  0
  7 42  1  0  0  0  0
  8 15  1  0  0  0  0
  8 18  1  0  0  0  0
  8 43  1  0  0  0  0
  9 24  2  0  0  0  0
  9 32  1  0  0  0  0
 10 27  2  0  0  0  0
 10 33  1  0  0  0  0
 11 12  1  0  0  0  0
 11 15  1  0  0  0  0
 11 36  1  0  0  0  0
 12 13  1  0  0  0  0
 12 37  1  0  0  0  0
 13 14  1  0  0  0  0
 13 38  1  0  0  0  0
 13 39  1  0  0  0  0
 14 40  1  0  0  0  0
 14 41  1  0  0  0  0
 16 17  1  0  0  0  0
 17 18  2  0  0  0  0
 17 20  1  0  0  0  0
 18 21  1  0  0  0  0
 19 24  1  0  0  0  0
 20 22  2  0  0  0  0
 20 44  1  0  0  0  0
 21 23  2  0  0  0  0
 21 45  1  0  0  0  0
 22 23  1  0  0  0  0
 22 25  1  0  0  0  0
 23 46  1  0  0  0  0
 24 27  1  0  0  0  0
 25 26  2  0  0  0  0
 25 28  1  0  0  0  0
 26 29  1  0  0  0  0
 27 47  1  0  0  0  0
 28 30  2  0  0  0  0
 28 48  1  0  0  0  0
 29 31  2  0  0  0  0
 29 49  1  0  0  0  0
 30 31  1  0  0  0  0
 30 50  1  0  0  0  0
 32 33  2  0  0  0  0
 32 51  1  0  0  0  0
 33 52  1  0  0  0  0
 34 53  1  0  0  0  0
 34 54  1  0  0  0  0
 34 55  1  0  0  0  0
 35 56  1  0  0  0  0
 35 57  1  0  0  0  0
 35 58  1  0  0  0  0
M  END
> <PUBCHEM_COMPOUND_CID>
11941380

> <PUBCHEM_CONFORMER_RMSD>
1

> <PUBCHEM_CONFORMER_DIVERSEORDER>
1
13
11
4
12
20
18
3
9
14
7
16
15
17
8
2
5
10
19
6

> <PUBCHEM_MMFF94_PARTIAL_CHARGES>
43
1 -0.57
10 -0.62
11 0.36
12 0.3
14 0.3
15 0.57
16 0.54
17 0.09
18 0.12
19 0.54
2 -0.57
20 -0.15
21 -0.15
23 -0.15
24 0.4
26 0.08
27 0.16
28 -0.15
29 -0.15
3 -0.57
30 -0.15
31 0.08
32 0.16
33 0.16
34 0.28
35 0.28
4 -0.36
42 0.37
43 0.37
44 0.15
45 0.15
46 0.15
47 0.15
48 0.15
49 0.15
5 -0.36
50 0.15
51 0.15
52 0.15
6 -0.66
7 -0.73
8 -0.55
9 -0.62

> <PUBCHEM_EFFECTIVE_ROTOR_COUNT>
6.8

> <PUBCHEM_PHARMACOPHORE_FEATURES>
14
1 1 acceptor
1 10 acceptor
1 2 acceptor
1 3 acceptor
1 4 acceptor
1 5 acceptor
1 7 donor
1 8 donor
1 9 acceptor
5 6 11 12 13 14 rings
6 17 18 20 21 22 23 rings
6 25 26 28 29 30 31 rings
6 9 10 24 27 32 33 rings
7 6 8 11 15 16 17 18 rings

> <PUBCHEM_HEAVY_ATOM_COUNT>
35

> <PUBCHEM_ATOM_DEF_STEREO_COUNT>
2

> <PUBCHEM_ATOM_UDEF_STEREO_COUNT>
0

> <PUBCHEM_BOND_DEF_STEREO_COUNT>
0

> <PUBCHEM_BOND_UDEF_STEREO_COUNT>
0

> <PUBCHEM_ISOTOPIC_ATOM_COUNT>
0

> <PUBCHEM_COMPONENT_COUNT>
1

> <PUBCHEM_CACTVS_TAUTO_COUNT>
6

> <PUBCHEM_CONFORMER_ID>
00B6360400000001

> <PUBCHEM_MMFF94_ENERGY>
139.8297

> <PUBCHEM_FEATURE_SELFOVERLAP>
71.115

> <PUBCHEM_SHAPE_FINGERPRINT>
10939801 23 18334298621908712261
12013929 29 18335426824577538908
13944108 23 18124313805162262408
14705955 166 17677347141651200427
14739800 52 18263921034936055291
14951699 99 18334296431469532029
15064981 113 17131274545740115132
15183329 4 17203058464841924918
15198563 99 17984127439085568335
15238133 3 18341035351342872994
16992727 255 18410016542206674040
19053607 189 17984410850897103225
19304152 47 18187090529647008577
19438510 23 18409167688568537507
20691028 202 18334575724523949357
20775438 99 11237698758316859765
21223535 225 18271796969653769692
21424621 283 18334580148519469250
21756936 100 18337109063491116623
21796203 349 15357992174051407398
23516275 100 17549237673386356505
23522609 53 17386581292440210604
23559900 14 14332843880949149706
23569914 152 17555470435773543902
23569914 2 17270556387969715912
25025965 108 12390417910521125372
2838139 119 18272926129113437335
32027 91 9006757780265852163
3388396 114 17263266836336128837
354706 132 18334017219977490212
437795 171 17681829610135601869
44802255 64 17775010132291198486
508180 173 18059013999173674088
5104073 3 17531237392428510922
57527295 17 18339915035310466706
5874358 3 14332577627594188108
636775 72 18338234994148564976
6376802 137 17390239457478114083
6703917 75 17896049900474643970
7288768 16 17894632543849679563
7970288 3 9511159860309849297
9896288 288 18115878570966344162

> <PUBCHEM_SHAPE_MULTIPOLES>
666.03
20.13
5.2
1.62
10.39
2.94
-0.3
25.73
-3.44
-7.2
1.1
0.88
-0.94
-0.59

> <PUBCHEM_SHAPE_SELFOVERLAP>
1474.451

> <PUBCHEM_SHAPE_VOLUME>
353.3

> <PUBCHEM_COORDINATE_TYPE>
2
5
10

$$$$
