56775278
  -OEChem-12032416273D

 49 52  0     1  0  0  0  0  0999 V2000
    7.4986   -1.8464    1.3675 F   0  0  0  0  0  0  0  0  0  0  0  0
    0.8011    2.9800   -0.5963 O   0  0  0  0  0  0  0  0  0  0  0  0
    2.9608    1.2274   -2.8151 O   0  0  0  0  0  0  0  0  0  0  0  0
   -3.0305    1.8587    1.9852 O   0  0  0  0  0  0  0  0  0  0  0  0
   -4.4165   -0.1030    1.1280 O   0  0  0  0  0  0  0  0  0  0  0  0
   -1.0644    1.2221    0.9521 N   0  0  0  0  0  0  0  0  0  0  0  0
    2.0459    0.5030   -0.8021 N   0  0  0  0  0  0  0  0  0  0  0  0
    1.1759    0.7912    0.3313 C   0  0  1  0  0  0  0  0  0  0  0  0
    1.0174    2.2808    0.6268 C   0  0  2  0  0  0  0  0  0  0  0  0
   -0.2689    0.3364    0.1073 C   0  0  0  0  0  0  0  0  0  0  0  0
   -0.2645    2.3369    1.4481 C   0  0  0  0  0  0  0  0  0  0  0  0
    2.3432    1.4551   -1.7735 C   0  0  0  0  0  0  0  0  0  0  0  0
    1.9279    2.8765   -1.4365 C   0  0  0  0  0  0  0  0  0  0  0  0
    2.4701   -0.8795   -0.9736 C   0  0  0  0  0  0  0  0  0  0  0  0
   -2.4043    1.0799    1.2646 C   0  0  0  0  0  0  0  0  0  0  0  0
    3.8109   -1.1376   -0.3492 C   0  0  0  0  0  0  0  0  0  0  0  0
   -3.0879   -0.1229    0.6653 C   0  0  0  0  0  0  0  0  0  0  0  0
    3.8934   -1.5522    0.9801 C   0  0  0  0  0  0  0  0  0  0  0  0
    4.9742   -0.9623   -1.0987 C   0  0  0  0  0  0  0  0  0  0  0  0
    5.1392   -1.7919    1.5598 C   0  0  0  0  0  0  0  0  0  0  0  0
    6.2200   -1.2020   -0.5191 C   0  0  0  0  0  0  0  0  0  0  0  0
    6.3025   -1.6168    0.8102 C   0  0  0  0  0  0  0  0  0  0  0  0
   -5.3724   -0.6924    0.3307 C   0  0  0  0  0  0  0  0  0  0  0  0
   -5.0299   -1.7654   -0.4919 C   0  0  0  0  0  0  0  0  0  0  0  0
   -6.6832   -0.2157    0.3456 C   0  0  0  0  0  0  0  0  0  0  0  0
   -5.9981   -2.3621   -1.2996 C   0  0  0  0  0  0  0  0  0  0  0  0
   -7.6515   -0.8124   -0.4619 C   0  0  0  0  0  0  0  0  0  0  0  0
   -7.3088   -1.8855   -1.2847 C   0  0  0  0  0  0  0  0  0  0  0  0
    1.5792    0.3004    1.2256 H   0  0  0  0  0  0  0  0  0  0  0  0
    1.8678    2.7222    1.1579 H   0  0  0  0  0  0  0  0  0  0  0  0
   -0.4214   -0.7098    0.3873 H   0  0  0  0  0  0  0  0  0  0  0  0
   -0.5974    0.4724   -0.9295 H   0  0  0  0  0  0  0  0  0  0  0  0
   -0.0716    2.1483    2.5097 H   0  0  0  0  0  0  0  0  0  0  0  0
   -0.8206    3.2729    1.3373 H   0  0  0  0  0  0  0  0  0  0  0  0
    2.7819    3.3914   -0.9813 H   0  0  0  0  0  0  0  0  0  0  0  0
    1.6866    3.3895   -2.3732 H   0  0  0  0  0  0  0  0  0  0  0  0
    2.5188   -1.1109   -2.0452 H   0  0  0  0  0  0  0  0  0  0  0  0
    1.7127   -1.5547   -0.5580 H   0  0  0  0  0  0  0  0  0  0  0  0
   -2.5934   -1.0351    1.0134 H   0  0  0  0  0  0  0  0  0  0  0  0
   -3.0248   -0.0286   -0.4257 H   0  0  0  0  0  0  0  0  0  0  0  0
    2.9955   -1.6971    1.5745 H   0  0  0  0  0  0  0  0  0  0  0  0
    4.9265   -0.6432   -2.1361 H   0  0  0  0  0  0  0  0  0  0  0  0
    5.2039   -2.1157    2.5944 H   0  0  0  0  0  0  0  0  0  0  0  0
    7.1260   -1.0664   -1.1024 H   0  0  0  0  0  0  0  0  0  0  0  0
   -4.0261   -2.1793   -0.5140 H   0  0  0  0  0  0  0  0  0  0  0  0
   -6.9555    0.6201    0.9843 H   0  0  0  0  0  0  0  0  0  0  0  0
   -5.7330   -3.2011   -1.9364 H   0  0  0  0  0  0  0  0  0  0  0  0
   -8.6723   -0.4415   -0.4501 H   0  0  0  0  0  0  0  0  0  0  0  0
   -8.0631   -2.3508   -1.9126 H   0  0  0  0  0  0  0  0  0  0  0  0
  1 22  1  0  0  0  0
  2  9  1  0  0  0  0
  2 13  1  0  0  0  0
  3 12  2  0  0  0  0
  4 15  2  0  0  0  0
  5 17  1  0  0  0  0
  5 23  1  0  0  0  0
  6 10  1  0  0  0  0
  6 11  1  0  0  0  0
  6 15  1  0  0  0  0
  7  8  1  0  0  0  0
  7 12  1  0  0  0  0
  7 14  1  0  0  0  0
  8  9  1  0  0  0  0
  8 10  1  0  0  0  0
  8 29  1  0  0  0  0
  9 11  1  0  0  0  0
  9 30  1  0  0  0  0
 10 31  1  0  0  0  0
 10 32  1  0  0  0  0
 11 33  1  0  0  0  0
 11 34  1  0  0  0  0
 12 13  1  0  0  0  0
 13 35  1  0  0  0  0
 13 36  1  0  0  0  0
 14 16  1  0  0  0  0
 14 37  1  0  0  0  0
 14 38  1  0  0  0  0
 15 17  1  0  0  0  0
 16 18  2  0  0  0  0
 16 19  1  0  0  0  0
 17 39  1  0  0  0  0
 17 40  1  0  0  0  0
 18 20  1  0  0  0  0
 18 41  1  0  0  0  0
 19 21  2  0  0  0  0
 19 42  1  0  0  0  0
 20 22  2  0  0  0  0
 20 43  1  0  0  0  0
 21 22  1  0  0  0  0
 21 44  1  0  0  0  0
 23 24  2  0  0  0  0
 23 25  1  0  0  0  0
 24 26  1  0  0  0  0
 24 45  1  0  0  0  0
 25 27  2  0  0  0  0
 25 46  1  0  0  0  0
 26 28  2  0  0  0  0
 26 47  1  0  0  0  0
 27 28  1  0  0  0  0
 27 48  1  0  0  0  0
 28 49  1  0  0  0  0
M  END
> <PUBCHEM_COMPOUND_CID>
56775278

> <PUBCHEM_CONFORMER_RMSD>
1

> <PUBCHEM_CONFORMER_DIVERSEORDER>
1
24
162
22
97
107
70
129
81
52
74
123
61
60
65
2
42
33
16
116
36
75
56
149
160
143
14
135
99
85
152
147
59
77
6
88
142
134
165
89
141
161
48
126
101
133
96
150
158
153
64
163
105
156
169
45
128
132
39
114
102
115
118
13
5
69
139
49
55
18
25
62
98
146
148
138
83
8
79
136
73
68
122
124
34
106
86
109
159
103
54
47
92
44
26
84
127
113
23
30
66
78
131
119
67
46
37
12
144
151
167
15
51
10
11
90
32
31
19
100
94
28
50
41
71
58
53
35
164
87
166
4
108
95
76
125
111
155
80
72
145
137
57
29
168
110
82
157
3
91
63
20
112
40
121
140
17
9
120
43
38
7
104
130
154
21
117
27
93

> <PUBCHEM_MMFF94_PARTIAL_CHARGES>
37
1 -0.19
10 0.3
11 0.3
12 0.57
13 0.34
14 0.44
15 0.57
16 -0.14
17 0.34
18 -0.15
19 -0.15
2 -0.56
20 -0.15
21 -0.15
22 0.19
23 0.08
24 -0.15
25 -0.15
26 -0.15
27 -0.15
28 -0.15
3 -0.57
4 -0.57
41 0.15
42 0.15
43 0.15
44 0.15
45 0.15
46 0.15
47 0.15
48 0.15
49 0.15
5 -0.36
6 -0.66
7 -0.66
8 0.3
9 0.28

> <PUBCHEM_EFFECTIVE_ROTOR_COUNT>
7.2

> <PUBCHEM_PHARMACOPHORE_FEATURES>
8
1 2 acceptor
1 3 acceptor
1 4 acceptor
1 5 acceptor
5 6 8 9 10 11 rings
6 16 18 19 20 21 22 rings
6 2 7 8 9 12 13 rings
6 23 24 25 26 27 28 rings

> <PUBCHEM_HEAVY_ATOM_COUNT>
28

> <PUBCHEM_ATOM_DEF_STEREO_COUNT>
2

> <PUBCHEM_ATOM_UDEF_STEREO_COUNT>
0

> <PUBCHEM_BOND_DEF_STEREO_COUNT>
0

> <PUBCHEM_BOND_UDEF_STEREO_COUNT>
0

> <PUBCHEM_ISOTOPIC_ATOM_COUNT>
0

> <PUBCHEM_COMPONENT_COUNT>
1

> <PUBCHEM_CACTVS_TAUTO_COUNT>
2

> <PUBCHEM_CONFORMER_ID>
0362526E00000001

> <PUBCHEM_MMFF94_ENERGY>
80.188

> <PUBCHEM_FEATURE_SELFOVERLAP>
40.814

> <PUBCHEM_SHAPE_FINGERPRINT>
10 15 14333406753049165059
10190206 1 13840541809565525510
10483366 6 12180117632673764528
10622 236 18116709617104419251
11135609 99 18059850697030371926
11443803 9 17915472795313398516
11497681 19 18267022761755180566
11720765 8 17603587456395747460
12166972 35 18335136505296989269
12623949 98 17487913215679458582
13540713 5 18128277695242360985
13885169 86 10735577120897118570
14068700 675 18411979148206351969
14251751 18 17988925574520703899
14347332 77 18411139126361567941
1454969 45 18341900701585376342
14951699 99 9223234061832537693
15183329 4 15647050430586897099
15188451 53 18272086076175273474
15350500 16 17822281359059151690
15357212 105 13325130474807652746
15728490 51 17917706937861660694
16993427 108 18042669638515029906
17857418 61 18272938241295680195
18222031 100 18409455760894537394
19377110 9 10735873963920441473
20028762 73 18131353007373565526
21033648 29 13254536249315228763
21315763 87 15051741897848304407
21424621 283 8285904762697826270
21458453 9 14045157706775175863
23559900 14 17749957781543058953
23622692 118 18342178860510101129
3004659 81 18412545440134744751
312425 54 15841011978957194699
3383291 50 17988644142879977279
397830 11 16773794779592133698
3986486 107 15140955123889948295
4149490 64 18188775092897621035
4339292 15 17895470299497798242
4394409 98 18410005521178330407
439807 62 18338240496386792947
4408954 87 16415188005500006630
444735 79 17704067379035802830
474113 269 14707474843437263810
50009960 94 17273394279568979311
508180 173 12757161176893611911
5104073 3 17417258770598582603
513532 50 15792011242062937804
5219985 9 18335699425544355088
57035037 87 13262691365882532454
5758199 1 9727630613731521447
59682541 35 17203316824252109538
59682541 52 17240199941104046639
6438161 24 18201715185437198807
7808743 9 11530767033155111241
960060 61 18337396062613005805
96874 4 18411693275299609691

> <PUBCHEM_SHAPE_MULTIPOLES>
535.51
20.07
2.99
1.84
18.14
1.47
0.5
-19.98
0.47
-1.03
0.19
-1.31
0.57
-3.83

> <PUBCHEM_SHAPE_SELFOVERLAP>
1157.857

> <PUBCHEM_SHAPE_VOLUME>
294

> <PUBCHEM_COORDINATE_TYPE>
2
5
10

$$$$
