45783569
  -OEChem-12032416273D

 49 52  0     1  0  0  0  0  0999 V2000
   -2.1502    0.2198   -2.0212 O   0  0  0  0  0  0  0  0  0  0  0  0
    4.9747   -0.0093    0.5683 O   0  0  0  0  0  0  0  0  0  0  0  0
    7.6757    0.6924    0.3528 O   0  0  0  0  0  0  0  0  0  0  0  0
   -4.3219    0.6821    0.7026 N   0  0  1  0  0  0  0  0  0  0  0  0
   -1.2955    0.9702   -0.0916 N   0  0  0  0  0  0  0  0  0  0  0  0
   -2.9620   -1.9072    1.4842 N   0  0  0  0  0  0  0  0  0  0  0  0
   -3.6167   -2.5460   -0.5394 N   0  0  0  0  0  0  0  0  0  0  0  0
   -0.7828   -0.0809   -2.0579 N   0  0  0  0  0  0  0  0  0  0  0  0
    3.2837   -0.4009   -0.9716 N   0  0  0  0  0  0  0  0  0  0  0  0
   -3.7911    1.2685   -0.5442 C   0  0  1  0  0  0  0  0  0  0  0  0
   -3.9231    2.7902   -0.3480 C   0  0  0  0  0  0  0  0  0  0  0  0
   -4.5928    2.9596    1.0083 C   0  0  0  0  0  0  0  0  0  0  0  0
   -5.2997    1.6369    1.2249 C   0  0  0  0  0  0  0  0  0  0  0  0
   -4.8966   -0.6438    0.5146 C   0  0  0  0  0  0  0  0  0  0  0  0
   -2.3680    0.8373   -0.8306 C   0  0  0  0  0  0  0  0  0  0  0  0
   -3.8362   -1.7107    0.4515 C   0  0  0  0  0  0  0  0  0  0  0  0
   -0.3485    0.3923   -0.8859 C   0  0  0  0  0  0  0  0  0  0  0  0
   -2.1324   -2.9333    1.1291 C   0  0  0  0  0  0  0  0  0  0  0  0
   -2.5559   -3.3110   -0.1235 C   0  0  0  0  0  0  0  0  0  0  0  0
    1.0243    0.3049   -0.4795 C   0  0  0  0  0  0  0  0  0  0  0  0
    1.4414    0.8096    0.7473 C   0  0  0  0  0  0  0  0  0  0  0  0
    1.9760   -0.2857   -1.2952 C   0  0  0  0  0  0  0  0  0  0  0  0
    2.7785    0.7098    1.1154 C   0  0  0  0  0  0  0  0  0  0  0  0
    3.6518    0.1012    0.2284 C   0  0  0  0  0  0  0  0  0  0  0  0
    5.8277   -0.6424   -0.3781 C   0  0  0  0  0  0  0  0  0  0  0  0
    7.2454   -0.6497    0.1605 C   0  0  0  0  0  0  0  0  0  0  0  0
    8.9942    0.7460    0.8790 C   0  0  0  0  0  0  0  0  0  0  0  0
   -4.4211    0.9946   -1.4022 H   0  0  0  0  0  0  0  0  0  0  0  0
   -2.9697    3.3283   -0.3813 H   0  0  0  0  0  0  0  0  0  0  0  0
   -4.5701    3.2071   -1.1296 H   0  0  0  0  0  0  0  0  0  0  0  0
   -5.2798    3.8108    1.0272 H   0  0  0  0  0  0  0  0  0  0  0  0
   -3.8317    3.1180    1.7824 H   0  0  0  0  0  0  0  0  0  0  0  0
   -6.2386    1.6097    0.6572 H   0  0  0  0  0  0  0  0  0  0  0  0
   -5.5181    1.4664    2.2836 H   0  0  0  0  0  0  0  0  0  0  0  0
   -5.5391   -0.6950   -0.3733 H   0  0  0  0  0  0  0  0  0  0  0  0
   -5.5361   -0.8962    1.3717 H   0  0  0  0  0  0  0  0  0  0  0  0
   -2.9320   -1.3875    2.3513 H   0  0  0  0  0  0  0  0  0  0  0  0
   -1.3437   -3.2861    1.7775 H   0  0  0  0  0  0  0  0  0  0  0  0
   -2.1500   -4.0938   -0.7473 H   0  0  0  0  0  0  0  0  0  0  0  0
    0.7474    1.2848    1.4357 H   0  0  0  0  0  0  0  0  0  0  0  0
    1.7327   -0.7042   -2.2673 H   0  0  0  0  0  0  0  0  0  0  0  0
    3.1201    1.0983    2.0686 H   0  0  0  0  0  0  0  0  0  0  0  0
    5.8070   -0.0801   -1.3200 H   0  0  0  0  0  0  0  0  0  0  0  0
    5.5018   -1.6747   -0.5520 H   0  0  0  0  0  0  0  0  0  0  0  0
    7.2725   -1.1725    1.1236 H   0  0  0  0  0  0  0  0  0  0  0  0
    7.9119   -1.1558   -0.5464 H   0  0  0  0  0  0  0  0  0  0  0  0
    9.7020    0.2749    0.1900 H   0  0  0  0  0  0  0  0  0  0  0  0
    9.2735    1.7959    1.0017 H   0  0  0  0  0  0  0  0  0  0  0  0
    9.0375    0.2570    1.8570 H   0  0  0  0  0  0  0  0  0  0  0  0
  1  8  1  0  0  0  0
  1 15  1  0  0  0  0
  2 24  1  0  0  0  0
  2 25  1  0  0  0  0
  3 26  1  0  0  0  0
  3 27  1  0  0  0  0
  4 10  1  0  0  0  0
  4 13  1  0  0  0  0
  4 14  1  0  0  0  0
  5 15  2  0  0  0  0
  5 17  1  0  0  0  0
  6 16  1  0  0  0  0
  6 18  1  0  0  0  0
  6 37  1  0  0  0  0
  7 16  2  0  0  0  0
  7 19  1  0  0  0  0
  8 17  2  0  0  0  0
  9 22  1  0  0  0  0
  9 24  2  0  0  0  0
 10 11  1  0  0  0  0
 10 15  1  0  0  0  0
 10 28  1  0  0  0  0
 11 12  1  0  0  0  0
 11 29  1  0  0  0  0
 11 30  1  0  0  0  0
 12 13  1  0  0  0  0
 12 31  1  0  0  0  0
 12 32  1  0  0  0  0
 13 33  1  0  0  0  0
 13 34  1  0  0  0  0
 14 16  1  0  0  0  0
 14 35  1  0  0  0  0
 14 36  1  0  0  0  0
 17 20  1  0  0  0  0
 18 19  2  0  0  0  0
 18 38  1  0  0  0  0
 19 39  1  0  0  0  0
 20 21  1  0  0  0  0
 20 22  2  0  0  0  0
 21 23  2  0  0  0  0
 21 40  1  0  0  0  0
 22 41  1  0  0  0  0
 23 24  1  0  0  0  0
 23 42  1  0  0  0  0
 25 26  1  0  0  0  0
 25 43  1  0  0  0  0
 25 44  1  0  0  0  0
 26 45  1  0  0  0  0
 26 46  1  0  0  0  0
 27 47  1  0  0  0  0
 27 48  1  0  0  0  0
 27 49  1  0  0  0  0
M  END
> <PUBCHEM_COMPOUND_CID>
45783569

> <PUBCHEM_CONFORMER_RMSD>
1

> <PUBCHEM_CONFORMER_DIVERSEORDER>
1
55
59
19
4
29
54
43
22
42
52
33
13
14
62
12
28
11
30
8
35
48
10
34
63
31
47
38
25
45
27
37
9
56
57
49
58
61
6
2
20
32
21
60
44
15
50
3
17
18
39
24
51
41
23
7
40
16
26
5
53
36
46

> <PUBCHEM_MMFF94_PARTIAL_CHARGES>
31
1 -0.02
10 0.45
13 0.27
14 0.45
15 0.3
16 0.01
17 0.46
18 -0.3
19 0.08
2 -0.36
20 0.05
21 -0.15
22 0.16
23 -0.15
24 0.39
25 0.28
26 0.28
27 0.28
3 -0.56
37 0.27
38 0.15
39 0.15
4 -0.81
40 0.15
41 0.15
42 0.15
5 -0.57
6 0.03
7 -0.57
8 -0.41
9 -0.62

> <PUBCHEM_EFFECTIVE_ROTOR_COUNT>
9

> <PUBCHEM_PHARMACOPHORE_FEATURES>
9
1 3 acceptor
1 4 cation
1 6 donor
3 5 8 17 cation
3 6 7 16 cation
5 1 5 8 15 17 rings
5 4 10 11 12 13 rings
5 6 7 16 18 19 rings
6 9 20 21 22 23 24 rings

> <PUBCHEM_HEAVY_ATOM_COUNT>
27

> <PUBCHEM_ATOM_DEF_STEREO_COUNT>
1

> <PUBCHEM_ATOM_UDEF_STEREO_COUNT>
0

> <PUBCHEM_BOND_DEF_STEREO_COUNT>
0

> <PUBCHEM_BOND_UDEF_STEREO_COUNT>
0

> <PUBCHEM_ISOTOPIC_ATOM_COUNT>
0

> <PUBCHEM_COMPONENT_COUNT>
1

> <PUBCHEM_CACTVS_TAUTO_COUNT>
1

> <PUBCHEM_CONFORMER_ID>
02BA9A1100000001

> <PUBCHEM_MMFF94_ENERGY>
47.0636

> <PUBCHEM_FEATURE_SELFOVERLAP>
45.675

> <PUBCHEM_SHAPE_FINGERPRINT>
10319926 262 18341882013897744392
11089746 13 12751229303725913410
11135926 11 15430028847583126808
11315181 36 18408038537170991637
11552529 35 18338513174589557679
12166972 35 14476378457795979769
12293681 4 18201163165257869497
12616971 3 16805332093550764342
12633257 1 18271542978351894425
13004483 165 17983575501559824207
13583140 156 17775567558963810943
14844126 61 18336551624629569979
14856354 85 18335426780819847982
15021287 119 17022908951754943660
15183329 4 16732701654234755610
15348495 7 18343016722956746480
15537594 2 17240481386284875466
17093844 174 18413384337183458544
17780758 139 18334575758930666595
17844677 252 18341615966449237736
20554085 129 18124577718835468417
21033648 29 17632030658175021629
21236236 1 18333731342648894346
21756936 100 18342171137995171093
220451 1 17967532342762362138
23516275 137 17972618597216071466
23522609 53 17750823024475535580
23559900 14 18263638631381485536
397830 11 18270391832738088192
4073 2 18411702080688986882
4169191 19 14836114516725903144
484985 159 18114736131736172479
4938544 92 18342176669617363305
5104073 3 18338506530702393272
5364581 5 18268708497178501984
58260988 114 16154289320204634667
59755656 520 18336264539776106763
602551 16 18335144206226124367
68570916 9 18187648059583602924
7226269 152 18201719496650811337
9953998 17 18333448755507528784

> <PUBCHEM_SHAPE_MULTIPOLES>
508.15
18.15
2.88
1.41
46.78
1.44
0.34
-4.69
-6.07
-6.51
-0.78
-0.64
-0.01
0.45

> <PUBCHEM_SHAPE_SELFOVERLAP>
1089.066

> <PUBCHEM_SHAPE_VOLUME>
281.7

> <PUBCHEM_COORDINATE_TYPE>
2
5
10

$$$$
