44716364
  -OEChem-12032416163D

 76 80  0     1  0  0  0  0  0999 V2000
    2.0624    2.5057    0.1298 O   0  0  0  0  0  0  0  0  0  0  0  0
    2.8624    0.9981    1.6519 O   0  0  0  0  0  0  0  0  0  0  0  0
   -5.7506   -4.5573    0.2505 O   0  0  0  0  0  0  0  0  0  0  0  0
   -3.2540   -5.7796    0.2361 O   0  0  0  0  0  0  0  0  0  0  0  0
   -0.8571    4.4935    1.2960 N   0  0  2  0  0  0  0  0  0  0  0  0
   -4.4617    1.6546   -0.7093 N   0  0  0  0  0  0  0  0  0  0  0  0
   -4.7281    0.3397   -0.7885 N   0  0  0  0  0  0  0  0  0  0  0  0
    3.8699    1.2910   -0.4407 N   0  0  0  0  0  0  0  0  0  0  0  0
   -1.9028    3.9981   -1.0372 C   0  0  2  0  0  0  0  0  0  0  0  0
   -2.7617    3.3610    0.0900 C   0  0  2  0  0  0  0  0  0  0  0  0
    0.1816    3.9582    0.3768 C   0  0  2  0  0  0  0  0  0  0  0  0
   -0.4574    3.4662   -0.9397 C   0  0  0  0  0  0  0  0  0  0  0  0
   -1.8483    5.5144   -0.7523 C   0  0  0  0  0  0  0  0  0  0  0  0
   -1.9737    3.5238    1.4212 C   0  0  0  0  0  0  0  0  0  0  0  0
   -1.3922    5.7409    0.6997 C   0  0  0  0  0  0  0  0  0  0  0  0
   -3.2702    1.9404   -0.1099 C   0  0  0  0  0  0  0  0  0  0  0  0
    1.0393    2.8748    1.0341 C   0  0  0  0  0  0  0  0  0  0  0  0
   -2.7191    0.7283    0.2268 C   0  0  0  0  0  0  0  0  0  0  0  0
   -3.6600   -0.2210   -0.2151 C   0  0  0  0  0  0  0  0  0  0  0  0
   -5.4162    2.6011   -1.2385 C   0  0  0  0  0  0  0  0  0  0  0  0
   -3.5589   -1.6525   -0.0985 C   0  0  0  0  0  0  0  0  0  0  0  0
    2.9409    1.5328    0.5526 C   0  0  0  0  0  0  0  0  0  0  0  0
   -4.7137   -2.4257    0.0210 C   0  0  0  0  0  0  0  0  0  0  0  0
   -2.3063   -2.2662   -0.1056 C   0  0  0  0  0  0  0  0  0  0  0  0
   -4.6159   -3.8125    0.1334 C   0  0  0  0  0  0  0  0  0  0  0  0
   -2.2084   -3.6530    0.0069 C   0  0  0  0  0  0  0  0  0  0  0  0
    4.9449    0.3735   -0.4224 C   0  0  0  0  0  0  0  0  0  0  0  0
   -3.3633   -4.4262    0.1262 C   0  0  0  0  0  0  0  0  0  0  0  0
    5.7885    0.2652   -1.5281 C   0  0  0  0  0  0  0  0  0  0  0  0
    5.1620   -0.4239    0.7013 C   0  0  0  0  0  0  0  0  0  0  0  0
    7.0663   -1.4377   -0.3860 C   0  0  0  0  0  0  0  0  0  0  0  0
    6.8492   -0.6404   -1.5098 C   0  0  0  0  0  0  0  0  0  0  0  0
    6.2226   -1.3295    0.7194 C   0  0  0  0  0  0  0  0  0  0  0  0
    8.2014   -2.4048   -0.3659 C   0  0  0  0  0  0  0  0  0  0  0  0
   -6.9909   -3.8529    0.2494 C   0  0  0  0  0  0  0  0  0  0  0  0
   -1.9368   -6.3266    0.2203 C   0  0  0  0  0  0  0  0  0  0  0  0
    7.7285   -3.8651   -0.2341 C   0  0  0  0  0  0  0  0  0  0  0  0
    9.2273   -2.0864    0.7381 C   0  0  0  0  0  0  0  0  0  0  0  0
   -2.3246    3.7990   -2.0278 H   0  0  0  0  0  0  0  0  0  0  0  0
   -3.6587    3.9898    0.1951 H   0  0  0  0  0  0  0  0  0  0  0  0
    0.8728    4.7758    0.1236 H   0  0  0  0  0  0  0  0  0  0  0  0
    0.1291    3.8357   -1.7900 H   0  0  0  0  0  0  0  0  0  0  0  0
   -0.4621    2.3722   -1.0065 H   0  0  0  0  0  0  0  0  0  0  0  0
   -1.1532    5.9998   -1.4481 H   0  0  0  0  0  0  0  0  0  0  0  0
   -2.8338    5.9685   -0.9082 H   0  0  0  0  0  0  0  0  0  0  0  0
   -2.6645    3.8832    2.1965 H   0  0  0  0  0  0  0  0  0  0  0  0
   -1.5963    2.5774    1.8189 H   0  0  0  0  0  0  0  0  0  0  0  0
   -0.6291    6.5284    0.7317 H   0  0  0  0  0  0  0  0  0  0  0  0
   -2.2263    6.1156    1.3066 H   0  0  0  0  0  0  0  0  0  0  0  0
    0.4456    1.9883    1.2822 H   0  0  0  0  0  0  0  0  0  0  0  0
    1.4908    3.2659    1.9542 H   0  0  0  0  0  0  0  0  0  0  0  0
   -1.7715    0.5603    0.7184 H   0  0  0  0  0  0  0  0  0  0  0  0
   -5.8829    3.1232   -0.3998 H   0  0  0  0  0  0  0  0  0  0  0  0
   -6.1775    2.0665   -1.8132 H   0  0  0  0  0  0  0  0  0  0  0  0
   -4.8937    3.3022   -1.8935 H   0  0  0  0  0  0  0  0  0  0  0  0
   -5.6673   -1.9088    0.0346 H   0  0  0  0  0  0  0  0  0  0  0  0
   -1.3894   -1.6909   -0.2078 H   0  0  0  0  0  0  0  0  0  0  0  0
    3.7712    1.8392   -1.2917 H   0  0  0  0  0  0  0  0  0  0  0  0
   -1.2035   -4.0606   -0.0082 H   0  0  0  0  0  0  0  0  0  0  0  0
    5.6302    0.8807   -2.4099 H   0  0  0  0  0  0  0  0  0  0  0  0
    4.5512   -0.3954    1.5930 H   0  0  0  0  0  0  0  0  0  0  0  0
    7.4970   -0.7118   -2.3795 H   0  0  0  0  0  0  0  0  0  0  0  0
    6.3742   -1.9411    1.6047 H   0  0  0  0  0  0  0  0  0  0  0  0
    8.7411   -2.3380   -1.3205 H   0  0  0  0  0  0  0  0  0  0  0  0
   -7.0775   -3.1855    1.1136 H   0  0  0  0  0  0  0  0  0  0  0  0
   -7.1607   -3.3339   -0.7002 H   0  0  0  0  0  0  0  0  0  0  0  0
   -7.7849   -4.6007    0.3470 H   0  0  0  0  0  0  0  0  0  0  0  0
   -1.4331   -6.1387   -0.7341 H   0  0  0  0  0  0  0  0  0  0  0  0
   -1.3473   -5.9845    1.0778 H   0  0  0  0  0  0  0  0  0  0  0  0
   -2.0378   -7.4126    0.3175 H   0  0  0  0  0  0  0  0  0  0  0  0
    7.2418   -4.0527    0.7291 H   0  0  0  0  0  0  0  0  0  0  0  0
    8.5773   -4.5523   -0.3182 H   0  0  0  0  0  0  0  0  0  0  0  0
    7.0134   -4.1153   -1.0258 H   0  0  0  0  0  0  0  0  0  0  0  0
   10.0913   -2.7556    0.6636 H   0  0  0  0  0  0  0  0  0  0  0  0
    8.8006   -2.2034    1.7401 H   0  0  0  0  0  0  0  0  0  0  0  0
    9.5906   -1.0568    0.6462 H   0  0  0  0  0  0  0  0  0  0  0  0
  1 17  1  0  0  0  0
  1 22  1  0  0  0  0
  2 22  2  0  0  0  0
  3 25  1  0  0  0  0
  3 35  1  0  0  0  0
  4 28  1  0  0  0  0
  4 36  1  0  0  0  0
  5 11  1  0  0  0  0
  5 14  1  0  0  0  0
  5 15  1  0  0  0  0
  6  7  1  0  0  0  0
  6 16  1  0  0  0  0
  6 20  1  0  0  0  0
  7 19  2  0  0  0  0
  8 22  1  0  0  0  0
  8 27  1  0  0  0  0
  8 58  1  0  0  0  0
  9 10  1  0  0  0  0
  9 12  1  0  0  0  0
  9 13  1  0  0  0  0
  9 39  1  0  0  0  0
 10 14  1  0  0  0  0
 10 16  1  0  0  0  0
 10 40  1  0  0  0  0
 11 12  1  0  0  0  0
 11 17  1  0  0  0  0
 11 41  1  0  0  0  0
 12 42  1  0  0  0  0
 12 43  1  0  0  0  0
 13 15  1  0  0  0  0
 13 44  1  0  0  0  0
 13 45  1  0  0  0  0
 14 46  1  0  0  0  0
 14 47  1  0  0  0  0
 15 48  1  0  0  0  0
 15 49  1  0  0  0  0
 16 18  2  0  0  0  0
 17 50  1  0  0  0  0
 17 51  1  0  0  0  0
 18 19  1  0  0  0  0
 18 52  1  0  0  0  0
 19 21  1  0  0  0  0
 20 53  1  0  0  0  0
 20 54  1  0  0  0  0
 20 55  1  0  0  0  0
 21 23  2  0  0  0  0
 21 24  1  0  0  0  0
 23 25  1  0  0  0  0
 23 56  1  0  0  0  0
 24 26  2  0  0  0  0
 24 57  1  0  0  0  0
 25 28  2  0  0  0  0
 26 28  1  0  0  0  0
 26 59  1  0  0  0  0
 27 29  2  0  0  0  0
 27 30  1  0  0  0  0
 29 32  1  0  0  0  0
 29 60  1  0  0  0  0
 30 33  2  0  0  0  0
 30 61  1  0  0  0  0
 31 32  2  0  0  0  0
 31 33  1  0  0  0  0
 31 34  1  0  0  0  0
 32 62  1  0  0  0  0
 33 63  1  0  0  0  0
 34 37  1  0  0  0  0
 34 38  1  0  0  0  0
 34 64  1  0  0  0  0
 35 65  1  0  0  0  0
 35 66  1  0  0  0  0
 35 67  1  0  0  0  0
 36 68  1  0  0  0  0
 36 69  1  0  0  0  0
 36 70  1  0  0  0  0
 37 71  1  0  0  0  0
 37 72  1  0  0  0  0
 37 73  1  0  0  0  0
 38 74  1  0  0  0  0
 38 75  1  0  0  0  0
 38 76  1  0  0  0  0
M  END
> <PUBCHEM_COMPOUND_CID>
44716364

> <PUBCHEM_CONFORMER_RMSD>
1.2

> <PUBCHEM_CONFORMER_DIVERSEORDER>
3
10
20
36
29
59
91
93
33
99
85
48
55
4
39
31
79
98
43
84
58
70
77
71
21
30
78
52
95
57
87
1
61
82
88
97
14
72
75
24
90
80
7
65
34
51
26
96
100
8
73
23
60
92
54
86
27
94
68
25
83
46
89
35
16
76
63
66
81
53
32
19
56
47
45
50
40
15
67
2
18
5
12
41
37
9
38
62
22
49
11
69
28
44
74
13
42
64
6
17

> <PUBCHEM_MMFF94_PARTIAL_CHARGES>
42
1 -0.43
10 0.18
11 0.27
14 0.27
15 0.27
16 -0.33
17 0.28
18 -0.15
19 0.23
2 -0.57
20 0.26
21 0.05
22 0.78
23 -0.15
24 -0.15
25 0.08
26 -0.15
27 0.12
28 0.08
29 -0.15
3 -0.36
30 -0.15
31 -0.14
32 -0.15
33 -0.15
34 0.14
35 0.28
36 0.28
4 -0.36
5 -0.81
52 0.15
56 0.15
57 0.15
58 0.37
59 0.15
6 0.31
60 0.15
61 0.15
62 0.15
63 0.15
7 -0.71
8 -0.55

> <PUBCHEM_EFFECTIVE_ROTOR_COUNT>
11.2

> <PUBCHEM_PHARMACOPHORE_FEATURES>
11
1 2 acceptor
1 3 acceptor
1 4 acceptor
1 5 cation
1 7 acceptor
1 8 donor
3 34 37 38 hydrophobe
5 6 7 16 18 19 rings
6 21 23 24 25 26 28 rings
6 27 29 30 31 32 33 rings
8 5 9 10 11 12 13 14 15 rings

> <PUBCHEM_HEAVY_ATOM_COUNT>
38

> <PUBCHEM_ATOM_DEF_STEREO_COUNT>
3

> <PUBCHEM_ATOM_UDEF_STEREO_COUNT>
0

> <PUBCHEM_BOND_DEF_STEREO_COUNT>
0

> <PUBCHEM_BOND_UDEF_STEREO_COUNT>
0

> <PUBCHEM_ISOTOPIC_ATOM_COUNT>
0

> <PUBCHEM_COMPONENT_COUNT>
1

> <PUBCHEM_CACTVS_TAUTO_COUNT>
2

> <PUBCHEM_CONFORMER_ID>
02AA514C00000003

> <PUBCHEM_MMFF94_ENERGY>
121.6399

> <PUBCHEM_FEATURE_SELFOVERLAP>
55.826

> <PUBCHEM_SHAPE_FINGERPRINT>
10677394 353 18410867543026499403
11409948 41 17120278657076404007
117089 54 18337957903795217994
11756154 67 18410013260523858611
11801155 225 17903072240739606986
12202916 173 18059286561798034925
12633046 712 18264761241486032693
1361 4 18411141342785894772
13785724 45 18122629611584259969
14856354 85 18198064686379265668
15320294 125 18188779327318643396
15320295 44 18260842509705629484
15400415 2 17690279305808678648
15448158 6 18122062263404804237
15530120 55 17749968763938037580
15538507 19 18410854314501041552
15781502 237 18267300925475889938
15803439 3 17463664525773600965
15890870 6 18192706748963091997
17627616 140 17905606597064032643
19246450 95 18126872434089165081
19301676 85 18339069493319378279
19311894 1 18410575119054907979
20609170 114 18338780279602397832
21307412 95 18410281511571273725
21360442 43 18194967340616750344
23569914 152 18055040373163151031
32027 91 18051407663774385767
3383291 50 18411697652292855481
4017518 198 17902790760713243301
404807 14 18194688288049366811
4435113 14 17630624318858173846
44880168 125 17916861443258461943
4756088 132 17980192316691909830
49967989 163 18268447771684053606
6441014 3 18339642351382796106
9980921 52 17342078653542771599

> <PUBCHEM_SHAPE_MULTIPOLES>
738.62
21.17
10.64
1.14
53.78
4.07
0.02
26.33
2.73
-18.04
-1.3
0.74
-0.94
1.08

> <PUBCHEM_SHAPE_SELFOVERLAP>
1587.965

> <PUBCHEM_SHAPE_VOLUME>
406.4

> <PUBCHEM_COORDINATE_TYPE>
2
5
10

$$$$
