26744684
  -OEChem-12032416183D

 63 66  0     1  0  0  0  0  0999 V2000
   -3.8068    0.8077    0.8887 O   0  0  0  0  0  0  0  0  0  0  0  0
   -5.5498    2.4628   -0.9759 O   0  0  0  0  0  0  0  0  0  0  0  0
   -6.0196   -0.1252   -1.7822 O   0  0  0  0  0  0  0  0  0  0  0  0
   -1.5019    2.5978    1.5504 O   0  0  0  0  0  0  0  0  0  0  0  0
   -2.1453   -1.2543    2.2124 O   0  0  0  0  0  0  0  0  0  0  0  0
    0.3129    1.8113    0.3305 N   0  0  0  0  0  0  0  0  0  0  0  0
    3.1361    1.2276    0.0678 N   0  0  0  0  0  0  0  0  0  0  0  0
   -3.2849   -1.9075    0.3054 N   0  0  0  0  0  0  0  0  0  0  0  0
    5.0525    0.1213    0.8927 N   0  0  0  0  0  0  0  0  0  0  0  0
   -3.4295    1.7931   -0.1000 C   0  0  2  0  0  0  0  0  0  0  0  0
   -4.4151    1.6432   -1.2537 C   0  0  1  0  0  0  0  0  0  0  0  0
   -4.7892    0.1784   -1.1604 C   0  0  1  0  0  0  0  0  0  0  0  0
   -4.8445   -0.0266    0.3442 C   0  0  1  0  0  0  0  0  0  0  0  0
   -1.9886    1.5167   -0.5070 C   0  0  0  0  0  0  0  0  0  0  0  0
   -4.6153   -1.4674    0.7643 C   0  0  0  0  0  0  0  0  0  0  0  0
   -1.0472    2.0262    0.5566 C   0  0  0  0  0  0  0  0  0  0  0  0
    0.8511    1.1322   -0.8504 C   0  0  0  0  0  0  0  0  0  0  0  0
    1.2878    2.2696    1.3169 C   0  0  0  0  0  0  0  0  0  0  0  0
    2.3149    1.4820   -1.1185 C   0  0  0  0  0  0  0  0  0  0  0  0
    2.5059    1.3511    1.3853 C   0  0  0  0  0  0  0  0  0  0  0  0
    4.4877    0.9121   -0.0472 C   0  0  0  0  0  0  0  0  0  0  0  0
   -2.1722   -1.7522    1.0900 C   0  0  0  0  0  0  0  0  0  0  0  0
    5.1714    1.4376   -1.1316 C   0  0  0  0  0  0  0  0  0  0  0  0
   -0.9046   -2.2213    0.4735 C   0  0  0  0  0  0  0  0  0  0  0  0
    6.5217    1.1316   -1.2600 C   0  0  0  0  0  0  0  0  0  0  0  0
    6.3665   -0.1544    0.7348 C   0  0  0  0  0  0  0  0  0  0  0  0
    0.1487   -2.6485    1.2822 C   0  0  0  0  0  0  0  0  0  0  0  0
   -0.7675   -2.2339   -0.9147 C   0  0  0  0  0  0  0  0  0  0  0  0
    7.1382    0.3210   -0.3132 C   0  0  0  0  0  0  0  0  0  0  0  0
    1.3389   -3.0881    0.7028 C   0  0  0  0  0  0  0  0  0  0  0  0
    0.4227   -2.6733   -1.4940 C   0  0  0  0  0  0  0  0  0  0  0  0
    1.4759   -3.1004   -0.6852 C   0  0  0  0  0  0  0  0  0  0  0  0
    2.7490   -3.5704   -1.3043 C   0  0  0  0  0  0  0  0  0  0  0  0
   -3.5385    2.7813    0.3617 H   0  0  0  0  0  0  0  0  0  0  0  0
   -4.0269    1.9314   -2.2347 H   0  0  0  0  0  0  0  0  0  0  0  0
   -4.0044   -0.4230   -1.6317 H   0  0  0  0  0  0  0  0  0  0  0  0
   -5.8047    0.3123    0.7526 H   0  0  0  0  0  0  0  0  0  0  0  0
   -1.7700    2.0658   -1.4296 H   0  0  0  0  0  0  0  0  0  0  0  0
   -1.8133    0.4535   -0.6699 H   0  0  0  0  0  0  0  0  0  0  0  0
   -5.3573   -2.1389    0.3220 H   0  0  0  0  0  0  0  0  0  0  0  0
   -4.6513   -1.5607    1.8548 H   0  0  0  0  0  0  0  0  0  0  0  0
    0.2515    1.3595   -1.7350 H   0  0  0  0  0  0  0  0  0  0  0  0
    0.7657    0.0633   -0.6507 H   0  0  0  0  0  0  0  0  0  0  0  0
    0.8183    2.3442    2.3035 H   0  0  0  0  0  0  0  0  0  0  0  0
    1.5875    3.2822    1.0199 H   0  0  0  0  0  0  0  0  0  0  0  0
    2.6490    0.8748   -1.9690 H   0  0  0  0  0  0  0  0  0  0  0  0
    2.3971    2.5395   -1.3983 H   0  0  0  0  0  0  0  0  0  0  0  0
    3.2137    1.7661    2.1131 H   0  0  0  0  0  0  0  0  0  0  0  0
    2.2089    0.3547    1.7345 H   0  0  0  0  0  0  0  0  0  0  0  0
   -5.2579    3.3892   -1.0226 H   0  0  0  0  0  0  0  0  0  0  0  0
   -5.9519    0.1489   -2.7126 H   0  0  0  0  0  0  0  0  0  0  0  0
   -3.2467   -2.3891   -0.5862 H   0  0  0  0  0  0  0  0  0  0  0  0
    4.7143    2.0877   -1.8696 H   0  0  0  0  0  0  0  0  0  0  0  0
    7.0942    1.5276   -2.0934 H   0  0  0  0  0  0  0  0  0  0  0  0
    6.7997   -0.7903    1.4998 H   0  0  0  0  0  0  0  0  0  0  0  0
    0.0593   -2.6493    2.3653 H   0  0  0  0  0  0  0  0  0  0  0  0
   -1.5479   -1.8816   -1.5825 H   0  0  0  0  0  0  0  0  0  0  0  0
    8.1898    0.0702   -0.3925 H   0  0  0  0  0  0  0  0  0  0  0  0
    2.1521   -3.4198    1.3428 H   0  0  0  0  0  0  0  0  0  0  0  0
    0.5197   -2.6724   -2.5765 H   0  0  0  0  0  0  0  0  0  0  0  0
    2.7263   -4.6571   -1.4320 H   0  0  0  0  0  0  0  0  0  0  0  0
    2.9096   -3.1061   -2.2833 H   0  0  0  0  0  0  0  0  0  0  0  0
    3.6096   -3.3058   -0.6802 H   0  0  0  0  0  0  0  0  0  0  0  0
  1 10  1  0  0  0  0
  1 13  1  0  0  0  0
  2 11  1  0  0  0  0
  2 50  1  0  0  0  0
  3 12  1  0  0  0  0
  3 51  1  0  0  0  0
  4 16  2  0  0  0  0
  5 22  2  0  0  0  0
  6 16  1  0  0  0  0
  6 17  1  0  0  0  0
  6 18  1  0  0  0  0
  7 19  1  0  0  0  0
  7 20  1  0  0  0  0
  7 21  1  0  0  0  0
  8 15  1  0  0  0  0
  8 22  1  0  0  0  0
  8 52  1  0  0  0  0
  9 21  1  0  0  0  0
  9 26  2  0  0  0  0
 10 11  1  0  0  0  0
 10 14  1  0  0  0  0
 10 34  1  0  0  0  0
 11 12  1  0  0  0  0
 11 35  1  0  0  0  0
 12 13  1  0  0  0  0
 12 36  1  0  0  0  0
 13 15  1  0  0  0  0
 13 37  1  0  0  0  0
 14 16  1  0  0  0  0
 14 38  1  0  0  0  0
 14 39  1  0  0  0  0
 15 40  1  0  0  0  0
 15 41  1  0  0  0  0
 17 19  1  0  0  0  0
 17 42  1  0  0  0  0
 17 43  1  0  0  0  0
 18 20  1  0  0  0  0
 18 44  1  0  0  0  0
 18 45  1  0  0  0  0
 19 46  1  0  0  0  0
 19 47  1  0  0  0  0
 20 48  1  0  0  0  0
 20 49  1  0  0  0  0
 21 23  2  0  0  0  0
 22 24  1  0  0  0  0
 23 25  1  0  0  0  0
 23 53  1  0  0  0  0
 24 27  2  0  0  0  0
 24 28  1  0  0  0  0
 25 29  2  0  0  0  0
 25 54  1  0  0  0  0
 26 29  1  0  0  0  0
 26 55  1  0  0  0  0
 27 30  1  0  0  0  0
 27 56  1  0  0  0  0
 28 31  2  0  0  0  0
 28 57  1  0  0  0  0
 29 58  1  0  0  0  0
 30 32  2  0  0  0  0
 30 59  1  0  0  0  0
 31 32  1  0  0  0  0
 31 60  1  0  0  0  0
 32 33  1  0  0  0  0
 33 61  1  0  0  0  0
 33 62  1  0  0  0  0
 33 63  1  0  0  0  0
M  END
> <PUBCHEM_COMPOUND_CID>
26744684

> <PUBCHEM_CONFORMER_RMSD>
1

> <PUBCHEM_CONFORMER_DIVERSEORDER>
2
115
65
185
237
74
147
257
136
119
278
107
27
154
263
266
153
171
36
40
165
133
268
208
134
214
73
138
64
13
246
62
120
130
10
264
251
78
106
169
281
161
95
166
241
113
262
69
240
280
32
146
234
226
258
52
104
4
175
250
177
215
43
186
24
101
152
53
181
97
157
253
19
279
68
216
192
132
72
58
223
206
195
285
180
203
272
200
198
116
211
270
289
127
18
110
102
179
117
276
30
233
89
182
243
121
44
287
242
103
199
126
9
190
277
244
235
222
286
135
231
81
255
54
66
228
197
145
59
173
57
137
92
174
14
164
193
91
283
284
94
210
112
122
70
142
128
12
238
260
67
77
140
49
37
239
259
105
194
172
160
88
168
85
225
267
159
249
162
245
196
149
17
144
114
236
209
71
163
252
167
28
96
87
212
254
141
84
151
156
125
76
108
220
50
82
35
261
248
98
265
274
218
184
21
63
124
207
217
83
213
170
219
33
282
47
48
131
90
183
111
5
60
187
229
51
202
26
188
288
139
256
247
230
205
176
275
273
15
189
109
204
46
99
269
31
23
201
178
118
271
224
79
221
20
34
129
155
56
75
100
22
42
123
1
93
150
227
191
148
158
41
143
6
45
7
3
16
11
55
8
38
232
86
80
29
39
61
25

> <PUBCHEM_MMFF94_PARTIAL_CHARGES>
44
1 -0.56
10 0.28
11 0.28
12 0.28
13 0.28
14 0.06
15 0.3
16 0.57
17 0.3
18 0.3
19 0.37
2 -0.68
20 0.37
21 0.41
22 0.54
23 -0.15
24 0.09
25 -0.15
26 0.16
27 -0.15
28 -0.15
29 -0.15
3 -0.68
30 -0.15
31 -0.15
32 -0.14
33 0.14
4 -0.57
5 -0.57
50 0.4
51 0.4
52 0.37
53 0.15
54 0.15
55 0.15
56 0.15
57 0.15
58 0.15
59 0.15
6 -0.66
60 0.15
7 -0.84
8 -0.73
9 -0.62

> <PUBCHEM_EFFECTIVE_ROTOR_COUNT>
10.2

> <PUBCHEM_PHARMACOPHORE_FEATURES>
14
1 1 acceptor
1 2 acceptor
1 2 donor
1 3 acceptor
1 3 donor
1 4 acceptor
1 5 acceptor
1 7 cation
1 8 donor
1 9 acceptor
5 1 10 11 12 13 rings
6 24 27 28 30 31 32 rings
6 6 7 17 18 19 20 rings
6 9 21 23 25 26 29 rings

> <PUBCHEM_HEAVY_ATOM_COUNT>
33

> <PUBCHEM_ATOM_DEF_STEREO_COUNT>
4

> <PUBCHEM_ATOM_UDEF_STEREO_COUNT>
0

> <PUBCHEM_BOND_DEF_STEREO_COUNT>
0

> <PUBCHEM_BOND_UDEF_STEREO_COUNT>
0

> <PUBCHEM_ISOTOPIC_ATOM_COUNT>
0

> <PUBCHEM_COMPONENT_COUNT>
1

> <PUBCHEM_CACTVS_TAUTO_COUNT>
5

> <PUBCHEM_CONFORMER_ID>
0198176C00000002

> <PUBCHEM_MMFF94_ENERGY>
100.5346

> <PUBCHEM_FEATURE_SELFOVERLAP>
71.063

> <PUBCHEM_SHAPE_FINGERPRINT>
10675989 125 17253139831981376029
107951 10 17675925416923396435
11513181 2 17844813581236417935
11578080 2 17024849508485001495
12156800 1 17055223658408771439
12422481 6 18260542304212502930
13402501 40 18411421721807485890
14251757 5 18191879031412945536
14466204 15 18410295834785486764
15183329 4 17749102296987847456
15968369 153 18059001797319362710
18608769 82 18261680363525123755
20511986 3 18041274483114282224
20721686 56 18410858724388404391
21344244 246 18342171142306248927
23559900 14 18266174109527612504
3298306 158 18411976966288741864
3383291 50 18273494602585107910
373842 8 18339079268897214506
4093350 32 17202497610515961895
5085150 59 18411410718528704122
508706 21 18337115669293164959
5265222 85 18264498463013553316
57527295 17 18058434440808877173
59755656 215 18342455941286615398
6437827 68 18408042922949701274
7226269 152 18342744043756702408

> <PUBCHEM_SHAPE_MULTIPOLES>
629.85
14.13
4.03
1.62
10.63
2.92
-0.08
-6.25
3.73
-0.21
0.2
-0.44
0.15
0.96

> <PUBCHEM_SHAPE_SELFOVERLAP>
1343.051

> <PUBCHEM_SHAPE_VOLUME>
347.2

> <PUBCHEM_COORDINATE_TYPE>
2
5
10

$$$$
