45361246
  -OEChem-12032416193D

 84 88  0     1  0  0  0  0  0999 V2000
    0.5212   -3.4241   -1.8552 O   0  0  0  0  0  0  0  0  0  0  0  0
    4.9388    0.4469   -1.8131 O   0  0  0  0  0  0  0  0  0  0  0  0
   -0.3763    1.3242    2.1915 O   0  0  0  0  0  0  0  0  0  0  0  0
   -6.7939   -1.1915   -0.1286 O   0  0  0  0  0  0  0  0  0  0  0  0
    4.2366    0.4058    0.3973 N   0  0  0  0  0  0  0  0  0  0  0  0
   -2.2943    0.2741    1.4117 N   0  0  0  0  0  0  0  0  0  0  0  0
   -4.8683    0.7886    0.3759 N   0  0  0  0  0  0  0  0  0  0  0  0
    4.9500    4.5441    0.5519 N   0  0  0  0  0  0  0  0  0  0  0  0
    2.3048   -1.1709    0.0812 C   0  0  1  0  0  0  0  0  0  0  0  0
    2.1105   -2.6541    0.5423 C   0  0  2  0  0  0  0  0  0  0  0  0
    2.9737   -2.7941    1.8551 C   0  0  0  0  0  0  0  0  0  0  0  0
    3.7996   -0.9646    0.4126 C   0  0  2  0  0  0  0  0  0  0  0  0
    3.9719   -1.6073    1.7974 C   0  0  0  0  0  0  0  0  0  0  0  0
    1.9539   -0.9232   -1.4045 C   0  0  0  0  0  0  0  0  0  0  0  0
    2.5177   -3.6817   -0.5436 C   0  0  0  0  0  0  0  0  0  0  0  0
    1.9464   -3.3869   -1.9311 C   0  0  2  0  0  0  0  0  0  0  0  0
    1.4133   -0.1932    0.8907 C   0  0  0  0  0  0  0  0  0  0  0  0
    2.4124   -2.0011   -2.3774 C   0  0  0  0  0  0  0  0  0  0  0  0
    3.7544   -4.1164    1.9987 C   0  0  0  0  0  0  0  0  0  0  0  0
    2.0742   -2.6987    3.1056 C   0  0  0  0  0  0  0  0  0  0  0  0
   -0.0583   -0.4923    0.7029 C   0  0  0  0  0  0  0  0  0  0  0  0
    2.3921   -4.4541   -2.9329 C   0  0  0  0  0  0  0  0  0  0  0  0
    4.7784    1.0073   -0.7320 C   0  0  0  0  0  0  0  0  0  0  0  0
   -0.9163    0.4530    1.5051 C   0  0  0  0  0  0  0  0  0  0  0  0
    5.2057    2.4216   -0.5772 C   0  0  0  0  0  0  0  0  0  0  0  0
   -3.2025    1.1455    2.1527 C   0  0  0  0  0  0  0  0  0  0  0  0
   -2.9718   -0.7614    0.6290 C   0  0  0  0  0  0  0  0  0  0  0  0
    6.2162    2.9561   -1.3688 C   0  0  0  0  0  0  0  0  0  0  0  0
    4.6096    3.2498    0.3602 C   0  0  0  0  0  0  0  0  0  0  0  0
   -4.2079    1.8045    1.2111 C   0  0  0  0  0  0  0  0  0  0  0  0
   -3.9776   -0.1368   -0.3377 C   0  0  0  0  0  0  0  0  0  0  0  0
    6.5944    4.2836   -1.2010 C   0  0  0  0  0  0  0  0  0  0  0  0
   -6.1153    1.1093   -0.1729 C   0  0  0  0  0  0  0  0  0  0  0  0
    5.9361    5.0285   -0.2359 C   0  0  0  0  0  0  0  0  0  0  0  0
   -7.0608    0.1135   -0.4174 C   0  0  0  0  0  0  0  0  0  0  0  0
   -6.4085    2.4390   -0.4756 C   0  0  0  0  0  0  0  0  0  0  0  0
   -8.2996    0.4473   -0.9646 C   0  0  0  0  0  0  0  0  0  0  0  0
   -7.6474    2.7727   -1.0231 C   0  0  0  0  0  0  0  0  0  0  0  0
   -8.5930    1.7769   -1.2676 C   0  0  0  0  0  0  0  0  0  0  0  0
   -7.8202   -2.1401   -0.4123 C   0  0  0  0  0  0  0  0  0  0  0  0
    1.0665   -2.8800    0.7704 H   0  0  0  0  0  0  0  0  0  0  0  0
    4.4200   -1.5206   -0.3015 H   0  0  0  0  0  0  0  0  0  0  0  0
    5.0130   -1.9217    1.9380 H   0  0  0  0  0  0  0  0  0  0  0  0
    3.7649   -0.8834    2.5957 H   0  0  0  0  0  0  0  0  0  0  0  0
    0.8816   -0.8546   -1.5799 H   0  0  0  0  0  0  0  0  0  0  0  0
    2.3467    0.0458   -1.7319 H   0  0  0  0  0  0  0  0  0  0  0  0
    3.6092   -3.7253   -0.6362 H   0  0  0  0  0  0  0  0  0  0  0  0
    2.1815   -4.6744   -0.2170 H   0  0  0  0  0  0  0  0  0  0  0  0
    1.6030    0.8327    0.5425 H   0  0  0  0  0  0  0  0  0  0  0  0
    1.6745   -0.1710    1.9505 H   0  0  0  0  0  0  0  0  0  0  0  0
    3.5041   -1.9763   -2.4762 H   0  0  0  0  0  0  0  0  0  0  0  0
    1.9981   -1.7680   -3.3667 H   0  0  0  0  0  0  0  0  0  0  0  0
    3.0851   -4.9821    1.9517 H   0  0  0  0  0  0  0  0  0  0  0  0
    4.2745   -4.1581    2.9635 H   0  0  0  0  0  0  0  0  0  0  0  0
    4.5247   -4.2312    1.2298 H   0  0  0  0  0  0  0  0  0  0  0  0
    1.4017   -3.5628    3.1621 H   0  0  0  0  0  0  0  0  0  0  0  0
    1.4452   -1.8088    3.1260 H   0  0  0  0  0  0  0  0  0  0  0  0
    2.6766   -2.6883    4.0215 H   0  0  0  0  0  0  0  0  0  0  0  0
    4.1485    0.9282    1.2621 H   0  0  0  0  0  0  0  0  0  0  0  0
   -0.3111   -1.4976    1.0442 H   0  0  0  0  0  0  0  0  0  0  0  0
   -0.3918   -0.3606   -0.3262 H   0  0  0  0  0  0  0  0  0  0  0  0
    2.0538   -5.4493   -2.6226 H   0  0  0  0  0  0  0  0  0  0  0  0
    3.4813   -4.4781   -3.0420 H   0  0  0  0  0  0  0  0  0  0  0  0
    1.9488   -4.2695   -3.9181 H   0  0  0  0  0  0  0  0  0  0  0  0
    0.2585   -4.3075   -1.5451 H   0  0  0  0  0  0  0  0  0  0  0  0
   -3.7217    0.5200    2.8890 H   0  0  0  0  0  0  0  0  0  0  0  0
   -2.6498    1.9127    2.7040 H   0  0  0  0  0  0  0  0  0  0  0  0
   -2.2752   -1.3891    0.0711 H   0  0  0  0  0  0  0  0  0  0  0  0
   -3.4906   -1.4122    1.3436 H   0  0  0  0  0  0  0  0  0  0  0  0
    6.7219    2.3526   -2.1175 H   0  0  0  0  0  0  0  0  0  0  0  0
    3.7942    2.9245    0.9974 H   0  0  0  0  0  0  0  0  0  0  0  0
   -3.6845    2.5251    0.5698 H   0  0  0  0  0  0  0  0  0  0  0  0
   -4.9346    2.3495    1.8264 H   0  0  0  0  0  0  0  0  0  0  0  0
   -4.5169   -0.9405   -0.8473 H   0  0  0  0  0  0  0  0  0  0  0  0
   -3.4411    0.4252   -1.1132 H   0  0  0  0  0  0  0  0  0  0  0  0
    7.3802    4.7213   -1.8060 H   0  0  0  0  0  0  0  0  0  0  0  0
    6.1939    6.0686   -0.0657 H   0  0  0  0  0  0  0  0  0  0  0  0
   -5.6943    3.2423   -0.3201 H   0  0  0  0  0  0  0  0  0  0  0  0
   -9.0832   -0.2701   -1.1825 H   0  0  0  0  0  0  0  0  0  0  0  0
   -7.8745    3.8073   -1.2634 H   0  0  0  0  0  0  0  0  0  0  0  0
   -9.5569    2.0380   -1.6948 H   0  0  0  0  0  0  0  0  0  0  0  0
   -7.4375   -3.1240   -0.1213 H   0  0  0  0  0  0  0  0  0  0  0  0
   -8.0392   -2.1903   -1.4844 H   0  0  0  0  0  0  0  0  0  0  0  0
   -8.7168   -1.9584    0.1901 H   0  0  0  0  0  0  0  0  0  0  0  0
  1 16  1  0  0  0  0
  1 65  1  0  0  0  0
  2 23  2  0  0  0  0
  3 24  2  0  0  0  0
  4 35  1  0  0  0  0
  4 40  1  0  0  0  0
  5 12  1  0  0  0  0
  5 23  1  0  0  0  0
  5 59  1  0  0  0  0
  6 24  1  0  0  0  0
  6 26  1  0  0  0  0
  6 27  1  0  0  0  0
  7 30  1  0  0  0  0
  7 31  1  0  0  0  0
  7 33  1  0  0  0  0
  8 29  1  0  0  0  0
  8 34  2  0  0  0  0
  9 10  1  0  0  0  0
  9 12  1  0  0  0  0
  9 14  1  0  0  0  0
  9 17  1  0  0  0  0
 10 11  1  0  0  0  0
 10 15  1  0  0  0  0
 10 41  1  0  0  0  0
 11 13  1  0  0  0  0
 11 19  1  0  0  0  0
 11 20  1  0  0  0  0
 12 13  1  0  0  0  0
 12 42  1  0  0  0  0
 13 43  1  0  0  0  0
 13 44  1  0  0  0  0
 14 18  1  0  0  0  0
 14 45  1  0  0  0  0
 14 46  1  0  0  0  0
 15 16  1  0  0  0  0
 15 47  1  0  0  0  0
 15 48  1  0  0  0  0
 16 18  1  0  0  0  0
 16 22  1  0  0  0  0
 17 21  1  0  0  0  0
 17 49  1  0  0  0  0
 17 50  1  0  0  0  0
 18 51  1  0  0  0  0
 18 52  1  0  0  0  0
 19 53  1  0  0  0  0
 19 54  1  0  0  0  0
 19 55  1  0  0  0  0
 20 56  1  0  0  0  0
 20 57  1  0  0  0  0
 20 58  1  0  0  0  0
 21 24  1  0  0  0  0
 21 60  1  0  0  0  0
 21 61  1  0  0  0  0
 22 62  1  0  0  0  0
 22 63  1  0  0  0  0
 22 64  1  0  0  0  0
 23 25  1  0  0  0  0
 25 28  1  0  0  0  0
 25 29  2  0  0  0  0
 26 30  1  0  0  0  0
 26 66  1  0  0  0  0
 26 67  1  0  0  0  0
 27 31  1  0  0  0  0
 27 68  1  0  0  0  0
 27 69  1  0  0  0  0
 28 32  2  0  0  0  0
 28 70  1  0  0  0  0
 29 71  1  0  0  0  0
 30 72  1  0  0  0  0
 30 73  1  0  0  0  0
 31 74  1  0  0  0  0
 31 75  1  0  0  0  0
 32 34  1  0  0  0  0
 32 76  1  0  0  0  0
 33 35  1  0  0  0  0
 33 36  2  0  0  0  0
 34 77  1  0  0  0  0
 35 37  2  0  0  0  0
 36 38  1  0  0  0  0
 36 78  1  0  0  0  0
 37 39  1  0  0  0  0
 37 79  1  0  0  0  0
 38 39  2  0  0  0  0
 38 80  1  0  0  0  0
 39 81  1  0  0  0  0
 40 82  1  0  0  0  0
 40 83  1  0  0  0  0
 40 84  1  0  0  0  0
M  END
> <PUBCHEM_COMPOUND_CID>
45361246

> <PUBCHEM_CONFORMER_RMSD>
1.2

> <PUBCHEM_CONFORMER_DIVERSEORDER>
3
21
44
61
25
97
30
84
59
78
43
5
92
64
88
95
80
41
48
40
16
2
82
71
17
56
52
29
28
13
76
68
85
8
83
51
45
87
77
66
20
36
94
96
31
33
91
65
10
62
79
47
6
75
19
14
15
60
9
39
81
70
54
42
73
98
90
69
63
26
93
7
55
18
11
89
49
37
38
53
35
50
67
27
46
24
23
57
72
22
32
1
86
12
58
4
74
34

> <PUBCHEM_MMFF94_PARTIAL_CHARGES>
39
1 -0.68
12 0.3
16 0.28
2 -0.57
21 0.06
23 0.54
24 0.57
25 0.09
26 0.3
27 0.3
28 -0.15
29 0.16
3 -0.57
30 0.37
31 0.37
32 -0.15
33 0.1
34 0.16
35 0.08
36 -0.15
37 -0.15
38 -0.15
39 -0.15
4 -0.36
40 0.28
5 -0.73
59 0.37
6 -0.66
65 0.4
7 -0.84
70 0.15
71 0.15
76 0.15
77 0.15
78 0.15
79 0.15
8 -0.62
80 0.15
81 0.15

> <PUBCHEM_EFFECTIVE_ROTOR_COUNT>
11.6

> <PUBCHEM_PHARMACOPHORE_FEATURES>
14
1 1 acceptor
1 1 donor
1 2 acceptor
1 3 acceptor
1 4 acceptor
1 5 donor
1 7 cation
1 8 acceptor
3 11 19 20 hydrophobe
5 9 10 11 12 13 rings
6 33 35 36 37 38 39 rings
6 6 7 26 27 30 31 rings
6 8 25 28 29 32 34 rings
6 9 10 14 15 16 18 rings

> <PUBCHEM_HEAVY_ATOM_COUNT>
40

> <PUBCHEM_ATOM_DEF_STEREO_COUNT>
4

> <PUBCHEM_ATOM_UDEF_STEREO_COUNT>
0

> <PUBCHEM_BOND_DEF_STEREO_COUNT>
0

> <PUBCHEM_BOND_UDEF_STEREO_COUNT>
0

> <PUBCHEM_ISOTOPIC_ATOM_COUNT>
0

> <PUBCHEM_COMPONENT_COUNT>
1

> <PUBCHEM_CACTVS_TAUTO_COUNT>
2

> <PUBCHEM_CONFORMER_ID>
02B4285E00000003

> <PUBCHEM_MMFF94_ENERGY>
163.1229

> <PUBCHEM_FEATURE_SELFOVERLAP>
71.171

> <PUBCHEM_SHAPE_FINGERPRINT>
10673678 19 18410857689306210157
11093857 51 17632572743414760582
11135609 127 18334003987046380257
11170278 133 18128250288749095769
11181472 205 18200318702702036937
11204353 107 18127125510203250699
11443803 9 18272085042079730714
11505856 67 17252610357192288500
12440610 7 17676498275646236819
12522641 68 18197507440389527846
13150687 139 18200046144071469548
14150023 79 18262235624516738840
14565420 104 18260543468101115452
15082195 135 18202005391164219121
15183329 4 18266175038183923409
15484559 13 18409451401771822456
15705408 1 17625857914471972204
19304144 158 18336543906567875717
21033648 29 16515687784074239736
23522609 53 17988098690438288473
23523787 8 17060066999187648076
27425 322 18261109681818758002
3534868 343 17845096160093355360
376196 1 18336842986852649842
4073 2 18040154046257738387
4112364 45 18186791505122339296
44880568 143 18265612079767908909
5109719 28 18262807388059829145
513532 50 18188219701728184822
6058803 2 17200260043912646776
6086070 43 17828763941628789288
86090 222 12391516368863938108

> <PUBCHEM_SHAPE_MULTIPOLES>
779.78
22.57
6.38
2.44
50.63
2.01
-0.09
22.2
8.2
-14.87
1.82
-2.25
-2.56
-1.29

> <PUBCHEM_SHAPE_SELFOVERLAP>
1661.94

> <PUBCHEM_SHAPE_VOLUME>
430.5

> <PUBCHEM_COORDINATE_TYPE>
2
5
10

$$$$
