40777129
  -OEChem-12032416183D

 63 67  0     1  0  0  0  0  0999 V2000
   -2.2056   -2.7232    0.4509 Br  0  0  0  0  0  0  0  0  0  0  0  0
    4.9458   -0.0431   -0.3416 S   0  0  0  0  0  0  0  0  0  0  0  0
    5.6817    0.2440    0.8750 O   0  0  0  0  0  0  0  0  0  0  0  0
    5.6357   -0.0947   -1.6163 O   0  0  0  0  0  0  0  0  0  0  0  0
    1.1992    2.7957    1.8298 N   0  0  2  0  0  0  0  0  0  0  0  0
    3.6254    1.0256   -0.4654 N   0  0  0  0  0  0  0  0  0  0  0  0
   -1.5334    1.7639   -1.6758 N   0  0  0  0  0  0  0  0  0  0  0  0
   -3.1949    0.0232   -1.8065 N   0  0  0  0  0  0  0  0  0  0  0  0
    0.0862    3.7146   -0.3381 C   0  0  2  0  0  0  0  0  0  0  0  0
   -0.9086    2.8126    0.4437 C   0  0  2  0  0  0  0  0  0  0  0  0
    2.0899    2.5616    0.6627 C   0  0  2  0  0  0  0  0  0  0  0  0
    1.3641    2.9094   -0.6548 C   0  0  0  0  0  0  0  0  0  0  0  0
    0.4949    4.8575    0.6159 C   0  0  0  0  0  0  0  0  0  0  0  0
   -0.1160    2.1459    1.6042 C   0  0  0  0  0  0  0  0  0  0  0  0
    0.9791    4.2572    1.9474 C   0  0  0  0  0  0  0  0  0  0  0  0
    2.6616    1.1424    0.6413 C   0  0  0  0  0  0  0  0  0  0  0  0
   -1.7366    1.8064   -0.3427 C   0  0  0  0  0  0  0  0  0  0  0  0
   -2.6389    1.0007    0.3215 C   0  0  0  0  0  0  0  0  0  0  0  0
   -3.3473    0.1192   -0.4695 C   0  0  0  0  0  0  0  0  0  0  0  0
   -2.2850    0.8626   -2.3365 C   0  0  0  0  0  0  0  0  0  0  0  0
    4.1320   -1.5982   -0.1317 C   0  0  0  0  0  0  0  0  0  0  0  0
   -4.3228   -0.7775    0.1031 C   0  0  0  0  0  0  0  0  0  0  0  0
   -2.0899    0.7873   -3.8131 C   0  0  0  0  0  0  0  0  0  0  0  0
    3.7983   -2.3659   -1.2476 C   0  0  0  0  0  0  0  0  0  0  0  0
    3.8227   -2.0574    1.1485 C   0  0  0  0  0  0  0  0  0  0  0  0
   -3.9814   -2.0529    0.5525 C   0  0  0  0  0  0  0  0  0  0  0  0
   -5.6415   -0.3335    0.2002 C   0  0  0  0  0  0  0  0  0  0  0  0
    3.1553   -3.5928   -1.0831 C   0  0  0  0  0  0  0  0  0  0  0  0
    3.1798   -3.2842    1.3131 C   0  0  0  0  0  0  0  0  0  0  0  0
    2.8461   -4.0519    0.1974 C   0  0  0  0  0  0  0  0  0  0  0  0
   -4.9588   -2.8846    1.0991 C   0  0  0  0  0  0  0  0  0  0  0  0
   -6.6190   -1.1651    0.7468 C   0  0  0  0  0  0  0  0  0  0  0  0
   -6.2776   -2.4407    1.1963 C   0  0  0  0  0  0  0  0  0  0  0  0
    2.1593   -5.3641    0.3732 C   0  0  0  0  0  0  0  0  0  0  0  0
   -0.3586    4.1208   -1.2526 H   0  0  0  0  0  0  0  0  0  0  0  0
   -1.6530    3.4894    0.8915 H   0  0  0  0  0  0  0  0  0  0  0  0
    2.9542    3.2356    0.7612 H   0  0  0  0  0  0  0  0  0  0  0  0
    1.1007    2.0107   -1.2233 H   0  0  0  0  0  0  0  0  0  0  0  0
    2.0275    3.5091   -1.2903 H   0  0  0  0  0  0  0  0  0  0  0  0
   -0.3538    5.5274    0.7965 H   0  0  0  0  0  0  0  0  0  0  0  0
    1.2911    5.4577    0.1590 H   0  0  0  0  0  0  0  0  0  0  0  0
   -0.7062    2.2135    2.5280 H   0  0  0  0  0  0  0  0  0  0  0  0
    0.0233    1.0712    1.4390 H   0  0  0  0  0  0  0  0  0  0  0  0
    1.9059    4.7516    2.2637 H   0  0  0  0  0  0  0  0  0  0  0  0
    0.2514    4.4606    2.7433 H   0  0  0  0  0  0  0  0  0  0  0  0
    1.8778    0.3935    0.4908 H   0  0  0  0  0  0  0  0  0  0  0  0
    3.1565    0.9391    1.5970 H   0  0  0  0  0  0  0  0  0  0  0  0
    3.2590    1.2175   -1.4058 H   0  0  0  0  0  0  0  0  0  0  0  0
   -2.7865    1.0607    1.3933 H   0  0  0  0  0  0  0  0  0  0  0  0
   -2.8308    1.4157   -4.3159 H   0  0  0  0  0  0  0  0  0  0  0  0
   -1.0897    1.1325   -4.0932 H   0  0  0  0  0  0  0  0  0  0  0  0
   -2.2044   -0.2424   -4.1656 H   0  0  0  0  0  0  0  0  0  0  0  0
    4.0231   -2.0246   -2.2540 H   0  0  0  0  0  0  0  0  0  0  0  0
    4.0708   -1.4747    2.0311 H   0  0  0  0  0  0  0  0  0  0  0  0
   -5.9276    0.6574   -0.1452 H   0  0  0  0  0  0  0  0  0  0  0  0
    2.9005   -4.1820   -1.9600 H   0  0  0  0  0  0  0  0  0  0  0  0
    2.9449   -3.6316    2.3156 H   0  0  0  0  0  0  0  0  0  0  0  0
   -4.7131   -3.8820    1.4550 H   0  0  0  0  0  0  0  0  0  0  0  0
   -7.6458   -0.8197    0.8224 H   0  0  0  0  0  0  0  0  0  0  0  0
   -7.0388   -3.0881    1.6218 H   0  0  0  0  0  0  0  0  0  0  0  0
    2.8987   -6.1649    0.4725 H   0  0  0  0  0  0  0  0  0  0  0  0
    1.5234   -5.3604    1.2650 H   0  0  0  0  0  0  0  0  0  0  0  0
    1.5111   -5.5883   -0.4807 H   0  0  0  0  0  0  0  0  0  0  0  0
  1 26  1  0  0  0  0
  2  3  2  0  0  0  0
  2  4  2  0  0  0  0
  2  6  1  0  0  0  0
  2 21  1  0  0  0  0
  5 11  1  0  0  0  0
  5 14  1  0  0  0  0
  5 15  1  0  0  0  0
  6 16  1  0  0  0  0
  6 48  1  0  0  0  0
  7 17  2  0  0  0  0
  7 20  1  0  0  0  0
  8 19  1  0  0  0  0
  8 20  2  0  0  0  0
  9 10  1  0  0  0  0
  9 12  1  0  0  0  0
  9 13  1  0  0  0  0
  9 35  1  0  0  0  0
 10 14  1  0  0  0  0
 10 17  1  0  0  0  0
 10 36  1  0  0  0  0
 11 12  1  0  0  0  0
 11 16  1  0  0  0  0
 11 37  1  0  0  0  0
 12 38  1  0  0  0  0
 12 39  1  0  0  0  0
 13 15  1  0  0  0  0
 13 40  1  0  0  0  0
 13 41  1  0  0  0  0
 14 42  1  0  0  0  0
 14 43  1  0  0  0  0
 15 44  1  0  0  0  0
 15 45  1  0  0  0  0
 16 46  1  0  0  0  0
 16 47  1  0  0  0  0
 17 18  1  0  0  0  0
 18 19  2  0  0  0  0
 18 49  1  0  0  0  0
 19 22  1  0  0  0  0
 20 23  1  0  0  0  0
 21 24  2  0  0  0  0
 21 25  1  0  0  0  0
 22 26  1  0  0  0  0
 22 27  2  0  0  0  0
 23 50  1  0  0  0  0
 23 51  1  0  0  0  0
 23 52  1  0  0  0  0
 24 28  1  0  0  0  0
 24 53  1  0  0  0  0
 25 29  2  0  0  0  0
 25 54  1  0  0  0  0
 26 31  2  0  0  0  0
 27 32  1  0  0  0  0
 27 55  1  0  0  0  0
 28 30  2  0  0  0  0
 28 56  1  0  0  0  0
 29 30  1  0  0  0  0
 29 57  1  0  0  0  0
 30 34  1  0  0  0  0
 31 33  1  0  0  0  0
 31 58  1  0  0  0  0
 32 33  2  0  0  0  0
 32 59  1  0  0  0  0
 33 60  1  0  0  0  0
 34 61  1  0  0  0  0
 34 62  1  0  0  0  0
 34 63  1  0  0  0  0
M  END
> <PUBCHEM_COMPOUND_CID>
40777129

> <PUBCHEM_CONFORMER_RMSD>
1

> <PUBCHEM_CONFORMER_DIVERSEORDER>
1
56
247
148
144
33
260
91
291
249
219
308
275
177
211
284
24
228
92
188
8
185
206
283
285
252
135
243
104
257
224
204
169
172
290
10
270
278
261
262
263
115
124
3
100
170
234
71
215
192
196
190
69
150
213
37
194
200
134
306
153
178
197
195
85
166
201
297
280
226
217
246
245
49
250
168
131
72
266
302
184
84
181
227
30
112
99
310
214
303
83
43
18
171
294
159
80
209
109
126
175
307
107
120
298
38
81
95
164
229
79
220
77
202
267
141
300
296
143
273
12
165
312
66
98
154
110
240
108
230
132
93
13
272
248
258
293
187
47
207
119
146
160
23
222
292
152
287
52
149
118
199
274
22
16
212
208
73
28
174
251
70
133
216
205
147
311
75
186
74
138
162
17
21
277
189
179
242
58
271
235
29
156
78
236
106
103
111
289
253
282
4
269
288
64
255
238
61
39
221
25
180
161
31
299
237
301
62
60
50
129
265
82
94
48
313
198
15
225
256
244
7
96
136
259
264
44
125
158
286
87
26
176
122
218
19
54
59
281
63
68
309
121
117
36
167
210
35
116
305
65
268
254
140
223
11
57
127
114
295
279
276
142
239
139
45
193
145
41
157
151
86
182
46
67
137
163
88
128
231
9
89
105
183
241
113
130
173
97
203
51
155
6
232
102
101
123
233
304
55
90
32
2
14
42
5
34
20
191
27
53
40
76

> <PUBCHEM_MMFF94_PARTIAL_CHARGES>
40
1 -0.11
10 0.14
11 0.27
14 0.27
15 0.27
16 0.36
17 0.17
18 -0.15
19 0.31
2 1.45
20 0.48
21 -0.01
23 0.14
24 -0.15
25 -0.15
26 0.11
27 -0.15
28 -0.15
29 -0.15
3 -0.65
30 -0.14
31 -0.15
32 -0.15
33 -0.15
34 0.14
4 -0.65
48 0.42
49 0.15
5 -0.81
53 0.15
54 0.15
55 0.15
56 0.15
57 0.15
58 0.15
59 0.15
6 -0.91
60 0.15
7 -0.62
8 -0.62

> <PUBCHEM_EFFECTIVE_ROTOR_COUNT>
7.2

> <PUBCHEM_PHARMACOPHORE_FEATURES>
11
1 1 hydrophobe
1 3 acceptor
1 4 acceptor
1 5 cation
1 6 donor
1 7 acceptor
3 7 8 20 cation
6 21 24 25 28 29 30 rings
6 22 26 27 31 32 33 rings
6 7 8 17 18 19 20 rings
8 5 9 10 11 12 13 14 15 rings

> <PUBCHEM_HEAVY_ATOM_COUNT>
34

> <PUBCHEM_ATOM_DEF_STEREO_COUNT>
3

> <PUBCHEM_ATOM_UDEF_STEREO_COUNT>
0

> <PUBCHEM_BOND_DEF_STEREO_COUNT>
0

> <PUBCHEM_BOND_UDEF_STEREO_COUNT>
0

> <PUBCHEM_ISOTOPIC_ATOM_COUNT>
0

> <PUBCHEM_COMPONENT_COUNT>
1

> <PUBCHEM_CACTVS_TAUTO_COUNT>
1

> <PUBCHEM_CONFORMER_ID>
026E35A900000001

> <PUBCHEM_MMFF94_ENERGY>
85.8158

> <PUBCHEM_FEATURE_SELFOVERLAP>
55.839

> <PUBCHEM_SHAPE_FINGERPRINT>
10928967 22 18058717018953684758
12106331 60 18267850702616259090
12107183 9 18271261443457034857
12128747 34 18411420640056287817
12422481 6 17202775791331988109
12522641 24 18199200662542849675
12623949 98 18044380659033248963
12633257 1 15410612618349902193
12655387 17 18051708642298210377
13383668 262 15871138868184050939
13402501 40 18334576896807376146
13560911 43 17894912872160007122
13631057 29 18340496560981177204
14040222 380 18056219074485866023
14092694 8 17023191474825097932
15320291 9 17618212910591515879
15538507 32 18194129727821625156
17909252 39 18340485561253532210
19311894 1 17040073139792670003
19315092 285 17458894934700213930
20764821 26 18196634406065376638
20775530 9 18412538803967089396
21315759 227 18262227816629937966
3737641 26 18271527490383118548
42626532 9 17192944911344218823
4394409 98 16382801585592262006
4435113 14 17678471976712569603
44880168 125 16701460048705493806
46194498 28 17677328449816988116
463206 1 18339363075518622114
5309563 4 18412828009774032966
5912855 24 18127419951602351984
613672 6 18195784320209677122
6422251 121 18408324359019135595
86090 222 18188777287146173147

> <PUBCHEM_SHAPE_MULTIPOLES>
677.83
12.77
7
2.08
7.71
0.57
-1.84
12.53
1.41
-5.1
2.68
0.8
-1
2.22

> <PUBCHEM_SHAPE_SELFOVERLAP>
1442.97

> <PUBCHEM_SHAPE_VOLUME>
387.4

> <PUBCHEM_COORDINATE_TYPE>
2
5
10

$$$$
