11879615
  -OEChem-12032416373D

 69 74  0     1  0  0  0  0  0999 V2000
   -1.5784   -3.8589    1.6440 S   0  0  0  0  0  0  0  0  0  0  0  0
   -5.0041   -0.8503    0.4443 O   0  0  0  0  0  0  0  0  0  0  0  0
   -2.5736   -0.3527   -1.5101 O   0  0  0  0  0  0  0  0  0  0  0  0
   -1.3482    1.9915   -0.0068 O   0  0  0  0  0  0  0  0  0  0  0  0
   -2.1379   -5.0077    0.9575 O   0  0  0  0  0  0  0  0  0  0  0  0
   -1.1965   -3.9574    3.0396 O   0  0  0  0  0  0  0  0  0  0  0  0
    5.6373    1.3710    2.4910 O   0  0  0  0  0  0  0  0  0  0  0  0
    2.8569   -2.8663   -3.5517 O   0  0  0  0  0  0  0  0  0  0  0  0
   -2.6137   -2.5270    1.4536 N   0  0  0  0  0  0  0  0  0  0  0  0
   -3.6595    2.4695   -0.2585 N   0  0  0  0  0  0  0  0  0  0  0  0
   -4.4566    3.5409   -0.1435 N   0  0  0  0  0  0  0  0  0  0  0  0
   -2.3462    4.0992    0.3092 N   0  0  0  0  0  0  0  0  0  0  0  0
   -3.6480    4.5345    0.2043 N   0  0  0  0  0  0  0  0  0  0  0  0
    3.3945    1.9663    0.9053 N   0  0  0  0  0  0  0  0  0  0  0  0
    3.2528   -2.1017   -1.3569 N   0  0  0  0  0  0  0  0  0  0  0  0
   -2.6976   -0.6418   -0.1089 C   0  0  1  0  0  0  0  0  0  0  0  0
   -3.9190    0.0942    0.4076 C   0  0  1  0  0  0  0  0  0  0  0  0
   -3.0252   -2.1016    0.0940 C   0  0  2  0  0  0  0  0  0  0  0  0
   -4.1985    1.1601   -0.6350 C   0  0  2  0  0  0  0  0  0  0  0  0
   -4.5360   -2.1271   -0.0114 C   0  0  0  0  0  0  0  0  0  0  0  0
   -3.6064    0.5601   -1.9052 C   0  0  0  0  0  0  0  0  0  0  0  0
   -2.3765    2.8188    0.0191 C   0  0  0  0  0  0  0  0  0  0  0  0
   -0.1438   -3.3368    0.7527 C   0  0  0  0  0  0  0  0  0  0  0  0
    0.8697   -2.6390    1.4096 C   0  0  0  0  0  0  0  0  0  0  0  0
   -0.0253   -3.6227   -0.6074 C   0  0  0  0  0  0  0  0  0  0  0  0
   -0.0619    2.4073   -0.3217 C   0  0  0  0  0  0  0  0  0  0  0  0
    2.0018   -2.2274    0.7065 C   0  0  0  0  0  0  0  0  0  0  0  0
    1.1068   -3.2111   -1.3106 C   0  0  0  0  0  0  0  0  0  0  0  0
    1.0185    1.9781    0.4491 C   0  0  0  0  0  0  0  0  0  0  0  0
    2.1204   -2.5135   -0.6536 C   0  0  0  0  0  0  0  0  0  0  0  0
    2.3110    2.3962    0.1325 C   0  0  0  0  0  0  0  0  0  0  0  0
    0.1504    3.2544   -1.4094 C   0  0  0  0  0  0  0  0  0  0  0  0
    3.4042    2.3050    2.3351 C   0  0  0  0  0  0  0  0  0  0  0  0
    4.7177    1.8152    0.2902 C   0  0  0  0  0  0  0  0  0  0  0  0
    4.3380    1.3592    3.0819 C   0  0  0  0  0  0  0  0  0  0  0  0
    5.5818    0.8959    1.1465 C   0  0  0  0  0  0  0  0  0  0  0  0
    2.5231    3.2434   -0.9552 C   0  0  0  0  0  0  0  0  0  0  0  0
    1.4428    3.6725   -1.7263 C   0  0  0  0  0  0  0  0  0  0  0  0
    3.5466   -2.2952   -2.7133 C   0  0  0  0  0  0  0  0  0  0  0  0
    4.8786   -1.6951   -3.0879 C   0  0  0  0  0  0  0  0  0  0  0  0
   -1.7650   -0.3514    0.3810 H   0  0  0  0  0  0  0  0  0  0  0  0
   -3.7898    0.4766    1.4253 H   0  0  0  0  0  0  0  0  0  0  0  0
   -2.6050   -2.7541   -0.6726 H   0  0  0  0  0  0  0  0  0  0  0  0
   -5.2751    1.3168   -0.7787 H   0  0  0  0  0  0  0  0  0  0  0  0
   -5.0078   -2.9177    0.5800 H   0  0  0  0  0  0  0  0  0  0  0  0
   -4.8555   -2.2379   -1.0535 H   0  0  0  0  0  0  0  0  0  0  0  0
   -3.1894    1.3042   -2.5906 H   0  0  0  0  0  0  0  0  0  0  0  0
   -4.3608   -0.0213   -2.4464 H   0  0  0  0  0  0  0  0  0  0  0  0
   -2.7638   -1.8665    2.2256 H   0  0  0  0  0  0  0  0  0  0  0  0
    0.7946   -2.3977    2.4660 H   0  0  0  0  0  0  0  0  0  0  0  0
   -0.7978   -4.1717   -1.1383 H   0  0  0  0  0  0  0  0  0  0  0  0
    2.7823   -1.6808    1.2301 H   0  0  0  0  0  0  0  0  0  0  0  0
    1.1279   -3.4704   -2.3598 H   0  0  0  0  0  0  0  0  0  0  0  0
    0.8396    1.3061    1.2852 H   0  0  0  0  0  0  0  0  0  0  0  0
    2.4069    2.2412    2.7835 H   0  0  0  0  0  0  0  0  0  0  0  0
    3.7563    3.3381    2.4453 H   0  0  0  0  0  0  0  0  0  0  0  0
    5.1975    2.7990    0.2191 H   0  0  0  0  0  0  0  0  0  0  0  0
    4.6420    1.3865   -0.7161 H   0  0  0  0  0  0  0  0  0  0  0  0
   -0.6757    3.5891   -2.0310 H   0  0  0  0  0  0  0  0  0  0  0  0
    3.9484    0.3340    3.0857 H   0  0  0  0  0  0  0  0  0  0  0  0
    4.4393    1.6798    4.1236 H   0  0  0  0  0  0  0  0  0  0  0  0
    6.6036    0.8721    0.7547 H   0  0  0  0  0  0  0  0  0  0  0  0
    5.1996   -0.1322    1.1387 H   0  0  0  0  0  0  0  0  0  0  0  0
    3.5140    3.5990   -1.2229 H   0  0  0  0  0  0  0  0  0  0  0  0
    1.6077    4.3319   -2.5734 H   0  0  0  0  0  0  0  0  0  0  0  0
    3.9458   -1.5978   -0.8072 H   0  0  0  0  0  0  0  0  0  0  0  0
    5.6738   -2.1637   -2.5014 H   0  0  0  0  0  0  0  0  0  0  0  0
    4.8672   -0.6189   -2.8937 H   0  0  0  0  0  0  0  0  0  0  0  0
    5.0752   -1.8623   -4.1505 H   0  0  0  0  0  0  0  0  0  0  0  0
  1  5  2  0  0  0  0
  1  6  2  0  0  0  0
  1  9  1  0  0  0  0
  1 23  1  0  0  0  0
  2 17  1  0  0  0  0
  2 20  1  0  0  0  0
  3 16  1  0  0  0  0
  3 21  1  0  0  0  0
  4 22  1  0  0  0  0
  4 26  1  0  0  0  0
  7 35  1  0  0  0  0
  7 36  1  0  0  0  0
  8 39  2  0  0  0  0
  9 18  1  0  0  0  0
  9 49  1  0  0  0  0
 10 11  1  0  0  0  0
 10 19  1  0  0  0  0
 10 22  1  0  0  0  0
 11 13  2  0  0  0  0
 12 13  1  0  0  0  0
 12 22  2  0  0  0  0
 14 31  1  0  0  0  0
 14 33  1  0  0  0  0
 14 34  1  0  0  0  0
 15 30  1  0  0  0  0
 15 39  1  0  0  0  0
 15 66  1  0  0  0  0
 16 17  1  0  0  0  0
 16 18  1  0  0  0  0
 16 41  1  0  0  0  0
 17 19  1  0  0  0  0
 17 42  1  0  0  0  0
 18 20  1  0  0  0  0
 18 43  1  0  0  0  0
 19 21  1  0  0  0  0
 19 44  1  0  0  0  0
 20 45  1  0  0  0  0
 20 46  1  0  0  0  0
 21 47  1  0  0  0  0
 21 48  1  0  0  0  0
 23 24  2  0  0  0  0
 23 25  1  0  0  0  0
 24 27  1  0  0  0  0
 24 50  1  0  0  0  0
 25 28  2  0  0  0  0
 25 51  1  0  0  0  0
 26 29  1  0  0  0  0
 26 32  2  0  0  0  0
 27 30  2  0  0  0  0
 27 52  1  0  0  0  0
 28 30  1  0  0  0  0
 28 53  1  0  0  0  0
 29 31  2  0  0  0  0
 29 54  1  0  0  0  0
 31 37  1  0  0  0  0
 32 38  1  0  0  0  0
 32 59  1  0  0  0  0
 33 35  1  0  0  0  0
 33 55  1  0  0  0  0
 33 56  1  0  0  0  0
 34 36  1  0  0  0  0
 34 57  1  0  0  0  0
 34 58  1  0  0  0  0
 35 60  1  0  0  0  0
 35 61  1  0  0  0  0
 36 62  1  0  0  0  0
 36 63  1  0  0  0  0
 37 38  2  0  0  0  0
 37 64  1  0  0  0  0
 38 65  1  0  0  0  0
 39 40  1  0  0  0  0
 40 67  1  0  0  0  0
 40 68  1  0  0  0  0
 40 69  1  0  0  0  0
M  END
> <PUBCHEM_COMPOUND_CID>
11879615

> <PUBCHEM_CONFORMER_RMSD>
1.4

> <PUBCHEM_CONFORMER_DIVERSEORDER>
1
27
69
41
139
143
70
42
136
129
148
145
131
153
110
2
4
147
5
86
39
75
51
141
152
108
16
78
102
60
35
80
10
105
142
61
98
95
28
57
77
21
84
123
89
150
151
90
44
114
112
25
127
133
99
138
146
125
66
13
32
47
96
37
62
104
40
83
56
79
134
144
68
88
36
122
14
119
22
97
49
24
6
74
59
50
135
58
126
63
82
31
43
46
52
67
73
72
20
154
94
76
11
132
91
117
118
121
26
113
54
87
65
115
38
48
71
120
107
109
23
9
149
157
155
103
81
17
29
137
140
130
15
116
92
100
12
111
156
33
55
93
18
8
101
53
128
106
3
85
30
7
124
34
45
19
64

> <PUBCHEM_MMFF94_PARTIAL_CHARGES>
49
1 1.45
10 0.31
11 -0.42
12 -0.34
14 -0.84
15 -0.55
16 0.28
17 0.28
18 0.36
19 0.26
2 -0.56
20 0.28
21 0.28
22 0.25
23 -0.01
24 -0.15
25 -0.15
26 0.08
27 -0.15
28 -0.15
29 -0.15
3 -0.56
30 0.12
31 0.1
32 -0.15
33 0.37
34 0.37
35 0.28
36 0.28
37 -0.15
38 -0.15
39 0.57
4 -0.15
40 0.06
49 0.42
5 -0.65
50 0.15
51 0.15
52 0.15
53 0.15
54 0.15
59 0.15
6 -0.65
64 0.15
65 0.15
66 0.37
7 -0.56
8 -0.57
9 -0.91

> <PUBCHEM_EFFECTIVE_ROTOR_COUNT>
11.4

> <PUBCHEM_PHARMACOPHORE_FEATURES>
16
1 14 cation
1 15 donor
1 2 acceptor
1 3 acceptor
1 5 acceptor
1 6 acceptor
1 7 acceptor
1 8 acceptor
1 9 donor
3 10 12 22 cation
5 10 11 12 13 22 rings
5 2 16 17 18 20 rings
5 3 16 17 19 21 rings
6 23 24 25 27 28 30 rings
6 26 29 31 32 37 38 rings
6 7 14 33 34 35 36 rings

> <PUBCHEM_HEAVY_ATOM_COUNT>
40

> <PUBCHEM_ATOM_DEF_STEREO_COUNT>
4

> <PUBCHEM_ATOM_UDEF_STEREO_COUNT>
0

> <PUBCHEM_BOND_DEF_STEREO_COUNT>
0

> <PUBCHEM_BOND_UDEF_STEREO_COUNT>
0

> <PUBCHEM_ISOTOPIC_ATOM_COUNT>
0

> <PUBCHEM_COMPONENT_COUNT>
1

> <PUBCHEM_CACTVS_TAUTO_COUNT>
2

> <PUBCHEM_CONFORMER_ID>
00B544BF00000001

> <PUBCHEM_MMFF94_ENERGY>
106.6951

> <PUBCHEM_FEATURE_SELFOVERLAP>
81.907

> <PUBCHEM_SHAPE_FINGERPRINT>
10032420 55 17904206927900298870
10794284 68 17689146134912763072
11513181 2 17988065725777775086
12156800 1 18115318881556750806
12422481 6 18127947812047147570
14725015 67 18337112272200925947
14932702 115 18051732947201303548
15001296 14 17682104814095361608
15484559 13 17401157612473942447
15968369 26 18412260623800475420
20531524 4 18336840774443423278
20764821 26 18116707413674809136
238918 7 18272362131478139466
24941158 1 17203323382608634434
354706 132 17972065598896131350
42626532 9 18117025276169320498
45266715 3 18121474900953115221
508706 21 18337398235349538274
5171179 24 18202006486607999510
86090 222 18268713805778853664

> <PUBCHEM_SHAPE_MULTIPOLES>
751.08
10.33
7.48
2.74
3.7
0.52
0.46
-3.47
-1.64
-3.33
0.04
4.42
2.1
4.47

> <PUBCHEM_SHAPE_SELFOVERLAP>
1614.66

> <PUBCHEM_SHAPE_VOLUME>
415.3

> <PUBCHEM_COORDINATE_TYPE>
2
5
10

$$$$
