40779854
  -OEChem-12032416293D

 57 60  0     1  0  0  0  0  0999 V2000
   -4.5917   -0.8577   -0.6141 S   0  0  0  0  0  0  0  0  0  0  0  0
   -5.1372   -1.6573    0.4661 O   0  0  0  0  0  0  0  0  0  0  0  0
   -5.2187   -0.8736   -1.9218 O   0  0  0  0  0  0  0  0  0  0  0  0
   -0.0146   -2.1537    1.4280 N   0  0  2  0  0  0  0  0  0  0  0  0
    3.1019    0.6928   -1.0356 N   0  0  3  0  0  0  0  0  0  0  0  0
   -2.9120   -1.2013   -0.7600 N   0  0  0  0  0  0  0  0  0  0  0  0
    1.4484   -1.9518   -0.7135 C   0  0  2  0  0  0  0  0  0  0  0  0
    1.8297   -0.8669    0.3193 C   0  0  2  0  0  0  0  0  0  0  0  0
   -0.8830   -2.1004    0.2209 C   0  0  2  0  0  0  0  0  0  0  0  0
   -0.0490   -1.8305   -1.0513 C   0  0  0  0  0  0  0  0  0  0  0  0
    0.8380   -0.9426    1.5021 C   0  0  0  0  0  0  0  0  0  0  0  0
    1.6519   -3.3155   -0.0260 C   0  0  0  0  0  0  0  0  0  0  0  0
    0.8721   -3.3359    1.3007 C   0  0  0  0  0  0  0  0  0  0  0  0
    1.8893    0.5376   -0.2765 C   0  0  0  0  0  0  0  0  0  0  0  0
   -2.0306   -1.0991    0.3712 C   0  0  0  0  0  0  0  0  0  0  0  0
    3.0439    0.5491   -2.4935 C   0  0  0  0  0  0  0  0  0  0  0  0
    4.3296    0.9697   -0.4127 C   0  0  0  0  0  0  0  0  0  0  0  0
   -4.5549    0.8270   -0.0799 C   0  0  0  0  0  0  0  0  0  0  0  0
    4.3928    1.1079    0.9740 C   0  0  0  0  0  0  0  0  0  0  0  0
    5.4859    1.1066   -1.1806 C   0  0  0  0  0  0  0  0  0  0  0  0
    5.6123    1.3831    1.5927 C   0  0  0  0  0  0  0  0  0  0  0  0
    6.7055    1.3817   -0.5619 C   0  0  0  0  0  0  0  0  0  0  0  0
   -4.5656    1.8571   -1.0203 C   0  0  0  0  0  0  0  0  0  0  0  0
   -4.5115    1.1262    1.2817 C   0  0  0  0  0  0  0  0  0  0  0  0
    6.7686    1.5200    0.8248 C   0  0  0  0  0  0  0  0  0  0  0  0
   -4.5328    3.1864   -0.5992 C   0  0  0  0  0  0  0  0  0  0  0  0
   -4.4788    2.4554    1.7029 C   0  0  0  0  0  0  0  0  0  0  0  0
   -4.4894    3.4856    0.7625 C   0  0  0  0  0  0  0  0  0  0  0  0
    2.0590   -1.8992   -1.6188 H   0  0  0  0  0  0  0  0  0  0  0  0
    2.8177   -1.1385    0.7152 H   0  0  0  0  0  0  0  0  0  0  0  0
   -1.3541   -3.0888    0.1104 H   0  0  0  0  0  0  0  0  0  0  0  0
   -0.2612   -0.8497   -1.4870 H   0  0  0  0  0  0  0  0  0  0  0  0
   -0.3088   -2.5733   -1.8166 H   0  0  0  0  0  0  0  0  0  0  0  0
    1.4013   -0.9593    2.4445 H   0  0  0  0  0  0  0  0  0  0  0  0
    0.2137   -0.0449    1.5692 H   0  0  0  0  0  0  0  0  0  0  0  0
    2.7169   -3.4924    0.1650 H   0  0  0  0  0  0  0  0  0  0  0  0
    1.3014   -4.1217   -0.6817 H   0  0  0  0  0  0  0  0  0  0  0  0
    0.2800   -4.2567    1.3715 H   0  0  0  0  0  0  0  0  0  0  0  0
    1.5684   -3.3701    2.1483 H   0  0  0  0  0  0  0  0  0  0  0  0
    1.8100    1.3090    0.4993 H   0  0  0  0  0  0  0  0  0  0  0  0
    1.0165    0.7343   -0.9083 H   0  0  0  0  0  0  0  0  0  0  0  0
   -1.6556   -0.0721    0.4275 H   0  0  0  0  0  0  0  0  0  0  0  0
   -2.5704   -1.3139    1.2999 H   0  0  0  0  0  0  0  0  0  0  0  0
   -2.4944   -1.0583   -1.6875 H   0  0  0  0  0  0  0  0  0  0  0  0
    2.0245    0.3333   -2.8326 H   0  0  0  0  0  0  0  0  0  0  0  0
    3.6719   -0.2818   -2.8332 H   0  0  0  0  0  0  0  0  0  0  0  0
    3.3498    1.4759   -2.9911 H   0  0  0  0  0  0  0  0  0  0  0  0
    3.5323    1.0095    1.6266 H   0  0  0  0  0  0  0  0  0  0  0  0
    5.4928    1.0091   -2.2614 H   0  0  0  0  0  0  0  0  0  0  0  0
    5.6627    1.4899    2.6724 H   0  0  0  0  0  0  0  0  0  0  0  0
    7.6064    1.4884   -1.1590 H   0  0  0  0  0  0  0  0  0  0  0  0
   -4.5910    1.6466   -2.0857 H   0  0  0  0  0  0  0  0  0  0  0  0
   -4.4983    0.3402    2.0313 H   0  0  0  0  0  0  0  0  0  0  0  0
    7.7182    1.7339    1.3064 H   0  0  0  0  0  0  0  0  0  0  0  0
   -4.5390    3.9887   -1.3313 H   0  0  0  0  0  0  0  0  0  0  0  0
   -4.4437    2.6886    2.7631 H   0  0  0  0  0  0  0  0  0  0  0  0
   -4.4630    4.5206    1.0906 H   0  0  0  0  0  0  0  0  0  0  0  0
  1  2  2  0  0  0  0
  1  3  2  0  0  0  0
  1  6  1  0  0  0  0
  1 18  1  0  0  0  0
  4  9  1  0  0  0  0
  4 11  1  0  0  0  0
  4 13  1  0  0  0  0
  5 14  1  0  0  0  0
  5 16  1  0  0  0  0
  5 17  1  0  0  0  0
  6 15  1  0  0  0  0
  6 44  1  0  0  0  0
  7  8  1  0  0  0  0
  7 10  1  0  0  0  0
  7 12  1  0  0  0  0
  7 29  1  0  0  0  0
  8 11  1  0  0  0  0
  8 14  1  0  0  0  0
  8 30  1  0  0  0  0
  9 10  1  0  0  0  0
  9 15  1  0  0  0  0
  9 31  1  0  0  0  0
 10 32  1  0  0  0  0
 10 33  1  0  0  0  0
 11 34  1  0  0  0  0
 11 35  1  0  0  0  0
 12 13  1  0  0  0  0
 12 36  1  0  0  0  0
 12 37  1  0  0  0  0
 13 38  1  0  0  0  0
 13 39  1  0  0  0  0
 14 40  1  0  0  0  0
 14 41  1  0  0  0  0
 15 42  1  0  0  0  0
 15 43  1  0  0  0  0
 16 45  1  0  0  0  0
 16 46  1  0  0  0  0
 16 47  1  0  0  0  0
 17 19  2  0  0  0  0
 17 20  1  0  0  0  0
 18 23  2  0  0  0  0
 18 24  1  0  0  0  0
 19 21  1  0  0  0  0
 19 48  1  0  0  0  0
 20 22  2  0  0  0  0
 20 49  1  0  0  0  0
 21 25  2  0  0  0  0
 21 50  1  0  0  0  0
 22 25  1  0  0  0  0
 22 51  1  0  0  0  0
 23 26  1  0  0  0  0
 23 52  1  0  0  0  0
 24 27  2  0  0  0  0
 24 53  1  0  0  0  0
 25 54  1  0  0  0  0
 26 28  2  0  0  0  0
 26 55  1  0  0  0  0
 27 28  1  0  0  0  0
 27 56  1  0  0  0  0
 28 57  1  0  0  0  0
M  END
> <PUBCHEM_COMPOUND_CID>
40779854

> <PUBCHEM_CONFORMER_RMSD>
1

> <PUBCHEM_CONFORMER_DIVERSEORDER>
1
98
55
33
28
116
73
111
118
56
24
64
67
62
60
121
117
6
41
105
91
36
94
5
122
103
85
115
10
89
59
108
53
32
52
75
99
58
65
21
39
8
78
22
112
93
57
79
66
50
48
27
71
4
92
19
113
96
34
25
101
54
88
14
69
35
86
12
76
97
72
102
110
29
77
26
42
83
30
90
44
95
7
31
23
82
119
107
51
11
81
114
61
38
100
16
43
120
3
63
49
46
106
70
87
74
18
45
20
13
84
109
37
40
2
17
104
68
80
47
9
15

> <PUBCHEM_MMFF94_PARTIAL_CHARGES>
35
1 1.45
11 0.27
13 0.27
14 0.37
15 0.36
16 0.37
17 0.1
18 -0.01
19 -0.15
2 -0.65
20 -0.15
21 -0.15
22 -0.15
23 -0.15
24 -0.15
25 -0.15
26 -0.15
27 -0.15
28 -0.15
3 -0.65
4 -0.81
44 0.42
48 0.15
49 0.15
5 -0.84
50 0.15
51 0.15
52 0.15
53 0.15
54 0.15
55 0.15
56 0.15
57 0.15
6 -0.91
9 0.27

> <PUBCHEM_EFFECTIVE_ROTOR_COUNT>
8.2

> <PUBCHEM_PHARMACOPHORE_FEATURES>
8
1 2 acceptor
1 3 acceptor
1 4 cation
1 5 cation
1 6 donor
6 17 19 20 21 22 25 rings
6 18 23 24 26 27 28 rings
8 4 7 8 9 10 11 12 13 rings

> <PUBCHEM_HEAVY_ATOM_COUNT>
28

> <PUBCHEM_ATOM_DEF_STEREO_COUNT>
3

> <PUBCHEM_ATOM_UDEF_STEREO_COUNT>
0

> <PUBCHEM_BOND_DEF_STEREO_COUNT>
0

> <PUBCHEM_BOND_UDEF_STEREO_COUNT>
0

> <PUBCHEM_ISOTOPIC_ATOM_COUNT>
0

> <PUBCHEM_COMPONENT_COUNT>
1

> <PUBCHEM_CACTVS_TAUTO_COUNT>
1

> <PUBCHEM_CONFORMER_ID>
026E404E00000001

> <PUBCHEM_MMFF94_ENERGY>
79.3662

> <PUBCHEM_FEATURE_SELFOVERLAP>
40.614

> <PUBCHEM_SHAPE_FINGERPRINT>
10042902 136 9223225247863015016
10670039 82 18413105082552027929
10692045 39 18333725789810328850
11135609 12 7997684359396949917
11135609 149 17273159920277562454
11135609 201 18342745105003775035
11434127 23 17775568632795748061
11720765 8 17339295410964469814
11796584 16 9655586196647898475
12107183 9 18041268951259202122
12422481 6 17677323914568425700
12633257 1 16732985357629137718
13103583 49 8142089783982197455
13590594 115 17685781216117232170
13726171 33 17702959041303014505
13782708 43 11386353864828731728
13914758 101 18131634487625775166
14114206 34 14189580698172315587
14347329 18 18337396036621915976
14466204 15 18408882958038673952
14739800 52 18341317933893254851
14950920 106 15430331247171660397
14955137 171 12107784121131054942
15119646 57 17274274855217528257
15163728 17 18335989705072420178
15183329 4 17418096520453021554
16989378 47 9799394659971713584
17780758 139 11818988578737881647
21033648 29 16806165437634136055
21424621 283 18411979196083754352
21458453 9 12468644984086132412
23559900 14 17841995481864552247
2838139 119 18272085024340607496
3459 39 18410844469724083224
397830 11 11891622377051034684
4098825 35 16845023350574121455
4487111 67 18195808466438032249
46194498 28 16701447013295288825
469060 322 18262255412253757721
5104073 3 18260551074192967139
5283173 99 18060139885931759568
6299153 45 18187918431568486026
6371009 1 18261950868369513573
6608658 132 18270382984730743165
7918774 8 8142089762660517600
7970288 3 9583249327068368280
9981440 41 18260832613631259979

> <PUBCHEM_SHAPE_MULTIPOLES>
553.39
16.13
3.9
1.75
6.89
0.57
0.25
-15.19
0.25
-2.99
-0.97
0.38
-0.24
-0.84

> <PUBCHEM_SHAPE_SELFOVERLAP>
1165.372

> <PUBCHEM_SHAPE_VOLUME>
312.5

> <PUBCHEM_COORDINATE_TYPE>
2
5
10

$$$$
