75536700
  -OEChem-12032416313D

 51 53  0     1  0  0  0  0  0999 V2000
    3.5132    1.9682   -0.0909 S   0  0  0  0  0  0  0  0  0  0  0  0
   -0.7351    0.8472   -1.3410 O   0  0  0  0  0  0  0  0  0  0  0  0
   -1.4326    0.5738    2.1724 O   0  0  0  0  0  0  0  0  0  0  0  0
   -7.7063   -0.5199    0.0939 O   0  0  0  0  0  0  0  0  0  0  0  0
    3.4551    2.4906    1.2609 O   0  0  0  0  0  0  0  0  0  0  0  0
    4.1712    2.7260   -1.1380 O   0  0  0  0  0  0  0  0  0  0  0  0
   -3.5236   -0.8254    0.2894 N   0  0  0  0  0  0  0  0  0  0  0  0
    1.9438    1.5605   -0.6055 N   0  0  0  0  0  0  0  0  0  0  0  0
   -2.5725    0.2452    0.0387 C   0  0  1  0  0  0  0  0  0  0  0  0
   -1.2900    0.1205    0.8402 C   0  0  1  0  0  0  0  0  0  0  0  0
   -0.3531    1.0106    0.0349 C   0  0  1  0  0  0  0  0  0  0  0  0
   -4.8459   -0.4864   -0.2311 C   0  0  0  0  0  0  0  0  0  0  0  0
   -2.0391    0.2416   -1.3846 C   0  0  0  0  0  0  0  0  0  0  0  0
   -5.6801   -1.7547   -0.4323 C   0  0  0  0  0  0  0  0  0  0  0  0
   -5.5771    0.4785    0.7074 C   0  0  0  0  0  0  0  0  0  0  0  0
    1.1120    0.6513    0.2070 C   0  0  0  0  0  0  0  0  0  0  0  0
   -7.0992   -1.3940   -0.8577 C   0  0  0  0  0  0  0  0  0  0  0  0
   -7.0018    0.7155    0.2187 C   0  0  0  0  0  0  0  0  0  0  0  0
    4.2966    0.3847   -0.0298 C   0  0  0  0  0  0  0  0  0  0  0  0
    4.9501   -0.1136   -1.1568 C   0  0  0  0  0  0  0  0  0  0  0  0
    4.2588   -0.3675    1.1443 C   0  0  0  0  0  0  0  0  0  0  0  0
    5.5660   -1.3642   -1.1098 C   0  0  0  0  0  0  0  0  0  0  0  0
    4.8745   -1.6182    1.1912 C   0  0  0  0  0  0  0  0  0  0  0  0
    5.5283   -2.1166    0.0642 C   0  0  0  0  0  0  0  0  0  0  0  0
    6.1867   -3.4538    0.1144 C   0  0  0  0  0  0  0  0  0  0  0  0
   -3.0055    1.2264    0.2687 H   0  0  0  0  0  0  0  0  0  0  0  0
   -0.9335   -0.9170    0.8560 H   0  0  0  0  0  0  0  0  0  0  0  0
   -0.5009    2.0678    0.2924 H   0  0  0  0  0  0  0  0  0  0  0  0
   -4.7541   -0.0142   -1.2184 H   0  0  0  0  0  0  0  0  0  0  0  0
   -2.6732    0.8025   -2.0776 H   0  0  0  0  0  0  0  0  0  0  0  0
   -1.9103   -0.7732   -1.7786 H   0  0  0  0  0  0  0  0  0  0  0  0
   -3.5844   -1.0128    1.2897 H   0  0  0  0  0  0  0  0  0  0  0  0
   -5.7265   -2.3147    0.5111 H   0  0  0  0  0  0  0  0  0  0  0  0
   -5.2193   -2.4084   -1.1819 H   0  0  0  0  0  0  0  0  0  0  0  0
   -5.0665    1.4432    0.7871 H   0  0  0  0  0  0  0  0  0  0  0  0
   -5.6213    0.0452    1.7155 H   0  0  0  0  0  0  0  0  0  0  0  0
    1.2960   -0.3704   -0.1435 H   0  0  0  0  0  0  0  0  0  0  0  0
    1.3841    0.7221    1.2644 H   0  0  0  0  0  0  0  0  0  0  0  0
   -7.1119   -0.9217   -1.8471 H   0  0  0  0  0  0  0  0  0  0  0  0
   -7.7113   -2.2996   -0.9161 H   0  0  0  0  0  0  0  0  0  0  0  0
   -7.5439    1.3360    0.9394 H   0  0  0  0  0  0  0  0  0  0  0  0
   -7.0119    1.2405   -0.7437 H   0  0  0  0  0  0  0  0  0  0  0  0
   -1.7504    1.4923    2.1507 H   0  0  0  0  0  0  0  0  0  0  0  0
    1.7418    1.5690   -1.6132 H   0  0  0  0  0  0  0  0  0  0  0  0
    4.9855    0.4518   -2.0837 H   0  0  0  0  0  0  0  0  0  0  0  0
    3.7535   -0.0001    2.0328 H   0  0  0  0  0  0  0  0  0  0  0  0
    6.0721   -1.7417   -1.9943 H   0  0  0  0  0  0  0  0  0  0  0  0
    4.8392   -2.1946    2.1119 H   0  0  0  0  0  0  0  0  0  0  0  0
    7.2269   -3.3484    0.4383 H   0  0  0  0  0  0  0  0  0  0  0  0
    5.6688   -4.1235    0.8093 H   0  0  0  0  0  0  0  0  0  0  0  0
    6.1723   -3.9385   -0.8678 H   0  0  0  0  0  0  0  0  0  0  0  0
  1  5  2  0  0  0  0
  1  6  2  0  0  0  0
  1  8  1  0  0  0  0
  1 19  1  0  0  0  0
  2 11  1  0  0  0  0
  2 13  1  0  0  0  0
  3 10  1  0  0  0  0
  3 43  1  0  0  0  0
  4 17  1  0  0  0  0
  4 18  1  0  0  0  0
  7  9  1  0  0  0  0
  7 12  1  0  0  0  0
  7 32  1  0  0  0  0
  8 16  1  0  0  0  0
  8 44  1  0  0  0  0
  9 10  1  0  0  0  0
  9 13  1  0  0  0  0
  9 26  1  0  0  0  0
 10 11  1  0  0  0  0
 10 27  1  0  0  0  0
 11 16  1  0  0  0  0
 11 28  1  0  0  0  0
 12 14  1  0  0  0  0
 12 15  1  0  0  0  0
 12 29  1  0  0  0  0
 13 30  1  0  0  0  0
 13 31  1  0  0  0  0
 14 17  1  0  0  0  0
 14 33  1  0  0  0  0
 14 34  1  0  0  0  0
 15 18  1  0  0  0  0
 15 35  1  0  0  0  0
 15 36  1  0  0  0  0
 16 37  1  0  0  0  0
 16 38  1  0  0  0  0
 17 39  1  0  0  0  0
 17 40  1  0  0  0  0
 18 41  1  0  0  0  0
 18 42  1  0  0  0  0
 19 20  2  0  0  0  0
 19 21  1  0  0  0  0
 20 22  1  0  0  0  0
 20 45  1  0  0  0  0
 21 23  2  0  0  0  0
 21 46  1  0  0  0  0
 22 24  2  0  0  0  0
 22 47  1  0  0  0  0
 23 24  1  0  0  0  0
 23 48  1  0  0  0  0
 24 25  1  0  0  0  0
 25 49  1  0  0  0  0
 25 50  1  0  0  0  0
 25 51  1  0  0  0  0
M  END
> <PUBCHEM_COMPOUND_CID>
75536700

> <PUBCHEM_CONFORMER_RMSD>
0.8

> <PUBCHEM_CONFORMER_DIVERSEORDER>
1
248
113
130
148
247
212
77
287
195
246
89
249
90
22
184
106
139
297
19
57
83
53
209
286
295
282
136
115
236
211
151
32
138
86
293
102
245
84
95
291
14
267
181
289
108
183
292
200
223
10
238
275
254
272
143
34
261
87
174
51
265
123
284
270
68
170
69
253
240
72
31
235
227
64
60
255
43
173
98
221
231
204
226
277
54
9
167
56
15
182
26
191
288
175
228
263
294
120
75
147
100
137
251
208
61
213
218
234
8
6
256
37
243
280
171
185
198
129
257
232
41
124
214
201
62
271
158
18
82
131
140
237
168
4
24
250
179
273
5
196
76
178
276
132
161
109
16
117
163
203
134
80
40
274
125
199
103
215
88
3
281
50
63
169
193
269
20
154
279
290
104
144
59
220
164
166
116
47
259
146
264
157
197
189
119
153
207
202
71
239
29
7
176
216
262
241
149
55
93
110
172
242
99
49
33
268
35
85
122
135
186
252
156
145
244
127
30
44
107
150
58
23
28
126
81
91
225
39
230
296
101
52
187
278
111
233
219
258
142
67
180
66
190
94
266
133
283
260
11
118
112
285
92
159
194
70
27
210
205
74
45
12
105
217
79
38
121
36
97
48
224
177
42
78
128
206
162
160
96
192
65
46
17
25
222
73
152
2
229
155
165
114
13
141
21
188

> <PUBCHEM_MMFF94_PARTIAL_CHARGES>
30
1 1.45
10 0.28
11 0.28
12 0.27
13 0.28
16 0.36
17 0.28
18 0.28
19 -0.01
2 -0.56
20 -0.15
21 -0.15
22 -0.15
23 -0.15
24 -0.14
25 0.14
3 -0.68
32 0.36
4 -0.56
43 0.4
44 0.42
45 0.15
46 0.15
47 0.15
48 0.15
5 -0.65
6 -0.65
7 -0.9
8 -0.91
9 0.27

> <PUBCHEM_EFFECTIVE_ROTOR_COUNT>
8.2

> <PUBCHEM_PHARMACOPHORE_FEATURES>
12
1 2 acceptor
1 3 acceptor
1 3 donor
1 4 acceptor
1 5 acceptor
1 6 acceptor
1 7 cation
1 7 donor
1 8 donor
5 2 9 10 11 13 rings
6 19 20 21 22 23 24 rings
6 4 12 14 15 17 18 rings

> <PUBCHEM_HEAVY_ATOM_COUNT>
25

> <PUBCHEM_ATOM_DEF_STEREO_COUNT>
3

> <PUBCHEM_ATOM_UDEF_STEREO_COUNT>
0

> <PUBCHEM_BOND_DEF_STEREO_COUNT>
0

> <PUBCHEM_BOND_UDEF_STEREO_COUNT>
0

> <PUBCHEM_ISOTOPIC_ATOM_COUNT>
0

> <PUBCHEM_COMPONENT_COUNT>
1

> <PUBCHEM_CACTVS_TAUTO_COUNT>
1

> <PUBCHEM_CONFORMER_ID>
0480993C00000001

> <PUBCHEM_MMFF94_ENERGY>
37.6032

> <PUBCHEM_FEATURE_SELFOVERLAP>
60.916

> <PUBCHEM_SHAPE_FINGERPRINT>
10 15 15697993059027805291
10670039 82 14779540137396913710
10906281 52 13046216123196376077
11719270 70 17561367275193772351
12236239 1 18272090522083499153
12616971 3 17774994704610012421
13533116 47 18412262861098270584
1361 4 18266739271826872039
13617811 41 15502373435029496479
13685833 64 18409445865411252282
13782708 43 18412541046509840623
13914758 101 18341615880919040345
14211702 104 18263648536183147499
14251764 75 10374997776453656058
14347332 77 18261106327369749693
14347424 109 18201997737696424464
15183329 4 18334013895830857011
15188451 53 17846496994047600386
15419008 42 17700416875861919597
15475509 8 17240766147091149597
15685185 35 9294127264288147554
16994733 274 9079121055547632983
1979834 28 16773518776884144198
20028762 73 18273214175470109310
20505436 4 17415554574746862316
20567600 234 12391507603008941083
20645477 70 18260828211764151300
21130935 74 18340486768234261387
21150785 3 12757156775032147747
21344244 181 18040718086616479611
21344244 78 17346593059302012088
21521721 280 9511464446531986341
21641784 216 14923932428098823007
21792934 111 15195296283396273403
22061861 79 18187359939485266583
221357 26 17967251966906850156
2215653 11 17676490548730512627
2303208 19 17894344488903475565
23081809 10 18272092734039291805
23522609 53 18121532147944695836
23536379 177 18412263965337440617
23559900 14 16878236341248089324
23569943 247 18115021879962672659
255183 451 18336834092080725740
29717793 49 18409731776461562108
3004659 81 18342742931233240972
3014965 18 18409448089813928077
3472631 163 10953755386876975122
34797466 226 16298391287738039766
3886686 26 16408751219796865934
394071 54 16951131810238874284
397830 11 11239707635044164085
4072396 5 16845576421986873413
4073 2 18117842324454791234
4340502 62 13254799035855649356
46194498 28 17385446536062890396
465052 167 18342177752592940926
5085150 59 16988559139568438487
531348 171 18413105053410143799
5372103 7 14997434875754495830
54039377 194 18265336111018548806
59682541 52 18187080667584120487
59755656 215 17312817156907152795
7970288 3 18267303132703828126
960060 61 17749116591023747302
9965369 4 18343304756517199505

> <PUBCHEM_SHAPE_MULTIPOLES>
479.03
21.08
2.58
1.31
23.17
0.54
0.16
12.24
-1.26
-5.44
-0.1
-0.6
-0.2
-1.07

> <PUBCHEM_SHAPE_SELFOVERLAP>
980.708

> <PUBCHEM_SHAPE_VOLUME>
277.5

> <PUBCHEM_COORDINATE_TYPE>
2
5
10

$$$$
