7134491
  -OEChem-12032416313D

 68 70  0     1  0  0  0  0  0999 V2000
    0.6828    3.5780    1.6484 S   0  0  0  0  0  0  0  0  0  0  0  0
    2.0750   -2.4058   -2.0663 O   0  0  0  0  0  0  0  0  0  0  0  0
   -0.1888   -4.4457    1.2836 O   0  0  0  0  0  0  0  0  0  0  0  0
    2.5993   -4.2043    1.8086 O   0  0  0  0  0  0  0  0  0  0  0  0
   -2.5251   -2.0399   -1.6715 O   0  0  0  0  0  0  0  0  0  0  0  0
    3.4105   -0.2648   -2.3479 O   0  0  0  0  0  0  0  0  0  0  0  0
   -1.5336    0.8233    1.6830 O   0  0  0  0  0  0  0  0  0  0  0  0
   -3.6075    1.3368    2.4678 O   0  0  0  0  0  0  0  0  0  0  0  0
    5.5048    0.5686    0.9339 O   0  0  0  0  0  0  0  0  0  0  0  0
   -1.4696   -1.9863    0.3981 N   0  0  0  0  0  0  0  0  0  0  0  0
    2.9959    0.4915   -0.1856 N   0  0  0  0  0  0  0  0  0  0  0  0
    6.0903    2.1292   -0.6467 N   0  0  0  0  0  0  0  0  0  0  0  0
   -4.2809    0.0020   -0.2118 C   0  0  0  0  0  0  0  0  0  0  0  0
   -4.6442   -0.0322   -1.7027 C   0  0  0  0  0  0  0  0  0  0  0  0
   -5.6257    0.3760    0.4268 C   0  0  0  0  0  0  0  0  0  0  0  0
   -5.6233    1.1230   -1.8995 C   0  0  0  0  0  0  0  0  0  0  0  0
   -6.2529    1.3858   -0.5315 C   0  0  0  0  0  0  0  0  0  0  0  0
   -3.7840   -1.3595    0.2784 C   0  0  0  0  0  0  0  0  0  0  0  0
   -0.1645   -2.4277   -0.0434 C   0  0  1  0  0  0  0  0  0  0  0  0
    2.0918   -1.6150   -0.8836 C   0  0  1  0  0  0  0  0  0  0  0  0
    0.6691   -1.2194   -0.4836 C   0  0  0  0  0  0  0  0  0  0  0  0
   -3.2102    1.0665    0.0778 C   0  0  0  0  0  0  0  0  0  0  0  0
    0.5351   -3.2325    1.0600 C   0  0  2  0  0  0  0  0  0  0  0  0
    1.9668   -3.6123    0.6736 C   0  0  1  0  0  0  0  0  0  0  0  0
    2.7836   -2.3975    0.2306 C   0  0  0  0  0  0  0  0  0  0  0  0
   -2.5453   -1.8295   -0.4618 C   0  0  0  0  0  0  0  0  0  0  0  0
    2.8978   -0.4002   -1.2401 C   0  0  0  0  0  0  0  0  0  0  0  0
   -2.8544    1.1008    1.5351 C   0  0  0  0  0  0  0  0  0  0  0  0
    3.7372    1.7295   -0.2637 C   0  0  1  0  0  0  0  0  0  0  0  0
    3.1756    2.8045    0.6748 C   0  0  0  0  0  0  0  0  0  0  0  0
    5.1803    1.4098    0.0990 C   0  0  0  0  0  0  0  0  0  0  0  0
    1.7335    3.1353    0.3707 C   0  0  0  0  0  0  0  0  0  0  0  0
    1.0928    3.1356   -0.8488 C   0  0  0  0  0  0  0  0  0  0  0  0
   -0.2785    3.5044   -0.7327 C   0  0  0  0  0  0  0  0  0  0  0  0
   -0.6337    3.7717    0.5710 C   0  0  0  0  0  0  0  0  0  0  0  0
   -3.7810    0.0778   -2.3671 H   0  0  0  0  0  0  0  0  0  0  0  0
   -5.1492   -0.9717   -1.9609 H   0  0  0  0  0  0  0  0  0  0  0  0
   -6.2763   -0.5087    0.4630 H   0  0  0  0  0  0  0  0  0  0  0  0
   -5.5882    0.7632    1.4448 H   0  0  0  0  0  0  0  0  0  0  0  0
   -6.3786    0.8783   -2.6534 H   0  0  0  0  0  0  0  0  0  0  0  0
   -5.0962    2.0194   -2.2458 H   0  0  0  0  0  0  0  0  0  0  0  0
   -6.0315    2.4098   -0.2096 H   0  0  0  0  0  0  0  0  0  0  0  0
   -7.3423    1.2816   -0.5607 H   0  0  0  0  0  0  0  0  0  0  0  0
   -4.5487   -2.1275    0.0973 H   0  0  0  0  0  0  0  0  0  0  0  0
   -3.6302   -1.3663    1.3634 H   0  0  0  0  0  0  0  0  0  0  0  0
   -0.3244   -3.0807   -0.9116 H   0  0  0  0  0  0  0  0  0  0  0  0
    0.6685   -0.4827    0.3291 H   0  0  0  0  0  0  0  0  0  0  0  0
    0.1699   -0.7322   -1.3326 H   0  0  0  0  0  0  0  0  0  0  0  0
   -2.3099    0.8809   -0.5212 H   0  0  0  0  0  0  0  0  0  0  0  0
   -3.5404    2.0754   -0.1959 H   0  0  0  0  0  0  0  0  0  0  0  0
    0.5315   -2.6844    2.0101 H   0  0  0  0  0  0  0  0  0  0  0  0
    1.9552   -4.3730   -0.1164 H   0  0  0  0  0  0  0  0  0  0  0  0
    2.9773   -1.7738    1.1125 H   0  0  0  0  0  0  0  0  0  0  0  0
    3.7738   -2.7425   -0.0973 H   0  0  0  0  0  0  0  0  0  0  0  0
   -1.5684   -1.7195    1.3732 H   0  0  0  0  0  0  0  0  0  0  0  0
    2.9783   -2.7229   -2.2376 H   0  0  0  0  0  0  0  0  0  0  0  0
   -0.2137   -4.9405    0.4468 H   0  0  0  0  0  0  0  0  0  0  0  0
    3.5021   -4.4513    1.5448 H   0  0  0  0  0  0  0  0  0  0  0  0
    2.5964    0.2553    0.7167 H   0  0  0  0  0  0  0  0  0  0  0  0
    3.7085    2.0755   -1.3044 H   0  0  0  0  0  0  0  0  0  0  0  0
   -1.2598    0.8349    2.6249 H   0  0  0  0  0  0  0  0  0  0  0  0
    3.7716    3.7218    0.5864 H   0  0  0  0  0  0  0  0  0  0  0  0
    3.2736    2.4666    1.7153 H   0  0  0  0  0  0  0  0  0  0  0  0
    7.0880    2.0000   -0.5152 H   0  0  0  0  0  0  0  0  0  0  0  0
    5.8087    2.8187   -1.3362 H   0  0  0  0  0  0  0  0  0  0  0  0
    1.5701    2.8914   -1.7889 H   0  0  0  0  0  0  0  0  0  0  0  0
   -0.9697    3.5700   -1.5629 H   0  0  0  0  0  0  0  0  0  0  0  0
   -1.6033    4.0724    0.9420 H   0  0  0  0  0  0  0  0  0  0  0  0
  1 32  1  0  0  0  0
  1 35  1  0  0  0  0
  2 20  1  0  0  0  0
  2 56  1  0  0  0  0
  3 23  1  0  0  0  0
  3 57  1  0  0  0  0
  4 24  1  0  0  0  0
  4 58  1  0  0  0  0
  5 26  2  0  0  0  0
  6 27  2  0  0  0  0
  7 28  1  0  0  0  0
  7 61  1  0  0  0  0
  8 28  2  0  0  0  0
  9 31  2  0  0  0  0
 10 19  1  0  0  0  0
 10 26  1  0  0  0  0
 10 55  1  0  0  0  0
 11 27  1  0  0  0  0
 11 29  1  0  0  0  0
 11 59  1  0  0  0  0
 12 31  1  0  0  0  0
 12 64  1  0  0  0  0
 12 65  1  0  0  0  0
 13 14  1  0  0  0  0
 13 15  1  0  0  0  0
 13 18  1  0  0  0  0
 13 22  1  0  0  0  0
 14 16  1  0  0  0  0
 14 36  1  0  0  0  0
 14 37  1  0  0  0  0
 15 17  1  0  0  0  0
 15 38  1  0  0  0  0
 15 39  1  0  0  0  0
 16 17  1  0  0  0  0
 16 40  1  0  0  0  0
 16 41  1  0  0  0  0
 17 42  1  0  0  0  0
 17 43  1  0  0  0  0
 18 26  1  0  0  0  0
 18 44  1  0  0  0  0
 18 45  1  0  0  0  0
 19 21  1  0  0  0  0
 19 23  1  0  0  0  0
 19 46  1  0  0  0  0
 20 21  1  0  0  0  0
 20 25  1  0  0  0  0
 20 27  1  0  0  0  0
 21 47  1  0  0  0  0
 21 48  1  0  0  0  0
 22 28  1  0  0  0  0
 22 49  1  0  0  0  0
 22 50  1  0  0  0  0
 23 24  1  0  0  0  0
 23 51  1  0  0  0  0
 24 25  1  0  0  0  0
 24 52  1  0  0  0  0
 25 53  1  0  0  0  0
 25 54  1  0  0  0  0
 29 30  1  0  0  0  0
 29 31  1  0  0  0  0
 29 60  1  0  0  0  0
 30 32  1  0  0  0  0
 30 62  1  0  0  0  0
 30 63  1  0  0  0  0
 32 33  2  0  0  0  0
 33 34  1  0  0  0  0
 33 66  1  0  0  0  0
 34 35  2  0  0  0  0
 34 67  1  0  0  0  0
 35 68  1  0  0  0  0
M  END
> <PUBCHEM_COMPOUND_CID>
7134491

> <PUBCHEM_CONFORMER_RMSD>
1.2

> <PUBCHEM_CONFORMER_DIVERSEORDER>
1
42
133
71
110
186
92
119
64
161
185
189
20
85
38
72
125
144
173
129
40
8
103
46
62
151
178
118
168
122
164
99
101
11
3
9
98
75
69
59
44
76
112
128
96
167
135
155
67
136
87
108
73
23
78
171
48
163
184
22
172
174
70
16
80
147
170
166
190
175
58
180
95
121
113
14
132
7
89
137
45
34
114
146
148
124
126
152
5
51
37
13
65
117
79
74
104
47
177
181
169
158
41
54
91
165
150
102
10
33
93
2
107
134
60
143
30
105
31
18
21
28
138
81
127
36
15
83
6
77
176
82
120
52
156
106
131
142
49
68
123
32
26
162
160
88
55
157
17
43
56
187
66
12
140
27
188
57
182
90
4
63
50
145
19
139
154
24
159
100
61
130
109
29
183
84
53
39
35
116
111
153
86
141
115
97
25
149
94
179

> <PUBCHEM_MMFF94_PARTIAL_CHARGES>
39
1 -0.08
10 -0.73
11 -0.73
12 -0.8
18 0.06
19 0.3
2 -0.68
20 0.34
22 0.06
23 0.28
24 0.28
26 0.57
27 0.57
28 0.66
29 0.36
3 -0.68
30 0.18
31 0.57
32 -0.14
33 -0.15
34 -0.15
35 -0.11
4 -0.68
5 -0.57
55 0.37
56 0.4
57 0.4
58 0.4
59 0.37
6 -0.57
61 0.5
64 0.37
65 0.37
66 0.15
67 0.15
68 0.15
7 -0.65
8 -0.57
9 -0.57

> <PUBCHEM_EFFECTIVE_ROTOR_COUNT>
14.2

> <PUBCHEM_PHARMACOPHORE_FEATURES>
18
1 10 donor
1 11 donor
1 12 donor
1 2 acceptor
1 2 donor
1 3 acceptor
1 3 donor
1 4 acceptor
1 4 donor
1 5 acceptor
1 6 acceptor
1 7 acceptor
1 8 acceptor
1 9 acceptor
3 7 8 28 anion
5 1 32 33 34 35 rings
5 13 14 15 16 17 rings
6 19 20 21 23 24 25 rings

> <PUBCHEM_HEAVY_ATOM_COUNT>
35

> <PUBCHEM_ATOM_DEF_STEREO_COUNT>
5

> <PUBCHEM_ATOM_UDEF_STEREO_COUNT>
0

> <PUBCHEM_BOND_DEF_STEREO_COUNT>
0

> <PUBCHEM_BOND_UDEF_STEREO_COUNT>
0

> <PUBCHEM_ISOTOPIC_ATOM_COUNT>
0

> <PUBCHEM_COMPONENT_COUNT>
1

> <PUBCHEM_CACTVS_TAUTO_COUNT>
8

> <PUBCHEM_CONFORMER_ID>
006CDD1B00000001

> <PUBCHEM_MMFF94_ENERGY>
77.3353

> <PUBCHEM_FEATURE_SELFOVERLAP>
91.437

> <PUBCHEM_SHAPE_FINGERPRINT>
10006869 2 18268420244236281575
10439779 11 18267290118477368850
11331351 85 17834656220079586486
11513181 2 17416982629185367397
12769317 202 18410846689989566373
13122387 1 18340496564368893681
13402501 40 18339077193594463428
14466204 15 18337666542188277210
14725015 67 17833267897522693971
15274700 147 15301983408026360645
15297060 5 16272215219000934655
15475509 84 17901656082072120798
17627616 140 18336546023696212578
20511986 3 17846492604797265209
20764821 26 18264204879901569037
22122407 14 18122351182093056721
23559900 14 17844240942085092769
24893992 56 18408602600185912035
25265897 201 17272045143929640013
3298306 158 18339355383432544509
437795 70 18057912215676652654
463206 1 18200031879826144417
469060 322 17824562970109216179
508706 21 18117833524467695909
5265222 85 18116719706004138364
550186 83 17824238570696969496
66674814 147 18339357599271873929

> <PUBCHEM_SHAPE_MULTIPOLES>
662.24
11.54
5.77
1.81
6.23
1.64
-0.05
-5.03
-2.82
-4.44
2.15
0.59
0.18
-0.42

> <PUBCHEM_SHAPE_SELFOVERLAP>
1376.508

> <PUBCHEM_SHAPE_VOLUME>
377.6

> <PUBCHEM_COORDINATE_TYPE>
2
5
10

$$$$
