11912444
  -OEChem-12032416113D

 51 51  0     1  0  0  0  0  0999 V2000
   -3.8471    0.7533   -1.0815 O   0  0  0  0  0  0  0  0  0  0  0  0
    3.1299    0.4573    1.8885 O   0  0  0  0  0  0  0  0  0  0  0  0
   -1.7181    0.2710   -0.2827 N   0  0  0  0  0  0  0  0  0  0  0  0
    3.6166   -0.9639    0.1212 N   0  0  0  0  0  0  0  0  0  0  0  0
    1.4512   -3.1171   -1.4359 N   0  0  0  0  0  0  0  0  0  0  0  0
   -0.2173    2.2417   -0.2323 C   0  0  2  0  0  0  0  0  0  0  0  0
    0.7993    1.4540    0.6312 C   0  0  1  0  0  0  0  0  0  0  0  0
    0.0575    0.3656    1.4285 C   0  0  0  0  0  0  0  0  0  0  0  0
   -1.0755    1.3059   -1.0969 C   0  0  0  0  0  0  0  0  0  0  0  0
   -0.8042   -0.5298    0.5399 C   0  0  0  0  0  0  0  0  0  0  0  0
    0.4378    3.3202   -1.0942 C   0  0  0  0  0  0  0  0  0  0  0  0
    1.9620    0.8525   -0.1668 C   0  0  0  0  0  0  0  0  0  0  0  0
   -3.0950    0.0682   -0.3834 C   0  0  0  0  0  0  0  0  0  0  0  0
   -3.6729   -1.0659    0.4253 C   0  0  0  0  0  0  0  0  0  0  0  0
    1.3131    4.2304   -0.2591 C   0  0  0  0  0  0  0  0  0  0  0  0
    2.9493    0.1109    0.7180 C   0  0  0  0  0  0  0  0  0  0  0  0
   -5.1825   -1.1236    0.1852 C   0  0  0  0  0  0  0  0  0  0  0  0
   -3.0139   -2.3732   -0.0180 C   0  0  0  0  0  0  0  0  0  0  0  0
   -3.3760   -0.7902    1.8998 C   0  0  0  0  0  0  0  0  0  0  0  0
    3.3860   -1.3554   -1.2675 C   0  0  0  0  0  0  0  0  0  0  0  0
    4.5926   -1.7741    0.8398 C   0  0  0  0  0  0  0  0  0  0  0  0
    2.3073   -2.3376   -1.3593 C   0  0  0  0  0  0  0  0  0  0  0  0
   -0.9008    2.7470    0.4669 H   0  0  0  0  0  0  0  0  0  0  0  0
    1.2216    2.1381    1.3792 H   0  0  0  0  0  0  0  0  0  0  0  0
    0.7374   -0.2570    2.0175 H   0  0  0  0  0  0  0  0  0  0  0  0
   -0.5939    0.8654    2.1577 H   0  0  0  0  0  0  0  0  0  0  0  0
   -0.4730    0.7956   -1.8573 H   0  0  0  0  0  0  0  0  0  0  0  0
   -1.8317    1.8893   -1.6333 H   0  0  0  0  0  0  0  0  0  0  0  0
   -0.1691   -1.0802   -0.1614 H   0  0  0  0  0  0  0  0  0  0  0  0
   -1.2422   -1.2862    1.1711 H   0  0  0  0  0  0  0  0  0  0  0  0
    1.0266    2.8801   -1.9071 H   0  0  0  0  0  0  0  0  0  0  0  0
   -0.3452    3.9224   -1.5715 H   0  0  0  0  0  0  0  0  0  0  0  0
    2.5391    1.6260   -0.6827 H   0  0  0  0  0  0  0  0  0  0  0  0
    1.5339    0.2062   -0.9306 H   0  0  0  0  0  0  0  0  0  0  0  0
    0.7668    4.6299    0.6017 H   0  0  0  0  0  0  0  0  0  0  0  0
    2.2197    3.7388    0.1025 H   0  0  0  0  0  0  0  0  0  0  0  0
    1.6386    5.0831   -0.8651 H   0  0  0  0  0  0  0  0  0  0  0  0
   -5.4186   -1.2989   -0.8713 H   0  0  0  0  0  0  0  0  0  0  0  0
   -5.6771   -0.1908    0.4818 H   0  0  0  0  0  0  0  0  0  0  0  0
   -5.6406   -1.9352    0.7628 H   0  0  0  0  0  0  0  0  0  0  0  0
   -2.5187   -2.9233    0.7890 H   0  0  0  0  0  0  0  0  0  0  0  0
   -3.7707   -3.0717   -0.3995 H   0  0  0  0  0  0  0  0  0  0  0  0
   -2.3031   -2.2569   -0.8437 H   0  0  0  0  0  0  0  0  0  0  0  0
   -2.8697    0.1615    2.0905 H   0  0  0  0  0  0  0  0  0  0  0  0
   -2.8348   -1.5922    2.4128 H   0  0  0  0  0  0  0  0  0  0  0  0
   -4.3170   -0.7090    2.4616 H   0  0  0  0  0  0  0  0  0  0  0  0
    3.1894   -0.4825   -1.8959 H   0  0  0  0  0  0  0  0  0  0  0  0
    4.3145   -1.7886   -1.6590 H   0  0  0  0  0  0  0  0  0  0  0  0
    4.6864   -1.4441    1.8776 H   0  0  0  0  0  0  0  0  0  0  0  0
    4.2725   -2.8198    0.8272 H   0  0  0  0  0  0  0  0  0  0  0  0
    5.5651   -1.6773    0.3486 H   0  0  0  0  0  0  0  0  0  0  0  0
  1 13  2  0  0  0  0
  2 16  2  0  0  0  0
  3  9  1  0  0  0  0
  3 10  1  0  0  0  0
  3 13  1  0  0  0  0
  4 16  1  0  0  0  0
  4 20  1  0  0  0  0
  4 21  1  0  0  0  0
  5 22  3  0  0  0  0
  6  7  1  0  0  0  0
  6  9  1  0  0  0  0
  6 11  1  0  0  0  0
  6 23  1  0  0  0  0
  7  8  1  0  0  0  0
  7 12  1  0  0  0  0
  7 24  1  0  0  0  0
  8 10  1  0  0  0  0
  8 25  1  0  0  0  0
  8 26  1  0  0  0  0
  9 27  1  0  0  0  0
  9 28  1  0  0  0  0
 10 29  1  0  0  0  0
 10 30  1  0  0  0  0
 11 15  1  0  0  0  0
 11 31  1  0  0  0  0
 11 32  1  0  0  0  0
 12 16  1  0  0  0  0
 12 33  1  0  0  0  0
 12 34  1  0  0  0  0
 13 14  1  0  0  0  0
 14 17  1  0  0  0  0
 14 18  1  0  0  0  0
 14 19  1  0  0  0  0
 15 35  1  0  0  0  0
 15 36  1  0  0  0  0
 15 37  1  0  0  0  0
 17 38  1  0  0  0  0
 17 39  1  0  0  0  0
 17 40  1  0  0  0  0
 18 41  1  0  0  0  0
 18 42  1  0  0  0  0
 18 43  1  0  0  0  0
 19 44  1  0  0  0  0
 19 45  1  0  0  0  0
 19 46  1  0  0  0  0
 20 22  1  0  0  0  0
 20 47  1  0  0  0  0
 20 48  1  0  0  0  0
 21 49  1  0  0  0  0
 21 50  1  0  0  0  0
 21 51  1  0  0  0  0
M  END
> <PUBCHEM_COMPOUND_CID>
11912444

> <PUBCHEM_CONFORMER_RMSD>
0.8

> <PUBCHEM_CONFORMER_DIVERSEORDER>
2
61
35
96
73
19
102
53
70
25
77
95
47
46
42
85
84
98
31
40
82
100
97
17
94
15
63
69
43
91
23
6
81
68
60
67
37
44
71
92
57
22
28
72
99
45
75
11
65
10
4
56
86
34
21
32
50
41
76
39
66
49
52
83
64
87
101
79
89
36
59
26
90
48
12
13
20
55
16
18
29
74
27
78
1
54
51
58
93
38
24
30
9
33
88
8
80
62
7
5
14
3

> <PUBCHEM_MMFF94_PARTIAL_CHARGES>
14
1 -0.57
10 0.3
12 0.06
13 0.57
14 0.06
16 0.57
2 -0.57
20 0.5
21 0.3
22 0.36
3 -0.66
4 -0.66
5 -0.56
9 0.3

> <PUBCHEM_EFFECTIVE_ROTOR_COUNT>
8.2

> <PUBCHEM_PHARMACOPHORE_FEATURES>
6
1 1 acceptor
1 15 hydrophobe
1 2 acceptor
1 5 acceptor
4 14 17 18 19 hydrophobe
6 3 6 7 8 9 10 rings

> <PUBCHEM_HEAVY_ATOM_COUNT>
22

> <PUBCHEM_ATOM_DEF_STEREO_COUNT>
2

> <PUBCHEM_ATOM_UDEF_STEREO_COUNT>
0

> <PUBCHEM_BOND_DEF_STEREO_COUNT>
0

> <PUBCHEM_BOND_UDEF_STEREO_COUNT>
0

> <PUBCHEM_ISOTOPIC_ATOM_COUNT>
0

> <PUBCHEM_COMPONENT_COUNT>
1

> <PUBCHEM_CACTVS_TAUTO_COUNT>
1

> <PUBCHEM_CONFORMER_ID>
00B5C4FC00000002

> <PUBCHEM_MMFF94_ENERGY>
69.8052

> <PUBCHEM_FEATURE_SELFOVERLAP>
30.446

> <PUBCHEM_SHAPE_FINGERPRINT>
10064457 181 17488176178951249646
11543360 7 13840268117222015859
116883 192 18337956675318416476
12363563 72 18260268533926859386
12506688 2 18272656744211299250
12553582 1 18339942432083395598
12596602 18 15338821097530550183
12670546 56 16343698812013106603
12707595 3 18187937204327224051
12788726 201 18044106652609208900
12892183 10 17346600793999840123
13402501 40 18341895151897474750
13533116 47 17775573065618475179
13583140 156 16702010959739048369
15422964 175 18342177722026834470
15635459 17 18341052934548832327
15664445 248 18335708225811038184
15848702 151 18412267255192640683
17492 54 18048066187750036740
1813 80 18336840726934837289
20403669 9 18408323276613380715
20645477 70 18191583258389847229
21285901 2 18266449906862753357
21665056 4 17113544714467947076
23557571 272 18191578649737198124
23559900 14 18340203102470762737
314173 41 18335424581701821787
38695281 34 17978799231137689172
463206 1 18113334206496316250
6443956 14 18412270531878095645
6669772 16 17833285477625833100
7364860 26 18120375607751310061
81228 2 18193561056059174776
84936 31 18126845121437177512

> <PUBCHEM_SHAPE_MULTIPOLES>
426.07
8.16
3.82
1.51
4.14
2.98
-0.26
-6.21
-1.17
-2.62
1.6
-0.46
-0.39
0.94

> <PUBCHEM_SHAPE_SELFOVERLAP>
848.155

> <PUBCHEM_SHAPE_VOLUME>
249.6

> <PUBCHEM_COORDINATE_TYPE>
2
5
10

$$$$
