11942133
  -OEChem-12032416153D

 54 57  0     1  0  0  0  0  0999 V2000
    1.9829   -0.0364    1.5820 O   0  0  0  0  0  0  0  0  0  0  0  0
   -6.6002   -0.5940   -0.6940 O   0  0  0  0  0  0  0  0  0  0  0  0
    0.0026    2.6931   -1.1485 N   0  0  2  0  0  0  0  0  0  0  0  0
   -2.3797   -0.2191   -0.7015 N   0  0  0  0  0  0  0  0  0  0  0  0
    3.5281    0.4006   -0.1378 N   0  0  0  0  0  0  0  0  0  0  0  0
   -2.0992   -1.1826    0.1811 N   0  0  0  0  0  0  0  0  0  0  0  0
   -3.2589   -1.7184    0.5459 N   0  0  0  0  0  0  0  0  0  0  0  0
    0.6818    2.3299    1.3372 C   0  0  2  0  0  0  0  0  0  0  0  0
   -0.9878    1.8108   -0.4757 C   0  0  2  0  0  0  0  0  0  0  0  0
    1.8518    2.0104    0.3869 C   0  0  2  0  0  0  0  0  0  0  0  0
   -0.5289    1.4550    0.9554 C   0  0  0  0  0  0  0  0  0  0  0  0
    0.2874    3.7953    1.0790 C   0  0  0  0  0  0  0  0  0  0  0  0
    1.3596    2.0982   -1.0687 C   0  0  0  0  0  0  0  0  0  0  0  0
    0.0228    3.9895   -0.4258 C   0  0  0  0  0  0  0  0  0  0  0  0
   -1.3074    0.5603   -1.2977 C   0  0  0  0  0  0  0  0  0  0  0  0
    2.4478    0.6694    0.6930 C   0  0  0  0  0  0  0  0  0  0  0  0
   -3.7072   -0.0996   -0.9346 C   0  0  0  0  0  0  0  0  0  0  0  0
   -4.2537   -1.0663   -0.1284 C   0  0  0  0  0  0  0  0  0  0  0  0
    4.3391   -0.7590   -0.1477 C   0  0  0  0  0  0  0  0  0  0  0  0
   -5.6649   -1.4274    0.0573 C   0  0  0  0  0  0  0  0  0  0  0  0
    5.3812   -0.8492   -1.0557 C   0  0  0  0  0  0  0  0  0  0  0  0
    4.0745   -1.7789    0.7513 C   0  0  0  0  0  0  0  0  0  0  0  0
   -6.1424   -1.2610    1.5287 C   0  0  0  0  0  0  0  0  0  0  0  0
   -6.0126   -2.8792   -0.3912 C   0  0  0  0  0  0  0  0  0  0  0  0
    6.1810   -1.9919   -1.0654 C   0  0  0  0  0  0  0  0  0  0  0  0
    4.8745   -2.9216    0.7417 C   0  0  0  0  0  0  0  0  0  0  0  0
    5.9278   -3.0280   -0.1668 C   0  0  0  0  0  0  0  0  0  0  0  0
    0.9494    2.1845    2.3895 H   0  0  0  0  0  0  0  0  0  0  0  0
   -1.9290    2.3751   -0.3954 H   0  0  0  0  0  0  0  0  0  0  0  0
    2.6433    2.7564    0.5483 H   0  0  0  0  0  0  0  0  0  0  0  0
   -0.2743    0.3983    1.0548 H   0  0  0  0  0  0  0  0  0  0  0  0
   -1.3507    1.6471    1.6571 H   0  0  0  0  0  0  0  0  0  0  0  0
    1.0872    4.4698    1.4064 H   0  0  0  0  0  0  0  0  0  0  0  0
   -0.6101    4.0495    1.6558 H   0  0  0  0  0  0  0  0  0  0  0  0
    2.0508    2.7270   -1.6457 H   0  0  0  0  0  0  0  0  0  0  0  0
    1.3734    1.1283   -1.5784 H   0  0  0  0  0  0  0  0  0  0  0  0
   -0.9297    4.5138   -0.5721 H   0  0  0  0  0  0  0  0  0  0  0  0
    0.7872    4.6450   -0.8622 H   0  0  0  0  0  0  0  0  0  0  0  0
   -0.4467   -0.1103   -1.3993 H   0  0  0  0  0  0  0  0  0  0  0  0
   -1.6344    0.8325   -2.3086 H   0  0  0  0  0  0  0  0  0  0  0  0
    3.7889    1.1108   -0.8187 H   0  0  0  0  0  0  0  0  0  0  0  0
   -4.1310    0.6236   -1.6170 H   0  0  0  0  0  0  0  0  0  0  0  0
    5.5871   -0.0480   -1.7600 H   0  0  0  0  0  0  0  0  0  0  0  0
    3.2794   -1.7707    1.4822 H   0  0  0  0  0  0  0  0  0  0  0  0
   -5.9922   -0.2291    1.8680 H   0  0  0  0  0  0  0  0  0  0  0  0
   -5.5905   -1.9230    2.2046 H   0  0  0  0  0  0  0  0  0  0  0  0
   -7.2135   -1.4733    1.6250 H   0  0  0  0  0  0  0  0  0  0  0  0
   -7.0822   -3.0857   -0.2719 H   0  0  0  0  0  0  0  0  0  0  0  0
   -5.4421   -3.6197    0.1793 H   0  0  0  0  0  0  0  0  0  0  0  0
   -5.7796   -3.0132   -1.4541 H   0  0  0  0  0  0  0  0  0  0  0  0
   -6.4841    0.3232   -0.3911 H   0  0  0  0  0  0  0  0  0  0  0  0
    7.0011   -2.0749   -1.7727 H   0  0  0  0  0  0  0  0  0  0  0  0
    4.6783   -3.7294    1.4409 H   0  0  0  0  0  0  0  0  0  0  0  0
    6.5505   -3.9178   -0.1743 H   0  0  0  0  0  0  0  0  0  0  0  0
  1 16  2  0  0  0  0
  2 20  1  0  0  0  0
  2 51  1  0  0  0  0
  3  9  1  0  0  0  0
  3 13  1  0  0  0  0
  3 14  1  0  0  0  0
  4  6  1  0  0  0  0
  4 15  1  0  0  0  0
  4 17  1  0  0  0  0
  5 16  1  0  0  0  0
  5 19  1  0  0  0  0
  5 41  1  0  0  0  0
  6  7  2  0  0  0  0
  7 18  1  0  0  0  0
  8 10  1  0  0  0  0
  8 11  1  0  0  0  0
  8 12  1  0  0  0  0
  8 28  1  0  0  0  0
  9 11  1  0  0  0  0
  9 15  1  0  0  0  0
  9 29  1  0  0  0  0
 10 13  1  0  0  0  0
 10 16  1  0  0  0  0
 10 30  1  0  0  0  0
 11 31  1  0  0  0  0
 11 32  1  0  0  0  0
 12 14  1  0  0  0  0
 12 33  1  0  0  0  0
 12 34  1  0  0  0  0
 13 35  1  0  0  0  0
 13 36  1  0  0  0  0
 14 37  1  0  0  0  0
 14 38  1  0  0  0  0
 15 39  1  0  0  0  0
 15 40  1  0  0  0  0
 17 18  2  0  0  0  0
 17 42  1  0  0  0  0
 18 20  1  0  0  0  0
 19 21  2  0  0  0  0
 19 22  1  0  0  0  0
 20 23  1  0  0  0  0
 20 24  1  0  0  0  0
 21 25  1  0  0  0  0
 21 43  1  0  0  0  0
 22 26  2  0  0  0  0
 22 44  1  0  0  0  0
 23 45  1  0  0  0  0
 23 46  1  0  0  0  0
 23 47  1  0  0  0  0
 24 48  1  0  0  0  0
 24 49  1  0  0  0  0
 24 50  1  0  0  0  0
 25 27  2  0  0  0  0
 25 52  1  0  0  0  0
 26 27  1  0  0  0  0
 26 53  1  0  0  0  0
 27 54  1  0  0  0  0
M  END
> <PUBCHEM_COMPOUND_CID>
11942133

> <PUBCHEM_CONFORMER_RMSD>
0.8

> <PUBCHEM_CONFORMER_DIVERSEORDER>
1
30
9
40
19
42
37
7
4
39
17
26
52
8
41
10
46
48
34
14
31
6
24
47
49
18
23
21
11
38
45
43
5
28
27
15
36
16
32
33
51
44
25
2
35
29
22
3
12
20
50
13

> <PUBCHEM_MMFF94_PARTIAL_CHARGES>
30
1 -0.57
10 0.06
13 0.27
14 0.27
15 0.26
16 0.57
17 -0.3
18 0.05
19 0.12
2 -0.68
20 0.46
21 -0.15
22 -0.15
25 -0.15
26 -0.15
27 -0.15
3 -0.81
4 0.31
41 0.37
42 0.15
43 0.15
44 0.15
5 -0.55
51 0.4
52 0.15
53 0.15
54 0.15
6 -0.42
7 -0.23
9 0.27

> <PUBCHEM_EFFECTIVE_ROTOR_COUNT>
7.2

> <PUBCHEM_PHARMACOPHORE_FEATURES>
9
1 1 acceptor
1 2 acceptor
1 2 donor
1 3 cation
1 5 donor
3 20 23 24 hydrophobe
5 4 6 7 17 18 rings
6 19 21 22 25 26 27 rings
8 3 8 9 10 11 12 13 14 rings

> <PUBCHEM_HEAVY_ATOM_COUNT>
27

> <PUBCHEM_ATOM_DEF_STEREO_COUNT>
3

> <PUBCHEM_ATOM_UDEF_STEREO_COUNT>
0

> <PUBCHEM_BOND_DEF_STEREO_COUNT>
0

> <PUBCHEM_BOND_UDEF_STEREO_COUNT>
0

> <PUBCHEM_ISOTOPIC_ATOM_COUNT>
0

> <PUBCHEM_COMPONENT_COUNT>
1

> <PUBCHEM_CACTVS_TAUTO_COUNT>
2

> <PUBCHEM_CONFORMER_ID>
00B638F500000001

> <PUBCHEM_MMFF94_ENERGY>
70.4457

> <PUBCHEM_FEATURE_SELFOVERLAP>
45.671

> <PUBCHEM_SHAPE_FINGERPRINT>
10622 236 17752753637976572818
10669705 162 18129658574582519375
11809386 21 18119241758608751298
11954058 11 18268709579420167519
11961588 58 11458430166862752340
11991303 11 17827076199934138765
12107183 9 18271818904294142753
12166972 35 18040442087564542686
12422481 6 17274830103835346037
12592606 108 18413107273850687599
12633257 1 15841263831016482852
12760667 363 18341610373889927206
12788726 201 18189893119829022066
13103583 49 17846789493941440411
13135754 10 17559405647618007824
13533116 47 18196934590283222595
13540713 4 18267561590386446496
13631057 29 18337675205617666374
13673619 4 18186239545979509983
13690498 29 18040995116433140829
13911852 28 18412258441561228679
13955234 65 18052539064907106881
14251764 30 18410291406437133047
14347332 77 18263923233722284730
14420673 8 18410295787957941559
14866123 147 18195809566391901161
14955137 171 18341894121405451751
15927050 60 17838335546999741854
16994733 274 14201392747289070575
17492 54 14201399386923160230
17909252 39 18339356358707002842
1813 80 18342748424317363588
20775438 99 17832969925650835419
20775530 9 18410001122688148582
21033648 29 14692307122748393633
21120745 212 18269006306079616132
21130935 74 18051417559796455899
21279426 13 18262506031990208861
21365058 113 17894919567971447077
21403212 168 10303542654520446460
21585481 104 16154269382270770278
21585482 57 9438821856457799291
21682296 61 18410012161345137911
21716022 299 18188510067435177540
22950370 63 18410014325158828816
23559900 14 18263358248080517319
2838139 119 9151179731304889026
3004659 81 18113335302245050230
329604 57 18334859373260565854
3421961 26 18340763853184702752
345986 75 17846502538591923528
4107672 100 17677894531170476293
437815 12 18411418414709028755
439807 62 18114463362024986238
44880168 125 17346313740183217014
46194498 28 17386566997718417820
463206 1 18410290358639692734
465052 167 18272373096092069462
484985 159 18196371416495837673
4921388 177 17910955743446977244
5309563 4 18411978044373636190
56633871 153 17989200447489889111
57091435 61 9222965776125477487
57816373 69 17917988416764613471
70251023 43 18408045096119192560
77188 2 18342457058247956064
7918774 8 18409446981549101675
7970288 3 18411416202606361574

> <PUBCHEM_SHAPE_MULTIPOLES>
519
15.38
4.51
1.32
6.43
2.79
-0.14
-22.16
1.18
-1.88
-0.37
0.03
0.29
0.39

> <PUBCHEM_SHAPE_SELFOVERLAP>
1113.279

> <PUBCHEM_SHAPE_VOLUME>
284.9

> <PUBCHEM_COORDINATE_TYPE>
2
5
10

$$$$
