45784297
  -OEChem-12032416243D

 43 46  0     1  0  0  0  0  0999 V2000
    7.0738   -0.1553   -0.2520 O   0  0  0  0  0  0  0  0  0  0  0  0
   -2.3671   -0.2767   -0.1159 N   0  0  1  0  0  0  0  0  0  0  0  0
    2.3194   -1.1645    0.3431 N   0  0  0  0  0  0  0  0  0  0  0  0
    1.6789    0.9423    0.0416 N   0  0  0  0  0  0  0  0  0  0  0  0
   -6.7350    1.0422    0.4310 N   0  0  0  0  0  0  0  0  0  0  0  0
   -0.1505   -0.7421    0.4917 C   0  0  1  0  0  0  0  0  0  0  0  0
   -0.8791   -0.0774    1.6726 C   0  0  0  0  0  0  0  0  0  0  0  0
   -1.0480   -0.4681   -0.7225 C   0  0  0  0  0  0  0  0  0  0  0  0
   -2.1232    0.5552    1.0624 C   0  0  0  0  0  0  0  0  0  0  0  0
    1.2750   -0.2841    0.2861 C   0  0  0  0  0  0  0  0  0  0  0  0
   -3.3183    0.3301   -1.0354 C   0  0  0  0  0  0  0  0  0  0  0  0
   -4.7407    0.1280   -0.5848 C   0  0  0  0  0  0  0  0  0  0  0  0
    3.4740   -0.4593    0.1203 C   0  0  0  0  0  0  0  0  0  0  0  0
    3.0477    0.8530   -0.0650 C   0  0  0  0  0  0  0  0  0  0  0  0
    4.8140   -0.8447    0.0665 C   0  0  0  0  0  0  0  0  0  0  0  0
    4.0010    1.8532   -0.3200 C   0  0  0  0  0  0  0  0  0  0  0  0
   -5.3759   -1.0983   -0.7458 C   0  0  0  0  0  0  0  0  0  0  0  0
   -5.4574    1.1573    0.0041 C   0  0  0  0  0  0  0  0  0  0  0  0
    5.7492    0.1637   -0.1883 C   0  0  0  0  0  0  0  0  0  0  0  0
    5.3522    1.4893   -0.3783 C   0  0  0  0  0  0  0  0  0  0  0  0
   -6.6900   -1.2556   -0.3192 C   0  0  0  0  0  0  0  0  0  0  0  0
   -7.3194   -0.1645    0.2579 C   0  0  0  0  0  0  0  0  0  0  0  0
    7.4194   -1.5235   -0.0502 C   0  0  0  0  0  0  0  0  0  0  0  0
   -0.1443   -1.8258    0.6791 H   0  0  0  0  0  0  0  0  0  0  0  0
   -1.1661   -0.8454    2.4019 H   0  0  0  0  0  0  0  0  0  0  0  0
   -0.2699    0.6667    2.1966 H   0  0  0  0  0  0  0  0  0  0  0  0
   -1.0407   -1.3125   -1.4204 H   0  0  0  0  0  0  0  0  0  0  0  0
   -0.7234    0.4294   -1.2658 H   0  0  0  0  0  0  0  0  0  0  0  0
   -1.9107    1.5976    0.7920 H   0  0  0  0  0  0  0  0  0  0  0  0
   -2.9581    0.5398    1.7698 H   0  0  0  0  0  0  0  0  0  0  0  0
   -3.1094    1.3951   -1.2047 H   0  0  0  0  0  0  0  0  0  0  0  0
   -3.2319   -0.1411   -2.0247 H   0  0  0  0  0  0  0  0  0  0  0  0
    2.2559   -2.1587    0.5181 H   0  0  0  0  0  0  0  0  0  0  0  0
    5.0554   -1.8879    0.2225 H   0  0  0  0  0  0  0  0  0  0  0  0
    3.7025    2.8859   -0.4691 H   0  0  0  0  0  0  0  0  0  0  0  0
   -4.8575   -1.9373   -1.2017 H   0  0  0  0  0  0  0  0  0  0  0  0
   -5.0160    2.1371    0.1586 H   0  0  0  0  0  0  0  0  0  0  0  0
    6.0980    2.2560   -0.5750 H   0  0  0  0  0  0  0  0  0  0  0  0
   -7.2050   -2.2024   -0.4345 H   0  0  0  0  0  0  0  0  0  0  0  0
   -8.3442   -0.2354    0.6073 H   0  0  0  0  0  0  0  0  0  0  0  0
    7.1552   -1.8622    0.9574 H   0  0  0  0  0  0  0  0  0  0  0  0
    6.9960   -2.1661   -0.8297 H   0  0  0  0  0  0  0  0  0  0  0  0
    8.5087   -1.5971   -0.1347 H   0  0  0  0  0  0  0  0  0  0  0  0
  1 19  1  0  0  0  0
  1 23  1  0  0  0  0
  2  8  1  0  0  0  0
  2  9  1  0  0  0  0
  2 11  1  0  0  0  0
  3 10  1  0  0  0  0
  3 13  1  0  0  0  0
  3 33  1  0  0  0  0
  4 10  2  0  0  0  0
  4 14  1  0  0  0  0
  5 18  1  0  0  0  0
  5 22  2  0  0  0  0
  6  7  1  0  0  0  0
  6  8  1  0  0  0  0
  6 10  1  0  0  0  0
  6 24  1  0  0  0  0
  7  9  1  0  0  0  0
  7 25  1  0  0  0  0
  7 26  1  0  0  0  0
  8 27  1  0  0  0  0
  8 28  1  0  0  0  0
  9 29  1  0  0  0  0
  9 30  1  0  0  0  0
 11 12  1  0  0  0  0
 11 31  1  0  0  0  0
 11 32  1  0  0  0  0
 12 17  1  0  0  0  0
 12 18  2  0  0  0  0
 13 14  2  0  0  0  0
 13 15  1  0  0  0  0
 14 16  1  0  0  0  0
 15 19  2  0  0  0  0
 15 34  1  0  0  0  0
 16 20  2  0  0  0  0
 16 35  1  0  0  0  0
 17 21  2  0  0  0  0
 17 36  1  0  0  0  0
 18 37  1  0  0  0  0
 19 20  1  0  0  0  0
 20 38  1  0  0  0  0
 21 22  1  0  0  0  0
 21 39  1  0  0  0  0
 22 40  1  0  0  0  0
 23 41  1  0  0  0  0
 23 42  1  0  0  0  0
 23 43  1  0  0  0  0
M  END
> <PUBCHEM_COMPOUND_CID>
45784297

> <PUBCHEM_CONFORMER_RMSD>
0.8

> <PUBCHEM_CONFORMER_DIVERSEORDER>
1
31
74
79
73
62
92
51
35
86
26
67
68
45
47
42
65
20
72
43
75
21
13
57
64
84
63
94
87
58
40
50
28
69
71
60
77
23
48
59
37
66
38
49
88
56
39
11
14
32
2
53
93
90
44
33
52
8
22
81
36
15
3
18
70
82
5
61
76
25
46
24
54
34
85
4
12
9
6
80
30
41
19
55
17
27
16
91
7
29
89
10
83
78

> <PUBCHEM_MMFF94_PARTIAL_CHARGES>
30
1 -0.36
10 0.01
11 0.41
12 -0.14
13 -0.15
14 0.23
15 -0.15
16 -0.15
17 -0.15
18 0.16
19 0.08
2 -0.81
20 -0.15
21 -0.15
22 0.16
23 0.28
3 0.03
33 0.27
34 0.15
35 0.15
36 0.15
37 0.15
38 0.15
39 0.15
4 -0.57
40 0.15
5 -0.62
6 0.18
8 0.27
9 0.27

> <PUBCHEM_EFFECTIVE_ROTOR_COUNT>
5

> <PUBCHEM_PHARMACOPHORE_FEATURES>
9
1 1 acceptor
1 2 cation
1 3 donor
1 5 acceptor
3 3 4 10 cation
5 2 6 7 8 9 rings
5 3 4 10 13 14 rings
6 13 14 15 16 19 20 rings
6 5 12 17 18 21 22 rings

> <PUBCHEM_HEAVY_ATOM_COUNT>
23

> <PUBCHEM_ATOM_DEF_STEREO_COUNT>
1

> <PUBCHEM_ATOM_UDEF_STEREO_COUNT>
0

> <PUBCHEM_BOND_DEF_STEREO_COUNT>
0

> <PUBCHEM_BOND_UDEF_STEREO_COUNT>
0

> <PUBCHEM_ISOTOPIC_ATOM_COUNT>
0

> <PUBCHEM_COMPONENT_COUNT>
1

> <PUBCHEM_CACTVS_TAUTO_COUNT>
2

> <PUBCHEM_CONFORMER_ID>
02BA9CE900000001

> <PUBCHEM_MMFF94_ENERGY>
58.6529

> <PUBCHEM_FEATURE_SELFOVERLAP>
45.779

> <PUBCHEM_SHAPE_FINGERPRINT>
10 15 13551193311871597884
10066227 49 18270401582013897134
10299344 5 18343020008622597391
10595046 47 18410572881998970889
106641 1 12396308066296207845
10670039 82 16226040046907572668
11408170 108 17774444851342036662
11524674 6 15985103042175077287
11646440 116 16950287303888661301
11719270 70 17846498115256039838
12091667 2 18407760335792764715
12166972 35 18335139812564901100
12236239 1 18201719565390983828
12730499 353 17821447950023820946
12788726 201 17203333260938847147
13167372 99 18411700950289850193
13533116 47 17023172787353431586
13668630 136 18131073719056850206
13914758 101 18411984624489932400
14170010 4 18334011709924819820
14251752 14 17775286058259338649
14251764 18 18186800283982673036
14251764 46 17918274250916259863
14294032 229 17129885840932316025
14856354 85 17846219999433676263
14933364 13 18408886239541075981
15183329 4 18335977610465262651
15537594 2 16128654146141107367
17093844 174 13542464268259152351
18006028 8 12823295697782851915
21033648 29 17677050282634754672
21095086 128 18410009957979292951
21150785 3 18411702097673268124
21267235 1 18410576167490774804
21315763 28 18411699902665502421
21792961 116 17846498098360272547
221357 26 18260825995265906996
22224240 67 10519980457533116676
23035841 295 17775284980433615479
23198884 109 18408886248347152025
23536379 177 18413107260411338993
23559900 14 18269548497817084713
23569943 247 17460302257680442666
23622692 88 14490193825282631790
29717793 49 17988929968377840372
3004659 81 18341891892248652122
314173 85 14405188382816959659
328311 84 18114185228643172994
335352 9 18333455340288602998
347723 3 17346598577627929263
3545911 37 17603585231275067978
4073 2 17968381259421580418
4098825 35 18336827494172363681
4325135 7 18408321095238986239
4339292 15 16630230520874713663
5283156 175 17632298947654627138
542803 24 18413666920414536893
59682541 35 15647061486576840217
59755656 215 17385723573990451594
59755656 520 17822288011320343291
9996256 80 18334010584152660997

> <PUBCHEM_SHAPE_MULTIPOLES>
447.54
21.59
1.41
0.94
4.25
0.19
-0.18
-2.23
2.51
-1.04
0.1
0.62
0.01
-0.68

> <PUBCHEM_SHAPE_SELFOVERLAP>
978.256

> <PUBCHEM_SHAPE_VOLUME>
243.5

> <PUBCHEM_COORDINATE_TYPE>
2
5
10

$$$$
