75536316
  -OEChem-12032416303D

 57 60  0     1  0  0  0  0  0999 V2000
    2.4733   -1.0498    0.8343 O   0  0  0  0  0  0  0  0  0  0  0  0
    5.3005   -1.1844    1.6574 O   0  0  0  0  0  0  0  0  0  0  0  0
   -1.7241   -1.6425   -1.6274 O   0  0  0  0  0  0  0  0  0  0  0  0
    1.4009    1.5899    0.8612 N   0  0  0  0  0  0  0  0  0  0  0  0
   -0.4187   -2.0311   -1.9028 N   0  0  0  0  0  0  0  0  0  0  0  0
    0.8890    2.8172    0.2545 C   0  0  0  0  0  0  0  0  0  0  0  0
    3.3173    0.0746    1.1148 C   0  0  1  0  0  0  0  0  0  0  0  0
    4.7771   -0.2167    0.7437 C   0  0  2  0  0  0  0  0  0  0  0  0
    0.4810    2.5490   -1.1983 C   0  0  0  0  0  0  0  0  0  0  0  0
   -0.2937    3.3483    1.0718 C   0  0  0  0  0  0  0  0  0  0  0  0
    2.7776    1.3446    0.4604 C   0  0  0  0  0  0  0  0  0  0  0  0
    2.5216   -1.5253   -0.5130 C   0  0  1  0  0  0  0  0  0  0  0  0
    4.9163   -0.7846   -0.6661 C   0  0  0  0  0  0  0  0  0  0  0  0
    3.9438   -1.9395   -0.8877 C   0  0  0  0  0  0  0  0  0  0  0  0
   -0.1310    3.7916   -1.8430 C   0  0  0  0  0  0  0  0  0  0  0  0
   -0.9041    4.5903    0.4244 C   0  0  0  0  0  0  0  0  0  0  0  0
   -1.3017    4.3310   -1.0259 C   0  0  0  0  0  0  0  0  0  0  0  0
    1.5670   -2.7087   -0.6159 C   0  0  0  0  0  0  0  0  0  0  0  0
    0.1327   -2.2617   -0.7078 C   0  0  0  0  0  0  0  0  0  0  0  0
   -0.7679   -2.0374    0.3477 C   0  0  0  0  0  0  0  0  0  0  0  0
   -1.9200   -1.6500   -0.2840 C   0  0  0  0  0  0  0  0  0  0  0  0
   -3.2310   -1.2702    0.1558 C   0  0  0  0  0  0  0  0  0  0  0  0
   -3.5309   -1.2496    1.5178 C   0  0  0  0  0  0  0  0  0  0  0  0
   -4.2061   -0.9213   -0.7784 C   0  0  0  0  0  0  0  0  0  0  0  0
   -4.8062   -0.8803    1.9457 C   0  0  0  0  0  0  0  0  0  0  0  0
   -5.4813   -0.5519   -0.3507 C   0  0  0  0  0  0  0  0  0  0  0  0
   -5.7814   -0.5314    1.0115 C   0  0  0  0  0  0  0  0  0  0  0  0
    1.6637    3.5965    0.2726 H   0  0  0  0  0  0  0  0  0  0  0  0
    3.2685    0.2028    2.2043 H   0  0  0  0  0  0  0  0  0  0  0  0
    5.3865    0.6873    0.8533 H   0  0  0  0  0  0  0  0  0  0  0  0
    1.3387    2.2399   -1.8053 H   0  0  0  0  0  0  0  0  0  0  0  0
   -0.2481    1.7285   -1.2396 H   0  0  0  0  0  0  0  0  0  0  0  0
   -1.0682    2.5748    1.1624 H   0  0  0  0  0  0  0  0  0  0  0  0
    0.0283    3.5966    2.0907 H   0  0  0  0  0  0  0  0  0  0  0  0
    3.4124    2.1874    0.7624 H   0  0  0  0  0  0  0  0  0  0  0  0
    2.8518    1.2625   -0.6268 H   0  0  0  0  0  0  0  0  0  0  0  0
    2.1868   -0.7323   -1.1925 H   0  0  0  0  0  0  0  0  0  0  0  0
    5.9381   -1.1428   -0.8378 H   0  0  0  0  0  0  0  0  0  0  0  0
    4.7196    0.0014   -1.4045 H   0  0  0  0  0  0  0  0  0  0  0  0
    3.9879   -2.2659   -1.9329 H   0  0  0  0  0  0  0  0  0  0  0  0
    4.2575   -2.7887   -0.2674 H   0  0  0  0  0  0  0  0  0  0  0  0
   -0.4701    3.5513   -2.8570 H   0  0  0  0  0  0  0  0  0  0  0  0
    0.6370    4.5691   -1.9384 H   0  0  0  0  0  0  0  0  0  0  0  0
   -0.1817    5.4148    0.4634 H   0  0  0  0  0  0  0  0  0  0  0  0
   -1.7832    4.9088    0.9959 H   0  0  0  0  0  0  0  0  0  0  0  0
    1.3635    1.6659    1.8777 H   0  0  0  0  0  0  0  0  0  0  0  0
   -1.6713    5.2580   -1.4785 H   0  0  0  0  0  0  0  0  0  0  0  0
   -2.1279    3.6098   -1.0537 H   0  0  0  0  0  0  0  0  0  0  0  0
    1.6761   -3.3694    0.2536 H   0  0  0  0  0  0  0  0  0  0  0  0
    1.7955   -3.3073   -1.5072 H   0  0  0  0  0  0  0  0  0  0  0  0
    6.2377   -1.3204    1.4365 H   0  0  0  0  0  0  0  0  0  0  0  0
   -0.5934   -2.1441    1.4084 H   0  0  0  0  0  0  0  0  0  0  0  0
   -2.7923   -1.5158    2.2694 H   0  0  0  0  0  0  0  0  0  0  0  0
   -4.0111   -0.9247   -1.8478 H   0  0  0  0  0  0  0  0  0  0  0  0
   -5.0401   -0.8641    3.0062 H   0  0  0  0  0  0  0  0  0  0  0  0
   -6.2410   -0.2800   -1.0777 H   0  0  0  0  0  0  0  0  0  0  0  0
   -6.7743   -0.2438    1.3445 H   0  0  0  0  0  0  0  0  0  0  0  0
  1  7  1  0  0  0  0
  1 12  1  0  0  0  0
  2  8  1  0  0  0  0
  2 51  1  0  0  0  0
  3  5  1  0  0  0  0
  3 21  1  0  0  0  0
  4  6  1  0  0  0  0
  4 11  1  0  0  0  0
  4 46  1  0  0  0  0
  5 19  2  0  0  0  0
  6  9  1  0  0  0  0
  6 10  1  0  0  0  0
  6 28  1  0  0  0  0
  7  8  1  0  0  0  0
  7 11  1  0  0  0  0
  7 29  1  0  0  0  0
  8 13  1  0  0  0  0
  8 30  1  0  0  0  0
  9 15  1  0  0  0  0
  9 31  1  0  0  0  0
  9 32  1  0  0  0  0
 10 16  1  0  0  0  0
 10 33  1  0  0  0  0
 10 34  1  0  0  0  0
 11 35  1  0  0  0  0
 11 36  1  0  0  0  0
 12 14  1  0  0  0  0
 12 18  1  0  0  0  0
 12 37  1  0  0  0  0
 13 14  1  0  0  0  0
 13 38  1  0  0  0  0
 13 39  1  0  0  0  0
 14 40  1  0  0  0  0
 14 41  1  0  0  0  0
 15 17  1  0  0  0  0
 15 42  1  0  0  0  0
 15 43  1  0  0  0  0
 16 17  1  0  0  0  0
 16 44  1  0  0  0  0
 16 45  1  0  0  0  0
 17 47  1  0  0  0  0
 17 48  1  0  0  0  0
 18 19  1  0  0  0  0
 18 49  1  0  0  0  0
 18 50  1  0  0  0  0
 19 20  1  0  0  0  0
 20 21  2  0  0  0  0
 20 52  1  0  0  0  0
 21 22  1  0  0  0  0
 22 23  2  0  0  0  0
 22 24  1  0  0  0  0
 23 25  1  0  0  0  0
 23 53  1  0  0  0  0
 24 26  2  0  0  0  0
 24 54  1  0  0  0  0
 25 27  2  0  0  0  0
 25 55  1  0  0  0  0
 26 27  1  0  0  0  0
 26 56  1  0  0  0  0
 27 57  1  0  0  0  0
M  END
> <PUBCHEM_COMPOUND_CID>
75536316

> <PUBCHEM_CONFORMER_RMSD>
1

> <PUBCHEM_CONFORMER_DIVERSEORDER>
1
71
39
93
19
46
32
56
123
47
72
91
109
98
58
121
63
100
60
78
104
45
52
79
31
101
68
55
29
113
95
15
26
77
49
7
16
43
69
76
112
118
108
117
86
94
42
116
89
120
124
103
12
99
105
122
14
110
20
90
80
97
35
21
57
30
18
107
106
88
114
83
74
10
85
50
48
87
65
81
38
4
61
13
8
82
37
84
9
2
54
25
59
51
64
96
41
75
40
3
111
115
17
33
62
70
53
36
11
66
119
92
34
23
102
73
27
28
67
24
44
5
22
6

> <PUBCHEM_MMFF94_PARTIAL_CHARGES>
28
1 -0.56
11 0.27
12 0.28
18 0.18
19 0.11
2 -0.68
20 -0.15
21 0.09
22 0.05
23 -0.15
24 -0.15
25 -0.15
26 -0.15
27 -0.15
3 -0.02
4 -0.9
46 0.36
5 -0.41
51 0.4
52 0.15
53 0.15
54 0.15
55 0.15
56 0.15
57 0.15
6 0.27
7 0.28
8 0.28

> <PUBCHEM_EFFECTIVE_ROTOR_COUNT>
8.4

> <PUBCHEM_PHARMACOPHORE_FEATURES>
10
1 1 acceptor
1 2 acceptor
1 2 donor
1 4 cation
1 4 donor
1 5 acceptor
5 3 5 19 20 21 rings
6 1 7 8 12 13 14 rings
6 22 23 24 25 26 27 rings
6 6 9 10 15 16 17 rings

> <PUBCHEM_HEAVY_ATOM_COUNT>
27

> <PUBCHEM_ATOM_DEF_STEREO_COUNT>
3

> <PUBCHEM_ATOM_UDEF_STEREO_COUNT>
0

> <PUBCHEM_BOND_DEF_STEREO_COUNT>
0

> <PUBCHEM_BOND_UDEF_STEREO_COUNT>
0

> <PUBCHEM_ISOTOPIC_ATOM_COUNT>
0

> <PUBCHEM_COMPONENT_COUNT>
1

> <PUBCHEM_CACTVS_TAUTO_COUNT>
1

> <PUBCHEM_CONFORMER_ID>
048097BC00000001

> <PUBCHEM_MMFF94_ENERGY>
38.1096

> <PUBCHEM_FEATURE_SELFOVERLAP>
50.748

> <PUBCHEM_SHAPE_FINGERPRINT>
10006869 2 18049714123598902847
10670039 82 18267042582749053966
10688039 33 18334296435532182644
11421498 54 18040432149310919642
12156800 1 17837528212901029789
12166972 35 18200594825774359163
12293681 4 18261117374242062794
12422481 6 18127709144471315209
12633257 1 18261671575099396371
12655364 131 16835956979550669840
12788726 201 18334298643699176450
13075007 39 18116167734250194083
13402501 40 18338509743068911549
13583140 156 18188206606821688291
14363568 33 18119543264764583469
14790565 3 17473260354659971944
14840074 17 18341900739802361896
14955137 171 18339656640712310835
150020 26 18193001645664973945
151778 21 17830467433344080845
15210252 30 18189908689370202700
15276724 80 18413673522422992276
15420108 30 17555154111437311464
18785283 64 18118980328012185347
20739085 24 18338239396146612944
21285901 2 18130233670624624398
21304253 335 17632589240173043907
21360442 67 17253144234507743781
21641784 216 18189640279636345604
21860390 5 18340213006623032711
22113638 7 18199183065196167175
22182313 1 17986946350759827606
3052486 1 18263934245801725156
469060 322 18115320963925020184
474 4 18272933864418771619
513202 73 18192721042382209402
5283268 108 18410577271212941234
6086070 43 18043504283789193519
653340 110 18199187274222348384

> <PUBCHEM_SHAPE_MULTIPOLES>
528.08
10.47
5.35
1.66
4.01
8.85
0.03
-7.59
-3.94
0.3
1.6
0.37
0.09
0.61

> <PUBCHEM_SHAPE_SELFOVERLAP>
1114.199

> <PUBCHEM_SHAPE_VOLUME>
294.7

> <PUBCHEM_COORDINATE_TYPE>
2
5
10

$$$$
