51137928
  -OEChem-12032416203D

 42 45  0     1  0  0  0  0  0999 V2000
    1.4211   -1.1880   -0.2285 O   0  0  0  0  0  0  0  0  0  0  0  0
   -1.7396   -1.6849    0.1448 N   0  0  0  0  0  0  0  0  0  0  0  0
    2.5717   -3.1049   -0.3074 N   0  0  0  0  0  0  0  0  0  0  0  0
   -2.9859   -0.1840   -1.1654 N   0  0  0  0  0  0  0  0  0  0  0  0
    3.4784   -2.0664   -0.2063 N   0  0  0  0  0  0  0  0  0  0  0  0
   -6.1407    3.3428   -0.2549 N   0  0  0  0  0  0  0  0  0  0  0  0
    0.0116   -3.1907   -0.4105 C   0  0  1  0  0  0  0  0  0  0  0  0
   -0.5447   -3.5364    0.9741 C   0  0  0  0  0  0  0  0  0  0  0  0
   -1.1161   -2.3300   -1.0113 C   0  0  0  0  0  0  0  0  0  0  0  0
   -1.2926   -2.2743    1.4035 C   0  0  0  0  0  0  0  0  0  0  0  0
    1.3843   -2.5458   -0.3167 C   0  0  0  0  0  0  0  0  0  0  0  0
   -2.6459   -0.6495    0.0575 C   0  0  0  0  0  0  0  0  0  0  0  0
   -3.1534   -0.1499    1.2461 C   0  0  0  0  0  0  0  0  0  0  0  0
    2.7626   -0.9671   -0.1633 C   0  0  0  0  0  0  0  0  0  0  0  0
   -4.0687    0.8945    1.1752 C   0  0  0  0  0  0  0  0  0  0  0  0
    3.1682    0.4047   -0.0597 C   0  0  0  0  0  0  0  0  0  0  0  0
   -3.8779    0.8315   -1.1947 C   0  0  0  0  0  0  0  0  0  0  0  0
   -4.4431    1.4003   -0.0648 C   0  0  0  0  0  0  0  0  0  0  0  0
    4.5233    0.7275    0.0131 C   0  0  0  0  0  0  0  0  0  0  0  0
    2.2079    1.4160   -0.0325 C   0  0  0  0  0  0  0  0  0  0  0  0
    3.9577    3.0727    0.1410 C   0  0  0  0  0  0  0  0  0  0  0  0
    4.9181    2.0614    0.1135 C   0  0  0  0  0  0  0  0  0  0  0  0
    2.6026    2.7500    0.0680 C   0  0  0  0  0  0  0  0  0  0  0  0
   -5.3790    2.4714   -0.1696 C   0  0  0  0  0  0  0  0  0  0  0  0
    4.3801    4.4991    0.2487 C   0  0  0  0  0  0  0  0  0  0  0  0
    0.1381   -4.1011   -1.0093 H   0  0  0  0  0  0  0  0  0  0  0  0
   -1.2586   -4.3650    0.8809 H   0  0  0  0  0  0  0  0  0  0  0  0
    0.2177   -3.8303    1.7026 H   0  0  0  0  0  0  0  0  0  0  0  0
   -0.7328   -1.6032   -1.7359 H   0  0  0  0  0  0  0  0  0  0  0  0
   -1.8569   -2.9678   -1.5078 H   0  0  0  0  0  0  0  0  0  0  0  0
   -2.1192   -2.5590    2.0635 H   0  0  0  0  0  0  0  0  0  0  0  0
   -0.6211   -1.5869    1.9305 H   0  0  0  0  0  0  0  0  0  0  0  0
   -2.8760   -0.5118    2.2290 H   0  0  0  0  0  0  0  0  0  0  0  0
   -4.4800    1.3061    2.0935 H   0  0  0  0  0  0  0  0  0  0  0  0
   -4.1282    1.1810   -2.1922 H   0  0  0  0  0  0  0  0  0  0  0  0
    5.2890   -0.0443   -0.0071 H   0  0  0  0  0  0  0  0  0  0  0  0
    1.1430    1.2039   -0.0874 H   0  0  0  0  0  0  0  0  0  0  0  0
    5.9769    2.3006    0.1678 H   0  0  0  0  0  0  0  0  0  0  0  0
    1.8454    3.5294    0.0867 H   0  0  0  0  0  0  0  0  0  0  0  0
    5.3141    4.5930    0.8132 H   0  0  0  0  0  0  0  0  0  0  0  0
    3.6270    5.0957    0.7747 H   0  0  0  0  0  0  0  0  0  0  0  0
    4.5291    4.9230   -0.7493 H   0  0  0  0  0  0  0  0  0  0  0  0
  1 11  1  0  0  0  0
  1 14  1  0  0  0  0
  2  9  1  0  0  0  0
  2 10  1  0  0  0  0
  2 12  1  0  0  0  0
  3  5  1  0  0  0  0
  3 11  2  0  0  0  0
  4 12  2  0  0  0  0
  4 17  1  0  0  0  0
  5 14  2  0  0  0  0
  6 24  3  0  0  0  0
  7  8  1  0  0  0  0
  7  9  1  0  0  0  0
  7 11  1  0  0  0  0
  7 26  1  0  0  0  0
  8 10  1  0  0  0  0
  8 27  1  0  0  0  0
  8 28  1  0  0  0  0
  9 29  1  0  0  0  0
  9 30  1  0  0  0  0
 10 31  1  0  0  0  0
 10 32  1  0  0  0  0
 12 13  1  0  0  0  0
 13 15  2  0  0  0  0
 13 33  1  0  0  0  0
 14 16  1  0  0  0  0
 15 18  1  0  0  0  0
 15 34  1  0  0  0  0
 16 19  2  0  0  0  0
 16 20  1  0  0  0  0
 17 18  2  0  0  0  0
 17 35  1  0  0  0  0
 18 24  1  0  0  0  0
 19 22  1  0  0  0  0
 19 36  1  0  0  0  0
 20 23  2  0  0  0  0
 20 37  1  0  0  0  0
 21 22  2  0  0  0  0
 21 23  1  0  0  0  0
 21 25  1  0  0  0  0
 22 38  1  0  0  0  0
 23 39  1  0  0  0  0
 25 40  1  0  0  0  0
 25 41  1  0  0  0  0
 25 42  1  0  0  0  0
M  END
> <PUBCHEM_COMPOUND_CID>
51137928

> <PUBCHEM_CONFORMER_RMSD>
0.8

> <PUBCHEM_CONFORMER_DIVERSEORDER>
1
15
18
29
22
27
3
19
10
21
7
16
20
17
9
13
2
28
14
8
23
12
30
4
5
25
24
11
6
26

> <PUBCHEM_MMFF94_PARTIAL_CHARGES>
31
1 -0.28
10 0.37
11 0.3
12 0.41
13 -0.15
14 0.43
15 -0.15
16 0.05
17 0.16
18 0.07
19 -0.15
2 -0.84
20 -0.15
21 -0.14
22 -0.15
23 -0.15
24 0.48
25 0.14
3 -0.34
33 0.15
34 0.15
35 0.15
36 0.15
37 0.15
38 0.15
39 0.15
4 -0.62
5 -0.34
6 -0.56
7 0.18
9 0.37

> <PUBCHEM_EFFECTIVE_ROTOR_COUNT>
4

> <PUBCHEM_PHARMACOPHORE_FEATURES>
6
1 6 acceptor
3 2 4 12 cation
5 1 3 5 11 14 rings
5 2 7 8 9 10 rings
6 16 19 20 21 22 23 rings
6 4 12 13 15 17 18 rings

> <PUBCHEM_HEAVY_ATOM_COUNT>
25

> <PUBCHEM_ATOM_DEF_STEREO_COUNT>
1

> <PUBCHEM_ATOM_UDEF_STEREO_COUNT>
0

> <PUBCHEM_BOND_DEF_STEREO_COUNT>
0

> <PUBCHEM_BOND_UDEF_STEREO_COUNT>
0

> <PUBCHEM_ISOTOPIC_ATOM_COUNT>
0

> <PUBCHEM_COMPONENT_COUNT>
1

> <PUBCHEM_CACTVS_TAUTO_COUNT>
1

> <PUBCHEM_CONFORMER_ID>
030C4D8800000001

> <PUBCHEM_MMFF94_ENERGY>
63.6774

> <PUBCHEM_FEATURE_SELFOVERLAP>
30.448

> <PUBCHEM_SHAPE_FINGERPRINT>
10411042 1 17474670550914980686
10615611 76 17486509096502116505
10670039 82 17686917415878131060
10675989 125 18268711619261322433
10937287 8 18340204188706877662
11135609 187 18267854164106802149
11370993 70 18410854403666654728
12100795 323 18262514913407849820
12107183 9 18263627585716884058
12633257 1 18261940908587942274
12769317 202 18340197488842992433
12788726 201 18050268560621941963
12925494 130 18263930926346692313
13402501 40 18116434735055254653
13590594 115 17475523771995754490
13944108 23 18049452448015739060
13965767 371 18040426694596587966
14223995 32 18270671095701971464
14251764 38 18410288142399073171
14251764 75 18342184362442588513
14790565 3 18048321343183585268
14848178 96 18341610429856435824
15081414 286 18126296246371134126
15142526 21 18334295328021665675
15295992 7 18187653453102898691
15326921 28 17910376618520729992
155225 5 17546727514014878012
16067690 210 16464707003291902712
16087824 20 18194684761896806724
1768 85 18338246960053799233
18335252 114 18051123692983904511
20621476 13 18339081488629980233
20715895 44 18340200782808517697
21049683 118 17458341893473364491
21279426 13 18270697462779494708
21315764 21 18341333288491178065
21344244 78 17251160732441612403
21388113 180 18261947441270915653
21475661 188 18335702685298062155
21860390 5 18129667374675440934
22122407 14 17980211786247719585
22182937 141 18266464389128705306
23379529 103 9834879718452493525
23845131 108 18259985955719170755
283562 15 17833542775503717942
2838139 119 18411978082975126679
376196 1 18410570686727902851
4487111 67 17474109177315011080
474 4 18341331072615243083
5048184 11 18341050829935313676
5312510 48 18194683670885741545
58902169 19 17771042918882456581
6036956 94 17686618352699451109
7288768 16 18114178683207907715
9849439 229 18334863856668320557
9981440 41 18267296728369214890

> <PUBCHEM_SHAPE_MULTIPOLES>
483.71
11.86
5.56
1.02
4.07
0.8
-0.12
16.34
0.15
-2.04
-0.18
0.99
-0.32
1.05

> <PUBCHEM_SHAPE_SELFOVERLAP>
1061.072

> <PUBCHEM_SHAPE_VOLUME>
261.4

> <PUBCHEM_COORDINATE_TYPE>
2
5
10

$$$$
