51137355
  -OEChem-12032416243D

 47 50  0     1  0  0  0  0  0999 V2000
   -7.3400    0.5342    0.2989 S   0  0  0  0  0  0  0  0  0  0  0  0
    3.2354   -0.4882    0.1511 O   0  0  0  0  0  0  0  0  0  0  0  0
   -7.6864    1.9319    0.5180 O   0  0  0  0  0  0  0  0  0  0  0  0
   -8.0957   -0.2554   -0.6630 O   0  0  0  0  0  0  0  0  0  0  0  0
   -0.7811   -0.7811   -0.3374 N   0  0  1  0  0  0  0  0  0  0  0  0
    3.6265   -2.6905    0.1158 N   0  0  0  0  0  0  0  0  0  0  0  0
    4.8442   -2.0393    0.0504 N   0  0  0  0  0  0  0  0  0  0  0  0
    7.6844    1.2639   -0.0897 N   0  0  0  0  0  0  0  0  0  0  0  0
    1.2122   -1.8634    0.2580 C   0  0  2  0  0  0  0  0  0  0  0  0
    0.4930   -1.2009   -0.9247 C   0  0  0  0  0  0  0  0  0  0  0  0
    0.5830   -1.2204    1.5062 C   0  0  0  0  0  0  0  0  0  0  0  0
   -0.4282   -0.2177    0.9657 C   0  0  0  0  0  0  0  0  0  0  0  0
   -1.4933    0.1702   -1.1779 C   0  0  0  0  0  0  0  0  0  0  0  0
    2.7165   -1.7464    0.1733 C   0  0  0  0  0  0  0  0  0  0  0  0
   -2.9506    0.2615   -0.8105 C   0  0  0  0  0  0  0  0  0  0  0  0
   -3.8320   -0.7480   -1.1975 C   0  0  0  0  0  0  0  0  0  0  0  0
   -3.4193    1.3555   -0.0831 C   0  0  0  0  0  0  0  0  0  0  0  0
    4.5675   -0.7564    0.0736 C   0  0  0  0  0  0  0  0  0  0  0  0
   -5.6506    0.4306   -0.1299 C   0  0  0  0  0  0  0  0  0  0  0  0
   -5.1820   -0.6635   -0.8572 C   0  0  0  0  0  0  0  0  0  0  0  0
   -4.7693    1.4401    0.2573 C   0  0  0  0  0  0  0  0  0  0  0  0
    5.4357    0.3842    0.0312 C   0  0  0  0  0  0  0  0  0  0  0  0
   -7.4464   -0.2788    1.8773 C   0  0  0  0  0  0  0  0  0  0  0  0
    4.9242    1.6767    0.0677 C   0  0  0  0  0  0  0  0  0  0  0  0
    6.8108    0.2330   -0.0469 C   0  0  0  0  0  0  0  0  0  0  0  0
    5.7912    2.7629    0.0256 C   0  0  0  0  0  0  0  0  0  0  0  0
    7.1503    2.5053   -0.0522 C   0  0  0  0  0  0  0  0  0  0  0  0
    0.9661   -2.9343    0.2697 H   0  0  0  0  0  0  0  0  0  0  0  0
    1.0570   -0.3418   -1.3117 H   0  0  0  0  0  0  0  0  0  0  0  0
    0.3456   -1.9105   -1.7462 H   0  0  0  0  0  0  0  0  0  0  0  0
    1.3130   -0.7366    2.1636 H   0  0  0  0  0  0  0  0  0  0  0  0
    0.0692   -1.9931    2.0919 H   0  0  0  0  0  0  0  0  0  0  0  0
   -1.2898   -0.1303    1.6349 H   0  0  0  0  0  0  0  0  0  0  0  0
    0.0457    0.7680    0.8719 H   0  0  0  0  0  0  0  0  0  0  0  0
   -1.4522   -0.1567   -2.2267 H   0  0  0  0  0  0  0  0  0  0  0  0
   -1.0229    1.1628   -1.1696 H   0  0  0  0  0  0  0  0  0  0  0  0
   -3.4785   -1.6062   -1.7629 H   0  0  0  0  0  0  0  0  0  0  0  0
   -2.7424    2.1471    0.2273 H   0  0  0  0  0  0  0  0  0  0  0  0
   -5.8487   -1.4650   -1.1626 H   0  0  0  0  0  0  0  0  0  0  0  0
   -5.1116    2.2971    0.8304 H   0  0  0  0  0  0  0  0  0  0  0  0
   -6.8188    0.2536    2.5944 H   0  0  0  0  0  0  0  0  0  0  0  0
   -7.1176   -1.3138    1.7663 H   0  0  0  0  0  0  0  0  0  0  0  0
   -8.4886   -0.2523    2.2025 H   0  0  0  0  0  0  0  0  0  0  0  0
    3.8571    1.8736    0.1289 H   0  0  0  0  0  0  0  0  0  0  0  0
    7.2784   -0.7469   -0.0790 H   0  0  0  0  0  0  0  0  0  0  0  0
    5.4153    3.7793    0.0528 H   0  0  0  0  0  0  0  0  0  0  0  0
    7.8683    3.3180   -0.0876 H   0  0  0  0  0  0  0  0  0  0  0  0
  1  3  2  0  0  0  0
  1  4  2  0  0  0  0
  1 19  1  0  0  0  0
  1 23  1  0  0  0  0
  2 14  1  0  0  0  0
  2 18  1  0  0  0  0
  5 10  1  0  0  0  0
  5 12  1  0  0  0  0
  5 13  1  0  0  0  0
  6  7  1  0  0  0  0
  6 14  2  0  0  0  0
  7 18  2  0  0  0  0
  8 25  1  0  0  0  0
  8 27  2  0  0  0  0
  9 10  1  0  0  0  0
  9 11  1  0  0  0  0
  9 14  1  0  0  0  0
  9 28  1  0  0  0  0
 10 29  1  0  0  0  0
 10 30  1  0  0  0  0
 11 12  1  0  0  0  0
 11 31  1  0  0  0  0
 11 32  1  0  0  0  0
 12 33  1  0  0  0  0
 12 34  1  0  0  0  0
 13 15  1  0  0  0  0
 13 35  1  0  0  0  0
 13 36  1  0  0  0  0
 15 16  2  0  0  0  0
 15 17  1  0  0  0  0
 16 20  1  0  0  0  0
 16 37  1  0  0  0  0
 17 21  2  0  0  0  0
 17 38  1  0  0  0  0
 18 22  1  0  0  0  0
 19 20  2  0  0  0  0
 19 21  1  0  0  0  0
 20 39  1  0  0  0  0
 21 40  1  0  0  0  0
 22 24  1  0  0  0  0
 22 25  2  0  0  0  0
 23 41  1  0  0  0  0
 23 42  1  0  0  0  0
 23 43  1  0  0  0  0
 24 26  2  0  0  0  0
 24 44  1  0  0  0  0
 25 45  1  0  0  0  0
 26 27  1  0  0  0  0
 26 46  1  0  0  0  0
 27 47  1  0  0  0  0
M  END
> <PUBCHEM_COMPOUND_CID>
51137355

> <PUBCHEM_CONFORMER_RMSD>
0.8

> <PUBCHEM_CONFORMER_DIVERSEORDER>
1
191
75
34
199
8
242
268
174
123
200
261
81
192
107
6
166
130
270
177
194
139
285
271
207
188
219
104
176
204
45
56
171
87
113
231
195
73
275
124
64
212
190
205
241
272
154
144
193
237
82
27
246
172
214
159
116
26
156
95
155
262
58
186
249
32
161
248
46
54
229
119
127
183
203
145
103
266
210
173
25
175
3
105
273
125
33
147
55
283
281
164
151
223
111
263
29
220
71
185
146
16
213
38
131
217
216
260
170
180
230
36
245
43
35
57
97
136
148
21
233
227
274
259
5
187
152
106
61
133
202
182
110
138
13
153
284
140
14
257
24
150
224
206
20
258
243
65
267
37
218
99
244
85
44
282
134
47
101
247
28
236
42
238
255
256
4
50
15
89
163
100
264
84
251
96
196
52
149
68
222
232
114
121
112
51
31
86
169
77
278
208
252
240
211
126
11
128
168
79
162
118
239
165
67
160
74
117
76
19
201
269
226
279
253
181
41
9
143
250
93
60
234
189
39
23
98
70
209
120
7
91
157
22
141
265
83
18
122
135
215
30
69
17
129
142
59
49
167
10
90
184
78
228
92
102
115
197
2
40
179
53
108
48
235
225
178
12
276
254
109
221
132
94
88
66
198
72
80
277
158
137
63
62
280

> <PUBCHEM_MMFF94_PARTIAL_CHARGES>
34
1 1.2
10 0.27
12 0.27
13 0.41
14 0.3
15 -0.14
16 -0.15
17 -0.15
18 0.43
19 -0.01
2 -0.28
20 -0.15
21 -0.15
22 0.05
23 0.11
24 -0.15
25 0.16
26 -0.15
27 0.16
3 -0.65
37 0.15
38 0.15
39 0.15
4 -0.65
40 0.15
44 0.15
45 0.15
46 0.15
47 0.15
5 -0.81
6 -0.34
7 -0.34
8 -0.62
9 0.18

> <PUBCHEM_EFFECTIVE_ROTOR_COUNT>
6

> <PUBCHEM_PHARMACOPHORE_FEATURES>
8
1 3 acceptor
1 4 acceptor
1 5 cation
1 8 acceptor
5 2 6 7 14 18 rings
5 5 9 10 11 12 rings
6 15 16 17 19 20 21 rings
6 8 22 24 25 26 27 rings

> <PUBCHEM_HEAVY_ATOM_COUNT>
27

> <PUBCHEM_ATOM_DEF_STEREO_COUNT>
1

> <PUBCHEM_ATOM_UDEF_STEREO_COUNT>
0

> <PUBCHEM_BOND_DEF_STEREO_COUNT>
0

> <PUBCHEM_BOND_UDEF_STEREO_COUNT>
0

> <PUBCHEM_ISOTOPIC_ATOM_COUNT>
0

> <PUBCHEM_COMPONENT_COUNT>
1

> <PUBCHEM_CACTVS_TAUTO_COUNT>
1

> <PUBCHEM_CONFORMER_ID>
030C4B4B00000001

> <PUBCHEM_MMFF94_ENERGY>
51.654

> <PUBCHEM_FEATURE_SELFOVERLAP>
40.615

> <PUBCHEM_SHAPE_FINGERPRINT>
10 15 17894630365773200035
10299344 5 18060416911369856695
10319688 67 16153707660651257920
10391435 84 17676490575629594523
10411042 1 17905605503146091426
10595046 47 18341889679971521863
10670039 82 15195294101526520259
10673678 19 18272654571448211110
10906281 52 17632588132493585023
11315181 36 18411980244762565205
11374522 155 17969508276242070564
11456790 92 18260540109658477208
11719270 70 13334735708964819537
11724838 91 18040434420926378670
12592606 108 8718828686599149600
12717326 120 15576141968619946465
12730499 353 18259985942728669746
12788726 201 17203332178474875472
13914758 101 8935006979862687079
13955234 65 17969212344616236690
14142895 15 18338795719223855703
14216079 64 10375878472039132916
14251757 52 18342739589965261337
14251764 18 17846775209634516295
14394314 77 18413112736785909225
14461889 52 17385731308767544691
14565420 104 18040712563578277738
14849402 71 18339926012645612033
14856354 85 17203607108427750919
14919807 6 13254254726645660713
14933364 13 18412825776427994925
15183329 4 16845576421770550256
15188451 53 12179838403659039838
15475509 8 14189580732141495451
15685185 35 18194123147641862836
15690457 1 11530482246183881704
15728490 51 18335701693772851679
1577012 14 18201712959736648663
15840311 113 18410577253753556317
17857418 61 8430317956947288788
18393751 57 17603864542110611254
19302320 297 18187924045645584252
20105231 36 14620794925412091125
20157964 124 18410573973031719618
20554085 129 16226042292922449153
21033648 29 16805876303907921015
21298829 104 18340204206805320220
21307412 95 12895075162634382972
21521721 280 18408042896869142203
21641784 216 16486980561468941976
2215653 11 12175620693891862390
22224240 67 17675924304832749859
23081809 10 17846484916689403879
23389318 12 18341601651845292015
23522609 53 17775017769180477937
23569917 315 10519691329294956829
23576562 1 15912179067260716521
2747138 104 17603877680215194205
2838139 119 18335691759470856596
28498 318 10375875168982175659
3004659 81 11167940264899854678
3014063 24 8358265847667337964
34797466 226 18202286874783878742
3711267 37 17703796920117808337
397830 11 18114472240075503531
4073 2 18334296487331032923
4093350 32 18202289082576403934
4325135 7 18413105060997764983
4340502 62 17458060456792954938
437795 51 18408606984825061529
444735 82 18260833674319565309
445580 126 18412254052753258488
445580 167 18341041987293652663
474113 269 11458692937335945649
5085150 59 13551476968945507369
5104073 3 17314499336445828945
5265222 85 17560230465706208775
5372103 7 15840127014389783344
54076057 255 17704067404367484744
5758199 1 18333449850191465147
5911458 16 18131639984129288745
59682541 35 17821732762511594449
59682541 52 17489321767868555030
6328613 192 18272932713662285865
6438161 24 10663824053399587036
9689198 14 18342462538514533429

> <PUBCHEM_SHAPE_MULTIPOLES>
521.96
25.16
2.4
1.1
10.13
0.35
-0.21
13.86
-2.54
-4.52
-0.17
1.7
-0.22
-0.54

> <PUBCHEM_SHAPE_SELFOVERLAP>
1118.622

> <PUBCHEM_SHAPE_VOLUME>
292

> <PUBCHEM_COORDINATE_TYPE>
2
5
10

$$$$
