44716360
  -OEChem-12032416163D

 66 70  0     1  0  0  0  0  0999 V2000
   -2.9907   -3.5520    0.0426 O   0  0  0  0  0  0  0  0  0  0  0  0
   -5.7528   -3.3342   -0.1729 O   0  0  0  0  0  0  0  0  0  0  0  0
    2.7094    3.4864    0.5891 N   0  0  2  0  0  0  0  0  0  0  0  0
   -2.0433    3.2462    0.5528 N   0  0  0  0  0  0  0  0  0  0  0  0
    3.6689   -0.1532    0.2609 N   0  0  0  0  0  0  0  0  0  0  0  0
   -3.0693    2.3855    0.6659 N   0  0  0  0  0  0  0  0  0  0  0  0
    5.5649   -2.8536    0.7353 N   0  0  0  0  0  0  0  0  0  0  0  0
    1.2119    3.1378   -1.5130 C   0  0  2  0  0  0  0  0  0  0  0  0
    0.3407    3.5016   -0.2790 C   0  0  2  0  0  0  0  0  0  0  0  0
    3.0554    2.2016   -0.0740 C   0  0  2  0  0  0  0  0  0  0  0  0
    2.0451    1.8781   -1.1957 C   0  0  0  0  0  0  0  0  0  0  0  0
    2.2068    4.3010   -1.7140 C   0  0  0  0  0  0  0  0  0  0  0  0
    1.2737    3.4938    0.9656 C   0  0  0  0  0  0  0  0  0  0  0  0
    2.9371    4.5778   -0.3882 C   0  0  0  0  0  0  0  0  0  0  0  0
    3.1889    1.0485    0.9230 C   0  0  0  0  0  0  0  0  0  0  0  0
   -0.9398    2.7127   -0.0456 C   0  0  0  0  0  0  0  0  0  0  0  0
   -1.2664    1.4125   -0.3444 C   0  0  0  0  0  0  0  0  0  0  0  0
   -2.5888    1.2671    0.1160 C   0  0  0  0  0  0  0  0  0  0  0  0
    3.7886   -1.2584    1.2039 C   0  0  0  0  0  0  0  0  0  0  0  0
   -2.1937    4.5930    1.0531 C   0  0  0  0  0  0  0  0  0  0  0  0
   -3.4007    0.0805    0.0422 C   0  0  0  0  0  0  0  0  0  0  0  0
    4.2711   -2.5174    0.5338 C   0  0  0  0  0  0  0  0  0  0  0  0
   -2.8010   -1.1783    0.0784 C   0  0  0  0  0  0  0  0  0  0  0  0
   -4.7872    0.1897   -0.0662 C   0  0  0  0  0  0  0  0  0  0  0  0
    3.3888   -3.2559   -0.2383 C   0  0  0  0  0  0  0  0  0  0  0  0
   -3.5876   -2.3280    0.0063 C   0  0  0  0  0  0  0  0  0  0  0  0
   -5.5736   -0.9601   -0.1386 C   0  0  0  0  0  0  0  0  0  0  0  0
   -4.9739   -2.2188   -0.1022 C   0  0  0  0  0  0  0  0  0  0  0  0
    3.8652   -4.4141   -0.8425 C   0  0  0  0  0  0  0  0  0  0  0  0
    5.9921   -3.9856    0.1321 C   0  0  0  0  0  0  0  0  0  0  0  0
    5.1904   -4.7929   -0.6587 C   0  0  0  0  0  0  0  0  0  0  0  0
   -1.5689   -3.5764    0.1546 C   0  0  0  0  0  0  0  0  0  0  0  0
   -7.1610   -3.1352   -0.2824 C   0  0  0  0  0  0  0  0  0  0  0  0
    0.6001    2.9863   -2.4086 H   0  0  0  0  0  0  0  0  0  0  0  0
    0.0243    4.5425   -0.4443 H   0  0  0  0  0  0  0  0  0  0  0  0
    4.0482    2.3288   -0.5316 H   0  0  0  0  0  0  0  0  0  0  0  0
    2.5941    1.5738   -2.0960 H   0  0  0  0  0  0  0  0  0  0  0  0
    1.4045    1.0376   -0.9256 H   0  0  0  0  0  0  0  0  0  0  0  0
    2.9293    4.0423   -2.4976 H   0  0  0  0  0  0  0  0  0  0  0  0
    1.6797    5.2037   -2.0443 H   0  0  0  0  0  0  0  0  0  0  0  0
    1.0485    2.6549    1.6340 H   0  0  0  0  0  0  0  0  0  0  0  0
    1.0738    4.3894    1.5686 H   0  0  0  0  0  0  0  0  0  0  0  0
    4.0118    4.6980   -0.5727 H   0  0  0  0  0  0  0  0  0  0  0  0
    2.6039    5.5331    0.0372 H   0  0  0  0  0  0  0  0  0  0  0  0
    2.2232    0.8381    1.3967 H   0  0  0  0  0  0  0  0  0  0  0  0
    3.8880    1.3399    1.7176 H   0  0  0  0  0  0  0  0  0  0  0  0
   -0.6545    0.6756   -0.8404 H   0  0  0  0  0  0  0  0  0  0  0  0
    4.5762    0.0326   -0.1665 H   0  0  0  0  0  0  0  0  0  0  0  0
    4.4899   -0.9953    2.0062 H   0  0  0  0  0  0  0  0  0  0  0  0
    2.8230   -1.4671    1.6820 H   0  0  0  0  0  0  0  0  0  0  0  0
   -1.3821    4.8018    1.7533 H   0  0  0  0  0  0  0  0  0  0  0  0
   -2.1676    5.2816    0.2052 H   0  0  0  0  0  0  0  0  0  0  0  0
   -3.1524    4.6834    1.5713 H   0  0  0  0  0  0  0  0  0  0  0  0
   -1.7220   -1.2201    0.1784 H   0  0  0  0  0  0  0  0  0  0  0  0
   -5.2819    1.1573   -0.1054 H   0  0  0  0  0  0  0  0  0  0  0  0
    2.3562   -2.9525   -0.3748 H   0  0  0  0  0  0  0  0  0  0  0  0
   -6.6428   -0.7993   -0.2235 H   0  0  0  0  0  0  0  0  0  0  0  0
    3.2049   -5.0205   -1.4551 H   0  0  0  0  0  0  0  0  0  0  0  0
    7.0331   -4.2370    0.3066 H   0  0  0  0  0  0  0  0  0  0  0  0
    5.5833   -5.6917   -1.1199 H   0  0  0  0  0  0  0  0  0  0  0  0
   -1.0860   -3.1171   -0.7148 H   0  0  0  0  0  0  0  0  0  0  0  0
   -1.2303   -3.1405    1.1008 H   0  0  0  0  0  0  0  0  0  0  0  0
   -1.2654   -4.6286    0.1652 H   0  0  0  0  0  0  0  0  0  0  0  0
   -7.6239   -4.1266   -0.3269 H   0  0  0  0  0  0  0  0  0  0  0  0
   -7.4246   -2.6195   -1.2121 H   0  0  0  0  0  0  0  0  0  0  0  0
   -7.5679   -2.6341    0.6025 H   0  0  0  0  0  0  0  0  0  0  0  0
  1 26  1  0  0  0  0
  1 32  1  0  0  0  0
  2 28  1  0  0  0  0
  2 33  1  0  0  0  0
  3 10  1  0  0  0  0
  3 13  1  0  0  0  0
  3 14  1  0  0  0  0
  4  6  1  0  0  0  0
  4 16  1  0  0  0  0
  4 20  1  0  0  0  0
  5 15  1  0  0  0  0
  5 19  1  0  0  0  0
  5 48  1  0  0  0  0
  6 18  2  0  0  0  0
  7 22  1  0  0  0  0
  7 30  2  0  0  0  0
  8  9  1  0  0  0  0
  8 11  1  0  0  0  0
  8 12  1  0  0  0  0
  8 34  1  0  0  0  0
  9 13  1  0  0  0  0
  9 16  1  0  0  0  0
  9 35  1  0  0  0  0
 10 11  1  0  0  0  0
 10 15  1  0  0  0  0
 10 36  1  0  0  0  0
 11 37  1  0  0  0  0
 11 38  1  0  0  0  0
 12 14  1  0  0  0  0
 12 39  1  0  0  0  0
 12 40  1  0  0  0  0
 13 41  1  0  0  0  0
 13 42  1  0  0  0  0
 14 43  1  0  0  0  0
 14 44  1  0  0  0  0
 15 45  1  0  0  0  0
 15 46  1  0  0  0  0
 16 17  2  0  0  0  0
 17 18  1  0  0  0  0
 17 47  1  0  0  0  0
 18 21  1  0  0  0  0
 19 22  1  0  0  0  0
 19 49  1  0  0  0  0
 19 50  1  0  0  0  0
 20 51  1  0  0  0  0
 20 52  1  0  0  0  0
 20 53  1  0  0  0  0
 21 23  2  0  0  0  0
 21 24  1  0  0  0  0
 22 25  2  0  0  0  0
 23 26  1  0  0  0  0
 23 54  1  0  0  0  0
 24 27  2  0  0  0  0
 24 55  1  0  0  0  0
 25 29  1  0  0  0  0
 25 56  1  0  0  0  0
 26 28  2  0  0  0  0
 27 28  1  0  0  0  0
 27 57  1  0  0  0  0
 29 31  2  0  0  0  0
 29 58  1  0  0  0  0
 30 31  1  0  0  0  0
 30 59  1  0  0  0  0
 31 60  1  0  0  0  0
 32 61  1  0  0  0  0
 32 62  1  0  0  0  0
 32 63  1  0  0  0  0
 33 64  1  0  0  0  0
 33 65  1  0  0  0  0
 33 66  1  0  0  0  0
M  END
> <PUBCHEM_COMPOUND_CID>
44716360

> <PUBCHEM_CONFORMER_RMSD>
1

> <PUBCHEM_CONFORMER_DIVERSEORDER>
1
49
52
41
22
63
33
9
68
79
42
46
61
31
12
55
43
48
65
66
54
73
77
34
57
64
71
30
39
44
58
32
7
40
26
56
38
69
14
50
62
78
10
37
59
70
6
35
25
20
24
47
23
51
75
16
15
76
80
72
19
21
18
60
67
3
13
36
11
17
45
74
4
8
2
28
5
27
53
29

> <PUBCHEM_MMFF94_PARTIAL_CHARGES>
39
1 -0.36
10 0.27
13 0.27
14 0.27
15 0.27
16 -0.33
17 -0.15
18 0.23
19 0.41
2 -0.36
20 0.26
21 0.05
22 0.17
23 -0.15
24 -0.15
25 -0.15
26 0.08
27 -0.15
28 0.08
29 -0.15
3 -0.81
30 0.16
31 -0.15
32 0.28
33 0.28
4 0.31
47 0.15
48 0.36
5 -0.9
54 0.15
55 0.15
56 0.15
57 0.15
58 0.15
59 0.15
6 -0.71
60 0.15
7 -0.62
9 0.18

> <PUBCHEM_EFFECTIVE_ROTOR_COUNT>
9.2

> <PUBCHEM_PHARMACOPHORE_FEATURES>
11
1 1 acceptor
1 2 acceptor
1 3 cation
1 5 cation
1 5 donor
1 6 acceptor
1 7 acceptor
5 4 6 16 17 18 rings
6 21 23 24 26 27 28 rings
6 7 22 25 29 30 31 rings
8 3 8 9 10 11 12 13 14 rings

> <PUBCHEM_HEAVY_ATOM_COUNT>
33

> <PUBCHEM_ATOM_DEF_STEREO_COUNT>
3

> <PUBCHEM_ATOM_UDEF_STEREO_COUNT>
0

> <PUBCHEM_BOND_DEF_STEREO_COUNT>
0

> <PUBCHEM_BOND_UDEF_STEREO_COUNT>
0

> <PUBCHEM_ISOTOPIC_ATOM_COUNT>
0

> <PUBCHEM_COMPONENT_COUNT>
1

> <PUBCHEM_CACTVS_TAUTO_COUNT>
1

> <PUBCHEM_CONFORMER_ID>
02AA514800000001

> <PUBCHEM_MMFF94_ENERGY>
101.3453

> <PUBCHEM_FEATURE_SELFOVERLAP>
55.827

> <PUBCHEM_SHAPE_FINGERPRINT>
10042902 136 18193277399797720628
11014199 57 18338516327084763250
11069576 57 18264485272504264764
11285246 1 18188212000587735218
117089 54 18341054012791540526
11756154 67 18194124010354581390
12107183 9 18340778031483904369
12677640 9 18126565618436050993
12841400 136 18408318874177677867
13989917 61 18193275415196769931
14114206 34 16734400278955288360
14117953 113 18121495748718588157
144659 178 18337117744237025222
14866123 147 18197218040876850585
15264996 154 18263655133073703046
15320291 9 18265606774433758930
15320467 1 18267021850377984658
15400415 2 17473544028981321277
15803439 3 16380555296501654860
16067689 302 17974849777593803115
16628084 112 18337669815555074983
17492 89 18410854360748695225
17627616 140 18192999433255799423
17909252 39 18338518659014635168
19301676 85 17977657611834971463
19311894 1 18049721823858411186
19319366 153 17907859852967116580
20028762 73 18194118741115758104
20775530 9 18336817581630281936
23559900 14 18411129238940209537
23569914 152 18053345927018243335
3004659 81 17971183974785547897
32027 91 18338789031633163213
325973 47 18337955687471046954
3886686 26 18054510205492527113
4017518 198 17401485949084574957
404807 14 18267871584241161627
4435113 14 17462014464132031371
56633871 153 18267873787305754793
613672 6 18121189062130530924
6679774 75 17543108626315565673
7970288 3 18266176128546596606

> <PUBCHEM_SHAPE_MULTIPOLES>
642.48
14.07
9.31
1.06
6.58
0.49
0.16
-23.34
-0.22
-7.42
1.16
-0.82
0.83
-1.19

> <PUBCHEM_SHAPE_SELFOVERLAP>
1386.839

> <PUBCHEM_SHAPE_VOLUME>
350.9

> <PUBCHEM_COORDINATE_TYPE>
2
5
10

$$$$
