11887496
  -OEChem-12032416413D

 58 62  0     1  0  0  0  0  0999 V2000
   -1.3172   -5.2027   -1.1448 F   0  0  0  0  0  0  0  0  0  0  0  0
   -0.1173    2.8374    1.2863 O   0  0  0  0  0  0  0  0  0  0  0  0
   -3.4816   -0.8211    2.7221 O   0  0  0  0  0  0  0  0  0  0  0  0
    2.3368   -0.2448   -1.5351 O   0  0  0  0  0  0  0  0  0  0  0  0
    4.9278    0.1310   -0.9155 O   0  0  0  0  0  0  0  0  0  0  0  0
   -4.2651    0.1211    0.7288 N   0  0  0  0  0  0  0  0  0  0  0  0
   -1.9531    2.1685    0.0051 N   0  0  0  0  0  0  0  0  0  0  0  0
    1.6939    1.7159   -0.4495 N   0  0  0  0  0  0  0  0  0  0  0  0
   -4.3736    2.6074    0.7196 C   0  0  1  0  0  0  0  0  0  0  0  0
   -3.9149    1.3955   -1.3737 C   0  0  2  0  0  0  0  0  0  0  0  0
   -4.6702    2.5816   -0.7759 C   0  0  0  0  0  0  0  0  0  0  0  0
   -4.8381    1.2976    1.3819 C   0  0  0  0  0  0  0  0  0  0  0  0
   -2.8737    2.8562    0.9216 C   0  0  0  0  0  0  0  0  0  0  0  0
   -4.4199    0.0863   -0.7345 C   0  0  0  0  0  0  0  0  0  0  0  0
   -2.4208    1.5308   -1.1486 C   0  0  0  0  0  0  0  0  0  0  0  0
   -1.5533    1.0091   -2.0321 C   0  0  0  0  0  0  0  0  0  0  0  0
   -0.5773    2.2718    0.2934 C   0  0  0  0  0  0  0  0  0  0  0  0
   -3.6141   -0.8448    1.4997 C   0  0  0  0  0  0  0  0  0  0  0  0
    0.3551    1.6533   -0.7018 C   0  0  0  0  0  0  0  0  0  0  0  0
   -0.1379    1.0722   -1.8006 C   0  0  0  0  0  0  0  0  0  0  0  0
   -3.0123   -1.9874    0.8046 C   0  0  0  0  0  0  0  0  0  0  0  0
   -1.6919   -1.9154    0.3681 C   0  0  0  0  0  0  0  0  0  0  0  0
   -3.7632   -3.1395    0.5860 C   0  0  0  0  0  0  0  0  0  0  0  0
    2.6038    0.7613   -0.8827 C   0  0  0  0  0  0  0  0  0  0  0  0
   -1.1187   -3.0025   -0.2916 C   0  0  0  0  0  0  0  0  0  0  0  0
   -3.1900   -4.2268   -0.0737 C   0  0  0  0  0  0  0  0  0  0  0  0
   -1.8677   -4.1582   -0.5125 C   0  0  0  0  0  0  0  0  0  0  0  0
    4.0148    1.1021   -0.4500 C   0  0  0  0  0  0  0  0  0  0  0  0
    6.0637   -0.0719   -0.1680 C   0  0  0  0  0  0  0  0  0  0  0  0
    6.5985    0.9804    0.5624 C   0  0  0  0  0  0  0  0  0  0  0  0
    6.6586   -1.3258   -0.1550 C   0  0  0  0  0  0  0  0  0  0  0  0
    7.7508    0.7744    1.3209 C   0  0  0  0  0  0  0  0  0  0  0  0
    7.8110   -1.5317    0.6035 C   0  0  0  0  0  0  0  0  0  0  0  0
    8.3571   -0.4816    1.3415 C   0  0  0  0  0  0  0  0  0  0  0  0
   -4.9260    3.4304    1.1898 H   0  0  0  0  0  0  0  0  0  0  0  0
   -4.1273    1.3610   -2.4501 H   0  0  0  0  0  0  0  0  0  0  0  0
   -5.7480    2.4772   -0.9507 H   0  0  0  0  0  0  0  0  0  0  0  0
   -4.3572    3.5210   -1.2485 H   0  0  0  0  0  0  0  0  0  0  0  0
   -4.5939    1.3060    2.4495 H   0  0  0  0  0  0  0  0  0  0  0  0
   -5.9282    1.2055    1.3015 H   0  0  0  0  0  0  0  0  0  0  0  0
   -2.6751    3.9285    0.7883 H   0  0  0  0  0  0  0  0  0  0  0  0
   -2.5809    2.6218    1.9528 H   0  0  0  0  0  0  0  0  0  0  0  0
   -5.4907   -0.0412   -0.9361 H   0  0  0  0  0  0  0  0  0  0  0  0
   -3.9112   -0.7734   -1.1772 H   0  0  0  0  0  0  0  0  0  0  0  0
   -1.8925    0.5003   -2.9285 H   0  0  0  0  0  0  0  0  0  0  0  0
    0.4742    0.6521   -2.5896 H   0  0  0  0  0  0  0  0  0  0  0  0
    1.9947    2.3714    0.2678 H   0  0  0  0  0  0  0  0  0  0  0  0
   -1.0966   -1.0244    0.5449 H   0  0  0  0  0  0  0  0  0  0  0  0
   -4.7942   -3.2027    0.9238 H   0  0  0  0  0  0  0  0  0  0  0  0
   -0.0885   -2.9495   -0.6314 H   0  0  0  0  0  0  0  0  0  0  0  0
   -3.7729   -5.1267   -0.2457 H   0  0  0  0  0  0  0  0  0  0  0  0
    4.2771    2.0816   -0.8664 H   0  0  0  0  0  0  0  0  0  0  0  0
    3.9951    1.1525    0.6470 H   0  0  0  0  0  0  0  0  0  0  0  0
    6.1719    1.9785    0.5512 H   0  0  0  0  0  0  0  0  0  0  0  0
    6.2358   -2.1456   -0.7284 H   0  0  0  0  0  0  0  0  0  0  0  0
    8.1800    1.5934    1.8908 H   0  0  0  0  0  0  0  0  0  0  0  0
    8.2832   -2.5096    0.6193 H   0  0  0  0  0  0  0  0  0  0  0  0
    9.2552   -0.6415    1.9310 H   0  0  0  0  0  0  0  0  0  0  0  0
  1 27  1  0  0  0  0
  2 17  2  0  0  0  0
  3 18  2  0  0  0  0
  4 24  2  0  0  0  0
  5 28  1  0  0  0  0
  5 29  1  0  0  0  0
  6 12  1  0  0  0  0
  6 14  1  0  0  0  0
  6 18  1  0  0  0  0
  7 13  1  0  0  0  0
  7 15  1  0  0  0  0
  7 17  1  0  0  0  0
  8 19  1  0  0  0  0
  8 24  1  0  0  0  0
  8 47  1  0  0  0  0
  9 11  1  0  0  0  0
  9 12  1  0  0  0  0
  9 13  1  0  0  0  0
  9 35  1  0  0  0  0
 10 11  1  0  0  0  0
 10 14  1  0  0  0  0
 10 15  1  0  0  0  0
 10 36  1  0  0  0  0
 11 37  1  0  0  0  0
 11 38  1  0  0  0  0
 12 39  1  0  0  0  0
 12 40  1  0  0  0  0
 13 41  1  0  0  0  0
 13 42  1  0  0  0  0
 14 43  1  0  0  0  0
 14 44  1  0  0  0  0
 15 16  2  0  0  0  0
 16 20  1  0  0  0  0
 16 45  1  0  0  0  0
 17 19  1  0  0  0  0
 18 21  1  0  0  0  0
 19 20  2  0  0  0  0
 20 46  1  0  0  0  0
 21 22  2  0  0  0  0
 21 23  1  0  0  0  0
 22 25  1  0  0  0  0
 22 48  1  0  0  0  0
 23 26  2  0  0  0  0
 23 49  1  0  0  0  0
 24 28  1  0  0  0  0
 25 27  2  0  0  0  0
 25 50  1  0  0  0  0
 26 27  1  0  0  0  0
 26 51  1  0  0  0  0
 28 52  1  0  0  0  0
 28 53  1  0  0  0  0
 29 30  2  0  0  0  0
 29 31  1  0  0  0  0
 30 32  1  0  0  0  0
 30 54  1  0  0  0  0
 31 33  2  0  0  0  0
 31 55  1  0  0  0  0
 32 34  2  0  0  0  0
 32 56  1  0  0  0  0
 33 34  1  0  0  0  0
 33 57  1  0  0  0  0
 34 58  1  0  0  0  0
M  END
> <PUBCHEM_COMPOUND_CID>
11887496

> <PUBCHEM_CONFORMER_RMSD>
1

> <PUBCHEM_CONFORMER_DIVERSEORDER>
1
24
34
19
38
53
56
51
15
47
60
55
27
52
46
37
10
3
18
45
30
50
20
35
43
54
4
39
8
32
48
42
14
59
57
5
21
49
40
16
26
12
58
28
13
29
11
2
9
33
36
22
23
17
31
25
41
44
7
6

> <PUBCHEM_MMFF94_PARTIAL_CHARGES>
44
1 -0.19
10 0.14
12 0.3
13 0.3
14 0.3
15 -0.03
16 -0.15
17 0.62
18 0.54
19 0.12
2 -0.57
20 -0.15
21 0.09
22 -0.15
23 -0.15
24 0.57
25 -0.15
26 -0.15
27 0.19
28 0.34
29 0.08
3 -0.57
30 -0.15
31 -0.15
32 -0.15
33 -0.15
34 -0.15
4 -0.57
45 0.15
46 0.15
47 0.37
48 0.15
49 0.15
5 -0.36
50 0.15
51 0.15
54 0.15
55 0.15
56 0.15
57 0.15
58 0.15
6 -0.66
7 -0.47
8 -0.54

> <PUBCHEM_EFFECTIVE_ROTOR_COUNT>
8

> <PUBCHEM_PHARMACOPHORE_FEATURES>
10
1 2 acceptor
1 3 acceptor
1 4 acceptor
1 5 acceptor
1 8 donor
6 21 22 23 25 26 27 rings
6 29 30 31 32 33 34 rings
6 6 9 10 11 12 14 rings
6 7 15 16 17 19 20 rings
6 7 9 10 11 13 15 rings

> <PUBCHEM_HEAVY_ATOM_COUNT>
34

> <PUBCHEM_ATOM_DEF_STEREO_COUNT>
2

> <PUBCHEM_ATOM_UDEF_STEREO_COUNT>
0

> <PUBCHEM_BOND_DEF_STEREO_COUNT>
0

> <PUBCHEM_BOND_UDEF_STEREO_COUNT>
0

> <PUBCHEM_ISOTOPIC_ATOM_COUNT>
0

> <PUBCHEM_COMPONENT_COUNT>
1

> <PUBCHEM_CACTVS_TAUTO_COUNT>
2

> <PUBCHEM_CONFORMER_ID>
00B5638800000001

> <PUBCHEM_MMFF94_ENERGY>
103.1826

> <PUBCHEM_FEATURE_SELFOVERLAP>
52.336

> <PUBCHEM_SHAPE_FINGERPRINT>
10483366 6 18338785832837472775
11112241 14 17916875599480465847
11524674 6 18410572851506977711
12202916 173 17988638584743020125
12422481 6 18409455782596708294
12633257 1 17769973308727297889
12712778 12 18410579508489969596
13782708 43 16950563273318795172
14659021 117 18272642472488506213
14844126 61 18409168852504830683
14866123 147 18336266824941983339
14904385 31 18270110215769363898
14950920 106 17916594266211575352
15021287 119 17095246929905963420
15183329 4 15502374535242679240
15320294 125 18186524301826483806
15348495 7 18342453777488469232
15361156 5 17821739342860700668
19611394 137 18130787889410764296
20775530 9 17549001291312594287
21987440 362 17609492731210743420
229767 44 18409173220581918654
244849 19 17631473206307130550
3383291 50 18412826902153083799
397830 11 18341323509821478304
4073 2 18341324549292669180
44426701 194 13468476945120533107
484985 159 18335697291051403175
5080951 261 18115007672268118996
5085150 59 18411982442604490879
513202 73 17968380159878082703
68570916 9 18187928435043755492

> <PUBCHEM_SHAPE_MULTIPOLES>
654.01
18.18
4.92
1.68
54.66
6.61
-0.2
0.54
-7.02
-7.77
0.46
-0.98
-0.3
0.12

> <PUBCHEM_SHAPE_SELFOVERLAP>
1436.897

> <PUBCHEM_SHAPE_VOLUME>
349.6

> <PUBCHEM_COORDINATE_TYPE>
2
5
10

$$$$
