75536655
  -OEChem-12032416323D

 47 48  0     1  0  0  0  0  0999 V2000
    6.3025    0.4276    0.1306 S   0  0  0  0  0  0  0  0  0  0  0  0
    2.1912    0.7327    0.8069 O   0  0  0  0  0  0  0  0  0  0  0  0
    1.1005   -2.3102   -0.7606 O   0  0  0  0  0  0  0  0  0  0  0  0
   -6.8202   -1.1843    0.5995 O   0  0  0  0  0  0  0  0  0  0  0  0
    7.2903    0.3797    1.1908 O   0  0  0  0  0  0  0  0  0  0  0  0
    5.9674    1.6822   -0.5151 O   0  0  0  0  0  0  0  0  0  0  0  0
   -0.9737    0.0491   -0.8508 N   0  0  0  0  0  0  0  0  0  0  0  0
   -5.0280    0.2678    0.3220 N   0  0  0  0  0  0  0  0  0  0  0  0
    4.8570   -0.3141    0.6517 N   0  0  0  0  0  0  0  0  0  0  0  0
    0.1507   -0.2065    0.0348 C   0  0  1  0  0  0  0  0  0  0  0  0
   -2.1651    0.4082   -0.0856 C   0  0  0  0  0  0  0  0  0  0  0  0
    1.3091   -0.9164   -0.6411 C   0  0  1  0  0  0  0  0  0  0  0  0
    2.4493   -0.5930    0.3151 C   0  0  1  0  0  0  0  0  0  0  0  0
    0.8215    1.0674    0.5220 C   0  0  0  0  0  0  0  0  0  0  0  0
   -2.8381   -0.8555    0.4650 C   0  0  0  0  0  0  0  0  0  0  0  0
   -3.1419    1.1938   -0.9703 C   0  0  0  0  0  0  0  0  0  0  0  0
   -4.1389   -0.5098    1.1877 C   0  0  0  0  0  0  0  0  0  0  0  0
   -4.4380    1.4987   -0.2191 C   0  0  0  0  0  0  0  0  0  0  0  0
    3.8165   -0.6390   -0.3435 C   0  0  0  0  0  0  0  0  0  0  0  0
   -6.3359   -0.1636    0.1038 C   0  0  0  0  0  0  0  0  0  0  0  0
   -7.1870    0.6904   -0.8017 C   0  0  0  0  0  0  0  0  0  0  0  0
    6.8106   -0.7054   -1.1421 C   0  0  0  0  0  0  0  0  0  0  0  0
   -0.1484   -0.8179    0.8951 H   0  0  0  0  0  0  0  0  0  0  0  0
   -1.9009    1.0656    0.7534 H   0  0  0  0  0  0  0  0  0  0  0  0
    1.4987   -0.5005   -1.6385 H   0  0  0  0  0  0  0  0  0  0  0  0
    2.4377   -1.2704    1.1792 H   0  0  0  0  0  0  0  0  0  0  0  0
   -1.1633   -0.7718   -1.4249 H   0  0  0  0  0  0  0  0  0  0  0  0
    0.8339    1.8509   -0.2445 H   0  0  0  0  0  0  0  0  0  0  0  0
    0.3559    1.4752    1.4241 H   0  0  0  0  0  0  0  0  0  0  0  0
   -2.1877   -1.3920    1.1635 H   0  0  0  0  0  0  0  0  0  0  0  0
   -3.0656   -1.5473   -0.3575 H   0  0  0  0  0  0  0  0  0  0  0  0
   -3.3803    0.6125   -1.8711 H   0  0  0  0  0  0  0  0  0  0  0  0
   -2.6829    2.1324   -1.3036 H   0  0  0  0  0  0  0  0  0  0  0  0
   -4.6288   -1.4289    1.5242 H   0  0  0  0  0  0  0  0  0  0  0  0
   -3.9345    0.0972    2.0777 H   0  0  0  0  0  0  0  0  0  0  0  0
   -4.2393    2.1625    0.6307 H   0  0  0  0  0  0  0  0  0  0  0  0
   -5.1254    2.0246   -0.8839 H   0  0  0  0  0  0  0  0  0  0  0  0
    3.8515    0.0946   -1.1565 H   0  0  0  0  0  0  0  0  0  0  0  0
    4.0107   -1.6358   -0.7523 H   0  0  0  0  0  0  0  0  0  0  0  0
    0.9298   -2.6711    0.1258 H   0  0  0  0  0  0  0  0  0  0  0  0
    4.9509   -1.0245    1.3898 H   0  0  0  0  0  0  0  0  0  0  0  0
   -6.7414    0.7451   -1.7985 H   0  0  0  0  0  0  0  0  0  0  0  0
   -7.3045    1.6910   -0.3775 H   0  0  0  0  0  0  0  0  0  0  0  0
   -8.1806    0.2417   -0.8969 H   0  0  0  0  0  0  0  0  0  0  0  0
    7.7843   -0.3750   -1.5118 H   0  0  0  0  0  0  0  0  0  0  0  0
    6.9035   -1.7044   -0.7118 H   0  0  0  0  0  0  0  0  0  0  0  0
    6.0897   -0.6913   -1.9605 H   0  0  0  0  0  0  0  0  0  0  0  0
  1  5  2  0  0  0  0
  1  6  2  0  0  0  0
  1  9  1  0  0  0  0
  1 22  1  0  0  0  0
  2 13  1  0  0  0  0
  2 14  1  0  0  0  0
  3 12  1  0  0  0  0
  3 40  1  0  0  0  0
  4 20  2  0  0  0  0
  7 10  1  0  0  0  0
  7 11  1  0  0  0  0
  7 27  1  0  0  0  0
  8 17  1  0  0  0  0
  8 18  1  0  0  0  0
  8 20  1  0  0  0  0
  9 19  1  0  0  0  0
  9 41  1  0  0  0  0
 10 12  1  0  0  0  0
 10 14  1  0  0  0  0
 10 23  1  0  0  0  0
 11 15  1  0  0  0  0
 11 16  1  0  0  0  0
 11 24  1  0  0  0  0
 12 13  1  0  0  0  0
 12 25  1  0  0  0  0
 13 19  1  0  0  0  0
 13 26  1  0  0  0  0
 14 28  1  0  0  0  0
 14 29  1  0  0  0  0
 15 17  1  0  0  0  0
 15 30  1  0  0  0  0
 15 31  1  0  0  0  0
 16 18  1  0  0  0  0
 16 32  1  0  0  0  0
 16 33  1  0  0  0  0
 17 34  1  0  0  0  0
 17 35  1  0  0  0  0
 18 36  1  0  0  0  0
 18 37  1  0  0  0  0
 19 38  1  0  0  0  0
 19 39  1  0  0  0  0
 20 21  1  0  0  0  0
 21 42  1  0  0  0  0
 21 43  1  0  0  0  0
 21 44  1  0  0  0  0
 22 45  1  0  0  0  0
 22 46  1  0  0  0  0
 22 47  1  0  0  0  0
M  END
> <PUBCHEM_COMPOUND_CID>
75536655

> <PUBCHEM_CONFORMER_RMSD>
1

> <PUBCHEM_CONFORMER_DIVERSEORDER>
1
52
28
40
74
85
92
73
54
78
82
55
77
58
38
75
25
26
84
17
66
30
57
61
63
81
91
31
46
64
9
33
86
79
44
71
60
83
3
35
70
50
62
34
87
72
10
90
39
69
37
47
93
49
45
76
27
19
89
22
24
32
43
42
21
16
7
15
53
56
68
41
14
6
51
4
12
67
29
18
65
36
59
13
8
23
80
20
2
88
5
11
48

> <PUBCHEM_MMFF94_PARTIAL_CHARGES>
23
1 1.33
10 0.27
11 0.27
12 0.28
13 0.28
14 0.28
17 0.3
18 0.3
19 0.36
2 -0.56
20 0.57
21 0.06
22 0.11
27 0.36
3 -0.68
4 -0.57
40 0.4
41 0.42
5 -0.65
6 -0.65
7 -0.9
8 -0.66
9 -0.91

> <PUBCHEM_EFFECTIVE_ROTOR_COUNT>
8.2

> <PUBCHEM_PHARMACOPHORE_FEATURES>
11
1 2 acceptor
1 3 acceptor
1 3 donor
1 4 acceptor
1 5 acceptor
1 6 acceptor
1 7 cation
1 7 donor
1 9 donor
5 2 10 12 13 14 rings
6 8 11 15 16 17 18 rings

> <PUBCHEM_HEAVY_ATOM_COUNT>
22

> <PUBCHEM_ATOM_DEF_STEREO_COUNT>
3

> <PUBCHEM_ATOM_UDEF_STEREO_COUNT>
0

> <PUBCHEM_BOND_DEF_STEREO_COUNT>
0

> <PUBCHEM_BOND_UDEF_STEREO_COUNT>
0

> <PUBCHEM_ISOTOPIC_ATOM_COUNT>
0

> <PUBCHEM_COMPONENT_COUNT>
1

> <PUBCHEM_CACTVS_TAUTO_COUNT>
1

> <PUBCHEM_CONFORMER_ID>
0480990F00000001

> <PUBCHEM_MMFF94_ENERGY>
32.2858

> <PUBCHEM_FEATURE_SELFOVERLAP>
55.84

> <PUBCHEM_SHAPE_FINGERPRINT>
10 15 18335136527425882160
10638233 991 16702301286775569248
10968037 39 17603587431036723843
11315181 36 18186524302638684977
11719270 70 18412542090081827042
12091667 2 17203327802430733889
12166972 35 12967125029688639267
12236239 1 15429758380248937643
12516196 113 18411702084208487721
13533116 47 15338844114465914502
14170010 4 17918272069653369264
14251732 16 18260830410127861417
14251764 18 17748826319315873403
14251764 46 17989205941031842208
15716309 27 18260825999164929859
20281389 69 17917991668328610472
21150785 3 15913324706393723964
21521721 280 17775566459752759882
220451 1 14908177534278845020
22079108 93 17530962510447326354
22224240 67 18341609334597713626
23035841 295 16153425051707890801
23198884 109 15339120143339411279
23402539 116 16515684441967074014
23559900 14 18334010631946206825
23622692 88 17203607107800308549
3009799 131 7925912573662088526
34797466 226 18412271649070850396
3545911 37 17846497032596713255
4325135 7 17458347437906741188
4340502 62 17603583020126858634
5104073 3 18115875092305454585
57583515 80 14345794937959186893
59682541 35 18334294318646212144
59755656 215 18343866593309512046
59755656 520 16128651955755213687

> <PUBCHEM_SHAPE_MULTIPOLES>
412.31
20.87
1.4
1.02
5.82
0.08
0
-2.16
-0.11
-0.06
0.21
0.36
0.04
1.18

> <PUBCHEM_SHAPE_SELFOVERLAP>
814.444

> <PUBCHEM_SHAPE_VOLUME>
247.7

> <PUBCHEM_COORDINATE_TYPE>
2
5
10

$$$$
