40586210
  -OEChem-12032416383D

 66 70  0     1  0  0  0  0  0999 V2000
    0.7212    0.0505    2.2289 O   0  0  0  0  0  0  0  0  0  0  0  0
    2.4133   -2.5535    1.9253 O   0  0  0  0  0  0  0  0  0  0  0  0
    5.6820    0.0898    0.7471 O   0  0  0  0  0  0  0  0  0  0  0  0
    3.5026    0.8363    1.0857 N   0  0  0  0  0  0  0  0  0  0  0  0
   -0.1013   -2.8303    0.1424 N   0  0  0  0  0  0  0  0  0  0  0  0
   -1.9987   -1.5670   -0.3044 N   0  0  0  0  0  0  0  0  0  0  0  0
   -1.2449   -3.2737   -1.8297 N   0  0  0  0  0  0  0  0  0  0  0  0
   -6.5332    2.7840    0.4936 N   0  0  0  0  0  0  0  0  0  0  0  0
    2.3666   -1.3187    1.1913 C   0  0  1  0  0  0  0  0  0  0  0  0
    0.9174   -0.8750    1.1465 C   0  0  1  0  0  0  0  0  0  0  0  0
    3.0636   -0.2217    1.9631 C   0  0  2  0  0  0  0  0  0  0  0  0
    0.1348   -2.1431    1.3932 C   0  0  2  0  0  0  0  0  0  0  0  0
    1.9715    0.2594    2.9020 C   0  0  0  0  0  0  0  0  0  0  0  0
    1.0771   -2.9512    2.2664 C   0  0  0  0  0  0  0  0  0  0  0  0
    4.9639    2.0886   -0.3471 C   0  0  0  0  0  0  0  0  0  0  0  0
    4.7799    0.9001    0.5515 C   0  0  0  0  0  0  0  0  0  0  0  0
    6.4080    2.5927   -0.3029 C   0  0  0  0  0  0  0  0  0  0  0  0
    4.4968    1.7539   -1.7651 C   0  0  0  0  0  0  0  0  0  0  0  0
    7.3805    1.7219   -1.0980 C   0  0  0  0  0  0  0  0  0  0  0  0
    5.4878    0.8790   -2.5309 C   0  0  0  0  0  0  0  0  0  0  0  0
    6.8905    1.4756   -2.5201 C   0  0  0  0  0  0  0  0  0  0  0  0
   -1.1619   -2.5451   -0.7001 C   0  0  0  0  0  0  0  0  0  0  0  0
   -3.0183   -1.3132   -1.1508 C   0  0  0  0  0  0  0  0  0  0  0  0
   -2.2875   -2.9674   -2.6294 C   0  0  0  0  0  0  0  0  0  0  0  0
   -3.2148   -1.9876   -2.3387 C   0  0  0  0  0  0  0  0  0  0  0  0
   -3.9174   -0.2654   -0.7305 C   0  0  0  0  0  0  0  0  0  0  0  0
   -5.2692   -0.5450   -0.5300 C   0  0  0  0  0  0  0  0  0  0  0  0
   -3.4345    1.0269   -0.5240 C   0  0  0  0  0  0  0  0  0  0  0  0
   -6.1381    0.4675   -0.1234 C   0  0  0  0  0  0  0  0  0  0  0  0
   -4.3033    2.0394   -0.1175 C   0  0  0  0  0  0  0  0  0  0  0  0
   -5.6551    1.7599    0.0829 C   0  0  0  0  0  0  0  0  0  0  0  0
   -7.9397    2.5042    0.7045 C   0  0  0  0  0  0  0  0  0  0  0  0
   -6.0396    4.1282    0.7180 C   0  0  0  0  0  0  0  0  0  0  0  0
    2.7868   -1.5105    0.1986 H   0  0  0  0  0  0  0  0  0  0  0  0
    0.6640   -0.3489    0.2205 H   0  0  0  0  0  0  0  0  0  0  0  0
    3.9270   -0.5859    2.5304 H   0  0  0  0  0  0  0  0  0  0  0  0
   -0.8055   -1.9841    1.9336 H   0  0  0  0  0  0  0  0  0  0  0  0
    1.9508   -0.3406    3.8184 H   0  0  0  0  0  0  0  0  0  0  0  0
    2.0613    1.3133    3.1823 H   0  0  0  0  0  0  0  0  0  0  0  0
    0.9295   -2.7124    3.3254 H   0  0  0  0  0  0  0  0  0  0  0  0
    0.9792   -4.0343    2.1433 H   0  0  0  0  0  0  0  0  0  0  0  0
    2.8148    1.5281    0.8011 H   0  0  0  0  0  0  0  0  0  0  0  0
    4.3295    2.8980    0.0400 H   0  0  0  0  0  0  0  0  0  0  0  0
    0.5619   -3.5278   -0.1757 H   0  0  0  0  0  0  0  0  0  0  0  0
    6.7579    2.6730    0.7335 H   0  0  0  0  0  0  0  0  0  0  0  0
    6.4346    3.6077   -0.7205 H   0  0  0  0  0  0  0  0  0  0  0  0
    4.3616    2.6919   -2.3192 H   0  0  0  0  0  0  0  0  0  0  0  0
    3.5187    1.2582   -1.7480 H   0  0  0  0  0  0  0  0  0  0  0  0
    7.5523    0.7640   -0.5972 H   0  0  0  0  0  0  0  0  0  0  0  0
    8.3563    2.2209   -1.1359 H   0  0  0  0  0  0  0  0  0  0  0  0
    5.1473    0.7629   -3.5662 H   0  0  0  0  0  0  0  0  0  0  0  0
    5.5119   -0.1260   -2.0928 H   0  0  0  0  0  0  0  0  0  0  0  0
    6.8905    2.4209   -3.0765 H   0  0  0  0  0  0  0  0  0  0  0  0
    7.5826    0.8014   -3.0371 H   0  0  0  0  0  0  0  0  0  0  0  0
   -2.3587   -3.5502   -3.5415 H   0  0  0  0  0  0  0  0  0  0  0  0
   -4.0337   -1.7738   -3.0143 H   0  0  0  0  0  0  0  0  0  0  0  0
   -5.6645   -1.5471   -0.6798 H   0  0  0  0  0  0  0  0  0  0  0  0
   -2.3842    1.2639   -0.6780 H   0  0  0  0  0  0  0  0  0  0  0  0
   -7.1801    0.1993    0.0203 H   0  0  0  0  0  0  0  0  0  0  0  0
   -3.8790    3.0279    0.0287 H   0  0  0  0  0  0  0  0  0  0  0  0
   -8.4882    3.3996    1.0174 H   0  0  0  0  0  0  0  0  0  0  0  0
   -8.0808    1.7601    1.4963 H   0  0  0  0  0  0  0  0  0  0  0  0
   -8.4165    2.1543   -0.2180 H   0  0  0  0  0  0  0  0  0  0  0  0
   -6.8403    4.8059    1.0346 H   0  0  0  0  0  0  0  0  0  0  0  0
   -5.6174    4.5532   -0.1995 H   0  0  0  0  0  0  0  0  0  0  0  0
   -5.2850    4.1455    1.5122 H   0  0  0  0  0  0  0  0  0  0  0  0
  1 10  1  0  0  0  0
  1 13  1  0  0  0  0
  2  9  1  0  0  0  0
  2 14  1  0  0  0  0
  3 16  2  0  0  0  0
  4 11  1  0  0  0  0
  4 16  1  0  0  0  0
  4 42  1  0  0  0  0
  5 12  1  0  0  0  0
  5 22  1  0  0  0  0
  5 44  1  0  0  0  0
  6 22  1  0  0  0  0
  6 23  2  0  0  0  0
  7 22  2  0  0  0  0
  7 24  1  0  0  0  0
  8 31  1  0  0  0  0
  8 32  1  0  0  0  0
  8 33  1  0  0  0  0
  9 10  1  0  0  0  0
  9 11  1  0  0  0  0
  9 34  1  0  0  0  0
 10 12  1  0  0  0  0
 10 35  1  0  0  0  0
 11 13  1  0  0  0  0
 11 36  1  0  0  0  0
 12 14  1  0  0  0  0
 12 37  1  0  0  0  0
 13 38  1  0  0  0  0
 13 39  1  0  0  0  0
 14 40  1  0  0  0  0
 14 41  1  0  0  0  0
 15 16  1  0  0  0  0
 15 17  1  0  0  0  0
 15 18  1  0  0  0  0
 15 43  1  0  0  0  0
 17 19  1  0  0  0  0
 17 45  1  0  0  0  0
 17 46  1  0  0  0  0
 18 20  1  0  0  0  0
 18 47  1  0  0  0  0
 18 48  1  0  0  0  0
 19 21  1  0  0  0  0
 19 49  1  0  0  0  0
 19 50  1  0  0  0  0
 20 21  1  0  0  0  0
 20 51  1  0  0  0  0
 20 52  1  0  0  0  0
 21 53  1  0  0  0  0
 21 54  1  0  0  0  0
 23 25  1  0  0  0  0
 23 26  1  0  0  0  0
 24 25  2  0  0  0  0
 24 55  1  0  0  0  0
 25 56  1  0  0  0  0
 26 27  2  0  0  0  0
 26 28  1  0  0  0  0
 27 29  1  0  0  0  0
 27 57  1  0  0  0  0
 28 30  2  0  0  0  0
 28 58  1  0  0  0  0
 29 31  2  0  0  0  0
 29 59  1  0  0  0  0
 30 31  1  0  0  0  0
 30 60  1  0  0  0  0
 32 61  1  0  0  0  0
 32 62  1  0  0  0  0
 32 63  1  0  0  0  0
 33 64  1  0  0  0  0
 33 65  1  0  0  0  0
 33 66  1  0  0  0  0
M  END
> <PUBCHEM_COMPOUND_CID>
40586210

> <PUBCHEM_CONFORMER_RMSD>
1

> <PUBCHEM_CONFORMER_DIVERSEORDER>
1
94
106
102
89
111
136
33
64
81
101
39
63
140
126
86
90
104
169
77
105
59
142
75
68
124
122
13
127
15
50
160
58
154
107
51
130
55
24
42
52
85
74
62
34
79
152
69
137
45
158
57
118
133
71
47
88
67
123
150
26
119
172
153
146
114
6
17
11
168
161
129
29
103
46
36
120
44
121
25
117
78
125
143
167
49
60
41
20
132
108
54
163
19
72
48
173
171
100
112
37
138
131
97
156
155
157
61
5
30
147
149
32
8
28
116
162
109
38
80
93
66
113
170
35
141
92
2
145
43
151
128
96
139
76
110
27
87
91
14
23
95
84
83
65
98
31
22
7
159
4
164
99
40
144
148
9
166
21
12
10
135
16
56
134
53
115
18
82
73
70
3
165

> <PUBCHEM_MMFF94_PARTIAL_CHARGES>
35
1 -0.56
10 0.28
11 0.3
12 0.37
13 0.28
14 0.28
15 0.06
16 0.57
2 -0.56
22 0.72
23 0.31
24 0.16
25 -0.15
27 -0.15
28 -0.15
29 -0.15
3 -0.57
30 -0.15
31 0.1
32 0.37
33 0.37
4 -0.73
42 0.37
44 0.4
5 -0.87
55 0.15
56 0.15
57 0.15
58 0.15
59 0.15
6 -0.62
60 0.15
7 -0.62
8 -0.84
9 0.28

> <PUBCHEM_EFFECTIVE_ROTOR_COUNT>
9.4

> <PUBCHEM_PHARMACOPHORE_FEATURES>
13
1 1 acceptor
1 2 acceptor
1 3 acceptor
1 4 donor
1 5 donor
1 6 acceptor
1 8 cation
4 5 6 7 22 cation
5 1 9 10 11 13 rings
5 2 9 10 12 14 rings
6 15 17 18 19 20 21 rings
6 26 27 28 29 30 31 rings
6 6 7 22 23 24 25 rings

> <PUBCHEM_HEAVY_ATOM_COUNT>
33

> <PUBCHEM_ATOM_DEF_STEREO_COUNT>
4

> <PUBCHEM_ATOM_UDEF_STEREO_COUNT>
0

> <PUBCHEM_BOND_DEF_STEREO_COUNT>
0

> <PUBCHEM_BOND_UDEF_STEREO_COUNT>
0

> <PUBCHEM_ISOTOPIC_ATOM_COUNT>
0

> <PUBCHEM_COMPONENT_COUNT>
1

> <PUBCHEM_CACTVS_TAUTO_COUNT>
6

> <PUBCHEM_CONFORMER_ID>
026B4BE200000001

> <PUBCHEM_MMFF94_ENERGY>
101.4261

> <PUBCHEM_FEATURE_SELFOVERLAP>
66.679

> <PUBCHEM_SHAPE_FINGERPRINT>
11374522 72 18189609442257119397
11399939 17 17048245831049196448
11410812 94 18272372031916353300
11621639 336 18190744116334111580
1200032 147 18340779143420913059
12975358 362 17909274581737507753
13383668 1 11820717093027370683
13627175 23 17967808370939774559
13828863 39 17603867827407216827
14114211 68 17846218788031514875
14150022 121 17169846693458492339
14675019 173 17685486551254043522
14840074 17 17749384884134293533
14849402 71 17896310316968448138
15163728 17 17894914087836107610
15183329 4 17060347335423128050
15188451 53 8862947168898687929
15198563 99 17700951479621855887
15357212 105 18409454648466944067
15513586 35 15433710222823899644
15721738 15 17203058391716972094
16120349 67 18410581699092244938
16991971 28 17554305293041642735
16992727 255 18343016688507499960
1768 23 18113898269177867532
19304671 126 16558734720710800913
19309040 13 18259989266437010979
19315092 285 9727634999383975494
21033650 10 18269835483701157130
21223535 225 18336825420341911788
21315764 119 17988933283939748860
21458453 9 14418705842771750133
21585480 29 14707219854564142025
21756936 100 18189053251584708586
21772528 278 17603871134521401210
21774942 28 18339919446431835776
24771750 20 17774162284757636095
3459 110 14851885923524014370
3552219 110 17970339537677565439
3610482 184 18336263552340135726
38570 142 18260552233928867558
3986486 107 16845578578235016489
4258327 124 17896020157947393743
437795 139 9439398034583080821
437795 70 17988081209177074476
4394409 98 17703794696100339014
444735 79 12179846121589046712
44880568 143 18056762251095300380
45266715 3 13685998913715852206
4756261 7 13987514808671170260
508180 173 18272374221542599040
508706 21 17416676041392504423
5252454 2 18198881683431057763
57724786 102 18263635178507491027
59025328 239 12103556511306232723
5911458 16 18333735718962385525
6523845 18 17417542401591106395
6608658 132 18337940281982006109

> <PUBCHEM_SHAPE_MULTIPOLES>
636.61
20.12
4.38
2.74
1
0.13
0.16
-26.01
6.33
-4.73
0.27
3.16
1.58
-5.47

> <PUBCHEM_SHAPE_SELFOVERLAP>
1371.764

> <PUBCHEM_SHAPE_VOLUME>
348.3

> <PUBCHEM_COORDINATE_TYPE>
2
5
10

$$$$
