45783636
  -OEChem-12032416273D

 54 56  0     1  0  0  0  0  0999 V2000
    2.3402   -2.4589   -0.6999 O   0  0  0  0  0  0  0  0  0  0  0  0
   -7.7686    1.6870    0.5668 O   0  0  0  0  0  0  0  0  0  0  0  0
   -5.1990    1.4690    0.9453 O   0  0  0  0  0  0  0  0  0  0  0  0
    4.3805    0.1896    0.5602 N   0  0  2  0  0  0  0  0  0  0  0  0
    1.3302   -0.8300    0.4591 N   0  0  0  0  0  0  0  0  0  0  0  0
    0.9857   -2.5123   -1.0525 N   0  0  0  0  0  0  0  0  0  0  0  0
   -3.1418   -1.6553   -1.2564 N   0  0  0  0  0  0  0  0  0  0  0  0
   -4.9744   -0.3389   -0.5477 N   0  0  0  0  0  0  0  0  0  0  0  0
    3.8532   -1.1733    0.7380 C   0  0  1  0  0  0  0  0  0  0  0  0
    3.9901   -1.3567    2.2558 C   0  0  0  0  0  0  0  0  0  0  0  0
    3.8938    1.0014    1.6686 C   0  0  0  0  0  0  0  0  0  0  0  0
    4.1834    0.8002   -0.7414 C   0  0  0  0  0  0  0  0  0  0  0  0
    3.9361    0.0487    2.8545 C   0  0  0  0  0  0  0  0  0  0  0  0
    5.2004    1.9220   -1.0738 C   0  0  0  0  0  0  0  0  0  0  0  0
    2.4567   -1.4418    0.1936 C   0  0  0  0  0  0  0  0  0  0  0  0
    5.4116    2.0370   -2.5938 C   0  0  0  0  0  0  0  0  0  0  0  0
    4.7322    3.2807   -0.5231 C   0  0  0  0  0  0  0  0  0  0  0  0
    6.5465    1.5647   -0.4154 C   0  0  0  0  0  0  0  0  0  0  0  0
    0.4564   -1.5216   -0.3285 C   0  0  0  0  0  0  0  0  0  0  0  0
   -0.9404   -1.1981   -0.3680 C   0  0  0  0  0  0  0  0  0  0  0  0
   -1.4578   -0.1609    0.4003 C   0  0  0  0  0  0  0  0  0  0  0  0
   -1.8164   -1.9085   -1.1726 C   0  0  0  0  0  0  0  0  0  0  0  0
   -2.8163    0.1297    0.3411 C   0  0  0  0  0  0  0  0  0  0  0  0
   -3.6085   -0.6401   -0.4953 C   0  0  0  0  0  0  0  0  0  0  0  0
   -5.6633    0.6592    0.1485 C   0  0  0  0  0  0  0  0  0  0  0  0
   -7.1417    0.6607   -0.1741 C   0  0  0  0  0  0  0  0  0  0  0  0
   -9.1686    1.7466    0.3109 C   0  0  0  0  0  0  0  0  0  0  0  0
    4.5339   -1.8775    0.2419 H   0  0  0  0  0  0  0  0  0  0  0  0
    3.2132   -2.0017    2.6802 H   0  0  0  0  0  0  0  0  0  0  0  0
    4.9624   -1.8063    2.4943 H   0  0  0  0  0  0  0  0  0  0  0  0
    4.5270    1.8591    1.8962 H   0  0  0  0  0  0  0  0  0  0  0  0
    2.8678    1.3521    1.5054 H   0  0  0  0  0  0  0  0  0  0  0  0
    4.3260    0.0133   -1.4956 H   0  0  0  0  0  0  0  0  0  0  0  0
    3.1544    1.1567   -0.8814 H   0  0  0  0  0  0  0  0  0  0  0  0
    3.0536    0.1749    3.4905 H   0  0  0  0  0  0  0  0  0  0  0  0
    4.8237    0.2238    3.4734 H   0  0  0  0  0  0  0  0  0  0  0  0
    5.7941    1.1001   -3.0141 H   0  0  0  0  0  0  0  0  0  0  0  0
    4.4686    2.2711   -3.1004 H   0  0  0  0  0  0  0  0  0  0  0  0
    6.1293    2.8275   -2.8399 H   0  0  0  0  0  0  0  0  0  0  0  0
    4.7505    3.3472    0.5643 H   0  0  0  0  0  0  0  0  0  0  0  0
    5.3815    4.0862   -0.8874 H   0  0  0  0  0  0  0  0  0  0  0  0
    3.7148    3.5091   -0.8597 H   0  0  0  0  0  0  0  0  0  0  0  0
    6.5236    1.6151    0.6776 H   0  0  0  0  0  0  0  0  0  0  0  0
    7.3247    2.2690   -0.7348 H   0  0  0  0  0  0  0  0  0  0  0  0
    6.8831    0.5636   -0.7099 H   0  0  0  0  0  0  0  0  0  0  0  0
   -0.8252    0.4358    1.0526 H   0  0  0  0  0  0  0  0  0  0  0  0
   -1.4930   -2.7319   -1.8025 H   0  0  0  0  0  0  0  0  0  0  0  0
   -3.1443    0.9459    0.9635 H   0  0  0  0  0  0  0  0  0  0  0  0
   -5.5117   -0.9322   -1.1754 H   0  0  0  0  0  0  0  0  0  0  0  0
   -7.5636   -0.3138    0.0963 H   0  0  0  0  0  0  0  0  0  0  0  0
   -7.2687    0.8369   -1.2482 H   0  0  0  0  0  0  0  0  0  0  0  0
   -9.3547    1.9581   -0.7464 H   0  0  0  0  0  0  0  0  0  0  0  0
   -9.6496    0.8069    0.5989 H   0  0  0  0  0  0  0  0  0  0  0  0
   -9.5933    2.5560    0.9106 H   0  0  0  0  0  0  0  0  0  0  0  0
  1  6  1  0  0  0  0
  1 15  1  0  0  0  0
  2 26  1  0  0  0  0
  2 27  1  0  0  0  0
  3 25  2  0  0  0  0
  4  9  1  0  0  0  0
  4 11  1  0  0  0  0
  4 12  1  0  0  0  0
  5 15  2  0  0  0  0
  5 19  1  0  0  0  0
  6 19  2  0  0  0  0
  7 22  1  0  0  0  0
  7 24  2  0  0  0  0
  8 24  1  0  0  0  0
  8 25  1  0  0  0  0
  8 49  1  0  0  0  0
  9 10  1  0  0  0  0
  9 15  1  0  0  0  0
  9 28  1  0  0  0  0
 10 13  1  0  0  0  0
 10 29  1  0  0  0  0
 10 30  1  0  0  0  0
 11 13  1  0  0  0  0
 11 31  1  0  0  0  0
 11 32  1  0  0  0  0
 12 14  1  0  0  0  0
 12 33  1  0  0  0  0
 12 34  1  0  0  0  0
 13 35  1  0  0  0  0
 13 36  1  0  0  0  0
 14 16  1  0  0  0  0
 14 17  1  0  0  0  0
 14 18  1  0  0  0  0
 16 37  1  0  0  0  0
 16 38  1  0  0  0  0
 16 39  1  0  0  0  0
 17 40  1  0  0  0  0
 17 41  1  0  0  0  0
 17 42  1  0  0  0  0
 18 43  1  0  0  0  0
 18 44  1  0  0  0  0
 18 45  1  0  0  0  0
 19 20  1  0  0  0  0
 20 21  1  0  0  0  0
 20 22  2  0  0  0  0
 21 23  2  0  0  0  0
 21 46  1  0  0  0  0
 22 47  1  0  0  0  0
 23 24  1  0  0  0  0
 23 48  1  0  0  0  0
 25 26  1  0  0  0  0
 26 50  1  0  0  0  0
 26 51  1  0  0  0  0
 27 52  1  0  0  0  0
 27 53  1  0  0  0  0
 27 54  1  0  0  0  0
M  END
> <PUBCHEM_COMPOUND_CID>
45783636

> <PUBCHEM_CONFORMER_RMSD>
1

> <PUBCHEM_CONFORMER_DIVERSEORDER>
1
9
2
16
20
11
23
24
12
14
29
18
19
31
27
10
5
32
3
7
8
15
13
4
21
17
22
30
25
28
26
6

> <PUBCHEM_MMFF94_PARTIAL_CHARGES>
25
1 -0.02
11 0.27
12 0.27
15 0.3
19 0.46
2 -0.56
20 0.05
21 -0.15
22 0.16
23 -0.15
24 0.43
25 0.57
26 0.34
27 0.28
3 -0.57
4 -0.81
46 0.15
47 0.15
48 0.15
49 0.37
5 -0.57
6 -0.41
7 -0.62
8 -0.55
9 0.45

> <PUBCHEM_EFFECTIVE_ROTOR_COUNT>
9

> <PUBCHEM_PHARMACOPHORE_FEATURES>
9
1 2 acceptor
1 3 acceptor
1 4 cation
1 8 donor
3 5 6 19 cation
4 14 16 17 18 hydrophobe
5 1 5 6 15 19 rings
5 4 9 10 11 13 rings
6 7 20 21 22 23 24 rings

> <PUBCHEM_HEAVY_ATOM_COUNT>
27

> <PUBCHEM_ATOM_DEF_STEREO_COUNT>
1

> <PUBCHEM_ATOM_UDEF_STEREO_COUNT>
0

> <PUBCHEM_BOND_DEF_STEREO_COUNT>
0

> <PUBCHEM_BOND_UDEF_STEREO_COUNT>
0

> <PUBCHEM_ISOTOPIC_ATOM_COUNT>
0

> <PUBCHEM_COMPONENT_COUNT>
1

> <PUBCHEM_CACTVS_TAUTO_COUNT>
11

> <PUBCHEM_CONFORMER_ID>
02BA9A5400000001

> <PUBCHEM_MMFF94_ENERGY>
69.8898

> <PUBCHEM_FEATURE_SELFOVERLAP>
45.681

> <PUBCHEM_SHAPE_FINGERPRINT>
10 15 18261116266830959873
10378564 45 16558755611521027990
10554248 39 18268976627654712807
10670039 82 17918004858120753912
10883706 17 11383817286754954749
10906281 52 18412268337593204927
11386260 185 15123502627266454985
11505856 67 16813795253656697278
1200032 147 18260274066324654408
12342043 65 15214124264428387058
125118 31 18338517422876891385
12596602 18 17749108894305170897
13533116 47 16660638505954573794
13782708 43 9655573011878690329
14251757 52 18335141990397812345
14251764 75 17825395330365671564
14347332 77 9151181952304478543
14537116 161 17132115723744134209
14840074 17 18261114105629532133
15183329 4 15195295213385108863
15238133 3 18341320189600307410
1577012 14 18410570704561295829
15840311 113 18335989675524237445
1754908 1 16950859025162476353
20567600 234 18334294254279588037
21304303 94 12319731466978942740
21315763 87 15357698591430143249
21344244 78 14056723452123007623
21360442 33 13038910997236434364
21360443 89 11743298156298415652
21585481 104 13758079572186647819
22061861 79 13830133905516287013
23081809 10 18410845586584378639
23559900 14 16558472001887510090
29717793 49 13973966506108275979
312425 54 16298108679422972713
3178227 256 16515675668641566672
3472631 163 18271531982444293564
38570 142 18041290962892734622
3918712 181 18272367577312860257
394071 54 17240483632552868764
397830 11 17822869653635464707
406291 66 10015321099958014388
4073 2 18408890629684032979
4258327 124 18412268359399915565
439807 62 10375869676099104409
444735 82 18340491046312176121
474 4 18335136514325111458
5104073 3 17749103439159186899
513532 50 16559028299279429162
54583773 228 18341609361775487061
57676310 82 13552628205090880086
57724786 102 18113896078929085174
58260988 521 13912863360637645840
58260988 587 16443353087879321962
59682541 52 14333410051415152360
6438161 24 9655572985792635381
960060 61 12319455532473178490

> <PUBCHEM_SHAPE_MULTIPOLES>
513.13
21.04
2.81
1.85
41.78
0.82
-0.65
19.39
-2.25
-2.91
0.95
-3.21
-0.08
-3.55

> <PUBCHEM_SHAPE_SELFOVERLAP>
1074.62

> <PUBCHEM_SHAPE_VOLUME>
292.4

> <PUBCHEM_COORDINATE_TYPE>
2
5
10

$$$$
