75536338
  -OEChem-12032416303D

 62 65  0     1  0  0  0  0  0999 V2000
    3.4178   -0.6204    0.6580 O   0  0  0  0  0  0  0  0  0  0  0  0
    5.6742   -0.4360    2.5455 O   0  0  0  0  0  0  0  0  0  0  0  0
    0.1549   -1.6525   -2.3718 O   0  0  0  0  0  0  0  0  0  0  0  0
   -1.8572   -1.5993    0.3603 O   0  0  0  0  0  0  0  0  0  0  0  0
   -4.3110    2.7382   -0.7287 O   0  0  0  0  0  0  0  0  0  0  0  0
    1.8216    1.7376    0.5530 N   0  0  0  0  0  0  0  0  0  0  0  0
    1.5312   -1.5552   -2.5358 N   0  0  0  0  0  0  0  0  0  0  0  0
    3.8026    0.5507    1.3898 C   0  0  1  0  0  0  0  0  0  0  0  0
    5.3191    0.5932    1.6183 C   0  0  2  0  0  0  0  0  0  0  0  0
    4.0794   -0.7981   -0.5968 C   0  0  1  0  0  0  0  0  0  0  0  0
    6.1074    0.3545    0.3334 C   0  0  0  0  0  0  0  0  0  0  0  0
    5.5925   -0.8799   -0.4014 C   0  0  0  0  0  0  0  0  0  0  0  0
    3.2638    1.8162    0.7259 C   0  0  0  0  0  0  0  0  0  0  0  0
    3.5428   -2.0809   -1.2202 C   0  0  0  0  0  0  0  0  0  0  0  0
    2.0493   -2.0312   -1.3999 C   0  0  0  0  0  0  0  0  0  0  0  0
    1.3030    2.9481   -0.0709 C   0  0  0  0  0  0  0  0  0  0  0  0
    1.0576   -2.4396   -0.4912 C   0  0  0  0  0  0  0  0  0  0  0  0
   -0.1913    2.8924   -0.2466 C   0  0  0  0  0  0  0  0  0  0  0  0
   -0.1147   -2.1805   -1.1505 C   0  0  0  0  0  0  0  0  0  0  0  0
   -1.5320   -2.3543   -0.8101 C   0  0  0  0  0  0  0  0  0  0  0  0
   -1.0215    3.6107    0.6138 C   0  0  0  0  0  0  0  0  0  0  0  0
   -0.7456    2.1222   -1.2691 C   0  0  0  0  0  0  0  0  0  0  0  0
   -2.4060    3.5593    0.4516 C   0  0  0  0  0  0  0  0  0  0  0  0
   -2.1299    2.0707   -1.4313 C   0  0  0  0  0  0  0  0  0  0  0  0
   -2.9601    2.7892   -0.5709 C   0  0  0  0  0  0  0  0  0  0  0  0
   -3.1352   -1.7223    0.8287 C   0  0  0  0  0  0  0  0  0  0  0  0
   -4.0429   -2.5515    0.1696 C   0  0  0  0  0  0  0  0  0  0  0  0
   -3.5321   -1.0184    1.9656 C   0  0  0  0  0  0  0  0  0  0  0  0
   -4.8100    1.9305   -1.7940 C   0  0  0  0  0  0  0  0  0  0  0  0
   -5.3473   -2.6768    0.6476 C   0  0  0  0  0  0  0  0  0  0  0  0
   -4.8364   -1.1438    2.4436 C   0  0  0  0  0  0  0  0  0  0  0  0
   -5.7442   -1.9730    1.7845 C   0  0  0  0  0  0  0  0  0  0  0  0
    3.3178    0.4464    2.3694 H   0  0  0  0  0  0  0  0  0  0  0  0
    5.6098    1.5465    2.0734 H   0  0  0  0  0  0  0  0  0  0  0  0
    3.8326    0.0411   -1.2580 H   0  0  0  0  0  0  0  0  0  0  0  0
    7.1725    0.2181    0.5545 H   0  0  0  0  0  0  0  0  0  0  0  0
    6.0212    1.2284   -0.3227 H   0  0  0  0  0  0  0  0  0  0  0  0
    6.1002   -0.9772   -1.3677 H   0  0  0  0  0  0  0  0  0  0  0  0
    5.8436   -1.7700    0.1894 H   0  0  0  0  0  0  0  0  0  0  0  0
    3.7406    1.9798   -0.2466 H   0  0  0  0  0  0  0  0  0  0  0  0
    3.5150    2.6771    1.3579 H   0  0  0  0  0  0  0  0  0  0  0  0
    3.7756   -2.9383   -0.5749 H   0  0  0  0  0  0  0  0  0  0  0  0
    4.0259   -2.2668   -2.1874 H   0  0  0  0  0  0  0  0  0  0  0  0
    1.5957    0.9267   -0.0231 H   0  0  0  0  0  0  0  0  0  0  0  0
    6.6292   -0.3631    2.7139 H   0  0  0  0  0  0  0  0  0  0  0  0
    1.7628    3.1042   -1.0558 H   0  0  0  0  0  0  0  0  0  0  0  0
    1.5640    3.8256    0.5344 H   0  0  0  0  0  0  0  0  0  0  0  0
    1.1754   -2.8599    0.4967 H   0  0  0  0  0  0  0  0  0  0  0  0
   -2.1478   -2.0178   -1.6539 H   0  0  0  0  0  0  0  0  0  0  0  0
   -1.6892   -3.4255   -0.6298 H   0  0  0  0  0  0  0  0  0  0  0  0
   -0.6040    4.2130    1.4162 H   0  0  0  0  0  0  0  0  0  0  0  0
   -0.1081    1.5577   -1.9448 H   0  0  0  0  0  0  0  0  0  0  0  0
   -3.0478    4.1203    1.1254 H   0  0  0  0  0  0  0  0  0  0  0  0
   -2.4931    1.4513   -2.2442 H   0  0  0  0  0  0  0  0  0  0  0  0
   -3.8100   -3.1247   -0.7208 H   0  0  0  0  0  0  0  0  0  0  0  0
   -2.8296   -0.3699    2.4820 H   0  0  0  0  0  0  0  0  0  0  0  0
   -5.9021    2.0060   -1.7726 H   0  0  0  0  0  0  0  0  0  0  0  0
   -4.5599    0.8740   -1.6483 H   0  0  0  0  0  0  0  0  0  0  0  0
   -4.4825    2.3042   -2.7701 H   0  0  0  0  0  0  0  0  0  0  0  0
   -6.0555   -3.3211    0.1345 H   0  0  0  0  0  0  0  0  0  0  0  0
   -5.1456   -0.5952    3.3285 H   0  0  0  0  0  0  0  0  0  0  0  0
   -6.7600   -2.0700    2.1563 H   0  0  0  0  0  0  0  0  0  0  0  0
  1  8  1  0  0  0  0
  1 10  1  0  0  0  0
  2  9  1  0  0  0  0
  2 45  1  0  0  0  0
  3  7  1  0  0  0  0
  3 19  1  0  0  0  0
  4 20  1  0  0  0  0
  4 26  1  0  0  0  0
  5 25  1  0  0  0  0
  5 29  1  0  0  0  0
  6 13  1  0  0  0  0
  6 16  1  0  0  0  0
  6 44  1  0  0  0  0
  7 15  2  0  0  0  0
  8  9  1  0  0  0  0
  8 13  1  0  0  0  0
  8 33  1  0  0  0  0
  9 11  1  0  0  0  0
  9 34  1  0  0  0  0
 10 12  1  0  0  0  0
 10 14  1  0  0  0  0
 10 35  1  0  0  0  0
 11 12  1  0  0  0  0
 11 36  1  0  0  0  0
 11 37  1  0  0  0  0
 12 38  1  0  0  0  0
 12 39  1  0  0  0  0
 13 40  1  0  0  0  0
 13 41  1  0  0  0  0
 14 15  1  0  0  0  0
 14 42  1  0  0  0  0
 14 43  1  0  0  0  0
 15 17  1  0  0  0  0
 16 18  1  0  0  0  0
 16 46  1  0  0  0  0
 16 47  1  0  0  0  0
 17 19  2  0  0  0  0
 17 48  1  0  0  0  0
 18 21  2  0  0  0  0
 18 22  1  0  0  0  0
 19 20  1  0  0  0  0
 20 49  1  0  0  0  0
 20 50  1  0  0  0  0
 21 23  1  0  0  0  0
 21 51  1  0  0  0  0
 22 24  2  0  0  0  0
 22 52  1  0  0  0  0
 23 25  2  0  0  0  0
 23 53  1  0  0  0  0
 24 25  1  0  0  0  0
 24 54  1  0  0  0  0
 26 27  2  0  0  0  0
 26 28  1  0  0  0  0
 27 30  1  0  0  0  0
 27 55  1  0  0  0  0
 28 31  2  0  0  0  0
 28 56  1  0  0  0  0
 29 57  1  0  0  0  0
 29 58  1  0  0  0  0
 29 59  1  0  0  0  0
 30 32  2  0  0  0  0
 30 60  1  0  0  0  0
 31 32  1  0  0  0  0
 31 61  1  0  0  0  0
 32 62  1  0  0  0  0
M  END
> <PUBCHEM_COMPOUND_CID>
75536338

> <PUBCHEM_CONFORMER_RMSD>
1

> <PUBCHEM_CONFORMER_DIVERSEORDER>
1
242
134
279
125
62
9
159
231
38
54
46
216
32
199
115
99
155
240
188
257
192
195
53
145
88
281
269
259
51
284
193
8
225
60
56
266
3
138
230
229
20
217
278
124
132
273
190
268
116
82
261
172
263
127
271
135
122
76
171
214
131
49
66
252
243
143
157
89
95
149
103
39
34
258
169
184
41
265
256
183
55
78
147
33
148
133
50
81
208
10
85
254
218
75
247
86
179
221
213
77
87
79
238
185
189
219
274
139
111
4
31
235
17
74
47
201
285
239
42
117
250
80
234
282
129
177
18
174
27
104
128
153
180
96
98
245
173
119
260
43
48
228
232
197
198
110
100
186
182
68
277
187
14
5
211
63
275
106
244
236
72
249
160
264
24
105
28
52
227
178
84
152
35
253
146
203
144
202
161
26
207
93
109
15
156
200
165
141
113
170
137
233
13
70
280
224
212
102
194
205
255
11
251
142
91
107
215
67
21
210
158
12
19
151
2
226
37
29
223
248
22
126
90
16
59
209
276
69
166
176
123
23
150
73
191
121
270
6
130
163
222
36
57
196
71
112
101
136
181
267
30
272
118
220
65
246
162
83
283
58
175
45
164
262
108
92
40
168
167
61
206
114
204
64
154
241
140
44
120
97
25
94
237
7

> <PUBCHEM_MMFF94_PARTIAL_CHARGES>
42
1 -0.56
10 0.28
13 0.27
14 0.18
15 0.11
16 0.41
17 -0.15
18 -0.14
19 -0.04
2 -0.68
20 0.46
21 -0.15
22 -0.15
23 -0.15
24 -0.15
25 0.08
26 0.08
27 -0.15
28 -0.15
29 0.28
3 -0.02
30 -0.15
31 -0.15
32 -0.15
4 -0.36
44 0.36
45 0.4
48 0.15
5 -0.36
51 0.15
52 0.15
53 0.15
54 0.15
55 0.15
56 0.15
6 -0.9
60 0.15
61 0.15
62 0.15
7 -0.41
8 0.28
9 0.28

> <PUBCHEM_EFFECTIVE_ROTOR_COUNT>
11.2

> <PUBCHEM_PHARMACOPHORE_FEATURES>
12
1 1 acceptor
1 2 acceptor
1 2 donor
1 4 acceptor
1 5 acceptor
1 6 cation
1 6 donor
1 7 acceptor
5 3 7 15 17 19 rings
6 1 8 9 10 11 12 rings
6 18 21 22 23 24 25 rings
6 26 27 28 30 31 32 rings

> <PUBCHEM_HEAVY_ATOM_COUNT>
32

> <PUBCHEM_ATOM_DEF_STEREO_COUNT>
3

> <PUBCHEM_ATOM_UDEF_STEREO_COUNT>
0

> <PUBCHEM_BOND_DEF_STEREO_COUNT>
0

> <PUBCHEM_BOND_UDEF_STEREO_COUNT>
0

> <PUBCHEM_ISOTOPIC_ATOM_COUNT>
0

> <PUBCHEM_COMPONENT_COUNT>
1

> <PUBCHEM_CACTVS_TAUTO_COUNT>
1

> <PUBCHEM_CONFORMER_ID>
048097D200000001

> <PUBCHEM_MMFF94_ENERGY>
79.2168

> <PUBCHEM_FEATURE_SELFOVERLAP>
60.9

> <PUBCHEM_SHAPE_FINGERPRINT>
10049733 57 18341887537057316913
10675989 125 15675472127829723287
11828532 37 17533788367253913243
12107698 1 18260545675524252600
12422481 6 18270973422269175883
12633257 1 18191585457197591490
13402501 40 18341605967285279581
13561361 72 18410860931985276768
13726171 33 18191612863663768268
14840074 17 18196096774886045312
14904385 31 18201993339982495880
15264996 44 18128557000869281677
15968369 153 18130495405435971700
16067689 391 16550890559882191214
16067689 68 13397780512528743254
20764821 26 18265637453885612637
21033648 144 17917425454037150838
22182313 1 18272097045669395158
3052486 1 18114472171376833142
354706 132 17904784180068890708
469060 322 17895773832244113097
5081480 168 16772415940951297996
508706 21 18337389336124456309
5283268 108 18338243759754186290
56638632 10 17417521544412207480
57828716 16 16298396751812360361

> <PUBCHEM_SHAPE_MULTIPOLES>
619.24
13.21
4.91
2.19
5.19
3.36
0.18
-5.18
7.01
-5.28
-0.95
-0.3
-0.81
3.66

> <PUBCHEM_SHAPE_SELFOVERLAP>
1312.994

> <PUBCHEM_SHAPE_VOLUME>
346

> <PUBCHEM_COORDINATE_TYPE>
2
5
10

$$$$
