9424604
  -OEChem-12032416153D

 59 63  0     1  0  0  0  0  0999 V2000
    1.3993    3.0450   -2.7936 O   0  0  0  0  0  0  0  0  0  0  0  0
    3.4137   -4.0224   -1.4267 O   0  0  0  0  0  0  0  0  0  0  0  0
   -2.8303   -1.1336   -1.9290 O   0  0  0  0  0  0  0  0  0  0  0  0
   -4.6002   -0.7172    1.0857 O   0  0  0  0  0  0  0  0  0  0  0  0
    1.5732    0.5386    1.5504 N   0  0  2  0  0  0  0  0  0  0  0  0
    0.4226    2.4202   -0.7586 N   0  0  0  0  0  0  0  0  0  0  0  0
    3.3593   -2.0045   -0.2758 N   0  0  0  0  0  0  0  0  0  0  0  0
   -2.6304    0.4468   -0.2625 N   0  0  0  0  0  0  0  0  0  0  0  0
    1.4590    3.0429    1.5017 C   0  0  1  0  0  0  0  0  0  0  0  0
   -0.6117    1.7407    1.4302 C   0  0  2  0  0  0  0  0  0  0  0  0
    0.0230    3.0084    1.9971 C   0  0  0  0  0  0  0  0  0  0  0  0
    2.2181    1.7864    1.9773 C   0  0  0  0  0  0  0  0  0  0  0  0
    0.1579    0.5039    1.9478 C   0  0  0  0  0  0  0  0  0  0  0  0
    2.2917   -0.6274    2.0676 C   0  0  0  0  0  0  0  0  0  0  0  0
    1.4411    3.1822   -0.0232 C   0  0  0  0  0  0  0  0  0  0  0  0
   -0.6268    1.7567   -0.0970 C   0  0  0  0  0  0  0  0  0  0  0  0
    3.7759   -0.5553    1.6803 C   0  0  0  0  0  0  0  0  0  0  0  0
    1.6716   -1.9225    1.5233 C   0  0  0  0  0  0  0  0  0  0  0  0
    4.0019   -0.7653    0.1816 C   0  0  0  0  0  0  0  0  0  0  0  0
    1.9299   -2.1086    0.0279 C   0  0  0  0  0  0  0  0  0  0  0  0
   -1.5889    1.1388   -0.8190 C   0  0  0  0  0  0  0  0  0  0  0  0
    0.5140    2.4680   -2.1616 C   0  0  0  0  0  0  0  0  0  0  0  0
   -1.5425    1.1609   -2.2613 C   0  0  0  0  0  0  0  0  0  0  0  0
   -0.5565    1.7736   -2.9190 C   0  0  0  0  0  0  0  0  0  0  0  0
    3.9870   -3.0150   -1.0043 C   0  0  0  0  0  0  0  0  0  0  0  0
    5.4602   -2.8389   -1.2744 C   0  0  0  0  0  0  0  0  0  0  0  0
   -3.2121   -0.6740   -0.8512 C   0  0  0  0  0  0  0  0  0  0  0  0
   -4.2997   -1.2967   -0.0810 C   0  0  0  0  0  0  0  0  0  0  0  0
   -5.0539   -2.3725   -0.3651 C   0  0  0  0  0  0  0  0  0  0  0  0
   -5.9312   -2.4948    0.7387 C   0  0  0  0  0  0  0  0  0  0  0  0
   -5.6154   -1.4644    1.5934 C   0  0  0  0  0  0  0  0  0  0  0  0
    1.9708    3.9178    1.9221 H   0  0  0  0  0  0  0  0  0  0  0  0
   -1.6323    1.7049    1.8270 H   0  0  0  0  0  0  0  0  0  0  0  0
   -0.0041    2.9940    3.0936 H   0  0  0  0  0  0  0  0  0  0  0  0
   -0.5257    3.9016    1.6732 H   0  0  0  0  0  0  0  0  0  0  0  0
    2.3116    1.8195    3.0711 H   0  0  0  0  0  0  0  0  0  0  0  0
    3.2206    1.8906    1.5534 H   0  0  0  0  0  0  0  0  0  0  0  0
   -0.3611   -0.3660    1.5373 H   0  0  0  0  0  0  0  0  0  0  0  0
    0.0644    0.4534    3.0411 H   0  0  0  0  0  0  0  0  0  0  0  0
    2.2266   -0.6471    3.1643 H   0  0  0  0  0  0  0  0  0  0  0  0
    1.2579    4.2362   -0.2743 H   0  0  0  0  0  0  0  0  0  0  0  0
    2.4265    2.9422   -0.4427 H   0  0  0  0  0  0  0  0  0  0  0  0
    4.3005    0.3327    2.0413 H   0  0  0  0  0  0  0  0  0  0  0  0
    4.2801   -1.3838    2.2006 H   0  0  0  0  0  0  0  0  0  0  0  0
    2.1608   -2.7578    2.0461 H   0  0  0  0  0  0  0  0  0  0  0  0
    0.6115   -2.0499    1.7536 H   0  0  0  0  0  0  0  0  0  0  0  0
    3.5709    0.0585   -0.3992 H   0  0  0  0  0  0  0  0  0  0  0  0
    5.0747   -0.7686   -0.0191 H   0  0  0  0  0  0  0  0  0  0  0  0
    1.5385   -3.0801   -0.2903 H   0  0  0  0  0  0  0  0  0  0  0  0
    1.4105   -1.3425   -0.5594 H   0  0  0  0  0  0  0  0  0  0  0  0
   -2.3633    0.7994   -2.8690 H   0  0  0  0  0  0  0  0  0  0  0  0
   -0.5434    1.8351   -4.0009 H   0  0  0  0  0  0  0  0  0  0  0  0
   -2.8686    0.6327    0.7067 H   0  0  0  0  0  0  0  0  0  0  0  0
    6.0136   -2.7874   -0.3330 H   0  0  0  0  0  0  0  0  0  0  0  0
    5.6306   -1.9388   -1.8709 H   0  0  0  0  0  0  0  0  0  0  0  0
    5.8314   -3.6985   -1.8409 H   0  0  0  0  0  0  0  0  0  0  0  0
   -5.0059   -3.0063   -1.2388 H   0  0  0  0  0  0  0  0  0  0  0  0
   -6.6979   -3.2404    0.8921 H   0  0  0  0  0  0  0  0  0  0  0  0
   -5.9986   -1.1431    2.5510 H   0  0  0  0  0  0  0  0  0  0  0  0
  1 22  2  0  0  0  0
  2 25  2  0  0  0  0
  3 27  2  0  0  0  0
  4 28  1  0  0  0  0
  4 31  1  0  0  0  0
  5 12  1  0  0  0  0
  5 13  1  0  0  0  0
  5 14  1  0  0  0  0
  6 15  1  0  0  0  0
  6 16  1  0  0  0  0
  6 22  1  0  0  0  0
  7 19  1  0  0  0  0
  7 20  1  0  0  0  0
  7 25  1  0  0  0  0
  8 21  1  0  0  0  0
  8 27  1  0  0  0  0
  8 53  1  0  0  0  0
  9 11  1  0  0  0  0
  9 12  1  0  0  0  0
  9 15  1  0  0  0  0
  9 32  1  0  0  0  0
 10 11  1  0  0  0  0
 10 13  1  0  0  0  0
 10 16  1  0  0  0  0
 10 33  1  0  0  0  0
 11 34  1  0  0  0  0
 11 35  1  0  0  0  0
 12 36  1  0  0  0  0
 12 37  1  0  0  0  0
 13 38  1  0  0  0  0
 13 39  1  0  0  0  0
 14 17  1  0  0  0  0
 14 18  1  0  0  0  0
 14 40  1  0  0  0  0
 15 41  1  0  0  0  0
 15 42  1  0  0  0  0
 16 21  2  0  0  0  0
 17 19  1  0  0  0  0
 17 43  1  0  0  0  0
 17 44  1  0  0  0  0
 18 20  1  0  0  0  0
 18 45  1  0  0  0  0
 18 46  1  0  0  0  0
 19 47  1  0  0  0  0
 19 48  1  0  0  0  0
 20 49  1  0  0  0  0
 20 50  1  0  0  0  0
 21 23  1  0  0  0  0
 22 24  1  0  0  0  0
 23 24  2  0  0  0  0
 23 51  1  0  0  0  0
 24 52  1  0  0  0  0
 25 26  1  0  0  0  0
 26 54  1  0  0  0  0
 26 55  1  0  0  0  0
 26 56  1  0  0  0  0
 27 28  1  0  0  0  0
 28 29  2  0  0  0  0
 29 30  1  0  0  0  0
 29 57  1  0  0  0  0
 30 31  2  0  0  0  0
 30 58  1  0  0  0  0
 31 59  1  0  0  0  0
M  END
> <PUBCHEM_COMPOUND_CID>
9424604

> <PUBCHEM_CONFORMER_RMSD>
1

> <PUBCHEM_CONFORMER_DIVERSEORDER>
1
9
8
5
7
6
2
3
4

> <PUBCHEM_MMFF94_PARTIAL_CHARGES>
33
1 -0.57
10 0.14
12 0.27
13 0.27
14 0.27
15 0.3
16 -0.03
19 0.3
2 -0.57
20 0.3
21 0.11
22 0.62
23 -0.15
24 -0.14
25 0.57
26 0.06
27 0.71
28 0.05
29 -0.15
3 -0.57
30 -0.15
31 -0.01
4 -0.28
5 -0.81
51 0.15
52 0.15
53 0.37
57 0.15
58 0.15
59 0.15
6 -0.47
7 -0.66
8 -0.54

> <PUBCHEM_EFFECTIVE_ROTOR_COUNT>
7.2

> <PUBCHEM_PHARMACOPHORE_FEATURES>
11
1 1 acceptor
1 2 acceptor
1 3 acceptor
1 4 acceptor
1 5 cation
1 8 donor
5 4 28 29 30 31 rings
6 5 9 10 11 12 13 rings
6 6 16 21 22 23 24 rings
6 6 9 10 11 15 16 rings
6 7 14 17 18 19 20 rings

> <PUBCHEM_HEAVY_ATOM_COUNT>
31

> <PUBCHEM_ATOM_DEF_STEREO_COUNT>
2

> <PUBCHEM_ATOM_UDEF_STEREO_COUNT>
0

> <PUBCHEM_BOND_DEF_STEREO_COUNT>
0

> <PUBCHEM_BOND_UDEF_STEREO_COUNT>
0

> <PUBCHEM_ISOTOPIC_ATOM_COUNT>
0

> <PUBCHEM_COMPONENT_COUNT>
1

> <PUBCHEM_CACTVS_TAUTO_COUNT>
2

> <PUBCHEM_CONFORMER_ID>
008FCEDC00000001

> <PUBCHEM_MMFF94_ENERGY>
76.2746

> <PUBCHEM_FEATURE_SELFOVERLAP>
57.369

> <PUBCHEM_SHAPE_FINGERPRINT>
10439779 11 13080537923327232755
10764073 3 16484179976746505041
107951 10 16405072189676762572
11399939 17 17345184717629389447
11421498 54 18118982518672924769
11513181 2 17539987481993129731
11954058 11 18271246127202749391
12128747 34 18270662205135154537
12156800 1 16841392681300415752
12422481 6 17757798454574038400
12623949 98 18265894846922867011
12778500 126 18271818955807422145
13135754 10 17700980942005190232
13533116 47 18198059391000834131
13583140 156 17914312810160835841
13773456 22 18262255347006490446
14251764 30 18341618087715052875
14863182 85 18197209472079342192
15219462 58 17980787109774769049
15664445 248 17241324823394154957
17492 54 17241341299157344036
17974551 9 14116929427578944022
1813 80 18260546723432994907
19319366 153 17127879498673325825
20578428 11 16589437603948712047
20771845 140 17903639923150109369
20771845 38 14101370161398916258
20775530 9 18341888542063989214
21315759 227 17981881948383654734
21365058 27 17837211850253203872
21421861 104 18059022799208293617
23466295 7 17697045742872086250
25222932 49 17197134476670011947
3737641 26 18131347484388059170
469060 322 18043264443866331970
5081480 168 17458925811340982145
57527585 21 15721388338810856198
6287921 2 18267015244807707307
6823239 73 17240754151484485091

> <PUBCHEM_SHAPE_MULTIPOLES>
594.56
9.96
4.74
2.8
10.7
0.29
-1
14.53
1.18
-3.88
-1.32
-0.69
-1.73
2.22

> <PUBCHEM_SHAPE_SELFOVERLAP>
1293.343

> <PUBCHEM_SHAPE_VOLUME>
315.9

> <PUBCHEM_COORDINATE_TYPE>
2
5
10

$$$$
