75536034
  -OEChem-12032416323D

 86 89  0     1  0  0  0  0  0999 V2000
    0.8961    4.9163   -1.0864 O   0  0  0  0  0  0  0  0  0  0  0  0
    0.3620    1.2656    1.2268 O   0  0  0  0  0  0  0  0  0  0  0  0
   -2.6569   -1.4969   -1.4348 O   0  0  0  0  0  0  0  0  0  0  0  0
    4.2803   -1.7636    2.4685 O   0  0  0  0  0  0  0  0  0  0  0  0
    4.4166   -1.1520    0.2560 O   0  0  0  0  0  0  0  0  0  0  0  0
    1.3204   -6.3627   -1.8229 O   0  0  0  0  0  0  0  0  0  0  0  0
    0.2342    2.6878   -1.0650 N   0  0  0  0  0  0  0  0  0  0  0  0
    2.5132    3.2952   -0.8891 N   0  0  0  0  0  0  0  0  0  0  0  0
   -1.8785    0.6767   -1.0712 N   0  0  0  0  0  0  0  0  0  0  0  0
    1.8162   -0.2471    0.2186 N   0  0  0  0  0  0  0  0  0  0  0  0
   -7.8592    0.7801    1.3377 N   0  0  0  0  0  0  0  0  0  0  0  0
    3.6171    4.2271   -0.8230 C   0  0  0  0  0  0  0  0  0  0  0  0
    4.8792    3.6322   -1.4566 C   0  0  0  0  0  0  0  0  0  0  0  0
    3.8769    4.6715    0.6204 C   0  0  0  0  0  0  0  0  0  0  0  0
    5.4964    2.5249   -0.6021 C   0  0  0  0  0  0  0  0  0  0  0  0
    4.4958    3.5628    1.4714 C   0  0  0  0  0  0  0  0  0  0  0  0
    5.7559    2.9945    0.8261 C   0  0  0  0  0  0  0  0  0  0  0  0
    0.5494    1.2541   -1.1559 C   0  0  2  0  0  0  0  0  0  0  0  0
   -0.5984    0.4270   -1.7369 C   0  0  0  0  0  0  0  0  0  0  0  0
   -1.1776    3.0583   -1.1966 C   0  0  0  0  0  0  0  0  0  0  0  0
   -2.1079    2.0339   -0.5613 C   0  0  0  0  0  0  0  0  0  0  0  0
    1.1947    3.7195   -1.0198 C   0  0  0  0  0  0  0  0  0  0  0  0
    0.8778    0.7707    0.2280 C   0  0  0  0  0  0  0  0  0  0  0  0
   -2.8247   -0.3528   -1.0150 C   0  0  0  0  0  0  0  0  0  0  0  0
    2.3186   -0.8703    1.4218 C   0  0  1  0  0  0  0  0  0  0  0  0
   -4.1312   -0.0595   -0.4048 C   0  0  0  0  0  0  0  0  0  0  0  0
    1.4364   -2.0530    1.8484 C   0  0  0  0  0  0  0  0  0  0  0  0
    3.7845   -1.2657    1.3012 C   0  0  0  0  0  0  0  0  0  0  0  0
   -4.3219   -0.2547    0.9632 C   0  0  0  0  0  0  0  0  0  0  0  0
   -5.1789    0.4146   -1.1943 C   0  0  0  0  0  0  0  0  0  0  0  0
    1.4049   -3.2038    0.8681 C   0  0  0  0  0  0  0  0  0  0  0  0
   -5.5600    0.0244    1.5417 C   0  0  0  0  0  0  0  0  0  0  0  0
   -6.4171    0.6938   -0.6160 C   0  0  0  0  0  0  0  0  0  0  0  0
   -6.6076    0.4987    0.7521 C   0  0  0  0  0  0  0  0  0  0  0  0
    2.3354   -4.2372    0.9764 C   0  0  0  0  0  0  0  0  0  0  0  0
    0.4458   -3.2321   -0.1445 C   0  0  0  0  0  0  0  0  0  0  0  0
    2.3068   -5.2990    0.0723 C   0  0  0  0  0  0  0  0  0  0  0  0
    0.4172   -4.2937   -1.0485 C   0  0  0  0  0  0  0  0  0  0  0  0
    1.3478   -5.3273   -0.9402 C   0  0  0  0  0  0  0  0  0  0  0  0
    5.6501   -2.1767    2.4357 C   0  0  0  0  0  0  0  0  0  0  0  0
   -8.9550    1.2727    0.5268 C   0  0  0  0  0  0  0  0  0  0  0  0
   -8.0688    0.5732    2.7571 C   0  0  0  0  0  0  0  0  0  0  0  0
    0.3138   -6.3276   -2.8337 C   0  0  0  0  0  0  0  0  0  0  0  0
    3.3355    5.1131   -1.4055 H   0  0  0  0  0  0  0  0  0  0  0  0
    5.6215    4.4295   -1.5895 H   0  0  0  0  0  0  0  0  0  0  0  0
    4.6540    3.2375   -2.4547 H   0  0  0  0  0  0  0  0  0  0  0  0
    2.9480    5.0141    1.0919 H   0  0  0  0  0  0  0  0  0  0  0  0
    4.5612    5.5296    0.6102 H   0  0  0  0  0  0  0  0  0  0  0  0
    4.8363    1.6500   -0.5868 H   0  0  0  0  0  0  0  0  0  0  0  0
    6.4390    2.1975   -1.0556 H   0  0  0  0  0  0  0  0  0  0  0  0
    4.7379    3.9557    2.4655 H   0  0  0  0  0  0  0  0  0  0  0  0
    3.7654    2.7577    1.6187 H   0  0  0  0  0  0  0  0  0  0  0  0
    6.5400    3.7618    0.8204 H   0  0  0  0  0  0  0  0  0  0  0  0
    6.1323    2.1582    1.4260 H   0  0  0  0  0  0  0  0  0  0  0  0
    1.4229    1.1370   -1.8080 H   0  0  0  0  0  0  0  0  0  0  0  0
    2.7135    2.3180   -0.7154 H   0  0  0  0  0  0  0  0  0  0  0  0
   -0.7484    0.6961   -2.7903 H   0  0  0  0  0  0  0  0  0  0  0  0
   -0.3669   -0.6421   -1.7161 H   0  0  0  0  0  0  0  0  0  0  0  0
   -1.3495    4.0440   -0.7514 H   0  0  0  0  0  0  0  0  0  0  0  0
   -1.3816    3.1461   -2.2708 H   0  0  0  0  0  0  0  0  0  0  0  0
   -1.9712    2.0006    0.5248 H   0  0  0  0  0  0  0  0  0  0  0  0
   -3.1443    2.3303   -0.7462 H   0  0  0  0  0  0  0  0  0  0  0  0
    2.1644   -0.5925   -0.6712 H   0  0  0  0  0  0  0  0  0  0  0  0
    2.2785   -0.1098    2.2127 H   0  0  0  0  0  0  0  0  0  0  0  0
    1.7659   -2.4338    2.8242 H   0  0  0  0  0  0  0  0  0  0  0  0
    0.4076   -1.7037    2.0116 H   0  0  0  0  0  0  0  0  0  0  0  0
   -3.5112   -0.6231    1.5867 H   0  0  0  0  0  0  0  0  0  0  0  0
   -5.0399    0.5703   -2.2611 H   0  0  0  0  0  0  0  0  0  0  0  0
   -5.6574   -0.1436    2.6096 H   0  0  0  0  0  0  0  0  0  0  0  0
   -7.1999    1.0606   -1.2724 H   0  0  0  0  0  0  0  0  0  0  0  0
    3.0840   -4.2339    1.7636 H   0  0  0  0  0  0  0  0  0  0  0  0
   -0.2917   -2.4404   -0.2273 H   0  0  0  0  0  0  0  0  0  0  0  0
    3.0334   -6.1019    0.1625 H   0  0  0  0  0  0  0  0  0  0  0  0
   -0.3561   -4.2536   -1.8081 H   0  0  0  0  0  0  0  0  0  0  0  0
    5.9153   -2.5533    3.4272 H   0  0  0  0  0  0  0  0  0  0  0  0
    6.2963   -1.3262    2.1984 H   0  0  0  0  0  0  0  0  0  0  0  0
    5.7854   -2.9814    1.7068 H   0  0  0  0  0  0  0  0  0  0  0  0
   -9.8563    1.4452    1.1257 H   0  0  0  0  0  0  0  0  0  0  0  0
   -8.7030    2.2320    0.0613 H   0  0  0  0  0  0  0  0  0  0  0  0
   -9.2301    0.5490   -0.2485 H   0  0  0  0  0  0  0  0  0  0  0  0
   -7.9236   -0.4781    3.0296 H   0  0  0  0  0  0  0  0  0  0  0  0
   -7.3985    1.2033    3.3523 H   0  0  0  0  0  0  0  0  0  0  0  0
   -9.0896    0.8344    3.0578 H   0  0  0  0  0  0  0  0  0  0  0  0
    0.4398   -7.2261   -3.4467 H   0  0  0  0  0  0  0  0  0  0  0  0
    0.4412   -5.4666   -3.4987 H   0  0  0  0  0  0  0  0  0  0  0  0
   -0.6917   -6.3735   -2.4020 H   0  0  0  0  0  0  0  0  0  0  0  0
  1 22  2  0  0  0  0
  2 23  2  0  0  0  0
  3 24  2  0  0  0  0
  4 28  1  0  0  0  0
  4 40  1  0  0  0  0
  5 28  2  0  0  0  0
  6 39  1  0  0  0  0
  6 43  1  0  0  0  0
  7 18  1  0  0  0  0
  7 20  1  0  0  0  0
  7 22  1  0  0  0  0
  8 12  1  0  0  0  0
  8 22  1  0  0  0  0
  8 56  1  0  0  0  0
  9 19  1  0  0  0  0
  9 21  1  0  0  0  0
  9 24  1  0  0  0  0
 10 23  1  0  0  0  0
 10 25  1  0  0  0  0
 10 63  1  0  0  0  0
 11 34  1  0  0  0  0
 11 41  1  0  0  0  0
 11 42  1  0  0  0  0
 12 13  1  0  0  0  0
 12 14  1  0  0  0  0
 12 44  1  0  0  0  0
 13 15  1  0  0  0  0
 13 45  1  0  0  0  0
 13 46  1  0  0  0  0
 14 16  1  0  0  0  0
 14 47  1  0  0  0  0
 14 48  1  0  0  0  0
 15 17  1  0  0  0  0
 15 49  1  0  0  0  0
 15 50  1  0  0  0  0
 16 17  1  0  0  0  0
 16 51  1  0  0  0  0
 16 52  1  0  0  0  0
 17 53  1  0  0  0  0
 17 54  1  0  0  0  0
 18 19  1  0  0  0  0
 18 23  1  0  0  0  0
 18 55  1  0  0  0  0
 19 57  1  0  0  0  0
 19 58  1  0  0  0  0
 20 21  1  0  0  0  0
 20 59  1  0  0  0  0
 20 60  1  0  0  0  0
 21 61  1  0  0  0  0
 21 62  1  0  0  0  0
 24 26  1  0  0  0  0
 25 27  1  0  0  0  0
 25 28  1  0  0  0  0
 25 64  1  0  0  0  0
 26 29  2  0  0  0  0
 26 30  1  0  0  0  0
 27 31  1  0  0  0  0
 27 65  1  0  0  0  0
 27 66  1  0  0  0  0
 29 32  1  0  0  0  0
 29 67  1  0  0  0  0
 30 33  2  0  0  0  0
 30 68  1  0  0  0  0
 31 35  2  0  0  0  0
 31 36  1  0  0  0  0
 32 34  2  0  0  0  0
 32 69  1  0  0  0  0
 33 34  1  0  0  0  0
 33 70  1  0  0  0  0
 35 37  1  0  0  0  0
 35 71  1  0  0  0  0
 36 38  2  0  0  0  0
 36 72  1  0  0  0  0
 37 39  2  0  0  0  0
 37 73  1  0  0  0  0
 38 39  1  0  0  0  0
 38 74  1  0  0  0  0
 40 75  1  0  0  0  0
 40 76  1  0  0  0  0
 40 77  1  0  0  0  0
 41 78  1  0  0  0  0
 41 79  1  0  0  0  0
 41 80  1  0  0  0  0
 42 81  1  0  0  0  0
 42 82  1  0  0  0  0
 42 83  1  0  0  0  0
 43 84  1  0  0  0  0
 43 85  1  0  0  0  0
 43 86  1  0  0  0  0
M  END
> <PUBCHEM_COMPOUND_CID>
75536034

> <PUBCHEM_CONFORMER_RMSD>
1.4

> <PUBCHEM_CONFORMER_DIVERSEORDER>
1
83
97
118
91
12
36
65
73
76
44
29
107
75
16
60
106
92
100
51
50
57
67
32
102
18
89
116
17
121
45
68
35
40
110
117
23
26
112
109
58
34
61
120
105
33
93
55
9
8
21
70
85
7
86
64
87
27
22
98
46
13
111
99
56
4
63
113
78
104
48
72
94
59
41
74
43
25
80
28
95
54
84
69
24
108
53
47
66
81
62
31
115
15
49
77
90
37
119
88
82
71
103
79
19
14
101
5
96
52
30
2
42
114
38
11
39
10
20
3
6

> <PUBCHEM_MMFF94_PARTIAL_CHARGES>
48
1 -0.57
10 -0.73
11 -0.84
12 0.3
18 0.36
19 0.3
2 -0.57
20 0.3
21 0.3
22 0.69
23 0.57
24 0.54
25 0.36
26 0.09
27 0.14
28 0.66
29 -0.15
3 -0.57
30 -0.15
31 -0.14
32 -0.15
33 -0.15
34 0.1
35 -0.15
36 -0.15
37 -0.15
38 -0.15
39 0.08
4 -0.43
40 0.28
41 0.37
42 0.37
43 0.28
5 -0.57
56 0.37
6 -0.36
63 0.37
67 0.15
68 0.15
69 0.15
7 -0.66
70 0.15
71 0.15
72 0.15
73 0.15
74 0.15
8 -0.73
9 -0.66

> <PUBCHEM_EFFECTIVE_ROTOR_COUNT>
16.4

> <PUBCHEM_PHARMACOPHORE_FEATURES>
12
1 1 acceptor
1 10 donor
1 11 cation
1 2 acceptor
1 3 acceptor
1 5 acceptor
1 6 acceptor
1 8 donor
6 12 13 14 15 16 17 rings
6 26 29 30 32 33 34 rings
6 31 35 36 37 38 39 rings
6 7 9 18 19 20 21 rings

> <PUBCHEM_HEAVY_ATOM_COUNT>
43

> <PUBCHEM_ATOM_DEF_STEREO_COUNT>
2

> <PUBCHEM_ATOM_UDEF_STEREO_COUNT>
0

> <PUBCHEM_BOND_DEF_STEREO_COUNT>
0

> <PUBCHEM_BOND_UDEF_STEREO_COUNT>
0

> <PUBCHEM_ISOTOPIC_ATOM_COUNT>
0

> <PUBCHEM_COMPONENT_COUNT>
1

> <PUBCHEM_CACTVS_TAUTO_COUNT>
4

> <PUBCHEM_CONFORMER_ID>
048096A200000001

> <PUBCHEM_MMFF94_ENERGY>
124.843

> <PUBCHEM_FEATURE_SELFOVERLAP>
60.899

> <PUBCHEM_SHAPE_FINGERPRINT>
10010297 198 18341338782271534257
11445158 3 18188191140574994006
13785724 45 18051142393761984999
14395042 70 18268449978817449177
15351339 4 16388425076857877814
15420108 30 18194117636449125299
15684973 49 17844238751967990871
15927050 60 18048032162903098692
15968369 153 17111008691025076010
16112460 7 18338791337872085675
19301679 30 18119247264719687011
19311894 1 17833825345696440060
1979834 28 18340763728842011571
22440779 20 17042364564789544370
3178227 256 18335133164419237890
38695281 34 18263640838994688836
394071 54 18410857634019897755
4093350 32 18201729465370125172
4461854 278 18340760460351164138
563151 74 18336558209056872137
6695519 79 17483631734248504074

> <PUBCHEM_SHAPE_MULTIPOLES>
824.8
16.44
9.21
2.27
37.88
11.54
0.46
-13.63
10.67
-15.77
-5.42
0.06
1.6
-2.09

> <PUBCHEM_SHAPE_SELFOVERLAP>
1729.726

> <PUBCHEM_SHAPE_VOLUME>
461.2

> <PUBCHEM_COORDINATE_TYPE>
2
5
10

$$$$
