38027722
  -OEChem-12032416253D

 63 64  0     1  0  0  0  0  0999 V2000
    2.9205   -2.8771    1.4313 S   0  0  0  0  0  0  0  0  0  0  0  0
   -0.9726    3.3948    0.0904 O   0  0  0  0  0  0  0  0  0  0  0  0
    1.7273   -3.4836    0.8741 O   0  0  0  0  0  0  0  0  0  0  0  0
    3.0547   -2.6824    2.8623 O   0  0  0  0  0  0  0  0  0  0  0  0
   -5.1680   -1.9642   -1.0757 O   0  0  0  0  0  0  0  0  0  0  0  0
    3.2328   -1.3911    0.6481 N   0  0  0  0  0  0  0  0  0  0  0  0
   -1.1364    1.9244    1.8825 N   0  0  0  0  0  0  0  0  0  0  0  0
    1.4482    0.1110   -1.2329 C   0  0  1  0  0  0  0  0  0  0  0  0
    2.9833   -0.0396   -1.3767 C   0  0  1  0  0  0  0  0  0  0  0  0
    1.0353    1.5809   -1.4040 C   0  0  0  0  0  0  0  0  0  0  0  0
    1.7149    2.5008   -0.3722 C   0  0  2  0  0  0  0  0  0  0  0  0
    0.6941   -0.7604   -2.2422 C   0  0  0  0  0  0  0  0  0  0  0  0
    3.2005    2.2236   -0.2628 C   0  0  0  0  0  0  0  0  0  0  0  0
    3.7513    1.0889   -0.7294 C   0  0  0  0  0  0  0  0  0  0  0  0
    3.4637   -1.3783   -0.8048 C   0  0  0  0  0  0  0  0  0  0  0  0
    1.0343    2.3928    0.9969 C   0  0  0  0  0  0  0  0  0  0  0  0
   -0.7087   -1.0735   -1.7314 C   0  0  0  0  0  0  0  0  0  0  0  0
    0.6335   -0.0696   -3.6007 C   0  0  0  0  0  0  0  0  0  0  0  0
    4.0468    3.3018    0.3549 C   0  0  0  0  0  0  0  0  0  0  0  0
   -0.4542    2.6454    0.9134 C   0  0  0  0  0  0  0  0  0  0  0  0
    4.3215   -3.8298    0.8915 C   0  0  0  0  0  0  0  0  0  0  0  0
   -2.5719    1.9741    2.0384 C   0  0  0  0  0  0  0  0  0  0  0  0
   -3.2634    0.9279    1.2127 C   0  0  0  0  0  0  0  0  0  0  0  0
   -4.1899    1.3061    0.2409 C   0  0  0  0  0  0  0  0  0  0  0  0
   -2.9773   -0.4220    1.4158 C   0  0  0  0  0  0  0  0  0  0  0  0
   -4.8303    0.3342   -0.5278 C   0  0  0  0  0  0  0  0  0  0  0  0
   -3.6176   -1.3939    0.6472 C   0  0  0  0  0  0  0  0  0  0  0  0
   -4.5442   -1.0159   -0.3245 C   0  0  0  0  0  0  0  0  0  0  0  0
   -4.8283   -3.3254   -0.8153 C   0  0  0  0  0  0  0  0  0  0  0  0
    1.1554   -0.2036   -0.2230 H   0  0  0  0  0  0  0  0  0  0  0  0
    3.2549   -0.0237   -2.4398 H   0  0  0  0  0  0  0  0  0  0  0  0
   -0.0516    1.6887   -1.3932 H   0  0  0  0  0  0  0  0  0  0  0  0
    1.3638    1.9544   -2.3833 H   0  0  0  0  0  0  0  0  0  0  0  0
    1.5862    3.5286   -0.7399 H   0  0  0  0  0  0  0  0  0  0  0  0
    1.2019   -1.7210   -2.3744 H   0  0  0  0  0  0  0  0  0  0  0  0
    4.8306    0.9640   -0.6666 H   0  0  0  0  0  0  0  0  0  0  0  0
    4.5378   -1.5039   -0.9872 H   0  0  0  0  0  0  0  0  0  0  0  0
    2.9510   -2.2152   -1.2851 H   0  0  0  0  0  0  0  0  0  0  0  0
    1.4410    3.1402    1.6891 H   0  0  0  0  0  0  0  0  0  0  0  0
    1.2285    1.4095    1.4425 H   0  0  0  0  0  0  0  0  0  0  0  0
   -1.3142   -0.1717   -1.6001 H   0  0  0  0  0  0  0  0  0  0  0  0
   -0.6651   -1.5982   -0.7710 H   0  0  0  0  0  0  0  0  0  0  0  0
   -1.2374   -1.7243   -2.4366 H   0  0  0  0  0  0  0  0  0  0  0  0
    1.6161    0.2583   -3.9526 H   0  0  0  0  0  0  0  0  0  0  0  0
   -0.0599    0.7777   -3.6230 H   0  0  0  0  0  0  0  0  0  0  0  0
    0.2588   -0.7797   -4.3484 H   0  0  0  0  0  0  0  0  0  0  0  0
    3.9095    4.2465   -0.1812 H   0  0  0  0  0  0  0  0  0  0  0  0
    5.1140    3.0575    0.3231 H   0  0  0  0  0  0  0  0  0  0  0  0
    3.7754    3.4532    1.4038 H   0  0  0  0  0  0  0  0  0  0  0  0
    3.8271   -0.7324    1.1686 H   0  0  0  0  0  0  0  0  0  0  0  0
   -0.6183    1.3265    2.5197 H   0  0  0  0  0  0  0  0  0  0  0  0
    4.2881   -4.7921    1.4079 H   0  0  0  0  0  0  0  0  0  0  0  0
    4.2632   -3.9949   -0.1851 H   0  0  0  0  0  0  0  0  0  0  0  0
    5.2373   -3.3014    1.1630 H   0  0  0  0  0  0  0  0  0  0  0  0
   -2.9202    2.9796    1.7762 H   0  0  0  0  0  0  0  0  0  0  0  0
   -2.7982    1.8139    3.0985 H   0  0  0  0  0  0  0  0  0  0  0  0
   -4.4217    2.3540    0.0703 H   0  0  0  0  0  0  0  0  0  0  0  0
   -2.2594   -0.7301    2.1715 H   0  0  0  0  0  0  0  0  0  0  0  0
   -5.5505    0.6347   -1.2839 H   0  0  0  0  0  0  0  0  0  0  0  0
   -3.3478   -2.4234    0.8566 H   0  0  0  0  0  0  0  0  0  0  0  0
   -5.4173   -3.9425   -1.5017 H   0  0  0  0  0  0  0  0  0  0  0  0
   -5.1073   -3.6225    0.2013 H   0  0  0  0  0  0  0  0  0  0  0  0
   -3.7732   -3.5248   -1.0314 H   0  0  0  0  0  0  0  0  0  0  0  0
  1  3  2  0  0  0  0
  1  4  2  0  0  0  0
  1  6  1  0  0  0  0
  1 21  1  0  0  0  0
  2 20  2  0  0  0  0
  5 28  1  0  0  0  0
  5 29  1  0  0  0  0
  6 15  1  0  0  0  0
  6 50  1  0  0  0  0
  7 20  1  0  0  0  0
  7 22  1  0  0  0  0
  7 51  1  0  0  0  0
  8  9  1  0  0  0  0
  8 10  1  0  0  0  0
  8 12  1  0  0  0  0
  8 30  1  0  0  0  0
  9 14  1  0  0  0  0
  9 15  1  0  0  0  0
  9 31  1  0  0  0  0
 10 11  1  0  0  0  0
 10 32  1  0  0  0  0
 10 33  1  0  0  0  0
 11 13  1  0  0  0  0
 11 16  1  0  0  0  0
 11 34  1  0  0  0  0
 12 17  1  0  0  0  0
 12 18  1  0  0  0  0
 12 35  1  0  0  0  0
 13 14  2  0  0  0  0
 13 19  1  0  0  0  0
 14 36  1  0  0  0  0
 15 37  1  0  0  0  0
 15 38  1  0  0  0  0
 16 20  1  0  0  0  0
 16 39  1  0  0  0  0
 16 40  1  0  0  0  0
 17 41  1  0  0  0  0
 17 42  1  0  0  0  0
 17 43  1  0  0  0  0
 18 44  1  0  0  0  0
 18 45  1  0  0  0  0
 18 46  1  0  0  0  0
 19 47  1  0  0  0  0
 19 48  1  0  0  0  0
 19 49  1  0  0  0  0
 21 52  1  0  0  0  0
 21 53  1  0  0  0  0
 21 54  1  0  0  0  0
 22 23  1  0  0  0  0
 22 55  1  0  0  0  0
 22 56  1  0  0  0  0
 23 24  2  0  0  0  0
 23 25  1  0  0  0  0
 24 26  1  0  0  0  0
 24 57  1  0  0  0  0
 25 27  2  0  0  0  0
 25 58  1  0  0  0  0
 26 28  2  0  0  0  0
 26 59  1  0  0  0  0
 27 28  1  0  0  0  0
 27 60  1  0  0  0  0
 29 61  1  0  0  0  0
 29 62  1  0  0  0  0
 29 63  1  0  0  0  0
M  END
> <PUBCHEM_COMPOUND_CID>
38027722

> <PUBCHEM_CONFORMER_RMSD>
1

> <PUBCHEM_CONFORMER_DIVERSEORDER>
1
22
46
158
69
16
162
78
124
136
96
113
107
101
128
110
139
85
83
25
65
19
176
108
168
131
133
132
90
156
165
44
127
163
59
95
57
120
48
142
146
119
56
54
169
148
73
141
12
94
102
99
160
84
166
76
152
126
170
77
55
104
138
36
175
153
159
172
21
100
29
171
105
74
18
122
89
157
106
67
147
17
4
129
144
112
33
26
75
125
51
93
39
150
137
91
79
86
80
61
143
121
164
92
154
178
38
14
71
52
161
42
87
37
58
5
103
15
117
109
34
135
81
28
179
145
177
20
82
70
114
11
7
88
60
35
151
3
149
2
66
123
47
49
9
62
167
63
45
140
72
32
50
6
43
27
116
174
24
68
98
130
115
41
13
30
8
10
111
118
155
173
134
97
40
23
53
64
31

> <PUBCHEM_MMFF94_PARTIAL_CHARGES>
31
1 1.33
11 0.14
13 -0.28
14 -0.29
15 0.36
16 0.06
19 0.14
2 -0.57
20 0.57
21 0.11
22 0.44
23 -0.14
24 -0.15
25 -0.15
26 -0.15
27 -0.15
28 0.08
29 0.28
3 -0.65
36 0.15
4 -0.65
5 -0.36
50 0.42
51 0.37
57 0.15
58 0.15
59 0.15
6 -0.91
60 0.15
7 -0.73
9 0.14

> <PUBCHEM_EFFECTIVE_ROTOR_COUNT>
10.8

> <PUBCHEM_PHARMACOPHORE_FEATURES>
9
1 2 acceptor
1 3 acceptor
1 4 acceptor
1 5 acceptor
1 6 donor
1 7 donor
3 12 17 18 hydrophobe
6 23 24 25 26 27 28 rings
6 8 9 10 11 13 14 rings

> <PUBCHEM_HEAVY_ATOM_COUNT>
29

> <PUBCHEM_ATOM_DEF_STEREO_COUNT>
3

> <PUBCHEM_ATOM_UDEF_STEREO_COUNT>
0

> <PUBCHEM_BOND_DEF_STEREO_COUNT>
0

> <PUBCHEM_BOND_UDEF_STEREO_COUNT>
0

> <PUBCHEM_ISOTOPIC_ATOM_COUNT>
0

> <PUBCHEM_COMPONENT_COUNT>
1

> <PUBCHEM_CACTVS_TAUTO_COUNT>
2

> <PUBCHEM_CONFORMER_ID>
024441CA00000001

> <PUBCHEM_MMFF94_ENERGY>
64.119

> <PUBCHEM_FEATURE_SELFOVERLAP>
45.689

> <PUBCHEM_SHAPE_FINGERPRINT>
12156800 1 16256937298864396269
12633257 1 18055650429394564785
13533116 47 18259987089521880283
13583140 156 18335429010071372047
13726171 33 17559976452934940377
14674994 50 17103674445872071398
15163728 17 11094723820066274776
19315092 285 18190159330476306691
20764821 26 17326355701120105051
20775530 9 17751082401449505154
23559900 14 17630343947007880949
25222932 49 18126009514491668175
3680242 22 18269569264658895257
46194498 28 15143540148619292048
463206 1 18262529069698678891
484985 159 17396400737870979234
5309563 4 17414725564395748297

> <PUBCHEM_SHAPE_MULTIPOLES>
567.22
10.06
4.83
2.5
8.98
1.68
-0.85
5.33
0.77
-3.65
2.42
-0.83
0.91
-3.21

> <PUBCHEM_SHAPE_SELFOVERLAP>
1145.569

> <PUBCHEM_SHAPE_VOLUME>
334.7

> <PUBCHEM_COORDINATE_TYPE>
2
5
10

$$$$
