38029504
  -OEChem-12032416253D

 58 60  0     1  0  0  0  0  0999 V2000
    2.6209    2.0138   -0.3321 O   0  0  0  0  0  0  0  0  0  0  0  0
   -3.7014   -1.2643    1.8826 O   0  0  0  0  0  0  0  0  0  0  0  0
   -2.4325   -2.8329   -1.0329 O   0  0  0  0  0  0  0  0  0  0  0  0
   -3.4459   -0.4059   -0.2584 N   0  0  0  0  0  0  0  0  0  0  0  0
    2.8142   -0.3200   -0.5149 N   0  0  0  0  0  0  0  0  0  0  0  0
    4.5799   -1.8438   -0.0499 N   0  0  0  0  0  0  0  0  0  0  0  0
   -1.6507    1.8118    0.6916 C   0  0  1  0  0  0  0  0  0  0  0  0
   -2.8540    1.9601   -0.2727 C   0  0  1  0  0  0  0  0  0  0  0  0
   -0.4259    2.5567    0.1391 C   0  0  0  0  0  0  0  0  0  0  0  0
   -0.0058    2.0380   -1.2491 C   0  0  2  0  0  0  0  0  0  0  0  0
   -1.9806    2.3263    2.0962 C   0  0  0  0  0  0  0  0  0  0  0  0
   -1.1921    1.9012   -2.1818 C   0  0  0  0  0  0  0  0  0  0  0  0
   -2.4581    1.8818   -1.7286 C   0  0  0  0  0  0  0  0  0  0  0  0
   -3.9309    0.9093    0.0208 C   0  0  0  0  0  0  0  0  0  0  0  0
    0.7588    0.7144   -1.1360 C   0  0  0  0  0  0  0  0  0  0  0  0
   -1.0817    1.6589    3.1322 C   0  0  0  0  0  0  0  0  0  0  0  0
   -1.8384    3.8439    2.1539 C   0  0  0  0  0  0  0  0  0  0  0  0
   -0.8920    1.8330   -3.6534 C   0  0  0  0  0  0  0  0  0  0  0  0
    2.1680    0.9089   -0.6127 C   0  0  0  0  0  0  0  0  0  0  0  0
   -3.3675   -1.4069    0.7094 C   0  0  0  0  0  0  0  0  0  0  0  0
   -2.8161   -2.7129    0.2652 C   0  0  0  0  0  0  0  0  0  0  0  0
    4.1350   -0.5674   -0.0708 C   0  0  0  0  0  0  0  0  0  0  0  0
   -2.6025   -3.8906    0.9431 C   0  0  0  0  0  0  0  0  0  0  0  0
    4.8937    0.5251    0.3173 C   0  0  0  0  0  0  0  0  0  0  0  0
   -2.0523   -4.7922    0.0009 C   0  0  0  0  0  0  0  0  0  0  0  0
   -1.9689   -4.1011   -1.1855 C   0  0  0  0  0  0  0  0  0  0  0  0
    6.1929    0.2925    0.7548 C   0  0  0  0  0  0  0  0  0  0  0  0
    5.8474   -2.0308    0.3814 C   0  0  0  0  0  0  0  0  0  0  0  0
    6.6865   -1.0069    0.7905 C   0  0  0  0  0  0  0  0  0  0  0  0
   -1.3923    0.7495    0.7707 H   0  0  0  0  0  0  0  0  0  0  0  0
   -3.3154    2.9460   -0.1345 H   0  0  0  0  0  0  0  0  0  0  0  0
    0.4155    2.5016    0.8367 H   0  0  0  0  0  0  0  0  0  0  0  0
   -0.6504    3.6223    0.0009 H   0  0  0  0  0  0  0  0  0  0  0  0
    0.6590    2.7992   -1.6812 H   0  0  0  0  0  0  0  0  0  0  0  0
   -3.0116    2.0724    2.3635 H   0  0  0  0  0  0  0  0  0  0  0  0
   -3.2730    1.8290   -2.4480 H   0  0  0  0  0  0  0  0  0  0  0  0
   -4.7987    1.0670   -0.6311 H   0  0  0  0  0  0  0  0  0  0  0  0
   -4.2981    0.9765    1.0485 H   0  0  0  0  0  0  0  0  0  0  0  0
    0.8602    0.2413   -2.1205 H   0  0  0  0  0  0  0  0  0  0  0  0
    0.2367   -0.0033   -0.4934 H   0  0  0  0  0  0  0  0  0  0  0  0
   -1.2035    0.5704    3.1130 H   0  0  0  0  0  0  0  0  0  0  0  0
   -0.0229    1.8843    2.9721 H   0  0  0  0  0  0  0  0  0  0  0  0
   -1.3415    2.0003    4.1403 H   0  0  0  0  0  0  0  0  0  0  0  0
   -2.2551    4.2081    3.1012 H   0  0  0  0  0  0  0  0  0  0  0  0
   -0.7961    4.1794    2.1398 H   0  0  0  0  0  0  0  0  0  0  0  0
   -2.3922    4.3511    1.3583 H   0  0  0  0  0  0  0  0  0  0  0  0
   -1.8045    1.8421   -4.2593 H   0  0  0  0  0  0  0  0  0  0  0  0
   -0.2888    2.6943   -3.9587 H   0  0  0  0  0  0  0  0  0  0  0  0
   -0.3448    0.9191   -3.9010 H   0  0  0  0  0  0  0  0  0  0  0  0
   -3.1829   -0.6340   -1.2131 H   0  0  0  0  0  0  0  0  0  0  0  0
    2.3034   -1.1565   -0.7872 H   0  0  0  0  0  0  0  0  0  0  0  0
   -2.8145   -4.0805    1.9857 H   0  0  0  0  0  0  0  0  0  0  0  0
    4.5820    1.5564    0.3176 H   0  0  0  0  0  0  0  0  0  0  0  0
   -1.7537   -5.8173    0.1658 H   0  0  0  0  0  0  0  0  0  0  0  0
   -1.6215   -4.3555   -2.1762 H   0  0  0  0  0  0  0  0  0  0  0  0
    6.8210    1.1213    1.0680 H   0  0  0  0  0  0  0  0  0  0  0  0
    6.1845   -3.0621    0.3902 H   0  0  0  0  0  0  0  0  0  0  0  0
    7.6960   -1.2116    1.1278 H   0  0  0  0  0  0  0  0  0  0  0  0
  1 19  2  0  0  0  0
  2 20  2  0  0  0  0
  3 21  1  0  0  0  0
  3 26  1  0  0  0  0
  4 14  1  0  0  0  0
  4 20  1  0  0  0  0
  4 50  1  0  0  0  0
  5 19  1  0  0  0  0
  5 22  1  0  0  0  0
  5 51  1  0  0  0  0
  6 22  1  0  0  0  0
  6 28  2  0  0  0  0
  7  8  1  0  0  0  0
  7  9  1  0  0  0  0
  7 11  1  0  0  0  0
  7 30  1  0  0  0  0
  8 13  1  0  0  0  0
  8 14  1  0  0  0  0
  8 31  1  0  0  0  0
  9 10  1  0  0  0  0
  9 32  1  0  0  0  0
  9 33  1  0  0  0  0
 10 12  1  0  0  0  0
 10 15  1  0  0  0  0
 10 34  1  0  0  0  0
 11 16  1  0  0  0  0
 11 17  1  0  0  0  0
 11 35  1  0  0  0  0
 12 13  2  0  0  0  0
 12 18  1  0  0  0  0
 13 36  1  0  0  0  0
 14 37  1  0  0  0  0
 14 38  1  0  0  0  0
 15 19  1  0  0  0  0
 15 39  1  0  0  0  0
 15 40  1  0  0  0  0
 16 41  1  0  0  0  0
 16 42  1  0  0  0  0
 16 43  1  0  0  0  0
 17 44  1  0  0  0  0
 17 45  1  0  0  0  0
 17 46  1  0  0  0  0
 18 47  1  0  0  0  0
 18 48  1  0  0  0  0
 18 49  1  0  0  0  0
 20 21  1  0  0  0  0
 21 23  2  0  0  0  0
 22 24  2  0  0  0  0
 23 25  1  0  0  0  0
 23 52  1  0  0  0  0
 24 27  1  0  0  0  0
 24 53  1  0  0  0  0
 25 26  2  0  0  0  0
 25 54  1  0  0  0  0
 26 55  1  0  0  0  0
 27 29  2  0  0  0  0
 27 56  1  0  0  0  0
 28 29  1  0  0  0  0
 28 57  1  0  0  0  0
 29 58  1  0  0  0  0
M  END
> <PUBCHEM_COMPOUND_CID>
38029504

> <PUBCHEM_CONFORMER_RMSD>
1

> <PUBCHEM_CONFORMER_DIVERSEORDER>
1
121
68
115
7
70
93
119
64
108
11
65
90
85
38
71
84
111
110
2
99
36
102
131
37
116
32
39
31
75
34
4
125
41
128
19
9
8
109
35
15
106
83
129
104
10
67
130
56
60
82
24
47
105
46
94
59
135
6
92
126
120
112
52
134
100
53
62
132
87
14
127
27
29
44
73
114
124
48
51
28
113
33
66
95
122
63
54
58
69
78
57
22
91
40
55
89
50
49
117
13
80
45
88
42
18
20
98
16
77
101
23
123
25
79
97
5
72
43
21
3
30
76
61
103
133
96
107
12
74
81
86
118
17
26

> <PUBCHEM_MMFF94_PARTIAL_CHARGES>
34
1 -0.57
10 0.14
12 -0.28
13 -0.29
14 0.3
15 0.06
18 0.14
19 0.57
2 -0.57
20 0.71
21 0.05
22 0.43
23 -0.15
24 -0.15
25 -0.15
26 -0.01
27 -0.15
28 0.16
29 -0.15
3 -0.28
36 0.15
4 -0.73
5 -0.55
50 0.37
51 0.37
52 0.15
53 0.15
54 0.15
55 0.15
56 0.15
57 0.15
58 0.15
6 -0.62
8 0.14

> <PUBCHEM_EFFECTIVE_ROTOR_COUNT>
9.8

> <PUBCHEM_PHARMACOPHORE_FEATURES>
10
1 1 acceptor
1 2 acceptor
1 3 acceptor
1 4 donor
1 5 donor
1 6 acceptor
3 11 16 17 hydrophobe
5 3 21 23 25 26 rings
6 6 22 24 27 28 29 rings
6 7 8 9 10 12 13 rings

> <PUBCHEM_HEAVY_ATOM_COUNT>
29

> <PUBCHEM_ATOM_DEF_STEREO_COUNT>
3

> <PUBCHEM_ATOM_UDEF_STEREO_COUNT>
0

> <PUBCHEM_BOND_DEF_STEREO_COUNT>
0

> <PUBCHEM_BOND_UDEF_STEREO_COUNT>
0

> <PUBCHEM_ISOTOPIC_ATOM_COUNT>
0

> <PUBCHEM_COMPONENT_COUNT>
1

> <PUBCHEM_CACTVS_TAUTO_COUNT>
6

> <PUBCHEM_CONFORMER_ID>
024448C000000001

> <PUBCHEM_MMFF94_ENERGY>
60.6214

> <PUBCHEM_FEATURE_SELFOVERLAP>
50.747

> <PUBCHEM_SHAPE_FINGERPRINT>
10305334 12 17339002932217651088
10483366 6 18263619876351542439
11524674 6 18267855104097641151
11552529 35 18341890810017243666
12523318 42 18411979148433120696
12655364 131 17262981577767393586
12969540 37 17690838290921041181
14020679 6 17417258615267844225
14674994 50 18338503231798355583
14844126 61 18410857672284428123
14950920 106 18059860601261893240
15799311 1 18193293918558608454
18603816 31 16590810657959619538
19315092 285 16622089937897607491
20775530 9 17907030821389618543
21049683 118 16623536478650847601
229767 44 18410583872472765107
3383291 50 18410573998833672315
4616759 239 18129643254829839594
469060 322 17531258235403156954
5080951 261 18042384894941255064
57527452 28 18261118431167598481
9981440 41 15983135834873046161

> <PUBCHEM_SHAPE_MULTIPOLES>
564.26
11.21
5.56
2.48
27.53
6.57
0.44
5.89
-3.46
-7
-0.63
-2.31
-2.55
-0.47

> <PUBCHEM_SHAPE_SELFOVERLAP>
1186.217

> <PUBCHEM_SHAPE_VOLUME>
315.7

> <PUBCHEM_COORDINATE_TYPE>
2
5
10

$$$$
