7050336
  -OEChem-12032416133D

 58 61  0     1  0  0  0  0  0999 V2000
    7.7315   -2.7708   -1.2721 S   0  0  0  0  0  0  0  0  0  0  0  0
   -2.5174   -1.6457    0.6990 O   0  0  0  0  0  0  0  0  0  0  0  0
   -2.6433    2.3701   -1.6286 O   0  0  0  0  0  0  0  0  0  0  0  0
    3.7887    1.4873    2.1244 O   0  0  0  0  0  0  0  0  0  0  0  0
    6.1096    1.5930    0.8884 O   0  0  0  0  0  0  0  0  0  0  0  0
   -8.6262   -1.4793    0.8825 O   0  0  0  0  0  0  0  0  0  0  0  0
   -0.9528    1.1246   -0.6408 N   0  0  0  0  0  0  0  0  0  0  0  0
   -3.0309    0.2921   -0.5605 N   0  0  0  0  0  0  0  0  0  0  0  0
    2.1741    0.3515    0.9079 N   0  0  0  0  0  0  0  0  0  0  0  0
   -0.7894   -0.0932    0.1049 C   0  0  1  0  0  0  0  0  0  0  0  0
    1.0362    1.0833    1.4152 C   0  0  2  0  0  0  0  0  0  0  0  0
   -0.2138    0.1888    1.4891 C   0  0  0  0  0  0  0  0  0  0  0  0
    0.7758    2.3452    0.5740 C   0  0  0  0  0  0  0  0  0  0  0  0
    0.1804    2.0190   -0.7969 C   0  0  0  0  0  0  0  0  0  0  0  0
   -2.2222   -0.5946    0.1437 C   0  0  0  0  0  0  0  0  0  0  0  0
   -2.2705    1.3658   -1.0343 C   0  0  0  0  0  0  0  0  0  0  0  0
   -4.4412    0.1423   -0.7532 C   0  0  0  0  0  0  0  0  0  0  0  0
    3.4718    0.6214    1.3131 C   0  0  0  0  0  0  0  0  0  0  0  0
   -5.2166   -0.5107    0.2083 C   0  0  0  0  0  0  0  0  0  0  0  0
   -5.0498    0.6498   -1.9040 C   0  0  0  0  0  0  0  0  0  0  0  0
    4.5332   -0.2018    0.6784 C   0  0  0  0  0  0  0  0  0  0  0  0
   -6.5911   -0.6553    0.0204 C   0  0  0  0  0  0  0  0  0  0  0  0
   -6.4244    0.5052   -2.0920 C   0  0  0  0  0  0  0  0  0  0  0  0
   -7.1951   -0.1474   -1.1297 C   0  0  0  0  0  0  0  0  0  0  0  0
    5.7954    0.3259    0.4974 C   0  0  0  0  0  0  0  0  0  0  0  0
    4.2111   -1.4855    0.2853 C   0  0  0  0  0  0  0  0  0  0  0  0
   -7.3952   -1.3355    1.0232 C   0  0  0  0  0  0  0  0  0  0  0  0
    6.7775   -0.4627   -0.1018 C   0  0  0  0  0  0  0  0  0  0  0  0
    5.1933   -2.2743   -0.3139 C   0  0  0  0  0  0  0  0  0  0  0  0
    6.4764   -1.7629   -0.5074 C   0  0  0  0  0  0  0  0  0  0  0  0
   -6.7424   -1.8935    2.2832 C   0  0  0  0  0  0  0  0  0  0  0  0
    5.9122    2.6333   -0.0668 C   0  0  0  0  0  0  0  0  0  0  0  0
    8.1551   -1.7853   -2.7364 C   0  0  0  0  0  0  0  0  0  0  0  0
   -0.1729   -0.7842   -0.4792 H   0  0  0  0  0  0  0  0  0  0  0  0
    1.2833    1.4022    2.4356 H   0  0  0  0  0  0  0  0  0  0  0  0
    0.0136   -0.7561    1.9978 H   0  0  0  0  0  0  0  0  0  0  0  0
   -0.9692    0.6975    2.1035 H   0  0  0  0  0  0  0  0  0  0  0  0
    0.0659    2.9812    1.1189 H   0  0  0  0  0  0  0  0  0  0  0  0
    1.6953    2.9282    0.4461 H   0  0  0  0  0  0  0  0  0  0  0  0
   -0.1353    2.9344   -1.3067 H   0  0  0  0  0  0  0  0  0  0  0  0
    0.9170    1.5124   -1.4300 H   0  0  0  0  0  0  0  0  0  0  0  0
    2.0033   -0.2997    0.1490 H   0  0  0  0  0  0  0  0  0  0  0  0
   -4.7486   -0.8696    1.1178 H   0  0  0  0  0  0  0  0  0  0  0  0
   -4.4776    1.1358   -2.6883 H   0  0  0  0  0  0  0  0  0  0  0  0
   -6.8937    0.8945   -2.9909 H   0  0  0  0  0  0  0  0  0  0  0  0
   -8.2637   -0.2489   -1.2998 H   0  0  0  0  0  0  0  0  0  0  0  0
    3.2347   -1.9305    0.4488 H   0  0  0  0  0  0  0  0  0  0  0  0
    7.7755   -0.0525   -0.2384 H   0  0  0  0  0  0  0  0  0  0  0  0
    4.9423   -3.2878   -0.6172 H   0  0  0  0  0  0  0  0  0  0  0  0
   -7.5083   -2.3771    2.8981 H   0  0  0  0  0  0  0  0  0  0  0  0
   -5.9962   -2.6481    2.0214 H   0  0  0  0  0  0  0  0  0  0  0  0
   -6.3000   -1.0844    2.8701 H   0  0  0  0  0  0  0  0  0  0  0  0
    4.8704    2.6648   -0.4017 H   0  0  0  0  0  0  0  0  0  0  0  0
    6.1544    3.5867    0.4104 H   0  0  0  0  0  0  0  0  0  0  0  0
    6.5769    2.4928   -0.9250 H   0  0  0  0  0  0  0  0  0  0  0  0
    8.8624   -2.3464   -3.3527 H   0  0  0  0  0  0  0  0  0  0  0  0
    7.2595   -1.5814   -3.3297 H   0  0  0  0  0  0  0  0  0  0  0  0
    8.6221   -0.8407   -2.4461 H   0  0  0  0  0  0  0  0  0  0  0  0
  1 30  1  0  0  0  0
  1 33  1  0  0  0  0
  2 15  2  0  0  0  0
  3 16  2  0  0  0  0
  4 18  2  0  0  0  0
  5 25  1  0  0  0  0
  5 32  1  0  0  0  0
  6 27  2  0  0  0  0
  7 10  1  0  0  0  0
  7 14  1  0  0  0  0
  7 16  1  0  0  0  0
  8 15  1  0  0  0  0
  8 16  1  0  0  0  0
  8 17  1  0  0  0  0
  9 11  1  0  0  0  0
  9 18  1  0  0  0  0
  9 42  1  0  0  0  0
 10 12  1  0  0  0  0
 10 15  1  0  0  0  0
 10 34  1  0  0  0  0
 11 12  1  0  0  0  0
 11 13  1  0  0  0  0
 11 35  1  0  0  0  0
 12 36  1  0  0  0  0
 12 37  1  0  0  0  0
 13 14  1  0  0  0  0
 13 38  1  0  0  0  0
 13 39  1  0  0  0  0
 14 40  1  0  0  0  0
 14 41  1  0  0  0  0
 17 19  1  0  0  0  0
 17 20  2  0  0  0  0
 18 21  1  0  0  0  0
 19 22  2  0  0  0  0
 19 43  1  0  0  0  0
 20 23  1  0  0  0  0
 20 44  1  0  0  0  0
 21 25  2  0  0  0  0
 21 26  1  0  0  0  0
 22 24  1  0  0  0  0
 22 27  1  0  0  0  0
 23 24  2  0  0  0  0
 23 45  1  0  0  0  0
 24 46  1  0  0  0  0
 25 28  1  0  0  0  0
 26 29  2  0  0  0  0
 26 47  1  0  0  0  0
 27 31  1  0  0  0  0
 28 30  2  0  0  0  0
 28 48  1  0  0  0  0
 29 30  1  0  0  0  0
 29 49  1  0  0  0  0
 31 50  1  0  0  0  0
 31 51  1  0  0  0  0
 31 52  1  0  0  0  0
 32 53  1  0  0  0  0
 32 54  1  0  0  0  0
 32 55  1  0  0  0  0
 33 56  1  0  0  0  0
 33 57  1  0  0  0  0
 33 58  1  0  0  0  0
M  END
> <PUBCHEM_COMPOUND_CID>
7050336

> <PUBCHEM_CONFORMER_RMSD>
1

> <PUBCHEM_CONFORMER_DIVERSEORDER>
1
38
25
45
12
23
71
73
96
11
32
51
95
65
89
81
13
39
34
87
22
37
53
6
43
63
77
79
28
15
64
86
78
19
94
47
61
3
44
50
21
83
46
42
85
16
48
40
27
8
75
41
30
10
70
97
74
36
20
56
14
26
60
33
2
92
76
66
82
68
4
24
84
91
35
93
52
58
9
72
54
88
80
29
5
57
59
7
67
31
17
69
55
90
62
18
49

> <PUBCHEM_MMFF94_PARTIAL_CHARGES>
39
1 -0.33
10 0.36
11 0.3
14 0.3
15 0.57
16 0.69
17 0.12
18 0.54
19 -0.15
2 -0.57
20 -0.15
21 0.09
22 0.09
23 -0.15
24 -0.15
25 0.08
26 -0.15
27 0.42
28 -0.15
29 -0.15
3 -0.57
30 0.1
31 0.06
32 0.28
33 0.23
4 -0.57
42 0.37
43 0.15
44 0.15
45 0.15
46 0.15
47 0.15
48 0.15
49 0.15
5 -0.36
6 -0.57
7 -0.66
8 -0.24
9 -0.73

> <PUBCHEM_EFFECTIVE_ROTOR_COUNT>
8

> <PUBCHEM_PHARMACOPHORE_FEATURES>
11
1 2 acceptor
1 3 acceptor
1 33 hydrophobe
1 4 acceptor
1 5 acceptor
1 6 acceptor
1 9 donor
5 7 8 10 15 16 rings
6 17 19 20 22 23 24 rings
6 21 25 26 28 29 30 rings
6 7 10 11 12 13 14 rings

> <PUBCHEM_HEAVY_ATOM_COUNT>
33

> <PUBCHEM_ATOM_DEF_STEREO_COUNT>
2

> <PUBCHEM_ATOM_UDEF_STEREO_COUNT>
0

> <PUBCHEM_BOND_DEF_STEREO_COUNT>
0

> <PUBCHEM_BOND_UDEF_STEREO_COUNT>
0

> <PUBCHEM_ISOTOPIC_ATOM_COUNT>
0

> <PUBCHEM_COMPONENT_COUNT>
1

> <PUBCHEM_CACTVS_TAUTO_COUNT>
4

> <PUBCHEM_CONFORMER_ID>
006B946000000001

> <PUBCHEM_MMFF94_ENERGY>
105.0633

> <PUBCHEM_FEATURE_SELFOVERLAP>
55.945

> <PUBCHEM_SHAPE_FINGERPRINT>
10076449 9 18335710428881438723
10299344 5 17275383217944465543
117089 54 17485377673526580358
12047536 79 10015594861663363718
12144603 126 15913323637479474984
12236239 1 15410607133607632305
13008946 119 17474113579735909880
13533116 47 17846771932295037832
13673619 4 18201717315403328520
13685833 64 18411136948232465187
13782708 43 18200863028647867447
13914758 101 14764355959216103419
14202776 33 14924211700369564935
14347424 109 15267334141975281938
14767858 380 15285355120105473177
150020 25 18186800261985889798
15064986 266 18339932532384459216
15082195 135 18187374259787712916
15119646 104 17060622187523403710
15131766 46 16268518768283314217
15183329 4 16917062283211250161
15198563 99 18262227807972355021
15352257 5 18341609352083771731
1577012 14 14923944522510501647
16994733 274 13840260364705787789
17134984 74 18334294224632328186
18608769 82 17967809492306248523
19301679 30 16415208819548954492
20105231 36 18259706701208884347
2026 5 17915181214147005414
21130935 74 17489015089275209951
21150785 3 15357695293095583187
21344244 181 18412545410181406506
21365058 113 18333732429107387245
23522609 53 16772963660566338841
23559900 14 18339067315259346993
23569943 247 17774715360175158863
23576562 1 14924813209774608166
24771750 20 17536322779535818596
25269216 80 17822019674521269573
2747138 104 18113901580698003385
335352 9 17313371341892489911
3383291 50 18113336444748906995
34797466 226 18261388984074493764
4258327 124 13840279086626570442
437815 12 18412539916611844273
46194498 28 18187639228719814596
513202 73 17632295627402652321
54039377 194 17560521699919228222
70634741 139 12180140791338476033
999808 66 18410576189182142287

> <PUBCHEM_SHAPE_MULTIPOLES>
638.68
26.49
2.6
1.96
2.8
0.17
0.37
-17.45
5.24
-4.44
0.23
1.07
-0.19
5.09

> <PUBCHEM_SHAPE_SELFOVERLAP>
1366.948

> <PUBCHEM_SHAPE_VOLUME>
357

> <PUBCHEM_COORDINATE_TYPE>
2
5
10

$$$$
