45784233
  -OEChem-12032416283D

 44 47  0     1  0  0  0  0  0999 V2000
    7.7522   -0.7194   -0.1520 F   0  0  0  0  0  0  0  0  0  0  0  0
   -4.1683   -1.8885   -0.5532 O   0  0  0  0  0  0  0  0  0  0  0  0
   -1.6350    0.0436    0.0335 N   0  0  1  0  0  0  0  0  0  0  0  0
    2.9701   -1.0832    0.7284 N   0  0  0  0  0  0  0  0  0  0  0  0
    2.5028    0.8876   -0.1868 N   0  0  0  0  0  0  0  0  0  0  0  0
    0.5505   -0.4163    0.7488 C   0  0  1  0  0  0  0  0  0  0  0  0
   -0.0855    0.6318    1.6785 C   0  0  0  0  0  0  0  0  0  0  0  0
   -0.3545   -0.4366   -0.4904 C   0  0  0  0  0  0  0  0  0  0  0  0
   -1.2882    1.1629    0.9092 C   0  0  0  0  0  0  0  0  0  0  0  0
    2.0032   -0.1694    0.4134 C   0  0  0  0  0  0  0  0  0  0  0  0
   -2.5569    0.4321   -1.0236 C   0  0  0  0  0  0  0  0  0  0  0  0
   -3.9780    0.5011   -0.5309 C   0  0  0  0  0  0  0  0  0  0  0  0
    4.1737   -0.5827    0.3027 C   0  0  0  0  0  0  0  0  0  0  0  0
    3.8555    0.6479   -0.2649 C   0  0  0  0  0  0  0  0  0  0  0  0
   -4.7163   -0.6631   -0.3190 C   0  0  0  0  0  0  0  0  0  0  0  0
   -4.5550    1.7472   -0.2865 C   0  0  0  0  0  0  0  0  0  0  0  0
    5.4738   -1.0857    0.3635 C   0  0  0  0  0  0  0  0  0  0  0  0
    4.8828    1.4374   -0.8088 C   0  0  0  0  0  0  0  0  0  0  0  0
   -6.0318   -0.5813    0.1374 C   0  0  0  0  0  0  0  0  0  0  0  0
   -5.8707    1.8291    0.1699 C   0  0  0  0  0  0  0  0  0  0  0  0
    6.4839   -0.2868   -0.1826 C   0  0  0  0  0  0  0  0  0  0  0  0
    6.1958    0.9526   -0.7588 C   0  0  0  0  0  0  0  0  0  0  0  0
   -6.6091    0.6648    0.3819 C   0  0  0  0  0  0  0  0  0  0  0  0
   -4.9950   -3.0248   -0.3098 C   0  0  0  0  0  0  0  0  0  0  0  0
    0.4700   -1.3913    1.2512 H   0  0  0  0  0  0  0  0  0  0  0  0
   -0.4159    0.1442    2.6043 H   0  0  0  0  0  0  0  0  0  0  0  0
    0.5992    1.4405    1.9554 H   0  0  0  0  0  0  0  0  0  0  0  0
    0.0296    0.2259   -1.2776 H   0  0  0  0  0  0  0  0  0  0  0  0
   -0.4389   -1.4474   -0.9041 H   0  0  0  0  0  0  0  0  0  0  0  0
   -2.1009    1.4330    1.5907 H   0  0  0  0  0  0  0  0  0  0  0  0
   -0.9958    2.0546    0.3399 H   0  0  0  0  0  0  0  0  0  0  0  0
   -2.5317   -0.3084   -1.8356 H   0  0  0  0  0  0  0  0  0  0  0  0
   -2.2606    1.3772   -1.4991 H   0  0  0  0  0  0  0  0  0  0  0  0
    2.8273   -1.9707    1.1920 H   0  0  0  0  0  0  0  0  0  0  0  0
   -3.9914    2.6627   -0.4455 H   0  0  0  0  0  0  0  0  0  0  0  0
    5.6951   -2.0477    0.8112 H   0  0  0  0  0  0  0  0  0  0  0  0
    4.6693    2.4017   -1.2586 H   0  0  0  0  0  0  0  0  0  0  0  0
   -6.6658   -1.4409    0.3246 H   0  0  0  0  0  0  0  0  0  0  0  0
   -6.3200    2.7993    0.3608 H   0  0  0  0  0  0  0  0  0  0  0  0
    7.0023    1.5506   -1.1750 H   0  0  0  0  0  0  0  0  0  0  0  0
   -7.6334    0.7298    0.7375 H   0  0  0  0  0  0  0  0  0  0  0  0
   -5.2728   -3.1034    0.7468 H   0  0  0  0  0  0  0  0  0  0  0  0
   -5.8663   -3.0404   -0.9735 H   0  0  0  0  0  0  0  0  0  0  0  0
   -4.3996   -3.9125   -0.5477 H   0  0  0  0  0  0  0  0  0  0  0  0
  1 21  1  0  0  0  0
  2 15  1  0  0  0  0
  2 24  1  0  0  0  0
  3  8  1  0  0  0  0
  3  9  1  0  0  0  0
  3 11  1  0  0  0  0
  4 10  1  0  0  0  0
  4 13  1  0  0  0  0
  4 34  1  0  0  0  0
  5 10  2  0  0  0  0
  5 14  1  0  0  0  0
  6  7  1  0  0  0  0
  6  8  1  0  0  0  0
  6 10  1  0  0  0  0
  6 25  1  0  0  0  0
  7  9  1  0  0  0  0
  7 26  1  0  0  0  0
  7 27  1  0  0  0  0
  8 28  1  0  0  0  0
  8 29  1  0  0  0  0
  9 30  1  0  0  0  0
  9 31  1  0  0  0  0
 11 12  1  0  0  0  0
 11 32  1  0  0  0  0
 11 33  1  0  0  0  0
 12 15  1  0  0  0  0
 12 16  2  0  0  0  0
 13 14  2  0  0  0  0
 13 17  1  0  0  0  0
 14 18  1  0  0  0  0
 15 19  2  0  0  0  0
 16 20  1  0  0  0  0
 16 35  1  0  0  0  0
 17 21  2  0  0  0  0
 17 36  1  0  0  0  0
 18 22  2  0  0  0  0
 18 37  1  0  0  0  0
 19 23  1  0  0  0  0
 19 38  1  0  0  0  0
 20 23  2  0  0  0  0
 20 39  1  0  0  0  0
 21 22  1  0  0  0  0
 22 40  1  0  0  0  0
 23 41  1  0  0  0  0
 24 42  1  0  0  0  0
 24 43  1  0  0  0  0
 24 44  1  0  0  0  0
M  END
> <PUBCHEM_COMPOUND_CID>
45784233

> <PUBCHEM_CONFORMER_RMSD>
0.8

> <PUBCHEM_CONFORMER_DIVERSEORDER>
1
82
89
32
69
26
42
86
77
98
83
12
44
73
64
68
52
84
33
62
72
81
75
28
71
88
92
48
2
11
45
63
39
97
80
9
87
102
25
6
96
78
101
41
4
10
76
65
94
34
95
43
100
61
93
8
3
30
85
74
46
67
21
37
36
20
99
29
31
5
40
91
47
17
60
55
24
56
66
70
90
38
35
15
59
27
54
19
23
53
79
49
16
58
13
18
50
7
51
22
14
57

> <PUBCHEM_MMFF94_PARTIAL_CHARGES>
31
1 -0.19
10 0.01
11 0.41
12 -0.14
13 -0.15
14 0.23
15 0.08
16 -0.15
17 -0.15
18 -0.15
19 -0.15
2 -0.36
20 -0.15
21 0.19
22 -0.15
23 -0.15
24 0.28
3 -0.81
34 0.27
35 0.15
36 0.15
37 0.15
38 0.15
39 0.15
4 0.03
40 0.15
41 0.15
5 -0.57
6 0.18
8 0.27
9 0.27

> <PUBCHEM_EFFECTIVE_ROTOR_COUNT>
5

> <PUBCHEM_PHARMACOPHORE_FEATURES>
8
1 2 acceptor
1 3 cation
1 4 donor
3 4 5 10 cation
5 3 6 7 8 9 rings
5 4 5 10 13 14 rings
6 12 15 16 19 20 23 rings
6 13 14 17 18 21 22 rings

> <PUBCHEM_HEAVY_ATOM_COUNT>
24

> <PUBCHEM_ATOM_DEF_STEREO_COUNT>
1

> <PUBCHEM_ATOM_UDEF_STEREO_COUNT>
0

> <PUBCHEM_BOND_DEF_STEREO_COUNT>
0

> <PUBCHEM_BOND_UDEF_STEREO_COUNT>
0

> <PUBCHEM_ISOTOPIC_ATOM_COUNT>
0

> <PUBCHEM_COMPONENT_COUNT>
1

> <PUBCHEM_CACTVS_TAUTO_COUNT>
2

> <PUBCHEM_CONFORMER_ID>
02BA9CA900000001

> <PUBCHEM_MMFF94_ENERGY>
59.4451

> <PUBCHEM_FEATURE_SELFOVERLAP>
40.704

> <PUBCHEM_SHAPE_FINGERPRINT>
10299344 5 18408886239599104643
10595046 47 18333730234188252484
11315181 36 16845572024472917569
11524674 6 16989124275433184567
11719270 70 17989204807541025414
12091667 2 16950281789329585213
12166972 35 18187086169928415468
12236239 1 18411418414898854908
12516196 113 11024105443250844890
12730499 353 17167865232050731226
12788726 201 17559956520228596153
12821665 9 18043818790905021725
13533116 47 16298375817856936792
13690498 29 18269267019405464087
14251752 14 18343864398575754000
14251764 18 17675922102247697808
14294032 229 17558004856635237288
14849402 71 17968949711371020244
14856354 85 18343024411090442735
14933364 13 18408324375813596820
15183329 4 18260260845840544630
15250474 111 18262500559959969243
15537594 2 16702018669068259646
16993438 75 17896610667989230619
17093844 174 17275097336853535675
17844677 252 18342741848981058529
21150785 3 18335425673546388868
21236236 1 18408604799219821075
220451 1 18261108556331091434
23035841 295 18413671309823653595
23081809 10 18113333124379996554
23198884 109 18186803578075013185
23402539 116 18410853261136678365
23516275 137 18192730963514577507
23522609 53 18189641412975604389
23536379 177 18408040693234096048
23559900 14 18201148927477985537
23569943 247 16662318495613902330
2838139 119 17022901259468464348
29717793 49 18272657823128812028
3004659 81 18411135827710159496
314173 85 15410897365980409729
335352 9 18342170069545301189
3545911 37 17095526184363229024
4073 2 17895199947541625410
4325135 7 18260267447500502469
5265222 85 18271246143833849591
5283156 175 17988646251396506946
542803 24 18335417958761907580
59755656 215 16845578578408323750
59755656 520 16443066109926191458
7495541 125 18201154463590473072
9996256 80 18259982673788532844
999808 66 18041290950071519891

> <PUBCHEM_SHAPE_MULTIPOLES>
465.82
20.12
1.86
0.98
10.33
0.87
-0.17
0.68
2.6
-2.87
0.2
0.06
-0.14
-1.08

> <PUBCHEM_SHAPE_SELFOVERLAP>
1020.762

> <PUBCHEM_SHAPE_VOLUME>
256.8

> <PUBCHEM_COORDINATE_TYPE>
2
5
10

$$$$
