40778224
  -OEChem-12032416173D

 78 82  0     1  0  0  0  0  0999 V2000
    3.3912    1.3137   -0.3977 O   0  0  0  0  0  0  0  0  0  0  0  0
    4.1715    4.7444    0.3241 O   0  0  0  0  0  0  0  0  0  0  0  0
    5.7827    3.0489   -1.1244 O   0  0  0  0  0  0  0  0  0  0  0  0
    0.9807    2.2340   -1.9414 O   0  0  0  0  0  0  0  0  0  0  0  0
   -5.6057    1.8178   -0.8732 O   0  0  0  0  0  0  0  0  0  0  0  0
   -0.7399    2.5370   -0.4125 N   0  0  0  0  0  0  0  0  0  0  0  0
    4.3476   -1.0496    1.0422 N   0  0  0  0  0  0  0  0  0  0  0  0
   -3.1713    1.4039    0.4632 N   0  0  0  0  0  0  0  0  0  0  0  0
    4.9214   -1.8481    0.1276 N   0  0  0  0  0  0  0  0  0  0  0  0
    4.2791   -3.0106    0.1604 N   0  0  0  0  0  0  0  0  0  0  0  0
    1.3603   -4.2336    0.3648 N   0  0  2  0  0  0  0  0  0  0  0  0
    3.0174    2.6998   -0.3070 C   0  0  2  0  0  0  0  0  0  0  0  0
    4.0792    3.3556    0.5594 C   0  0  1  0  0  0  0  0  0  0  0  0
    5.3211    2.5931    0.1467 C   0  0  1  0  0  0  0  0  0  0  0  0
    4.7818    1.1774   -0.0255 C   0  0  1  0  0  0  0  0  0  0  0  0
    1.6163    2.8152    0.2664 C   0  0  0  0  0  0  0  0  0  0  0  0
    4.8428    0.3563    1.2552 C   0  0  0  0  0  0  0  0  0  0  0  0
    0.5974    2.5025   -0.8000 C   0  0  0  0  0  0  0  0  0  0  0  0
   -1.2341    2.8506    0.9296 C   0  0  0  0  0  0  0  0  0  0  0  0
   -1.7961    2.2706   -1.3856 C   0  0  0  0  0  0  0  0  0  0  0  0
   -2.1326    1.7290    1.4502 C   0  0  0  0  0  0  0  0  0  0  0  0
   -2.6999    1.1373   -0.9054 C   0  0  0  0  0  0  0  0  0  0  0  0
    3.3247   -1.6766    1.6846 C   0  0  0  0  0  0  0  0  0  0  0  0
   -4.3472    0.7697    0.8801 C   0  0  0  0  0  0  0  0  0  0  0  0
    3.2982   -2.9220    1.1089 C   0  0  0  0  0  0  0  0  0  0  0  0
   -5.5485    0.9862    0.2053 C   0  0  0  0  0  0  0  0  0  0  0  0
    2.4036   -4.0524    1.3884 C   0  0  0  0  0  0  0  0  0  0  0  0
   -4.3103   -0.0851    1.9817 C   0  0  0  0  0  0  0  0  0  0  0  0
   -6.7130    0.3477    0.6318 C   0  0  0  0  0  0  0  0  0  0  0  0
   -5.4749   -0.7237    2.4083 C   0  0  0  0  0  0  0  0  0  0  0  0
   -6.6763   -0.5073    1.7333 C   0  0  0  0  0  0  0  0  0  0  0  0
    0.2992   -3.2499    0.5514 C   0  0  0  0  0  0  0  0  0  0  0  0
    0.8278   -5.5903    0.4270 C   0  0  0  0  0  0  0  0  0  0  0  0
   -0.4883   -3.0281   -0.7125 C   0  0  0  0  0  0  0  0  0  0  0  0
   -5.8883    3.1918   -0.6166 C   0  0  0  0  0  0  0  0  0  0  0  0
   -0.0916   -2.0434   -1.6172 C   0  0  0  0  0  0  0  0  0  0  0  0
   -1.6143   -3.8070   -0.9787 C   0  0  0  0  0  0  0  0  0  0  0  0
   -0.8210   -1.8375   -2.7884 C   0  0  0  0  0  0  0  0  0  0  0  0
   -2.3436   -3.6011   -2.1497 C   0  0  0  0  0  0  0  0  0  0  0  0
   -1.9470   -2.6164   -3.0545 C   0  0  0  0  0  0  0  0  0  0  0  0
    3.0668    3.1310   -1.3156 H   0  0  0  0  0  0  0  0  0  0  0  0
    3.8683    3.1880    1.6227 H   0  0  0  0  0  0  0  0  0  0  0  0
    6.1466    2.6868    0.8580 H   0  0  0  0  0  0  0  0  0  0  0  0
    5.2857    0.6544   -0.8462 H   0  0  0  0  0  0  0  0  0  0  0  0
    1.4361    3.8375    0.6165 H   0  0  0  0  0  0  0  0  0  0  0  0
    1.4910    2.1079    1.0938 H   0  0  0  0  0  0  0  0  0  0  0  0
    4.2053    0.7683    2.0450 H   0  0  0  0  0  0  0  0  0  0  0  0
    5.8666    0.2435    1.6271 H   0  0  0  0  0  0  0  0  0  0  0  0
   -1.8052    3.7836    0.8472 H   0  0  0  0  0  0  0  0  0  0  0  0
   -0.4255    3.0306    1.6399 H   0  0  0  0  0  0  0  0  0  0  0  0
   -1.3739    2.0200   -2.3637 H   0  0  0  0  0  0  0  0  0  0  0  0
   -2.3730    3.1962   -1.5013 H   0  0  0  0  0  0  0  0  0  0  0  0
    4.9404    5.0733    0.8203 H   0  0  0  0  0  0  0  0  0  0  0  0
   -1.5236    0.8381    1.6495 H   0  0  0  0  0  0  0  0  0  0  0  0
   -2.5783    2.0616    2.3956 H   0  0  0  0  0  0  0  0  0  0  0  0
   -3.5089    1.0056   -1.6293 H   0  0  0  0  0  0  0  0  0  0  0  0
   -2.1346    0.1980   -0.8929 H   0  0  0  0  0  0  0  0  0  0  0  0
    6.5567    2.5106   -1.3627 H   0  0  0  0  0  0  0  0  0  0  0  0
    2.7324   -1.2051    2.4560 H   0  0  0  0  0  0  0  0  0  0  0  0
    3.0415   -4.9467    1.4231 H   0  0  0  0  0  0  0  0  0  0  0  0
    1.9607   -3.9659    2.3899 H   0  0  0  0  0  0  0  0  0  0  0  0
   -3.3910   -0.2916    2.5222 H   0  0  0  0  0  0  0  0  0  0  0  0
   -7.6524    0.5106    0.1103 H   0  0  0  0  0  0  0  0  0  0  0  0
   -5.4459   -1.3926    3.2635 H   0  0  0  0  0  0  0  0  0  0  0  0
   -7.5827   -1.0053    2.0647 H   0  0  0  0  0  0  0  0  0  0  0  0
    0.6980   -2.2694    0.8411 H   0  0  0  0  0  0  0  0  0  0  0  0
   -0.3744   -3.5246    1.3756 H   0  0  0  0  0  0  0  0  0  0  0  0
    0.3102   -5.7949    1.3715 H   0  0  0  0  0  0  0  0  0  0  0  0
    1.6349   -6.3252    0.3214 H   0  0  0  0  0  0  0  0  0  0  0  0
    0.1440   -5.7981   -0.4008 H   0  0  0  0  0  0  0  0  0  0  0  0
   -5.8834    3.7259   -1.5707 H   0  0  0  0  0  0  0  0  0  0  0  0
   -5.1236    3.6302    0.0324 H   0  0  0  0  0  0  0  0  0  0  0  0
   -6.8768    3.3007   -0.1593 H   0  0  0  0  0  0  0  0  0  0  0  0
    0.7836   -1.4291   -1.4220 H   0  0  0  0  0  0  0  0  0  0  0  0
   -1.9443   -4.5692   -0.2780 H   0  0  0  0  0  0  0  0  0  0  0  0
   -0.5132   -1.0690   -3.4916 H   0  0  0  0  0  0  0  0  0  0  0  0
   -3.2225   -4.2052   -2.3555 H   0  0  0  0  0  0  0  0  0  0  0  0
   -2.5160   -2.4548   -3.9654 H   0  0  0  0  0  0  0  0  0  0  0  0
  1 12  1  0  0  0  0
  1 15  1  0  0  0  0
  2 13  1  0  0  0  0
  2 53  1  0  0  0  0
  3 14  1  0  0  0  0
  3 58  1  0  0  0  0
  4 18  2  0  0  0  0
  5 26  1  0  0  0  0
  5 35  1  0  0  0  0
  6 18  1  0  0  0  0
  6 19  1  0  0  0  0
  6 20  1  0  0  0  0
  7  9  1  0  0  0  0
  7 17  1  0  0  0  0
  7 23  1  0  0  0  0
  8 21  1  0  0  0  0
  8 22  1  0  0  0  0
  8 24  1  0  0  0  0
  9 10  2  0  0  0  0
 10 25  1  0  0  0  0
 11 27  1  0  0  0  0
 11 32  1  0  0  0  0
 11 33  1  0  0  0  0
 12 13  1  0  0  0  0
 12 16  1  0  0  0  0
 12 41  1  0  0  0  0
 13 14  1  0  0  0  0
 13 42  1  0  0  0  0
 14 15  1  0  0  0  0
 14 43  1  0  0  0  0
 15 17  1  0  0  0  0
 15 44  1  0  0  0  0
 16 18  1  0  0  0  0
 16 45  1  0  0  0  0
 16 46  1  0  0  0  0
 17 47  1  0  0  0  0
 17 48  1  0  0  0  0
 19 21  1  0  0  0  0
 19 49  1  0  0  0  0
 19 50  1  0  0  0  0
 20 22  1  0  0  0  0
 20 51  1  0  0  0  0
 20 52  1  0  0  0  0
 21 54  1  0  0  0  0
 21 55  1  0  0  0  0
 22 56  1  0  0  0  0
 22 57  1  0  0  0  0
 23 25  2  0  0  0  0
 23 59  1  0  0  0  0
 24 26  1  0  0  0  0
 24 28  2  0  0  0  0
 25 27  1  0  0  0  0
 26 29  2  0  0  0  0
 27 60  1  0  0  0  0
 27 61  1  0  0  0  0
 28 30  1  0  0  0  0
 28 62  1  0  0  0  0
 29 31  1  0  0  0  0
 29 63  1  0  0  0  0
 30 31  2  0  0  0  0
 30 64  1  0  0  0  0
 31 65  1  0  0  0  0
 32 34  1  0  0  0  0
 32 66  1  0  0  0  0
 32 67  1  0  0  0  0
 33 68  1  0  0  0  0
 33 69  1  0  0  0  0
 33 70  1  0  0  0  0
 34 36  2  0  0  0  0
 34 37  1  0  0  0  0
 35 71  1  0  0  0  0
 35 72  1  0  0  0  0
 35 73  1  0  0  0  0
 36 38  1  0  0  0  0
 36 74  1  0  0  0  0
 37 39  2  0  0  0  0
 37 75  1  0  0  0  0
 38 40  2  0  0  0  0
 38 76  1  0  0  0  0
 39 40  1  0  0  0  0
 39 77  1  0  0  0  0
 40 78  1  0  0  0  0
M  END
> <PUBCHEM_COMPOUND_CID>
40778224

> <PUBCHEM_CONFORMER_RMSD>
1.6

> <PUBCHEM_CONFORMER_DIVERSEORDER>
1
13
68
21
121
81
146
85
156
106
108
83
55
111
59
144
99
46
105
92
96
45
149
158
34
107
130
102
100
135
137
77
80
126
148
154
50
88
18
110
152
129
43
98
114
141
78
118
103
153
24
42
112
53
86
25
157
20
82
115
31
134
61
69
143
150
87
71
79
101
9
52
109
40
93
64
89
12
125
94
142
49
124
84
133
2
72
104
7
147
66
155
60
33
97
73
37
3
90
151
91
70
56
120
76
119
29
136
116
39
54
15
127
131
5
11
14
122
10
132
22
117
48
95
139
67
16
36
138
58
57
32
51
62
8
74
128
30
113
17
28
23
123
75
65
63
145
140
38
19
27
47
41
4
6
44
35
26

> <PUBCHEM_MMFF94_PARTIAL_CHARGES>
52
1 -0.56
10 -0.23
11 -0.81
12 0.28
13 0.28
14 0.28
15 0.28
16 0.06
17 0.26
18 0.57
19 0.3
2 -0.68
20 0.3
21 0.37
22 0.37
23 -0.3
24 0.1
25 0.05
26 0.08
27 0.45
28 -0.15
29 -0.15
3 -0.68
30 -0.15
31 -0.15
32 0.41
33 0.27
34 -0.14
35 0.28
36 -0.15
37 -0.15
38 -0.15
39 -0.15
4 -0.57
40 -0.15
5 -0.36
53 0.4
58 0.4
59 0.15
6 -0.66
62 0.15
63 0.15
64 0.15
65 0.15
7 0.31
74 0.15
75 0.15
76 0.15
77 0.15
78 0.15
8 -0.84
9 -0.42

> <PUBCHEM_EFFECTIVE_ROTOR_COUNT>
13.2

> <PUBCHEM_PHARMACOPHORE_FEATURES>
14
1 1 acceptor
1 11 cation
1 2 acceptor
1 2 donor
1 3 acceptor
1 3 donor
1 4 acceptor
1 5 acceptor
1 8 cation
5 1 12 13 14 15 rings
5 7 9 10 23 25 rings
6 24 26 28 29 30 31 rings
6 34 36 37 38 39 40 rings
6 6 8 19 20 21 22 rings

> <PUBCHEM_HEAVY_ATOM_COUNT>
40

> <PUBCHEM_ATOM_DEF_STEREO_COUNT>
4

> <PUBCHEM_ATOM_UDEF_STEREO_COUNT>
0

> <PUBCHEM_BOND_DEF_STEREO_COUNT>
0

> <PUBCHEM_BOND_UDEF_STEREO_COUNT>
0

> <PUBCHEM_ISOTOPIC_ATOM_COUNT>
0

> <PUBCHEM_COMPONENT_COUNT>
1

> <PUBCHEM_CACTVS_TAUTO_COUNT>
1

> <PUBCHEM_CONFORMER_ID>
026E39F000000001

> <PUBCHEM_MMFF94_ENERGY>
126.3683

> <PUBCHEM_FEATURE_SELFOVERLAP>
71.06

> <PUBCHEM_SHAPE_FINGERPRINT>
10190206 1 17612030774575659668
10816530 23 16987436610846671884
12422481 6 18411698751693395101
13111901 25 18200877374973350835
13383668 40 18335709304939878961
1361 2 18409448042553438066
14840074 17 18201432524659117859
15297060 5 17632570565861170554
15351339 4 17906424951780593927
15419008 42 17751338626403458861
16112460 7 18341606049153057860
16120349 306 18269276931762279979
19319366 153 18341326760388684154
20764821 26 18264750182414398538
21133410 38 18270954773337014830
21458453 9 18041013846580219115
21716022 299 14331182307893115374
21792965 131 17907014329427111535
373842 8 18336550426169845755
469060 322 17763705881711169191
50150288 127 17630061574324807850
5047190 2 18342727555424979551
5309563 4 17977944580069078456

> <PUBCHEM_SHAPE_MULTIPOLES>
763.95
14.24
7.38
2.22
8.57
5.21
-0.87
-9.78
6.06
-6.6
-0.98
2.14
1.62
-1.91

> <PUBCHEM_SHAPE_SELFOVERLAP>
1622.816

> <PUBCHEM_SHAPE_VOLUME>
426.3

> <PUBCHEM_COORDINATE_TYPE>
2
5
10

$$$$
