45783778
  -OEChem-12032416273D

 48 50  0     1  0  0  0  0  0999 V2000
    0.5186   -1.5360   -1.8559 O   0  0  0  0  0  0  0  0  0  0  0  0
    3.1988   -0.4293    0.2315 N   0  0  2  0  0  0  0  0  0  0  0  0
   -0.0007   -0.7688    0.1834 N   0  0  0  0  0  0  0  0  0  0  0  0
   -0.8370   -1.1875   -1.9044 N   0  0  0  0  0  0  0  0  0  0  0  0
   -4.6679    0.1834   -0.7827 N   0  0  0  0  0  0  0  0  0  0  0  0
   -6.1068    1.0807    0.8906 N   0  0  0  0  0  0  0  0  0  0  0  0
    2.3942   -1.5522   -0.2775 C   0  0  1  0  0  0  0  0  0  0  0  0
    2.6091   -2.6027    0.8209 C   0  0  0  0  0  0  0  0  0  0  0  0
    2.9994   -0.3587    1.6736 C   0  0  0  0  0  0  0  0  0  0  0  0
    3.0392    0.8455   -0.4431 C   0  0  0  0  0  0  0  0  0  0  0  0
    2.9221   -1.8188    2.0953 C   0  0  0  0  0  0  0  0  0  0  0  0
    4.2524    1.7982   -0.2892 C   0  0  0  0  0  0  0  0  0  0  0  0
    0.9336   -1.2583   -0.5921 C   0  0  0  0  0  0  0  0  0  0  0  0
    4.3598    2.7476   -1.4956 C   0  0  0  0  0  0  0  0  0  0  0  0
    4.1488    2.6294    1.0019 C   0  0  0  0  0  0  0  0  0  0  0  0
    5.5323    0.9437   -0.2197 C   0  0  0  0  0  0  0  0  0  0  0  0
   -1.0688   -0.7437   -0.6654 C   0  0  0  0  0  0  0  0  0  0  0  0
   -2.3553   -0.2702   -0.2433 C   0  0  0  0  0  0  0  0  0  0  0  0
   -2.5615    0.1834    1.0549 C   0  0  0  0  0  0  0  0  0  0  0  0
   -3.4313   -0.2499   -1.1159 C   0  0  0  0  0  0  0  0  0  0  0  0
   -3.8197    0.6368    1.4353 C   0  0  0  0  0  0  0  0  0  0  0  0
   -4.8303    0.6166    0.4876 C   0  0  0  0  0  0  0  0  0  0  0  0
   -7.2289    1.1108    0.0099 C   0  0  0  0  0  0  0  0  0  0  0  0
    2.8561   -1.9202   -1.2030 H   0  0  0  0  0  0  0  0  0  0  0  0
    1.7441   -3.2602    0.9587 H   0  0  0  0  0  0  0  0  0  0  0  0
    3.4712   -3.2350    0.5732 H   0  0  0  0  0  0  0  0  0  0  0  0
    2.0690    0.1579    1.9379 H   0  0  0  0  0  0  0  0  0  0  0  0
    3.8259    0.1086    2.2091 H   0  0  0  0  0  0  0  0  0  0  0  0
    2.1091    1.3537   -0.1563 H   0  0  0  0  0  0  0  0  0  0  0  0
    2.9391    0.6355   -1.5175 H   0  0  0  0  0  0  0  0  0  0  0  0
    3.8736   -2.1612    2.5184 H   0  0  0  0  0  0  0  0  0  0  0  0
    2.1455   -1.9676    2.8529 H   0  0  0  0  0  0  0  0  0  0  0  0
    4.4858    2.1899   -2.4304 H   0  0  0  0  0  0  0  0  0  0  0  0
    3.4559    3.3597   -1.5899 H   0  0  0  0  0  0  0  0  0  0  0  0
    5.2148    3.4257   -1.3969 H   0  0  0  0  0  0  0  0  0  0  0  0
    4.2700    2.0462    1.9143 H   0  0  0  0  0  0  0  0  0  0  0  0
    4.9311    3.3979    1.0268 H   0  0  0  0  0  0  0  0  0  0  0  0
    3.1851    3.1480    1.0565 H   0  0  0  0  0  0  0  0  0  0  0  0
    5.6096    0.2677   -1.0794 H   0  0  0  0  0  0  0  0  0  0  0  0
    6.4207    1.5874   -0.2400 H   0  0  0  0  0  0  0  0  0  0  0  0
    5.6103    0.3500    0.6963 H   0  0  0  0  0  0  0  0  0  0  0  0
   -1.7610    0.1948    1.7901 H   0  0  0  0  0  0  0  0  0  0  0  0
   -3.3542   -0.5864   -2.1456 H   0  0  0  0  0  0  0  0  0  0  0  0
   -3.9872    0.9912    2.4472 H   0  0  0  0  0  0  0  0  0  0  0  0
   -6.1553    1.6073    1.7561 H   0  0  0  0  0  0  0  0  0  0  0  0
   -7.4768    0.1073   -0.3512 H   0  0  0  0  0  0  0  0  0  0  0  0
   -8.1061    1.4996    0.5364 H   0  0  0  0  0  0  0  0  0  0  0  0
   -7.0409    1.7615   -0.8504 H   0  0  0  0  0  0  0  0  0  0  0  0
  1  4  1  0  0  0  0
  1 13  1  0  0  0  0
  2  7  1  0  0  0  0
  2  9  1  0  0  0  0
  2 10  1  0  0  0  0
  3 13  2  0  0  0  0
  3 17  1  0  0  0  0
  4 17  2  0  0  0  0
  5 20  1  0  0  0  0
  5 22  2  0  0  0  0
  6 22  1  0  0  0  0
  6 23  1  0  0  0  0
  6 45  1  0  0  0  0
  7  8  1  0  0  0  0
  7 13  1  0  0  0  0
  7 24  1  0  0  0  0
  8 11  1  0  0  0  0
  8 25  1  0  0  0  0
  8 26  1  0  0  0  0
  9 11  1  0  0  0  0
  9 27  1  0  0  0  0
  9 28  1  0  0  0  0
 10 12  1  0  0  0  0
 10 29  1  0  0  0  0
 10 30  1  0  0  0  0
 11 31  1  0  0  0  0
 11 32  1  0  0  0  0
 12 14  1  0  0  0  0
 12 15  1  0  0  0  0
 12 16  1  0  0  0  0
 14 33  1  0  0  0  0
 14 34  1  0  0  0  0
 14 35  1  0  0  0  0
 15 36  1  0  0  0  0
 15 37  1  0  0  0  0
 15 38  1  0  0  0  0
 16 39  1  0  0  0  0
 16 40  1  0  0  0  0
 16 41  1  0  0  0  0
 17 18  1  0  0  0  0
 18 19  1  0  0  0  0
 18 20  2  0  0  0  0
 19 21  2  0  0  0  0
 19 42  1  0  0  0  0
 20 43  1  0  0  0  0
 21 22  1  0  0  0  0
 21 44  1  0  0  0  0
 23 46  1  0  0  0  0
 23 47  1  0  0  0  0
 23 48  1  0  0  0  0
M  END
> <PUBCHEM_COMPOUND_CID>
45783778

> <PUBCHEM_CONFORMER_RMSD>
0.8

> <PUBCHEM_CONFORMER_DIVERSEORDER>
1
16
23
25
13
24
19
11
9
18
8
20
27
3
14
2
26
15
12
5
6
21
17
10
4
22
7

> <PUBCHEM_MMFF94_PARTIAL_CHARGES>
21
1 -0.02
10 0.27
13 0.3
17 0.46
18 0.05
19 -0.15
2 -0.81
20 0.16
21 -0.15
22 0.41
23 0.37
3 -0.57
4 -0.41
42 0.15
43 0.15
44 0.15
45 0.4
5 -0.62
6 -0.87
7 0.45
9 0.27

> <PUBCHEM_EFFECTIVE_ROTOR_COUNT>
6

> <PUBCHEM_PHARMACOPHORE_FEATURES>
8
1 2 cation
1 6 donor
3 3 4 17 cation
3 5 6 22 cation
4 12 14 15 16 hydrophobe
5 1 3 4 13 17 rings
5 2 7 8 9 11 rings
6 5 18 19 20 21 22 rings

> <PUBCHEM_HEAVY_ATOM_COUNT>
23

> <PUBCHEM_ATOM_DEF_STEREO_COUNT>
1

> <PUBCHEM_ATOM_UDEF_STEREO_COUNT>
0

> <PUBCHEM_BOND_DEF_STEREO_COUNT>
0

> <PUBCHEM_BOND_UDEF_STEREO_COUNT>
0

> <PUBCHEM_ISOTOPIC_ATOM_COUNT>
0

> <PUBCHEM_COMPONENT_COUNT>
1

> <PUBCHEM_CACTVS_TAUTO_COUNT>
8

> <PUBCHEM_CONFORMER_ID>
02BA9AE200000001

> <PUBCHEM_MMFF94_ENERGY>
62.9293

> <PUBCHEM_FEATURE_SELFOVERLAP>
40.597

> <PUBCHEM_SHAPE_FINGERPRINT>
10378564 45 12607129469868114235
10498660 4 17346599702830207512
10554248 39 17986945247000563045
10670039 82 17131846321487722745
10906281 52 17631746989334633483
12236239 1 18273210902287518494
125118 31 18270121189854098841
12596602 18 18261115171271642267
12616971 3 18341881962295086079
12633257 1 16733817731118699992
12644460 14 18334571326772609962
12892183 10 17313099709825540287
13533116 47 17604430674576900699
13583140 156 18187928430094231531
13828863 39 16807866609592464412
13878862 14 18190718896016338621
13955234 65 18187360983394961010
14178342 30 16516542147079017562
1420 369 11242239758403749680
14251740 57 13046209547127063024
14251764 38 18122620557588212341
14251764 75 18118408581882086596
14347332 77 9439411216159731611
14528608 73 17775564252086912813
14840074 17 18343028808916167429
15142526 21 18190460661144362272
15183329 4 17346613958565316684
15238133 3 18059846260455704090
15342168 16 18409731793609594748
15475509 35 15792282688528292618
15961568 22 18412271610052816693
16992787 43 18187366503319226202
1813 80 18053378804777238654
18335252 114 18273214175506486796
19784866 240 8862951580020005000
1979834 28 15647053729322208649
20567600 234 17458913750898890933
20567600 9 18131359596222097160
21344244 181 13110958747858140685
21344244 78 18196072371145491106
21503847 285 18411423873807738202
21756936 100 18047474706392183828
22122407 14 18337684048423105769
23253445 4 17385726906731773941
23366157 5 17487070955212377055
23559900 14 18339642239597575859
2637199 183 18130796693681770220
270888 7 18269273637591663032
31174 14 17749660788960524306
312425 54 17168150001520740985
3178227 256 17603580830015076560
3472631 163 17846217816694082004
38570 142 18338813302920250852
427121 178 17167582709207638266
4340502 62 17821451274148991099
4409770 3 15678044237440057542
474 4 18411982472542511770
4990 188 14189570832189117143
5104073 3 18260823834348776859
5281201 14 12463572872042813307
59682541 52 11887671741594251665
633830 44 18343863290648694143
8272917 22 18334858290506625706
8988823 20 17895191069880933035
960060 61 10159690317973529379
9862260 156 17702957933407082718

> <PUBCHEM_SHAPE_MULTIPOLES>
442.55
14.24
2.48
1.67
18.6
0.41
-0.03
10.15
-2.5
-4.6
-0.14
-0.34
-0.36
-1.52

> <PUBCHEM_SHAPE_SELFOVERLAP>
930.88

> <PUBCHEM_SHAPE_VOLUME>
252.8

> <PUBCHEM_COORDINATE_TYPE>
2
5
10

$$$$
