75368621
  -OEChem-12032416393D

 55 58  0     1  0  0  0  0  0999 V2000
    1.9792    3.3028    0.2402 O   0  0  0  0  0  0  0  0  0  0  0  0
   -5.5027    0.8215    0.4960 O   0  0  0  0  0  0  0  0  0  0  0  0
    6.4620   -2.0733    1.3487 O   0  0  0  0  0  0  0  0  0  0  0  0
    0.0222    2.0246    0.0049 N   0  0  0  0  0  0  0  0  0  0  0  0
   -2.2937    0.6100    0.7439 N   0  0  2  0  0  0  0  0  0  0  0  0
    1.8307    1.4303   -1.1867 N   0  0  0  0  0  0  0  0  0  0  0  0
   -0.4386    0.9421   -0.8391 C   0  0  2  0  0  0  0  0  0  0  0  0
   -1.2283   -0.0750   -0.0158 C   0  0  0  0  0  0  0  0  0  0  0  0
    0.8441    0.4017   -1.4681 C   0  0  0  0  0  0  0  0  0  0  0  0
   -0.9125    2.6705    0.9028 C   0  0  0  0  0  0  0  0  0  0  0  0
   -1.7223    1.6162    1.6617 C   0  0  0  0  0  0  0  0  0  0  0  0
    1.3545    2.3735   -0.2539 C   0  0  0  0  0  0  0  0  0  0  0  0
   -3.0938   -0.3622    1.4883 C   0  0  0  0  0  0  0  0  0  0  0  0
    3.1778    1.3636   -1.7087 C   0  0  0  0  0  0  0  0  0  0  0  0
   -4.0612   -1.0908    0.6008 C   0  0  0  0  0  0  0  0  0  0  0  0
    4.0506    0.4511   -0.8964 C   0  0  0  0  0  0  0  0  0  0  0  0
   -5.2217   -0.4649    0.1459 C   0  0  0  0  0  0  0  0  0  0  0  0
   -3.7887   -2.4082    0.2319 C   0  0  0  0  0  0  0  0  0  0  0  0
    4.3810   -0.8134   -1.3837 C   0  0  0  0  0  0  0  0  0  0  0  0
    4.5308    0.8673    0.3454 C   0  0  0  0  0  0  0  0  0  0  0  0
   -6.1098   -1.1564   -0.6780 C   0  0  0  0  0  0  0  0  0  0  0  0
   -4.6769   -3.0996   -0.5919 C   0  0  0  0  0  0  0  0  0  0  0  0
    5.1916   -1.6616   -0.6294 C   0  0  0  0  0  0  0  0  0  0  0  0
    5.3413    0.0192    1.0998 C   0  0  0  0  0  0  0  0  0  0  0  0
   -5.8375   -2.4738   -1.0469 C   0  0  0  0  0  0  0  0  0  0  0  0
    5.6718   -1.2454    0.6123 C   0  0  0  0  0  0  0  0  0  0  0  0
   -6.7106    1.3824   -0.0143 C   0  0  0  0  0  0  0  0  0  0  0  0
    6.7606   -3.3520    0.7904 C   0  0  0  0  0  0  0  0  0  0  0  0
   -1.0774    1.3883   -1.6126 H   0  0  0  0  0  0  0  0  0  0  0  0
   -1.6454   -0.8115   -0.7110 H   0  0  0  0  0  0  0  0  0  0  0  0
   -0.5587   -0.6107    0.6709 H   0  0  0  0  0  0  0  0  0  0  0  0
    1.1763   -0.5347   -1.0083 H   0  0  0  0  0  0  0  0  0  0  0  0
    0.7440    0.2632   -2.5488 H   0  0  0  0  0  0  0  0  0  0  0  0
   -1.5724    3.2959    0.2905 H   0  0  0  0  0  0  0  0  0  0  0  0
   -0.3680    3.3243    1.5913 H   0  0  0  0  0  0  0  0  0  0  0  0
   -1.0776    1.1260    2.4036 H   0  0  0  0  0  0  0  0  0  0  0  0
   -2.5228    2.1291    2.2082 H   0  0  0  0  0  0  0  0  0  0  0  0
   -2.4580   -1.0670    2.0420 H   0  0  0  0  0  0  0  0  0  0  0  0
   -3.6895    0.1422    2.2622 H   0  0  0  0  0  0  0  0  0  0  0  0
    3.6093    2.3719   -1.6939 H   0  0  0  0  0  0  0  0  0  0  0  0
    3.1302    1.0527   -2.7585 H   0  0  0  0  0  0  0  0  0  0  0  0
   -2.8884   -2.9092    0.5779 H   0  0  0  0  0  0  0  0  0  0  0  0
    4.0110   -1.1500   -2.3486 H   0  0  0  0  0  0  0  0  0  0  0  0
    4.2879    1.8512    0.7362 H   0  0  0  0  0  0  0  0  0  0  0  0
   -7.0296   -0.7362   -1.0697 H   0  0  0  0  0  0  0  0  0  0  0  0
   -4.4648   -4.1252   -0.8794 H   0  0  0  0  0  0  0  0  0  0  0  0
    5.4086   -2.6300   -1.0673 H   0  0  0  0  0  0  0  0  0  0  0  0
    5.7133    0.3493    2.0658 H   0  0  0  0  0  0  0  0  0  0  0  0
   -6.5282   -3.0133   -1.6886 H   0  0  0  0  0  0  0  0  0  0  0  0
   -6.7736    2.4082    0.3636 H   0  0  0  0  0  0  0  0  0  0  0  0
   -7.5925    0.8518    0.3605 H   0  0  0  0  0  0  0  0  0  0  0  0
   -6.6953    1.4479   -1.1076 H   0  0  0  0  0  0  0  0  0  0  0  0
    7.3990   -3.8771    1.5086 H   0  0  0  0  0  0  0  0  0  0  0  0
    7.3327   -3.2616   -0.1393 H   0  0  0  0  0  0  0  0  0  0  0  0
    5.8564   -3.9571    0.6644 H   0  0  0  0  0  0  0  0  0  0  0  0
  1 12  2  0  0  0  0
  2 17  1  0  0  0  0
  2 27  1  0  0  0  0
  3 26  1  0  0  0  0
  3 28  1  0  0  0  0
  4  7  1  0  0  0  0
  4 10  1  0  0  0  0
  4 12  1  0  0  0  0
  5  8  1  0  0  0  0
  5 11  1  0  0  0  0
  5 13  1  0  0  0  0
  6  9  1  0  0  0  0
  6 12  1  0  0  0  0
  6 14  1  0  0  0  0
  7  8  1  0  0  0  0
  7  9  1  0  0  0  0
  7 29  1  0  0  0  0
  8 30  1  0  0  0  0
  8 31  1  0  0  0  0
  9 32  1  0  0  0  0
  9 33  1  0  0  0  0
 10 11  1  0  0  0  0
 10 34  1  0  0  0  0
 10 35  1  0  0  0  0
 11 36  1  0  0  0  0
 11 37  1  0  0  0  0
 13 15  1  0  0  0  0
 13 38  1  0  0  0  0
 13 39  1  0  0  0  0
 14 16  1  0  0  0  0
 14 40  1  0  0  0  0
 14 41  1  0  0  0  0
 15 17  1  0  0  0  0
 15 18  2  0  0  0  0
 16 19  2  0  0  0  0
 16 20  1  0  0  0  0
 17 21  2  0  0  0  0
 18 22  1  0  0  0  0
 18 42  1  0  0  0  0
 19 23  1  0  0  0  0
 19 43  1  0  0  0  0
 20 24  2  0  0  0  0
 20 44  1  0  0  0  0
 21 25  1  0  0  0  0
 21 45  1  0  0  0  0
 22 25  2  0  0  0  0
 22 46  1  0  0  0  0
 23 26  2  0  0  0  0
 23 47  1  0  0  0  0
 24 26  1  0  0  0  0
 24 48  1  0  0  0  0
 25 49  1  0  0  0  0
 27 50  1  0  0  0  0
 27 51  1  0  0  0  0
 27 52  1  0  0  0  0
 28 53  1  0  0  0  0
 28 54  1  0  0  0  0
 28 55  1  0  0  0  0
M  END
> <PUBCHEM_COMPOUND_CID>
75368621

> <PUBCHEM_CONFORMER_RMSD>
0.8

> <PUBCHEM_CONFORMER_DIVERSEORDER>
1
174
87
154
90
66
198
54
108
197
49
113
123
75
121
184
126
143
207
106
202
38
170
165
70
200
210
193
177
203
192
2
61
189
139
176
133
12
155
53
74
211
180
209
159
41
169
45
72
194
212
131
76
173
157
34
151
196
160
171
91
144
103
162
183
140
101
130
43
93
152
115
138
89
195
119
190
52
110
163
112
81
187
67
88
161
10
214
142
71
156
28
117
205
35
216
24
186
208
9
185
107
116
58
124
23
158
178
102
73
191
122
95
149
153
98
206
27
50
125
82
4
141
48
62
40
32
77
65
46
30
37
64
146
147
120
56
57
137
80
136
79
114
33
68
15
111
69
20
175
104
217
129
134
47
100
83
63
128
201
179
44
36
55
94
16
181
60
127
11
172
26
8
59
109
78
25
105
166
19
42
213
135
92
13
118
5
204
6
51
164
97
31
85
99
132
168
29
39
182
148
188
22
86
167
84
96
17
3
150
14
21
145
215
18
7
199

> <PUBCHEM_MMFF94_PARTIAL_CHARGES>
36
1 -0.57
10 0.3
11 0.27
12 0.69
13 0.41
14 0.44
15 -0.14
16 -0.14
17 0.08
18 -0.15
19 -0.15
2 -0.36
20 -0.15
21 -0.15
22 -0.15
23 -0.15
24 -0.15
25 -0.15
26 0.08
27 0.28
28 0.28
3 -0.36
4 -0.66
42 0.15
43 0.15
44 0.15
45 0.15
46 0.15
47 0.15
48 0.15
49 0.15
5 -0.81
6 -0.66
7 0.3
8 0.27
9 0.3

> <PUBCHEM_EFFECTIVE_ROTOR_COUNT>
7.2

> <PUBCHEM_PHARMACOPHORE_FEATURES>
8
1 1 acceptor
1 2 acceptor
1 3 acceptor
1 5 cation
5 4 6 7 9 12 rings
6 15 17 18 21 22 25 rings
6 16 19 20 23 24 26 rings
6 4 5 7 8 10 11 rings

> <PUBCHEM_HEAVY_ATOM_COUNT>
28

> <PUBCHEM_ATOM_DEF_STEREO_COUNT>
1

> <PUBCHEM_ATOM_UDEF_STEREO_COUNT>
0

> <PUBCHEM_BOND_DEF_STEREO_COUNT>
0

> <PUBCHEM_BOND_UDEF_STEREO_COUNT>
0

> <PUBCHEM_ISOTOPIC_ATOM_COUNT>
0

> <PUBCHEM_COMPONENT_COUNT>
1

> <PUBCHEM_CACTVS_TAUTO_COUNT>
1

> <PUBCHEM_CONFORMER_ID>
047E08AD00000001

> <PUBCHEM_MMFF94_ENERGY>
89.5753

> <PUBCHEM_FEATURE_SELFOVERLAP>
40.693

> <PUBCHEM_SHAPE_FINGERPRINT>
10319926 262 17559686040536941558
10673678 19 8935005892877102592
10721379 63 7997152165968605696
11135609 201 12678880330569769246
11273773 42 10447631518493987954
11796584 16 17749677388539203032
11809386 21 18340771567816644671
1200032 147 11527944591555303630
12390115 104 11891325453277484861
12422481 6 17417817239940940510
12760667 363 18259985942290267562
12895836 83 8430303637536944760
13533116 47 18335421292321349528
13761468 95 17604983708031662997
13782708 43 18115312318847099171
13828863 39 10087644801473308515
13885169 86 11167928191568093770
13911852 28 18408882915368316026
14068700 675 18412261731258030232
14251751 18 18411416241397528749
14251764 75 10087634914807135802
14257110 125 10592038055924014490
14347332 77 18126850619812896695
14848178 5 18261393377440643002
15163728 17 9439400238175909032
15183329 4 16515398586355713037
15188451 53 18341327821345813066
15475509 8 15719392798241992557
16120349 21 18336829671762902958
16126227 98 9583218566449121914
17857418 61 18410579512821866487
18222031 100 18200609063269289668
19377110 9 11671788195626397825
19438510 23 11239702086257913630
1979834 28 17418106424642689606
20028762 73 18411981339326118022
20567600 234 15410894093252220552
21033648 29 15841279150948706056
21458453 9 15337978940427689562
21987440 362 17392756969896724349
23559900 14 18271802475917868689
23572383 38 17989216940654506791
23929065 36 17774158977437697657
2838139 119 11167946836194529690
3004659 81 18335149721238355172
3472631 163 9799396842173750170
38570 142 10735880603818347312
3886686 26 17336758816559790578
439807 62 18193561288857963639
474113 269 18342447115403421231
5085150 59 17988924479441928111
5104073 3 17845105132939173137
531348 171 18334012792488381791
559249 180 18411419514774680847
6523845 18 14908189647052457820
7808743 9 8502373304311470153
7970288 3 18335419007573237114
960060 61 17168151182277791148
96874 4 18409161113064018474

> <PUBCHEM_SHAPE_MULTIPOLES>
543.68
18.56
3.55
1.45
1.3
0.85
0.05
15.3
-1.67
0.74
-0.34
0.9
-0.07
-2.51

> <PUBCHEM_SHAPE_SELFOVERLAP>
1163.257

> <PUBCHEM_SHAPE_VOLUME>
302.9

> <PUBCHEM_COORDINATE_TYPE>
2
5
10

$$$$
