9424316
  -OEChem-12032416383D

 54 57  0     1  0  0  0  0  0999 V2000
   -9.2231   -1.2642    1.7123 Cl  0  0  0  0  0  0  0  0  0  0  0  0
    2.2635    2.0496   -1.2906 O   0  0  0  0  0  0  0  0  0  0  0  0
   -1.2002   -1.7878   -1.9804 O   0  0  0  0  0  0  0  0  0  0  0  0
    5.9957    0.7143   -0.2516 O   0  0  0  0  0  0  0  0  0  0  0  0
    0.7052   -0.8103   -1.0837 N   0  0  0  0  0  0  0  0  0  0  0  0
    4.8153   -1.2700   -0.0049 N   0  0  0  0  0  0  0  0  0  0  0  0
   -0.0101    2.0605   -1.0517 N   0  0  0  0  0  0  0  0  0  0  0  0
    6.9755   -1.1228    0.7724 N   0  0  0  0  0  0  0  0  0  0  0  0
    1.2707    0.1638   -0.1589 C   0  0  1  0  0  0  0  0  0  0  0  0
    3.5893   -0.8336   -0.6297 C   0  0  2  0  0  0  0  0  0  0  0  0
    2.6487   -0.2093    0.4004 C   0  0  0  0  0  0  0  0  0  0  0  0
    2.8853   -1.9993   -1.3161 C   0  0  0  0  0  0  0  0  0  0  0  0
    1.6082   -1.5249   -1.9893 C   0  0  0  0  0  0  0  0  0  0  0  0
    1.2391    1.4873   -0.9020 C   0  0  0  0  0  0  0  0  0  0  0  0
   -0.6708   -0.9159   -1.2900 C   0  0  0  0  0  0  0  0  0  0  0  0
   -1.5609    0.1228   -0.7063 C   0  0  0  0  0  0  0  0  0  0  0  0
   -1.2641    1.4984   -0.7199 C   0  0  0  0  0  0  0  0  0  0  0  0
    5.9344   -0.4518    0.1358 C   0  0  0  0  0  0  0  0  0  0  0  0
   -2.8407   -0.3073   -0.3163 C   0  0  0  0  0  0  0  0  0  0  0  0
   -2.2810    2.4148   -0.4056 C   0  0  0  0  0  0  0  0  0  0  0  0
   -3.8224    0.6157    0.0412 C   0  0  0  0  0  0  0  0  0  0  0  0
   -3.5470    1.9770   -0.0167 C   0  0  0  0  0  0  0  0  0  0  0  0
   -5.1342    0.1586    0.4461 C   0  0  0  0  0  0  0  0  0  0  0  0
    8.2525   -0.5066    1.0452 C   0  0  0  0  0  0  0  0  0  0  0  0
   -6.2574    0.9430    0.1845 C   0  0  0  0  0  0  0  0  0  0  0  0
   -5.2755   -1.0661    1.0990 C   0  0  0  0  0  0  0  0  0  0  0  0
    8.2036    0.1430    2.3880 C   0  0  0  0  0  0  0  0  0  0  0  0
   -7.5220    0.5029    0.5758 C   0  0  0  0  0  0  0  0  0  0  0  0
   -6.5400   -1.5062    1.4900 C   0  0  0  0  0  0  0  0  0  0  0  0
   -7.6632   -0.7217    1.2285 C   0  0  0  0  0  0  0  0  0  0  0  0
    8.4253    1.4461    2.5944 C   0  0  0  0  0  0  0  0  0  0  0  0
    0.6073    0.2604    0.7105 H   0  0  0  0  0  0  0  0  0  0  0  0
    3.8502   -0.0811   -1.3837 H   0  0  0  0  0  0  0  0  0  0  0  0
    2.4992   -0.9341    1.2136 H   0  0  0  0  0  0  0  0  0  0  0  0
    3.1215    0.6658    0.8642 H   0  0  0  0  0  0  0  0  0  0  0  0
    3.5469   -2.4579   -2.0609 H   0  0  0  0  0  0  0  0  0  0  0  0
    2.6475   -2.7807   -0.5824 H   0  0  0  0  0  0  0  0  0  0  0  0
    1.8472   -0.8331   -2.8065 H   0  0  0  0  0  0  0  0  0  0  0  0
    1.0913   -2.3787   -2.4403 H   0  0  0  0  0  0  0  0  0  0  0  0
    4.8416   -2.1946    0.4145 H   0  0  0  0  0  0  0  0  0  0  0  0
   -0.0176    3.0358   -1.3405 H   0  0  0  0  0  0  0  0  0  0  0  0
   -3.0620   -1.3723   -0.3459 H   0  0  0  0  0  0  0  0  0  0  0  0
   -2.0839    3.4850   -0.4249 H   0  0  0  0  0  0  0  0  0  0  0  0
   -4.2728    2.7352    0.2641 H   0  0  0  0  0  0  0  0  0  0  0  0
    6.8263   -2.0808    1.0744 H   0  0  0  0  0  0  0  0  0  0  0  0
    8.4911    0.2065    0.2489 H   0  0  0  0  0  0  0  0  0  0  0  0
    9.0092   -1.2971    1.0405 H   0  0  0  0  0  0  0  0  0  0  0  0
   -6.2002    1.8886   -0.3477 H   0  0  0  0  0  0  0  0  0  0  0  0
   -4.4260   -1.6954    1.3504 H   0  0  0  0  0  0  0  0  0  0  0  0
    7.9899   -0.4888    3.2467 H   0  0  0  0  0  0  0  0  0  0  0  0
   -8.3895    1.1213    0.3599 H   0  0  0  0  0  0  0  0  0  0  0  0
   -6.6348   -2.4595    2.0039 H   0  0  0  0  0  0  0  0  0  0  0  0
    8.3830    1.8584    3.5965 H   0  0  0  0  0  0  0  0  0  0  0  0
    8.6497    2.1201    1.7752 H   0  0  0  0  0  0  0  0  0  0  0  0
  1 30  1  0  0  0  0
  2 14  2  0  0  0  0
  3 15  2  0  0  0  0
  4 18  2  0  0  0  0
  5  9  1  0  0  0  0
  5 13  1  0  0  0  0
  5 15  1  0  0  0  0
  6 10  1  0  0  0  0
  6 18  1  0  0  0  0
  6 40  1  0  0  0  0
  7 14  1  0  0  0  0
  7 17  1  0  0  0  0
  7 41  1  0  0  0  0
  8 18  1  0  0  0  0
  8 24  1  0  0  0  0
  8 45  1  0  0  0  0
  9 11  1  0  0  0  0
  9 14  1  0  0  0  0
  9 32  1  0  0  0  0
 10 11  1  0  0  0  0
 10 12  1  0  0  0  0
 10 33  1  0  0  0  0
 11 34  1  0  0  0  0
 11 35  1  0  0  0  0
 12 13  1  0  0  0  0
 12 36  1  0  0  0  0
 12 37  1  0  0  0  0
 13 38  1  0  0  0  0
 13 39  1  0  0  0  0
 15 16  1  0  0  0  0
 16 17  2  0  0  0  0
 16 19  1  0  0  0  0
 17 20  1  0  0  0  0
 19 21  2  0  0  0  0
 19 42  1  0  0  0  0
 20 22  2  0  0  0  0
 20 43  1  0  0  0  0
 21 22  1  0  0  0  0
 21 23  1  0  0  0  0
 22 44  1  0  0  0  0
 23 25  2  0  0  0  0
 23 26  1  0  0  0  0
 24 27  1  0  0  0  0
 24 46  1  0  0  0  0
 24 47  1  0  0  0  0
 25 28  1  0  0  0  0
 25 48  1  0  0  0  0
 26 29  2  0  0  0  0
 26 49  1  0  0  0  0
 27 31  2  0  0  0  0
 27 50  1  0  0  0  0
 28 30  2  0  0  0  0
 28 51  1  0  0  0  0
 29 30  1  0  0  0  0
 29 52  1  0  0  0  0
 31 53  1  0  0  0  0
 31 54  1  0  0  0  0
M  END
> <PUBCHEM_COMPOUND_CID>
9424316

> <PUBCHEM_CONFORMER_RMSD>
1

> <PUBCHEM_CONFORMER_DIVERSEORDER>
1
15
11
3
6
13
2
10
9
8
4
14
7
5
12

> <PUBCHEM_MMFF94_PARTIAL_CHARGES>
40
1 -0.18
10 0.3
13 0.3
14 0.57
15 0.54
16 0.09
17 0.12
18 0.69
19 -0.15
2 -0.57
20 -0.15
22 -0.15
24 0.44
25 -0.15
26 -0.15
27 -0.29
28 -0.15
29 -0.15
3 -0.57
30 0.18
31 -0.3
4 -0.57
40 0.37
41 0.37
42 0.15
43 0.15
44 0.15
45 0.37
48 0.15
49 0.15
5 -0.66
50 0.15
51 0.15
52 0.15
53 0.15
54 0.15
6 -0.73
7 -0.55
8 -0.73
9 0.36

> <PUBCHEM_EFFECTIVE_ROTOR_COUNT>
7

> <PUBCHEM_PHARMACOPHORE_FEATURES>
11
1 2 acceptor
1 3 acceptor
1 31 hydrophobe
1 4 acceptor
1 6 donor
1 7 donor
1 8 donor
6 16 17 19 20 21 22 rings
6 23 25 26 28 29 30 rings
6 5 9 10 11 12 13 rings
7 5 7 9 14 15 16 17 rings

> <PUBCHEM_HEAVY_ATOM_COUNT>
31

> <PUBCHEM_ATOM_DEF_STEREO_COUNT>
2

> <PUBCHEM_ATOM_UDEF_STEREO_COUNT>
0

> <PUBCHEM_BOND_DEF_STEREO_COUNT>
0

> <PUBCHEM_BOND_UDEF_STEREO_COUNT>
0

> <PUBCHEM_ISOTOPIC_ATOM_COUNT>
0

> <PUBCHEM_COMPONENT_COUNT>
1

> <PUBCHEM_CACTVS_TAUTO_COUNT>
9

> <PUBCHEM_CONFORMER_ID>
008FCDBC00000001

> <PUBCHEM_MMFF94_ENERGY>
94.3554

> <PUBCHEM_FEATURE_SELFOVERLAP>
55.897

> <PUBCHEM_SHAPE_FINGERPRINT>
10 15 18343579638545089442
10190206 1 8790893994593832031
106641 1 18413671318039145842
10670039 82 9223238429767285519
11135609 99 17749681787013514691
11411753 3 18125160429495166292
12035758 1 18272929423558932188
12539765 74 15769779061520953684
12838862 33 18408598142336783103
13383668 254 17275096212037023417
13383668 362 18195242441271332504
13540713 4 17912371926569717293
13540713 5 18055348303982571340
14068700 675 16588027905070964813
14849402 71 16773791523817110601
15183329 4 8502655908853822622
15188451 53 17312825965505359446
15198563 99 7853585607977313487
15347590 135 18343303639066359906
15519825 34 17749388191596721714
15706992 2 15985109647149014546
15840311 113 17489875938434179180
16126227 98 17275098453344741486
16994733 274 14333412228911012450
1768 4 17489299807031006616
18393751 57 18343576348669095894
18603816 31 16877944983910990195
19302320 297 18271799173631649104
19315958 150 17489592242274165822
20105231 36 18337115554511021030
2026 5 14707753015125311488
21095123 293 15052017857517503187
21130935 74 18267870475527584995
21267235 1 18335431144322049693
21637258 2 16370725924436190206
21792934 111 18408035204356140788
22002106 203 18265614467711878659
22149856 69 18129117648672940457
22224240 67 17988920068024828262
23559900 14 10954042372265110838
23576562 1 10591455314618947003
24771293 8 17632289103621467316
2747138 104 18411705357474629720
3092352 35 14836117750166370484
3178227 256 18131068247363421704
3383291 50 18040438801914834411
3991529 128 18271528698034437328
4058900 60 11455901247628319645
4093350 32 15410621346276771156
4149490 64 16371588010635963833
4173938 188 17560799983603933579
4403749 210 18201151062736081949
465052 167 18335151899155922221
474113 269 13046209564944962912
5104073 3 18126572219109246595
5758199 1 16845853485868718654
5911458 16 14764348258129038314
59682541 35 18342457049456691058
5969126 39 14418128500325015063
6081469 158 16587742053807376503
6201320 82 12966313531154393923
9689198 14 15051735295855880810
9953998 17 18060416937081852531
9962374 69 18335985389205021223

> <PUBCHEM_SHAPE_MULTIPOLES>
602.3
26.18
2.09
1.91
9.58
0.6
0.64
-4.28
25.54
-0.3
-0.61
2.28
-0.3
2.68

> <PUBCHEM_SHAPE_SELFOVERLAP>
1294.121

> <PUBCHEM_SHAPE_VOLUME>
329.1

> <PUBCHEM_COORDINATE_TYPE>
2
5
10

$$$$
