11912850
  -OEChem-12032416373D

 59 61  0     1  0  0  0  0  0999 V2000
   -2.4637    1.3925   -0.4013 O   0  0  0  0  0  0  0  0  0  0  0  0
    0.6318    1.6385   -2.6274 O   0  0  0  0  0  0  0  0  0  0  0  0
    0.1430   -2.8212   -1.4847 O   0  0  0  0  0  0  0  0  0  0  0  0
   -6.1366   -0.6191   -0.4457 O   0  0  0  0  0  0  0  0  0  0  0  0
    5.4234   -0.6017    1.8236 O   0  0  0  0  0  0  0  0  0  0  0  0
   -1.3244   -1.5137   -0.2552 N   0  0  0  0  0  0  0  0  0  0  0  0
   -4.0328   -0.9769    0.4699 N   0  0  0  0  0  0  0  0  0  0  0  0
   -0.1988    1.3228    0.1317 N   0  0  0  0  0  0  0  0  0  0  0  0
    2.4372    2.4344   -1.4778 N   0  0  0  0  0  0  0  0  0  0  0  0
    0.9545   -1.6762    0.3633 N   0  0  0  0  0  0  0  0  0  0  0  0
   -6.7997    1.3545    1.0022 N   0  0  0  0  0  0  0  0  0  0  0  0
   -1.6115   -0.5006    0.7797 C   0  0  2  0  0  0  0  0  0  0  0  0
   -2.9811   -0.6757    1.4438 C   0  0  0  0  0  0  0  0  0  0  0  0
   -2.4354   -1.8557   -1.1565 C   0  0  0  0  0  0  0  0  0  0  0  0
   -3.7307   -2.1080   -0.4008 C   0  0  0  0  0  0  0  0  0  0  0  0
    0.1832    2.5800   -0.4652 C   0  0  1  0  0  0  0  0  0  0  0  0
   -1.4951    0.8375    0.1108 C   0  0  0  0  0  0  0  0  0  0  0  0
    0.7917    3.5354    0.5553 C   0  0  0  0  0  0  0  0  0  0  0  0
    2.2303    3.1553    0.8732 C   0  0  0  0  0  0  0  0  0  0  0  0
    3.0427    3.1999   -0.4063 C   0  0  0  0  0  0  0  0  0  0  0  0
    1.0864    2.2121   -1.6344 C   0  0  0  0  0  0  0  0  0  0  0  0
   -0.0475   -2.0697   -0.5249 C   0  0  0  0  0  0  0  0  0  0  0  0
   -5.2537   -0.3146    0.3604 C   0  0  0  0  0  0  0  0  0  0  0  0
   -5.4788    0.8446    1.2980 C   0  0  0  0  0  0  0  0  0  0  0  0
    2.3392   -1.5400    0.0932 C   0  0  0  0  0  0  0  0  0  0  0  0
    3.2103   -1.1327    1.1037 C   0  0  0  0  0  0  0  0  0  0  0  0
    2.8309   -1.8131   -1.1832 C   0  0  0  0  0  0  0  0  0  0  0  0
    4.5730   -0.9988    0.8377 C   0  0  0  0  0  0  0  0  0  0  0  0
    4.1935   -1.6791   -1.4493 C   0  0  0  0  0  0  0  0  0  0  0  0
    5.0646   -1.2719   -0.4388 C   0  0  0  0  0  0  0  0  0  0  0  0
    4.8541   -0.3389    3.1052 C   0  0  0  0  0  0  0  0  0  0  0  0
   -0.8814   -0.5385    1.5906 H   0  0  0  0  0  0  0  0  0  0  0  0
   -3.2234    0.2001    2.0499 H   0  0  0  0  0  0  0  0  0  0  0  0
   -2.9467   -1.5350    2.1255 H   0  0  0  0  0  0  0  0  0  0  0  0
   -2.1889   -2.7358   -1.7586 H   0  0  0  0  0  0  0  0  0  0  0  0
   -2.5543   -1.0139   -1.8490 H   0  0  0  0  0  0  0  0  0  0  0  0
   -3.6390   -2.9959    0.2360 H   0  0  0  0  0  0  0  0  0  0  0  0
   -4.5462   -2.2895   -1.1078 H   0  0  0  0  0  0  0  0  0  0  0  0
   -0.7072    3.0604   -0.8882 H   0  0  0  0  0  0  0  0  0  0  0  0
    0.1970    3.5458    1.4763 H   0  0  0  0  0  0  0  0  0  0  0  0
    0.7752    4.5556    0.1509 H   0  0  0  0  0  0  0  0  0  0  0  0
    0.5350    0.7560    0.5463 H   0  0  0  0  0  0  0  0  0  0  0  0
    2.2699    2.1521    1.3133 H   0  0  0  0  0  0  0  0  0  0  0  0
    2.6526    3.8488    1.6083 H   0  0  0  0  0  0  0  0  0  0  0  0
    4.0486    2.8014   -0.2403 H   0  0  0  0  0  0  0  0  0  0  0  0
    3.1428    4.2296   -0.7667 H   0  0  0  0  0  0  0  0  0  0  0  0
    3.0431    2.1499   -2.2412 H   0  0  0  0  0  0  0  0  0  0  0  0
   -5.4424    0.4943    2.3334 H   0  0  0  0  0  0  0  0  0  0  0  0
   -4.7286    1.6223    1.1346 H   0  0  0  0  0  0  0  0  0  0  0  0
    0.6914   -1.4411    1.3132 H   0  0  0  0  0  0  0  0  0  0  0  0
   -7.0099    2.1345    1.6239 H   0  0  0  0  0  0  0  0  0  0  0  0
   -6.8214    1.7364    0.0570 H   0  0  0  0  0  0  0  0  0  0  0  0
    2.7747   -0.9316    2.0771 H   0  0  0  0  0  0  0  0  0  0  0  0
    2.2043   -2.1045   -2.0166 H   0  0  0  0  0  0  0  0  0  0  0  0
    4.5762   -1.8847   -2.4448 H   0  0  0  0  0  0  0  0  0  0  0  0
    6.1248   -1.1675   -0.6525 H   0  0  0  0  0  0  0  0  0  0  0  0
    4.1474    0.4973    3.0676 H   0  0  0  0  0  0  0  0  0  0  0  0
    4.4096   -1.2400    3.5411 H   0  0  0  0  0  0  0  0  0  0  0  0
    5.6726   -0.0351    3.7660 H   0  0  0  0  0  0  0  0  0  0  0  0
  1 17  2  0  0  0  0
  2 21  2  0  0  0  0
  3 22  2  0  0  0  0
  4 23  2  0  0  0  0
  5 28  1  0  0  0  0
  5 31  1  0  0  0  0
  6 12  1  0  0  0  0
  6 14  1  0  0  0  0
  6 22  1  0  0  0  0
  7 13  1  0  0  0  0
  7 15  1  0  0  0  0
  7 23  1  0  0  0  0
  8 16  1  0  0  0  0
  8 17  1  0  0  0  0
  8 42  1  0  0  0  0
  9 20  1  0  0  0  0
  9 21  1  0  0  0  0
  9 47  1  0  0  0  0
 10 22  1  0  0  0  0
 10 25  1  0  0  0  0
 10 50  1  0  0  0  0
 11 24  1  0  0  0  0
 11 51  1  0  0  0  0
 11 52  1  0  0  0  0
 12 13  1  0  0  0  0
 12 17  1  0  0  0  0
 12 32  1  0  0  0  0
 13 33  1  0  0  0  0
 13 34  1  0  0  0  0
 14 15  1  0  0  0  0
 14 35  1  0  0  0  0
 14 36  1  0  0  0  0
 15 37  1  0  0  0  0
 15 38  1  0  0  0  0
 16 18  1  0  0  0  0
 16 21  1  0  0  0  0
 16 39  1  0  0  0  0
 18 19  1  0  0  0  0
 18 40  1  0  0  0  0
 18 41  1  0  0  0  0
 19 20  1  0  0  0  0
 19 43  1  0  0  0  0
 19 44  1  0  0  0  0
 20 45  1  0  0  0  0
 20 46  1  0  0  0  0
 23 24  1  0  0  0  0
 24 48  1  0  0  0  0
 24 49  1  0  0  0  0
 25 26  2  0  0  0  0
 25 27  1  0  0  0  0
 26 28  1  0  0  0  0
 26 53  1  0  0  0  0
 27 29  2  0  0  0  0
 27 54  1  0  0  0  0
 28 30  2  0  0  0  0
 29 30  1  0  0  0  0
 29 55  1  0  0  0  0
 30 56  1  0  0  0  0
 31 57  1  0  0  0  0
 31 58  1  0  0  0  0
 31 59  1  0  0  0  0
M  END
> <PUBCHEM_COMPOUND_CID>
11912850

> <PUBCHEM_CONFORMER_RMSD>
1

> <PUBCHEM_CONFORMER_DIVERSEORDER>
1
148
103
95
11
150
147
84
143
181
168
126
86
69
98
156
180
97
152
161
174
137
178
63
42
172
136
22
52
83
154
163
177
53
167
61
117
138
50
173
185
149
30
85
45
94
159
56
118
14
106
157
49
182
101
146
37
58
169
184
130
104
131
90
25
34
72
158
120
23
155
66
43
113
116
29
127
111
38
164
10
171
91
151
170
153
60
26
64
32
123
166
140
5
82
102
186
121
129
105
15
87
128
122
76
74
4
179
107
80
115
24
31
145
36
142
57
139
19
93
73
79
89
144
134
47
18
2
112
13
183
133
99
176
141
81
27
160
88
12
65
96
162
100
71
135
6
165
132
109
78
21
20
75
68
7
17
44
77
125
8
62
28
35
54
55
16
59
92
114
124
33
46
48
3
175
67
119
108
39
40
70
110
41
51
9

> <PUBCHEM_MMFF94_PARTIAL_CHARGES>
38
1 -0.57
10 -0.55
11 -0.99
12 0.36
13 0.3
14 0.3
15 0.3
16 0.36
17 0.57
2 -0.57
20 0.3
21 0.57
22 0.69
23 0.57
24 0.33
25 0.12
26 -0.15
27 -0.15
28 0.08
29 -0.15
3 -0.57
30 -0.15
31 0.28
4 -0.57
42 0.37
47 0.37
5 -0.36
50 0.37
51 0.36
52 0.36
53 0.15
54 0.15
55 0.15
56 0.15
6 -0.66
7 -0.66
8 -0.73
9 -0.73

> <PUBCHEM_EFFECTIVE_ROTOR_COUNT>
11.2

> <PUBCHEM_PHARMACOPHORE_FEATURES>
13
1 1 acceptor
1 10 donor
1 11 cation
1 11 donor
1 2 acceptor
1 3 acceptor
1 4 acceptor
1 5 acceptor
1 8 donor
1 9 donor
6 25 26 27 28 29 30 rings
6 6 7 12 13 14 15 rings
6 9 16 18 19 20 21 rings

> <PUBCHEM_HEAVY_ATOM_COUNT>
31

> <PUBCHEM_ATOM_DEF_STEREO_COUNT>
2

> <PUBCHEM_ATOM_UDEF_STEREO_COUNT>
0

> <PUBCHEM_BOND_DEF_STEREO_COUNT>
0

> <PUBCHEM_BOND_UDEF_STEREO_COUNT>
0

> <PUBCHEM_ISOTOPIC_ATOM_COUNT>
0

> <PUBCHEM_COMPONENT_COUNT>
1

> <PUBCHEM_CACTVS_TAUTO_COUNT>
8

> <PUBCHEM_CONFORMER_ID>
00B5C69200000001

> <PUBCHEM_MMFF94_ENERGY>
89.8209

> <PUBCHEM_FEATURE_SELFOVERLAP>
65.974

> <PUBCHEM_SHAPE_FINGERPRINT>
10006869 2 17979068285216354459
1100329 8 18411143553929498667
11595378 159 18189037721784930338
11963148 33 17322959309913616339
12422481 6 18336817658729002121
13140716 1 18338241565353088731
133893 2 17682660063610024190
14020679 6 18114476604052609059
14117953 113 18271532983314208711
144659 39 15913036677069936573
14955137 171 18340782446087454119
15420108 30 17912070966122884476
15840311 113 17346322532281133249
16090146 7 17774459217564341291
17980427 23 18130774702874539951
1813 80 18408321077479069666
20642791 178 18339085994335477867
20691752 17 17458899461078427766
21033648 29 17775271755770908459
21304253 335 18131355172505872579
21421861 104 18336270127808718296
23559900 14 16987746586851793445
24771293 8 18202273719298947088
3411729 13 18190745421961289376
350125 39 18336554837180600565
3680242 22 18334012770285870178
460360 51 18191320466479001155
5104073 3 18263094352536792747
513532 50 17774453784108503924
57527293 21 18198317673011546546
5895379 119 17488209039656172441
6287921 2 17989211460334265478
6443956 14 18410299133204734692
7064713 232 18131629006361198106

> <PUBCHEM_SHAPE_MULTIPOLES>
578.73
12.14
3.87
1.92
11.51
3.1
-0.44
-2.87
-5.56
-2.46
1.19
-2.28
0.12
-0.89

> <PUBCHEM_SHAPE_SELFOVERLAP>
1211.287

> <PUBCHEM_SHAPE_VOLUME>
321.6

> <PUBCHEM_COORDINATE_TYPE>
2
5
10

$$$$
