38028571
  -OEChem-12032416413D

 64 65  0     1  0  0  0  0  0999 V2000
   -3.3714   -0.8752    1.9115 O   0  0  0  0  0  0  0  0  0  0  0  0
    2.3166    1.3647   -2.0153 O   0  0  0  0  0  0  0  0  0  0  0  0
    4.0160    0.5678   -0.0853 O   0  0  0  0  0  0  0  0  0  0  0  0
    6.6771   -1.1320    1.6130 O   0  0  0  0  0  0  0  0  0  0  0  0
    5.9323   -1.3154   -0.5317 O   0  0  0  0  0  0  0  0  0  0  0  0
    1.2316    2.8601   -0.5994 N   0  0  0  0  0  0  0  0  0  0  0  0
   -1.1458   -1.5054    2.1354 N   0  0  0  0  0  0  0  0  0  0  0  0
   -0.0351   -3.8249   -1.3163 N   0  0  0  0  0  0  0  0  0  0  0  0
   -1.4540    1.5795   -1.0368 C   0  0  1  0  0  0  0  0  0  0  0  0
   -1.1502    3.0983   -1.0675 C   0  0  1  0  0  0  0  0  0  0  0  0
   -2.6981    1.2988   -0.1803 C   0  0  0  0  0  0  0  0  0  0  0  0
   -2.5311    1.7925    1.2692 C   0  0  2  0  0  0  0  0  0  0  0  0
   -1.6548    1.0110   -2.4450 C   0  0  0  0  0  0  0  0  0  0  0  0
   -1.9758    3.2013    1.3237 C   0  0  0  0  0  0  0  0  0  0  0  0
   -1.3740    3.7730    0.2655 C   0  0  0  0  0  0  0  0  0  0  0  0
    0.2830    3.3662   -1.5411 C   0  0  0  0  0  0  0  0  0  0  0  0
   -1.6622    0.8284    2.0845 C   0  0  0  0  0  0  0  0  0  0  0  0
   -1.3550   -0.4845   -2.4629 C   0  0  0  0  0  0  0  0  0  0  0  0
   -3.0744    1.2841   -2.9315 C   0  0  0  0  0  0  0  0  0  0  0  0
   -2.1688    3.9558    2.6097 C   0  0  0  0  0  0  0  0  0  0  0  0
   -2.1830   -0.5902    2.0308 C   0  0  0  0  0  0  0  0  0  0  0  0
    2.1830    1.8899   -0.9133 C   0  0  0  0  0  0  0  0  0  0  0  0
   -1.3504   -2.9355    2.1156 C   0  0  0  0  0  0  0  0  0  0  0  0
    3.0579    1.5412    0.2719 C   0  0  0  0  0  0  0  0  0  0  0  0
   -1.2908   -3.4925    0.7226 C   0  0  0  0  0  0  0  0  0  0  0  0
   -2.3759   -4.1663    0.1730 C   0  0  0  0  0  0  0  0  0  0  0  0
   -0.1538   -3.3497   -0.0563 C   0  0  0  0  0  0  0  0  0  0  0  0
    4.8546    0.2200    1.0126 C   0  0  0  0  0  0  0  0  0  0  0  0
   -2.2917   -4.6697   -1.1204 C   0  0  0  0  0  0  0  0  0  0  0  0
   -1.1100   -4.4742   -1.8170 C   0  0  0  0  0  0  0  0  0  0  0  0
    5.8543   -0.8168    0.5811 C   0  0  0  0  0  0  0  0  0  0  0  0
   -0.6076    1.0579   -0.5731 H   0  0  0  0  0  0  0  0  0  0  0  0
   -1.8252    3.5929   -1.7772 H   0  0  0  0  0  0  0  0  0  0  0  0
   -2.9753    0.2431   -0.2222 H   0  0  0  0  0  0  0  0  0  0  0  0
   -3.5615    1.8513   -0.5750 H   0  0  0  0  0  0  0  0  0  0  0  0
   -3.5375    1.8057    1.7109 H   0  0  0  0  0  0  0  0  0  0  0  0
   -0.9594    1.4798   -3.1489 H   0  0  0  0  0  0  0  0  0  0  0  0
   -1.0365    4.8044    0.3469 H   0  0  0  0  0  0  0  0  0  0  0  0
    0.4605    4.4460   -1.6151 H   0  0  0  0  0  0  0  0  0  0  0  0
    0.4700    2.9509   -2.5351 H   0  0  0  0  0  0  0  0  0  0  0  0
   -1.6526    1.1192    3.1420 H   0  0  0  0  0  0  0  0  0  0  0  0
   -0.6226    0.8651    1.7365 H   0  0  0  0  0  0  0  0  0  0  0  0
   -2.0281   -1.0513   -1.8126 H   0  0  0  0  0  0  0  0  0  0  0  0
   -0.3264   -0.6805   -2.1416 H   0  0  0  0  0  0  0  0  0  0  0  0
   -1.4637   -0.8849   -3.4769 H   0  0  0  0  0  0  0  0  0  0  0  0
   -3.8270    0.6619   -2.4361 H   0  0  0  0  0  0  0  0  0  0  0  0
   -3.1418    1.0387   -3.9988 H   0  0  0  0  0  0  0  0  0  0  0  0
   -3.3580    2.3366   -2.8389 H   0  0  0  0  0  0  0  0  0  0  0  0
   -3.2307    3.9917    2.8734 H   0  0  0  0  0  0  0  0  0  0  0  0
   -1.8121    4.9890    2.5392 H   0  0  0  0  0  0  0  0  0  0  0  0
   -1.6224    3.4745    3.4263 H   0  0  0  0  0  0  0  0  0  0  0  0
    1.2478    3.2680    0.3311 H   0  0  0  0  0  0  0  0  0  0  0  0
   -0.1907   -1.1719    2.2278 H   0  0  0  0  0  0  0  0  0  0  0  0
   -2.3130   -3.1613    2.5884 H   0  0  0  0  0  0  0  0  0  0  0  0
   -0.5660   -3.3937    2.7281 H   0  0  0  0  0  0  0  0  0  0  0  0
    3.5604    2.4539    0.6122 H   0  0  0  0  0  0  0  0  0  0  0  0
    2.4152    1.1578    1.0731 H   0  0  0  0  0  0  0  0  0  0  0  0
   -3.2920   -4.3046    0.7404 H   0  0  0  0  0  0  0  0  0  0  0  0
    0.7269   -2.8357    0.3164 H   0  0  0  0  0  0  0  0  0  0  0  0
    5.3965    1.1086    1.3531 H   0  0  0  0  0  0  0  0  0  0  0  0
    4.2448   -0.1974    1.8209 H   0  0  0  0  0  0  0  0  0  0  0  0
   -3.1252   -5.1976   -1.5696 H   0  0  0  0  0  0  0  0  0  0  0  0
   -0.9941   -4.8465   -2.8295 H   0  0  0  0  0  0  0  0  0  0  0  0
    7.3412   -1.8077    1.3584 H   0  0  0  0  0  0  0  0  0  0  0  0
  1 21  2  0  0  0  0
  2 22  2  0  0  0  0
  3 24  1  0  0  0  0
  3 28  1  0  0  0  0
  4 31  1  0  0  0  0
  4 64  1  0  0  0  0
  5 31  2  0  0  0  0
  6 16  1  0  0  0  0
  6 22  1  0  0  0  0
  6 52  1  0  0  0  0
  7 21  1  0  0  0  0
  7 23  1  0  0  0  0
  7 53  1  0  0  0  0
  8 27  1  0  0  0  0
  8 30  2  0  0  0  0
  9 10  1  0  0  0  0
  9 11  1  0  0  0  0
  9 13  1  0  0  0  0
  9 32  1  0  0  0  0
 10 15  1  0  0  0  0
 10 16  1  0  0  0  0
 10 33  1  0  0  0  0
 11 12  1  0  0  0  0
 11 34  1  0  0  0  0
 11 35  1  0  0  0  0
 12 14  1  0  0  0  0
 12 17  1  0  0  0  0
 12 36  1  0  0  0  0
 13 18  1  0  0  0  0
 13 19  1  0  0  0  0
 13 37  1  0  0  0  0
 14 15  2  0  0  0  0
 14 20  1  0  0  0  0
 15 38  1  0  0  0  0
 16 39  1  0  0  0  0
 16 40  1  0  0  0  0
 17 21  1  0  0  0  0
 17 41  1  0  0  0  0
 17 42  1  0  0  0  0
 18 43  1  0  0  0  0
 18 44  1  0  0  0  0
 18 45  1  0  0  0  0
 19 46  1  0  0  0  0
 19 47  1  0  0  0  0
 19 48  1  0  0  0  0
 20 49  1  0  0  0  0
 20 50  1  0  0  0  0
 20 51  1  0  0  0  0
 22 24  1  0  0  0  0
 23 25  1  0  0  0  0
 23 54  1  0  0  0  0
 23 55  1  0  0  0  0
 24 56  1  0  0  0  0
 24 57  1  0  0  0  0
 25 26  1  0  0  0  0
 25 27  2  0  0  0  0
 26 29  2  0  0  0  0
 26 58  1  0  0  0  0
 27 59  1  0  0  0  0
 28 31  1  0  0  0  0
 28 60  1  0  0  0  0
 28 61  1  0  0  0  0
 29 30  1  0  0  0  0
 29 62  1  0  0  0  0
 30 63  1  0  0  0  0
M  END
> <PUBCHEM_COMPOUND_CID>
38028571

> <PUBCHEM_CONFORMER_RMSD>
1.2

> <PUBCHEM_CONFORMER_DIVERSEORDER>
1
40
69
12
57
37
76
92
82
34
21
19
11
87
13
5
48
38
33
77
50
96
24
78
39
80
97
29
25
16
56
58
31
18
7
75
49
85
86
89
65
55
74
45
70
15
60
42
54
63
46
68
84
93
88
71
8
81
52
95
14
99
61
41
98
4
83
44
62
20
79
17
72
66
26
9
47
3
32
67
59
30
64
10
35
94
43
6
53
28
51
27
36
91
22
90
23
73
2

> <PUBCHEM_MMFF94_PARTIAL_CHARGES>
34
1 -0.57
10 0.14
12 0.14
14 -0.28
15 -0.29
16 0.3
17 0.06
2 -0.57
20 0.14
21 0.57
22 0.57
23 0.44
24 0.34
25 -0.14
26 -0.15
27 0.16
28 0.34
29 -0.15
3 -0.56
30 0.16
31 0.66
38 0.15
4 -0.65
5 -0.57
52 0.37
53 0.37
58 0.15
59 0.15
6 -0.73
62 0.15
63 0.15
64 0.5
7 -0.73
8 -0.62

> <PUBCHEM_EFFECTIVE_ROTOR_COUNT>
13.8

> <PUBCHEM_PHARMACOPHORE_FEATURES>
12
1 1 acceptor
1 2 acceptor
1 3 acceptor
1 4 acceptor
1 5 acceptor
1 6 donor
1 7 donor
1 8 acceptor
3 13 18 19 hydrophobe
3 4 5 31 anion
6 8 25 26 27 29 30 rings
6 9 10 11 12 14 15 rings

> <PUBCHEM_HEAVY_ATOM_COUNT>
31

> <PUBCHEM_ATOM_DEF_STEREO_COUNT>
3

> <PUBCHEM_ATOM_UDEF_STEREO_COUNT>
0

> <PUBCHEM_BOND_DEF_STEREO_COUNT>
0

> <PUBCHEM_BOND_UDEF_STEREO_COUNT>
0

> <PUBCHEM_ISOTOPIC_ATOM_COUNT>
0

> <PUBCHEM_COMPONENT_COUNT>
1

> <PUBCHEM_CACTVS_TAUTO_COUNT>
4

> <PUBCHEM_CONFORMER_ID>
0244451B00000001

> <PUBCHEM_MMFF94_ENERGY>
56.2115

> <PUBCHEM_FEATURE_SELFOVERLAP>
60.967

> <PUBCHEM_SHAPE_FINGERPRINT>
11524674 6 18192988211022894840
11552529 35 18341058535681935336
12156800 1 17542452475186815611
13165053 137 17757806966978185922
13642711 20 17409107802379960326
14251757 17 16162125745360086303
14674994 50 18335407002448204244
19315092 285 15901490971744818575
20775530 9 17977675525895155706
238918 7 18123761855052583062
35225 105 18193018086408996805
469060 322 15122945252396847646

> <PUBCHEM_SHAPE_MULTIPOLES>
593.68
8.18
7.3
2.96
24.03
5.45
0.24
3.1
-2.59
-6.34
0.49
-2.54
-0.75
-1.27

> <PUBCHEM_SHAPE_SELFOVERLAP>
1212.184

> <PUBCHEM_SHAPE_VOLUME>
339.7

> <PUBCHEM_COORDINATE_TYPE>
2
5
10

$$$$
