38030964
  -OEChem-12032416363D

 58 60  0     1  0  0  0  0  0999 V2000
   -0.6440    1.0165    0.8570 O   0  0  0  0  0  0  0  0  0  0  0  0
   -7.4624   -1.0692   -0.3395 O   0  5  0  0  0  0  0  0  0  0  0  0
   -6.1641   -2.8384   -0.3969 O   0  0  0  0  0  0  0  0  0  0  0  0
    3.9273   -1.9474    0.3093 N   0  0  0  0  0  0  0  0  0  0  0  0
   -0.4148    3.2182    1.1804 N   0  0  0  0  0  0  0  0  0  0  0  0
   -1.7546    2.9554    0.9637 N   0  0  0  0  0  0  0  0  0  0  0  0
   -6.3298   -1.6026   -0.2566 N   0  3  0  0  0  0  0  0  0  0  0  0
    2.2925   -0.0415   -1.3423 C   0  0  1  0  0  0  0  0  0  0  0  0
    3.8363   -0.1650   -1.3783 C   0  0  1  0  0  0  0  0  0  0  0  0
    1.8748    1.4336   -1.2430 C   0  0  0  0  0  0  0  0  0  0  0  0
    2.4486    2.1185    0.0117 C   0  0  2  0  0  0  0  0  0  0  0  0
    1.6417   -0.6833   -2.5716 C   0  0  0  0  0  0  0  0  0  0  0  0
    3.9229    1.8191    0.1920 C   0  0  0  0  0  0  0  0  0  0  0  0
    4.5286    0.8029   -0.4476 C   0  0  0  0  0  0  0  0  0  0  0  0
    4.2845   -1.5946   -1.0539 C   0  0  0  0  0  0  0  0  0  0  0  0
    1.6532    1.7330    1.2639 C   0  0  0  0  0  0  0  0  0  0  0  0
    0.2045   -1.0897   -2.2618 C   0  0  0  0  0  0  0  0  0  0  0  0
    1.6895    0.2730   -3.7590 C   0  0  0  0  0  0  0  0  0  0  0  0
    4.6966    2.7436    1.0904 C   0  0  0  0  0  0  0  0  0  0  0  0
    0.1951    2.0581    1.1094 C   0  0  0  0  0  0  0  0  0  0  0  0
    4.3404   -3.3098    0.6243 C   0  0  0  0  0  0  0  0  0  0  0  0
   -1.8415    1.6587    0.7796 C   0  0  0  0  0  0  0  0  0  0  0  0
    3.9638   -3.6675    1.9953 C   0  0  0  0  0  0  0  0  0  0  0  0
   -2.9819    0.8302    0.5151 C   0  0  0  0  0  0  0  0  0  0  0  0
   -4.2511    1.4006    0.4190 C   0  0  0  0  0  0  0  0  0  0  0  0
   -2.8218   -0.5462    0.3555 C   0  0  0  0  0  0  0  0  0  0  0  0
    3.6575   -3.9658    3.1172 C   0  0  0  0  0  0  0  0  0  0  0  0
   -5.3603    0.5943    0.1632 C   0  0  0  0  0  0  0  0  0  0  0  0
   -3.9311   -1.3525    0.1000 C   0  0  0  0  0  0  0  0  0  0  0  0
   -5.2004   -0.7822    0.0038 C   0  0  0  0  0  0  0  0  0  0  0  0
    1.9155   -0.5551   -0.4491 H   0  0  0  0  0  0  0  0  0  0  0  0
    4.2000    0.0703   -2.3866 H   0  0  0  0  0  0  0  0  0  0  0  0
    2.2871    1.9980   -2.0908 H   0  0  0  0  0  0  0  0  0  0  0  0
    0.7903    1.5559   -1.3086 H   0  0  0  0  0  0  0  0  0  0  0  0
    2.3384    3.2009   -0.1476 H   0  0  0  0  0  0  0  0  0  0  0  0
    2.1726   -1.5980   -2.8534 H   0  0  0  0  0  0  0  0  0  0  0  0
    5.6004    0.6646   -0.3175 H   0  0  0  0  0  0  0  0  0  0  0  0
    5.3730   -1.6677   -1.1834 H   0  0  0  0  0  0  0  0  0  0  0  0
    3.8418   -2.3055   -1.7590 H   0  0  0  0  0  0  0  0  0  0  0  0
    2.0225    2.2856    2.1363 H   0  0  0  0  0  0  0  0  0  0  0  0
    1.7700    0.6687    1.5009 H   0  0  0  0  0  0  0  0  0  0  0  0
   -0.2473   -1.5866   -3.1274 H   0  0  0  0  0  0  0  0  0  0  0  0
    0.1678   -1.7936   -1.4234 H   0  0  0  0  0  0  0  0  0  0  0  0
   -0.4253   -0.2306   -2.0118 H   0  0  0  0  0  0  0  0  0  0  0  0
    2.6944    0.6617   -3.9486 H   0  0  0  0  0  0  0  0  0  0  0  0
    1.3903   -0.2659   -4.6666 H   0  0  0  0  0  0  0  0  0  0  0  0
    0.9895    1.1101   -3.6669 H   0  0  0  0  0  0  0  0  0  0  0  0
    4.5878    3.7797    0.7537 H   0  0  0  0  0  0  0  0  0  0  0  0
    5.7669    2.5111    1.0977 H   0  0  0  0  0  0  0  0  0  0  0  0
    4.3381    2.6722    2.1215 H   0  0  0  0  0  0  0  0  0  0  0  0
    4.3697   -1.3044    0.9652 H   0  0  0  0  0  0  0  0  0  0  0  0
    3.8655   -4.0158   -0.0674 H   0  0  0  0  0  0  0  0  0  0  0  0
    5.4260   -3.4140    0.5110 H   0  0  0  0  0  0  0  0  0  0  0  0
   -4.3990    2.4710    0.5400 H   0  0  0  0  0  0  0  0  0  0  0  0
   -1.8491   -1.0268    0.4241 H   0  0  0  0  0  0  0  0  0  0  0  0
    3.3856   -4.2301    4.1124 H   0  0  0  0  0  0  0  0  0  0  0  0
   -6.3339    1.0731    0.0949 H   0  0  0  0  0  0  0  0  0  0  0  0
   -3.7689   -2.4208   -0.0187 H   0  0  0  0  0  0  0  0  0  0  0  0
  1 20  1  0  0  0  0
  1 22  1  0  0  0  0
  2  7  1  0  0  0  0
  3  7  2  0  0  0  0
  4 15  1  0  0  0  0
  4 21  1  0  0  0  0
  4 51  1  0  0  0  0
  5  6  1  0  0  0  0
  5 20  2  0  0  0  0
  6 22  2  0  0  0  0
  7 30  1  0  0  0  0
  8  9  1  0  0  0  0
  8 10  1  0  0  0  0
  8 12  1  0  0  0  0
  8 31  1  0  0  0  0
  9 14  1  0  0  0  0
  9 15  1  0  0  0  0
  9 32  1  0  0  0  0
 10 11  1  0  0  0  0
 10 33  1  0  0  0  0
 10 34  1  0  0  0  0
 11 13  1  0  0  0  0
 11 16  1  0  0  0  0
 11 35  1  0  0  0  0
 12 17  1  0  0  0  0
 12 18  1  0  0  0  0
 12 36  1  0  0  0  0
 13 14  2  0  0  0  0
 13 19  1  0  0  0  0
 14 37  1  0  0  0  0
 15 38  1  0  0  0  0
 15 39  1  0  0  0  0
 16 20  1  0  0  0  0
 16 40  1  0  0  0  0
 16 41  1  0  0  0  0
 17 42  1  0  0  0  0
 17 43  1  0  0  0  0
 17 44  1  0  0  0  0
 18 45  1  0  0  0  0
 18 46  1  0  0  0  0
 18 47  1  0  0  0  0
 19 48  1  0  0  0  0
 19 49  1  0  0  0  0
 19 50  1  0  0  0  0
 21 23  1  0  0  0  0
 21 52  1  0  0  0  0
 21 53  1  0  0  0  0
 22 24  1  0  0  0  0
 23 27  3  0  0  0  0
 24 25  2  0  0  0  0
 24 26  1  0  0  0  0
 25 28  1  0  0  0  0
 25 54  1  0  0  0  0
 26 29  2  0  0  0  0
 26 55  1  0  0  0  0
 27 56  1  0  0  0  0
 28 30  2  0  0  0  0
 28 57  1  0  0  0  0
 29 30  1  0  0  0  0
 29 58  1  0  0  0  0
M  CHG  2   2  -1   7   1
M  END
> <PUBCHEM_COMPOUND_CID>
38030964

> <PUBCHEM_CONFORMER_RMSD>
1

> <PUBCHEM_CONFORMER_DIVERSEORDER>
1
80
12
31
79
6
8
64
59
43
10
70
69
29
61
66
45
71
5
16
26
62
27
46
73
38
20
24
39
21
50
72
51
67
7
47
75
18
25
15
23
54
56
30
22
68
78
28
44
57
63
60
19
74
42
17
32
9
40
13
36
58
41
48
53
52
77
2
55
34
65
76
37
11
3
33
4
35
14
49

> <PUBCHEM_MMFF94_PARTIAL_CHARGES>
32
1 -0.28
11 0.14
13 -0.28
14 -0.29
15 0.27
16 0.18
19 0.14
2 -0.52
20 0.3
21 0.47
22 0.43
23 -0.2
24 0.05
25 -0.15
26 -0.15
27 -0.18
28 -0.15
29 -0.15
3 -0.52
30 0.13
37 0.15
4 -0.9
5 -0.34
51 0.36
54 0.15
55 0.15
56 0.18
57 0.15
58 0.15
6 -0.34
7 0.91
9 0.14

> <PUBCHEM_EFFECTIVE_ROTOR_COUNT>
8.8

> <PUBCHEM_PHARMACOPHORE_FEATURES>
10
1 2 acceptor
1 2 anion
1 27 hydrophobe
1 3 acceptor
1 4 cation
1 4 donor
3 12 17 18 hydrophobe
5 1 5 6 20 22 rings
6 24 25 26 28 29 30 rings
6 8 9 10 11 13 14 rings

> <PUBCHEM_HEAVY_ATOM_COUNT>
30

> <PUBCHEM_ATOM_DEF_STEREO_COUNT>
3

> <PUBCHEM_ATOM_UDEF_STEREO_COUNT>
0

> <PUBCHEM_BOND_DEF_STEREO_COUNT>
0

> <PUBCHEM_BOND_UDEF_STEREO_COUNT>
0

> <PUBCHEM_ISOTOPIC_ATOM_COUNT>
0

> <PUBCHEM_COMPONENT_COUNT>
1

> <PUBCHEM_CACTVS_TAUTO_COUNT>
1

> <PUBCHEM_CONFORMER_ID>
02444E7400000001

> <PUBCHEM_MMFF94_ENERGY>
60.5273

> <PUBCHEM_FEATURE_SELFOVERLAP>
50.825

> <PUBCHEM_SHAPE_FINGERPRINT>
10615611 76 11383241112454290682
10622 236 18044370526557038810
11963148 33 18127121099024671647
12166972 35 18114469980738076639
12422481 6 17060044909442940999
12977781 61 17390189721861501764
131258 38 18408876335473903942
13165053 137 13138216306340067083
13402501 40 17988088897558749221
13533116 47 18333450928181115130
14068700 675 18263637360350897338
15003188 105 18410294701209792554
16120349 67 11453879340582611194
17134984 74 18186805824185030394
17492 89 18058459707515390990
18681886 176 17346324782865569068
19315092 285 18188483576160849250
1979834 28 16559041484238373141
20626108 58 18270123384043920504
208703 8 18341049601865337302
21197605 99 17416409981258874415
21315764 119 17675922097805174103
21623969 137 17560810982371068093
21703447 108 18413101750111269248
23559900 14 17629497297495829180
25222932 49 18198620123738150943
3004659 81 18342466927913237149
3680242 22 18271257036213634595
439807 62 18409735071598263887
463206 1 17201921651496828973
484985 159 16528336226701834386
5104073 3 17846787282276324825
59025328 239 17241333443730711942
66674814 147 17387139676247914666
6679774 75 17767380746293576584
6823239 73 17272878432220972308

> <PUBCHEM_SHAPE_MULTIPOLES>
579.85
14.17
4.31
2.52
23.4
2.94
-1.59
9.76
1.12
-4.8
3.8
-3.43
1.15
-2.87

> <PUBCHEM_SHAPE_SELFOVERLAP>
1217.674

> <PUBCHEM_SHAPE_VOLUME>
326.5

> <PUBCHEM_COORDINATE_TYPE>
2
5
10

$$$$
