56775612
  -OEChem-12032416233D

 45 47  0     0  0  0  0  0  0999 V2000
    1.4275    2.2474   -1.5287 O   0  0  0  0  0  0  0  0  0  0  0  0
   -6.6851   -1.2805    0.0284 O   0  0  0  0  0  0  0  0  0  0  0  0
    4.2790   -0.3237    1.1960 O   0  0  0  0  0  0  0  0  0  0  0  0
    6.0335   -0.9784   -1.1568 O   0  0  0  0  0  0  0  0  0  0  0  0
   -0.9561    1.7844    0.2877 N   0  0  0  0  0  0  0  0  0  0  0  0
    3.0638    0.2330    1.5760 N   0  0  0  0  0  0  0  0  0  0  0  0
    0.3711    1.2246    0.0186 C   0  0  0  0  0  0  0  0  0  0  0  0
   -1.9192    0.6929    0.4286 C   0  0  0  0  0  0  0  0  0  0  0  0
   -1.9901   -0.1070   -0.8762 C   0  0  0  0  0  0  0  0  0  0  0  0
   -3.2982    1.2385    0.8158 C   0  0  0  0  0  0  0  0  0  0  0  0
   -4.4099   -0.6891   -0.3977 C   0  0  0  0  0  0  0  0  0  0  0  0
   -3.0266   -1.2268   -0.7876 C   0  0  0  0  0  0  0  0  0  0  0  0
   -4.3353    0.1194    0.9044 C   0  0  0  0  0  0  0  0  0  0  0  0
    0.5535    1.0963   -1.4895 C   0  0  0  0  0  0  0  0  0  0  0  0
    1.3736    2.3681   -0.0889 C   0  0  0  0  0  0  0  0  0  0  0  0
    0.6984    0.0528    0.8927 C   0  0  0  0  0  0  0  0  0  0  0  0
   -5.4152   -1.8317   -0.2660 C   0  0  0  0  0  0  0  0  0  0  0  0
    2.1601   -0.3229    0.7640 C   0  0  0  0  0  0  0  0  0  0  0  0
    2.7407   -1.2291   -0.1400 C   0  0  0  0  0  0  0  0  0  0  0  0
    4.0737   -1.1926    0.1735 C   0  0  0  0  0  0  0  0  0  0  0  0
    5.2608   -1.8755   -0.3544 C   0  0  0  0  0  0  0  0  0  0  0  0
   -1.6576    0.0300    1.2611 H   0  0  0  0  0  0  0  0  0  0  0  0
   -1.2879    2.4604   -0.4000 H   0  0  0  0  0  0  0  0  0  0  0  0
   -1.0616   -0.6159   -1.1384 H   0  0  0  0  0  0  0  0  0  0  0  0
   -2.2749    0.5466   -1.7107 H   0  0  0  0  0  0  0  0  0  0  0  0
   -3.6337    1.9788    0.0774 H   0  0  0  0  0  0  0  0  0  0  0  0
   -3.2420    1.7570    1.7810 H   0  0  0  0  0  0  0  0  0  0  0  0
   -4.7616   -0.0113   -1.1878 H   0  0  0  0  0  0  0  0  0  0  0  0
   -3.0876   -1.7409   -1.7545 H   0  0  0  0  0  0  0  0  0  0  0  0
   -2.6939   -1.9710   -0.0524 H   0  0  0  0  0  0  0  0  0  0  0  0
   -4.0816   -0.5428    1.7422 H   0  0  0  0  0  0  0  0  0  0  0  0
   -5.3097    0.5648    1.1370 H   0  0  0  0  0  0  0  0  0  0  0  0
   -0.2900    1.2890   -2.1578 H   0  0  0  0  0  0  0  0  0  0  0  0
    1.0762    0.2095   -1.8588 H   0  0  0  0  0  0  0  0  0  0  0  0
    2.3732    2.2592    0.3333 H   0  0  0  0  0  0  0  0  0  0  0  0
    1.0128    3.3617    0.2047 H   0  0  0  0  0  0  0  0  0  0  0  0
    0.1369   -0.8569    0.6539 H   0  0  0  0  0  0  0  0  0  0  0  0
    0.5095    0.2824    1.9508 H   0  0  0  0  0  0  0  0  0  0  0  0
   -5.1344   -2.5207    0.5377 H   0  0  0  0  0  0  0  0  0  0  0  0
   -5.4883   -2.3943   -1.2025 H   0  0  0  0  0  0  0  0  0  0  0  0
    2.2636   -1.8246   -0.9043 H   0  0  0  0  0  0  0  0  0  0  0  0
   -7.3088   -2.0224    0.1059 H   0  0  0  0  0  0  0  0  0  0  0  0
    5.8936   -2.2388    0.4617 H   0  0  0  0  0  0  0  0  0  0  0  0
    4.9753   -2.7295   -0.9770 H   0  0  0  0  0  0  0  0  0  0  0  0
    6.8032   -1.4783   -1.4785 H   0  0  0  0  0  0  0  0  0  0  0  0
  1 14  1  0  0  0  0
  1 15  1  0  0  0  0
  2 17  1  0  0  0  0
  2 42  1  0  0  0  0
  3  6  1  0  0  0  0
  3 20  1  0  0  0  0
  4 21  1  0  0  0  0
  4 45  1  0  0  0  0
  5  7  1  0  0  0  0
  5  8  1  0  0  0  0
  5 23  1  0  0  0  0
  6 18  2  0  0  0  0
  7 14  1  0  0  0  0
  7 15  1  0  0  0  0
  7 16  1  0  0  0  0
  8  9  1  0  0  0  0
  8 10  1  0  0  0  0
  8 22  1  0  0  0  0
  9 12  1  0  0  0  0
  9 24  1  0  0  0  0
  9 25  1  0  0  0  0
 10 13  1  0  0  0  0
 10 26  1  0  0  0  0
 10 27  1  0  0  0  0
 11 12  1  0  0  0  0
 11 13  1  0  0  0  0
 11 17  1  0  0  0  0
 11 28  1  0  0  0  0
 12 29  1  0  0  0  0
 12 30  1  0  0  0  0
 13 31  1  0  0  0  0
 13 32  1  0  0  0  0
 14 33  1  0  0  0  0
 14 34  1  0  0  0  0
 15 35  1  0  0  0  0
 15 36  1  0  0  0  0
 16 18  1  0  0  0  0
 16 37  1  0  0  0  0
 16 38  1  0  0  0  0
 17 39  1  0  0  0  0
 17 40  1  0  0  0  0
 18 19  1  0  0  0  0
 19 20  2  0  0  0  0
 19 41  1  0  0  0  0
 20 21  1  0  0  0  0
 21 43  1  0  0  0  0
 21 44  1  0  0  0  0
M  END
> <PUBCHEM_COMPOUND_CID>
56775612

> <PUBCHEM_CONFORMER_RMSD>
0.8

> <PUBCHEM_CONFORMER_DIVERSEORDER>
1
80
28
111
22
4
99
17
62
69
94
74
67
12
49
36
32
24
60
43
103
107
19
47
73
8
68
45
48
64
11
30
110
88
78
85
53
91
46
92
83
3
2
63
21
5
35
50
93
71
104
52
42
26
15
87
23
14
75
56
44
27
31
55
66
38
61
41
72
10
81
109
39
54
108
76
82
105
29
25
84
16
70
33
20
51
13
37
97
65
9
89
57
7
106
40
90
101
86
98
6
77
96
59
58
34
18
100
95
79
102

> <PUBCHEM_MMFF94_PARTIAL_CHARGES>
20
1 -0.52
14 0.26
15 0.26
16 0.18
17 0.28
18 0.11
19 -0.15
2 -0.68
20 -0.04
21 0.46
23 0.36
3 -0.02
4 -0.68
41 0.15
42 0.4
45 0.4
5 -0.84
6 -0.41
7 0.21
8 0.27

> <PUBCHEM_EFFECTIVE_ROTOR_COUNT>
8

> <PUBCHEM_PHARMACOPHORE_FEATURES>
11
1 1 acceptor
1 2 acceptor
1 2 donor
1 4 acceptor
1 4 donor
1 5 cation
1 5 donor
1 6 acceptor
4 1 7 14 15 rings
5 3 6 18 19 20 rings
6 8 9 10 11 12 13 rings

> <PUBCHEM_HEAVY_ATOM_COUNT>
21

> <PUBCHEM_ATOM_DEF_STEREO_COUNT>
0

> <PUBCHEM_ATOM_UDEF_STEREO_COUNT>
0

> <PUBCHEM_BOND_DEF_STEREO_COUNT>
0

> <PUBCHEM_BOND_UDEF_STEREO_COUNT>
0

> <PUBCHEM_ISOTOPIC_ATOM_COUNT>
0

> <PUBCHEM_COMPONENT_COUNT>
1

> <PUBCHEM_CACTVS_TAUTO_COUNT>
1

> <PUBCHEM_CONFORMER_ID>
036253BC00000001

> <PUBCHEM_MMFF94_ENERGY>
43.2992

> <PUBCHEM_FEATURE_SELFOVERLAP>
55.822

> <PUBCHEM_SHAPE_FINGERPRINT>
10042902 136 18272087244396088718
10366900 7 16732979826022497059
10692045 39 10663826231174911652
11128504 68 17968105200978508126
11806522 49 18335698355839165576
11961588 58 12396298188261706659
12236239 1 18412548725742554193
12293681 160 12468636118972992469
12507560 40 17632285774742036896
12553582 1 18040994007841039314
12596602 18 17275102842701338699
12623949 98 17703237213239157302
12633257 1 15482382140494015167
12892183 10 17489299763627652856
13009979 54 18342749519977350137
13288520 33 18342458119341280371
13464513 79 18408321090522324538
13533116 47 18270397321278803377
13583140 156 17274523370040247945
13911987 19 16443643328235826810
14123256 34 18334864943717188787
14178000 29 18408887313251205964
14178342 30 17559974146885440489
1420 369 18413386553513268227
14251740 57 18267862972609920443
14251764 30 18058458608357652502
14341114 176 17418091031331862946
14576447 43 18187363208055735442
15061688 2 8574421041779060496
15342816 4 18187921734277237890
17492 54 17022908947454642770
1813 80 18260264127464597364
18222031 100 18260825990659209568
193927 3 18334579066235053779
19784866 240 18410294722726560599
200 152 16733268933219292066
20388580 30 18260267464464314748
20645477 70 18041273378753285901
20871999 31 17458626661962022324
21267235 1 18341618122522729443
212916 134 8213847138732063028
21403212 168 11023832726139517724
22950370 63 18339365163062378574
23016692 55 18409172103568278935
23402539 116 17896042044878745554
23402655 69 12685091466842767683
23559900 14 18115868667308718313
23622692 118 18411702093315452053
23622692 88 18338239259013919741
25147074 1 18338817666386029177
2838139 119 11386378057872958502
3004659 81 18261107509086817851
312423 11 18261966231989828673
314194 84 18187937152924968162
351380 180 10881410833041438614
351380 3 18409165493603320515
3737641 26 18197502822609419110
4325135 7 18413670228177567374
46194498 28 17458341995924740871
465052 167 17203331100585848150
5104073 3 17774712070366853946
559249 180 18341049632509622835
58807428 26 13039183697890176228
7970288 3 18335134259066880898

> <PUBCHEM_SHAPE_MULTIPOLES>
398.73
12.7
2.15
1.24
3.24
0.57
0.11
-10.25
0.04
-0.31
0.5
-0.66
0.3
-0.45

> <PUBCHEM_SHAPE_SELFOVERLAP>
830.515

> <PUBCHEM_SHAPE_VOLUME>
227.6

> <PUBCHEM_COORDINATE_TYPE>
2
5
10

$$$$
