7127933
  -OEChem-12032416413D

 59 60  0     1  0  0  0  0  0999 V2000
    1.7450    4.3831    1.9034 S   0  0  0  0  0  0  0  0  0  0  0  0
   -5.8537   -1.7314    0.6648 S   0  0  0  0  0  0  0  0  0  0  0  0
   -0.3465    0.7978    1.0419 O   0  0  0  0  0  0  0  0  0  0  0  0
   -1.0029    3.7047    0.1243 O   0  0  0  0  0  0  0  0  0  0  0  0
    3.6444   -1.6959   -1.8635 O   0  0  0  0  0  0  0  0  0  0  0  0
   -0.1401   -2.9550   -0.2721 O   0  0  0  0  0  0  0  0  0  0  0  0
    0.7502    2.4408   -0.7042 N   0  0  0  0  0  0  0  0  0  0  0  0
    2.5827   -0.1289   -0.5179 N   0  0  0  0  0  0  0  0  0  0  0  0
   -1.3732   -0.5181   -0.5810 N   0  0  0  0  0  0  0  0  0  0  0  0
    3.4331   -2.0521    0.4195 N   0  0  0  0  0  0  0  0  0  0  0  0
   -0.9879   -3.0395    1.8611 N   0  0  0  0  0  0  0  0  0  0  0  0
    2.2636    0.8197   -1.5554 C   0  0  1  0  0  0  0  0  0  0  0  0
   -0.0694    1.3732   -1.2583 C   0  0  1  0  0  0  0  0  0  0  0  0
    0.8748    0.5688   -2.1491 C   0  0  0  0  0  0  0  0  0  0  0  0
    2.1662    2.2421   -1.0129 C   0  0  0  0  0  0  0  0  0  0  0  0
   -0.6042    0.5417   -0.1314 C   0  0  0  0  0  0  0  0  0  0  0  0
    0.1971    3.5712   -0.1220 C   0  0  0  0  0  0  0  0  0  0  0  0
   -1.9852   -1.4823    0.3044 C   0  0  1  0  0  0  0  0  0  0  0  0
    3.2559   -1.3269   -0.7561 C   0  0  0  0  0  0  0  0  0  0  0  0
    1.1718    4.6690    0.2228 C   0  0  0  0  0  0  0  0  0  0  0  0
   -3.2615   -2.0903   -0.2902 C   0  0  0  0  0  0  0  0  0  0  0  0
    4.1012   -3.3317    0.4562 C   0  0  0  0  0  0  0  0  0  0  0  0
   -0.9517   -2.5683    0.5654 C   0  0  0  0  0  0  0  0  0  0  0  0
   -4.4538   -1.1738   -0.1487 C   0  0  0  0  0  0  0  0  0  0  0  0
    3.5116   -4.2054    1.5558 C   0  0  0  0  0  0  0  0  0  0  0  0
    5.6019   -3.1461    0.6436 C   0  0  0  0  0  0  0  0  0  0  0  0
    2.8655    5.7959    2.0606 C   0  0  0  0  0  0  0  0  0  0  0  0
   -4.5993    0.1194   -0.6007 C   0  0  0  0  0  0  0  0  0  0  0  0
   -5.8767    0.6596   -0.2745 C   0  0  0  0  0  0  0  0  0  0  0  0
   -6.6589   -0.2412    0.4141 C   0  0  0  0  0  0  0  0  0  0  0  0
    3.0386    0.7483   -2.3263 H   0  0  0  0  0  0  0  0  0  0  0  0
   -0.9123    1.7961   -1.8165 H   0  0  0  0  0  0  0  0  0  0  0  0
    0.8471    0.9972   -3.1596 H   0  0  0  0  0  0  0  0  0  0  0  0
    0.6387   -0.4958   -2.2375 H   0  0  0  0  0  0  0  0  0  0  0  0
    2.4318    2.9623   -1.7952 H   0  0  0  0  0  0  0  0  0  0  0  0
    2.7924    2.4193   -0.1348 H   0  0  0  0  0  0  0  0  0  0  0  0
    2.2467    0.0518    0.4233 H   0  0  0  0  0  0  0  0  0  0  0  0
   -1.4941   -0.6514   -1.5809 H   0  0  0  0  0  0  0  0  0  0  0  0
   -2.2093   -0.9764    1.2527 H   0  0  0  0  0  0  0  0  0  0  0  0
    2.0053    4.7241   -0.4797 H   0  0  0  0  0  0  0  0  0  0  0  0
    0.6377    5.6239    0.1732 H   0  0  0  0  0  0  0  0  0  0  0  0
   -3.1201   -2.3191   -1.3549 H   0  0  0  0  0  0  0  0  0  0  0  0
   -3.4711   -3.0503    0.1998 H   0  0  0  0  0  0  0  0  0  0  0  0
    3.1441   -1.6286    1.2961 H   0  0  0  0  0  0  0  0  0  0  0  0
    3.9350   -3.8306   -0.5062 H   0  0  0  0  0  0  0  0  0  0  0  0
    3.9859   -5.1921    1.5692 H   0  0  0  0  0  0  0  0  0  0  0  0
    2.4361   -4.3481    1.4027 H   0  0  0  0  0  0  0  0  0  0  0  0
    3.6456   -3.7486    2.5427 H   0  0  0  0  0  0  0  0  0  0  0  0
    6.1178   -4.1119    0.6529 H   0  0  0  0  0  0  0  0  0  0  0  0
    6.0268   -2.5444   -0.1672 H   0  0  0  0  0  0  0  0  0  0  0  0
    5.8233   -2.6312    1.5853 H   0  0  0  0  0  0  0  0  0  0  0  0
   -0.3394   -3.7553    2.1721 H   0  0  0  0  0  0  0  0  0  0  0  0
   -1.6614   -2.7089    2.5446 H   0  0  0  0  0  0  0  0  0  0  0  0
   -3.8377    0.6603   -1.1467 H   0  0  0  0  0  0  0  0  0  0  0  0
    3.3189    5.7869    3.0553 H   0  0  0  0  0  0  0  0  0  0  0  0
    2.3160    6.7326    1.9368 H   0  0  0  0  0  0  0  0  0  0  0  0
    3.6619    5.7339    1.3145 H   0  0  0  0  0  0  0  0  0  0  0  0
   -6.2058    1.6576   -0.5334 H   0  0  0  0  0  0  0  0  0  0  0  0
   -7.6650   -0.0957    0.7815 H   0  0  0  0  0  0  0  0  0  0  0  0
  1 20  1  0  0  0  0
  1 27  1  0  0  0  0
  2 24  1  0  0  0  0
  2 30  1  0  0  0  0
  3 16  2  0  0  0  0
  4 17  2  0  0  0  0
  5 19  2  0  0  0  0
  6 23  2  0  0  0  0
  7 13  1  0  0  0  0
  7 15  1  0  0  0  0
  7 17  1  0  0  0  0
  8 12  1  0  0  0  0
  8 19  1  0  0  0  0
  8 37  1  0  0  0  0
  9 16  1  0  0  0  0
  9 18  1  0  0  0  0
  9 38  1  0  0  0  0
 10 19  1  0  0  0  0
 10 22  1  0  0  0  0
 10 44  1  0  0  0  0
 11 23  1  0  0  0  0
 11 52  1  0  0  0  0
 11 53  1  0  0  0  0
 12 14  1  0  0  0  0
 12 15  1  0  0  0  0
 12 31  1  0  0  0  0
 13 14  1  0  0  0  0
 13 16  1  0  0  0  0
 13 32  1  0  0  0  0
 14 33  1  0  0  0  0
 14 34  1  0  0  0  0
 15 35  1  0  0  0  0
 15 36  1  0  0  0  0
 17 20  1  0  0  0  0
 18 21  1  0  0  0  0
 18 23  1  0  0  0  0
 18 39  1  0  0  0  0
 20 40  1  0  0  0  0
 20 41  1  0  0  0  0
 21 24  1  0  0  0  0
 21 42  1  0  0  0  0
 21 43  1  0  0  0  0
 22 25  1  0  0  0  0
 22 26  1  0  0  0  0
 22 45  1  0  0  0  0
 24 28  2  0  0  0  0
 25 46  1  0  0  0  0
 25 47  1  0  0  0  0
 25 48  1  0  0  0  0
 26 49  1  0  0  0  0
 26 50  1  0  0  0  0
 26 51  1  0  0  0  0
 27 55  1  0  0  0  0
 27 56  1  0  0  0  0
 27 57  1  0  0  0  0
 28 29  1  0  0  0  0
 28 54  1  0  0  0  0
 29 30  2  0  0  0  0
 29 58  1  0  0  0  0
 30 59  1  0  0  0  0
M  END
> <PUBCHEM_COMPOUND_CID>
7127933

> <PUBCHEM_CONFORMER_RMSD>
1.2

> <PUBCHEM_CONFORMER_DIVERSEORDER>
1
26
30
29
3
27
24
14
21
12
9
28
17
7
16
19
8
10
11
2
4
15
23
13
20
22
5
25
18
6

> <PUBCHEM_MMFF94_PARTIAL_CHARGES>
35
1 -0.46
10 -0.73
11 -0.8
12 0.3
13 0.36
15 0.3
16 0.57
17 0.57
18 0.36
19 0.69
2 -0.08
20 0.29
21 0.18
22 0.3
23 0.57
24 -0.14
27 0.23
28 -0.15
29 -0.15
3 -0.57
30 -0.11
37 0.37
38 0.37
4 -0.57
44 0.37
5 -0.57
52 0.37
53 0.37
54 0.15
58 0.15
59 0.15
6 -0.57
7 -0.66
8 -0.73
9 -0.73

> <PUBCHEM_EFFECTIVE_ROTOR_COUNT>
14

> <PUBCHEM_PHARMACOPHORE_FEATURES>
12
1 10 donor
1 11 donor
1 27 hydrophobe
1 3 acceptor
1 4 acceptor
1 5 acceptor
1 6 acceptor
1 8 donor
1 9 donor
3 22 25 26 hydrophobe
5 2 24 28 29 30 rings
5 7 12 13 14 15 rings

> <PUBCHEM_HEAVY_ATOM_COUNT>
30

> <PUBCHEM_ATOM_DEF_STEREO_COUNT>
3

> <PUBCHEM_ATOM_UDEF_STEREO_COUNT>
0

> <PUBCHEM_BOND_DEF_STEREO_COUNT>
0

> <PUBCHEM_BOND_UDEF_STEREO_COUNT>
0

> <PUBCHEM_ISOTOPIC_ATOM_COUNT>
0

> <PUBCHEM_COMPONENT_COUNT>
1

> <PUBCHEM_CACTVS_TAUTO_COUNT>
12

> <PUBCHEM_CONFORMER_ID>
006CC37D00000001

> <PUBCHEM_MMFF94_ENERGY>
56.6495

> <PUBCHEM_FEATURE_SELFOVERLAP>
60.948

> <PUBCHEM_SHAPE_FINGERPRINT>
1100329 8 18192715531828327149
11049842 53 17608096682176794980
11456790 92 18263376811361934857
12549972 3 17971490721528468923
12788726 201 18265912258614458966
13004483 165 18338510846701472318
14068700 675 18261957319795455254
14866123 147 17687744943789559491
14955137 171 18336263458104354907
17980427 26 18126833022587749149
20832881 197 18333735689250749911
21033648 29 17052735635357624281
23559900 14 18200883996657185557
3004659 81 17604153632086138518
345986 75 17824248315940516338
376196 1 16982378968685595964
4058900 60 17906747147353118636
5265222 85 17394191136495762212
79837 15 17260186588611682472
9981440 41 17619625126387456545

> <PUBCHEM_SHAPE_MULTIPOLES>
576.7
11.25
7.42
1.68
17.32
6.74
-0.06
-7.85
-2.01
-12.74
-5.15
-1.65
0.69
1.08

> <PUBCHEM_SHAPE_SELFOVERLAP>
1151.628

> <PUBCHEM_SHAPE_VOLUME>
343.2

> <PUBCHEM_COORDINATE_TYPE>
2
5
10

$$$$
