44716116
  -OEChem-12032416153D

 57 60  0     1  0  0  0  0  0999 V2000
   -1.2741   -0.3355   -1.9834 O   0  0  0  0  0  0  0  0  0  0  0  0
    5.5099   -1.9573   -1.2302 O   0  0  0  0  0  0  0  0  0  0  0  0
   -0.3605    2.6082    1.0994 N   0  0  2  0  0  0  0  0  0  0  0  0
   -3.1737   -0.1991   -0.6447 N   0  0  0  0  0  0  0  0  0  0  0  0
    2.5733    0.1466    1.1711 N   0  0  0  0  0  0  0  0  0  0  0  0
    3.6775    0.9078    1.2407 N   0  0  0  0  0  0  0  0  0  0  0  0
    4.7036    0.1489    0.8718 N   0  0  0  0  0  0  0  0  0  0  0  0
   -0.4343    2.2284   -1.4740 C   0  0  2  0  0  0  0  0  0  0  0  0
   -1.7074    1.6896   -0.7939 C   0  0  2  0  0  0  0  0  0  0  0  0
    0.8814    1.9230    0.6519 C   0  0  2  0  0  0  0  0  0  0  0  0
    0.7978    1.5487   -0.8442 C   0  0  0  0  0  0  0  0  0  0  0  0
   -0.3521    3.7283   -1.1374 C   0  0  0  0  0  0  0  0  0  0  0  0
   -1.5525    1.8041    0.7329 C   0  0  0  0  0  0  0  0  0  0  0  0
   -0.4443    3.9091    0.3893 C   0  0  0  0  0  0  0  0  0  0  0  0
    1.2265    0.7133    1.5229 C   0  0  0  0  0  0  0  0  0  0  0  0
   -2.0042    0.2792   -1.2104 C   0  0  0  0  0  0  0  0  0  0  0  0
   -3.6940   -1.5233   -0.9039 C   0  0  0  0  0  0  0  0  0  0  0  0
   -5.2259   -1.5315   -0.8610 C   0  0  0  0  0  0  0  0  0  0  0  0
   -3.1054   -2.5471    0.0726 C   0  0  0  0  0  0  0  0  0  0  0  0
   -5.7721   -1.3729    0.5580 C   0  0  0  0  0  0  0  0  0  0  0  0
   -3.6551   -2.3868    1.4899 C   0  0  0  0  0  0  0  0  0  0  0  0
   -5.1806   -2.4094    1.5082 C   0  0  0  0  0  0  0  0  0  0  0  0
    2.8606   -1.1175    0.7568 C   0  0  0  0  0  0  0  0  0  0  0  0
    4.2202   -1.0946    0.5722 C   0  0  0  0  0  0  0  0  0  0  0  0
    5.1124   -2.1723    0.1266 C   0  0  0  0  0  0  0  0  0  0  0  0
    6.3730   -2.9879   -1.6813 C   0  0  0  0  0  0  0  0  0  0  0  0
   -0.4486    2.0765   -2.5587 H   0  0  0  0  0  0  0  0  0  0  0  0
   -2.5607    2.3023   -1.1184 H   0  0  0  0  0  0  0  0  0  0  0  0
    1.7043    2.6424    0.7721 H   0  0  0  0  0  0  0  0  0  0  0  0
    0.7632    0.4651   -0.9878 H   0  0  0  0  0  0  0  0  0  0  0  0
    1.7041    1.8996   -1.3544 H   0  0  0  0  0  0  0  0  0  0  0  0
   -1.1664    4.2751   -1.6268 H   0  0  0  0  0  0  0  0  0  0  0  0
    0.5911    4.1453   -1.5103 H   0  0  0  0  0  0  0  0  0  0  0  0
   -1.5085    0.8266    1.2268 H   0  0  0  0  0  0  0  0  0  0  0  0
   -2.4445    2.2894    1.1511 H   0  0  0  0  0  0  0  0  0  0  0  0
    0.3553    4.5760    0.7349 H   0  0  0  0  0  0  0  0  0  0  0  0
   -1.3815    4.4153    0.6536 H   0  0  0  0  0  0  0  0  0  0  0  0
    1.3018    0.9800    2.5834 H   0  0  0  0  0  0  0  0  0  0  0  0
    0.5170   -0.1134    1.4120 H   0  0  0  0  0  0  0  0  0  0  0  0
   -3.3792   -1.8009   -1.9176 H   0  0  0  0  0  0  0  0  0  0  0  0
   -3.6773    0.3910    0.0106 H   0  0  0  0  0  0  0  0  0  0  0  0
   -5.6288   -0.7338   -1.4966 H   0  0  0  0  0  0  0  0  0  0  0  0
   -5.5888   -2.4813   -1.2740 H   0  0  0  0  0  0  0  0  0  0  0  0
   -3.3439   -3.5571   -0.2847 H   0  0  0  0  0  0  0  0  0  0  0  0
   -2.0117   -2.4707    0.0977 H   0  0  0  0  0  0  0  0  0  0  0  0
   -6.8633   -1.4746    0.5410 H   0  0  0  0  0  0  0  0  0  0  0  0
   -5.5579   -0.3656    0.9341 H   0  0  0  0  0  0  0  0  0  0  0  0
   -3.2976   -1.4435    1.9206 H   0  0  0  0  0  0  0  0  0  0  0  0
   -3.2686   -3.1914    2.1258 H   0  0  0  0  0  0  0  0  0  0  0  0
   -5.5330   -3.4082    1.2224 H   0  0  0  0  0  0  0  0  0  0  0  0
   -5.5402   -2.2241    2.5266 H   0  0  0  0  0  0  0  0  0  0  0  0
    2.1096   -1.8849    0.6336 H   0  0  0  0  0  0  0  0  0  0  0  0
    4.6069   -3.1423    0.2059 H   0  0  0  0  0  0  0  0  0  0  0  0
    6.0036   -2.1979    0.7650 H   0  0  0  0  0  0  0  0  0  0  0  0
    7.2858   -3.0177   -1.0783 H   0  0  0  0  0  0  0  0  0  0  0  0
    5.8668   -3.9575   -1.6464 H   0  0  0  0  0  0  0  0  0  0  0  0
    6.6487   -2.7776   -2.7183 H   0  0  0  0  0  0  0  0  0  0  0  0
  1 16  2  0  0  0  0
  2 25  1  0  0  0  0
  2 26  1  0  0  0  0
  3 10  1  0  0  0  0
  3 13  1  0  0  0  0
  3 14  1  0  0  0  0
  4 16  1  0  0  0  0
  4 17  1  0  0  0  0
  4 41  1  0  0  0  0
  5  6  1  0  0  0  0
  5 15  1  0  0  0  0
  5 23  1  0  0  0  0
  6  7  2  0  0  0  0
  7 24  1  0  0  0  0
  8  9  1  0  0  0  0
  8 11  1  0  0  0  0
  8 12  1  0  0  0  0
  8 27  1  0  0  0  0
  9 13  1  0  0  0  0
  9 16  1  0  0  0  0
  9 28  1  0  0  0  0
 10 11  1  0  0  0  0
 10 15  1  0  0  0  0
 10 29  1  0  0  0  0
 11 30  1  0  0  0  0
 11 31  1  0  0  0  0
 12 14  1  0  0  0  0
 12 32  1  0  0  0  0
 12 33  1  0  0  0  0
 13 34  1  0  0  0  0
 13 35  1  0  0  0  0
 14 36  1  0  0  0  0
 14 37  1  0  0  0  0
 15 38  1  0  0  0  0
 15 39  1  0  0  0  0
 17 18  1  0  0  0  0
 17 19  1  0  0  0  0
 17 40  1  0  0  0  0
 18 20  1  0  0  0  0
 18 42  1  0  0  0  0
 18 43  1  0  0  0  0
 19 21  1  0  0  0  0
 19 44  1  0  0  0  0
 19 45  1  0  0  0  0
 20 22  1  0  0  0  0
 20 46  1  0  0  0  0
 20 47  1  0  0  0  0
 21 22  1  0  0  0  0
 21 48  1  0  0  0  0
 21 49  1  0  0  0  0
 22 50  1  0  0  0  0
 22 51  1  0  0  0  0
 23 24  2  0  0  0  0
 23 52  1  0  0  0  0
 24 25  1  0  0  0  0
 25 53  1  0  0  0  0
 25 54  1  0  0  0  0
 26 55  1  0  0  0  0
 26 56  1  0  0  0  0
 26 57  1  0  0  0  0
M  END
> <PUBCHEM_COMPOUND_CID>
44716116

> <PUBCHEM_CONFORMER_RMSD>
1

> <PUBCHEM_CONFORMER_DIVERSEORDER>
1
78
76
44
79
35
54
33
48
87
77
42
30
68
72
46
88
40
83
64
32
91
65
90
21
80
70
29
23
14
15
27
49
61
43
22
63
36
19
51
84
60
89
8
26
85
5
55
93
17
31
18
56
69
73
2
13
52
34
82
37
39
47
28
41
11
50
58
81
16
9
67
20
74
38
4
57
86
66
25
24
10
53
3
12
92
62
71
94
45
7
75
6
59

> <PUBCHEM_MMFF94_PARTIAL_CHARGES>
20
1 -0.57
10 0.27
13 0.27
14 0.27
15 0.26
16 0.57
17 0.3
2 -0.56
23 -0.3
24 0.05
25 0.46
26 0.28
3 -0.81
4 -0.73
41 0.37
5 0.31
52 0.15
6 -0.42
7 -0.23
9 0.06

> <PUBCHEM_EFFECTIVE_ROTOR_COUNT>
9.4

> <PUBCHEM_PHARMACOPHORE_FEATURES>
7
1 1 acceptor
1 2 acceptor
1 3 cation
1 4 donor
5 5 6 7 23 24 rings
6 17 18 19 20 21 22 rings
8 3 8 9 10 11 12 13 14 rings

> <PUBCHEM_HEAVY_ATOM_COUNT>
26

> <PUBCHEM_ATOM_DEF_STEREO_COUNT>
2

> <PUBCHEM_ATOM_UDEF_STEREO_COUNT>
1

> <PUBCHEM_BOND_DEF_STEREO_COUNT>
0

> <PUBCHEM_BOND_UDEF_STEREO_COUNT>
0

> <PUBCHEM_ISOTOPIC_ATOM_COUNT>
0

> <PUBCHEM_COMPONENT_COUNT>
1

> <PUBCHEM_CACTVS_TAUTO_COUNT>
2

> <PUBCHEM_CONFORMER_ID>
02AA505400000001

> <PUBCHEM_MMFF94_ENERGY>
44.172

> <PUBCHEM_FEATURE_SELFOVERLAP>
35.522

> <PUBCHEM_SHAPE_FINGERPRINT>
10764073 3 17345205406460031001
107951 10 17622722020835487796
11387372 6 17984436139041672607
11809386 21 18119240671924159154
11954058 11 18267303325686907503
11961588 58 10665229280382552549
11991303 11 17973443205103665437
12107183 9 18412269458958984089
12422481 6 17704079460335564951
12596602 18 16342569755105166115
12633257 1 16128370527474561842
13103583 49 17203327870448843963
13135754 10 18058742277455716552
13533116 47 17903914810512294355
13673619 4 18202567255161113302
13690498 29 18341336574805842830
13757389 114 17974577896344586229
14251764 30 18343868822614017942
14950920 106 14907311171004366198
17980427 26 17250388127975948937
1813 80 18411138077777501469
193927 3 18335699463866621379
20775530 9 18408595963786284474
21120745 212 18337967696521366580
21591331 117 18261406554352983899
21716022 299 17824004400378898341
23379529 103 18413107260506778302
23466295 7 18266179435475989064
23559900 14 17751625775479762573
3737641 26 18342453764212975746
437815 12 18410570708650800915
484985 159 17487618524528889586
4921388 177 18125153836820742444
513202 73 18200881664564186526
56633871 153 18131067181943098191
6823239 73 16371838742347344457
7918774 8 18408327708697870355

> <PUBCHEM_SHAPE_MULTIPOLES>
498.42
12.65
4.57
1.73
7.82
2.6
-0.22
-18.65
-0.8
0.05
-0.43
0.27
-0.23
2.6

> <PUBCHEM_SHAPE_SELFOVERLAP>
1040.712

> <PUBCHEM_SHAPE_VOLUME>
278.2

> <PUBCHEM_COORDINATE_TYPE>
2
5
10

$$$$
