7051752
  -OEChem-12032416363D

 54 58  0     1  0  0  0  0  0999 V2000
    8.9978   -1.1247    0.6966 Cl  0  0  0  0  0  0  0  0  0  0  0  0
    0.7466    2.3649    1.5399 O   0  0  0  0  0  0  0  0  0  0  0  0
   -3.7786    0.4253    0.6330 N   0  0  2  0  0  0  0  0  0  0  0  0
   -1.0766    2.0452    0.1238 N   0  0  0  0  0  0  0  0  0  0  0  0
   -2.7502   -2.2054    0.6324 N   0  0  0  0  0  0  0  0  0  0  0  0
   -3.4259    2.9067    0.6807 C   0  0  1  0  0  0  0  0  0  0  0  0
   -3.0452    1.6766   -1.4017 C   0  0  2  0  0  0  0  0  0  0  0  0
   -3.5961    2.9804   -0.8308 C   0  0  0  0  0  0  0  0  0  0  0  0
   -4.1981    1.6936    1.2415 C   0  0  0  0  0  0  0  0  0  0  0  0
   -3.8489    0.4841   -0.8348 C   0  0  0  0  0  0  0  0  0  0  0  0
   -1.9275    2.8541    1.0086 C   0  0  0  0  0  0  0  0  0  0  0  0
   -1.5709    1.5266   -1.0753 C   0  0  0  0  0  0  0  0  0  0  0  0
   -4.5671   -0.6904    1.1504 C   0  0  0  0  0  0  0  0  0  0  0  0
   -0.7489    0.8848   -1.9204 C   0  0  0  0  0  0  0  0  0  0  0  0
    0.2750    1.9049    0.4983 C   0  0  0  0  0  0  0  0  0  0  0  0
    1.1667    1.1572   -0.4569 C   0  0  0  0  0  0  0  0  0  0  0  0
    0.6379    0.6994   -1.6002 C   0  0  0  0  0  0  0  0  0  0  0  0
   -4.0842   -2.0112    0.6249 C   0  0  0  0  0  0  0  0  0  0  0  0
    2.5577    0.9584   -0.1367 C   0  0  0  0  0  0  0  0  0  0  0  0
   -5.0101   -2.9316    0.1736 C   0  0  0  0  0  0  0  0  0  0  0  0
    3.2544   -0.1066   -0.5522 C   0  0  0  0  0  0  0  0  0  0  0  0
   -4.5304   -4.1451   -0.3066 C   0  0  0  0  0  0  0  0  0  0  0  0
   -2.3212   -3.3964    0.1580 C   0  0  0  0  0  0  0  0  0  0  0  0
   -3.1616   -4.3898   -0.3180 C   0  0  0  0  0  0  0  0  0  0  0  0
    4.6728   -0.3581   -0.2432 C   0  0  0  0  0  0  0  0  0  0  0  0
    5.4785    0.6971    0.1534 C   0  0  0  0  0  0  0  0  0  0  0  0
    5.1742   -1.6449   -0.3560 C   0  0  0  0  0  0  0  0  0  0  0  0
    6.8216    0.4590    0.4452 C   0  0  0  0  0  0  0  0  0  0  0  0
    6.5173   -1.8829   -0.0641 C   0  0  0  0  0  0  0  0  0  0  0  0
    7.3410   -0.8310    0.3364 C   0  0  0  0  0  0  0  0  0  0  0  0
   -3.8480    3.8085    1.1416 H   0  0  0  0  0  0  0  0  0  0  0  0
   -3.1820    1.6982   -2.4910 H   0  0  0  0  0  0  0  0  0  0  0  0
   -4.6545    3.0982   -1.0931 H   0  0  0  0  0  0  0  0  0  0  0  0
   -3.0635    3.8470   -1.2421 H   0  0  0  0  0  0  0  0  0  0  0  0
   -4.0413    1.6490    2.3265 H   0  0  0  0  0  0  0  0  0  0  0  0
   -5.2725    1.8564    1.0804 H   0  0  0  0  0  0  0  0  0  0  0  0
   -3.4519   -0.4287   -1.2941 H   0  0  0  0  0  0  0  0  0  0  0  0
   -4.8939    0.5739   -1.1629 H   0  0  0  0  0  0  0  0  0  0  0  0
   -1.7706    2.5226    2.0428 H   0  0  0  0  0  0  0  0  0  0  0  0
   -1.5228    3.8741    0.9547 H   0  0  0  0  0  0  0  0  0  0  0  0
   -5.6308   -0.5473    0.9174 H   0  0  0  0  0  0  0  0  0  0  0  0
   -4.4831   -0.7315    2.2441 H   0  0  0  0  0  0  0  0  0  0  0  0
   -1.1080    0.4677   -2.8553 H   0  0  0  0  0  0  0  0  0  0  0  0
    1.2201    0.1755   -2.3521 H   0  0  0  0  0  0  0  0  0  0  0  0
    3.0042    1.7255    0.4876 H   0  0  0  0  0  0  0  0  0  0  0  0
   -6.0761   -2.7333    0.1867 H   0  0  0  0  0  0  0  0  0  0  0  0
    2.7786   -0.8906   -1.1372 H   0  0  0  0  0  0  0  0  0  0  0  0
   -5.2218   -4.8988   -0.6714 H   0  0  0  0  0  0  0  0  0  0  0  0
   -1.2454   -3.5370    0.1697 H   0  0  0  0  0  0  0  0  0  0  0  0
   -2.7652   -5.3283   -0.6882 H   0  0  0  0  0  0  0  0  0  0  0  0
    5.1247    1.7202    0.2298 H   0  0  0  0  0  0  0  0  0  0  0  0
    4.5453   -2.4754   -0.6654 H   0  0  0  0  0  0  0  0  0  0  0  0
    7.4535    1.2889    0.7513 H   0  0  0  0  0  0  0  0  0  0  0  0
    6.9083   -2.8933   -0.1528 H   0  0  0  0  0  0  0  0  0  0  0  0
  1 30  1  0  0  0  0
  2 15  2  0  0  0  0
  3  9  1  0  0  0  0
  3 10  1  0  0  0  0
  3 13  1  0  0  0  0
  4 11  1  0  0  0  0
  4 12  1  0  0  0  0
  4 15  1  0  0  0  0
  5 18  1  0  0  0  0
  5 23  2  0  0  0  0
  6  8  1  0  0  0  0
  6  9  1  0  0  0  0
  6 11  1  0  0  0  0
  6 31  1  0  0  0  0
  7  8  1  0  0  0  0
  7 10  1  0  0  0  0
  7 12  1  0  0  0  0
  7 32  1  0  0  0  0
  8 33  1  0  0  0  0
  8 34  1  0  0  0  0
  9 35  1  0  0  0  0
  9 36  1  0  0  0  0
 10 37  1  0  0  0  0
 10 38  1  0  0  0  0
 11 39  1  0  0  0  0
 11 40  1  0  0  0  0
 12 14  2  0  0  0  0
 13 18  1  0  0  0  0
 13 41  1  0  0  0  0
 13 42  1  0  0  0  0
 14 17  1  0  0  0  0
 14 43  1  0  0  0  0
 15 16  1  0  0  0  0
 16 17  2  0  0  0  0
 16 19  1  0  0  0  0
 17 44  1  0  0  0  0
 18 20  2  0  0  0  0
 19 21  2  0  0  0  0
 19 45  1  0  0  0  0
 20 22  1  0  0  0  0
 20 46  1  0  0  0  0
 21 25  1  0  0  0  0
 21 47  1  0  0  0  0
 22 24  2  0  0  0  0
 22 48  1  0  0  0  0
 23 24  1  0  0  0  0
 23 49  1  0  0  0  0
 24 50  1  0  0  0  0
 25 26  2  0  0  0  0
 25 27  1  0  0  0  0
 26 28  1  0  0  0  0
 26 51  1  0  0  0  0
 27 29  2  0  0  0  0
 27 52  1  0  0  0  0
 28 30  2  0  0  0  0
 28 53  1  0  0  0  0
 29 30  1  0  0  0  0
 29 54  1  0  0  0  0
M  END
> <PUBCHEM_COMPOUND_CID>
7051752

> <PUBCHEM_CONFORMER_RMSD>
0.8

> <PUBCHEM_CONFORMER_DIVERSEORDER>
1
8
15
13
14
11
10
3
5
12
9
6
4
7
2

> <PUBCHEM_MMFF94_PARTIAL_CHARGES>
40
1 -0.18
10 0.27
11 0.3
12 -0.03
13 0.41
14 -0.15
15 0.62
16 0.01
17 -0.15
18 0.17
19 -0.15
2 -0.57
20 -0.15
21 -0.18
22 -0.15
23 0.16
24 -0.15
25 0.03
26 -0.15
27 -0.15
28 -0.15
29 -0.15
3 -0.81
30 0.18
4 -0.47
43 0.15
44 0.15
45 0.15
46 0.15
47 0.15
48 0.15
49 0.15
5 -0.62
50 0.15
51 0.15
52 0.15
53 0.15
54 0.15
7 0.14
9 0.27

> <PUBCHEM_EFFECTIVE_ROTOR_COUNT>
5

> <PUBCHEM_PHARMACOPHORE_FEATURES>
8
1 2 acceptor
1 3 cation
1 5 acceptor
6 25 26 27 28 29 30 rings
6 3 6 7 8 9 10 rings
6 4 12 14 15 16 17 rings
6 4 6 7 8 11 12 rings
6 5 18 20 22 23 24 rings

> <PUBCHEM_HEAVY_ATOM_COUNT>
30

> <PUBCHEM_ATOM_DEF_STEREO_COUNT>
2

> <PUBCHEM_ATOM_UDEF_STEREO_COUNT>
0

> <PUBCHEM_BOND_DEF_STEREO_COUNT>
1

> <PUBCHEM_BOND_UDEF_STEREO_COUNT>
0

> <PUBCHEM_ISOTOPIC_ATOM_COUNT>
0

> <PUBCHEM_COMPONENT_COUNT>
1

> <PUBCHEM_CACTVS_TAUTO_COUNT>
1

> <PUBCHEM_CONFORMER_ID>
006B99E800000001

> <PUBCHEM_MMFF94_ENERGY>
84.7797

> <PUBCHEM_FEATURE_SELFOVERLAP>
42.148

> <PUBCHEM_SHAPE_FINGERPRINT>
10462674 296 17697303381013088998
10483366 6 18337094736819744959
10939801 23 18196937889008159478
12202916 173 17989203712540194597
12633257 1 17915488140766530473
12643181 29 18335977601648585171
12712778 12 18410301306305108519
13631057 29 18335698368945580842
13782708 43 17385721366888912128
14251751 18 18335704970420805382
14344974 204 18341896333546731742
14659021 117 18262514921960712003
14844126 61 18409455791112322307
14856354 85 18343022177285878212
14866123 147 18412271653650816531
14950920 106 17774451589042352633
15021287 119 17022912237610393620
15163728 17 9078574597951830621
15183329 4 8502365625685450360
15348495 7 18343017792456564968
15361156 5 17822306664958746212
15439362 3 17254272329390722765
15803439 3 17681238137730421525
17324776 126 17767953591229740006
17627616 140 18042678416769442907
17780758 139 18412546487695405713
18608769 82 18411698795249787802
19611394 137 18202002136512724728
20771845 165 17318442099650247429
20771845 35 17628053892505896657
20775530 9 18189608526980321843
21236236 1 18334858316329163898
21360442 33 17331113310105511231
22956985 138 18052255390791213009
23516275 137 17755603550498117786
23523787 8 17683478989709750031
23559900 14 18337945792251447153
244849 19 17773576369497174472
249057 3 17895193264557111061
2838139 119 9295297127289398974
3383291 50 18412548704605730539
397830 11 18342166817975561456
4073 2 18341331094606771422
4616759 239 17988635251879748546
484985 159 18335695049205049175
5080951 261 18116409532556329342
5104073 3 18340758296409281320
5372103 7 12606305906153978131
6009941 240 18341890732528880428
6431902 208 18410290354291731302
6441014 3 18121218950587781586
6609424 69 10846229192604893167
68570916 9 18261116292606532132
8863177 126 18341330093546932704

> <PUBCHEM_SHAPE_MULTIPOLES>
598.44
18.42
4.81
1.29
47.44
4.48
0.22
11.6
-4.12
-9.91
-0.29
-0.88
-0.7
0.04

> <PUBCHEM_SHAPE_SELFOVERLAP>
1305.106

> <PUBCHEM_SHAPE_VOLUME>
323.1

> <PUBCHEM_COORDINATE_TYPE>
2
5
10

$$$$
