40780134
  -OEChem-12032416163D

 64 68  0     1  0  0  0  0  0999 V2000
   -3.5166    1.4123   -1.1748 O   0  0  0  0  0  0  0  0  0  0  0  0
   -9.0212   -1.6405    0.4798 O   0  0  0  0  0  0  0  0  0  0  0  0
    0.6002    3.3200   -0.6362 N   0  0  2  0  0  0  0  0  0  0  0  0
    4.9384    1.3992   -0.2647 N   0  0  0  0  0  0  0  0  0  0  0  0
   -1.5592    0.2462   -0.7733 N   0  0  0  0  0  0  0  0  0  0  0  0
    5.6065    0.2399   -0.3900 N   0  0  0  0  0  0  0  0  0  0  0  0
   -3.5758   -0.7356   -0.2292 N   0  0  0  0  0  0  0  0  0  0  0  0
    1.6453    2.3097    1.5249 C   0  0  2  0  0  0  0  0  0  0  0  0
    2.7170    2.4270    0.4060 C   0  0  2  0  0  0  0  0  0  0  0  0
   -0.2411    2.1987   -0.1410 C   0  0  2  0  0  0  0  0  0  0  0  0
    0.4655    1.4563    1.0136 C   0  0  0  0  0  0  0  0  0  0  0  0
    1.1018    3.7334    1.7717 C   0  0  0  0  0  0  0  0  0  0  0  0
    1.9805    2.8422   -0.8996 C   0  0  0  0  0  0  0  0  0  0  0  0
    0.6619    4.3473    0.4310 C   0  0  0  0  0  0  0  0  0  0  0  0
    3.6602    1.2525    0.1883 C   0  0  0  0  0  0  0  0  0  0  0  0
   -0.6585    1.2442   -1.2618 C   0  0  0  0  0  0  0  0  0  0  0  0
    3.4795   -0.0967    0.3717 C   0  0  0  0  0  0  0  0  0  0  0  0
    4.7102   -0.6703    0.0003 C   0  0  0  0  0  0  0  0  0  0  0  0
    5.6014    2.6362   -0.6067 C   0  0  0  0  0  0  0  0  0  0  0  0
   -2.9573    0.3991   -0.7618 C   0  0  0  0  0  0  0  0  0  0  0  0
    5.0453   -2.0704    0.0095 C   0  0  0  0  0  0  0  0  0  0  0  0
    4.0527   -3.0265   -0.2061 C   0  0  0  0  0  0  0  0  0  0  0  0
    6.3624   -2.4709    0.2347 C   0  0  0  0  0  0  0  0  0  0  0  0
   -4.9596   -0.9665   -0.0500 C   0  0  0  0  0  0  0  0  0  0  0  0
    4.3773   -4.3831   -0.1964 C   0  0  0  0  0  0  0  0  0  0  0  0
    6.6869   -3.8276    0.2443 C   0  0  0  0  0  0  0  0  0  0  0  0
    5.6943   -4.7836    0.0285 C   0  0  0  0  0  0  0  0  0  0  0  0
   -5.4010   -2.1684    0.5033 C   0  0  0  0  0  0  0  0  0  0  0  0
   -5.8832    0.0090   -0.4263 C   0  0  0  0  0  0  0  0  0  0  0  0
   -6.7659   -2.3949    0.6810 C   0  0  0  0  0  0  0  0  0  0  0  0
   -7.2481   -0.2176   -0.2488 C   0  0  0  0  0  0  0  0  0  0  0  0
   -7.6894   -1.4195    0.3048 C   0  0  0  0  0  0  0  0  0  0  0  0
   -9.9103   -0.6011    0.0735 C   0  0  0  0  0  0  0  0  0  0  0  0
    2.0650    1.8859    2.4432 H   0  0  0  0  0  0  0  0  0  0  0  0
    3.3559    3.2719    0.7042 H   0  0  0  0  0  0  0  0  0  0  0  0
   -1.1716    2.6320    0.2553 H   0  0  0  0  0  0  0  0  0  0  0  0
    0.7993    0.4649    0.7048 H   0  0  0  0  0  0  0  0  0  0  0  0
   -0.2497    1.3025    1.8319 H   0  0  0  0  0  0  0  0  0  0  0  0
    1.8709    4.3625    2.2348 H   0  0  0  0  0  0  0  0  0  0  0  0
    0.2540    3.6935    2.4663 H   0  0  0  0  0  0  0  0  0  0  0  0
    2.5440    3.6475   -1.3891 H   0  0  0  0  0  0  0  0  0  0  0  0
    1.9681    2.0271   -1.6325 H   0  0  0  0  0  0  0  0  0  0  0  0
   -0.3171    4.8287    0.5450 H   0  0  0  0  0  0  0  0  0  0  0  0
    1.3506    5.1492    0.1357 H   0  0  0  0  0  0  0  0  0  0  0  0
    0.1982    0.7126   -1.6879 H   0  0  0  0  0  0  0  0  0  0  0  0
   -1.1446    1.7993   -2.0724 H   0  0  0  0  0  0  0  0  0  0  0  0
    2.5995   -0.6018    0.7378 H   0  0  0  0  0  0  0  0  0  0  0  0
   -1.1675   -0.6180   -0.4117 H   0  0  0  0  0  0  0  0  0  0  0  0
    5.7245    3.2257    0.3049 H   0  0  0  0  0  0  0  0  0  0  0  0
    6.5819    2.4160   -1.0380 H   0  0  0  0  0  0  0  0  0  0  0  0
    4.9942    3.1705   -1.3406 H   0  0  0  0  0  0  0  0  0  0  0  0
   -2.9636   -1.4911    0.0684 H   0  0  0  0  0  0  0  0  0  0  0  0
    3.0195   -2.7458   -0.3947 H   0  0  0  0  0  0  0  0  0  0  0  0
    7.1563   -1.7500    0.4144 H   0  0  0  0  0  0  0  0  0  0  0  0
    3.6052   -5.1278   -0.3666 H   0  0  0  0  0  0  0  0  0  0  0  0
    7.7119   -4.1399    0.4215 H   0  0  0  0  0  0  0  0  0  0  0  0
    5.9470   -5.8398    0.0357 H   0  0  0  0  0  0  0  0  0  0  0  0
   -4.6919   -2.9367    0.8008 H   0  0  0  0  0  0  0  0  0  0  0  0
   -5.6184    0.9626   -0.8606 H   0  0  0  0  0  0  0  0  0  0  0  0
   -7.1039   -3.3329    1.1131 H   0  0  0  0  0  0  0  0  0  0  0  0
   -7.9117    0.5813   -0.5620 H   0  0  0  0  0  0  0  0  0  0  0  0
  -10.9280   -0.9459    0.2839 H   0  0  0  0  0  0  0  0  0  0  0  0
   -9.8510   -0.4195   -1.0050 H   0  0  0  0  0  0  0  0  0  0  0  0
   -9.7551    0.3123    0.6575 H   0  0  0  0  0  0  0  0  0  0  0  0
  1 20  2  0  0  0  0
  2 32  1  0  0  0  0
  2 33  1  0  0  0  0
  3 10  1  0  0  0  0
  3 13  1  0  0  0  0
  3 14  1  0  0  0  0
  4  6  1  0  0  0  0
  4 15  1  0  0  0  0
  4 19  1  0  0  0  0
  5 16  1  0  0  0  0
  5 20  1  0  0  0  0
  5 48  1  0  0  0  0
  6 18  2  0  0  0  0
  7 20  1  0  0  0  0
  7 24  1  0  0  0  0
  7 52  1  0  0  0  0
  8  9  1  0  0  0  0
  8 11  1  0  0  0  0
  8 12  1  0  0  0  0
  8 34  1  0  0  0  0
  9 13  1  0  0  0  0
  9 15  1  0  0  0  0
  9 35  1  0  0  0  0
 10 11  1  0  0  0  0
 10 16  1  0  0  0  0
 10 36  1  0  0  0  0
 11 37  1  0  0  0  0
 11 38  1  0  0  0  0
 12 14  1  0  0  0  0
 12 39  1  0  0  0  0
 12 40  1  0  0  0  0
 13 41  1  0  0  0  0
 13 42  1  0  0  0  0
 14 43  1  0  0  0  0
 14 44  1  0  0  0  0
 15 17  2  0  0  0  0
 16 45  1  0  0  0  0
 16 46  1  0  0  0  0
 17 18  1  0  0  0  0
 17 47  1  0  0  0  0
 18 21  1  0  0  0  0
 19 49  1  0  0  0  0
 19 50  1  0  0  0  0
 19 51  1  0  0  0  0
 21 22  2  0  0  0  0
 21 23  1  0  0  0  0
 22 25  1  0  0  0  0
 22 53  1  0  0  0  0
 23 26  2  0  0  0  0
 23 54  1  0  0  0  0
 24 28  2  0  0  0  0
 24 29  1  0  0  0  0
 25 27  2  0  0  0  0
 25 55  1  0  0  0  0
 26 27  1  0  0  0  0
 26 56  1  0  0  0  0
 27 57  1  0  0  0  0
 28 30  1  0  0  0  0
 28 58  1  0  0  0  0
 29 31  2  0  0  0  0
 29 59  1  0  0  0  0
 30 32  2  0  0  0  0
 30 60  1  0  0  0  0
 31 32  1  0  0  0  0
 31 61  1  0  0  0  0
 33 62  1  0  0  0  0
 33 63  1  0  0  0  0
 33 64  1  0  0  0  0
M  END
> <PUBCHEM_COMPOUND_CID>
40780134

> <PUBCHEM_CONFORMER_RMSD>
1

> <PUBCHEM_CONFORMER_DIVERSEORDER>
1
44
33
35
49
76
52
32
42
25
7
48
58
38
19
4
82
78
62
34
81
9
67
75
41
59
73
28
50
6
60
51
74
16
80
5
64
26
69
79
56
22
20
31
23
13
54
46
53
21
15
3
2
57
12
10
29
68
39
18
65
8
70
55
43
36
77
24
63
27
71
14
61
11
37
66
45
17
72
30
40
47

> <PUBCHEM_MMFF94_PARTIAL_CHARGES>
42
1 -0.57
10 0.27
13 0.27
14 0.27
15 -0.33
16 0.3
17 -0.15
18 0.23
19 0.26
2 -0.36
20 0.69
21 0.05
22 -0.15
23 -0.15
24 0.12
25 -0.15
26 -0.15
27 -0.15
28 -0.15
29 -0.15
3 -0.81
30 -0.15
31 -0.15
32 0.08
33 0.28
4 0.31
47 0.15
48 0.37
5 -0.73
52 0.37
53 0.15
54 0.15
55 0.15
56 0.15
57 0.15
58 0.15
59 0.15
6 -0.71
60 0.15
61 0.15
7 -0.55
9 0.18

> <PUBCHEM_EFFECTIVE_ROTOR_COUNT>
9.2

> <PUBCHEM_PHARMACOPHORE_FEATURES>
10
1 1 acceptor
1 2 acceptor
1 3 cation
1 5 donor
1 6 acceptor
1 7 donor
5 4 6 15 17 18 rings
6 21 22 23 25 26 27 rings
6 24 28 29 30 31 32 rings
8 3 8 9 10 11 12 13 14 rings

> <PUBCHEM_HEAVY_ATOM_COUNT>
33

> <PUBCHEM_ATOM_DEF_STEREO_COUNT>
3

> <PUBCHEM_ATOM_UDEF_STEREO_COUNT>
0

> <PUBCHEM_BOND_DEF_STEREO_COUNT>
0

> <PUBCHEM_BOND_UDEF_STEREO_COUNT>
0

> <PUBCHEM_ISOTOPIC_ATOM_COUNT>
0

> <PUBCHEM_COMPONENT_COUNT>
1

> <PUBCHEM_CACTVS_TAUTO_COUNT>
3

> <PUBCHEM_CONFORMER_ID>
026E416600000001

> <PUBCHEM_MMFF94_ENERGY>
96.4646

> <PUBCHEM_FEATURE_SELFOVERLAP>
50.796

> <PUBCHEM_SHAPE_FINGERPRINT>
10319688 140 18336548321715134732
10533779 47 18335713763084427147
11409948 35 18410290299369474111
11409948 8 18341035352366486874
117089 54 18339084774433423094
11720765 8 18342454880509269768
11761917 87 18261406546544005555
11828532 37 18041290936364347619
12342043 65 18261386759165312357
13533116 47 18340768260232644129
13560911 43 18262513681522667994
13782708 43 18187357723392898359
13911852 28 18412259515091809149
13989917 61 18409168831088750194
14114211 68 18262531411337193548
14251764 30 18409446947204908114
14556957 393 13190607327161303047
14747282 305 18264780874699167265
15019793 15 18195805386946435471
15475509 35 18343578573145527264
15510800 12 18336253553645701322
16728300 4 18201155447649628509
17492 89 18267019454465948958
19301679 30 18342177722006001500
19303781 99 18192412110054375142
19319366 153 18197774604546342308
19841028 212 18408322164174659994
20165401 70 18341047506301189639
20715895 44 9079121059525633996
20775530 9 18269256990524744638
21130935 74 18267305529664292467
21362267 20 17256241542069324386
21585482 57 9294995839934377483
21716022 299 18261406537558575068
24893989 43 17413593088303769862
345986 75 17632295657778510712
439807 62 18335422348239869031
4435113 14 17896047700934664643
4561138 5 18059861731250152033
46194498 28 17749384931537559772
57634706 306 10231752271661959229
58260988 647 18335706022513810985
6700243 42 17385990733403217916
70251023 43 18337670815987049608
7970288 3 18411697647839703762
9555976 147 17416979322382121321
9831232 110 18262801890775463959

> <PUBCHEM_SHAPE_MULTIPOLES>
642.48
24.55
6.15
1.04
54.28
1.69
0.15
28.54
1.06
-12.69
0.94
0.05
-0.79
0.82

> <PUBCHEM_SHAPE_SELFOVERLAP>
1392.271

> <PUBCHEM_SHAPE_VOLUME>
348.3

> <PUBCHEM_COORDINATE_TYPE>
2
5
10

$$$$
