45783937
  -OEChem-12032416353D

 74 78  0     1  0  0  0  0  0999 V2000
    3.8377   -0.0886    0.7047 O   0  0  0  0  0  0  0  0  0  0  0  0
   -2.4239   -1.0115    0.6796 N   0  0  0  0  0  0  0  0  0  0  0  0
   -4.7339    0.6304    0.3227 N   0  0  0  0  0  0  0  0  0  0  0  0
    4.9124   -1.5680   -0.5840 N   0  0  0  0  0  0  0  0  0  0  0  0
    5.3448   -0.3026   -0.9344 N   0  0  0  0  0  0  0  0  0  0  0  0
   -6.3058    1.5129   -1.2246 N   0  0  0  0  0  0  0  0  0  0  0  0
   -7.4119    3.0335    0.8564 N   0  0  0  0  0  0  0  0  0  0  0  0
   -0.1425   -2.1740   -0.7478 C   0  0  1  0  0  0  0  0  0  0  0  0
   -0.9421   -2.9476    0.3263 C   0  0  2  0  0  0  0  0  0  0  0  0
    1.2322   -1.7625   -0.2026 C   0  0  0  0  0  0  0  0  0  0  0  0
    2.0719   -2.9554    0.3026 C   0  0  2  0  0  0  0  0  0  0  0  0
   -0.0051   -2.9913   -2.0396 C   0  0  0  0  0  0  0  0  0  0  0  0
   -1.5797   -2.0008    1.3484 C   0  0  0  0  0  0  0  0  0  0  0  0
   -0.1011   -3.9667    1.0521 C   0  0  0  0  0  0  0  0  0  0  0  0
    1.2443   -3.9945    1.0439 C   0  0  0  0  0  0  0  0  0  0  0  0
    3.2378   -2.4139    1.1393 C   0  0  0  0  0  0  0  0  0  0  0  0
   -1.3785   -3.4203   -2.5463 C   0  0  0  0  0  0  0  0  0  0  0  0
    0.7364   -2.1864   -3.1020 C   0  0  0  0  0  0  0  0  0  0  0  0
   -2.6582    0.1424    1.5561 C   0  0  0  0  0  0  0  0  0  0  0  0
   -3.7062   -1.6095    0.2877 C   0  0  0  0  0  0  0  0  0  0  0  0
    1.9835   -5.1090    1.7323 C   0  0  0  0  0  0  0  0  0  0  0  0
   -3.4942    1.2112    0.8475 C   0  0  0  0  0  0  0  0  0  0  0  0
   -4.5762   -0.5993   -0.4639 C   0  0  0  0  0  0  0  0  0  0  0  0
    4.0341   -1.3946    0.3759 C   0  0  0  0  0  0  0  0  0  0  0  0
   -5.8211    1.4619    0.0319 C   0  0  0  0  0  0  0  0  0  0  0  0
    4.6912    0.5289   -0.1571 C   0  0  0  0  0  0  0  0  0  0  0  0
   -6.3644    2.2088    1.0541 C   0  0  0  0  0  0  0  0  0  0  0  0
    4.7374    1.9600   -0.0771 C   0  0  0  0  0  0  0  0  0  0  0  0
   -7.3534    2.3377   -1.4224 C   0  0  0  0  0  0  0  0  0  0  0  0
   -7.8966    3.0845   -0.4003 C   0  0  0  0  0  0  0  0  0  0  0  0
    5.5839    2.6786   -0.9212 C   0  0  0  0  0  0  0  0  0  0  0  0
    3.9355    2.6335    0.8445 C   0  0  0  0  0  0  0  0  0  0  0  0
    5.6288    4.0706   -0.8438 C   0  0  0  0  0  0  0  0  0  0  0  0
    3.9804    4.0254    0.9220 C   0  0  0  0  0  0  0  0  0  0  0  0
    4.8270    4.7439    0.0779 C   0  0  0  0  0  0  0  0  0  0  0  0
    4.8754    6.2323    0.1608 C   0  0  0  0  0  0  0  0  0  0  0  0
   -0.6698   -1.2504   -1.0179 H   0  0  0  0  0  0  0  0  0  0  0  0
   -1.7553   -3.5191   -0.1213 H   0  0  0  0  0  0  0  0  0  0  0  0
    1.0657   -1.0636    0.6293 H   0  0  0  0  0  0  0  0  0  0  0  0
    1.7822   -1.1781   -0.9464 H   0  0  0  0  0  0  0  0  0  0  0  0
    2.4961   -3.4604   -0.5770 H   0  0  0  0  0  0  0  0  0  0  0  0
    0.5698   -3.9086   -1.8649 H   0  0  0  0  0  0  0  0  0  0  0  0
   -0.7773   -1.4933    1.9008 H   0  0  0  0  0  0  0  0  0  0  0  0
   -2.1480   -2.5619    2.1037 H   0  0  0  0  0  0  0  0  0  0  0  0
   -0.6474   -4.7333    1.5977 H   0  0  0  0  0  0  0  0  0  0  0  0
    2.8719   -1.9707    2.0742 H   0  0  0  0  0  0  0  0  0  0  0  0
    3.9237   -3.2225    1.4180 H   0  0  0  0  0  0  0  0  0  0  0  0
   -1.3146   -3.7643   -3.5855 H   0  0  0  0  0  0  0  0  0  0  0  0
   -1.7856   -4.2664   -1.9855 H   0  0  0  0  0  0  0  0  0  0  0  0
   -2.0984   -2.5953   -2.5228 H   0  0  0  0  0  0  0  0  0  0  0  0
    0.2968   -1.1924   -3.2372 H   0  0  0  0  0  0  0  0  0  0  0  0
    0.6978   -2.6975   -4.0708 H   0  0  0  0  0  0  0  0  0  0  0  0
    1.7978   -2.0701   -2.8644 H   0  0  0  0  0  0  0  0  0  0  0  0
   -1.7027    0.5980    1.8436 H   0  0  0  0  0  0  0  0  0  0  0  0
   -3.1642   -0.1691    2.4800 H   0  0  0  0  0  0  0  0  0  0  0  0
   -4.2510   -1.9707    1.1707 H   0  0  0  0  0  0  0  0  0  0  0  0
   -3.5646   -2.4671   -0.3769 H   0  0  0  0  0  0  0  0  0  0  0  0
    2.6977   -5.5729    1.0441 H   0  0  0  0  0  0  0  0  0  0  0  0
    1.3085   -5.8981    2.0813 H   0  0  0  0  0  0  0  0  0  0  0  0
    2.5266   -4.7329    2.6047 H   0  0  0  0  0  0  0  0  0  0  0  0
   -2.9230    1.6495    0.0190 H   0  0  0  0  0  0  0  0  0  0  0  0
   -3.6962    2.0174    1.5620 H   0  0  0  0  0  0  0  0  0  0  0  0
   -5.5528   -1.0619   -0.6544 H   0  0  0  0  0  0  0  0  0  0  0  0
   -4.1245   -0.3600   -1.4353 H   0  0  0  0  0  0  0  0  0  0  0  0
   -5.9975    2.1708    2.0734 H   0  0  0  0  0  0  0  0  0  0  0  0
   -7.7433    2.3791   -2.4318 H   0  0  0  0  0  0  0  0  0  0  0  0
   -8.7383    3.7470   -0.5600 H   0  0  0  0  0  0  0  0  0  0  0  0
    6.2172    2.1747   -1.6474 H   0  0  0  0  0  0  0  0  0  0  0  0
    3.2628    2.1087    1.5181 H   0  0  0  0  0  0  0  0  0  0  0  0
    6.2911    4.6196   -1.5080 H   0  0  0  0  0  0  0  0  0  0  0  0
    3.3497    4.5392    1.6428 H   0  0  0  0  0  0  0  0  0  0  0  0
    4.1405    6.6705   -0.5216 H   0  0  0  0  0  0  0  0  0  0  0  0
    4.6608    6.5788    1.1774 H   0  0  0  0  0  0  0  0  0  0  0  0
    5.8690    6.6105   -0.1031 H   0  0  0  0  0  0  0  0  0  0  0  0
  1 24  1  0  0  0  0
  1 26  1  0  0  0  0
  2 13  1  0  0  0  0
  2 19  1  0  0  0  0
  2 20  1  0  0  0  0
  3 22  1  0  0  0  0
  3 23  1  0  0  0  0
  3 25  1  0  0  0  0
  4  5  1  0  0  0  0
  4 24  2  0  0  0  0
  5 26  2  0  0  0  0
  6 25  2  0  0  0  0
  6 29  1  0  0  0  0
  7 27  2  0  0  0  0
  7 30  1  0  0  0  0
  8  9  1  0  0  0  0
  8 10  1  0  0  0  0
  8 12  1  0  0  0  0
  8 37  1  0  0  0  0
  9 13  1  0  0  0  0
  9 14  1  0  0  0  0
  9 38  1  0  0  0  0
 10 11  1  0  0  0  0
 10 39  1  0  0  0  0
 10 40  1  0  0  0  0
 11 15  1  0  0  0  0
 11 16  1  0  0  0  0
 11 41  1  0  0  0  0
 12 17  1  0  0  0  0
 12 18  1  0  0  0  0
 12 42  1  0  0  0  0
 13 43  1  0  0  0  0
 13 44  1  0  0  0  0
 14 15  2  0  0  0  0
 14 45  1  0  0  0  0
 15 21  1  0  0  0  0
 16 24  1  0  0  0  0
 16 46  1  0  0  0  0
 16 47  1  0  0  0  0
 17 48  1  0  0  0  0
 17 49  1  0  0  0  0
 17 50  1  0  0  0  0
 18 51  1  0  0  0  0
 18 52  1  0  0  0  0
 18 53  1  0  0  0  0
 19 22  1  0  0  0  0
 19 54  1  0  0  0  0
 19 55  1  0  0  0  0
 20 23  1  0  0  0  0
 20 56  1  0  0  0  0
 20 57  1  0  0  0  0
 21 58  1  0  0  0  0
 21 59  1  0  0  0  0
 21 60  1  0  0  0  0
 22 61  1  0  0  0  0
 22 62  1  0  0  0  0
 23 63  1  0  0  0  0
 23 64  1  0  0  0  0
 25 27  1  0  0  0  0
 26 28  1  0  0  0  0
 27 65  1  0  0  0  0
 28 31  2  0  0  0  0
 28 32  1  0  0  0  0
 29 30  2  0  0  0  0
 29 66  1  0  0  0  0
 30 67  1  0  0  0  0
 31 33  1  0  0  0  0
 31 68  1  0  0  0  0
 32 34  2  0  0  0  0
 32 69  1  0  0  0  0
 33 35  2  0  0  0  0
 33 70  1  0  0  0  0
 34 35  1  0  0  0  0
 34 71  1  0  0  0  0
 35 36  1  0  0  0  0
 36 72  1  0  0  0  0
 36 73  1  0  0  0  0
 36 74  1  0  0  0  0
M  END
> <PUBCHEM_COMPOUND_CID>
45783937

> <PUBCHEM_CONFORMER_RMSD>
1.2

> <PUBCHEM_CONFORMER_DIVERSEORDER>
9
77
152
103
111
40
11
145
139
109
84
146
49
48
70
119
102
151
133
16
87
15
147
135
106
123
41
75
60
148
30
76
122
92
19
132
62
53
74
93
115
8
149
124
116
47
150
105
33
97
4
134
82
14
138
65
85
68
54
141
120
91
37
125
126
31
112
140
13
79
29
28
52
113
88
23
27
73
104
71
78
32
108
46
114
99
83
34
22
100
131
20
21
61
42
143
101
44
36
129
142
12
118
57
43
64
128
45
67
117
7
90
51
56
137
55
136
98
95
39
25
2
6
5
63
86
17
127
24
110
10
144
72
81
66
69
121
80
38
96
26
18
89
3
59
130
35
94
50
107
1
58

> <PUBCHEM_MMFF94_PARTIAL_CHARGES>
39
1 -0.28
11 0.14
13 0.27
14 -0.29
15 -0.28
16 0.18
19 0.27
2 -0.81
20 0.27
21 0.14
22 0.37
23 0.37
24 0.3
25 0.41
26 0.43
27 0.16
28 0.05
29 0.16
3 -0.84
30 0.16
31 -0.15
32 -0.15
33 -0.15
34 -0.15
35 -0.14
36 0.14
4 -0.34
45 0.15
5 -0.34
6 -0.62
65 0.15
66 0.15
67 0.15
68 0.15
69 0.15
7 -0.62
70 0.15
71 0.15
9 0.14

> <PUBCHEM_EFFECTIVE_ROTOR_COUNT>
9

> <PUBCHEM_PHARMACOPHORE_FEATURES>
9
1 2 cation
1 7 acceptor
3 12 17 18 hydrophobe
3 3 6 25 cation
5 1 4 5 24 26 rings
6 2 3 19 20 22 23 rings
6 28 31 32 33 34 35 rings
6 6 7 25 27 29 30 rings
6 8 9 10 11 14 15 rings

> <PUBCHEM_HEAVY_ATOM_COUNT>
36

> <PUBCHEM_ATOM_DEF_STEREO_COUNT>
3

> <PUBCHEM_ATOM_UDEF_STEREO_COUNT>
0

> <PUBCHEM_BOND_DEF_STEREO_COUNT>
0

> <PUBCHEM_BOND_UDEF_STEREO_COUNT>
0

> <PUBCHEM_ISOTOPIC_ATOM_COUNT>
0

> <PUBCHEM_COMPONENT_COUNT>
1

> <PUBCHEM_CACTVS_TAUTO_COUNT>
1

> <PUBCHEM_CONFORMER_ID>
02BA9B8100000009

> <PUBCHEM_MMFF94_ENERGY>
93.5786

> <PUBCHEM_FEATURE_SELFOVERLAP>
45.673

> <PUBCHEM_SHAPE_FINGERPRINT>
10675989 125 18410292489075055056
10864689 126 18337680823272132476
10928967 22 9652534026153828220
11374522 174 18115323270307264516
11386260 185 18198061370094443614
11479125 193 18190717839554844605
11505856 67 18124590048837658191
12925494 130 18334297591163176753
13944108 23 18339364037623035960
15082195 135 17702944725976530003
15198563 99 17694783325731103639
15400415 2 18264209286702025560
15530120 55 17703215330063669237
15705408 1 16839410167457643463
16096371 109 18116152177836346067
19053607 189 18268982267020917680
21223535 225 18053106417993362580
21716022 299 14475286483604311030
22122407 14 18337117778116404115
23522609 53 17844816876694905769
23569914 152 17985574203514418404
27425 322 18411136905521130735
3472631 163 18340487743171063183
354706 132 17901680577019826684
376196 1 18410015467974421698
4760202 170 17975118856697837349
5109719 28 18338812160517095905
57527585 21 17765420338419594838
58902169 19 17988070081075001703
5951187 136 18270127816012287798
7288768 16 17752761609493493594
7970288 3 9655308020390629120

> <PUBCHEM_SHAPE_MULTIPOLES>
705.11
18.65
8.49
1.85
24.74
4.42
1.24
33.95
1.73
-9.6
-1.09
0.6
-1.91
-0.76

> <PUBCHEM_SHAPE_SELFOVERLAP>
1504.268

> <PUBCHEM_SHAPE_VOLUME>
390.4

> <PUBCHEM_COORDINATE_TYPE>
2
5
10

$$$$
