75536679
  -OEChem-12032416403D

 50 52  0     1  0  0  0  0  0999 V2000
    4.5106    1.6152   -0.0486 S   0  0  0  0  0  0  0  0  0  0  0  0
   -8.0925    0.2667   -0.5769 F   0  0  0  0  0  0  0  0  0  0  0  0
   -7.1930   -0.8068    1.0866 F   0  0  0  0  0  0  0  0  0  0  0  0
    0.2120    0.7715   -1.3443 O   0  0  0  0  0  0  0  0  0  0  0  0
   -0.5269    0.4862    2.1597 O   0  0  0  0  0  0  0  0  0  0  0  0
    4.4737    2.1192    1.3110 O   0  0  0  0  0  0  0  0  0  0  0  0
    5.2207    2.3482   -1.0791 O   0  0  0  0  0  0  0  0  0  0  0  0
   -2.6841   -0.7552    0.2409 N   0  0  0  0  0  0  0  0  0  0  0  0
    2.9234    1.3108   -0.5799 N   0  0  0  0  0  0  0  0  0  0  0  0
   -1.6685    0.2599    0.0136 C   0  0  1  0  0  0  0  0  0  0  0  0
   -3.9786   -0.3185   -0.2792 C   0  0  0  0  0  0  0  0  0  0  0  0
   -0.4019    0.0458    0.8214 C   0  0  1  0  0  0  0  0  0  0  0  0
    0.5929    0.8903    0.0366 C   0  0  1  0  0  0  0  0  0  0  0  0
   -4.8634   -1.5385   -0.5632 C   0  0  0  0  0  0  0  0  0  0  0  0
   -4.6476    0.6321    0.7212 C   0  0  0  0  0  0  0  0  0  0  0  0
   -1.1256    0.2463   -1.4060 C   0  0  0  0  0  0  0  0  0  0  0  0
   -6.2518   -1.1180   -1.0417 C   0  0  0  0  0  0  0  0  0  0  0  0
   -6.0359    1.0537    0.2432 C   0  0  0  0  0  0  0  0  0  0  0  0
   -6.9067   -0.1518   -0.0687 C   0  0  0  0  0  0  0  0  0  0  0  0
    2.0324    0.4408    0.2126 C   0  0  0  0  0  0  0  0  0  0  0  0
    5.1969   -0.0133   -0.0075 C   0  0  0  0  0  0  0  0  0  0  0  0
    5.8278   -0.5327   -1.1379 C   0  0  0  0  0  0  0  0  0  0  0  0
    5.1042   -0.7802    1.1538 C   0  0  0  0  0  0  0  0  0  0  0  0
    6.3661   -1.8192   -1.1070 C   0  0  0  0  0  0  0  0  0  0  0  0
    5.6424   -2.0666    1.1849 C   0  0  0  0  0  0  0  0  0  0  0  0
    6.2734   -2.5862    0.0545 C   0  0  0  0  0  0  0  0  0  0  0  0
   -2.0422    1.2627    0.2549 H   0  0  0  0  0  0  0  0  0  0  0  0
   -3.8513    0.2061   -1.2355 H   0  0  0  0  0  0  0  0  0  0  0  0
   -0.1085   -1.0114    0.8230 H   0  0  0  0  0  0  0  0  0  0  0  0
    0.5069    1.9504    0.3099 H   0  0  0  0  0  0  0  0  0  0  0  0
   -2.7606   -0.9601    1.2367 H   0  0  0  0  0  0  0  0  0  0  0  0
   -4.9665   -2.1495    0.3434 H   0  0  0  0  0  0  0  0  0  0  0  0
   -4.3964   -2.1761   -1.3240 H   0  0  0  0  0  0  0  0  0  0  0  0
   -4.0535    1.5381    0.8805 H   0  0  0  0  0  0  0  0  0  0  0  0
   -4.7445    0.1436    1.7001 H   0  0  0  0  0  0  0  0  0  0  0  0
   -1.0550   -0.7682   -1.8151 H   0  0  0  0  0  0  0  0  0  0  0  0
   -1.7195    0.8549   -2.0945 H   0  0  0  0  0  0  0  0  0  0  0  0
   -6.1819   -0.6525   -2.0322 H   0  0  0  0  0  0  0  0  0  0  0  0
   -6.8820   -2.0073   -1.1558 H   0  0  0  0  0  0  0  0  0  0  0  0
   -5.9491    1.6865   -0.6483 H   0  0  0  0  0  0  0  0  0  0  0  0
   -6.5175    1.6631    1.0163 H   0  0  0  0  0  0  0  0  0  0  0  0
    2.1573   -0.5845   -0.1529 H   0  0  0  0  0  0  0  0  0  0  0  0
    2.3003    0.4787    1.2727 H   0  0  0  0  0  0  0  0  0  0  0  0
   -0.7894    1.4222    2.1506 H   0  0  0  0  0  0  0  0  0  0  0  0
    2.7298    1.3471   -1.5886 H   0  0  0  0  0  0  0  0  0  0  0  0
    5.9044    0.0437   -2.0554 H   0  0  0  0  0  0  0  0  0  0  0  0
    4.6148   -0.3970    2.0446 H   0  0  0  0  0  0  0  0  0  0  0  0
    6.8556   -2.2247   -1.9876 H   0  0  0  0  0  0  0  0  0  0  0  0
    5.5694   -2.6643    2.0888 H   0  0  0  0  0  0  0  0  0  0  0  0
    6.6918   -3.5882    0.0785 H   0  0  0  0  0  0  0  0  0  0  0  0
  1  6  2  0  0  0  0
  1  7  2  0  0  0  0
  1  9  1  0  0  0  0
  1 21  1  0  0  0  0
  2 19  1  0  0  0  0
  3 19  1  0  0  0  0
  4 13  1  0  0  0  0
  4 16  1  0  0  0  0
  5 12  1  0  0  0  0
  5 44  1  0  0  0  0
  8 10  1  0  0  0  0
  8 11  1  0  0  0  0
  8 31  1  0  0  0  0
  9 20  1  0  0  0  0
  9 45  1  0  0  0  0
 10 12  1  0  0  0  0
 10 16  1  0  0  0  0
 10 27  1  0  0  0  0
 11 14  1  0  0  0  0
 11 15  1  0  0  0  0
 11 28  1  0  0  0  0
 12 13  1  0  0  0  0
 12 29  1  0  0  0  0
 13 20  1  0  0  0  0
 13 30  1  0  0  0  0
 14 17  1  0  0  0  0
 14 32  1  0  0  0  0
 14 33  1  0  0  0  0
 15 18  1  0  0  0  0
 15 34  1  0  0  0  0
 15 35  1  0  0  0  0
 16 36  1  0  0  0  0
 16 37  1  0  0  0  0
 17 19  1  0  0  0  0
 17 38  1  0  0  0  0
 17 39  1  0  0  0  0
 18 19  1  0  0  0  0
 18 40  1  0  0  0  0
 18 41  1  0  0  0  0
 20 42  1  0  0  0  0
 20 43  1  0  0  0  0
 21 22  2  0  0  0  0
 21 23  1  0  0  0  0
 22 24  1  0  0  0  0
 22 46  1  0  0  0  0
 23 25  2  0  0  0  0
 23 47  1  0  0  0  0
 24 26  2  0  0  0  0
 24 48  1  0  0  0  0
 25 26  1  0  0  0  0
 25 49  1  0  0  0  0
 26 50  1  0  0  0  0
M  END
> <PUBCHEM_COMPOUND_CID>
75536679

> <PUBCHEM_CONFORMER_RMSD>
1

> <PUBCHEM_CONFORMER_DIVERSEORDER>
1
87
51
97
2
140
56
106
116
30
9
74
70
45
99
59
117
120
136
34
119
52
85
15
73
96
143
138
113
6
108
139
16
131
133
54
75
109
111
150
110
89
105
146
145
115
149
63
141
84
77
61
132
17
35
129
148
114
125
5
8
118
137
128
123
83
101
31
13
88
72
21
152
53
42
92
71
144
7
93
100
23
68
48
36
121
46
40
39
19
82
104
41
142
76
24
103
50
29
12
60
28
44
107
124
147
112
27
81
79
3
135
55
126
98
134
151
86
4
66
38
91
122
102
18
20
69
49
130
62
11
64
47
37
58
95
10
57
25
43
22
26
33
78
94
67
90
32
14
80
65
127

> <PUBCHEM_MMFF94_PARTIAL_CHARGES>
30
1 1.45
10 0.27
11 0.27
12 0.28
13 0.28
16 0.28
19 0.68
2 -0.34
20 0.36
21 -0.01
22 -0.15
23 -0.15
24 -0.15
25 -0.15
26 -0.15
3 -0.34
31 0.36
4 -0.56
44 0.4
45 0.42
46 0.15
47 0.15
48 0.15
49 0.15
5 -0.68
50 0.15
6 -0.65
7 -0.65
8 -0.9
9 -0.91

> <PUBCHEM_EFFECTIVE_ROTOR_COUNT>
8.2

> <PUBCHEM_PHARMACOPHORE_FEATURES>
11
1 4 acceptor
1 5 acceptor
1 5 donor
1 6 acceptor
1 7 acceptor
1 8 cation
1 8 donor
1 9 donor
5 4 10 12 13 16 rings
6 11 14 15 17 18 19 rings
6 21 22 23 24 25 26 rings

> <PUBCHEM_HEAVY_ATOM_COUNT>
26

> <PUBCHEM_ATOM_DEF_STEREO_COUNT>
3

> <PUBCHEM_ATOM_UDEF_STEREO_COUNT>
0

> <PUBCHEM_BOND_DEF_STEREO_COUNT>
0

> <PUBCHEM_BOND_UDEF_STEREO_COUNT>
0

> <PUBCHEM_ISOTOPIC_ATOM_COUNT>
0

> <PUBCHEM_COMPONENT_COUNT>
1

> <PUBCHEM_CACTVS_TAUTO_COUNT>
1

> <PUBCHEM_CONFORMER_ID>
0480992700000001

> <PUBCHEM_MMFF94_ENERGY>
36.5957

> <PUBCHEM_FEATURE_SELFOVERLAP>
55.84

> <PUBCHEM_SHAPE_FINGERPRINT>
10 15 15195277642837496282
10299344 5 18410576175595620526
11719270 70 17418095403424285655
12166972 35 18410577292366816984
12236239 1 18334011718467190625
12516196 113 10952051156469681715
12539765 74 11675146039718735929
13533116 47 18413107273533734848
13782708 43 18413384354347555519
13914758 101 18341333301866650705
14251752 14 18272650130494270513
14347332 77 18188766141895644732
14347424 109 18130782369981922416
15119646 104 18272373048673414142
15183329 4 18408887325877631891
15188451 53 17775283821008885906
15419008 42 17557144999871318581
15475509 8 17458345217124124629
20281389 69 18343864433442303937
20567600 234 12175615192144472098
21150785 3 14057006013678600230
21344244 78 17632568328768408816
21641784 216 14851877020072745614
21792934 111 15051741841491444267
221357 26 17822291258858385716
2215653 11 17676210160886975506
23081809 10 18272934955266072661
23522609 53 18192461643242397316
23536379 177 18412545422770259233
23559900 14 18200586038392532553
23569943 247 17751353993411433227
24771293 8 12966832547000438082
29717793 49 18410294718299646628
3004659 81 18343023289924675534
3014965 18 18408884027427008278
328311 84 18114186337103418715
3472631 163 12180140769699991730
34797466 226 7997975695117308576
394071 54 17096091410839917148
397830 11 12678884796755190487
4072396 5 16702303455649436268
4073 2 18189618431032085250
4340502 62 13973965389865146252
445580 37 15502650461031934015
5085150 59 16988839506158730663
5372103 7 14997437066346176294
59682541 52 17894911802601906090
59755656 215 17023180500729839163
6081469 158 18343293770281403245
6438161 24 18186795847640555634
6441014 3 16477996237590984558
9965369 4 18343021077958450353

> <PUBCHEM_SHAPE_MULTIPOLES>
490.93
23.11
2.03
1.34
18.63
0.18
0.18
8.11
-1.2
-4.24
-0.03
-0.75
-0.02
-0.77

> <PUBCHEM_SHAPE_SELFOVERLAP>
1013.461

> <PUBCHEM_SHAPE_VOLUME>
283.6

> <PUBCHEM_COORDINATE_TYPE>
2
5
10

$$$$
