45360480
  -OEChem-12032416183D

 78 82  0     1  0  0  0  0  0999 V2000
   -7.3643    1.6183   -0.6945 O   0  0  0  0  0  0  0  0  0  0  0  0
    0.5295   -3.9830    0.9175 N   0  0  2  0  0  0  0  0  0  0  0  0
   -2.6668   -2.3207   -0.2208 N   0  0  0  0  0  0  0  0  0  0  0  0
    1.5243   -0.1238   -0.1273 N   0  0  0  0  0  0  0  0  0  0  0  0
   -5.5632    0.6856    0.4385 N   0  0  0  0  0  0  0  0  0  0  0  0
    3.0403    1.7462   -0.0151 N   0  0  0  0  0  0  0  0  0  0  0  0
   -1.4463    3.8612   -0.5018 N   0  0  0  0  0  0  0  0  0  0  0  0
    1.6218   -3.0587   -1.2586 C   0  0  2  0  0  0  0  0  0  0  0  0
   -0.5238   -3.5033   -0.0158 C   0  0  2  0  0  0  0  0  0  0  0  0
    2.2996   -2.4399   -0.0048 C   0  0  2  0  0  0  0  0  0  0  0  0
    0.1072   -2.7658   -1.2165 C   0  0  0  0  0  0  0  0  0  0  0  0
    1.7913   -4.5890   -1.1468 C   0  0  0  0  0  0  0  0  0  0  0  0
    1.4688   -2.8784    1.2350 C   0  0  0  0  0  0  0  0  0  0  0  0
    1.2905   -5.0548    0.2315 C   0  0  0  0  0  0  0  0  0  0  0  0
   -1.5801   -2.6484    0.6875 C   0  0  0  0  0  0  0  0  0  0  0  0
    2.5877   -0.9455   -0.0075 C   0  0  0  0  0  0  0  0  0  0  0  0
   -3.6884   -1.5205    0.4503 C   0  0  0  0  0  0  0  0  0  0  0  0
    3.8893   -0.5025    0.1113 C   0  0  0  0  0  0  0  0  0  0  0  0
   -5.0080   -1.5905   -0.3288 C   0  0  0  0  0  0  0  0  0  0  0  0
   -3.2178   -0.0658    0.5782 C   0  0  0  0  0  0  0  0  0  0  0  0
   -6.0631   -0.6842    0.3030 C   0  0  0  0  0  0  0  0  0  0  0  0
   -4.3092    0.8113    1.1918 C   0  0  0  0  0  0  0  0  0  0  0  0
    4.0572    0.8672    0.1012 C   0  0  0  0  0  0  0  0  0  0  0  0
    1.8184    1.1904   -0.1237 C   0  0  0  0  0  0  0  0  0  0  0  0
    5.4294    1.4396    0.2249 C   0  0  0  0  0  0  0  0  0  0  0  0
    5.8579    2.2708   -1.0200 C   0  0  0  0  0  0  0  0  0  0  0  0
    5.6114    2.3196    1.4964 C   0  0  0  0  0  0  0  0  0  0  0  0
   -6.2932    1.7467   -0.0958 C   0  0  0  0  0  0  0  0  0  0  0  0
    0.7085    2.0979   -0.2526 C   0  0  0  0  0  0  0  0  0  0  0  0
    5.8768    1.4479   -2.3028 C   0  0  0  0  0  0  0  0  0  0  0  0
    5.3776    1.5466    2.7893 C   0  0  0  0  0  0  0  0  0  0  0  0
   -5.7103    3.1258    0.0829 C   0  0  0  0  0  0  0  0  0  0  0  0
   -0.4253    1.7188   -0.9628 C   0  0  0  0  0  0  0  0  0  0  0  0
    0.7660    3.3577    0.3333 C   0  0  0  0  0  0  0  0  0  0  0  0
   -1.4659    2.6287   -1.0572 C   0  0  0  0  0  0  0  0  0  0  0  0
   -0.3280    4.1944    0.1809 C   0  0  0  0  0  0  0  0  0  0  0  0
    2.0677   -2.6805   -2.1845 H   0  0  0  0  0  0  0  0  0  0  0  0
   -1.0503   -4.3919   -0.3960 H   0  0  0  0  0  0  0  0  0  0  0  0
    3.2774   -2.9382    0.0832 H   0  0  0  0  0  0  0  0  0  0  0  0
   -0.3549   -3.1306   -2.1429 H   0  0  0  0  0  0  0  0  0  0  0  0
   -0.0776   -1.6894   -1.1843 H   0  0  0  0  0  0  0  0  0  0  0  0
    1.2248   -5.0861   -1.9437 H   0  0  0  0  0  0  0  0  0  0  0  0
    2.8436   -4.8683   -1.2745 H   0  0  0  0  0  0  0  0  0  0  0  0
    0.9302   -2.0392    1.6887 H   0  0  0  0  0  0  0  0  0  0  0  0
    2.1579   -3.2152    2.0216 H   0  0  0  0  0  0  0  0  0  0  0  0
    2.1357   -5.3692    0.8570 H   0  0  0  0  0  0  0  0  0  0  0  0
    0.6623   -5.9469    0.1177 H   0  0  0  0  0  0  0  0  0  0  0  0
   -1.1154   -1.7362    1.0718 H   0  0  0  0  0  0  0  0  0  0  0  0
   -1.9689   -3.2064    1.5492 H   0  0  0  0  0  0  0  0  0  0  0  0
   -3.0811   -3.1861   -0.5669 H   0  0  0  0  0  0  0  0  0  0  0  0
   -3.8848   -1.9263    1.4525 H   0  0  0  0  0  0  0  0  0  0  0  0
    4.7248   -1.1850    0.2067 H   0  0  0  0  0  0  0  0  0  0  0  0
   -4.8445   -1.2776   -1.3688 H   0  0  0  0  0  0  0  0  0  0  0  0
   -5.3832   -2.6206   -0.3565 H   0  0  0  0  0  0  0  0  0  0  0  0
   -2.3174    0.0219    1.1940 H   0  0  0  0  0  0  0  0  0  0  0  0
   -2.9785    0.3152   -0.4204 H   0  0  0  0  0  0  0  0  0  0  0  0
   -6.9770   -0.7082   -0.2987 H   0  0  0  0  0  0  0  0  0  0  0  0
   -6.3228   -1.0389    1.3075 H   0  0  0  0  0  0  0  0  0  0  0  0
   -4.5172    0.4971    2.2215 H   0  0  0  0  0  0  0  0  0  0  0  0
   -3.9600    1.8444    1.2345 H   0  0  0  0  0  0  0  0  0  0  0  0
    6.1541    0.6173    0.3119 H   0  0  0  0  0  0  0  0  0  0  0  0
    6.8642    2.6754   -0.8556 H   0  0  0  0  0  0  0  0  0  0  0  0
    5.1874    3.1286   -1.1546 H   0  0  0  0  0  0  0  0  0  0  0  0
    4.9307    3.1793    1.4653 H   0  0  0  0  0  0  0  0  0  0  0  0
    6.6320    2.7213    1.5152 H   0  0  0  0  0  0  0  0  0  0  0  0
    6.5251    0.5723   -2.1977 H   0  0  0  0  0  0  0  0  0  0  0  0
    4.8743    1.1066   -2.5779 H   0  0  0  0  0  0  0  0  0  0  0  0
    6.2589    2.0542   -3.1305 H   0  0  0  0  0  0  0  0  0  0  0  0
    4.3394    1.2126    2.8772 H   0  0  0  0  0  0  0  0  0  0  0  0
    6.0305    0.6698    2.8457 H   0  0  0  0  0  0  0  0  0  0  0  0
    5.5941    2.1856    3.6515 H   0  0  0  0  0  0  0  0  0  0  0  0
   -4.7344    3.1898   -0.4051 H   0  0  0  0  0  0  0  0  0  0  0  0
   -5.6253    3.3662    1.1459 H   0  0  0  0  0  0  0  0  0  0  0  0
   -6.3721    3.8635   -0.3813 H   0  0  0  0  0  0  0  0  0  0  0  0
   -0.5173    0.7540   -1.4502 H   0  0  0  0  0  0  0  0  0  0  0  0
    1.6223    3.6999    0.9055 H   0  0  0  0  0  0  0  0  0  0  0  0
   -2.3688    2.3872   -1.6081 H   0  0  0  0  0  0  0  0  0  0  0  0
   -0.3343    5.1864    0.6205 H   0  0  0  0  0  0  0  0  0  0  0  0
  1 28  2  0  0  0  0
  2  9  1  0  0  0  0
  2 13  1  0  0  0  0
  2 14  1  0  0  0  0
  3 15  1  0  0  0  0
  3 17  1  0  0  0  0
  3 50  1  0  0  0  0
  4 16  1  0  0  0  0
  4 24  2  0  0  0  0
  5 21  1  0  0  0  0
  5 22  1  0  0  0  0
  5 28  1  0  0  0  0
  6 23  2  0  0  0  0
  6 24  1  0  0  0  0
  7 35  2  0  0  0  0
  7 36  1  0  0  0  0
  8 10  1  0  0  0  0
  8 11  1  0  0  0  0
  8 12  1  0  0  0  0
  8 37  1  0  0  0  0
  9 11  1  0  0  0  0
  9 15  1  0  0  0  0
  9 38  1  0  0  0  0
 10 13  1  0  0  0  0
 10 16  1  0  0  0  0
 10 39  1  0  0  0  0
 11 40  1  0  0  0  0
 11 41  1  0  0  0  0
 12 14  1  0  0  0  0
 12 42  1  0  0  0  0
 12 43  1  0  0  0  0
 13 44  1  0  0  0  0
 13 45  1  0  0  0  0
 14 46  1  0  0  0  0
 14 47  1  0  0  0  0
 15 48  1  0  0  0  0
 15 49  1  0  0  0  0
 16 18  2  0  0  0  0
 17 19  1  0  0  0  0
 17 20  1  0  0  0  0
 17 51  1  0  0  0  0
 18 23  1  0  0  0  0
 18 52  1  0  0  0  0
 19 21  1  0  0  0  0
 19 53  1  0  0  0  0
 19 54  1  0  0  0  0
 20 22  1  0  0  0  0
 20 55  1  0  0  0  0
 20 56  1  0  0  0  0
 21 57  1  0  0  0  0
 21 58  1  0  0  0  0
 22 59  1  0  0  0  0
 22 60  1  0  0  0  0
 23 25  1  0  0  0  0
 24 29  1  0  0  0  0
 25 26  1  0  0  0  0
 25 27  1  0  0  0  0
 25 61  1  0  0  0  0
 26 30  1  0  0  0  0
 26 62  1  0  0  0  0
 26 63  1  0  0  0  0
 27 31  1  0  0  0  0
 27 64  1  0  0  0  0
 27 65  1  0  0  0  0
 28 32  1  0  0  0  0
 29 33  2  0  0  0  0
 29 34  1  0  0  0  0
 30 66  1  0  0  0  0
 30 67  1  0  0  0  0
 30 68  1  0  0  0  0
 31 69  1  0  0  0  0
 31 70  1  0  0  0  0
 31 71  1  0  0  0  0
 32 72  1  0  0  0  0
 32 73  1  0  0  0  0
 32 74  1  0  0  0  0
 33 35  1  0  0  0  0
 33 75  1  0  0  0  0
 34 36  2  0  0  0  0
 34 76  1  0  0  0  0
 35 77  1  0  0  0  0
 36 78  1  0  0  0  0
M  END
> <PUBCHEM_COMPOUND_CID>
45360480

> <PUBCHEM_CONFORMER_RMSD>
1.2

> <PUBCHEM_CONFORMER_DIVERSEORDER>
1
60
34
30
4
57
18
27
44
22
23
53
54
52
48
16
51
35
55
58
43
31
50
45
42
24
40
56
28
21
10
3
59
20
32
11
26
13
37
36
19
17
29
14
5
12
49
33
25
15
6
9
2
46
41
39
47
7
38
8

> <PUBCHEM_MMFF94_PARTIAL_CHARGES>
32
1 -0.57
10 0.14
13 0.27
14 0.27
15 0.27
16 0.17
17 0.27
18 -0.15
2 -0.81
21 0.3
22 0.3
23 0.17
24 0.62
25 0.14
28 0.57
3 -0.9
32 0.06
33 -0.15
34 -0.15
35 0.16
36 0.16
4 -0.62
5 -0.66
50 0.36
52 0.15
6 -0.62
7 -0.62
75 0.15
76 0.15
77 0.15
78 0.15
9 0.27

> <PUBCHEM_EFFECTIVE_ROTOR_COUNT>
11.4

> <PUBCHEM_PHARMACOPHORE_FEATURES>
13
1 1 acceptor
1 2 cation
1 3 cation
1 3 donor
1 30 hydrophobe
1 31 hydrophobe
1 6 acceptor
1 7 acceptor
3 4 6 24 cation
6 4 6 16 18 23 24 rings
6 5 17 19 20 21 22 rings
6 7 29 33 34 35 36 rings
8 2 8 9 10 11 12 13 14 rings

> <PUBCHEM_HEAVY_ATOM_COUNT>
36

> <PUBCHEM_ATOM_DEF_STEREO_COUNT>
3

> <PUBCHEM_ATOM_UDEF_STEREO_COUNT>
0

> <PUBCHEM_BOND_DEF_STEREO_COUNT>
0

> <PUBCHEM_BOND_UDEF_STEREO_COUNT>
0

> <PUBCHEM_ISOTOPIC_ATOM_COUNT>
0

> <PUBCHEM_COMPONENT_COUNT>
1

> <PUBCHEM_CACTVS_TAUTO_COUNT>
3

> <PUBCHEM_CONFORMER_ID>
02B4256000000001

> <PUBCHEM_MMFF94_ENERGY>
80.1466

> <PUBCHEM_FEATURE_SELFOVERLAP>
65.971

> <PUBCHEM_SHAPE_FINGERPRINT>
10006869 2 18338224982215437290
10439779 11 18267575982504526267
10675989 125 18120092789061408635
10864689 126 18413111667217141948
10906281 52 18041858275546854961
10939801 23 18189897693964124872
1100329 8 18049723215759812252
11135926 11 18336539443674732269
11136131 41 18261667069868607162
11513181 2 18202284659129796343
12422481 6 18335128787683935394
12677640 9 18124318474556668915
13402501 40 18407760322512288893
14415360 78 18192414480469900709
14466204 15 18338516447269890609
14725015 67 17972874757222476195
14790565 3 18265060308754262564
15001296 14 18046067060836195769
15320467 1 18338237167348554641
15420108 30 18270385200539111878
15444296 121 17972883832978475984
16067689 302 18410012106153569895
19053607 189 18409163303280912489
20511986 3 18130495388883297445
20587220 17 18200582589433931141
20764821 26 18264188271326078991
21033648 29 17772750713506021826
21133410 38 18057053415538908313
21298829 104 18341615893846387065
21585483 110 18408601457635012133
5171179 24 17980763735940159891
5265222 85 18263938802483179221
6004065 56 18268420403888679229
6371009 1 18123176068642062983

> <PUBCHEM_SHAPE_MULTIPOLES>
705.11
14.5
6.77
1.44
11.78
4.92
0.27
-12.81
0.88
-0.94
-0.54
-2.41
-0.31
0.88

> <PUBCHEM_SHAPE_SELFOVERLAP>
1489.81

> <PUBCHEM_SHAPE_VOLUME>
387.6

> <PUBCHEM_COORDINATE_TYPE>
2
5
10

$$$$
