26743405
  -OEChem-12032416183D

 53 57  0     1  0  0  0  0  0999 V2000
    2.8090    2.6276   -0.4544 O   0  0  0  0  0  0  0  0  0  0  0  0
    6.8319   -1.4747    1.0933 O   0  0  0  0  0  0  0  0  0  0  0  0
    8.1192   -0.7501   -0.8107 O   0  0  0  0  0  0  0  0  0  0  0  0
    2.1766    0.6995    0.6679 N   0  0  0  0  0  0  0  0  0  0  0  0
   -4.4110   -0.5834   -0.2679 N   0  0  0  0  0  0  0  0  0  0  0  0
   -4.1438   -1.7503   -0.8787 N   0  0  0  0  0  0  0  0  0  0  0  0
   -0.8203   -0.6594    0.4535 C   0  0  2  0  0  0  0  0  0  0  0  0
   -0.1831    0.6262   -0.1080 C   0  0  0  0  0  0  0  0  0  0  0  0
    0.8096    1.1147    0.9604 C   0  0  1  0  0  0  0  0  0  0  0  0
   -2.2642   -0.8379    0.0447 C   0  0  0  0  0  0  0  0  0  0  0  0
   -0.6010   -0.5035    1.9299 C   0  0  0  0  0  0  0  0  0  0  0  0
    0.2909    0.4556    2.2002 C   0  0  0  0  0  0  0  0  0  0  0  0
   -3.3191    0.0037    0.3008 C   0  0  0  0  0  0  0  0  0  0  0  0
   -2.8308   -1.9005   -0.6845 C   0  0  0  0  0  0  0  0  0  0  0  0
   -3.3747    1.2907    1.0235 C   0  0  0  0  0  0  0  0  0  0  0  0
   -2.1505   -3.0919   -1.2224 C   0  0  0  0  0  0  0  0  0  0  0  0
    3.0944    1.4945   -0.0284 C   0  0  0  0  0  0  0  0  0  0  0  0
   -5.7154   -0.0880   -0.2623 C   0  0  0  0  0  0  0  0  0  0  0  0
    4.4134    0.9284   -0.2627 C   0  0  0  0  0  0  0  0  0  0  0  0
   -5.9928    1.1521   -0.8376 C   0  0  0  0  0  0  0  0  0  0  0  0
   -6.7421   -0.8334    0.3170 C   0  0  0  0  0  0  0  0  0  0  0  0
    4.9221   -0.0310    0.6162 C   0  0  0  0  0  0  0  0  0  0  0  0
    5.1646    1.3512   -1.3735 C   0  0  0  0  0  0  0  0  0  0  0  0
    6.1772   -0.5397    0.3521 C   0  0  0  0  0  0  0  0  0  0  0  0
    6.9124   -0.1259   -0.7350 C   0  0  0  0  0  0  0  0  0  0  0  0
   -7.2971    1.6468   -0.8333 C   0  0  0  0  0  0  0  0  0  0  0  0
   -8.0463   -0.3388    0.3212 C   0  0  0  0  0  0  0  0  0  0  0  0
    6.4332    0.8196   -1.6181 C   0  0  0  0  0  0  0  0  0  0  0  0
   -8.3238    0.9014   -0.2539 C   0  0  0  0  0  0  0  0  0  0  0  0
    8.0614   -1.6035    0.3504 C   0  0  0  0  0  0  0  0  0  0  0  0
   -0.2387   -1.5285    0.1199 H   0  0  0  0  0  0  0  0  0  0  0  0
    0.2978    0.4361   -1.0753 H   0  0  0  0  0  0  0  0  0  0  0  0
   -0.9296    1.4098   -0.2864 H   0  0  0  0  0  0  0  0  0  0  0  0
    0.7724    2.2059    1.0434 H   0  0  0  0  0  0  0  0  0  0  0  0
   -1.0738   -1.1184    2.6830 H   0  0  0  0  0  0  0  0  0  0  0  0
    0.6152    0.7162    3.1978 H   0  0  0  0  0  0  0  0  0  0  0  0
    2.4246   -0.2523    0.9180 H   0  0  0  0  0  0  0  0  0  0  0  0
   -2.5316    1.4207    1.7054 H   0  0  0  0  0  0  0  0  0  0  0  0
   -4.2774    1.3719    1.6381 H   0  0  0  0  0  0  0  0  0  0  0  0
   -3.3572    2.1292    0.3200 H   0  0  0  0  0  0  0  0  0  0  0  0
   -1.3566   -2.8000   -1.9175 H   0  0  0  0  0  0  0  0  0  0  0  0
   -2.8416   -3.7479   -1.7624 H   0  0  0  0  0  0  0  0  0  0  0  0
   -1.7008   -3.6756   -0.4126 H   0  0  0  0  0  0  0  0  0  0  0  0
   -5.2108    1.7424   -1.3086 H   0  0  0  0  0  0  0  0  0  0  0  0
   -6.5433   -1.8001    0.7735 H   0  0  0  0  0  0  0  0  0  0  0  0
    4.3920   -0.3665    1.5003 H   0  0  0  0  0  0  0  0  0  0  0  0
    4.7695    2.0940   -2.0623 H   0  0  0  0  0  0  0  0  0  0  0  0
    7.0152    1.1421   -2.4738 H   0  0  0  0  0  0  0  0  0  0  0  0
   -7.5139    2.6108   -1.2842 H   0  0  0  0  0  0  0  0  0  0  0  0
   -8.8457   -0.9187    0.7730 H   0  0  0  0  0  0  0  0  0  0  0  0
   -9.3394    1.2862   -0.2511 H   0  0  0  0  0  0  0  0  0  0  0  0
    8.1680   -2.6451    0.0262 H   0  0  0  0  0  0  0  0  0  0  0  0
    8.8988   -1.3533    1.0119 H   0  0  0  0  0  0  0  0  0  0  0  0
  1 17  2  0  0  0  0
  2 24  1  0  0  0  0
  2 30  1  0  0  0  0
  3 25  1  0  0  0  0
  3 30  1  0  0  0  0
  4  9  1  0  0  0  0
  4 17  1  0  0  0  0
  4 37  1  0  0  0  0
  5  6  1  0  0  0  0
  5 13  1  0  0  0  0
  5 18  1  0  0  0  0
  6 14  2  0  0  0  0
  7  8  1  0  0  0  0
  7 10  1  0  0  0  0
  7 11  1  0  0  0  0
  7 31  1  0  0  0  0
  8  9  1  0  0  0  0
  8 32  1  0  0  0  0
  8 33  1  0  0  0  0
  9 12  1  0  0  0  0
  9 34  1  0  0  0  0
 10 13  2  0  0  0  0
 10 14  1  0  0  0  0
 11 12  2  0  0  0  0
 11 35  1  0  0  0  0
 12 36  1  0  0  0  0
 13 15  1  0  0  0  0
 14 16  1  0  0  0  0
 15 38  1  0  0  0  0
 15 39  1  0  0  0  0
 15 40  1  0  0  0  0
 16 41  1  0  0  0  0
 16 42  1  0  0  0  0
 16 43  1  0  0  0  0
 17 19  1  0  0  0  0
 18 20  2  0  0  0  0
 18 21  1  0  0  0  0
 19 22  2  0  0  0  0
 19 23  1  0  0  0  0
 20 26  1  0  0  0  0
 20 44  1  0  0  0  0
 21 27  2  0  0  0  0
 21 45  1  0  0  0  0
 22 24  1  0  0  0  0
 22 46  1  0  0  0  0
 23 28  2  0  0  0  0
 23 47  1  0  0  0  0
 24 25  2  0  0  0  0
 25 28  1  0  0  0  0
 26 29  2  0  0  0  0
 26 49  1  0  0  0  0
 27 29  1  0  0  0  0
 27 50  1  0  0  0  0
 28 48  1  0  0  0  0
 29 51  1  0  0  0  0
 30 52  1  0  0  0  0
 30 53  1  0  0  0  0
M  END
> <PUBCHEM_COMPOUND_CID>
26743405

> <PUBCHEM_CONFORMER_RMSD>
0.8

> <PUBCHEM_CONFORMER_DIVERSEORDER>
1
65
42
9
60
28
16
59
55
34
74
29
46
41
23
25
18
15
33
36
54
31
64
8
68
47
24
82
11
21
73
5
7
57
66
12
30
44
10
50
58
67
13
71
4
45
69
49
52
39
76
19
63
3
40
35
26
81
17
77
43
70
75
56
27
78
80
61
14
72
37
51
2
79
62
48
53
22
32
6
20
38

> <PUBCHEM_MMFF94_PARTIAL_CHARGES>
40
1 -0.57
10 -0.18
11 -0.29
12 -0.29
13 -0.33
14 0.11
15 0.18
16 0.18
17 0.54
18 -0.02
19 0.09
2 -0.36
20 -0.15
21 -0.15
22 -0.15
23 -0.15
24 0.08
25 0.08
26 -0.15
27 -0.15
28 -0.15
29 -0.15
3 -0.36
30 0.56
35 0.15
36 0.15
37 0.37
4 -0.73
44 0.15
45 0.15
46 0.15
47 0.15
48 0.15
49 0.15
5 0.59
50 0.15
51 0.15
6 -0.71
7 0.32
9 0.44

> <PUBCHEM_EFFECTIVE_ROTOR_COUNT>
6.2

> <PUBCHEM_PHARMACOPHORE_FEATURES>
10
1 1 acceptor
1 2 acceptor
1 3 acceptor
1 4 donor
1 6 acceptor
5 2 3 24 25 30 rings
5 5 6 10 13 14 rings
5 7 8 9 11 12 rings
6 18 20 21 26 27 29 rings
6 19 22 23 24 25 28 rings

> <PUBCHEM_HEAVY_ATOM_COUNT>
30

> <PUBCHEM_ATOM_DEF_STEREO_COUNT>
2

> <PUBCHEM_ATOM_UDEF_STEREO_COUNT>
0

> <PUBCHEM_BOND_DEF_STEREO_COUNT>
0

> <PUBCHEM_BOND_UDEF_STEREO_COUNT>
0

> <PUBCHEM_ISOTOPIC_ATOM_COUNT>
0

> <PUBCHEM_COMPONENT_COUNT>
1

> <PUBCHEM_CACTVS_TAUTO_COUNT>
2

> <PUBCHEM_CONFORMER_ID>
0198126D00000001

> <PUBCHEM_MMFF94_ENERGY>
85.9874

> <PUBCHEM_FEATURE_SELFOVERLAP>
50.904

> <PUBCHEM_SHAPE_FINGERPRINT>
10165383 225 15574714690414571257
10290309 65 12757691133135391049
10299344 5 18186238428723679390
10369192 42 15791728603145100803
106641 1 12757154572204827689
10670039 82 18272650109415768409
10674148 151 18113051641209217832
10835480 77 17560515239402386616
10930396 42 15553866820755828274
11135609 201 8862652479383891086
11524674 6 17203608207269869079
11719270 70 17989489611117195694
11796584 16 18059574754145644222
11828422 8 17412452915978554896
12144600 37 17822863086208800915
12516196 113 13110966426568127026
12643181 29 17632855347851773575
12664476 115 14562530696070457614
12857493 111 16559030493217149321
13177829 20 10159697993032601348
13761468 95 18189044305859350493
13782708 43 17201354320571881183
13914758 101 18409731742080750693
14117953 113 18272092673915057646
14150022 121 13768195066293544951
14251752 14 18412543214909032233
14294032 229 18195813968734179001
1454969 45 11746935399905338923
14856354 85 16805607001823360819
14933364 13 17748544853324800957
15183329 4 18413674603715650384
15188451 53 17203613666827039464
15230672 131 18411978070365304319
15338160 23 13696133065460967639
15392192 104 14923945648567725297
15444296 9 18337673018571699214
15461852 350 18261947532303375511
15475509 8 17676488354303385740
15728490 51 8646479722486458297
15849732 13 17967534584281499925
16628084 112 17750504079892598994
19309040 13 16735825495190629326
19377110 9 9871755680606542148
19611394 137 17823711940019848233
21033648 29 15213588974512555668
21365058 27 16153426143241689947
21781055 127 17845656937605611251
21792961 116 18342458137196266227
22224240 67 11959729369875951076
23559900 14 17702656803821288129
249057 3 18341893008507703709
3004659 81 18343586274406659680
3009799 131 16128657461787274505
3383291 50 16917069984056425255
34797466 226 13190340150014240242
4098825 35 17967530155627054366
4149490 64 13325990284425890343
44062 13 18057885929575357182
5085150 59 17704353264580203206
559249 180 18272930552824620943
563151 40 16153710955223379995
5758199 1 15502374522104758065
59682541 35 9367338232525839325
5969126 39 14908185222824258249
59755656 520 17385721426643934323
6004065 56 14261344795245096195
9689198 14 16660363671245137629

> <PUBCHEM_SHAPE_MULTIPOLES>
584.83
26.38
2.08
1.4
7.03
0.68
-0.34
0.91
6.12
-0.32
0.68
0.82
-0.05
-1.04

> <PUBCHEM_SHAPE_SELFOVERLAP>
1297.174

> <PUBCHEM_SHAPE_VOLUME>
315.2

> <PUBCHEM_COORDINATE_TYPE>
2
5
10

$$$$
