75536038
  -OEChem-12032416323D

 41 44  0     1  0  0  0  0  0999 V2000
    0.6858   -2.3204   -0.0908 O   0  0  0  0  0  0  0  0  0  0  0  0
    1.0928    2.2754   -0.6529 O   0  0  0  0  0  0  0  0  0  0  0  0
   -5.8449   -0.4917   -0.0063 O   0  0  0  0  0  0  0  0  0  0  0  0
   -5.6959    1.6047    0.9328 O   0  0  0  0  0  0  0  0  0  0  0  0
    2.5995    0.5111   -0.6581 N   0  0  0  0  0  0  0  0  0  0  0  0
    0.4349    0.0216   -0.3292 N   0  0  0  0  0  0  0  0  0  0  0  0
    6.2073    0.8856    0.0583 N   0  0  0  0  0  0  0  0  0  0  0  0
    5.9756   -1.1134    1.0329 N   0  0  0  0  0  0  0  0  0  0  0  0
    2.5825   -0.9424   -0.5971 C   0  0  1  0  0  0  0  0  0  0  0  0
    3.5259   -1.4907    0.4888 C   0  0  0  0  0  0  0  0  0  0  0  0
    3.8558    1.2456   -0.8688 C   0  0  0  0  0  0  0  0  0  0  0  0
    4.7969   -0.7236    0.4619 C   0  0  0  0  0  0  0  0  0  0  0  0
    4.9134    0.5094   -0.1431 C   0  0  0  0  0  0  0  0  0  0  0  0
    1.1140   -1.1938   -0.3102 C   0  0  0  0  0  0  0  0  0  0  0  0
    1.3269    1.0777   -0.5452 C   0  0  0  0  0  0  0  0  0  0  0  0
   -0.9761    0.1698   -0.1382 C   0  0  0  0  0  0  0  0  0  0  0  0
    6.8059   -0.1235    0.7710 C   0  0  0  0  0  0  0  0  0  0  0  0
   -1.4837    1.3354    0.4358 C   0  0  0  0  0  0  0  0  0  0  0  0
   -1.8431   -0.8521   -0.5250 C   0  0  0  0  0  0  0  0  0  0  0  0
   -2.8584    1.4790    0.6229 C   0  0  0  0  0  0  0  0  0  0  0  0
   -3.2179   -0.7084   -0.3377 C   0  0  0  0  0  0  0  0  0  0  0  0
   -3.7255    0.4571    0.2361 C   0  0  0  0  0  0  0  0  0  0  0  0
   -5.1587    0.6078    0.4322 C   0  0  0  0  0  0  0  0  0  0  0  0
   -7.2694   -0.4631    0.1332 C   0  0  0  0  0  0  0  0  0  0  0  0
   -7.8435   -1.7570   -0.4036 C   0  0  0  0  0  0  0  0  0  0  0  0
    2.8340   -1.3262   -1.5926 H   0  0  0  0  0  0  0  0  0  0  0  0
    3.7082   -2.5582    0.3246 H   0  0  0  0  0  0  0  0  0  0  0  0
    3.0720   -1.3880    1.4822 H   0  0  0  0  0  0  0  0  0  0  0  0
    3.7417    2.2738   -0.5137 H   0  0  0  0  0  0  0  0  0  0  0  0
    4.0539    1.2575   -1.9451 H   0  0  0  0  0  0  0  0  0  0  0  0
    6.6471    1.7407   -0.2558 H   0  0  0  0  0  0  0  0  0  0  0  0
    7.8446   -0.0727    1.0651 H   0  0  0  0  0  0  0  0  0  0  0  0
   -0.8396    2.1375    0.7816 H   0  0  0  0  0  0  0  0  0  0  0  0
   -1.4884   -1.7587   -1.0051 H   0  0  0  0  0  0  0  0  0  0  0  0
   -3.2329    2.3918    1.0790 H   0  0  0  0  0  0  0  0  0  0  0  0
   -3.8559   -1.5264   -0.6604 H   0  0  0  0  0  0  0  0  0  0  0  0
   -7.5288   -0.3523    1.1918 H   0  0  0  0  0  0  0  0  0  0  0  0
   -7.6730    0.3849   -0.4309 H   0  0  0  0  0  0  0  0  0  0  0  0
   -7.5751   -1.8898   -1.4568 H   0  0  0  0  0  0  0  0  0  0  0  0
   -7.4333   -2.6149    0.1394 H   0  0  0  0  0  0  0  0  0  0  0  0
   -8.9332   -1.7691   -0.3123 H   0  0  0  0  0  0  0  0  0  0  0  0
  1 14  2  0  0  0  0
  2 15  2  0  0  0  0
  3 23  1  0  0  0  0
  3 24  1  0  0  0  0
  4 23  2  0  0  0  0
  5  9  1  0  0  0  0
  5 11  1  0  0  0  0
  5 15  1  0  0  0  0
  6 14  1  0  0  0  0
  6 15  1  0  0  0  0
  6 16  1  0  0  0  0
  7 13  1  0  0  0  0
  7 17  1  0  0  0  0
  7 31  1  0  0  0  0
  8 12  1  0  0  0  0
  8 17  2  0  0  0  0
  9 10  1  0  0  0  0
  9 14  1  0  0  0  0
  9 26  1  0  0  0  0
 10 12  1  0  0  0  0
 10 27  1  0  0  0  0
 10 28  1  0  0  0  0
 11 13  1  0  0  0  0
 11 29  1  0  0  0  0
 11 30  1  0  0  0  0
 12 13  2  0  0  0  0
 16 18  2  0  0  0  0
 16 19  1  0  0  0  0
 17 32  1  0  0  0  0
 18 20  1  0  0  0  0
 18 33  1  0  0  0  0
 19 21  2  0  0  0  0
 19 34  1  0  0  0  0
 20 22  2  0  0  0  0
 20 35  1  0  0  0  0
 21 22  1  0  0  0  0
 21 36  1  0  0  0  0
 22 23  1  0  0  0  0
 24 25  1  0  0  0  0
 24 37  1  0  0  0  0
 24 38  1  0  0  0  0
 25 39  1  0  0  0  0
 25 40  1  0  0  0  0
 25 41  1  0  0  0  0
M  END
> <PUBCHEM_COMPOUND_CID>
75536038

> <PUBCHEM_CONFORMER_RMSD>
0.8

> <PUBCHEM_CONFORMER_DIVERSEORDER>
1
2
4
6
3
5

> <PUBCHEM_MMFF94_PARTIAL_CHARGES>
30
1 -0.57
10 0.18
11 0.48
12 0.05
13 -0.33
14 0.57
15 0.69
16 0.12
17 0.04
18 -0.15
19 -0.15
2 -0.57
20 -0.15
21 -0.15
22 0.09
23 0.63
24 0.28
3 -0.43
31 0.27
32 0.15
33 0.15
34 0.15
35 0.15
36 0.15
4 -0.57
5 -0.66
6 -0.24
7 0.03
8 -0.57
9 0.36

> <PUBCHEM_EFFECTIVE_ROTOR_COUNT>
4.6

> <PUBCHEM_PHARMACOPHORE_FEATURES>
9
1 1 acceptor
1 2 acceptor
1 4 acceptor
1 7 donor
3 7 8 17 cation
5 5 6 9 14 15 rings
5 7 8 12 13 17 rings
6 16 18 19 20 21 22 rings
6 5 9 10 11 12 13 rings

> <PUBCHEM_HEAVY_ATOM_COUNT>
25

> <PUBCHEM_ATOM_DEF_STEREO_COUNT>
1

> <PUBCHEM_ATOM_UDEF_STEREO_COUNT>
0

> <PUBCHEM_BOND_DEF_STEREO_COUNT>
0

> <PUBCHEM_BOND_UDEF_STEREO_COUNT>
0

> <PUBCHEM_ISOTOPIC_ATOM_COUNT>
0

> <PUBCHEM_COMPONENT_COUNT>
1

> <PUBCHEM_CACTVS_TAUTO_COUNT>
4

> <PUBCHEM_CONFORMER_ID>
048096A600000001

> <PUBCHEM_MMFF94_ENERGY>
65.0496

> <PUBCHEM_FEATURE_SELFOVERLAP>
45.894

> <PUBCHEM_SHAPE_FINGERPRINT>
10 15 18342173393148173512
106641 1 18411975884816891728
10688039 33 17530682078895130820
10906281 52 18337129898445365652
11646440 116 17346602988580448513
11719270 70 18410009927134033863
11724838 91 18410572903215480934
12166972 35 18335984246227398893
12236239 1 18413108338057792217
12516196 113 18202283593328741329
12596602 18 18059858316180919155
12730499 353 15554452881553106030
13073987 5 17060067990992737347
13533116 47 17677047937408505714
13692114 37 18270672198891361387
13862211 1 18407761430402887165
13914758 101 17023177194174804781
14251764 18 18335703857591817461
14849402 71 18270963564993067512
15131766 46 16663755831846362764
15706992 2 17417521524229471168
17492 89 18046058255847517674
1813 80 17386296385394110398
19377110 9 18200886088828264745
20028762 73 18413390925474075287
20735858 18 18343299262747697098
21130935 74 18201441320335830907
21267235 1 18334295324058968454
221357 26 9727633891108131554
22149856 69 17702968971531243851
22224240 67 18412541024729113954
23402539 116 18271800242138911022
23559900 14 18041562576482400977
23569917 315 18412269410956110822
23569943 247 17834967373702351570
29717793 49 11097856276885136386
335352 9 18335425690636665494
34797466 226 16845297167909285100
350125 39 18412825785097589873
3545911 37 18344148085423529998
4325135 7 18412825794246278095
4340502 62 15769775745684654500
439807 62 18189620622172924459
465052 167 17821733819289839954
5104073 3 18337397144127080928
58260988 393 16558476296432852674
59682541 35 18201433718480470770
59755656 520 17458622359096453731
67856867 119 18339363075323722565

> <PUBCHEM_SHAPE_MULTIPOLES>
471.09
18.96
1.83
0.86
14.24
0.02
0.03
3.82
3.42
0.51
-0.04
-0.37
-0.07
-1.44

> <PUBCHEM_SHAPE_SELFOVERLAP>
1039.162

> <PUBCHEM_SHAPE_VOLUME>
251.6

> <PUBCHEM_COORDINATE_TYPE>
2
5
10

$$$$
