26743498
  -OEChem-12032416193D

 49 52  0     1  0  0  0  0  0999 V2000
    6.0126   -1.1315    0.8825 O   0  0  0  0  0  0  0  0  0  0  0  0
    1.1351   -1.2926   -2.0624 O   0  0  0  0  0  0  0  0  0  0  0  0
    2.9554    0.6694    0.4567 N   0  0  1  0  0  0  0  0  0  0  0  0
    0.5691   -1.0889    0.0950 N   0  0  0  0  0  0  0  0  0  0  0  0
   -0.1619   -1.8092   -1.9497 N   0  0  0  0  0  0  0  0  0  0  0  0
   -3.1328    2.5654    0.0004 N   0  0  0  0  0  0  0  0  0  0  0  0
   -2.5834   -2.6008   -0.8890 N   0  0  0  0  0  0  0  0  0  0  0  0
   -3.0828   -2.2543    1.8490 N   0  0  0  0  0  0  0  0  0  0  0  0
    2.8704   -0.2861   -0.6665 C   0  0  1  0  0  0  0  0  0  0  0  0
    3.9539   -1.3395   -0.3702 C   0  0  0  0  0  0  0  0  0  0  0  0
    4.6238   -0.8661    0.9137 C   0  0  2  0  0  0  0  0  0  0  0  0
    4.3354    0.6230    0.9360 C   0  0  0  0  0  0  0  0  0  0  0  0
    2.5460    2.0199    0.0941 C   0  0  0  0  0  0  0  0  0  0  0  0
    1.4902   -0.8911   -0.8139 C   0  0  0  0  0  0  0  0  0  0  0  0
    1.0474    2.1638    0.0694 C   0  0  0  0  0  0  0  0  0  0  0  0
    0.4044    2.5639   -1.1020 C   0  0  0  0  0  0  0  0  0  0  0  0
    0.3021    1.8970    1.2179 C   0  0  0  0  0  0  0  0  0  0  0  0
   -0.4256   -1.6540   -0.6488 C   0  0  0  0  0  0  0  0  0  0  0  0
   -0.9839    2.6973   -1.1250 C   0  0  0  0  0  0  0  0  0  0  0  0
   -1.0862    2.0304    1.1949 C   0  0  0  0  0  0  0  0  0  0  0  0
   -1.7291    2.4305    0.0236 C   0  0  0  0  0  0  0  0  0  0  0  0
   -1.6715   -2.0539   -0.0610 C   0  0  0  0  0  0  0  0  0  0  0  0
   -3.8104    2.9806   -1.2117 C   0  0  0  0  0  0  0  0  0  0  0  0
   -3.9170    2.2833    1.1863 C   0  0  0  0  0  0  0  0  0  0  0  0
   -1.9167   -1.8837    1.2839 C   0  0  0  0  0  0  0  0  0  0  0  0
   -3.7496   -2.9715   -0.3240 C   0  0  0  0  0  0  0  0  0  0  0  0
   -3.9948   -2.8012    1.0208 C   0  0  0  0  0  0  0  0  0  0  0  0
    3.1370    0.2040   -1.6135 H   0  0  0  0  0  0  0  0  0  0  0  0
    3.5519   -2.3506   -0.2380 H   0  0  0  0  0  0  0  0  0  0  0  0
    4.6764   -1.3831   -1.1949 H   0  0  0  0  0  0  0  0  0  0  0  0
    4.1822   -1.3612    1.7872 H   0  0  0  0  0  0  0  0  0  0  0  0
    4.4377    1.0323    1.9465 H   0  0  0  0  0  0  0  0  0  0  0  0
    5.0281    1.1651    0.2785 H   0  0  0  0  0  0  0  0  0  0  0  0
    2.9976    2.3412   -0.8536 H   0  0  0  0  0  0  0  0  0  0  0  0
    2.9064    2.7338    0.8482 H   0  0  0  0  0  0  0  0  0  0  0  0
    6.1242   -2.0934    0.7921 H   0  0  0  0  0  0  0  0  0  0  0  0
    0.9728    2.7728   -2.0044 H   0  0  0  0  0  0  0  0  0  0  0  0
    0.7896    1.5887    2.1391 H   0  0  0  0  0  0  0  0  0  0  0  0
   -1.4367    3.0100   -2.0606 H   0  0  0  0  0  0  0  0  0  0  0  0
   -1.6207    1.8108    2.1137 H   0  0  0  0  0  0  0  0  0  0  0  0
   -4.8951    3.0411   -1.0688 H   0  0  0  0  0  0  0  0  0  0  0  0
   -3.6429    2.2642   -2.0236 H   0  0  0  0  0  0  0  0  0  0  0  0
   -3.4824    3.9773   -1.5274 H   0  0  0  0  0  0  0  0  0  0  0  0
   -4.9880    2.4318    1.0084 H   0  0  0  0  0  0  0  0  0  0  0  0
   -3.6429    2.9510    2.0106 H   0  0  0  0  0  0  0  0  0  0  0  0
   -3.7958    1.2408    1.5018 H   0  0  0  0  0  0  0  0  0  0  0  0
   -1.1993   -1.4457    1.9685 H   0  0  0  0  0  0  0  0  0  0  0  0
   -4.4829   -3.4108   -0.9888 H   0  0  0  0  0  0  0  0  0  0  0  0
   -4.9322   -3.0990    1.4741 H   0  0  0  0  0  0  0  0  0  0  0  0
  1 11  1  0  0  0  0
  1 36  1  0  0  0  0
  2  5  1  0  0  0  0
  2 14  1  0  0  0  0
  3  9  1  0  0  0  0
  3 12  1  0  0  0  0
  3 13  1  0  0  0  0
  4 14  2  0  0  0  0
  4 18  1  0  0  0  0
  5 18  2  0  0  0  0
  6 21  1  0  0  0  0
  6 23  1  0  0  0  0
  6 24  1  0  0  0  0
  7 22  2  0  0  0  0
  7 26  1  0  0  0  0
  8 25  2  0  0  0  0
  8 27  1  0  0  0  0
  9 10  1  0  0  0  0
  9 14  1  0  0  0  0
  9 28  1  0  0  0  0
 10 11  1  0  0  0  0
 10 29  1  0  0  0  0
 10 30  1  0  0  0  0
 11 12  1  0  0  0  0
 11 31  1  0  0  0  0
 12 32  1  0  0  0  0
 12 33  1  0  0  0  0
 13 15  1  0  0  0  0
 13 34  1  0  0  0  0
 13 35  1  0  0  0  0
 15 16  2  0  0  0  0
 15 17  1  0  0  0  0
 16 19  1  0  0  0  0
 16 37  1  0  0  0  0
 17 20  2  0  0  0  0
 17 38  1  0  0  0  0
 18 22  1  0  0  0  0
 19 21  2  0  0  0  0
 19 39  1  0  0  0  0
 20 21  1  0  0  0  0
 20 40  1  0  0  0  0
 22 25  1  0  0  0  0
 23 41  1  0  0  0  0
 23 42  1  0  0  0  0
 23 43  1  0  0  0  0
 24 44  1  0  0  0  0
 24 45  1  0  0  0  0
 24 46  1  0  0  0  0
 25 47  1  0  0  0  0
 26 27  2  0  0  0  0
 26 48  1  0  0  0  0
 27 49  1  0  0  0  0
M  END
> <PUBCHEM_COMPOUND_CID>
26743498

> <PUBCHEM_CONFORMER_RMSD>
0.8

> <PUBCHEM_CONFORMER_DIVERSEORDER>
1
102
42
112
124
122
95
101
2
8
144
128
120
28
92
114
69
132
143
85
72
78
5
151
44
17
27
22
67
147
46
55
89
60
153
137
77
10
146
149
94
47
51
21
33
121
23
65
150
136
91
6
26
152
131
148
105
68
115
96
84
82
63
62
118
80
39
41
7
32
38
19
70
97
50
3
140
98
74
59
117
54
40
14
83
9
12
71
52
37
125
106
64
123
31
130
126
61
133
16
100
139
56
18
108
113
13
58
15
79
4
135
43
81
111
45
34
110
76
109
99
48
86
73
57
30
134
29
25
93
141
116
87
104
103
53
142
11
145
119
127
20
138
36
35
107
88
75
129
24
90
66
49

> <PUBCHEM_MMFF94_PARTIAL_CHARGES>
34
1 -0.68
11 0.28
12 0.27
13 0.41
14 0.3
15 -0.14
16 -0.15
17 -0.15
18 0.46
19 -0.15
2 -0.02
20 -0.15
21 0.1
22 0.36
23 0.37
24 0.37
25 0.16
26 0.16
27 0.16
3 -0.81
36 0.4
37 0.15
38 0.15
39 0.15
4 -0.57
40 0.15
47 0.15
48 0.15
49 0.15
5 -0.41
6 -0.84
7 -0.62
8 -0.62
9 0.45

> <PUBCHEM_EFFECTIVE_ROTOR_COUNT>
6

> <PUBCHEM_PHARMACOPHORE_FEATURES>
11
1 1 acceptor
1 1 donor
1 3 cation
1 6 cation
1 7 acceptor
1 8 acceptor
3 4 5 18 cation
5 2 4 5 14 18 rings
5 3 9 10 11 12 rings
6 15 16 17 19 20 21 rings
6 7 8 22 25 26 27 rings

> <PUBCHEM_HEAVY_ATOM_COUNT>
27

> <PUBCHEM_ATOM_DEF_STEREO_COUNT>
2

> <PUBCHEM_ATOM_UDEF_STEREO_COUNT>
0

> <PUBCHEM_BOND_DEF_STEREO_COUNT>
0

> <PUBCHEM_BOND_UDEF_STEREO_COUNT>
0

> <PUBCHEM_ISOTOPIC_ATOM_COUNT>
0

> <PUBCHEM_COMPONENT_COUNT>
1

> <PUBCHEM_CACTVS_TAUTO_COUNT>
1

> <PUBCHEM_CONFORMER_ID>
019812CA00000001

> <PUBCHEM_MMFF94_ENERGY>
74.1208

> <PUBCHEM_FEATURE_SELFOVERLAP>
55.826

> <PUBCHEM_SHAPE_FINGERPRINT>
10382601 240 17693389136538683224
104564 63 18196946671309230333
10688039 33 18189895503640755079
108634 29 18341052913273904199
11387372 6 17685761434205535394
12035758 1 18339094683228547617
12293681 25 17485949444672329894
12422481 6 18198086779611148723
12788726 201 18336273452318724570
13052359 8 18335698278513631021
13134695 92 18051127296266098231
13140716 1 18412544306221466576
13402501 40 18341896277790205801
13965767 371 17628654233858976018
14787075 74 17701804514743161712
14790565 3 17041198515555188177
14840074 17 17691115359725946024
14866123 147 18189888721761522274
16728300 4 16522707890480714858
17357779 13 18270950366705298383
20905425 154 18197794395011336797
21041028 32 18266454497850391903
21304304 249 18192431866185751676
22182313 1 17845386487488169742
23419403 2 17559656494913763032
24893992 56 18041830810676610679
3052486 1 18260835890337338992
4340502 62 18128821828959687401
5104073 3 18267845273850930730
5283268 108 18266190606633340747
56638632 10 16411233221420833160
57527358 35 15432327882798877549
7064713 232 17345499104839937155

> <PUBCHEM_SHAPE_MULTIPOLES>
514.02
8.56
4.63
1.56
6.72
0.71
-0.16
-3.17
2.84
-6.1
-0.32
-0.47
-0.26
0.75

> <PUBCHEM_SHAPE_SELFOVERLAP>
1111.87

> <PUBCHEM_SHAPE_VOLUME>
283.8

> <PUBCHEM_COORDINATE_TYPE>
2
5
10

$$$$
