45783574
  -OEChem-12032416263D

 58 61  0     1  0  0  0  0  0999 V2000
    0.3145    3.7699   -0.3707 S   0  0  0  0  0  0  0  0  0  0  0  0
   -2.3516   -1.6232   -1.3021 O   0  0  0  0  0  0  0  0  0  0  0  0
    0.0403    4.6090   -1.5293 O   0  0  0  0  0  0  0  0  0  0  0  0
    0.7998    4.3753    0.8613 O   0  0  0  0  0  0  0  0  0  0  0  0
    5.0223   -1.2488    0.4321 O   0  0  0  0  0  0  0  0  0  0  0  0
    7.4771    0.0950    0.3866 O   0  0  0  0  0  0  0  0  0  0  0  0
   -4.7463   -0.6244    0.1262 N   0  0  1  0  0  0  0  0  0  0  0  0
   -1.3432   -1.5973    0.6977 N   0  0  0  0  0  0  0  0  0  0  0  0
   -0.9771   -1.5453   -1.5600 N   0  0  0  0  0  0  0  0  0  0  0  0
    3.2016   -1.3280   -1.0042 N   0  0  0  0  0  0  0  0  0  0  0  0
   -3.8911   -1.7340    0.5930 C   0  0  1  0  0  0  0  0  0  0  0  0
   -4.6255   -3.0102    0.1424 C   0  0  0  0  0  0  0  0  0  0  0  0
   -5.9091   -2.5202   -0.5126 C   0  0  0  0  0  0  0  0  0  0  0  0
   -6.1134   -1.1441    0.0883 C   0  0  0  0  0  0  0  0  0  0  0  0
   -4.6371    0.5715    0.9516 C   0  0  0  0  0  0  0  0  0  0  0  0
   -2.4798   -1.6492    0.0503 C   0  0  0  0  0  0  0  0  0  0  0  0
   -3.4036    1.3695    0.6222 C   0  0  0  0  0  0  0  0  0  0  0  0
   -2.4546    1.6270    1.6116 C   0  0  0  0  0  0  0  0  0  0  0  0
   -3.2095    1.8509   -0.6725 C   0  0  0  0  0  0  0  0  0  0  0  0
   -0.4500   -1.5345   -0.3321 C   0  0  0  0  0  0  0  0  0  0  0  0
   -1.3119    2.3661    1.3064 C   0  0  0  0  0  0  0  0  0  0  0  0
   -2.0667    2.5902   -0.9778 C   0  0  0  0  0  0  0  0  0  0  0  0
   -1.1179    2.8477    0.0117 C   0  0  0  0  0  0  0  0  0  0  0  0
    0.9635   -1.4603   -0.0998 C   0  0  0  0  0  0  0  0  0  0  0  0
    1.5021    2.5497   -0.8849 C   0  0  0  0  0  0  0  0  0  0  0  0
    1.4771   -1.4496    1.1923 C   0  0  0  0  0  0  0  0  0  0  0  0
    1.8598   -1.3983   -1.1544 C   0  0  0  0  0  0  0  0  0  0  0  0
    2.8520   -1.3781    1.3875 C   0  0  0  0  0  0  0  0  0  0  0  0
    3.6640   -1.3198    0.2663 C   0  0  0  0  0  0  0  0  0  0  0  0
    5.8093   -1.1910   -0.7516 C   0  0  0  0  0  0  0  0  0  0  0  0
    7.2734   -1.0933   -0.3683 C   0  0  0  0  0  0  0  0  0  0  0  0
    8.8319    0.2277    0.7930 C   0  0  0  0  0  0  0  0  0  0  0  0
   -3.8341   -1.7538    1.6902 H   0  0  0  0  0  0  0  0  0  0  0  0
   -4.0513   -3.6393   -0.5461 H   0  0  0  0  0  0  0  0  0  0  0  0
   -4.8746   -3.6186    1.0206 H   0  0  0  0  0  0  0  0  0  0  0  0
   -6.7526   -3.1905   -0.3230 H   0  0  0  0  0  0  0  0  0  0  0  0
   -5.7687   -2.4467   -1.5982 H   0  0  0  0  0  0  0  0  0  0  0  0
   -6.5451   -1.2283    1.0937 H   0  0  0  0  0  0  0  0  0  0  0  0
   -6.7718   -0.5283   -0.5321 H   0  0  0  0  0  0  0  0  0  0  0  0
   -5.4897    1.2376    0.7577 H   0  0  0  0  0  0  0  0  0  0  0  0
   -4.6887    0.3326    2.0220 H   0  0  0  0  0  0  0  0  0  0  0  0
   -2.5908    1.2544    2.6233 H   0  0  0  0  0  0  0  0  0  0  0  0
   -3.9413    1.6609   -1.4533 H   0  0  0  0  0  0  0  0  0  0  0  0
   -0.5819    2.5466    2.0903 H   0  0  0  0  0  0  0  0  0  0  0  0
   -1.9325    2.9501   -1.9939 H   0  0  0  0  0  0  0  0  0  0  0  0
    1.1119    2.0171   -1.7543 H   0  0  0  0  0  0  0  0  0  0  0  0
    1.6838    1.8623   -0.0568 H   0  0  0  0  0  0  0  0  0  0  0  0
    2.4273    3.0664   -1.1485 H   0  0  0  0  0  0  0  0  0  0  0  0
    0.8305   -1.4949    2.0648 H   0  0  0  0  0  0  0  0  0  0  0  0
    1.5406   -1.4009   -2.1924 H   0  0  0  0  0  0  0  0  0  0  0  0
    3.2687   -1.3684    2.3887 H   0  0  0  0  0  0  0  0  0  0  0  0
    5.6532   -2.0926   -1.3557 H   0  0  0  0  0  0  0  0  0  0  0  0
    5.5318   -0.3008   -1.3299 H   0  0  0  0  0  0  0  0  0  0  0  0
    7.5533   -1.9567    0.2465 H   0  0  0  0  0  0  0  0  0  0  0  0
    7.8958   -1.0721   -1.2696 H   0  0  0  0  0  0  0  0  0  0  0  0
    8.9311    1.1556    1.3626 H   0  0  0  0  0  0  0  0  0  0  0  0
    9.4908    0.2815   -0.0791 H   0  0  0  0  0  0  0  0  0  0  0  0
    9.1238   -0.6087    1.4353 H   0  0  0  0  0  0  0  0  0  0  0  0
  1  3  2  0  0  0  0
  1  4  2  0  0  0  0
  1 23  1  0  0  0  0
  1 25  1  0  0  0  0
  2  9  1  0  0  0  0
  2 16  1  0  0  0  0
  5 29  1  0  0  0  0
  5 30  1  0  0  0  0
  6 31  1  0  0  0  0
  6 32  1  0  0  0  0
  7 11  1  0  0  0  0
  7 14  1  0  0  0  0
  7 15  1  0  0  0  0
  8 16  2  0  0  0  0
  8 20  1  0  0  0  0
  9 20  2  0  0  0  0
 10 27  1  0  0  0  0
 10 29  2  0  0  0  0
 11 12  1  0  0  0  0
 11 16  1  0  0  0  0
 11 33  1  0  0  0  0
 12 13  1  0  0  0  0
 12 34  1  0  0  0  0
 12 35  1  0  0  0  0
 13 14  1  0  0  0  0
 13 36  1  0  0  0  0
 13 37  1  0  0  0  0
 14 38  1  0  0  0  0
 14 39  1  0  0  0  0
 15 17  1  0  0  0  0
 15 40  1  0  0  0  0
 15 41  1  0  0  0  0
 17 18  2  0  0  0  0
 17 19  1  0  0  0  0
 18 21  1  0  0  0  0
 18 42  1  0  0  0  0
 19 22  2  0  0  0  0
 19 43  1  0  0  0  0
 20 24  1  0  0  0  0
 21 23  2  0  0  0  0
 21 44  1  0  0  0  0
 22 23  1  0  0  0  0
 22 45  1  0  0  0  0
 24 26  1  0  0  0  0
 24 27  2  0  0  0  0
 25 46  1  0  0  0  0
 25 47  1  0  0  0  0
 25 48  1  0  0  0  0
 26 28  2  0  0  0  0
 26 49  1  0  0  0  0
 27 50  1  0  0  0  0
 28 29  1  0  0  0  0
 28 51  1  0  0  0  0
 30 31  1  0  0  0  0
 30 52  1  0  0  0  0
 30 53  1  0  0  0  0
 31 54  1  0  0  0  0
 31 55  1  0  0  0  0
 32 56  1  0  0  0  0
 32 57  1  0  0  0  0
 32 58  1  0  0  0  0
M  END
> <PUBCHEM_COMPOUND_CID>
45783574

> <PUBCHEM_CONFORMER_RMSD>
1

> <PUBCHEM_CONFORMER_DIVERSEORDER>
1
108
85
30
51
32
13
90
131
20
103
34
86
28
87
100
9
64
92
75
43
42
33
104
91
130
54
117
3
124
101
78
27
31
116
68
99
107
2
114
125
97
76
84
29
120
44
40
36
19
16
79
41
109
4
74
129
98
17
95
111
49
110
71
66
115
83
73
121
123
61
26
46
67
11
65
21
8
69
77
15
23
88
94
58
37
119
96
38
81
12
53
72
10
126
5
80
57
82
63
18
24
45
105
35
55
128
62
56
52
113
70
89
122
102
59
39
14
6
127
22
60
47
50
93
118
106
7
48
112
25

> <PUBCHEM_MMFF94_PARTIAL_CHARGES>
37
1 1.2
10 -0.62
11 0.45
14 0.27
15 0.41
16 0.3
17 -0.14
18 -0.15
19 -0.15
2 -0.02
20 0.46
21 -0.15
22 -0.15
23 -0.01
24 0.05
25 0.11
26 -0.15
27 0.16
28 -0.15
29 0.39
3 -0.65
30 0.28
31 0.28
32 0.28
4 -0.65
42 0.15
43 0.15
44 0.15
45 0.15
49 0.15
5 -0.36
50 0.15
51 0.15
6 -0.56
7 -0.81
8 -0.57
9 -0.41

> <PUBCHEM_EFFECTIVE_ROTOR_COUNT>
10

> <PUBCHEM_PHARMACOPHORE_FEATURES>
9
1 3 acceptor
1 4 acceptor
1 6 acceptor
1 7 cation
3 8 9 20 cation
5 2 8 9 16 20 rings
5 7 11 12 13 14 rings
6 10 24 26 27 28 29 rings
6 17 18 19 21 22 23 rings

> <PUBCHEM_HEAVY_ATOM_COUNT>
32

> <PUBCHEM_ATOM_DEF_STEREO_COUNT>
1

> <PUBCHEM_ATOM_UDEF_STEREO_COUNT>
0

> <PUBCHEM_BOND_DEF_STEREO_COUNT>
0

> <PUBCHEM_BOND_UDEF_STEREO_COUNT>
0

> <PUBCHEM_ISOTOPIC_ATOM_COUNT>
0

> <PUBCHEM_COMPONENT_COUNT>
1

> <PUBCHEM_CACTVS_TAUTO_COUNT>
1

> <PUBCHEM_CONFORMER_ID>
02BA9A1600000001

> <PUBCHEM_MMFF94_ENERGY>
63.3724

> <PUBCHEM_FEATURE_SELFOVERLAP>
45.69

> <PUBCHEM_SHAPE_FINGERPRINT>
10032420 55 17822282470833201841
100830 39 18265896857447193558
10087517 78 18410573968725942986
10369192 42 16988844986457462582
10940486 97 17915456314658687870
1100329 8 18411145706430605865
11578080 2 17677593411424498663
11963148 33 17115788272963221015
12107698 1 18410855486230625770
12166972 35 17895196635689096199
12788726 201 18187925019510637675
14028597 1 17676196941415449970
14068700 675 18343023324020695921
14117953 113 18340772525504200645
14394314 77 18335425604152445465
14856354 85 18336835272511988342
15400415 2 17400641520429779084
15419008 47 18060414716915804344
15876981 60 18334583429489310255
15961568 22 18411704261920346382
15968369 153 18201435913773741692
17627616 140 17970932157069830380
17686467 74 18270112560404828298
18336668 15 18186806876256709308
19611394 137 18117570727808780402
20511986 3 16952531282366498436
20609170 92 18116416206624856253
20721686 56 18263925608284791960
20771845 171 17609216003079560693
21033648 29 17489295357250326243
21344244 246 18120374508603282977
21360443 120 17758125069573023340
21927370 108 18335154106284380915
22899556 105 17553758861384300399
22956985 138 17469895836304657339
23559900 14 18338510958766488291
25019877 29 17131838693720796686
3504750 166 18268696252301126630
392239 28 18335430019552613120
4280585 95 18408040723652210593
469060 322 18337964402338894931
57676310 188 18119259604330553724
6201320 215 18269264679107139528

> <PUBCHEM_SHAPE_MULTIPOLES>
613.12
15.91
4.84
1.31
32.5
6.31
0.03
-10.59
1.99
-3.08
-0.85
0.04
0.32
-0.34

> <PUBCHEM_SHAPE_SELFOVERLAP>
1296.618

> <PUBCHEM_SHAPE_VOLUME>
347.9

> <PUBCHEM_COORDINATE_TYPE>
2
5
10

$$$$
