38029860
  -OEChem-12032416143D

 61 62  0     1  0  0  0  0  0999 V2000
   -0.2912    2.7368    0.6305 O   0  0  0  0  0  0  0  0  0  0  0  0
    7.1576   -1.6263    0.3525 O   0  0  0  0  0  0  0  0  0  0  0  0
    1.4953    1.5302   -0.2342 N   0  0  0  0  0  0  0  0  0  0  0  0
    4.1499    0.5148    0.1272 N   0  0  0  0  0  0  0  0  0  0  0  0
   -2.1448   -3.2205   -1.4969 N   0  0  0  0  0  0  0  0  0  0  0  0
   -3.1060   -0.5105    0.8617 C   0  0  2  0  0  0  0  0  0  0  0  0
   -2.7226    0.9767    0.8247 C   0  0  0  0  0  0  0  0  0  0  0  0
   -2.2645    1.4256   -0.5758 C   0  0  2  0  0  0  0  0  0  0  0  0
   -4.2481   -0.7996   -0.1444 C   0  0  1  0  0  0  0  0  0  0  0  0
   -3.4906   -0.9116    2.2892 C   0  0  0  0  0  0  0  0  0  0  0  0
   -3.2084    0.9431   -1.6585 C   0  0  0  0  0  0  0  0  0  0  0  0
   -4.0972   -0.0431   -1.4434 C   0  0  0  0  0  0  0  0  0  0  0  0
   -0.8277    0.9727   -0.8586 C   0  0  0  0  0  0  0  0  0  0  0  0
   -4.3606   -2.3000   -0.4374 C   0  0  0  0  0  0  0  0  0  0  0  0
   -2.2412   -1.1921    3.1181 C   0  0  0  0  0  0  0  0  0  0  0  0
   -4.3369    0.1786    2.9384 C   0  0  0  0  0  0  0  0  0  0  0  0
    0.1421    1.8306   -0.0857 C   0  0  0  0  0  0  0  0  0  0  0  0
   -3.1389    1.6519   -2.9825 C   0  0  0  0  0  0  0  0  0  0  0  0
    2.4986    2.3130    0.4858 C   0  0  0  0  0  0  0  0  0  0  0  0
    2.0482    0.5514   -1.1749 C   0  0  0  0  0  0  0  0  0  0  0  0
    3.5509    1.4098    1.1280 C   0  0  0  0  0  0  0  0  0  0  0  0
    3.1145   -0.3166   -0.5041 C   0  0  0  0  0  0  0  0  0  0  0  0
   -3.1223   -2.8070   -1.0282 C   0  0  0  0  0  0  0  0  0  0  0  0
    5.1795   -0.3241    0.7393 C   0  0  0  0  0  0  0  0  0  0  0  0
    6.1594   -0.8478   -0.2946 C   0  0  0  0  0  0  0  0  0  0  0  0
    8.1047   -2.1360   -0.5763 C   0  0  0  0  0  0  0  0  0  0  0  0
   -2.2189   -1.0874    0.5789 H   0  0  0  0  0  0  0  0  0  0  0  0
   -1.9571    1.1996    1.5736 H   0  0  0  0  0  0  0  0  0  0  0  0
   -3.5894    1.6053    1.0670 H   0  0  0  0  0  0  0  0  0  0  0  0
   -2.3163    2.5236   -0.5891 H   0  0  0  0  0  0  0  0  0  0  0  0
   -5.2062   -0.4779    0.2834 H   0  0  0  0  0  0  0  0  0  0  0  0
   -4.0769   -1.8361    2.2814 H   0  0  0  0  0  0  0  0  0  0  0  0
   -4.7828   -0.3156   -2.2435 H   0  0  0  0  0  0  0  0  0  0  0  0
   -0.5890    1.0963   -1.9206 H   0  0  0  0  0  0  0  0  0  0  0  0
   -0.6777   -0.0783   -0.5945 H   0  0  0  0  0  0  0  0  0  0  0  0
   -5.1942   -2.4859   -1.1267 H   0  0  0  0  0  0  0  0  0  0  0  0
   -4.5945   -2.8638    0.4710 H   0  0  0  0  0  0  0  0  0  0  0  0
   -2.5172   -1.5127    4.1288 H   0  0  0  0  0  0  0  0  0  0  0  0
   -1.6002   -0.3106    3.2173 H   0  0  0  0  0  0  0  0  0  0  0  0
   -1.6462   -1.9955    2.6705 H   0  0  0  0  0  0  0  0  0  0  0  0
   -3.7587    1.0681    3.2102 H   0  0  0  0  0  0  0  0  0  0  0  0
   -4.7549   -0.2028    3.8784 H   0  0  0  0  0  0  0  0  0  0  0  0
   -5.1892    0.4765    2.3206 H   0  0  0  0  0  0  0  0  0  0  0  0
   -3.2699    2.7300   -2.8441 H   0  0  0  0  0  0  0  0  0  0  0  0
   -3.9211    1.3137   -3.6708 H   0  0  0  0  0  0  0  0  0  0  0  0
   -2.1763    1.4777   -3.4716 H   0  0  0  0  0  0  0  0  0  0  0  0
    2.9637    2.9903   -0.2411 H   0  0  0  0  0  0  0  0  0  0  0  0
    2.0260    2.9335    1.2542 H   0  0  0  0  0  0  0  0  0  0  0  0
    1.2757   -0.0932   -1.5980 H   0  0  0  0  0  0  0  0  0  0  0  0
    2.4849    1.1192   -2.0059 H   0  0  0  0  0  0  0  0  0  0  0  0
    4.3225    2.0488    1.5739 H   0  0  0  0  0  0  0  0  0  0  0  0
    3.0923    0.8283    1.9388 H   0  0  0  0  0  0  0  0  0  0  0  0
    2.6348   -0.9667    0.2401 H   0  0  0  0  0  0  0  0  0  0  0  0
    3.5457   -0.9635   -1.2752 H   0  0  0  0  0  0  0  0  0  0  0  0
    4.7503   -1.1491    1.3235 H   0  0  0  0  0  0  0  0  0  0  0  0
    5.7667    0.2612    1.4606 H   0  0  0  0  0  0  0  0  0  0  0  0
    6.6372   -0.0105   -0.8184 H   0  0  0  0  0  0  0  0  0  0  0  0
    5.6546   -1.4772   -1.0351 H   0  0  0  0  0  0  0  0  0  0  0  0
    8.8461   -2.7211   -0.0254 H   0  0  0  0  0  0  0  0  0  0  0  0
    8.6182   -1.3174   -1.0898 H   0  0  0  0  0  0  0  0  0  0  0  0
    7.6153   -2.7903   -1.3043 H   0  0  0  0  0  0  0  0  0  0  0  0
  1 17  2  0  0  0  0
  2 25  1  0  0  0  0
  2 26  1  0  0  0  0
  3 17  1  0  0  0  0
  3 19  1  0  0  0  0
  3 20  1  0  0  0  0
  4 21  1  0  0  0  0
  4 22  1  0  0  0  0
  4 24  1  0  0  0  0
  5 23  3  0  0  0  0
  6  7  1  0  0  0  0
  6  9  1  0  0  0  0
  6 10  1  0  0  0  0
  6 27  1  0  0  0  0
  7  8  1  0  0  0  0
  7 28  1  0  0  0  0
  7 29  1  0  0  0  0
  8 11  1  0  0  0  0
  8 13  1  0  0  0  0
  8 30  1  0  0  0  0
  9 12  1  0  0  0  0
  9 14  1  0  0  0  0
  9 31  1  0  0  0  0
 10 15  1  0  0  0  0
 10 16  1  0  0  0  0
 10 32  1  0  0  0  0
 11 12  2  0  0  0  0
 11 18  1  0  0  0  0
 12 33  1  0  0  0  0
 13 17  1  0  0  0  0
 13 34  1  0  0  0  0
 13 35  1  0  0  0  0
 14 23  1  0  0  0  0
 14 36  1  0  0  0  0
 14 37  1  0  0  0  0
 15 38  1  0  0  0  0
 15 39  1  0  0  0  0
 15 40  1  0  0  0  0
 16 41  1  0  0  0  0
 16 42  1  0  0  0  0
 16 43  1  0  0  0  0
 18 44  1  0  0  0  0
 18 45  1  0  0  0  0
 18 46  1  0  0  0  0
 19 21  1  0  0  0  0
 19 47  1  0  0  0  0
 19 48  1  0  0  0  0
 20 22  1  0  0  0  0
 20 49  1  0  0  0  0
 20 50  1  0  0  0  0
 21 51  1  0  0  0  0
 21 52  1  0  0  0  0
 22 53  1  0  0  0  0
 22 54  1  0  0  0  0
 24 25  1  0  0  0  0
 24 55  1  0  0  0  0
 24 56  1  0  0  0  0
 25 57  1  0  0  0  0
 25 58  1  0  0  0  0
 26 59  1  0  0  0  0
 26 60  1  0  0  0  0
 26 61  1  0  0  0  0
M  END
> <PUBCHEM_COMPOUND_CID>
38029860

> <PUBCHEM_CONFORMER_RMSD>
1

> <PUBCHEM_CONFORMER_DIVERSEORDER>
1
113
83
48
94
40
8
121
104
120
95
118
122
11
66
64
68
70
130
80
114
45
44
39
52
4
102
14
89
73
125
67
58
124
75
59
55
23
76
123
74
119
132
105
6
54
117
88
127
109
35
57
27
99
38
19
92
81
112
78
49
77
50
103
22
128
34
7
108
17
30
42
71
61
86
33
97
87
106
16
131
107
56
115
20
37
28
65
10
98
62
18
32
43
26
79
101
41
53
129
116
100
91
82
29
72
85
25
126
21
93
111
51
110
90
15
13
9
5
24
47
2
12
31
36
63
60
69
96
46
84
3

> <PUBCHEM_MMFF94_PARTIAL_CHARGES>
22
1 -0.57
11 -0.28
12 -0.29
13 0.06
14 0.2
17 0.57
18 0.14
19 0.3
2 -0.56
20 0.3
21 0.27
22 0.27
23 0.36
24 0.27
25 0.28
26 0.28
3 -0.66
33 0.15
4 -0.81
5 -0.56
8 0.14
9 0.14

> <PUBCHEM_EFFECTIVE_ROTOR_COUNT>
10

> <PUBCHEM_PHARMACOPHORE_FEATURES>
7
1 1 acceptor
1 2 acceptor
1 4 cation
1 5 acceptor
3 10 15 16 hydrophobe
6 3 4 19 20 21 22 rings
6 6 7 8 9 11 12 rings

> <PUBCHEM_HEAVY_ATOM_COUNT>
26

> <PUBCHEM_ATOM_DEF_STEREO_COUNT>
3

> <PUBCHEM_ATOM_UDEF_STEREO_COUNT>
0

> <PUBCHEM_BOND_DEF_STEREO_COUNT>
0

> <PUBCHEM_BOND_UDEF_STEREO_COUNT>
0

> <PUBCHEM_ISOTOPIC_ATOM_COUNT>
0

> <PUBCHEM_COMPONENT_COUNT>
1

> <PUBCHEM_CACTVS_TAUTO_COUNT>
1

> <PUBCHEM_CONFORMER_ID>
02444A2400000001

> <PUBCHEM_MMFF94_ENERGY>
53.8546

> <PUBCHEM_FEATURE_SELFOVERLAP>
35.522

> <PUBCHEM_SHAPE_FINGERPRINT>
10319926 262 14189582944545875452
107951 10 17313935309104216239
10930396 42 13901901216169740879
11036077 4 17989213646382857331
11552529 35 17343780671070696015
12596599 1 17987534764978046639
12596602 18 17060333046383478378
12633257 1 18129677394575250069
12655364 131 17344632517625486542
13103583 49 17989218048497372176
13782708 43 18342173320687766478
14950920 106 17561084739148779122
15163728 17 14348561275208783615
15183329 4 15502372301812127762
15361156 5 18041001760283772236
15799311 1 18201455696170963710
15880784 105 18272367632814183824
17627616 140 18115857508668231314
17780758 139 17775568636794685810
17870717 6 17385721396199257089
18927931 339 18338522945613509732
21307412 95 17604430816690980259
23419403 2 17613474081128412021
23559900 14 18338783607110833676
25122255 55 18408887300651283774
2748736 6 8286191727001599470
2838139 119 11097856294502855146
484985 159 18341610400266191015
508706 21 17603301535768935411
5104073 3 17560801065444471808
60111433 81 14319956122548338978
9709674 26 17750507563016292517
999808 66 18335992969885784178

> <PUBCHEM_SHAPE_MULTIPOLES>
508.39
15.19
2.93
2.51
36.95
0.71
-1.04
11.15
1.17
-0.67
0.93
-4.34
0.47
1.63

> <PUBCHEM_SHAPE_SELFOVERLAP>
1018.531

> <PUBCHEM_SHAPE_VOLUME>
297.1

> <PUBCHEM_COORDINATE_TYPE>
2
5
10

$$$$
