40777567
  -OEChem-12032416353D

 48 50  0     1  0  0  0  0  0999 V2000
   -6.9972   -2.3748   -0.0194 Cl  0  0  0  0  0  0  0  0  0  0  0  0
   -2.1203    0.5601   -0.0494 N   0  0  0  0  0  0  0  0  0  0  0  0
    4.5473   -0.6376   -0.2114 N   0  0  0  0  0  0  0  0  0  0  0  0
    4.4271   -1.6809    0.6271 N   0  0  0  0  0  0  0  0  0  0  0  0
    5.1148    2.7825    1.1981 N   0  0  0  0  0  0  0  0  0  0  0  0
    0.8872   -0.7844   -0.1960 C   0  0  2  0  0  0  0  0  0  0  0  0
    0.3460    0.5861    0.2543 C   0  0  0  0  0  0  0  0  0  0  0  0
   -0.8442    0.9010   -0.6675 C   0  0  1  0  0  0  0  0  0  0  0  0
    2.3862   -0.9114   -0.0513 C   0  0  0  0  0  0  0  0  0  0  0  0
    0.3830   -0.8768   -1.6065 C   0  0  0  0  0  0  0  0  0  0  0  0
   -0.5628    0.0352   -1.8556 C   0  0  0  0  0  0  0  0  0  0  0  0
    3.3542   -0.1397   -0.6463 C   0  0  0  0  0  0  0  0  0  0  0  0
    3.1046   -1.8435    0.7211 C   0  0  0  0  0  0  0  0  0  0  0  0
   -3.2319    1.1455   -0.7878 C   0  0  0  0  0  0  0  0  0  0  0  0
    3.2549    1.0047   -1.5720 C   0  0  0  0  0  0  0  0  0  0  0  0
    5.8658   -0.1605   -0.5588 C   0  0  0  0  0  0  0  0  0  0  0  0
    2.5651   -2.9181    1.5728 C   0  0  0  0  0  0  0  0  0  0  0  0
   -4.5605    0.7937   -0.1729 C   0  0  0  0  0  0  0  0  0  0  0  0
    6.5280    0.6598    0.5515 C   0  0  0  0  0  0  0  0  0  0  0  0
   -5.1000   -0.4791   -0.3587 C   0  0  0  0  0  0  0  0  0  0  0  0
   -5.2515    1.7407    0.5833 C   0  0  0  0  0  0  0  0  0  0  0  0
   -6.3305   -0.8052    0.2117 C   0  0  0  0  0  0  0  0  0  0  0  0
   -6.4820    1.4148    1.1534 C   0  0  0  0  0  0  0  0  0  0  0  0
    5.7379    1.8464    0.9121 C   0  0  0  0  0  0  0  0  0  0  0  0
   -7.0215    0.1418    0.9680 C   0  0  0  0  0  0  0  0  0  0  0  0
    0.3988   -1.5770    0.3856 H   0  0  0  0  0  0  0  0  0  0  0  0
    0.0700    0.5667    1.3164 H   0  0  0  0  0  0  0  0  0  0  0  0
    1.0935    1.3844    0.1665 H   0  0  0  0  0  0  0  0  0  0  0  0
   -0.8035    1.9644   -0.9331 H   0  0  0  0  0  0  0  0  0  0  0  0
    0.7128   -1.6164   -2.3227 H   0  0  0  0  0  0  0  0  0  0  0  0
   -1.0757    0.1225   -2.8033 H   0  0  0  0  0  0  0  0  0  0  0  0
   -2.1362    0.9134    0.9075 H   0  0  0  0  0  0  0  0  0  0  0  0
   -3.2443    0.7991   -1.8289 H   0  0  0  0  0  0  0  0  0  0  0  0
   -3.1290    2.2378   -0.8291 H   0  0  0  0  0  0  0  0  0  0  0  0
    3.6740    1.9123   -1.1308 H   0  0  0  0  0  0  0  0  0  0  0  0
    3.7895    0.7958   -2.5049 H   0  0  0  0  0  0  0  0  0  0  0  0
    2.2253    1.2342   -1.8529 H   0  0  0  0  0  0  0  0  0  0  0  0
    6.4778   -1.0423   -0.7848 H   0  0  0  0  0  0  0  0  0  0  0  0
    5.8041    0.4241   -1.4819 H   0  0  0  0  0  0  0  0  0  0  0  0
    1.9147   -2.5028    2.3496 H   0  0  0  0  0  0  0  0  0  0  0  0
    3.3603   -3.4827    2.0711 H   0  0  0  0  0  0  0  0  0  0  0  0
    1.9791   -3.6240    0.9752 H   0  0  0  0  0  0  0  0  0  0  0  0
    7.5257    0.9696    0.2206 H   0  0  0  0  0  0  0  0  0  0  0  0
    6.6671    0.0362    1.4428 H   0  0  0  0  0  0  0  0  0  0  0  0
   -4.5596   -1.2157   -0.9493 H   0  0  0  0  0  0  0  0  0  0  0  0
   -4.8422    2.7354    0.7383 H   0  0  0  0  0  0  0  0  0  0  0  0
   -7.0198    2.1519    1.7424 H   0  0  0  0  0  0  0  0  0  0  0  0
   -7.9813   -0.0980    1.4183 H   0  0  0  0  0  0  0  0  0  0  0  0
  1 22  1  0  0  0  0
  2  8  1  0  0  0  0
  2 14  1  0  0  0  0
  2 32  1  0  0  0  0
  3  4  1  0  0  0  0
  3 12  1  0  0  0  0
  3 16  1  0  0  0  0
  4 13  2  0  0  0  0
  5 24  3  0  0  0  0
  6  7  1  0  0  0  0
  6  9  1  0  0  0  0
  6 10  1  0  0  0  0
  6 26  1  0  0  0  0
  7  8  1  0  0  0  0
  7 27  1  0  0  0  0
  7 28  1  0  0  0  0
  8 11  1  0  0  0  0
  8 29  1  0  0  0  0
  9 12  2  0  0  0  0
  9 13  1  0  0  0  0
 10 11  2  0  0  0  0
 10 30  1  0  0  0  0
 11 31  1  0  0  0  0
 12 15  1  0  0  0  0
 13 17  1  0  0  0  0
 14 18  1  0  0  0  0
 14 33  1  0  0  0  0
 14 34  1  0  0  0  0
 15 35  1  0  0  0  0
 15 36  1  0  0  0  0
 15 37  1  0  0  0  0
 16 19  1  0  0  0  0
 16 38  1  0  0  0  0
 16 39  1  0  0  0  0
 17 40  1  0  0  0  0
 17 41  1  0  0  0  0
 17 42  1  0  0  0  0
 18 20  2  0  0  0  0
 18 21  1  0  0  0  0
 19 24  1  0  0  0  0
 19 43  1  0  0  0  0
 19 44  1  0  0  0  0
 20 22  1  0  0  0  0
 20 45  1  0  0  0  0
 21 23  2  0  0  0  0
 21 46  1  0  0  0  0
 22 25  2  0  0  0  0
 23 25  1  0  0  0  0
 23 47  1  0  0  0  0
 25 48  1  0  0  0  0
M  END
> <PUBCHEM_COMPOUND_CID>
40777567

> <PUBCHEM_CONFORMER_RMSD>
1.2

> <PUBCHEM_CONFORMER_DIVERSEORDER>
1
108
33
66
13
58
69
65
79
102
70
114
52
9
6
107
60
24
35
45
88
72
106
86
112
115
32
104
84
95
55
75
109
85
110
74
77
103
130
92
53
81
10
40
98
49
68
2
29
94
117
59
17
36
116
124
118
105
91
78
51
83
50
19
8
38
63
76
125
123
120
129
113
23
43
28
126
26
14
16
44
97
64
11
42
96
48
25
37
122
46
62
15
39
67
54
30
61
41
21
73
57
56
34
31
82
89
90
7
101
27
71
100
127
18
20
93
3
119
111
4
99
121
47
5
22
128
12
80
87

> <PUBCHEM_MMFF94_PARTIAL_CHARGES>
31
1 -0.18
10 -0.29
11 -0.29
12 -0.33
13 0.11
14 0.41
15 0.18
16 0.26
17 0.18
18 -0.14
19 0.2
2 -0.9
20 -0.15
21 -0.15
22 0.18
23 -0.15
24 0.36
25 -0.15
3 0.31
30 0.15
31 0.15
32 0.36
4 -0.71
45 0.15
46 0.15
47 0.15
48 0.15
5 -0.56
6 0.32
8 0.41
9 -0.18

> <PUBCHEM_EFFECTIVE_ROTOR_COUNT>
6.6

> <PUBCHEM_PHARMACOPHORE_FEATURES>
7
1 2 cation
1 2 donor
1 4 acceptor
1 5 acceptor
5 3 4 9 12 13 rings
5 6 7 8 10 11 rings
6 18 20 21 22 23 25 rings

> <PUBCHEM_HEAVY_ATOM_COUNT>
25

> <PUBCHEM_ATOM_DEF_STEREO_COUNT>
2

> <PUBCHEM_ATOM_UDEF_STEREO_COUNT>
0

> <PUBCHEM_BOND_DEF_STEREO_COUNT>
0

> <PUBCHEM_BOND_UDEF_STEREO_COUNT>
0

> <PUBCHEM_ISOTOPIC_ATOM_COUNT>
0

> <PUBCHEM_COMPONENT_COUNT>
1

> <PUBCHEM_CACTVS_TAUTO_COUNT>
1

> <PUBCHEM_CONFORMER_ID>
026E375F00000001

> <PUBCHEM_MMFF94_ENERGY>
38.6082

> <PUBCHEM_FEATURE_SELFOVERLAP>
35.522

> <PUBCHEM_SHAPE_FINGERPRINT>
10 15 17704072906848227183
10165383 225 18113905966676815814
10693767 8 9583252625904250580
11315181 36 18343021091476536825
11724838 91 18259702324457179206
12107183 9 17323794466240051633
12236239 1 18343302535354378388
12516196 113 18333734606829203509
12596602 18 18272090483091118915
12730499 353 18334294241479329170
13073987 5 18188211988335822089
13177829 20 18413108385650533513
13533116 47 18261111808043438210
13692114 37 18042403693755413738
13782708 43 16371000746540305202
14251732 16 18413107286144278081
14251752 14 11025795405681549329
14251764 18 18410857676848400855
14394314 77 18334579010996753177
14461889 52 18334294309692423746
146900 427 18412542089727723848
14849402 71 18270683198160214464
14933364 13 18060703887730233473
15183329 4 13045946764011112327
15475509 8 11383845886535255754
17780758 139 18413111650653905681
17857418 61 18186803561380550879
19377110 9 18334012778891628553
20511986 3 18260820484980939587
21033648 29 15984532288329115715
21130935 74 18411703158177516003
21315763 178 18113902620428189923
22079108 93 18335415786125601822
22224240 67 17894630370848921490
23522609 53 18119281457039512797
29717793 49 9151170961298051566
314194 84 17967823738854920723
34797466 226 17704079498821465852
3663271 9 18412546483848597891
4073 2 18261679267828279235
4340502 62 18260829298047998842
5104073 3 18043242444701100105
5758199 1 18334579053386853930
59682541 35 18113622330166231320
59755656 215 12535634855452882236
633830 44 12894767226142205901
7495541 125 18412263935003657169
8988823 20 14056724556525142366

> <PUBCHEM_SHAPE_MULTIPOLES>
496.43
20.45
2.38
1.38
17.18
0.71
-0.23
-2.08
6.64
-0.9
1.13
-0.58
-0.06
-0.43

> <PUBCHEM_SHAPE_SELFOVERLAP>
1040.739

> <PUBCHEM_SHAPE_VOLUME>
280.3

> <PUBCHEM_COORDINATE_TYPE>
2
5
10

$$$$
