9424317
  -OEChem-12032416383D

 44 46  0     1  0  0  0  0  0999 V2000
   -7.0007   -0.2885   -1.9287 Br  0  0  0  0  0  0  0  0  0  0  0  0
    0.2835   -1.2551    1.8703 O   0  0  0  0  0  0  0  0  0  0  0  0
   -2.9622    2.4765    0.2149 O   0  0  0  0  0  0  0  0  0  0  0  0
    4.2123   -0.5214    0.9675 O   0  0  0  0  0  0  0  0  0  0  0  0
   -1.0208    1.2040    0.1669 N   0  0  0  0  0  0  0  0  0  0  0  0
    3.2248    1.1385   -0.3215 N   0  0  0  0  0  0  0  0  0  0  0  0
   -1.9260   -1.3767    1.2959 N   0  0  0  0  0  0  0  0  0  0  0  0
    5.4589    0.6620   -0.5911 N   0  0  0  0  0  0  0  0  0  0  0  0
    1.8930    1.0267    0.2240 C   0  0  2  0  0  0  0  0  0  0  0  0
   -0.3972   -0.0805   -0.1246 C   0  0  1  0  0  0  0  0  0  0  0  0
    1.0706    0.0044   -0.5597 C   0  0  0  0  0  0  0  0  0  0  0  0
    1.1811    2.3751    0.1979 C   0  0  0  0  0  0  0  0  0  0  0  0
   -0.2109    2.2511    0.7947 C   0  0  0  0  0  0  0  0  0  0  0  0
   -0.6307   -0.9292    1.1123 C   0  0  0  0  0  0  0  0  0  0  0  0
   -2.4011    1.3884    0.0788 C   0  0  0  0  0  0  0  0  0  0  0  0
   -3.2682    0.1964   -0.1193 C   0  0  0  0  0  0  0  0  0  0  0  0
   -3.0751   -1.0260    0.5508 C   0  0  0  0  0  0  0  0  0  0  0  0
    4.2912    0.3464    0.0989 C   0  0  0  0  0  0  0  0  0  0  0  0
   -4.4437    0.4029   -0.8614 C   0  0  0  0  0  0  0  0  0  0  0  0
   -4.0979   -1.9879    0.5153 C   0  0  0  0  0  0  0  0  0  0  0  0
   -5.4259   -0.5842   -0.9263 C   0  0  0  0  0  0  0  0  0  0  0  0
   -5.2593   -1.7739   -0.2269 C   0  0  0  0  0  0  0  0  0  0  0  0
    6.7151   -0.0084   -0.3512 C   0  0  0  0  0  0  0  0  0  0  0  0
    6.8164   -1.1921   -1.2547 C   0  0  0  0  0  0  0  0  0  0  0  0
    6.9726   -2.4487   -0.8228 C   0  0  0  0  0  0  0  0  0  0  0  0
    1.9871    0.6936    1.2647 H   0  0  0  0  0  0  0  0  0  0  0  0
   -0.9320   -0.5586   -0.9557 H   0  0  0  0  0  0  0  0  0  0  0  0
    1.5425   -0.9849   -0.5038 H   0  0  0  0  0  0  0  0  0  0  0  0
    1.0931    0.2864   -1.6222 H   0  0  0  0  0  0  0  0  0  0  0  0
    1.1089    2.7432   -0.8340 H   0  0  0  0  0  0  0  0  0  0  0  0
    1.7580    3.1206    0.7584 H   0  0  0  0  0  0  0  0  0  0  0  0
   -0.1433    2.0005    1.8606 H   0  0  0  0  0  0  0  0  0  0  0  0
   -0.7260    3.2155    0.7298 H   0  0  0  0  0  0  0  0  0  0  0  0
    3.3777    1.7762   -1.0970 H   0  0  0  0  0  0  0  0  0  0  0  0
   -2.0447   -2.1183    1.9817 H   0  0  0  0  0  0  0  0  0  0  0  0
   -4.6029    1.3489   -1.3761 H   0  0  0  0  0  0  0  0  0  0  0  0
   -3.9857   -2.9323    1.0445 H   0  0  0  0  0  0  0  0  0  0  0  0
    5.4238    1.3820   -1.3063 H   0  0  0  0  0  0  0  0  0  0  0  0
   -6.0217   -2.5484   -0.2496 H   0  0  0  0  0  0  0  0  0  0  0  0
    7.5173    0.7015   -0.5751 H   0  0  0  0  0  0  0  0  0  0  0  0
    6.7839   -0.2874    0.7057 H   0  0  0  0  0  0  0  0  0  0  0  0
    6.7752   -1.0137   -2.3265 H   0  0  0  0  0  0  0  0  0  0  0  0
    7.0475   -3.2674   -1.5301 H   0  0  0  0  0  0  0  0  0  0  0  0
    7.0270   -2.6823    0.2347 H   0  0  0  0  0  0  0  0  0  0  0  0
  1 21  1  0  0  0  0
  2 14  2  0  0  0  0
  3 15  2  0  0  0  0
  4 18  2  0  0  0  0
  5 10  1  0  0  0  0
  5 13  1  0  0  0  0
  5 15  1  0  0  0  0
  6  9  1  0  0  0  0
  6 18  1  0  0  0  0
  6 34  1  0  0  0  0
  7 14  1  0  0  0  0
  7 17  1  0  0  0  0
  7 35  1  0  0  0  0
  8 18  1  0  0  0  0
  8 23  1  0  0  0  0
  8 38  1  0  0  0  0
  9 11  1  0  0  0  0
  9 12  1  0  0  0  0
  9 26  1  0  0  0  0
 10 11  1  0  0  0  0
 10 14  1  0  0  0  0
 10 27  1  0  0  0  0
 11 28  1  0  0  0  0
 11 29  1  0  0  0  0
 12 13  1  0  0  0  0
 12 30  1  0  0  0  0
 12 31  1  0  0  0  0
 13 32  1  0  0  0  0
 13 33  1  0  0  0  0
 15 16  1  0  0  0  0
 16 17  2  0  0  0  0
 16 19  1  0  0  0  0
 17 20  1  0  0  0  0
 19 21  2  0  0  0  0
 19 36  1  0  0  0  0
 20 22  2  0  0  0  0
 20 37  1  0  0  0  0
 21 22  1  0  0  0  0
 22 39  1  0  0  0  0
 23 24  1  0  0  0  0
 23 40  1  0  0  0  0
 23 41  1  0  0  0  0
 24 25  2  0  0  0  0
 24 42  1  0  0  0  0
 25 43  1  0  0  0  0
 25 44  1  0  0  0  0
M  END
> <PUBCHEM_COMPOUND_CID>
9424317

> <PUBCHEM_CONFORMER_RMSD>
0.8

> <PUBCHEM_CONFORMER_DIVERSEORDER>
1
10
22
16
27
21
11
14
26
28
19
12
8
5
2
24
17
7
4
9
13
25
18
3
6
23
20
15

> <PUBCHEM_MMFF94_PARTIAL_CHARGES>
32
1 -0.11
10 0.36
13 0.3
14 0.57
15 0.54
16 0.09
17 0.12
18 0.69
19 -0.15
2 -0.57
20 -0.15
21 0.11
22 -0.15
23 0.44
24 -0.29
25 -0.3
3 -0.57
34 0.37
35 0.37
36 0.15
37 0.15
38 0.37
39 0.15
4 -0.57
42 0.15
43 0.15
44 0.15
5 -0.66
6 -0.73
7 -0.55
8 -0.73
9 0.3

> <PUBCHEM_EFFECTIVE_ROTOR_COUNT>
6

> <PUBCHEM_PHARMACOPHORE_FEATURES>
11
1 1 hydrophobe
1 2 acceptor
1 25 hydrophobe
1 3 acceptor
1 4 acceptor
1 6 donor
1 7 donor
1 8 donor
6 16 17 19 20 21 22 rings
6 5 9 10 11 12 13 rings
7 5 7 10 14 15 16 17 rings

> <PUBCHEM_HEAVY_ATOM_COUNT>
25

> <PUBCHEM_ATOM_DEF_STEREO_COUNT>
2

> <PUBCHEM_ATOM_UDEF_STEREO_COUNT>
0

> <PUBCHEM_BOND_DEF_STEREO_COUNT>
0

> <PUBCHEM_BOND_UDEF_STEREO_COUNT>
0

> <PUBCHEM_ISOTOPIC_ATOM_COUNT>
0

> <PUBCHEM_COMPONENT_COUNT>
1

> <PUBCHEM_CACTVS_TAUTO_COUNT>
9

> <PUBCHEM_CONFORMER_ID>
008FCDBD00000001

> <PUBCHEM_MMFF94_ENERGY>
67.7966

> <PUBCHEM_FEATURE_SELFOVERLAP>
55.896

> <PUBCHEM_SHAPE_FINGERPRINT>
11315181 36 18261115205046018948
12011746 2 18260826016260214599
12616971 3 13470400085219140296
12760667 363 18272654554104889513
12954195 1 18410855430607190489
13288520 33 18413110575989129861
13782708 43 17561084679415076886
13862211 1 18060419123024631436
14931854 50 18260537906002189031
15183329 4 17749388153152739058
1813 80 14979688744279423105
18927931 339 18409456890413050431
19377110 9 13326854401269391132
19958102 18 18040999510385566542
200 152 17917713543468659961
2026 5 17846219895717158822
21150785 3 15140962893543334619
21236236 1 18341336617254511441
21267235 1 18335423521657211563
21279426 13 18260541264555798993
21637258 2 16845569837907230709
21682296 61 18131357388471627246
2215653 11 18335138696247339798
22393880 68 18116979169958459503
23402539 116 18411700993376504277
23522609 53 17914087345383530528
23559900 14 18263641929890203081
3004659 81 18113615712106794612
335352 9 18408600375593196093
3633792 109 17967812747764936212
465052 167 18131918178509952044
5718773 13 18059852882973605582
59682541 35 10087637135425989261
59755656 215 18335135380015921558
6138700 20 18409450267436446870

> <PUBCHEM_SHAPE_MULTIPOLES>
482.9
17.67
2.32
1.29
18.08
0.45
-0.02
-10.39
-9.96
0.57
0.25
-0.89
-0.48
0.92

> <PUBCHEM_SHAPE_SELFOVERLAP>
1010.955

> <PUBCHEM_SHAPE_VOLUME>
274.9

> <PUBCHEM_COORDINATE_TYPE>
2
5
10

$$$$
