11884045
  -OEChem-12032416173D

 60 64  0     1  0  0  0  0  0999 V2000
    5.7847   -1.1875   -1.7197 S   0  0  0  0  0  0  0  0  0  0  0  0
    1.6842    1.2069   -1.6101 O   0  0  0  0  0  0  0  0  0  0  0  0
    3.3180    2.1154    0.8326 O   0  0  0  0  0  0  0  0  0  0  0  0
   -0.2023    2.1869    0.1713 O   0  0  0  0  0  0  0  0  0  0  0  0
    6.4240   -0.3343   -2.7031 O   0  0  0  0  0  0  0  0  0  0  0  0
    5.7627   -2.6258   -1.9054 O   0  0  0  0  0  0  0  0  0  0  0  0
   -1.3447    0.4932    1.1990 O   0  0  0  0  0  0  0  0  0  0  0  0
   -7.7955    0.6328    0.2382 O   0  0  0  0  0  0  0  0  0  0  0  0
    4.1981   -0.6473   -1.4484 N   0  0  0  0  0  0  0  0  0  0  0  0
   -2.4426    2.1169   -0.0812 N   0  0  0  0  0  0  0  0  0  0  0  0
    4.2594   -3.3267    0.9552 N   0  0  0  0  0  0  0  0  0  0  0  0
    3.1565    0.8233    0.2110 C   0  0  1  0  0  0  0  0  0  0  0  0
    1.7160    0.7353   -0.2529 C   0  0  1  0  0  0  0  0  0  0  0  0
    3.9552    0.7645   -1.0674 C   0  0  2  0  0  0  0  0  0  0  0  0
    1.0102    1.6844    0.6856 C   0  0  1  0  0  0  0  0  0  0  0  0
    3.0268    1.4146   -2.0747 C   0  0  0  0  0  0  0  0  0  0  0  0
    2.0429    2.7724    0.8739 C   0  0  0  0  0  0  0  0  0  0  0  0
    6.5472   -0.8816   -0.1545 C   0  0  0  0  0  0  0  0  0  0  0  0
   -1.3518    1.4973    0.4973 C   0  0  0  0  0  0  0  0  0  0  0  0
    6.1530   -1.5570    1.0007 C   0  0  0  0  0  0  0  0  0  0  0  0
    7.5693    0.0658   -0.0939 C   0  0  0  0  0  0  0  0  0  0  0  0
    6.7809   -1.2850    2.2162 C   0  0  0  0  0  0  0  0  0  0  0  0
    8.1972    0.3377    1.1217 C   0  0  0  0  0  0  0  0  0  0  0  0
   -3.8022    1.7390   -0.0007 C   0  0  0  0  0  0  0  0  0  0  0  0
    7.8030   -0.3376    2.2765 C   0  0  0  0  0  0  0  0  0  0  0  0
    5.1071   -2.5344    0.9756 C   0  0  0  0  0  0  0  0  0  0  0  0
   -4.7754    2.4927   -0.6569 C   0  0  0  0  0  0  0  0  0  0  0  0
   -4.1711    0.6132    0.7357 C   0  0  0  0  0  0  0  0  0  0  0  0
   -6.1172    2.1209   -0.5768 C   0  0  0  0  0  0  0  0  0  0  0  0
   -5.5131    0.2412    0.8158 C   0  0  0  0  0  0  0  0  0  0  0  0
   -6.4861    0.9952    0.1596 C   0  0  0  0  0  0  0  0  0  0  0  0
   -8.1042   -0.7065    0.0682 C   0  0  0  0  0  0  0  0  0  0  0  0
   -9.0031   -1.3303    0.9335 C   0  0  0  0  0  0  0  0  0  0  0  0
   -7.5169   -1.4318   -0.9687 C   0  0  0  0  0  0  0  0  0  0  0  0
   -9.3145   -2.6791    0.7619 C   0  0  0  0  0  0  0  0  0  0  0  0
   -7.8285   -2.7805   -1.1403 C   0  0  0  0  0  0  0  0  0  0  0  0
   -8.7272   -3.4041   -0.2750 C   0  0  0  0  0  0  0  0  0  0  0  0
    3.4163    0.0647    0.9546 H   0  0  0  0  0  0  0  0  0  0  0  0
    1.3044   -0.2782   -0.2439 H   0  0  0  0  0  0  0  0  0  0  0  0
    4.8957    1.3208   -1.0157 H   0  0  0  0  0  0  0  0  0  0  0  0
    0.8697    1.1967    1.6602 H   0  0  0  0  0  0  0  0  0  0  0  0
    3.1243    1.0144   -3.0884 H   0  0  0  0  0  0  0  0  0  0  0  0
    3.1897    2.4972   -2.1148 H   0  0  0  0  0  0  0  0  0  0  0  0
    2.0058    3.5241    0.0773 H   0  0  0  0  0  0  0  0  0  0  0  0
    1.9292    3.2942    1.8289 H   0  0  0  0  0  0  0  0  0  0  0  0
    3.4318   -1.3174   -1.3136 H   0  0  0  0  0  0  0  0  0  0  0  0
    7.9000    0.6104   -0.9730 H   0  0  0  0  0  0  0  0  0  0  0  0
   -2.2468    2.9477   -0.6343 H   0  0  0  0  0  0  0  0  0  0  0  0
    6.4858   -1.8017    3.1264 H   0  0  0  0  0  0  0  0  0  0  0  0
    8.9928    1.0756    1.1692 H   0  0  0  0  0  0  0  0  0  0  0  0
    8.2917   -0.1256    3.2230 H   0  0  0  0  0  0  0  0  0  0  0  0
   -4.5014    3.3721   -1.2340 H   0  0  0  0  0  0  0  0  0  0  0  0
   -3.4747   -0.0147    1.2740 H   0  0  0  0  0  0  0  0  0  0  0  0
   -6.8708    2.7117   -1.0902 H   0  0  0  0  0  0  0  0  0  0  0  0
   -5.7752   -0.6266    1.4155 H   0  0  0  0  0  0  0  0  0  0  0  0
   -9.4633   -0.7703    1.7430 H   0  0  0  0  0  0  0  0  0  0  0  0
   -6.8307   -0.9656   -1.6707 H   0  0  0  0  0  0  0  0  0  0  0  0
  -10.0144   -3.1648    1.4356 H   0  0  0  0  0  0  0  0  0  0  0  0
   -7.3752   -3.3441   -1.9506 H   0  0  0  0  0  0  0  0  0  0  0  0
   -8.9707   -4.4539   -0.4092 H   0  0  0  0  0  0  0  0  0  0  0  0
  1  5  2  0  0  0  0
  1  6  2  0  0  0  0
  1  9  1  0  0  0  0
  1 18  1  0  0  0  0
  2 13  1  0  0  0  0
  2 16  1  0  0  0  0
  3 12  1  0  0  0  0
  3 17  1  0  0  0  0
  4 15  1  0  0  0  0
  4 19  1  0  0  0  0
  7 19  2  0  0  0  0
  8 31  1  0  0  0  0
  8 32  1  0  0  0  0
  9 14  1  0  0  0  0
  9 46  1  0  0  0  0
 10 19  1  0  0  0  0
 10 24  1  0  0  0  0
 10 48  1  0  0  0  0
 11 26  3  0  0  0  0
 12 13  1  0  0  0  0
 12 14  1  0  0  0  0
 12 38  1  0  0  0  0
 13 15  1  0  0  0  0
 13 39  1  0  0  0  0
 14 16  1  0  0  0  0
 14 40  1  0  0  0  0
 15 17  1  0  0  0  0
 15 41  1  0  0  0  0
 16 42  1  0  0  0  0
 16 43  1  0  0  0  0
 17 44  1  0  0  0  0
 17 45  1  0  0  0  0
 18 20  1  0  0  0  0
 18 21  2  0  0  0  0
 20 22  2  0  0  0  0
 20 26  1  0  0  0  0
 21 23  1  0  0  0  0
 21 47  1  0  0  0  0
 22 25  1  0  0  0  0
 22 49  1  0  0  0  0
 23 25  2  0  0  0  0
 23 50  1  0  0  0  0
 24 27  2  0  0  0  0
 24 28  1  0  0  0  0
 25 51  1  0  0  0  0
 27 29  1  0  0  0  0
 27 52  1  0  0  0  0
 28 30  2  0  0  0  0
 28 53  1  0  0  0  0
 29 31  2  0  0  0  0
 29 54  1  0  0  0  0
 30 31  1  0  0  0  0
 30 55  1  0  0  0  0
 32 33  2  0  0  0  0
 32 34  1  0  0  0  0
 33 35  1  0  0  0  0
 33 56  1  0  0  0  0
 34 36  2  0  0  0  0
 34 57  1  0  0  0  0
 35 37  2  0  0  0  0
 35 58  1  0  0  0  0
 36 37  1  0  0  0  0
 36 59  1  0  0  0  0
 37 60  1  0  0  0  0
M  END
> <PUBCHEM_COMPOUND_CID>
11884045

> <PUBCHEM_CONFORMER_RMSD>
1.2

> <PUBCHEM_CONFORMER_DIVERSEORDER>
1
114
216
194
5
229
221
191
109
141
187
28
174
220
95
128
219
79
217
63
123
152
178
51
184
57
111
147
130
53
164
112
27
163
76
139
195
24
134
157
223
124
144
138
93
75
197
91
196
32
180
94
158
159
125
136
82
38
6
66
215
60
185
40
199
88
116
108
151
70
140
143
166
4
169
205
107
61
98
50
230
45
160
156
69
49
170
15
202
44
150
171
193
29
231
212
65
213
198
162
30
26
155
115
100
23
39
131
182
207
55
200
20
33
232
222
190
103
149
121
106
14
148
167
137
31
80
203
135
226
47
104
37
19
154
85
127
210
58
122
211
177
192
67
92
142
206
173
74
179
83
64
126
9
224
105
21
117
87
90
129
17
175
189
165
110
34
118
132
218
52
102
161
46
146
225
2
35
48
227
7
77
8
89
86
168
228
101
84
3
36
201
186
183
68
209
25
214
56
120
73
153
97
11
12
72
41
10
188
145
96
113
71
119
54
62
99
204
22
133
42
16
78
208
18
13
176
81
59
43
181
172

> <PUBCHEM_MMFF94_PARTIAL_CHARGES>
52
1 1.45
10 -0.55
11 -0.56
12 0.28
13 0.28
14 0.36
15 0.28
16 0.28
17 0.28
18 -0.01
19 0.78
2 -0.56
20 0.07
21 -0.15
22 -0.15
23 -0.15
24 0.12
25 -0.15
26 0.48
27 -0.15
28 -0.15
29 -0.15
3 -0.56
30 -0.15
31 0.08
32 0.08
33 -0.15
34 -0.15
35 -0.15
36 -0.15
37 -0.15
4 -0.43
46 0.42
47 0.15
48 0.37
49 0.15
5 -0.65
50 0.15
51 0.15
52 0.15
53 0.15
54 0.15
55 0.15
56 0.15
57 0.15
58 0.15
59 0.15
6 -0.65
60 0.15
7 -0.57
8 -0.17
9 -0.91

> <PUBCHEM_EFFECTIVE_ROTOR_COUNT>
10.2

> <PUBCHEM_PHARMACOPHORE_FEATURES>
14
1 10 donor
1 11 acceptor
1 2 acceptor
1 3 acceptor
1 5 acceptor
1 6 acceptor
1 7 acceptor
1 8 acceptor
1 9 donor
5 2 12 13 14 16 rings
5 3 12 13 15 17 rings
6 18 20 21 22 23 25 rings
6 24 27 28 29 30 31 rings
6 32 33 34 35 36 37 rings

> <PUBCHEM_HEAVY_ATOM_COUNT>
37

> <PUBCHEM_ATOM_DEF_STEREO_COUNT>
4

> <PUBCHEM_ATOM_UDEF_STEREO_COUNT>
0

> <PUBCHEM_BOND_DEF_STEREO_COUNT>
0

> <PUBCHEM_BOND_UDEF_STEREO_COUNT>
0

> <PUBCHEM_ISOTOPIC_ATOM_COUNT>
0

> <PUBCHEM_COMPONENT_COUNT>
1

> <PUBCHEM_CACTVS_TAUTO_COUNT>
2

> <PUBCHEM_CONFORMER_ID>
00B5560D00000001

> <PUBCHEM_MMFF94_ENERGY>
102.6059

> <PUBCHEM_FEATURE_SELFOVERLAP>
71.783

> <PUBCHEM_SHAPE_FINGERPRINT>
10 15 13110965323399880769
10162869 55 17385724708272851686
11135609 127 17095816516285607124
11386260 185 16081371898671753749
11408170 132 11386354937741698688
11409948 41 16009016256095426496
12728208 25 17632296740426702027
13165054 189 18059286686905675080
13627175 4 18187651336611852515
13692114 37 18260827124990155354
13782708 43 18201720691637993805
13811026 1 18408605893950685107
15183329 4 17386582249717069020
15350500 55 8070033251138821057
16990366 60 18411980291153079233
17134984 74 18334582326320868614
1754908 1 17275106132962512171
18335252 114 14634873063192750340
2026 5 18336548222667383243
21130935 74 17916311537178136590
21362857 166 18187925144771323991
21792938 703 18271258161722224642
22149856 69 17203059503517284960
23576562 1 12974466517005174235
2747138 104 17489873708818924193
3383291 50 18202003231418765559
4066623 53 15357699661340932076
4149490 64 18342172323395888088
42767 39 18260828159544328443
4339292 15 18342166801043254839
437795 163 18408319969668073395
44802255 64 13334734653447493385
504579 68 15791729711520781625
6201320 221 14852426750654971704
6289498 60 11671793650346445683
9831232 110 18337387149796165805
9962374 69 18334293210270589625

> <PUBCHEM_SHAPE_MULTIPOLES>
709.26
34.08
3.52
1.84
40.71
1.56
-0.54
26.8
3.73
4.35
0
-4.48
0.55
-0.58

> <PUBCHEM_SHAPE_SELFOVERLAP>
1537.644

> <PUBCHEM_SHAPE_VOLUME>
386.5

> <PUBCHEM_COORDINATE_TYPE>
2
5
10

$$$$
