26743149
  -OEChem-12032416193D

 60 63  0     1  0  0  0  0  0999 V2000
    1.7481    1.6161    1.6308 O   0  0  0  0  0  0  0  0  0  0  0  0
    0.3736   -3.6213    0.1299 O   0  0  0  0  0  0  0  0  0  0  0  0
   -2.4500   -1.8416   -0.4830 O   0  0  0  0  0  0  0  0  0  0  0  0
    6.4422   -0.6085    0.0257 N   0  0  0  0  0  0  0  0  0  0  0  0
    1.6237    2.9097   -0.2959 N   0  0  0  0  0  0  0  0  0  0  0  0
    1.6601   -3.5652   -0.3925 N   0  0  0  0  0  0  0  0  0  0  0  0
    3.5605   -0.2030    0.5134 C   0  0  1  0  0  0  0  0  0  0  0  0
    4.1082   -1.3759   -0.3342 C   0  0  2  0  0  0  0  0  0  0  0  0
    4.6537    0.2647    1.4888 C   0  0  0  0  0  0  0  0  0  0  0  0
    5.4621   -1.0292   -0.9761 C   0  0  0  0  0  0  0  0  0  0  0  0
    5.9796    0.5511    0.7852 C   0  0  0  0  0  0  0  0  0  0  0  0
    3.1195   -1.8617   -1.3948 C   0  0  0  0  0  0  0  0  0  0  0  0
    3.0309    0.9725   -0.3166 C   0  0  0  0  0  0  0  0  0  0  0  0
    1.8224   -2.2956   -0.7756 C   0  0  0  0  0  0  0  0  0  0  0  0
    2.0733    1.8431    0.4687 C   0  0  0  0  0  0  0  0  0  0  0  0
    0.6833   -1.5120   -0.5227 C   0  0  0  0  0  0  0  0  0  0  0  0
   -0.1979   -2.3927    0.0468 C   0  0  0  0  0  0  0  0  0  0  0  0
    0.6973    3.9013    0.2006 C   0  0  0  0  0  0  0  0  0  0  0  0
   -1.5684   -2.2716    0.5580 C   0  0  0  0  0  0  0  0  0  0  0  0
   -0.7305    3.5146   -0.0560 C   0  0  0  0  0  0  0  0  0  0  0  0
   -1.3561    3.9033   -1.2405 C   0  0  0  0  0  0  0  0  0  0  0  0
   -1.4315    2.7667    0.8899 C   0  0  0  0  0  0  0  0  0  0  0  0
   -2.6827    3.5442   -1.4793 C   0  0  0  0  0  0  0  0  0  0  0  0
   -2.7580    2.4075    0.6514 C   0  0  0  0  0  0  0  0  0  0  0  0
   -3.7516   -1.6241   -0.1276 C   0  0  0  0  0  0  0  0  0  0  0  0
   -3.3836    2.7963   -0.5333 C   0  0  0  0  0  0  0  0  0  0  0  0
   -4.1568   -1.8230    1.1923 C   0  0  0  0  0  0  0  0  0  0  0  0
   -4.6748   -1.2031   -1.0846 C   0  0  0  0  0  0  0  0  0  0  0  0
   -5.4853   -1.6010    1.5551 C   0  0  0  0  0  0  0  0  0  0  0  0
   -6.0032   -0.9811   -0.7220 C   0  0  0  0  0  0  0  0  0  0  0  0
   -6.4085   -1.1801    0.5979 C   0  0  0  0  0  0  0  0  0  0  0  0
    2.7454   -0.5923    1.1366 H   0  0  0  0  0  0  0  0  0  0  0  0
    4.2879   -2.2125    0.3594 H   0  0  0  0  0  0  0  0  0  0  0  0
    4.8149   -0.5206    2.2400 H   0  0  0  0  0  0  0  0  0  0  0  0
    4.3363    1.1551    2.0426 H   0  0  0  0  0  0  0  0  0  0  0  0
    5.8575   -1.9121   -1.4915 H   0  0  0  0  0  0  0  0  0  0  0  0
    5.3434   -0.2464   -1.7355 H   0  0  0  0  0  0  0  0  0  0  0  0
    5.9028    1.4275    0.1324 H   0  0  0  0  0  0  0  0  0  0  0  0
    6.7341    0.7933    1.5422 H   0  0  0  0  0  0  0  0  0  0  0  0
    3.5562   -2.7214   -1.9221 H   0  0  0  0  0  0  0  0  0  0  0  0
    2.9394   -1.1140   -2.1743 H   0  0  0  0  0  0  0  0  0  0  0  0
    2.4794    0.6473   -1.2008 H   0  0  0  0  0  0  0  0  0  0  0  0
    3.8471    1.6037   -0.6838 H   0  0  0  0  0  0  0  0  0  0  0  0
    7.3211   -0.3799   -0.4376 H   0  0  0  0  0  0  0  0  0  0  0  0
    0.5054   -0.4682   -0.7298 H   0  0  0  0  0  0  0  0  0  0  0  0
    1.9393    2.9994   -1.2575 H   0  0  0  0  0  0  0  0  0  0  0  0
    0.9339    4.8502   -0.2940 H   0  0  0  0  0  0  0  0  0  0  0  0
    0.8647    4.0515    1.2738 H   0  0  0  0  0  0  0  0  0  0  0  0
   -1.8947   -3.2447    0.9463 H   0  0  0  0  0  0  0  0  0  0  0  0
   -1.5436   -1.5300    1.3670 H   0  0  0  0  0  0  0  0  0  0  0  0
   -0.8201    4.4845   -1.9862 H   0  0  0  0  0  0  0  0  0  0  0  0
   -0.9581    2.4581    1.8179 H   0  0  0  0  0  0  0  0  0  0  0  0
   -3.1696    3.8460   -2.4019 H   0  0  0  0  0  0  0  0  0  0  0  0
   -3.3037    1.8237    1.3871 H   0  0  0  0  0  0  0  0  0  0  0  0
   -4.4161    2.5150   -0.7193 H   0  0  0  0  0  0  0  0  0  0  0  0
   -3.4994   -2.1526    1.9891 H   0  0  0  0  0  0  0  0  0  0  0  0
   -4.3645   -1.0456   -2.1140 H   0  0  0  0  0  0  0  0  0  0  0  0
   -5.8022   -1.7563    2.5823 H   0  0  0  0  0  0  0  0  0  0  0  0
   -6.7218   -0.6528   -1.4671 H   0  0  0  0  0  0  0  0  0  0  0  0
   -7.4429   -1.0071    0.8803 H   0  0  0  0  0  0  0  0  0  0  0  0
  1 15  2  0  0  0  0
  2  6  1  0  0  0  0
  2 17  1  0  0  0  0
  3 19  1  0  0  0  0
  3 25  1  0  0  0  0
  4 10  1  0  0  0  0
  4 11  1  0  0  0  0
  4 44  1  0  0  0  0
  5 15  1  0  0  0  0
  5 18  1  0  0  0  0
  5 46  1  0  0  0  0
  6 14  2  0  0  0  0
  7  8  1  0  0  0  0
  7  9  1  0  0  0  0
  7 13  1  0  0  0  0
  7 32  1  0  0  0  0
  8 10  1  0  0  0  0
  8 12  1  0  0  0  0
  8 33  1  0  0  0  0
  9 11  1  0  0  0  0
  9 34  1  0  0  0  0
  9 35  1  0  0  0  0
 10 36  1  0  0  0  0
 10 37  1  0  0  0  0
 11 38  1  0  0  0  0
 11 39  1  0  0  0  0
 12 14  1  0  0  0  0
 12 40  1  0  0  0  0
 12 41  1  0  0  0  0
 13 15  1  0  0  0  0
 13 42  1  0  0  0  0
 13 43  1  0  0  0  0
 14 16  1  0  0  0  0
 16 17  2  0  0  0  0
 16 45  1  0  0  0  0
 17 19  1  0  0  0  0
 18 20  1  0  0  0  0
 18 47  1  0  0  0  0
 18 48  1  0  0  0  0
 19 49  1  0  0  0  0
 19 50  1  0  0  0  0
 20 21  2  0  0  0  0
 20 22  1  0  0  0  0
 21 23  1  0  0  0  0
 21 51  1  0  0  0  0
 22 24  2  0  0  0  0
 22 52  1  0  0  0  0
 23 26  2  0  0  0  0
 23 53  1  0  0  0  0
 24 26  1  0  0  0  0
 24 54  1  0  0  0  0
 25 27  2  0  0  0  0
 25 28  1  0  0  0  0
 26 55  1  0  0  0  0
 27 29  1  0  0  0  0
 27 56  1  0  0  0  0
 28 30  2  0  0  0  0
 28 57  1  0  0  0  0
 29 31  2  0  0  0  0
 29 58  1  0  0  0  0
 30 31  1  0  0  0  0
 30 59  1  0  0  0  0
 31 60  1  0  0  0  0
M  END
> <PUBCHEM_COMPOUND_CID>
26743149

> <PUBCHEM_CONFORMER_RMSD>
1.4

> <PUBCHEM_CONFORMER_DIVERSEORDER>
1
105
38
76
13
32
115
24
39
82
113
18
109
86
100
73
108
58
21
64
81
79
34
68
27
78
26
29
84
3
2
122
119
36
28
16
15
125
99
31
90
46
65
91
60
97
106
25
88
87
42
37
40
17
55
47
43
101
48
121
44
112
11
83
14
103
33
116
6
72
77
59
54
124
35
107
12
51
71
8
104
19
61
53
22
110
10
9
49
85
102
23
111
7
117
123
98
63
41
118
5
114
70
95
52
75
56
69
57
74
62
4
93
30
80
67
120
45
66
94
89
96
20
50
92

> <PUBCHEM_MMFF94_PARTIAL_CHARGES>
41
1 -0.57
10 0.27
11 0.27
12 0.18
13 0.06
14 0.11
15 0.57
16 -0.15
17 -0.04
18 0.44
19 0.46
2 -0.02
20 -0.14
21 -0.15
22 -0.15
23 -0.15
24 -0.15
25 0.08
26 -0.15
27 -0.15
28 -0.15
29 -0.15
3 -0.36
30 -0.15
31 -0.15
4 -0.9
44 0.36
45 0.15
46 0.37
5 -0.73
51 0.15
52 0.15
53 0.15
54 0.15
55 0.15
56 0.15
57 0.15
58 0.15
59 0.15
6 -0.41
60 0.15

> <PUBCHEM_EFFECTIVE_ROTOR_COUNT>
11.2

> <PUBCHEM_PHARMACOPHORE_FEATURES>
10
1 1 acceptor
1 3 acceptor
1 4 cation
1 4 donor
1 5 donor
1 6 acceptor
5 2 6 14 16 17 rings
6 20 21 22 23 24 26 rings
6 25 27 28 29 30 31 rings
6 4 7 8 9 10 11 rings

> <PUBCHEM_HEAVY_ATOM_COUNT>
31

> <PUBCHEM_ATOM_DEF_STEREO_COUNT>
2

> <PUBCHEM_ATOM_UDEF_STEREO_COUNT>
0

> <PUBCHEM_BOND_DEF_STEREO_COUNT>
0

> <PUBCHEM_BOND_UDEF_STEREO_COUNT>
0

> <PUBCHEM_ISOTOPIC_ATOM_COUNT>
0

> <PUBCHEM_COMPONENT_COUNT>
1

> <PUBCHEM_CACTVS_TAUTO_COUNT>
2

> <PUBCHEM_CONFORMER_ID>
0198116D00000001

> <PUBCHEM_MMFF94_ENERGY>
62.166

> <PUBCHEM_FEATURE_SELFOVERLAP>
50.747

> <PUBCHEM_SHAPE_FINGERPRINT>
10670039 82 18264226759055598054
10688039 33 18334015007752691492
11646440 116 18337117842725906187
11828532 37 17897168138228564899
12422481 6 18269855189359251585
12788726 201 18260544520188651546
13402501 40 18412542123934533155
13561361 72 18410569583084578520
14117953 113 18412826902284478639
14725015 67 18335691767401239467
150020 26 17832435567805302665
15483637 11 18194121820032309525
17627616 140 17900253113846041227
20764821 26 18338246946477657533
20775438 99 17763712448842148823
20775530 9 18411975867167933041
21360443 126 18189893123992178877
3052486 1 18336548223014756550
469060 322 18263380147765332113
484989 97 18270686338761827030
50150288 127 16125850236486828201
508706 21 18336266751958551187
550186 83 17897142805835947305
653340 110 18340768122324016752

> <PUBCHEM_SHAPE_MULTIPOLES>
605.41
13.51
5.65
1.31
0.19
4.43
-0.1
-7.14
-1.56
3.02
1.02
0.27
0.17
2.1

> <PUBCHEM_SHAPE_SELFOVERLAP>
1286.706

> <PUBCHEM_SHAPE_VOLUME>
334.9

> <PUBCHEM_COORDINATE_TYPE>
2
5
10

$$$$
