51137899
  -OEChem-12032416143D

 50 53  0     1  0  0  0  0  0999 V2000
    7.3169    0.2002    0.0933 O   0  0  0  0  0  0  0  0  0  0  0  0
    1.2386    0.7347   -0.6652 N   0  0  1  0  0  0  0  0  0  0  0  0
    5.1191   -0.3372    0.6210 N   0  0  0  0  0  0  0  0  0  0  0  0
   -3.1961   -0.7154   -0.9407 N   0  0  0  0  0  0  0  0  0  0  0  0
   -2.9630    1.0548    0.3829 N   0  0  0  0  0  0  0  0  0  0  0  0
    2.3568    0.4344    0.2256 C   0  0  0  0  0  0  0  0  0  0  0  0
   -1.0448    0.5766   -1.1759 C   0  0  2  0  0  0  0  0  0  0  0  0
    0.0901   -0.1447   -0.4364 C   0  0  0  0  0  0  0  0  0  0  0  0
    0.7210    2.0892   -0.4723 C   0  0  0  0  0  0  0  0  0  0  0  0
   -0.6102    2.0521   -1.2119 C   0  0  0  0  0  0  0  0  0  0  0  0
    2.8252   -1.0112    0.0140 C   0  0  0  0  0  0  0  0  0  0  0  0
    3.5098    1.4141   -0.0278 C   0  0  0  0  0  0  0  0  0  0  0  0
    4.0556   -1.3192    0.8672 C   0  0  0  0  0  0  0  0  0  0  0  0
    4.7253    1.0582    0.8264 C   0  0  0  0  0  0  0  0  0  0  0  0
   -2.4016    0.3291   -0.5579 C   0  0  0  0  0  0  0  0  0  0  0  0
    6.4309   -0.6421    0.2596 C   0  0  0  0  0  0  0  0  0  0  0  0
   -4.3470   -0.6602   -0.1971 C   0  0  0  0  0  0  0  0  0  0  0  0
   -4.1773    0.4531    0.6212 C   0  0  0  0  0  0  0  0  0  0  0  0
   -2.8833   -1.7036   -1.9483 C   0  0  0  0  0  0  0  0  0  0  0  0
    6.7562   -2.1014    0.0643 C   0  0  0  0  0  0  0  0  0  0  0  0
   -5.4872   -1.4641   -0.1711 C   0  0  0  0  0  0  0  0  0  0  0  0
   -5.1954    0.8000    1.5254 C   0  0  0  0  0  0  0  0  0  0  0  0
   -6.4904   -1.1043    0.7348 C   0  0  0  0  0  0  0  0  0  0  0  0
   -6.3492    0.0072    1.5689 C   0  0  0  0  0  0  0  0  0  0  0  0
    2.0413    0.5415    1.2738 H   0  0  0  0  0  0  0  0  0  0  0  0
   -1.0619    0.2348   -2.2200 H   0  0  0  0  0  0  0  0  0  0  0  0
   -0.1396   -0.2475    0.6328 H   0  0  0  0  0  0  0  0  0  0  0  0
    0.2362   -1.1435   -0.8602 H   0  0  0  0  0  0  0  0  0  0  0  0
    0.5503    2.3168    0.5878 H   0  0  0  0  0  0  0  0  0  0  0  0
    1.3645    2.8619   -0.9037 H   0  0  0  0  0  0  0  0  0  0  0  0
   -1.3325    2.7421   -0.7641 H   0  0  0  0  0  0  0  0  0  0  0  0
   -0.4666    2.3612   -2.2553 H   0  0  0  0  0  0  0  0  0  0  0  0
    3.0723   -1.1755   -1.0434 H   0  0  0  0  0  0  0  0  0  0  0  0
    2.0462   -1.7323    0.2848 H   0  0  0  0  0  0  0  0  0  0  0  0
    3.2265    2.4443    0.2133 H   0  0  0  0  0  0  0  0  0  0  0  0
    3.7966    1.3910   -1.0877 H   0  0  0  0  0  0  0  0  0  0  0  0
    3.8047   -1.2629    1.9332 H   0  0  0  0  0  0  0  0  0  0  0  0
    4.3871   -2.3398    0.6685 H   0  0  0  0  0  0  0  0  0  0  0  0
    5.5524    1.7353    0.5906 H   0  0  0  0  0  0  0  0  0  0  0  0
    4.4958    1.1802    1.8917 H   0  0  0  0  0  0  0  0  0  0  0  0
   -3.6032   -2.5233   -1.9141 H   0  0  0  0  0  0  0  0  0  0  0  0
   -1.8856   -2.1039   -1.7534 H   0  0  0  0  0  0  0  0  0  0  0  0
   -2.9223   -1.2185   -2.9268 H   0  0  0  0  0  0  0  0  0  0  0  0
    7.8071   -2.2046   -0.2234 H   0  0  0  0  0  0  0  0  0  0  0  0
    6.6029   -2.6512    0.9967 H   0  0  0  0  0  0  0  0  0  0  0  0
    6.1415   -2.5221   -0.7359 H   0  0  0  0  0  0  0  0  0  0  0  0
   -5.6061   -2.3270   -0.8159 H   0  0  0  0  0  0  0  0  0  0  0  0
   -5.0952    1.6617    2.1776 H   0  0  0  0  0  0  0  0  0  0  0  0
   -7.3973   -1.7015    0.7899 H   0  0  0  0  0  0  0  0  0  0  0  0
   -7.1463    0.2618    2.2627 H   0  0  0  0  0  0  0  0  0  0  0  0
  1 16  2  0  0  0  0
  2  6  1  0  0  0  0
  2  8  1  0  0  0  0
  2  9  1  0  0  0  0
  3 13  1  0  0  0  0
  3 14  1  0  0  0  0
  3 16  1  0  0  0  0
  4 15  1  0  0  0  0
  4 17  1  0  0  0  0
  4 19  1  0  0  0  0
  5 15  2  0  0  0  0
  5 18  1  0  0  0  0
  6 11  1  0  0  0  0
  6 12  1  0  0  0  0
  6 25  1  0  0  0  0
  7  8  1  0  0  0  0
  7 10  1  0  0  0  0
  7 15  1  0  0  0  0
  7 26  1  0  0  0  0
  8 27  1  0  0  0  0
  8 28  1  0  0  0  0
  9 10  1  0  0  0  0
  9 29  1  0  0  0  0
  9 30  1  0  0  0  0
 10 31  1  0  0  0  0
 10 32  1  0  0  0  0
 11 13  1  0  0  0  0
 11 33  1  0  0  0  0
 11 34  1  0  0  0  0
 12 14  1  0  0  0  0
 12 35  1  0  0  0  0
 12 36  1  0  0  0  0
 13 37  1  0  0  0  0
 13 38  1  0  0  0  0
 14 39  1  0  0  0  0
 14 40  1  0  0  0  0
 16 20  1  0  0  0  0
 17 18  1  0  0  0  0
 17 21  2  0  0  0  0
 18 22  2  0  0  0  0
 19 41  1  0  0  0  0
 19 42  1  0  0  0  0
 19 43  1  0  0  0  0
 20 44  1  0  0  0  0
 20 45  1  0  0  0  0
 20 46  1  0  0  0  0
 21 23  1  0  0  0  0
 21 47  1  0  0  0  0
 22 24  1  0  0  0  0
 22 48  1  0  0  0  0
 23 24  2  0  0  0  0
 23 49  1  0  0  0  0
 24 50  1  0  0  0  0
M  END
> <PUBCHEM_COMPOUND_CID>
51137899

> <PUBCHEM_CONFORMER_RMSD>
0.8

> <PUBCHEM_CONFORMER_DIVERSEORDER>
1
35
14
19
22
11
36
9
32
17
37
20
5
31
30
26
21
29
18
15
28
27
8
34
3
12
23
10
6
13
33
25
24
7
16
4
2

> <PUBCHEM_MMFF94_PARTIAL_CHARGES>
25
1 -0.57
13 0.3
14 0.3
15 0.01
16 0.57
17 -0.15
18 0.23
19 0.26
2 -0.81
20 0.06
21 -0.15
22 -0.15
23 -0.15
24 -0.15
3 -0.66
4 0.05
47 0.15
48 0.15
49 0.15
5 -0.57
50 0.15
6 0.27
7 0.18
8 0.27
9 0.27

> <PUBCHEM_EFFECTIVE_ROTOR_COUNT>
5.2

> <PUBCHEM_PHARMACOPHORE_FEATURES>
7
1 1 acceptor
1 2 cation
3 4 5 15 cation
5 2 7 8 9 10 rings
5 4 5 15 17 18 rings
6 17 18 21 22 23 24 rings
6 3 6 11 12 13 14 rings

> <PUBCHEM_HEAVY_ATOM_COUNT>
24

> <PUBCHEM_ATOM_DEF_STEREO_COUNT>
1

> <PUBCHEM_ATOM_UDEF_STEREO_COUNT>
0

> <PUBCHEM_BOND_DEF_STEREO_COUNT>
0

> <PUBCHEM_BOND_UDEF_STEREO_COUNT>
0

> <PUBCHEM_ISOTOPIC_ATOM_COUNT>
0

> <PUBCHEM_COMPONENT_COUNT>
1

> <PUBCHEM_CACTVS_TAUTO_COUNT>
1

> <PUBCHEM_CONFORMER_ID>
030C4D6B00000001

> <PUBCHEM_MMFF94_ENERGY>
44.099

> <PUBCHEM_FEATURE_SELFOVERLAP>
35.63

> <PUBCHEM_SHAPE_FINGERPRINT>
10 15 16988845016052585721
10299344 5 18413673517737595510
10319926 262 16917347073401677007
11089746 13 10663815278628199050
11315181 36 18202280334097026761
12236239 1 18272652376224206609
12516196 113 18333168371283797152
12596602 18 18060700619222951811
12616971 3 18412542149788954164
12633257 1 17489304217867597033
12760667 363 17966972720960228273
13533116 47 18334860571039626088
13540713 5 17913769694191963749
13583140 156 14907890609015107143
13668630 136 16805325487479801018
13673619 4 17749107794308739796
13685833 64 18113620088335409146
13914758 101 18334289865429764045
14123256 34 17748831821247977459
1420 363 17749109980831721322
14251764 18 18201439202995380180
14341114 176 18201717375311396288
14528608 73 9367347020387544785
14556957 393 14779838100669093982
14739800 52 17344062137415937001
14849402 71 18129378371106928664
15238133 3 16917353644928513024
15348495 7 16630234913834939714
15461852 350 16988555806705191677
15510800 12 17023762229045488779
15537594 2 18334287661146638126
15716309 27 18408323280649540930
16110190 28 18342458161800616054
17780758 139 18201718457774614281
17980427 23 17131828820182066261
1813 80 18114190717527046957
18335252 98 18261112959854094602
20281389 69 13830128382404654994
20715895 44 10807928280808573818
21150785 3 14056723452549819706
21267235 1 18335140869822298116
21315763 76 10375867494071251146
21623969 137 17967535666260233330
22950370 63 18411696599967683084
23522609 53 18192459457489087532
23559900 14 12829495886759109063
25147074 1 18127973220672913165
2747138 104 18040722480451983688
2767999 5 12103844553318917754
2838139 119 12967126095019395843
29717793 49 11746926573800403616
300161 21 10159696898074442772
3004659 81 16370727049606916764
312425 54 17846488262563905242
351380 3 18334009488983525138
3663271 9 17917426570685838906
3737641 26 18265049133381337330
4093350 32 16917071105791942704
465052 167 18410293606198613702
5104073 3 17845648282418165370
5385378 56 14117531917053598396
54039377 194 18338517418914467358
5758199 1 18269270326604206496
59682541 35 18187921820836038656
59755656 215 17240483598225052098
59755656 520 12751232593228380925
9862886 166 15791739615308898832
999808 66 17967258593767432571

> <PUBCHEM_SHAPE_MULTIPOLES>
468.12
18.93
1.88
1.31
10.96
0.08
-0.13
-8.15
7.52
0.91
-0.4
-1.72
-0.06
-0.8

> <PUBCHEM_SHAPE_SELFOVERLAP>
1003.265

> <PUBCHEM_SHAPE_VOLUME>
259.7

> <PUBCHEM_COORDINATE_TYPE>
2
5
10

$$$$
