45784196
  -OEChem-12032416243D

 41 44  0     1  0  0  0  0  0999 V2000
    2.5030   -1.5354    0.1990 O   0  0  0  0  0  0  0  0  0  0  0  0
   -2.0322   -0.2594   -0.1389 N   0  0  1  0  0  0  0  0  0  0  0  0
    2.1112    0.6959    0.1305 N   0  0  0  0  0  0  0  0  0  0  0  0
   -4.9353    1.3513    0.1405 N   0  0  0  0  0  0  0  0  0  0  0  0
    0.1553   -0.9125    0.3976 C   0  0  1  0  0  0  0  0  0  0  0  0
   -0.5360   -0.3496    1.6516 C   0  0  0  0  0  0  0  0  0  0  0  0
   -0.7255   -0.4515   -0.7715 C   0  0  0  0  0  0  0  0  0  0  0  0
   -1.7431    0.4164    1.1259 C   0  0  0  0  0  0  0  0  0  0  0  0
    1.6038   -0.5125    0.2374 C   0  0  0  0  0  0  0  0  0  0  0  0
   -2.9483    0.5006   -0.9765 C   0  0  0  0  0  0  0  0  0  0  0  0
   -4.3797    0.3261   -0.5435 C   0  0  0  0  0  0  0  0  0  0  0  0
    3.4600    0.4631    0.0105 C   0  0  0  0  0  0  0  0  0  0  0  0
    3.7036   -0.9018    0.0521 C   0  0  0  0  0  0  0  0  0  0  0  0
   -5.0456   -0.8474   -0.8589 C   0  0  0  0  0  0  0  0  0  0  0  0
    4.5437    1.3407   -0.1367 C   0  0  0  0  0  0  0  0  0  0  0  0
    4.9612   -1.4847   -0.0422 C   0  0  0  0  0  0  0  0  0  0  0  0
    5.8293    0.7894   -0.2354 C   0  0  0  0  0  0  0  0  0  0  0  0
    6.0314   -0.5955   -0.1888 C   0  0  0  0  0  0  0  0  0  0  0  0
   -6.3669   -0.9768   -0.4457 C   0  0  0  0  0  0  0  0  0  0  0  0
   -6.2211    1.1894    0.5256 C   0  0  0  0  0  0  0  0  0  0  0  0
    7.0042    1.6981   -0.3929 C   0  0  0  0  0  0  0  0  0  0  0  0
   -6.9733    0.0564    0.2601 C   0  0  0  0  0  0  0  0  0  0  0  0
    0.1090   -2.0092    0.4584 H   0  0  0  0  0  0  0  0  0  0  0  0
   -0.8651   -1.1797    2.2891 H   0  0  0  0  0  0  0  0  0  0  0  0
    0.1136    0.2945    2.2538 H   0  0  0  0  0  0  0  0  0  0  0  0
   -0.3511    0.4836   -1.2092 H   0  0  0  0  0  0  0  0  0  0  0  0
   -0.7644   -1.2088   -1.5621 H   0  0  0  0  0  0  0  0  0  0  0  0
   -2.5794    0.3662    1.8303 H   0  0  0  0  0  0  0  0  0  0  0  0
   -1.4731    1.4697    0.9763 H   0  0  0  0  0  0  0  0  0  0  0  0
   -2.8830    0.1532   -2.0170 H   0  0  0  0  0  0  0  0  0  0  0  0
   -2.6882    1.5672   -1.0064 H   0  0  0  0  0  0  0  0  0  0  0  0
    4.3847    2.4137   -0.1744 H   0  0  0  0  0  0  0  0  0  0  0  0
   -4.5642   -1.6480   -1.4103 H   0  0  0  0  0  0  0  0  0  0  0  0
    5.1066   -2.5571   -0.0055 H   0  0  0  0  0  0  0  0  0  0  0  0
    7.0376   -1.0017   -0.2691 H   0  0  0  0  0  0  0  0  0  0  0  0
   -6.9232   -1.8812   -0.6733 H   0  0  0  0  0  0  0  0  0  0  0  0
   -6.6474    2.0235    1.0730 H   0  0  0  0  0  0  0  0  0  0  0  0
    7.8875    1.2896    0.1099 H   0  0  0  0  0  0  0  0  0  0  0  0
    6.8092    2.6803    0.0510 H   0  0  0  0  0  0  0  0  0  0  0  0
    7.2338    1.8335   -1.4544 H   0  0  0  0  0  0  0  0  0  0  0  0
   -8.0021   -0.0227    0.5921 H   0  0  0  0  0  0  0  0  0  0  0  0
  1  9  1  0  0  0  0
  1 13  1  0  0  0  0
  2  7  1  0  0  0  0
  2  8  1  0  0  0  0
  2 10  1  0  0  0  0
  3  9  2  0  0  0  0
  3 12  1  0  0  0  0
  4 11  1  0  0  0  0
  4 20  2  0  0  0  0
  5  6  1  0  0  0  0
  5  7  1  0  0  0  0
  5  9  1  0  0  0  0
  5 23  1  0  0  0  0
  6  8  1  0  0  0  0
  6 24  1  0  0  0  0
  6 25  1  0  0  0  0
  7 26  1  0  0  0  0
  7 27  1  0  0  0  0
  8 28  1  0  0  0  0
  8 29  1  0  0  0  0
 10 11  1  0  0  0  0
 10 30  1  0  0  0  0
 10 31  1  0  0  0  0
 11 14  2  0  0  0  0
 12 13  2  0  0  0  0
 12 15  1  0  0  0  0
 13 16  1  0  0  0  0
 14 19  1  0  0  0  0
 14 33  1  0  0  0  0
 15 17  2  0  0  0  0
 15 32  1  0  0  0  0
 16 18  2  0  0  0  0
 16 34  1  0  0  0  0
 17 18  1  0  0  0  0
 17 21  1  0  0  0  0
 18 35  1  0  0  0  0
 19 22  2  0  0  0  0
 19 36  1  0  0  0  0
 20 22  1  0  0  0  0
 20 37  1  0  0  0  0
 21 38  1  0  0  0  0
 21 39  1  0  0  0  0
 21 40  1  0  0  0  0
 22 41  1  0  0  0  0
M  END
> <PUBCHEM_COMPOUND_CID>
45784196

> <PUBCHEM_CONFORMER_RMSD>
0.6

> <PUBCHEM_CONFORMER_DIVERSEORDER>
1
73
179
168
167
107
83
182
142
161
112
180
154
51
132
137
54
95
128
49
108
35
136
165
121
141
78
181
169
32
56
45
138
139
40
68
23
178
31
176
60
99
131
166
151
110
129
2
98
140
63
115
57
162
135
65
15
127
153
111
114
22
92
145
29
100
171
14
26
104
76
85
144
109
102
62
116
125
130
103
117
126
158
177
97
155
43
124
75
91
74
119
80
175
96
106
30
152
149
50
79
174
105
25
159
134
37
146
118
38
82
41
58
157
147
113
21
173
122
55
94
71
8
3
36
88
133
6
10
150
16
28
42
24
160
77
81
156
9
64
18
53
164
70
123
4
39
33
148
11
52
5
27
66
87
46
7
47
19
34
72
120
13
172
89
143
101
17
90
61
69
48
170
20
44
86
93
12
67
59
84
163

> <PUBCHEM_MMFF94_PARTIAL_CHARGES>
28
1 -0.28
10 0.41
11 0.17
12 0.23
13 0.14
14 -0.15
15 -0.15
16 -0.15
17 -0.14
18 -0.15
19 -0.15
2 -0.81
20 0.16
21 0.14
22 -0.15
3 -0.57
32 0.15
33 0.15
34 0.15
35 0.15
36 0.15
37 0.15
4 -0.62
41 0.15
5 0.18
7 0.27
8 0.27
9 0.3

> <PUBCHEM_EFFECTIVE_ROTOR_COUNT>
4

> <PUBCHEM_PHARMACOPHORE_FEATURES>
6
1 2 cation
1 4 acceptor
5 1 3 9 12 13 rings
5 2 5 6 7 8 rings
6 12 13 15 16 17 18 rings
6 4 11 14 19 20 22 rings

> <PUBCHEM_HEAVY_ATOM_COUNT>
22

> <PUBCHEM_ATOM_DEF_STEREO_COUNT>
1

> <PUBCHEM_ATOM_UDEF_STEREO_COUNT>
0

> <PUBCHEM_BOND_DEF_STEREO_COUNT>
0

> <PUBCHEM_BOND_UDEF_STEREO_COUNT>
0

> <PUBCHEM_ISOTOPIC_ATOM_COUNT>
0

> <PUBCHEM_COMPONENT_COUNT>
1

> <PUBCHEM_CACTVS_TAUTO_COUNT>
1

> <PUBCHEM_CONFORMER_ID>
02BA9C8400000001

> <PUBCHEM_MMFF94_ENERGY>
46.0729

> <PUBCHEM_FEATURE_SELFOVERLAP>
30.566

> <PUBCHEM_SHAPE_FINGERPRINT>
10 15 15068624920262223972
10299344 5 18202282511735383071
10411042 1 17976256834686361898
10595046 47 18412261710125935499
106641 1 14490478611900693428
11315181 36 18411418424200835501
11646440 116 17095529482508183861
12166972 35 18409168813792589620
12236239 1 18202282489553489334
12643181 29 13614519666967782884
12730499 353 18040155089476192890
12788726 201 16773802450467456635
12916748 109 17095521773363289860
13167372 99 18340206284783150744
13533116 47 18130786725115949886
14123256 10 17603584132491362419
14170010 4 18187365450218620044
1420 363 17385726881178319219
14251752 14 17418093200385247105
14251764 18 18260264157803570816
14617045 38 14333414453962483156
14849402 71 18336271252953422221
14856354 85 17561366214821730743
14933364 13 18413109459281802173
15183329 4 17632297865212176897
15537594 2 15841547462093183015
18006028 8 11167944662297746555
18335252 98 18409453621864174331
19489759 90 11386365933617514951
200 152 18130785650698555018
20157964 124 18335421271015142570
2026 5 13900812644277655028
20281389 69 17676202468421388716
20645477 70 18338233765951279838
21150785 3 18060140963957910140
220451 1 17489867137613965663
221357 26 18409164398792822436
22224240 67 16732983149794323818
23035841 295 17846497032955467887
23081809 10 18130497574652659039
23198884 109 18410576180465243619
23424782 7 18335142050543191979
23536379 177 18342738494616465699
23559900 14 18338512057718440257
23569943 247 17388529415600274410
23622692 88 14490476395534044706
2916195 48 17676202459557128045
29717793 49 17775290439674516094
3004659 81 16630525159097841696
335352 9 18408046204990790702
34797466 226 15410895193692425992
3545911 37 18260266356404820254
4073 2 18114467850392450538
4325135 7 18410292528087806997
4340502 62 16298384652351372426
445580 37 17060348396491183681
5283156 175 17060624369878382374
542803 24 18272929414610359871
559249 180 8574711295969968337
5758199 1 18186804677502082531
59682541 35 17167869690469689121
59755656 520 17821723957444269451
9996256 80 18408882927931198293

> <PUBCHEM_SHAPE_MULTIPOLES>
431.94
20.01
1.43
0.97
5.36
0.1
-0.18
4.33
2.57
-1.24
0.04
0.65
-0.02
-0.76

> <PUBCHEM_SHAPE_SELFOVERLAP>
946.051

> <PUBCHEM_SHAPE_VOLUME>
236.2

> <PUBCHEM_COORDINATE_TYPE>
2
5
10

$$$$
