71693646
  -OEChem-12032416233D

 48 50  0     1  0  0  0  0  0999 V2000
    3.7165    1.5506   -0.5043 O   0  0  0  0  0  0  0  0  0  0  0  0
    3.9398   -2.5869   -0.4909 O   0  0  0  0  0  0  0  0  0  0  0  0
    7.2235    1.0455   -0.1309 O   0  0  0  0  0  0  0  0  0  0  0  0
   -3.2347   -0.5784   -1.6925 O   0  0  0  0  0  0  0  0  0  0  0  0
    5.4667   -0.3147    0.5737 N   0  0  0  0  0  0  0  0  0  0  0  0
   -2.4021    0.4274    0.2630 N   0  0  0  0  0  0  0  0  0  0  0  0
    4.0013   -0.5124    0.6926 C   0  0  1  0  0  0  0  0  0  0  0  0
    3.2484    0.2025   -0.4462 C   0  0  1  0  0  0  0  0  0  0  0  0
    1.7469    0.2623   -0.2577 C   0  0  0  0  0  0  0  0  0  0  0  0
    3.6110   -1.9964    0.7497 C   0  0  0  0  0  0  0  0  0  0  0  0
    5.0560    1.5971   -0.9331 C   0  0  0  0  0  0  0  0  0  0  0  0
    6.0223    0.7682   -0.1105 C   0  0  0  0  0  0  0  0  0  0  0  0
    6.3412   -1.1432    1.3994 C   0  0  0  0  0  0  0  0  0  0  0  0
    1.2110    0.8320    0.8973 C   0  0  0  0  0  0  0  0  0  0  0  0
    0.8998   -0.2525   -1.2391 C   0  0  0  0  0  0  0  0  0  0  0  0
   -0.1719    0.8871    1.0707 C   0  0  0  0  0  0  0  0  0  0  0  0
   -0.4831   -0.1974   -1.0658 C   0  0  0  0  0  0  0  0  0  0  0  0
   -1.0190    0.3724    0.0893 C   0  0  0  0  0  0  0  0  0  0  0  0
   -3.3997   -0.0343   -0.6059 C   0  0  0  0  0  0  0  0  0  0  0  0
   -4.7953    0.1424   -0.1252 C   0  0  0  0  0  0  0  0  0  0  0  0
   -5.6392   -0.9528    0.0580 C   0  0  0  0  0  0  0  0  0  0  0  0
   -5.2564    1.4311    0.1441 C   0  0  0  0  0  0  0  0  0  0  0  0
   -6.9444   -0.7596    0.5105 C   0  0  0  0  0  0  0  0  0  0  0  0
   -5.1713   -2.3435   -0.2227 C   0  0  0  0  0  0  0  0  0  0  0  0
   -6.5616    1.6244    0.5965 C   0  0  0  0  0  0  0  0  0  0  0  0
   -7.4057    0.5292    0.7798 C   0  0  0  0  0  0  0  0  0  0  0  0
    3.7513   -0.0519    1.6566 H   0  0  0  0  0  0  0  0  0  0  0  0
    3.4693   -0.2725   -1.4121 H   0  0  0  0  0  0  0  0  0  0  0  0
    2.5363   -2.1168    0.9196 H   0  0  0  0  0  0  0  0  0  0  0  0
    4.1274   -2.5328    1.5511 H   0  0  0  0  0  0  0  0  0  0  0  0
    5.3799    2.6419   -0.8825 H   0  0  0  0  0  0  0  0  0  0  0  0
    5.1245    1.2770   -1.9792 H   0  0  0  0  0  0  0  0  0  0  0  0
    5.9852   -1.1167    2.4334 H   0  0  0  0  0  0  0  0  0  0  0  0
    7.3742   -0.7862    1.3789 H   0  0  0  0  0  0  0  0  0  0  0  0
    6.3289   -2.1686    1.0210 H   0  0  0  0  0  0  0  0  0  0  0  0
    1.8521    1.2494    1.6685 H   0  0  0  0  0  0  0  0  0  0  0  0
    1.3037   -0.6999   -2.1435 H   0  0  0  0  0  0  0  0  0  0  0  0
   -0.5758    1.3363    1.9745 H   0  0  0  0  0  0  0  0  0  0  0  0
   -1.0713   -0.6170   -1.8695 H   0  0  0  0  0  0  0  0  0  0  0  0
    3.6774   -3.5219   -0.4431 H   0  0  0  0  0  0  0  0  0  0  0  0
   -2.7127    0.8491    1.1360 H   0  0  0  0  0  0  0  0  0  0  0  0
   -4.6127    2.2953    0.0015 H   0  0  0  0  0  0  0  0  0  0  0  0
   -7.6155   -1.6017    0.6570 H   0  0  0  0  0  0  0  0  0  0  0  0
   -5.0894   -2.5090   -1.3016 H   0  0  0  0  0  0  0  0  0  0  0  0
   -4.2029   -2.5360    0.2511 H   0  0  0  0  0  0  0  0  0  0  0  0
   -5.8681   -3.0902    0.1745 H   0  0  0  0  0  0  0  0  0  0  0  0
   -6.9212    2.6278    0.8050 H   0  0  0  0  0  0  0  0  0  0  0  0
   -8.4221    0.6799    1.1315 H   0  0  0  0  0  0  0  0  0  0  0  0
  1  8  1  0  0  0  0
  1 11  1  0  0  0  0
  2 10  1  0  0  0  0
  2 40  1  0  0  0  0
  3 12  2  0  0  0  0
  4 19  2  0  0  0  0
  5  7  1  0  0  0  0
  5 12  1  0  0  0  0
  5 13  1  0  0  0  0
  6 18  1  0  0  0  0
  6 19  1  0  0  0  0
  6 41  1  0  0  0  0
  7  8  1  0  0  0  0
  7 10  1  0  0  0  0
  7 27  1  0  0  0  0
  8  9  1  0  0  0  0
  8 28  1  0  0  0  0
  9 14  2  0  0  0  0
  9 15  1  0  0  0  0
 10 29  1  0  0  0  0
 10 30  1  0  0  0  0
 11 12  1  0  0  0  0
 11 31  1  0  0  0  0
 11 32  1  0  0  0  0
 13 33  1  0  0  0  0
 13 34  1  0  0  0  0
 13 35  1  0  0  0  0
 14 16  1  0  0  0  0
 14 36  1  0  0  0  0
 15 17  2  0  0  0  0
 15 37  1  0  0  0  0
 16 18  2  0  0  0  0
 16 38  1  0  0  0  0
 17 18  1  0  0  0  0
 17 39  1  0  0  0  0
 19 20  1  0  0  0  0
 20 21  1  0  0  0  0
 20 22  2  0  0  0  0
 21 23  2  0  0  0  0
 21 24  1  0  0  0  0
 22 25  1  0  0  0  0
 22 42  1  0  0  0  0
 23 26  1  0  0  0  0
 23 43  1  0  0  0  0
 24 44  1  0  0  0  0
 24 45  1  0  0  0  0
 24 46  1  0  0  0  0
 25 26  2  0  0  0  0
 25 47  1  0  0  0  0
 26 48  1  0  0  0  0
M  END
> <PUBCHEM_COMPOUND_CID>
71693646

> <PUBCHEM_CONFORMER_RMSD>
0.8

> <PUBCHEM_CONFORMER_DIVERSEORDER>
1
36
20
33
22
34
25
29
12
28
16
24
10
7
27
31
35
23
8
14
17
6
26
18
4
32
30
19
9
21
5
3
13
2
15
11

> <PUBCHEM_MMFF94_PARTIAL_CHARGES>
36
1 -0.56
10 0.28
11 0.34
12 0.57
13 0.3
14 -0.15
15 -0.15
16 -0.15
17 -0.15
18 0.12
19 0.54
2 -0.68
20 0.09
21 -0.14
22 -0.15
23 -0.15
24 0.14
25 -0.15
26 -0.15
3 -0.57
36 0.15
37 0.15
38 0.15
39 0.15
4 -0.57
40 0.4
41 0.37
42 0.15
43 0.15
47 0.15
48 0.15
5 -0.66
6 -0.55
7 0.3
8 0.42
9 -0.14

> <PUBCHEM_EFFECTIVE_ROTOR_COUNT>
6

> <PUBCHEM_PHARMACOPHORE_FEATURES>
9
1 1 acceptor
1 2 acceptor
1 2 donor
1 3 acceptor
1 4 acceptor
1 6 donor
6 1 5 7 8 11 12 rings
6 20 21 22 23 25 26 rings
6 9 14 15 16 17 18 rings

> <PUBCHEM_HEAVY_ATOM_COUNT>
26

> <PUBCHEM_ATOM_DEF_STEREO_COUNT>
2

> <PUBCHEM_ATOM_UDEF_STEREO_COUNT>
0

> <PUBCHEM_BOND_DEF_STEREO_COUNT>
0

> <PUBCHEM_BOND_UDEF_STEREO_COUNT>
0

> <PUBCHEM_ISOTOPIC_ATOM_COUNT>
0

> <PUBCHEM_COMPONENT_COUNT>
1

> <PUBCHEM_CACTVS_TAUTO_COUNT>
4

> <PUBCHEM_CONFORMER_ID>
0445F54E00000001

> <PUBCHEM_MMFF94_ENERGY>
83.8142

> <PUBCHEM_FEATURE_SELFOVERLAP>
45.673

> <PUBCHEM_SHAPE_FINGERPRINT>
10 15 17704067417210181593
10299344 5 18335420179360233011
10319688 140 15266519317980931748
10595046 47 18335422374094075189
11315181 36 18334013917917662105
11524674 6 17132114667577493871
11646440 116 15791735199961627861
11719270 70 17917713478627724950
12166972 35 17095526196921681644
12236239 1 18412543210867240052
12516196 113 18040715870223066740
12788726 201 17560808692757497059
13533116 47 18187080629541182402
13668630 136 15647057079876617131
13685833 64 17312821563095081922
13782708 43 16371553796952961586
1420 363 15285359518236542413
14251764 18 18411980269582809687
14849402 71 18042695064015241836
14856354 85 18410861005817379055
14933364 13 18409732863436661937
15021287 119 17676211273647716661
15142383 8 18342171129373698325
15183329 4 18410009936161305233
15419008 47 14996277041699859015
15537594 2 17918272064862607975
15716309 27 18113335315076964211
15799311 1 18336558187049304611
17093844 174 17275100648647730795
17844677 252 17676205741228777093
21033648 29 13973668560317295582
21150785 3 8358252657252852011
21267235 1 18337671915720138430
21315763 178 17988914574603362230
21521721 280 17821731658599666856
21623969 137 18260832591824035666
220451 1 18410294722478647319
22224240 67 17967810592213241944
23035841 295 18259703411147150105
23081809 10 18411976996612073613
23516275 137 18267324057347015507
23522609 53 18189359951126486285
23536379 177 18333732412074496161
23559900 14 18114460188054450921
23569943 247 16444736152140380640
3004659 81 18410299081801991510
3663271 9 18408042909890739339
397830 11 16199291269597707283
4073 2 18113907108025546875
4325135 7 18334015012353652965
4340502 62 18334011705471681358
5104073 3 17845651573164974131
5758199 1 18260548957058562400
59755656 215 15985111785947866700
7226269 152 16773796987743491323
7495541 125 18341891939171863817

> <PUBCHEM_SHAPE_MULTIPOLES>
501.63
21.4
1.84
1.14
7.92
0.82
-0.08
-0.62
4.14
-0.36
0.02
-0.35
0.08
-1.52

> <PUBCHEM_SHAPE_SELFOVERLAP>
1074.05

> <PUBCHEM_SHAPE_VOLUME>
276

> <PUBCHEM_COORDINATE_TYPE>
2
5
10

$$$$
