75536427
  -OEChem-12032416323D

 65 68  0     1  0  0  0  0  0999 V2000
    3.6387   -0.7522    0.4767 O   0  0  0  0  0  0  0  0  0  0  0  0
    6.4497   -1.1383    1.2751 O   0  0  0  0  0  0  0  0  0  0  0  0
   -0.6730   -0.8927   -1.0334 O   0  0  0  0  0  0  0  0  0  0  0  0
   -5.1479   -3.9668    0.3349 O   0  0  0  0  0  0  0  0  0  0  0  0
    1.7221    2.3425   -0.8049 O   0  0  0  0  0  0  0  0  0  0  0  0
   -4.7086    3.3190   -1.0586 O   0  0  0  0  0  0  0  0  0  0  0  0
    2.5664    1.7444    1.2641 N   0  0  0  0  0  0  0  0  0  0  0  0
   -2.8678   -2.2630    0.3487 N   0  0  0  0  0  0  0  0  0  0  0  0
    0.5244   -0.9213   -1.7380 N   0  0  0  0  0  0  0  0  0  0  0  0
    0.3000    2.1174    1.0492 N   0  0  0  0  0  0  0  0  0  0  0  0
    3.7161   -0.7874   -0.9504 C   0  0  1  0  0  0  0  0  0  0  0  0
    4.4713    0.2292    1.1085 C   0  0  1  0  0  0  0  0  0  0  0  0
    5.9395    0.0653    0.6953 C   0  0  2  0  0  0  0  0  0  0  0  0
    5.1475   -1.0669   -1.4058 C   0  0  0  0  0  0  0  0  0  0  0  0
    6.1096   -0.0385   -0.8179 C   0  0  0  0  0  0  0  0  0  0  0  0
    2.7699   -1.8795   -1.4339 C   0  0  0  0  0  0  0  0  0  0  0  0
    3.9381    1.6400    0.8684 C   0  0  0  0  0  0  0  0  0  0  0  0
    1.3569   -1.6361   -0.9759 C   0  0  0  0  0  0  0  0  0  0  0  0
    0.7465   -2.0804    0.2098 C   0  0  0  0  0  0  0  0  0  0  0  0
   -1.7063   -1.6580    0.9973 C   0  0  0  0  0  0  0  0  0  0  0  0
   -0.5282   -1.5863    0.1246 C   0  0  0  0  0  0  0  0  0  0  0  0
   -2.7343   -3.7255    0.2980 C   0  0  0  0  0  0  0  0  0  0  0  0
   -4.1067   -1.8946    1.0482 C   0  0  0  0  0  0  0  0  0  0  0  0
   -3.9627   -4.3345   -0.3718 C   0  0  0  0  0  0  0  0  0  0  0  0
   -5.3031   -2.5473    0.3617 C   0  0  0  0  0  0  0  0  0  0  0  0
    1.5286    2.0959    0.3832 C   0  0  0  0  0  0  0  0  0  0  0  0
   -0.9728    2.4229    0.5131 C   0  0  0  0  0  0  0  0  0  0  0  0
   -2.0999    2.3953    1.3344 C   0  0  0  0  0  0  0  0  0  0  0  0
   -1.1010    2.7516   -0.8363 C   0  0  0  0  0  0  0  0  0  0  0  0
   -3.3552    2.6963    0.8062 C   0  0  0  0  0  0  0  0  0  0  0  0
   -2.3564    3.0525   -1.3647 C   0  0  0  0  0  0  0  0  0  0  0  0
   -3.4834    3.0250   -0.5434 C   0  0  0  0  0  0  0  0  0  0  0  0
   -5.8178    3.2720   -0.1624 C   0  0  0  0  0  0  0  0  0  0  0  0
    3.3795    0.1734   -1.3558 H   0  0  0  0  0  0  0  0  0  0  0  0
    4.3913    0.0141    2.1820 H   0  0  0  0  0  0  0  0  0  0  0  0
    6.5410    0.8908    1.0920 H   0  0  0  0  0  0  0  0  0  0  0  0
    5.2122   -1.0551   -2.4997 H   0  0  0  0  0  0  0  0  0  0  0  0
    5.4554   -2.0661   -1.0723 H   0  0  0  0  0  0  0  0  0  0  0  0
    7.1365   -0.3267   -1.0714 H   0  0  0  0  0  0  0  0  0  0  0  0
    5.9225    0.9376   -1.2803 H   0  0  0  0  0  0  0  0  0  0  0  0
    3.0880   -2.8538   -1.0401 H   0  0  0  0  0  0  0  0  0  0  0  0
    2.7969   -1.9513   -2.5282 H   0  0  0  0  0  0  0  0  0  0  0  0
    4.0448    1.9434   -0.1767 H   0  0  0  0  0  0  0  0  0  0  0  0
    4.5021    2.3588    1.4730 H   0  0  0  0  0  0  0  0  0  0  0  0
    7.3919   -1.2002    1.0423 H   0  0  0  0  0  0  0  0  0  0  0  0
    2.3379    1.5997    2.2428 H   0  0  0  0  0  0  0  0  0  0  0  0
    1.1686   -2.6720    1.0086 H   0  0  0  0  0  0  0  0  0  0  0  0
   -1.4623   -2.1711    1.9368 H   0  0  0  0  0  0  0  0  0  0  0  0
   -1.9428   -0.6242    1.2796 H   0  0  0  0  0  0  0  0  0  0  0  0
   -2.6353   -4.1357    1.3116 H   0  0  0  0  0  0  0  0  0  0  0  0
   -1.8470   -4.0183   -0.2744 H   0  0  0  0  0  0  0  0  0  0  0  0
   -4.2446   -0.8072    1.0352 H   0  0  0  0  0  0  0  0  0  0  0  0
   -4.0624   -2.2204    2.0956 H   0  0  0  0  0  0  0  0  0  0  0  0
   -3.8923   -5.4269   -0.3568 H   0  0  0  0  0  0  0  0  0  0  0  0
   -4.0491   -4.0221   -1.4197 H   0  0  0  0  0  0  0  0  0  0  0  0
   -6.2193   -2.3233    0.9172 H   0  0  0  0  0  0  0  0  0  0  0  0
   -5.4357   -2.1741   -0.6612 H   0  0  0  0  0  0  0  0  0  0  0  0
    0.3138    1.8850    2.0391 H   0  0  0  0  0  0  0  0  0  0  0  0
   -2.0127    2.1391    2.3873 H   0  0  0  0  0  0  0  0  0  0  0  0
   -0.2770    2.7923   -1.5344 H   0  0  0  0  0  0  0  0  0  0  0  0
   -4.1882    2.6546    1.4997 H   0  0  0  0  0  0  0  0  0  0  0  0
   -2.4515    3.3074   -2.4168 H   0  0  0  0  0  0  0  0  0  0  0  0
   -6.7110    3.5329   -0.7395 H   0  0  0  0  0  0  0  0  0  0  0  0
   -5.7232    4.0174    0.6346 H   0  0  0  0  0  0  0  0  0  0  0  0
   -5.9750    2.2617    0.2305 H   0  0  0  0  0  0  0  0  0  0  0  0
  1 11  1  0  0  0  0
  1 12  1  0  0  0  0
  2 13  1  0  0  0  0
  2 45  1  0  0  0  0
  3  9  1  0  0  0  0
  3 21  1  0  0  0  0
  4 24  1  0  0  0  0
  4 25  1  0  0  0  0
  5 26  2  0  0  0  0
  6 32  1  0  0  0  0
  6 33  1  0  0  0  0
  7 17  1  0  0  0  0
  7 26  1  0  0  0  0
  7 46  1  0  0  0  0
  8 20  1  0  0  0  0
  8 22  1  0  0  0  0
  8 23  1  0  0  0  0
  9 18  2  0  0  0  0
 10 26  1  0  0  0  0
 10 27  1  0  0  0  0
 10 58  1  0  0  0  0
 11 14  1  0  0  0  0
 11 16  1  0  0  0  0
 11 34  1  0  0  0  0
 12 13  1  0  0  0  0
 12 17  1  0  0  0  0
 12 35  1  0  0  0  0
 13 15  1  0  0  0  0
 13 36  1  0  0  0  0
 14 15  1  0  0  0  0
 14 37  1  0  0  0  0
 14 38  1  0  0  0  0
 15 39  1  0  0  0  0
 15 40  1  0  0  0  0
 16 18  1  0  0  0  0
 16 41  1  0  0  0  0
 16 42  1  0  0  0  0
 17 43  1  0  0  0  0
 17 44  1  0  0  0  0
 18 19  1  0  0  0  0
 19 21  2  0  0  0  0
 19 47  1  0  0  0  0
 20 21  1  0  0  0  0
 20 48  1  0  0  0  0
 20 49  1  0  0  0  0
 22 24  1  0  0  0  0
 22 50  1  0  0  0  0
 22 51  1  0  0  0  0
 23 25  1  0  0  0  0
 23 52  1  0  0  0  0
 23 53  1  0  0  0  0
 24 54  1  0  0  0  0
 24 55  1  0  0  0  0
 25 56  1  0  0  0  0
 25 57  1  0  0  0  0
 27 28  2  0  0  0  0
 27 29  1  0  0  0  0
 28 30  1  0  0  0  0
 28 59  1  0  0  0  0
 29 31  2  0  0  0  0
 29 60  1  0  0  0  0
 30 32  2  0  0  0  0
 30 61  1  0  0  0  0
 31 32  1  0  0  0  0
 31 62  1  0  0  0  0
 33 63  1  0  0  0  0
 33 64  1  0  0  0  0
 33 65  1  0  0  0  0
M  END
> <PUBCHEM_COMPOUND_CID>
75536427

> <PUBCHEM_CONFORMER_RMSD>
1.2

> <PUBCHEM_CONFORMER_DIVERSEORDER>
1
29
113
52
121
115
128
33
157
122
92
20
150
57
51
5
63
65
110
81
99
111
78
137
15
162
117
67
54
93
46
104
10
158
27
100
3
74
170
62
143
34
94
32
146
172
165
151
124
125
79
139
22
75
102
135
90
152
47
48
49
156
129
16
37
38
149
59
28
13
77
30
68
132
167
138
119
103
96
127
107
89
130
108
142
118
72
112
18
168
126
109
86
169
161
95
73
159
31
114
116
7
40
44
98
133
154
53
147
66
145
80
141
8
41
97
56
26
84
64
21
166
55
76
4
101
123
171
106
42
160
50
36
136
82
140
134
11
24
35
155
153
85
23
19
105
25
91
83
120
6
39
2
70
58
164
87
163
61
69
131
17
148
12
144
60
14
9
43
71
88
45

> <PUBCHEM_MMFF94_PARTIAL_CHARGES>
39
1 -0.56
10 -0.55
11 0.28
12 0.28
13 0.28
16 0.18
17 0.3
18 0.11
19 -0.15
2 -0.68
20 0.45
21 -0.04
22 0.27
23 0.27
24 0.28
25 0.28
26 0.69
27 0.12
28 -0.15
29 -0.15
3 -0.02
30 -0.15
31 -0.15
32 0.08
33 0.28
4 -0.56
45 0.4
46 0.37
47 0.15
5 -0.57
58 0.37
59 0.15
6 -0.36
60 0.15
61 0.15
62 0.15
7 -0.73
8 -0.81
9 -0.41

> <PUBCHEM_EFFECTIVE_ROTOR_COUNT>
12.4

> <PUBCHEM_PHARMACOPHORE_FEATURES>
14
1 1 acceptor
1 10 donor
1 2 acceptor
1 2 donor
1 4 acceptor
1 5 acceptor
1 6 acceptor
1 7 donor
1 8 cation
1 9 acceptor
5 3 9 18 19 21 rings
6 1 11 12 13 14 15 rings
6 27 28 29 30 31 32 rings
6 4 8 22 23 24 25 rings

> <PUBCHEM_HEAVY_ATOM_COUNT>
33

> <PUBCHEM_ATOM_DEF_STEREO_COUNT>
3

> <PUBCHEM_ATOM_UDEF_STEREO_COUNT>
0

> <PUBCHEM_BOND_DEF_STEREO_COUNT>
0

> <PUBCHEM_BOND_UDEF_STEREO_COUNT>
0

> <PUBCHEM_ISOTOPIC_ATOM_COUNT>
0

> <PUBCHEM_COMPONENT_COUNT>
1

> <PUBCHEM_CACTVS_TAUTO_COUNT>
3

> <PUBCHEM_CONFORMER_ID>
0480982B00000001

> <PUBCHEM_MMFF94_ENERGY>
71.5411

> <PUBCHEM_FEATURE_SELFOVERLAP>
71.101

> <PUBCHEM_SHAPE_FINGERPRINT>
10688039 33 18190739923859240352
10864689 126 17978517434069729173
12107698 1 18336262461771610490
12156800 1 18192400092186352473
12422481 6 18129959965101113083
13402501 40 18341895130327419728
13692114 37 18341888568329145605
13726171 33 18339940285534138744
14725015 67 18337944713834549531
15968369 153 17988633142449996581
16993438 75 18342730819810867975
20775438 99 18055897811026420983
21360443 126 18336264557009269349
22182313 1 17917723366195996790
23378982 100 18187081776793296937
23516275 137 16773242764952847077
244849 19 17559937952631808376
3052486 1 18261681398079238544
469060 322 17822014194090278492
508706 21 18411133619606618861
59520757 100 18260544494846063141
9777508 108 18338235968846892431

> <PUBCHEM_SHAPE_MULTIPOLES>
623.98
13.44
5.81
1.42
8.85
1.24
0.17
2.38
-0.95
-12.36
0.35
0.81
-0.27
2.06

> <PUBCHEM_SHAPE_SELFOVERLAP>
1309.886

> <PUBCHEM_SHAPE_VOLUME>
351.3

> <PUBCHEM_COORDINATE_TYPE>
2
5
10

$$$$
