45783484
  -OEChem-12032416263D

 56 60  0     1  0  0  0  0  0999 V2000
   -2.4758   -1.8730    1.8059 O   0  0  0  0  0  0  0  0  0  0  0  0
    0.1639    2.6675   -1.2899 O   0  0  0  0  0  0  0  0  0  0  0  0
    0.4527    3.3827    0.9932 O   0  0  0  0  0  0  0  0  0  0  0  0
    7.3730    0.3067   -0.2638 O   0  0  0  0  0  0  0  0  0  0  0  0
   -4.2505   -0.2833   -0.9920 N   0  0  1  0  0  0  0  0  0  0  0  0
   -1.5435   -1.1798   -0.1090 N   0  0  0  0  0  0  0  0  0  0  0  0
   -1.0908   -1.9066    2.0125 N   0  0  0  0  0  0  0  0  0  0  0  0
    3.0679   -1.5707    1.3763 N   0  0  0  0  0  0  0  0  0  0  0  0
    4.8736   -1.0180   -0.0760 N   0  0  0  0  0  0  0  0  0  0  0  0
   -4.0884   -1.3084    0.0585 C   0  0  1  0  0  0  0  0  0  0  0  0
   -4.6212   -2.6063   -0.5760 C   0  0  0  0  0  0  0  0  0  0  0  0
   -5.1158   -2.2001   -1.9570 C   0  0  0  0  0  0  0  0  0  0  0  0
   -5.3777   -0.7139   -1.8192 C   0  0  0  0  0  0  0  0  0  0  0  0
   -4.4426    1.0595   -0.4595 C   0  0  0  0  0  0  0  0  0  0  0  0
   -2.6557   -1.4346    0.5325 C   0  0  0  0  0  0  0  0  0  0  0  0
   -3.1410    1.6855   -0.0343 C   0  0  0  0  0  0  0  0  0  0  0  0
   -2.1132    1.8492   -0.9662 C   0  0  0  0  0  0  0  0  0  0  0  0
   -2.9723    2.1026    1.2977 C   0  0  0  0  0  0  0  0  0  0  0  0
   -0.6106   -1.4842    0.8392 C   0  0  0  0  0  0  0  0  0  0  0  0
   -0.9399    2.4298   -0.5302 C   0  0  0  0  0  0  0  0  0  0  0  0
   -1.7740    2.6882    1.7133 C   0  0  0  0  0  0  0  0  0  0  0  0
   -0.7749    2.8381    0.7736 C   0  0  0  0  0  0  0  0  0  0  0  0
    0.7948   -1.3566    0.5815 C   0  0  0  0  0  0  0  0  0  0  0  0
    1.0420    3.2717   -0.3183 C   0  0  0  0  0  0  0  0  0  0  0  0
    1.2599   -0.9152   -0.6523 C   0  0  0  0  0  0  0  0  0  0  0  0
    1.7312   -1.6688    1.5538 C   0  0  0  0  0  0  0  0  0  0  0  0
    2.6281   -0.8012   -0.8729 C   0  0  0  0  0  0  0  0  0  0  0  0
    3.4826   -1.1383    0.1644 C   0  0  0  0  0  0  0  0  0  0  0  0
    5.4041   -0.5714   -1.3230 C   0  0  0  0  0  0  0  0  0  0  0  0
    6.9226   -0.5844   -1.2764 C   0  0  0  0  0  0  0  0  0  0  0  0
    8.7915    0.3333   -0.1865 C   0  0  0  0  0  0  0  0  0  0  0  0
   -4.7219   -1.0791    0.9269 H   0  0  0  0  0  0  0  0  0  0  0  0
   -3.8727   -3.4027   -0.6496 H   0  0  0  0  0  0  0  0  0  0  0  0
   -5.4615   -2.9882    0.0165 H   0  0  0  0  0  0  0  0  0  0  0  0
   -6.0077   -2.7575   -2.2576 H   0  0  0  0  0  0  0  0  0  0  0  0
   -4.3317   -2.3830   -2.7024 H   0  0  0  0  0  0  0  0  0  0  0  0
   -6.3392   -0.5419   -1.3188 H   0  0  0  0  0  0  0  0  0  0  0  0
   -5.3886   -0.2155   -2.7935 H   0  0  0  0  0  0  0  0  0  0  0  0
   -5.1812    1.0729    0.3526 H   0  0  0  0  0  0  0  0  0  0  0  0
   -4.8532    1.7150   -1.2405 H   0  0  0  0  0  0  0  0  0  0  0  0
   -2.2261    1.5378   -1.9992 H   0  0  0  0  0  0  0  0  0  0  0  0
   -3.7735    1.9723    2.0210 H   0  0  0  0  0  0  0  0  0  0  0  0
   -1.6396    3.0102    2.7396 H   0  0  0  0  0  0  0  0  0  0  0  0
    1.3144    4.2744   -0.6670 H   0  0  0  0  0  0  0  0  0  0  0  0
    1.9522    2.6655   -0.2436 H   0  0  0  0  0  0  0  0  0  0  0  0
    0.5795   -0.6524   -1.4583 H   0  0  0  0  0  0  0  0  0  0  0  0
    1.4510   -2.0197    2.5426 H   0  0  0  0  0  0  0  0  0  0  0  0
    2.9561   -0.4518   -1.8447 H   0  0  0  0  0  0  0  0  0  0  0  0
    5.4878   -1.2641    0.6918 H   0  0  0  0  0  0  0  0  0  0  0  0
    5.0832   -1.2224   -2.1445 H   0  0  0  0  0  0  0  0  0  0  0  0
    5.0727    0.4540   -1.5268 H   0  0  0  0  0  0  0  0  0  0  0  0
    7.2877   -1.5962   -1.0616 H   0  0  0  0  0  0  0  0  0  0  0  0
    7.3205   -0.2659   -2.2468 H   0  0  0  0  0  0  0  0  0  0  0  0
    9.1807   -0.6580    0.0650 H   0  0  0  0  0  0  0  0  0  0  0  0
    9.2211    0.6788   -1.1317 H   0  0  0  0  0  0  0  0  0  0  0  0
    9.0800    1.0318    0.6036 H   0  0  0  0  0  0  0  0  0  0  0  0
  1  7  1  0  0  0  0
  1 15  1  0  0  0  0
  2 20  1  0  0  0  0
  2 24  1  0  0  0  0
  3 22  1  0  0  0  0
  3 24  1  0  0  0  0
  4 30  1  0  0  0  0
  4 31  1  0  0  0  0
  5 10  1  0  0  0  0
  5 13  1  0  0  0  0
  5 14  1  0  0  0  0
  6 15  2  0  0  0  0
  6 19  1  0  0  0  0
  7 19  2  0  0  0  0
  8 26  1  0  0  0  0
  8 28  2  0  0  0  0
  9 28  1  0  0  0  0
  9 29  1  0  0  0  0
  9 49  1  0  0  0  0
 10 11  1  0  0  0  0
 10 15  1  0  0  0  0
 10 32  1  0  0  0  0
 11 12  1  0  0  0  0
 11 33  1  0  0  0  0
 11 34  1  0  0  0  0
 12 13  1  0  0  0  0
 12 35  1  0  0  0  0
 12 36  1  0  0  0  0
 13 37  1  0  0  0  0
 13 38  1  0  0  0  0
 14 16  1  0  0  0  0
 14 39  1  0  0  0  0
 14 40  1  0  0  0  0
 16 17  2  0  0  0  0
 16 18  1  0  0  0  0
 17 20  1  0  0  0  0
 17 41  1  0  0  0  0
 18 21  2  0  0  0  0
 18 42  1  0  0  0  0
 19 23  1  0  0  0  0
 20 22  2  0  0  0  0
 21 22  1  0  0  0  0
 21 43  1  0  0  0  0
 23 25  1  0  0  0  0
 23 26  2  0  0  0  0
 24 44  1  0  0  0  0
 24 45  1  0  0  0  0
 25 27  2  0  0  0  0
 25 46  1  0  0  0  0
 26 47  1  0  0  0  0
 27 28  1  0  0  0  0
 27 48  1  0  0  0  0
 29 30  1  0  0  0  0
 29 50  1  0  0  0  0
 29 51  1  0  0  0  0
 30 52  1  0  0  0  0
 30 53  1  0  0  0  0
 31 54  1  0  0  0  0
 31 55  1  0  0  0  0
 31 56  1  0  0  0  0
M  END
> <PUBCHEM_COMPOUND_CID>
45783484

> <PUBCHEM_CONFORMER_RMSD>
1

> <PUBCHEM_CONFORMER_DIVERSEORDER>
1
90
94
156
121
80
63
136
88
102
34
109
60
115
65
52
112
162
59
124
154
24
119
55
159
96
30
158
152
130
64
36
98
116
138
92
11
125
48
122
145
79
93
161
54
105
41
85
31
118
133
144
87
20
7
95
10
153
150
46
126
17
142
86
23
40
137
113
29
74
84
18
132
129
147
106
16
45
44
143
19
134
33
127
4
157
26
128
155
58
139
53
42
131
6
97
123
91
103
50
5
21
25
146
78
117
89
100
22
76
14
56
62
104
75
83
148
57
69
15
13
68
27
66
39
111
2
8
77
82
3
140
81
61
73
135
120
38
108
114
72
51
32
149
9
101
47
151
71
160
28
110
12
35
107
70
67
43
37
141
49
99

> <PUBCHEM_MMFF94_PARTIAL_CHARGES>
36
1 -0.02
10 0.45
13 0.27
14 0.41
15 0.3
16 -0.14
17 -0.15
18 -0.15
19 0.46
2 -0.36
20 0.08
21 -0.15
22 0.08
23 0.05
24 0.56
25 -0.15
26 0.16
27 -0.15
28 0.41
29 0.37
3 -0.36
30 0.28
31 0.28
4 -0.56
41 0.15
42 0.15
43 0.15
46 0.15
47 0.15
48 0.15
49 0.4
5 -0.81
6 -0.57
7 -0.41
8 -0.62
9 -0.87

> <PUBCHEM_EFFECTIVE_ROTOR_COUNT>
9.6

> <PUBCHEM_PHARMACOPHORE_FEATURES>
12
1 2 acceptor
1 3 acceptor
1 4 acceptor
1 5 cation
1 9 donor
3 6 7 19 cation
3 8 9 28 cation
5 1 6 7 15 19 rings
5 2 3 20 22 24 rings
5 5 10 11 12 13 rings
6 16 17 18 20 21 22 rings
6 8 23 25 26 27 28 rings

> <PUBCHEM_HEAVY_ATOM_COUNT>
31

> <PUBCHEM_ATOM_DEF_STEREO_COUNT>
1

> <PUBCHEM_ATOM_UDEF_STEREO_COUNT>
0

> <PUBCHEM_BOND_DEF_STEREO_COUNT>
0

> <PUBCHEM_BOND_UDEF_STEREO_COUNT>
0

> <PUBCHEM_ISOTOPIC_ATOM_COUNT>
0

> <PUBCHEM_COMPONENT_COUNT>
1

> <PUBCHEM_CACTVS_TAUTO_COUNT>
8

> <PUBCHEM_CONFORMER_ID>
02BA99BC00000001

> <PUBCHEM_MMFF94_ENERGY>
71.5223

> <PUBCHEM_FEATURE_SELFOVERLAP>
61.053

> <PUBCHEM_SHAPE_FINGERPRINT>
10454371 7 18341902866354499004
10670039 82 18408604739285067970
10871710 139 18117841006380203757
1100329 8 18411979127633627865
11477941 20 18273206508815751236
12156800 1 15074750161695551821
12788726 201 18263640680070083106
13782708 43 17489593316823189614
14068700 675 18201998863009263957
14394314 77 18261680250833438636
14931854 50 18187638081578074199
17492 54 18114173091471704877
18336668 15 18041006145413817437
20691752 17 17604408792208936069
20721686 56 18338235002838382176
20775438 99 17334184211442271423
20905425 154 18196086879750627541
21236236 1 18410018702432129910
21304303 64 17458347378141612101
21344244 246 17910385418443728831
22899556 105 17767408251063289951
23559900 14 18188767378629766333
469060 322 16879379807275780337
484989 97 17897167034453754683
5171179 24 18201151160908802984
7471813 234 18342167925449265655

> <PUBCHEM_SHAPE_MULTIPOLES>
589.58
15
3.82
1.71
35.04
3.21
0.23
-5.95
-7.32
-3.4
0.63
-0.99
-0.45
-1.18

> <PUBCHEM_SHAPE_SELFOVERLAP>
1283.678

> <PUBCHEM_SHAPE_VOLUME>
323.1

> <PUBCHEM_COORDINATE_TYPE>
2
5
10

$$$$
