71693823
  -OEChem-12032416403D

 42 44  0     1  0  0  0  0  0999 V2000
   -0.1274    2.4736   -1.5852 O   0  0  0  0  0  0  0  0  0  0  0  0
   -0.4433    3.9449    0.7419 O   0  0  0  0  0  0  0  0  0  0  0  0
   -1.7537   -0.3046    0.0784 N   0  0  0  0  0  0  0  0  0  0  0  0
   -0.5839    0.4399   -0.3872 C   0  0  2  0  0  0  0  0  0  0  0  0
    0.5278    0.4031    0.7068 C   0  0  2  0  0  0  0  0  0  0  0  0
   -0.9400    1.9265   -0.5478 C   0  0  1  0  0  0  0  0  0  0  0  0
    0.7455    1.8674    1.1346 C   0  0  0  0  0  0  0  0  0  0  0  0
   -0.5784    2.5397    0.8016 C   0  0  1  0  0  0  0  0  0  0  0  0
   -1.3963   -1.7030    0.3552 C   0  0  0  0  0  0  0  0  0  0  0  0
   -2.8422   -0.2192   -0.9053 C   0  0  0  0  0  0  0  0  0  0  0  0
    1.8024   -0.2860    0.2690 C   0  0  0  0  0  0  0  0  0  0  0  0
   -2.5976   -2.4841    0.8903 C   0  0  0  0  0  0  0  0  0  0  0  0
   -4.0906   -0.9518   -0.4116 C   0  0  0  0  0  0  0  0  0  0  0  0
   -3.7815   -2.4043   -0.0666 C   0  0  0  0  0  0  0  0  0  0  0  0
    2.1948   -0.2429   -1.0688 C   0  0  0  0  0  0  0  0  0  0  0  0
    2.5844   -0.9645    1.2036 C   0  0  0  0  0  0  0  0  0  0  0  0
    3.3694   -0.8782   -1.4721 C   0  0  0  0  0  0  0  0  0  0  0  0
    3.7590   -1.5998    0.8006 C   0  0  0  0  0  0  0  0  0  0  0  0
    4.1515   -1.5568   -0.5373 C   0  0  0  0  0  0  0  0  0  0  0  0
   -0.2825    0.0149   -1.3485 H   0  0  0  0  0  0  0  0  0  0  0  0
    0.1695   -0.0898    1.6192 H   0  0  0  0  0  0  0  0  0  0  0  0
   -1.9599    2.2048   -0.8049 H   0  0  0  0  0  0  0  0  0  0  0  0
    0.9902    1.9563    2.1990 H   0  0  0  0  0  0  0  0  0  0  0  0
    1.5710    2.3401    0.5865 H   0  0  0  0  0  0  0  0  0  0  0  0
   -1.3370    2.2879    1.5526 H   0  0  0  0  0  0  0  0  0  0  0  0
   -0.6155   -1.8169    1.1104 H   0  0  0  0  0  0  0  0  0  0  0  0
   -1.0255   -2.1919   -0.5562 H   0  0  0  0  0  0  0  0  0  0  0  0
   -2.5291   -0.6448   -1.8683 H   0  0  0  0  0  0  0  0  0  0  0  0
   -3.1773    0.7996   -1.1021 H   0  0  0  0  0  0  0  0  0  0  0  0
   -2.3195   -3.5331    1.0432 H   0  0  0  0  0  0  0  0  0  0  0  0
   -2.8901   -2.0841    1.8696 H   0  0  0  0  0  0  0  0  0  0  0  0
   -4.4904   -0.4423    0.4745 H   0  0  0  0  0  0  0  0  0  0  0  0
   -4.8708   -0.9154   -1.1806 H   0  0  0  0  0  0  0  0  0  0  0  0
   -4.6606   -2.8801    0.3816 H   0  0  0  0  0  0  0  0  0  0  0  0
   -3.5481   -2.9570   -0.9849 H   0  0  0  0  0  0  0  0  0  0  0  0
   -0.3939    2.0479   -2.4180 H   0  0  0  0  0  0  0  0  0  0  0  0
   -0.1254    4.2452    1.6104 H   0  0  0  0  0  0  0  0  0  0  0  0
    1.6526    0.3159   -1.8234 H   0  0  0  0  0  0  0  0  0  0  0  0
    2.2911   -1.0042    2.2492 H   0  0  0  0  0  0  0  0  0  0  0  0
    3.6822   -0.8344   -2.5113 H   0  0  0  0  0  0  0  0  0  0  0  0
    4.3686   -2.1271    1.5285 H   0  0  0  0  0  0  0  0  0  0  0  0
    5.0676   -2.0488   -0.8506 H   0  0  0  0  0  0  0  0  0  0  0  0
  1  6  1  0  0  0  0
  1 36  1  0  0  0  0
  2  8  1  0  0  0  0
  2 37  1  0  0  0  0
  3  4  1  0  0  0  0
  3  9  1  0  0  0  0
  3 10  1  0  0  0  0
  4  5  1  0  0  0  0
  4  6  1  0  0  0  0
  4 20  1  0  0  0  0
  5  7  1  0  0  0  0
  5 11  1  0  0  0  0
  5 21  1  0  0  0  0
  6  8  1  0  0  0  0
  6 22  1  0  0  0  0
  7  8  1  0  0  0  0
  7 23  1  0  0  0  0
  7 24  1  0  0  0  0
  8 25  1  0  0  0  0
  9 12  1  0  0  0  0
  9 26  1  0  0  0  0
  9 27  1  0  0  0  0
 10 13  1  0  0  0  0
 10 28  1  0  0  0  0
 10 29  1  0  0  0  0
 11 15  2  0  0  0  0
 11 16  1  0  0  0  0
 12 14  1  0  0  0  0
 12 30  1  0  0  0  0
 12 31  1  0  0  0  0
 13 14  1  0  0  0  0
 13 32  1  0  0  0  0
 13 33  1  0  0  0  0
 14 34  1  0  0  0  0
 14 35  1  0  0  0  0
 15 17  1  0  0  0  0
 15 38  1  0  0  0  0
 16 18  2  0  0  0  0
 16 39  1  0  0  0  0
 17 19  2  0  0  0  0
 17 40  1  0  0  0  0
 18 19  1  0  0  0  0
 18 41  1  0  0  0  0
 19 42  1  0  0  0  0
M  END
> <PUBCHEM_COMPOUND_CID>
71693823

> <PUBCHEM_CONFORMER_RMSD>
0.6

> <PUBCHEM_CONFORMER_DIVERSEORDER>
2
6
15
12
5
11
7
4
16
17
13
1
8
10
14
3
9

> <PUBCHEM_MMFF94_PARTIAL_CHARGES>
22
1 -0.68
10 0.27
11 -0.14
15 -0.15
16 -0.15
17 -0.15
18 -0.15
19 -0.15
2 -0.68
3 -0.81
36 0.4
37 0.4
38 0.15
39 0.15
4 0.27
40 0.15
41 0.15
42 0.15
5 0.14
6 0.28
8 0.28
9 0.27

> <PUBCHEM_EFFECTIVE_ROTOR_COUNT>
4.2

> <PUBCHEM_PHARMACOPHORE_FEATURES>
8
1 1 acceptor
1 1 donor
1 2 acceptor
1 2 donor
1 3 cation
5 4 5 6 7 8 rings
6 11 15 16 17 18 19 rings
6 3 9 10 12 13 14 rings

> <PUBCHEM_HEAVY_ATOM_COUNT>
19

> <PUBCHEM_ATOM_DEF_STEREO_COUNT>
4

> <PUBCHEM_ATOM_UDEF_STEREO_COUNT>
0

> <PUBCHEM_BOND_DEF_STEREO_COUNT>
0

> <PUBCHEM_BOND_UDEF_STEREO_COUNT>
0

> <PUBCHEM_ISOTOPIC_ATOM_COUNT>
0

> <PUBCHEM_COMPONENT_COUNT>
1

> <PUBCHEM_CACTVS_TAUTO_COUNT>
1

> <PUBCHEM_CONFORMER_ID>
0445F5FF00000002

> <PUBCHEM_MMFF94_ENERGY>
53.1028

> <PUBCHEM_FEATURE_SELFOVERLAP>
40.605

> <PUBCHEM_SHAPE_FINGERPRINT>
104564 63 18339365137002593491
10618630 7 18412262835202034958
11322862 65 17766573351789708429
11578080 2 17315602245598718444
11582403 64 15608124287701866000
12173636 292 17691688883625021052
12363563 72 18342738537308117703
12506688 2 18410576222893151210
12553582 1 18410301306384320755
12707595 3 18339363088277098751
12788726 201 18337680697867734824
13134695 92 18199744907338319637
13140716 1 18411980260639447601
13533116 47 17978239584594562427
13681431 1 18266184022269277237
14115302 16 18113333094041165823
14178342 30 18122053201208887466
14863182 85 16386500944299512047
15842332 3 17897460389203880622
15848700 24 18343012315872083127
16752209 62 18117263779659760211
16945 1 18196938772853693456
17357779 13 18271795813732327143
17804303 29 18336546105633270511
1813 80 18201734971549613423
18186145 218 12252178545956910558
19591789 44 17404873548914989025
20097449 115 18342738545908166545
20600515 1 18116685530843368305
20645476 183 17834968464343475660
20645477 70 18052810636084754895
20671657 53 18342177816685218787
20711985 344 18268435641720404594
20871998 22 18342171219325041881
21069387 34 17774429620722690983
21296965 67 18341611542236959243
21452121 199 18338514252483774772
21665056 4 17690284807028002526
23419403 2 18123153974977014156
23557571 272 18340478989963864832
23559900 14 18266727018606371434
238078 22 18334588961607802838
2748010 2 18265316482083426163
3084891 72 18267296535343274439
314173 41 18338240478346924859
4921388 177 18054238626721164518
576247 118 18272096019034872670
59755656 520 17692813683835359972
6049 1 17752769306090685939
7364860 26 17908707572331823001
7615 1 17896326818495789086
81228 2 18269843020856922241
84936 31 17628913727140435008
9709674 26 17977096087805690139

> <PUBCHEM_SHAPE_MULTIPOLES>
374.29
6.66
3.46
1.3
0.69
3.02
-0.17
-6.99
-1.03
-1.63
0.77
0.65
0.2
0.33

> <PUBCHEM_SHAPE_SELFOVERLAP>
789.738

> <PUBCHEM_SHAPE_VOLUME>
211.1

> <PUBCHEM_COORDINATE_TYPE>
2
5
10

$$$$
