11912204
  -OEChem-12032416133D

 68 71  0     1  0  0  0  0  0999 V2000
    3.5378   -2.5682    0.5776 S   0  0  0  0  0  0  0  0  0  0  0  0
   -1.1193    1.4554    0.9563 O   0  0  0  0  0  0  0  0  0  0  0  0
    0.8951   -3.2635    0.8563 O   0  0  0  0  0  0  0  0  0  0  0  0
   -3.5651    1.6750   -1.8675 O   0  0  0  0  0  0  0  0  0  0  0  0
    1.5648    4.2356   -1.4851 O   0  0  0  0  0  0  0  0  0  0  0  0
    3.6353   -3.9477    0.1181 O   0  0  0  0  0  0  0  0  0  0  0  0
    3.3394   -2.2933    1.9947 O   0  0  0  0  0  0  0  0  0  0  0  0
   -8.4674   -0.6668    1.2330 O   0  0  0  0  0  0  0  0  0  0  0  0
   -2.4116   -0.0180   -0.7324 N   0  0  0  0  0  0  0  0  0  0  0  0
   -0.1755   -1.7743   -0.5681 N   0  0  0  0  0  0  0  0  0  0  0  0
    0.6814    1.8599   -0.4623 N   0  0  0  0  0  0  0  0  0  0  0  0
    3.2814    4.3135    0.0200 N   0  0  0  0  0  0  0  0  0  0  0  0
   -1.0982    0.4367   -1.2045 C   0  0  2  0  0  0  0  0  0  0  0  0
   -0.1538   -0.7071   -1.5734 C   0  0  0  0  0  0  0  0  0  0  0  0
   -2.4197   -1.1547    0.2060 C   0  0  0  0  0  0  0  0  0  0  0  0
   -1.5099   -2.2823   -0.2644 C   0  0  0  0  0  0  0  0  0  0  0  0
   -0.5304    1.2915   -0.1090 C   0  0  0  0  0  0  0  0  0  0  0  0
    1.4211    2.7402    0.4044 C   0  0  1  0  0  0  0  0  0  0  0  0
    2.3754    1.9523    1.2911 C   0  0  0  0  0  0  0  0  0  0  0  0
    0.9430   -2.3353    0.0452 C   0  0  0  0  0  0  0  0  0  0  0  0
    3.2633    2.9133    2.0648 C   0  0  0  0  0  0  0  0  0  0  0  0
   -3.5471    0.7235   -1.0876 C   0  0  0  0  0  0  0  0  0  0  0  0
    4.0798    3.7330    1.0837 C   0  0  0  0  0  0  0  0  0  0  0  0
    2.0973    3.7953   -0.4642 C   0  0  0  0  0  0  0  0  0  0  0  0
    2.2811   -1.7463   -0.3236 C   0  0  0  0  0  0  0  0  0  0  0  0
   -4.8347    0.3603   -0.4806 C   0  0  0  0  0  0  0  0  0  0  0  0
    5.0360   -1.7633    0.0819 C   0  0  0  0  0  0  0  0  0  0  0  0
   -5.2278    0.9527    0.7165 C   0  0  0  0  0  0  0  0  0  0  0  0
   -5.6554   -0.5751   -1.1056 C   0  0  0  0  0  0  0  0  0  0  0  0
   -6.4502    0.6074    1.2929 C   0  0  0  0  0  0  0  0  0  0  0  0
   -6.8779   -0.9204   -0.5293 C   0  0  0  0  0  0  0  0  0  0  0  0
    5.4764   -0.6644    0.7958 C   0  0  0  0  0  0  0  0  0  0  0  0
    5.7320   -2.2512   -1.0082 C   0  0  0  0  0  0  0  0  0  0  0  0
   -7.2754   -0.3291    0.6699 C   0  0  0  0  0  0  0  0  0  0  0  0
    6.6557   -0.0302    0.4051 C   0  0  0  0  0  0  0  0  0  0  0  0
    6.9114   -1.6170   -1.3987 C   0  0  0  0  0  0  0  0  0  0  0  0
    7.3733   -0.5066   -0.6920 C   0  0  0  0  0  0  0  0  0  0  0  0
   -9.2616   -1.6308    0.5432 C   0  0  0  0  0  0  0  0  0  0  0  0
   -1.2297    1.0831   -2.0811 H   0  0  0  0  0  0  0  0  0  0  0  0
   -0.5070   -1.1709   -2.5037 H   0  0  0  0  0  0  0  0  0  0  0  0
    0.8609   -0.3639   -1.7759 H   0  0  0  0  0  0  0  0  0  0  0  0
   -2.0888   -0.7869    1.1829 H   0  0  0  0  0  0  0  0  0  0  0  0
   -3.4291   -1.5487    0.3420 H   0  0  0  0  0  0  0  0  0  0  0  0
   -1.9030   -2.7318   -1.1843 H   0  0  0  0  0  0  0  0  0  0  0  0
   -1.4686   -3.0690    0.4953 H   0  0  0  0  0  0  0  0  0  0  0  0
    0.7083    3.2790    1.0424 H   0  0  0  0  0  0  0  0  0  0  0  0
    1.8164    1.3116    1.9830 H   0  0  0  0  0  0  0  0  0  0  0  0
    3.0051    1.2946    0.6814 H   0  0  0  0  0  0  0  0  0  0  0  0
    1.0636    1.6831   -1.3864 H   0  0  0  0  0  0  0  0  0  0  0  0
    3.9291    2.3621    2.7376 H   0  0  0  0  0  0  0  0  0  0  0  0
    2.6444    3.5734    2.6845 H   0  0  0  0  0  0  0  0  0  0  0  0
    4.5976    4.5499    1.5960 H   0  0  0  0  0  0  0  0  0  0  0  0
    4.8381    3.1064    0.6009 H   0  0  0  0  0  0  0  0  0  0  0  0
    2.4755   -1.8945   -1.3889 H   0  0  0  0  0  0  0  0  0  0  0  0
    2.3068   -0.6899   -0.0602 H   0  0  0  0  0  0  0  0  0  0  0  0
    3.7112    5.0578   -0.5208 H   0  0  0  0  0  0  0  0  0  0  0  0
   -4.5913    1.6825    1.2097 H   0  0  0  0  0  0  0  0  0  0  0  0
   -5.3529   -1.0412   -2.0397 H   0  0  0  0  0  0  0  0  0  0  0  0
   -6.7540    1.0709    2.2275 H   0  0  0  0  0  0  0  0  0  0  0  0
   -7.4690   -1.6548   -1.0658 H   0  0  0  0  0  0  0  0  0  0  0  0
    4.9283   -0.2757    1.6482 H   0  0  0  0  0  0  0  0  0  0  0  0
    5.3842   -3.1084   -1.5760 H   0  0  0  0  0  0  0  0  0  0  0  0
    7.0137    0.8361    0.9537 H   0  0  0  0  0  0  0  0  0  0  0  0
    7.4692   -1.9863   -2.2544 H   0  0  0  0  0  0  0  0  0  0  0  0
    8.2909   -0.0120   -0.9968 H   0  0  0  0  0  0  0  0  0  0  0  0
   -9.5723   -1.2658   -0.4416 H   0  0  0  0  0  0  0  0  0  0  0  0
  -10.1733   -1.7789    1.1312 H   0  0  0  0  0  0  0  0  0  0  0  0
   -8.7570   -2.6013    0.4860 H   0  0  0  0  0  0  0  0  0  0  0  0
  1  6  2  0  0  0  0
  1  7  2  0  0  0  0
  1 25  1  0  0  0  0
  1 27  1  0  0  0  0
  2 17  2  0  0  0  0
  3 20  2  0  0  0  0
  4 22  2  0  0  0  0
  5 24  2  0  0  0  0
  8 34  1  0  0  0  0
  8 38  1  0  0  0  0
  9 13  1  0  0  0  0
  9 15  1  0  0  0  0
  9 22  1  0  0  0  0
 10 14  1  0  0  0  0
 10 16  1  0  0  0  0
 10 20  1  0  0  0  0
 11 17  1  0  0  0  0
 11 18  1  0  0  0  0
 11 49  1  0  0  0  0
 12 23  1  0  0  0  0
 12 24  1  0  0  0  0
 12 56  1  0  0  0  0
 13 14  1  0  0  0  0
 13 17  1  0  0  0  0
 13 39  1  0  0  0  0
 14 40  1  0  0  0  0
 14 41  1  0  0  0  0
 15 16  1  0  0  0  0
 15 42  1  0  0  0  0
 15 43  1  0  0  0  0
 16 44  1  0  0  0  0
 16 45  1  0  0  0  0
 18 19  1  0  0  0  0
 18 24  1  0  0  0  0
 18 46  1  0  0  0  0
 19 21  1  0  0  0  0
 19 47  1  0  0  0  0
 19 48  1  0  0  0  0
 20 25  1  0  0  0  0
 21 23  1  0  0  0  0
 21 50  1  0  0  0  0
 21 51  1  0  0  0  0
 22 26  1  0  0  0  0
 23 52  1  0  0  0  0
 23 53  1  0  0  0  0
 25 54  1  0  0  0  0
 25 55  1  0  0  0  0
 26 28  2  0  0  0  0
 26 29  1  0  0  0  0
 27 32  2  0  0  0  0
 27 33  1  0  0  0  0
 28 30  1  0  0  0  0
 28 57  1  0  0  0  0
 29 31  2  0  0  0  0
 29 58  1  0  0  0  0
 30 34  2  0  0  0  0
 30 59  1  0  0  0  0
 31 34  1  0  0  0  0
 31 60  1  0  0  0  0
 32 35  1  0  0  0  0
 32 61  1  0  0  0  0
 33 36  2  0  0  0  0
 33 62  1  0  0  0  0
 35 37  2  0  0  0  0
 35 63  1  0  0  0  0
 36 37  1  0  0  0  0
 36 64  1  0  0  0  0
 37 65  1  0  0  0  0
 38 66  1  0  0  0  0
 38 67  1  0  0  0  0
 38 68  1  0  0  0  0
M  END
> <PUBCHEM_COMPOUND_CID>
11912204

> <PUBCHEM_CONFORMER_RMSD>
1.2

> <PUBCHEM_CONFORMER_DIVERSEORDER>
1
25
152
134
79
164
23
144
86
57
161
46
105
4
29
76
43
145
156
26
41
103
88
151
165
38
47
89
168
50
19
162
58
128
137
87
60
148
107
160
68
40
142
99
167
169
69
11
166
48
154
63
135
139
72
17
159
44
127
155
20
96
51
39
24
28
117
124
98
37
150
147
163
33
146
74
52
77
30
110
59
125
53
82
116
112
55
114
14
13
129
9
109
21
138
136
131
61
31
81
153
80
34
71
133
95
97
123
130
90
5
49
121
66
36
85
22
75
126
64
101
70
143
120
158
15
16
10
83
157
132
32
42
115
100
94
93
54
78
104
65
35
84
111
149
73
12
18
140
91
122
113
3
27
8
92
118
45
141
106
6
108
119
62
102
67
56
7
2

> <PUBCHEM_MMFF94_PARTIAL_CHARGES>
47
1 1.2
10 -0.66
11 -0.73
12 -0.73
13 0.36
14 0.3
15 0.3
16 0.3
17 0.57
18 0.36
2 -0.57
20 0.57
22 0.54
23 0.3
24 0.57
25 0.17
26 0.09
27 -0.01
28 -0.15
29 -0.15
3 -0.57
30 -0.15
31 -0.15
32 -0.15
33 -0.15
34 0.08
35 -0.15
36 -0.15
37 -0.15
38 0.28
4 -0.57
49 0.37
5 -0.57
56 0.37
57 0.15
58 0.15
59 0.15
6 -0.65
60 0.15
61 0.15
62 0.15
63 0.15
64 0.15
65 0.15
7 -0.65
8 -0.36
9 -0.66

> <PUBCHEM_EFFECTIVE_ROTOR_COUNT>
12.2

> <PUBCHEM_PHARMACOPHORE_FEATURES>
13
1 11 donor
1 12 donor
1 2 acceptor
1 3 acceptor
1 4 acceptor
1 5 acceptor
1 6 acceptor
1 7 acceptor
1 8 acceptor
6 12 18 19 21 23 24 rings
6 26 28 29 30 31 34 rings
6 27 32 33 35 36 37 rings
6 9 10 13 14 15 16 rings

> <PUBCHEM_HEAVY_ATOM_COUNT>
38

> <PUBCHEM_ATOM_DEF_STEREO_COUNT>
2

> <PUBCHEM_ATOM_UDEF_STEREO_COUNT>
0

> <PUBCHEM_BOND_DEF_STEREO_COUNT>
0

> <PUBCHEM_BOND_UDEF_STEREO_COUNT>
0

> <PUBCHEM_ISOTOPIC_ATOM_COUNT>
0

> <PUBCHEM_COMPONENT_COUNT>
1

> <PUBCHEM_CACTVS_TAUTO_COUNT>
4

> <PUBCHEM_CONFORMER_ID>
00B5C40C00000001

> <PUBCHEM_MMFF94_ENERGY>
101.2228

> <PUBCHEM_FEATURE_SELFOVERLAP>
65.999

> <PUBCHEM_SHAPE_FINGERPRINT>
10692045 39 18202562895241832729
11763715 3 17833854680265348286
11828042 279 18045476850603761815
11828532 37 18410865365157034622
12522641 126 18042134317495308637
12522641 24 18272088335597148609
12717326 120 16589445283508584651
13383668 251 18337102475654375491
13560911 43 18408317766006602353
13899415 154 18412263900633362806
14020679 6 18186802486821348954
14394314 77 18267029345396720004
14849402 71 18411143541086632457
14856354 85 17274813659054773879
15264996 151 18188207598721093856
15328829 1 17561085791489664971
15392192 104 18044094790189080001
15439362 3 18267583701421249424
15461852 350 16128079067991520869
15664458 129 18272081717374922968
15840311 113 17418084421757022113
15927050 60 18124875922087194254
16090146 7 17059788804828245319
21049683 271 18260554415566786100
22311459 1 18411700963354340639
23559900 14 18335977653161734686
24771293 8 18057866091943745714
24771750 20 18189907585479101396
3178227 256 18410858754637480051
3411729 13 18341895255292544673
394071 54 18272650147452671554
4093350 32 16845570942299433600
437795 51 18335419075717220186
44426699 60 17677628608080180460
5385378 56 18341329006556736129
9962374 69 18411693327609201463

> <PUBCHEM_SHAPE_MULTIPOLES>
724.86
21.07
4.83
1.5
29.67
3.92
-0.06
-9.71
-2.83
-8.54
-0.47
-0.15
0.43
1.12

> <PUBCHEM_SHAPE_SELFOVERLAP>
1533.735

> <PUBCHEM_SHAPE_VOLUME>
403.8

> <PUBCHEM_COORDINATE_TYPE>
2
5
10

$$$$
