38028914
  -OEChem-12032416243D

 74 76  0     1  0  0  0  0  0999 V2000
   -0.2455   -3.7570    0.9591 O   0  0  0  0  0  0  0  0  0  0  0  0
   -2.6482    3.2088   -1.3917 O   0  0  0  0  0  0  0  0  0  0  0  0
    1.1700   -1.9175    0.8482 N   0  0  0  0  0  0  0  0  0  0  0  0
   -3.6723    1.9075    0.2387 N   0  0  0  0  0  0  0  0  0  0  0  0
    3.7325   -0.7186    0.2349 N   0  0  0  0  0  0  0  0  0  0  0  0
   -1.9706    3.3608    0.8223 N   0  0  0  0  0  0  0  0  0  0  0  0
    5.5754    0.6336    0.8287 N   0  0  0  0  0  0  0  0  0  0  0  0
   -2.9977   -0.6652   -1.1647 C   0  0  1  0  0  0  0  0  0  0  0  0
   -4.3749   -0.2851   -0.5658 C   0  0  1  0  0  0  0  0  0  0  0  0
   -2.6013   -2.0868   -0.7381 C   0  0  0  0  0  0  0  0  0  0  0  0
   -2.5255   -2.2357    0.7932 C   0  0  2  0  0  0  0  0  0  0  0  0
   -2.9942   -0.5624   -2.6932 C   0  0  0  0  0  0  0  0  0  0  0  0
   -3.7374   -1.6369    1.4778 C   0  0  0  0  0  0  0  0  0  0  0  0
   -4.5599   -0.7774    0.8504 C   0  0  0  0  0  0  0  0  0  0  0  0
   -1.2294   -1.6304    1.3435 C   0  0  0  0  0  0  0  0  0  0  0  0
   -4.5993    1.2306   -0.6130 C   0  0  0  0  0  0  0  0  0  0  0  0
   -1.5753   -0.3437   -3.2086 C   0  0  0  0  0  0  0  0  0  0  0  0
   -3.6075   -1.8145   -3.3119 C   0  0  0  0  0  0  0  0  0  0  0  0
   -4.0087   -2.0841    2.8873 C   0  0  0  0  0  0  0  0  0  0  0  0
   -0.0656   -2.5391    1.0322 C   0  0  0  0  0  0  0  0  0  0  0  0
    2.3467   -2.7293    0.5484 C   0  0  0  0  0  0  0  0  0  0  0  0
    1.3798   -0.4700    0.9248 C   0  0  0  0  0  0  0  0  0  0  0  0
    3.3301   -1.9957   -0.3609 C   0  0  0  0  0  0  0  0  0  0  0  0
    2.8344   -0.0970    1.2113 C   0  0  0  0  0  0  0  0  0  0  0  0
   -2.7513    2.8598   -0.2164 C   0  0  0  0  0  0  0  0  0  0  0  0
    4.9530   -0.1337   -0.0940 C   0  0  0  0  0  0  0  0  0  0  0  0
   -0.9444    4.3563    0.6199 C   0  0  0  0  0  0  0  0  0  0  0  0
    5.4531   -0.3809   -1.3624 C   0  0  0  0  0  0  0  0  0  0  0  0
    0.3820    3.6883    0.2821 C   0  0  0  0  0  0  0  0  0  0  0  0
   -0.8160    5.2491    1.8479 C   0  0  0  0  0  0  0  0  0  0  0  0
    6.6705    0.1964   -1.7057 C   0  0  0  0  0  0  0  0  0  0  0  0
    6.7564    1.1780    0.4590 C   0  0  0  0  0  0  0  0  0  0  0  0
    7.3411    0.9920   -0.7832 C   0  0  0  0  0  0  0  0  0  0  0  0
   -2.2425    0.0285   -0.7776 H   0  0  0  0  0  0  0  0  0  0  0  0
   -5.1730   -0.7506   -1.1576 H   0  0  0  0  0  0  0  0  0  0  0  0
   -1.6500   -2.3890   -1.1893 H   0  0  0  0  0  0  0  0  0  0  0  0
   -3.3528   -2.8149   -1.0700 H   0  0  0  0  0  0  0  0  0  0  0  0
   -2.5554   -3.3138    1.0021 H   0  0  0  0  0  0  0  0  0  0  0  0
   -3.5842    0.3002   -3.0193 H   0  0  0  0  0  0  0  0  0  0  0  0
   -5.4416   -0.4155    1.3757 H   0  0  0  0  0  0  0  0  0  0  0  0
   -1.2563   -1.5353    2.4349 H   0  0  0  0  0  0  0  0  0  0  0  0
   -1.0966   -0.6279    0.9346 H   0  0  0  0  0  0  0  0  0  0  0  0
   -5.6020    1.4757   -0.2421 H   0  0  0  0  0  0  0  0  0  0  0  0
   -4.5400    1.6217   -1.6322 H   0  0  0  0  0  0  0  0  0  0  0  0
   -0.9096   -1.1765   -2.9616 H   0  0  0  0  0  0  0  0  0  0  0  0
   -1.1431    0.5713   -2.7889 H   0  0  0  0  0  0  0  0  0  0  0  0
   -1.5768   -0.2359   -4.2988 H   0  0  0  0  0  0  0  0  0  0  0  0
   -2.9553   -2.6916   -3.2443 H   0  0  0  0  0  0  0  0  0  0  0  0
   -3.7668   -1.6445   -4.3841 H   0  0  0  0  0  0  0  0  0  0  0  0
   -4.5868   -2.0587   -2.8897 H   0  0  0  0  0  0  0  0  0  0  0  0
   -4.0774   -3.1759    2.9331 H   0  0  0  0  0  0  0  0  0  0  0  0
   -4.9516   -1.6808    3.2722 H   0  0  0  0  0  0  0  0  0  0  0  0
   -3.2134   -1.7564    3.5627 H   0  0  0  0  0  0  0  0  0  0  0  0
   -3.7236    1.7423    1.2394 H   0  0  0  0  0  0  0  0  0  0  0  0
    2.0437   -3.6757    0.0880 H   0  0  0  0  0  0  0  0  0  0  0  0
    2.8189   -2.9697    1.5089 H   0  0  0  0  0  0  0  0  0  0  0  0
    0.7527   -0.0417    1.7126 H   0  0  0  0  0  0  0  0  0  0  0  0
    1.0585   -0.0489   -0.0356 H   0  0  0  0  0  0  0  0  0  0  0  0
    4.1968   -2.6509   -0.5117 H   0  0  0  0  0  0  0  0  0  0  0  0
    2.8614   -1.8117   -1.3355 H   0  0  0  0  0  0  0  0  0  0  0  0
    2.9228    0.9959    1.1805 H   0  0  0  0  0  0  0  0  0  0  0  0
    3.1186   -0.4268    2.2180 H   0  0  0  0  0  0  0  0  0  0  0  0
   -2.0774    2.9525    1.7461 H   0  0  0  0  0  0  0  0  0  0  0  0
   -1.2396    4.9821   -0.2311 H   0  0  0  0  0  0  0  0  0  0  0  0
    4.9377   -0.9817   -2.1036 H   0  0  0  0  0  0  0  0  0  0  0  0
    0.7144    3.0323    1.0947 H   0  0  0  0  0  0  0  0  0  0  0  0
    0.2932    3.0724   -0.6196 H   0  0  0  0  0  0  0  0  0  0  0  0
    1.1631    4.4348    0.1050 H   0  0  0  0  0  0  0  0  0  0  0  0
   -0.5270    4.6705    2.7323 H   0  0  0  0  0  0  0  0  0  0  0  0
   -1.7697    5.7394    2.0722 H   0  0  0  0  0  0  0  0  0  0  0  0
   -0.0634    6.0283    1.6888 H   0  0  0  0  0  0  0  0  0  0  0  0
    7.0942    0.0307   -2.6916 H   0  0  0  0  0  0  0  0  0  0  0  0
    7.2388    1.7901    1.2139 H   0  0  0  0  0  0  0  0  0  0  0  0
    8.2908    1.4529   -1.0294 H   0  0  0  0  0  0  0  0  0  0  0  0
  1 20  2  0  0  0  0
  2 25  2  0  0  0  0
  3 20  1  0  0  0  0
  3 21  1  0  0  0  0
  3 22  1  0  0  0  0
  4 16  1  0  0  0  0
  4 25  1  0  0  0  0
  4 54  1  0  0  0  0
  5 23  1  0  0  0  0
  5 24  1  0  0  0  0
  5 26  1  0  0  0  0
  6 25  1  0  0  0  0
  6 27  1  0  0  0  0
  6 63  1  0  0  0  0
  7 26  1  0  0  0  0
  7 32  2  0  0  0  0
  8  9  1  0  0  0  0
  8 10  1  0  0  0  0
  8 12  1  0  0  0  0
  8 34  1  0  0  0  0
  9 14  1  0  0  0  0
  9 16  1  0  0  0  0
  9 35  1  0  0  0  0
 10 11  1  0  0  0  0
 10 36  1  0  0  0  0
 10 37  1  0  0  0  0
 11 13  1  0  0  0  0
 11 15  1  0  0  0  0
 11 38  1  0  0  0  0
 12 17  1  0  0  0  0
 12 18  1  0  0  0  0
 12 39  1  0  0  0  0
 13 14  2  0  0  0  0
 13 19  1  0  0  0  0
 14 40  1  0  0  0  0
 15 20  1  0  0  0  0
 15 41  1  0  0  0  0
 15 42  1  0  0  0  0
 16 43  1  0  0  0  0
 16 44  1  0  0  0  0
 17 45  1  0  0  0  0
 17 46  1  0  0  0  0
 17 47  1  0  0  0  0
 18 48  1  0  0  0  0
 18 49  1  0  0  0  0
 18 50  1  0  0  0  0
 19 51  1  0  0  0  0
 19 52  1  0  0  0  0
 19 53  1  0  0  0  0
 21 23  1  0  0  0  0
 21 55  1  0  0  0  0
 21 56  1  0  0  0  0
 22 24  1  0  0  0  0
 22 57  1  0  0  0  0
 22 58  1  0  0  0  0
 23 59  1  0  0  0  0
 23 60  1  0  0  0  0
 24 61  1  0  0  0  0
 24 62  1  0  0  0  0
 26 28  2  0  0  0  0
 27 29  1  0  0  0  0
 27 30  1  0  0  0  0
 27 64  1  0  0  0  0
 28 31  1  0  0  0  0
 28 65  1  0  0  0  0
 29 66  1  0  0  0  0
 29 67  1  0  0  0  0
 29 68  1  0  0  0  0
 30 69  1  0  0  0  0
 30 70  1  0  0  0  0
 30 71  1  0  0  0  0
 31 33  2  0  0  0  0
 31 72  1  0  0  0  0
 32 33  1  0  0  0  0
 32 73  1  0  0  0  0
 33 74  1  0  0  0  0
M  END
> <PUBCHEM_COMPOUND_CID>
38028914

> <PUBCHEM_CONFORMER_RMSD>
1.2

> <PUBCHEM_CONFORMER_DIVERSEORDER>
1
11
26
87
79
39
86
69
12
16
18
40
22
75
52
14
32
42
45
83
76
21
66
91
51
84
41
64
54
90
85
89
3
74
80
60
56
81
68
70
20
88
55
2
7
49
57
82
4
34
44
73
17
27
48
33
46
72
63
35
62
13
36
59
30
67
6
58
77
23
29
28
31
92
61
43
53
37
50
71
65
78
10
47
24
5
9
25
19
38
8
15

> <PUBCHEM_MMFF94_PARTIAL_CHARGES>
33
1 -0.57
11 0.14
13 -0.28
14 -0.29
15 0.06
16 0.3
19 0.14
2 -0.57
20 0.57
21 0.3
22 0.3
23 0.37
24 0.37
25 0.69
26 0.41
27 0.3
28 -0.15
3 -0.66
31 -0.15
32 0.16
33 -0.15
4 -0.73
40 0.15
5 -0.84
54 0.37
6 -0.73
63 0.37
65 0.15
7 -0.62
72 0.15
73 0.15
74 0.15
9 0.14

> <PUBCHEM_EFFECTIVE_ROTOR_COUNT>
12

> <PUBCHEM_PHARMACOPHORE_FEATURES>
11
1 1 acceptor
1 2 acceptor
1 4 donor
1 5 cation
1 6 donor
1 7 acceptor
3 12 17 18 hydrophobe
3 27 29 30 hydrophobe
6 3 5 21 22 23 24 rings
6 7 26 28 31 32 33 rings
6 8 9 10 11 13 14 rings

> <PUBCHEM_HEAVY_ATOM_COUNT>
33

> <PUBCHEM_ATOM_DEF_STEREO_COUNT>
3

> <PUBCHEM_ATOM_UDEF_STEREO_COUNT>
0

> <PUBCHEM_BOND_DEF_STEREO_COUNT>
0

> <PUBCHEM_BOND_UDEF_STEREO_COUNT>
0

> <PUBCHEM_ISOTOPIC_ATOM_COUNT>
0

> <PUBCHEM_COMPONENT_COUNT>
1

> <PUBCHEM_CACTVS_TAUTO_COUNT>
3

> <PUBCHEM_CONFORMER_ID>
0244467200000001

> <PUBCHEM_MMFF94_ENERGY>
81.3468

> <PUBCHEM_FEATURE_SELFOVERLAP>
55.868

> <PUBCHEM_SHAPE_FINGERPRINT>
10429389 16 18057341508933205694
10670039 82 18335144176810024332
11524674 6 9006784146436839809
12156800 1 17619964574996531369
12788726 201 18410852123271116632
13615921 28 18409728508250192725
13761468 95 17629498409686559200
13947920 24 17749380473160422412
14114206 34 18263623135350770941
14279260 333 18266735780508888982
14394314 77 18339369548446534729
15183329 4 16845579712438432286
15347590 135 17604446183445604411
15484559 13 16539336814118524128
15968369 153 18201440346116973304
16067690 210 18271524191737959852
16991981 162 17916014668843659653
18603816 31 13038630570679590908
20764821 26 18337113491813363040
21049683 118 13483333400242076781
22956985 138 15800209394324003843
2838139 119 18412538834812906870
469060 322 16226341355964186167
50150288 127 17914897526175050521
550186 7 18342465794242065118
57527585 21 18264751213164417063
6608658 132 18342161268044092415
7288768 16 17677054529940438883
9980921 221 18122375448768919564

> <PUBCHEM_SHAPE_MULTIPOLES>
642.48
14.27
5.29
2.58
30.02
8.07
-1.74
0.19
-3.75
-4.01
2.76
-3.17
-1.2
0.31

> <PUBCHEM_SHAPE_SELFOVERLAP>
1318.229

> <PUBCHEM_SHAPE_VOLUME>
367.8

> <PUBCHEM_COORDINATE_TYPE>
2
5
10

$$$$
