51137788
  -OEChem-12032416203D

 53 56  0     1  0  0  0  0  0999 V2000
   -1.4179    1.6029   -0.4236 O   0  0  0  0  0  0  0  0  0  0  0  0
    1.9674    1.0338    2.8966 O   0  0  0  0  0  0  0  0  0  0  0  0
    2.2419   -2.9828   -0.8026 O   0  0  0  0  0  0  0  0  0  0  0  0
    4.9427   -2.5641   -1.3093 O   0  0  0  0  0  0  0  0  0  0  0  0
   -5.0236   -3.4392    0.7025 O   0  0  0  0  0  0  0  0  0  0  0  0
    1.3970    2.2223    0.9846 N   0  0  0  0  0  0  0  0  0  0  0  0
   -2.1847    3.3442   -1.6005 N   0  0  0  0  0  0  0  0  0  0  0  0
   -3.1949    2.4038   -1.5216 N   0  0  0  0  0  0  0  0  0  0  0  0
    0.2138    3.4168   -0.6996 C   0  0  1  0  0  0  0  0  0  0  0  0
    0.2560    4.2496    0.5910 C   0  0  0  0  0  0  0  0  0  0  0  0
    1.3505    2.4116   -0.4662 C   0  0  0  0  0  0  0  0  0  0  0  0
    0.6088    3.2348    1.6699 C   0  0  0  0  0  0  0  0  0  0  0  0
   -1.1674    2.8346   -0.9459 C   0  0  0  0  0  0  0  0  0  0  0  0
    2.0158    1.1943    1.6787 C   0  0  0  0  0  0  0  0  0  0  0  0
    2.7783    0.2088    0.8965 C   0  0  0  0  0  0  0  0  0  0  0  0
   -2.7030    1.4050   -0.8263 C   0  0  0  0  0  0  0  0  0  0  0  0
    2.1465   -0.9353    0.4093 C   0  0  0  0  0  0  0  0  0  0  0  0
    4.1336    0.4189    0.6423 C   0  0  0  0  0  0  0  0  0  0  0  0
   -3.2994    0.1616   -0.4328 C   0  0  0  0  0  0  0  0  0  0  0  0
    2.8699   -1.8692   -0.3324 C   0  0  0  0  0  0  0  0  0  0  0  0
    4.8572   -0.5149   -0.0993 C   0  0  0  0  0  0  0  0  0  0  0  0
    4.2252   -1.6590   -0.5867 C   0  0  0  0  0  0  0  0  0  0  0  0
   -4.6135   -0.1287   -0.7996 C   0  0  0  0  0  0  0  0  0  0  0  0
   -2.5651   -0.7579    0.3162 C   0  0  0  0  0  0  0  0  0  0  0  0
   -5.1934   -1.3383   -0.4172 C   0  0  0  0  0  0  0  0  0  0  0  0
   -3.1448   -1.9675    0.6986 C   0  0  0  0  0  0  0  0  0  0  0  0
   -4.4589   -2.2577    0.3319 C   0  0  0  0  0  0  0  0  0  0  0  0
    0.8553   -3.1218   -0.4983 C   0  0  0  0  0  0  0  0  0  0  0  0
    6.3225   -2.2739   -1.5240 C   0  0  0  0  0  0  0  0  0  0  0  0
   -4.2159   -4.3329    1.4675 C   0  0  0  0  0  0  0  0  0  0  0  0
    0.4463    4.0442   -1.5686 H   0  0  0  0  0  0  0  0  0  0  0  0
    1.0618    4.9908    0.5155 H   0  0  0  0  0  0  0  0  0  0  0  0
   -0.6737    4.7831    0.8121 H   0  0  0  0  0  0  0  0  0  0  0  0
    2.3158    2.8382   -0.7619 H   0  0  0  0  0  0  0  0  0  0  0  0
    1.2093    1.4618   -0.9891 H   0  0  0  0  0  0  0  0  0  0  0  0
   -0.2845    2.7483    2.0770 H   0  0  0  0  0  0  0  0  0  0  0  0
    1.1779    3.6694    2.4973 H   0  0  0  0  0  0  0  0  0  0  0  0
    1.0917   -1.0424    0.6397 H   0  0  0  0  0  0  0  0  0  0  0  0
    4.6344    1.3078    1.0177 H   0  0  0  0  0  0  0  0  0  0  0  0
    5.9053   -0.2858   -0.2576 H   0  0  0  0  0  0  0  0  0  0  0  0
   -5.2045    0.5728   -1.3834 H   0  0  0  0  0  0  0  0  0  0  0  0
   -1.5390   -0.5664    0.6204 H   0  0  0  0  0  0  0  0  0  0  0  0
   -6.2172   -1.5593   -0.7062 H   0  0  0  0  0  0  0  0  0  0  0  0
   -2.5177   -2.6363    1.2784 H   0  0  0  0  0  0  0  0  0  0  0  0
    0.5194   -4.0622   -0.9477 H   0  0  0  0  0  0  0  0  0  0  0  0
    0.2604   -2.3226   -0.9536 H   0  0  0  0  0  0  0  0  0  0  0  0
    0.6840   -3.2069    0.5802 H   0  0  0  0  0  0  0  0  0  0  0  0
    6.4559   -1.3607   -2.1139 H   0  0  0  0  0  0  0  0  0  0  0  0
    6.8808   -2.2474   -0.5820 H   0  0  0  0  0  0  0  0  0  0  0  0
    6.7366   -3.0972   -2.1155 H   0  0  0  0  0  0  0  0  0  0  0  0
   -4.8232   -5.2200    1.6752 H   0  0  0  0  0  0  0  0  0  0  0  0
   -3.9419   -3.8994    2.4353 H   0  0  0  0  0  0  0  0  0  0  0  0
   -3.3412   -4.6699    0.9009 H   0  0  0  0  0  0  0  0  0  0  0  0
  1 13  1  0  0  0  0
  1 16  1  0  0  0  0
  2 14  2  0  0  0  0
  3 20  1  0  0  0  0
  3 28  1  0  0  0  0
  4 22  1  0  0  0  0
  4 29  1  0  0  0  0
  5 27  1  0  0  0  0
  5 30  1  0  0  0  0
  6 11  1  0  0  0  0
  6 12  1  0  0  0  0
  6 14  1  0  0  0  0
  7  8  1  0  0  0  0
  7 13  2  0  0  0  0
  8 16  2  0  0  0  0
  9 10  1  0  0  0  0
  9 11  1  0  0  0  0
  9 13  1  0  0  0  0
  9 31  1  0  0  0  0
 10 12  1  0  0  0  0
 10 32  1  0  0  0  0
 10 33  1  0  0  0  0
 11 34  1  0  0  0  0
 11 35  1  0  0  0  0
 12 36  1  0  0  0  0
 12 37  1  0  0  0  0
 14 15  1  0  0  0  0
 15 17  2  0  0  0  0
 15 18  1  0  0  0  0
 16 19  1  0  0  0  0
 17 20  1  0  0  0  0
 17 38  1  0  0  0  0
 18 21  2  0  0  0  0
 18 39  1  0  0  0  0
 19 23  2  0  0  0  0
 19 24  1  0  0  0  0
 20 22  2  0  0  0  0
 21 22  1  0  0  0  0
 21 40  1  0  0  0  0
 23 25  1  0  0  0  0
 23 41  1  0  0  0  0
 24 26  2  0  0  0  0
 24 42  1  0  0  0  0
 25 27  2  0  0  0  0
 25 43  1  0  0  0  0
 26 27  1  0  0  0  0
 26 44  1  0  0  0  0
 28 45  1  0  0  0  0
 28 46  1  0  0  0  0
 28 47  1  0  0  0  0
 29 48  1  0  0  0  0
 29 49  1  0  0  0  0
 29 50  1  0  0  0  0
 30 51  1  0  0  0  0
 30 52  1  0  0  0  0
 30 53  1  0  0  0  0
M  END
> <PUBCHEM_COMPOUND_CID>
51137788

> <PUBCHEM_CONFORMER_RMSD>
1

> <PUBCHEM_CONFORMER_DIVERSEORDER>
1
114
14
119
28
44
67
87
98
31
16
107
26
58
20
94
128
51
85
134
91
100
66
25
133
39
111
108
89
117
96
13
104
131
71
126
37
135
53
23
50
125
18
46
77
65
54
27
30
95
130
15
101
43
78
110
9
113
41
112
127
22
90
55
76
116
48
121
6
69
103
10
80
57
34
56
4
59
105
52
47
3
38
102
62
35
79
36
63
136
81
5
33
49
70
115
82
17
120
73
7
75
24
93
60
12
45
74
64
99
68
124
8
88
106
40
42
86
83
97
129
84
132
109
2
11
61
123
72
29
118
32
92
19
122
21

> <PUBCHEM_MMFF94_PARTIAL_CHARGES>
36
1 -0.28
11 0.3
12 0.3
13 0.3
14 0.54
15 0.09
16 0.43
17 -0.15
18 -0.15
19 0.05
2 -0.57
20 0.08
21 -0.15
22 0.08
23 -0.15
24 -0.15
25 -0.15
26 -0.15
27 0.08
28 0.28
29 0.28
3 -0.36
30 0.28
38 0.15
39 0.15
4 -0.36
40 0.15
41 0.15
42 0.15
43 0.15
44 0.15
5 -0.36
6 -0.66
7 -0.34
8 -0.34
9 0.18

> <PUBCHEM_EFFECTIVE_ROTOR_COUNT>
8

> <PUBCHEM_PHARMACOPHORE_FEATURES>
8
1 2 acceptor
1 3 acceptor
1 4 acceptor
1 5 acceptor
5 1 7 8 13 16 rings
5 6 9 10 11 12 rings
6 15 17 18 20 21 22 rings
6 19 23 24 25 26 27 rings

> <PUBCHEM_HEAVY_ATOM_COUNT>
30

> <PUBCHEM_ATOM_DEF_STEREO_COUNT>
1

> <PUBCHEM_ATOM_UDEF_STEREO_COUNT>
0

> <PUBCHEM_BOND_DEF_STEREO_COUNT>
0

> <PUBCHEM_BOND_UDEF_STEREO_COUNT>
0

> <PUBCHEM_ISOTOPIC_ATOM_COUNT>
0

> <PUBCHEM_COMPONENT_COUNT>
1

> <PUBCHEM_CACTVS_TAUTO_COUNT>
1

> <PUBCHEM_CONFORMER_ID>
030C4CFC00000001

> <PUBCHEM_MMFF94_ENERGY>
102.6454

> <PUBCHEM_FEATURE_SELFOVERLAP>
40.604

> <PUBCHEM_SHAPE_FINGERPRINT>
10653451 467 18125152982396531800
10764073 3 10735339558272521472
11513181 2 17693664022709001902
11828532 37 17460597172137583291
12156800 1 17198870325766533132
13135754 10 16915401895957170032
13383661 66 17845393076079388998
13402501 40 18412259523740012815
1361 2 17616249625833290827
13631057 29 18268994177175491614
13785724 45 18117006679350565043
13911882 115 18341603854651869904
13941206 138 17329992395874314541
13989917 61 17760370290024701699
14251757 5 18264211300840252797
14363568 33 18196659703264422740
14681488 357 18264772241139713939
15324884 4 18199159889679745352
15420108 30 17115206626151581656
17909252 39 18339367465376411096
17974551 9 17560802074772596073
1979834 28 17833828648958619017
20775530 9 18411696561001669571
22849339 104 18115577146261513221
23428019 142 17404033526221691846
23466295 7 18196663903684390168
23559900 14 18335414725321576949
255183 313 17114639269646429088
329604 57 18410859828843281086
3493558 16 16664049393451893894
3737641 26 18202563952083238916
42626532 9 17680163051076450722
437815 12 18201433641203103645
44426695 316 15892255099851587523
4461854 278 17111014192577579946
46194498 28 18189896602714740921
484989 97 18343025450889811814
508706 21 18336537240556839391
5309563 4 18412822504006014799
57307002 29 17968374521008049741
6287921 2 18053661666299840219
6823239 73 18409441505412844112
9980921 177 18126312890340052651

> <PUBCHEM_SHAPE_MULTIPOLES>
573.1
11.52
5.93
1.64
0.64
1.14
0.65
-13.87
-2.42
-2.33
-0.02
0.64
0.55
4.46

> <PUBCHEM_SHAPE_SELFOVERLAP>
1244.668

> <PUBCHEM_SHAPE_VOLUME>
315.7

> <PUBCHEM_COORDINATE_TYPE>
2
5
10

$$$$
