11882003
  -OEChem-12032416383D

 59 59  0     1  0  0  0  0  0999 V2000
    6.2127    1.7387   -0.3011 S   0  0  0  0  0  0  0  0  0  0  0  0
   -3.2468    2.1645    0.9992 O   0  0  0  0  0  0  0  0  0  0  0  0
   -1.1631    1.5216    2.8680 O   0  0  0  0  0  0  0  0  0  0  0  0
    1.0307   -1.8380   -1.5753 O   0  0  0  0  0  0  0  0  0  0  0  0
   -4.8751    1.4939   -1.4330 O   0  0  0  0  0  0  0  0  0  0  0  0
    6.0926    2.1552    1.0857 O   0  0  0  0  0  0  0  0  0  0  0  0
    7.4018    1.0435   -0.7641 O   0  0  0  0  0  0  0  0  0  0  0  0
    3.0999   -2.8131    1.6940 O   0  0  0  0  0  0  0  0  0  0  0  0
   -3.2788   -0.0204   -0.7003 N   0  0  0  0  0  0  0  0  0  0  0  0
    2.3170   -0.7555    0.0396 N   0  0  0  0  0  0  0  0  0  0  0  0
   -6.5620   -0.5927   -1.9899 N   0  0  0  0  0  0  0  0  0  0  0  0
    4.2133   -3.7417   -0.0875 N   0  0  0  0  0  0  0  0  0  0  0  0
   -1.9826    1.6479    0.5906 C   0  0  2  0  0  0  0  0  0  0  0  0
   -2.1506    0.8837   -0.7344 C   0  0  1  0  0  0  0  0  0  0  0  0
   -1.3831    0.7558    1.6847 C   0  0  1  0  0  0  0  0  0  0  0  0
   -0.0321    0.1733    1.2464 C   0  0  0  0  0  0  0  0  0  0  0  0
    0.0106   -0.2347   -0.1944 C   0  0  0  0  0  0  0  0  0  0  0  0
   -0.9381    0.0711   -1.0912 C   0  0  0  0  0  0  0  0  0  0  0  0
   -5.5742   -0.7726   -0.9233 C   0  0  1  0  0  0  0  0  0  0  0  0
    1.1528   -1.0272   -0.6577 C   0  0  0  0  0  0  0  0  0  0  0  0
   -4.5628    0.3651   -1.0570 C   0  0  0  0  0  0  0  0  0  0  0  0
   -6.2489   -0.8269    0.4678 C   0  0  0  0  0  0  0  0  0  0  0  0
    3.5739   -1.4140   -0.2351 C   0  0  1  0  0  0  0  0  0  0  0  0
    4.7735   -0.5299    0.1133 C   0  0  0  0  0  0  0  0  0  0  0  0
    4.8047    0.7540   -0.7060 C   0  0  0  0  0  0  0  0  0  0  0  0
   -7.0610    0.4256    0.8159 C   0  0  0  0  0  0  0  0  0  0  0  0
   -5.2362   -1.1121    1.5811 C   0  0  0  0  0  0  0  0  0  0  0  0
    3.6040   -2.6997    0.5792 C   0  0  0  0  0  0  0  0  0  0  0  0
    6.0078    3.1848   -1.3154 C   0  0  0  0  0  0  0  0  0  0  0  0
   -1.3261    2.5139    0.4334 H   0  0  0  0  0  0  0  0  0  0  0  0
   -2.3351    1.6183   -1.5280 H   0  0  0  0  0  0  0  0  0  0  0  0
   -2.0858   -0.0446    1.9444 H   0  0  0  0  0  0  0  0  0  0  0  0
    0.2080   -0.6759    1.8987 H   0  0  0  0  0  0  0  0  0  0  0  0
    0.7344    0.9369    1.4329 H   0  0  0  0  0  0  0  0  0  0  0  0
   -0.8604   -0.2534   -2.1261 H   0  0  0  0  0  0  0  0  0  0  0  0
   -3.1263   -0.9659   -0.3600 H   0  0  0  0  0  0  0  0  0  0  0  0
   -5.0627   -1.7244   -1.1119 H   0  0  0  0  0  0  0  0  0  0  0  0
   -6.9511   -1.6724    0.4578 H   0  0  0  0  0  0  0  0  0  0  0  0
    3.5985   -1.6643   -1.3031 H   0  0  0  0  0  0  0  0  0  0  0  0
   -3.1170    2.6070    1.8553 H   0  0  0  0  0  0  0  0  0  0  0  0
   -0.7932    0.9230    3.5394 H   0  0  0  0  0  0  0  0  0  0  0  0
    2.3241   -0.0861    0.8002 H   0  0  0  0  0  0  0  0  0  0  0  0
    4.7554   -0.2840    1.1833 H   0  0  0  0  0  0  0  0  0  0  0  0
    5.7008   -1.0943   -0.0487 H   0  0  0  0  0  0  0  0  0  0  0  0
    4.8555    0.5309   -1.7763 H   0  0  0  0  0  0  0  0  0  0  0  0
    3.9194    1.3676   -0.5122 H   0  0  0  0  0  0  0  0  0  0  0  0
   -7.8730    0.5947    0.1026 H   0  0  0  0  0  0  0  0  0  0  0  0
   -6.4326    1.3214    0.8428 H   0  0  0  0  0  0  0  0  0  0  0  0
   -7.5218    0.3180    1.8044 H   0  0  0  0  0  0  0  0  0  0  0  0
   -4.6211   -1.9853    1.3405 H   0  0  0  0  0  0  0  0  0  0  0  0
   -5.7552   -1.3247    2.5224 H   0  0  0  0  0  0  0  0  0  0  0  0
   -4.5767   -0.2585    1.7601 H   0  0  0  0  0  0  0  0  0  0  0  0
   -7.2882   -1.3032   -1.9070 H   0  0  0  0  0  0  0  0  0  0  0  0
   -7.0322    0.3056   -1.8913 H   0  0  0  0  0  0  0  0  0  0  0  0
    6.8489    3.8550   -1.1263 H   0  0  0  0  0  0  0  0  0  0  0  0
    5.9992    2.8810   -2.3637 H   0  0  0  0  0  0  0  0  0  0  0  0
    5.0706    3.6746   -1.0454 H   0  0  0  0  0  0  0  0  0  0  0  0
    4.6219   -3.6351   -1.0104 H   0  0  0  0  0  0  0  0  0  0  0  0
    4.2864   -4.6598    0.3383 H   0  0  0  0  0  0  0  0  0  0  0  0
  1  6  2  0  0  0  0
  1  7  2  0  0  0  0
  1 25  1  0  0  0  0
  1 29  1  0  0  0  0
  2 13  1  0  0  0  0
  2 40  1  0  0  0  0
  3 15  1  0  0  0  0
  3 41  1  0  0  0  0
  4 20  2  0  0  0  0
  5 21  2  0  0  0  0
  8 28  2  0  0  0  0
  9 14  1  0  0  0  0
  9 21  1  0  0  0  0
  9 36  1  0  0  0  0
 10 20  1  0  0  0  0
 10 23  1  0  0  0  0
 10 42  1  0  0  0  0
 11 19  1  0  0  0  0
 11 53  1  0  0  0  0
 11 54  1  0  0  0  0
 12 28  1  0  0  0  0
 12 58  1  0  0  0  0
 12 59  1  0  0  0  0
 13 14  1  0  0  0  0
 13 15  1  0  0  0  0
 13 30  1  0  0  0  0
 14 18  1  0  0  0  0
 14 31  1  0  0  0  0
 15 16  1  0  0  0  0
 15 32  1  0  0  0  0
 16 17  1  0  0  0  0
 16 33  1  0  0  0  0
 16 34  1  0  0  0  0
 17 18  2  0  0  0  0
 17 20  1  0  0  0  0
 18 35  1  0  0  0  0
 19 21  1  0  0  0  0
 19 22  1  0  0  0  0
 19 37  1  0  0  0  0
 22 26  1  0  0  0  0
 22 27  1  0  0  0  0
 22 38  1  0  0  0  0
 23 24  1  0  0  0  0
 23 28  1  0  0  0  0
 23 39  1  0  0  0  0
 24 25  1  0  0  0  0
 24 43  1  0  0  0  0
 24 44  1  0  0  0  0
 25 45  1  0  0  0  0
 25 46  1  0  0  0  0
 26 47  1  0  0  0  0
 26 48  1  0  0  0  0
 26 49  1  0  0  0  0
 27 50  1  0  0  0  0
 27 51  1  0  0  0  0
 27 52  1  0  0  0  0
 29 55  1  0  0  0  0
 29 56  1  0  0  0  0
 29 57  1  0  0  0  0
M  END
> <PUBCHEM_COMPOUND_CID>
11882003

> <PUBCHEM_CONFORMER_RMSD>
1

> <PUBCHEM_CONFORMER_DIVERSEORDER>
2
130
235
291
320
352
131
94
173
209
109
41
155
91
287
240
202
230
214
180
194
299
96
358
124
120
293
139
108
349
242
107
135
188
372
147
195
210
216
42
244
262
149
50
298
198
252
312
249
126
273
45
136
185
373
112
241
44
23
300
38
233
132
213
374
121
296
272
141
76
353
99
335
345
151
277
228
369
84
368
340
10
140
46
60
294
21
248
258
218
247
265
64
143
239
354
78
219
175
211
266
156
367
116
13
196
313
289
303
125
223
146
268
197
92
95
251
183
158
328
117
215
271
207
234
47
154
307
159
77
65
339
308
40
171
186
283
43
263
221
55
33
344
222
87
58
52
25
129
261
227
128
72
243
306
257
325
39
201
208
79
220
26
148
359
115
104
371
288
342
338
204
360
269
193
48
200
264
347
351
330
284
81
348
54
231
57
102
292
170
217
56
19
282
333
36
174
12
189
34
319
274
363
182
16
331
122
127
315
61
119
165
237
111
29
105
88
137
31
350
8
302
337
35
334
236
93
225
110
357
37
285
103
365
259
326
260
162
256
30
184
6
106
172
90
28
327
27
142
7
323
199
163
167
309
86
164
275
295
168
18
361
311
24
20
97
100
32
206
138
133
22
98
245
85
203
356
304
246
82
329
179
229
232
279
152
80
73
150
366
14
238
118
187
157
314
267
68
290
332
301
70
181
74
15
336
276
355
205
66
176
3
192
114
224
341
71
83
9
226
280
101
297
113
318
11
1
322
316
281
250
134
305
69
17
53
153
324
89
161
59
123
166
253
191
160
178
49
4
190
255
144
62
343
310
67
254
51
364
177
278
270
286
145
212
5
63
362
169
317
75
370
346
321

> <PUBCHEM_MMFF94_PARTIAL_CHARGES>
34
1 1.09
10 -0.73
11 -0.99
12 -0.8
13 0.28
14 0.44
15 0.28
16 0.14
17 -0.12
18 -0.29
19 0.33
2 -0.68
20 0.62
21 0.57
23 0.36
25 0.11
28 0.57
29 0.11
3 -0.68
35 0.15
36 0.37
4 -0.57
40 0.4
41 0.4
42 0.37
5 -0.57
53 0.36
54 0.36
58 0.37
59 0.37
6 -0.65
7 -0.65
8 -0.57
9 -0.73

> <PUBCHEM_EFFECTIVE_ROTOR_COUNT>
11.8

> <PUBCHEM_PHARMACOPHORE_FEATURES>
16
1 10 donor
1 11 cation
1 11 donor
1 12 donor
1 2 acceptor
1 2 donor
1 3 acceptor
1 3 donor
1 4 acceptor
1 5 acceptor
1 6 acceptor
1 7 acceptor
1 8 acceptor
1 9 donor
3 22 26 27 hydrophobe
6 13 14 15 16 17 18 rings

> <PUBCHEM_HEAVY_ATOM_COUNT>
29

> <PUBCHEM_ATOM_DEF_STEREO_COUNT>
5

> <PUBCHEM_ATOM_UDEF_STEREO_COUNT>
0

> <PUBCHEM_BOND_DEF_STEREO_COUNT>
0

> <PUBCHEM_BOND_UDEF_STEREO_COUNT>
0

> <PUBCHEM_ISOTOPIC_ATOM_COUNT>
0

> <PUBCHEM_COMPONENT_COUNT>
1

> <PUBCHEM_CACTVS_TAUTO_COUNT>
8

> <PUBCHEM_CONFORMER_ID>
00B54E1300000002

> <PUBCHEM_MMFF94_ENERGY>
48.6764

> <PUBCHEM_FEATURE_SELFOVERLAP>
81.231

> <PUBCHEM_SHAPE_FINGERPRINT>
10595046 47 18411979126694410116
10835480 77 18114173108583165365
10906281 52 17845948372326715519
11475781 23 16298379128865394839
12592606 108 8286202738559430496
12788726 201 17704073962598065419
13533116 47 18412543176513153266
14461889 52 17967253126252835786
14767858 380 18060419144415299132
14787075 74 18060419105929437347
14840074 17 17918275368003324573
15274700 34 16373281322639999715
15461852 350 15719399455430673370
15475509 8 15339131159904223472
15685185 35 18051414269371667020
173720 79 13118002201579689241
18335252 98 18261398870830642603
19319366 153 18342728625035626398
19377110 9 18273216369833504099
20554085 129 15574982983915571789
20567600 234 17458348580479058924
21049683 271 18200870798924713905
21521721 280 18407762538705098195
21792964 463 18266485164113207672
23522609 53 17988661682903298401
4258327 124 17970078940304154980
4325135 7 18343588446895337517
4340502 62 18040713675906390994
474 4 18335703867231492668
5104073 3 18261952925558342041
6371380 46 12247683768250362732

> <PUBCHEM_SHAPE_MULTIPOLES>
539.65
19.34
2.95
1.78
0.39
1.29
-0.61
-5.68
3.2
6.34
-0.24
-1.76
-0.33
-0.97

> <PUBCHEM_SHAPE_SELFOVERLAP>
1073.297

> <PUBCHEM_SHAPE_VOLUME>
320.6

> <PUBCHEM_COORDINATE_TYPE>
2
5
10

$$$$
