75536553
  -OEChem-12032416303D

 45 46  0     1  0  0  0  0  0999 V2000
   -0.9628   -1.2816   -0.1791 O   0  0  0  0  0  0  0  0  0  0  0  0
   -1.9344    2.0318    0.8122 O   0  0  0  0  0  0  0  0  0  0  0  0
    2.6415    1.3986    0.0131 O   0  0  0  0  0  0  0  0  0  0  0  0
   -4.3084    0.0078    0.4336 N   0  0  0  0  0  0  0  0  0  0  0  0
    1.6723   -0.5901    0.7428 N   0  0  0  0  0  0  0  0  0  0  0  0
   -2.9550    0.0092   -0.0974 C   0  0  1  0  0  0  0  0  0  0  0  0
   -1.9321    0.6178    0.8439 C   0  0  1  0  0  0  0  0  0  0  0  0
   -0.6390    0.0395    0.2853 C   0  0  1  0  0  0  0  0  0  0  0  0
    3.8127   -0.6488   -0.3501 C   0  0  0  0  0  0  0  0  0  0  0  0
    4.4942    0.0258   -1.5416 C   0  0  0  0  0  0  0  0  0  0  0  0
    4.8806   -0.7693    0.7430 C   0  0  0  0  0  0  0  0  0  0  0  0
   -2.3929   -1.3900   -0.2884 C   0  0  0  0  0  0  0  0  0  0  0  0
    5.7100    0.7212   -0.9461 C   0  0  0  0  0  0  0  0  0  0  0  0
    6.1740   -0.2549    0.1199 C   0  0  0  0  0  0  0  0  0  0  0  0
    0.4774   -0.0365    1.3116 C   0  0  0  0  0  0  0  0  0  0  0  0
    2.6613    0.1768    0.1372 C   0  0  0  0  0  0  0  0  0  0  0  0
   -5.2838   -0.2659   -0.6150 C   0  0  0  0  0  0  0  0  0  0  0  0
   -6.5733   -0.7839    0.0137 C   0  0  0  0  0  0  0  0  0  0  0  0
   -5.5423    0.9926   -1.4385 C   0  0  0  0  0  0  0  0  0  0  0  0
   -2.8967    0.5626   -1.0427 H   0  0  0  0  0  0  0  0  0  0  0  0
   -2.0997    0.2869    1.8764 H   0  0  0  0  0  0  0  0  0  0  0  0
   -0.2987    0.6172   -0.5843 H   0  0  0  0  0  0  0  0  0  0  0  0
    3.4486   -1.6377   -0.6534 H   0  0  0  0  0  0  0  0  0  0  0  0
    3.8568    0.7189   -2.0995 H   0  0  0  0  0  0  0  0  0  0  0  0
    4.8324   -0.7440   -2.2471 H   0  0  0  0  0  0  0  0  0  0  0  0
    4.9975   -1.8064    1.0756 H   0  0  0  0  0  0  0  0  0  0  0  0
    4.6285   -0.1729    1.6282 H   0  0  0  0  0  0  0  0  0  0  0  0
   -2.7244   -2.0825    0.4941 H   0  0  0  0  0  0  0  0  0  0  0  0
   -2.6479   -1.8215   -1.2610 H   0  0  0  0  0  0  0  0  0  0  0  0
    0.6975    0.9569    1.7169 H   0  0  0  0  0  0  0  0  0  0  0  0
    0.1962   -0.6965    2.1395 H   0  0  0  0  0  0  0  0  0  0  0  0
    5.4225    1.6759   -0.4908 H   0  0  0  0  0  0  0  0  0  0  0  0
    6.4832    0.9171   -1.6944 H   0  0  0  0  0  0  0  0  0  0  0  0
    6.7210   -1.0851   -0.3428 H   0  0  0  0  0  0  0  0  0  0  0  0
    6.8320    0.2135    0.8575 H   0  0  0  0  0  0  0  0  0  0  0  0
   -4.5137    0.9043    0.8736 H   0  0  0  0  0  0  0  0  0  0  0  0
    1.7914   -1.5976    0.7942 H   0  0  0  0  0  0  0  0  0  0  0  0
   -4.9261   -1.0570   -1.2855 H   0  0  0  0  0  0  0  0  0  0  0  0
   -1.7876    2.3175   -0.1054 H   0  0  0  0  0  0  0  0  0  0  0  0
   -7.0171   -0.0440    0.6895 H   0  0  0  0  0  0  0  0  0  0  0  0
   -6.3899   -1.6992    0.5875 H   0  0  0  0  0  0  0  0  0  0  0  0
   -7.3140   -1.0191   -0.7584 H   0  0  0  0  0  0  0  0  0  0  0  0
   -5.8894    1.8208   -0.8098 H   0  0  0  0  0  0  0  0  0  0  0  0
   -4.6552    1.3302   -1.9821 H   0  0  0  0  0  0  0  0  0  0  0  0
   -6.3204    0.8031   -2.1868 H   0  0  0  0  0  0  0  0  0  0  0  0
  1  8  1  0  0  0  0
  1 12  1  0  0  0  0
  2  7  1  0  0  0  0
  2 39  1  0  0  0  0
  3 16  2  0  0  0  0
  4  6  1  0  0  0  0
  4 17  1  0  0  0  0
  4 36  1  0  0  0  0
  5 15  1  0  0  0  0
  5 16  1  0  0  0  0
  5 37  1  0  0  0  0
  6  7  1  0  0  0  0
  6 12  1  0  0  0  0
  6 20  1  0  0  0  0
  7  8  1  0  0  0  0
  7 21  1  0  0  0  0
  8 15  1  0  0  0  0
  8 22  1  0  0  0  0
  9 10  1  0  0  0  0
  9 11  1  0  0  0  0
  9 16  1  0  0  0  0
  9 23  1  0  0  0  0
 10 13  1  0  0  0  0
 10 24  1  0  0  0  0
 10 25  1  0  0  0  0
 11 14  1  0  0  0  0
 11 26  1  0  0  0  0
 11 27  1  0  0  0  0
 12 28  1  0  0  0  0
 12 29  1  0  0  0  0
 13 14  1  0  0  0  0
 13 32  1  0  0  0  0
 13 33  1  0  0  0  0
 14 34  1  0  0  0  0
 14 35  1  0  0  0  0
 15 30  1  0  0  0  0
 15 31  1  0  0  0  0
 17 18  1  0  0  0  0
 17 19  1  0  0  0  0
 17 38  1  0  0  0  0
 18 40  1  0  0  0  0
 18 41  1  0  0  0  0
 18 42  1  0  0  0  0
 19 43  1  0  0  0  0
 19 44  1  0  0  0  0
 19 45  1  0  0  0  0
M  END
> <PUBCHEM_COMPOUND_CID>
75536553

> <PUBCHEM_CONFORMER_RMSD>
0.8

> <PUBCHEM_CONFORMER_DIVERSEORDER>
1
43
114
91
17
89
47
97
31
130
68
123
94
145
41
51
108
8
125
76
100
25
61
116
141
70
14
135
4
80
87
105
120
42
131
55
86
46
5
82
127
7
84
111
39
133
38
113
54
151
117
102
98
132
11
10
122
27
12
50
20
96
35
119
77
104
107
146
40
79
118
22
74
121
149
137
99
44
30
21
67
48
124
57
136
83
115
23
19
37
65
92
34
32
144
134
142
13
72
33
24
101
73
16
56
140
106
110
128
53
147
93
75
36
45
26
85
60
15
81
3
138
63
9
143
88
2
18
126
59
112
64
29
90
49
78
103
129
58
139
28
66
109
52
6
150
69
148
62
71
95

> <PUBCHEM_MMFF94_PARTIAL_CHARGES>
16
1 -0.56
12 0.28
15 0.3
16 0.57
17 0.27
2 -0.68
3 -0.57
36 0.36
37 0.37
39 0.4
4 -0.9
5 -0.73
6 0.27
7 0.28
8 0.28
9 0.06

> <PUBCHEM_EFFECTIVE_ROTOR_COUNT>
8

> <PUBCHEM_PHARMACOPHORE_FEATURES>
10
1 1 acceptor
1 2 acceptor
1 2 donor
1 3 acceptor
1 4 cation
1 4 donor
1 5 donor
3 17 18 19 hydrophobe
5 1 6 7 8 12 rings
5 9 10 11 13 14 rings

> <PUBCHEM_HEAVY_ATOM_COUNT>
19

> <PUBCHEM_ATOM_DEF_STEREO_COUNT>
3

> <PUBCHEM_ATOM_UDEF_STEREO_COUNT>
0

> <PUBCHEM_BOND_DEF_STEREO_COUNT>
0

> <PUBCHEM_BOND_UDEF_STEREO_COUNT>
0

> <PUBCHEM_ISOTOPIC_ATOM_COUNT>
0

> <PUBCHEM_COMPONENT_COUNT>
1

> <PUBCHEM_CACTVS_TAUTO_COUNT>
2

> <PUBCHEM_CONFORMER_ID>
048098A900000001

> <PUBCHEM_MMFF94_ENERGY>
26.5062

> <PUBCHEM_FEATURE_SELFOVERLAP>
50.746

> <PUBCHEM_SHAPE_FINGERPRINT>
10354089 29 12107785211962616110
106641 1 11747228944083231077
10968037 39 18202563998900455399
11045977 3 13190351187594718829
11089746 13 15140962876426496052
117890 112 15140675865400458279
12236239 1 18040713653845628258
12516196 113 15051731993295146834
12916748 109 18342742901326758010
13167372 99 17022896805434384676
13288520 33 15841832253195998065
13533116 47 18271523101011678650
13685833 64 16128657465866158735
13862211 1 18202841063452441015
1420 363 16988844986035365087
14251718 22 18334012796113591879
14251732 16 13110667385122570714
14251752 14 17968088699007177708
14251764 18 11959727197044109143
14251764 46 15864069875778213931
14341114 176 8070028870277291558
14386348 63 16343707629707610982
15048467 5 16443059483482431229
15183329 4 18411981338913901197
17834072 8 18341893004513319431
17834076 25 15502374526141008739
1813 80 13614252507327670000
19141452 34 15626216953257438141
200 152 18272086089292127961
20281389 69 15140673674940750821
20374829 77 17917988399584269295
20645477 70 15769506322665718678
20871999 31 18201721717227907497
21150785 3 18187081789119269463
21267235 1 18273218629698497075
221357 26 17385721387846647948
22224240 67 11743832556896428412
2297311 6 17560808722843594025
23035841 295 18343865537565137115
23198884 109 17022619767533254745
23402539 116 17917711275646936305
23536379 177 17603301540090055275
23557571 272 17489594428813212224
23559900 14 17917421098686507392
246663 6 18130790101424487823
29717793 49 18336549331237898222
300161 21 18261391174507437930
3004659 81 18273216421837425952
34797466 226 17203334442408404224
351380 3 12751236987095417044
3545911 37 18409449193388667770
42788 4 17167580488092289215
4325135 7 16845572050401229936
465052 167 12679464188460767724
542803 24 16298384656176697751
54446538 1 16877942736998924596
59755656 215 16917075442785467054
59755656 520 16877939464561522923

> <PUBCHEM_SHAPE_MULTIPOLES>
363.44
16.53
1.25
1.16
1.66
0.24
0.01
0.86
4.85
0.38
0.02
-0.04
0.22
-0.41

> <PUBCHEM_SHAPE_SELFOVERLAP>
731.186

> <PUBCHEM_SHAPE_VOLUME>
216.2

> <PUBCHEM_COORDINATE_TYPE>
2
5
10

$$$$
