45784011
  -OEChem-12032416243D

 39 42  0     1  0  0  0  0  0999 V2000
    4.2534    0.2128   -1.5854 O   0  0  0  0  0  0  0  0  0  0  0  0
    2.6745   -0.7678   -0.2052 N   0  0  0  0  0  0  0  0  0  0  0  0
   -1.7694   -1.4884    0.6833 N   0  0  0  0  0  0  0  0  0  0  0  0
   -0.5982    0.2605   -0.0306 N   0  0  0  0  0  0  0  0  0  0  0  0
    4.1980    0.9539    0.6405 C   0  0  0  0  0  0  0  0  0  0  0  0
    4.8581    2.2648    0.3286 C   0  0  0  0  0  0  0  0  0  0  0  0
    3.4848    2.2415    0.9330 C   0  0  0  0  0  0  0  0  0  0  0  0
    0.7333   -1.7439    0.7644 C   0  0  2  0  0  0  0  0  0  0  0  0
    1.9927   -0.9240    1.0779 C   0  0  0  0  0  0  0  0  0  0  0  0
    3.7202    0.0962   -0.4858 C   0  0  0  0  0  0  0  0  0  0  0  0
    1.1853   -2.5788   -0.4439 C   0  0  0  0  0  0  0  0  0  0  0  0
    2.0993   -1.6385   -1.2180 C   0  0  0  0  0  0  0  0  0  0  0  0
   -0.5298   -0.9573    0.4586 C   0  0  0  0  0  0  0  0  0  0  0  0
   -2.6996   -0.5506    0.3147 C   0  0  0  0  0  0  0  0  0  0  0  0
   -1.9436    0.5314   -0.1275 C   0  0  0  0  0  0  0  0  0  0  0  0
   -4.0948   -0.5560    0.3296 C   0  0  0  0  0  0  0  0  0  0  0  0
   -2.6021    1.6852   -0.5857 C   0  0  0  0  0  0  0  0  0  0  0  0
   -4.7336    0.6005   -0.1299 C   0  0  0  0  0  0  0  0  0  0  0  0
   -4.0024    1.7023   -0.5799 C   0  0  0  0  0  0  0  0  0  0  0  0
   -6.2262    0.6563   -0.1385 C   0  0  0  0  0  0  0  0  0  0  0  0
    4.5988    0.4080    1.4894 H   0  0  0  0  0  0  0  0  0  0  0  0
    5.6807    2.5775    0.9607 H   0  0  0  0  0  0  0  0  0  0  0  0
    4.9428    2.5905   -0.7007 H   0  0  0  0  0  0  0  0  0  0  0  0
    2.6520    2.5283    0.3024 H   0  0  0  0  0  0  0  0  0  0  0  0
    3.3839    2.5372    1.9700 H   0  0  0  0  0  0  0  0  0  0  0  0
    0.5095   -2.3986    1.6165 H   0  0  0  0  0  0  0  0  0  0  0  0
    1.7791    0.0476    1.5314 H   0  0  0  0  0  0  0  0  0  0  0  0
    2.6714   -1.4801    1.7346 H   0  0  0  0  0  0  0  0  0  0  0  0
    0.3662   -2.9613   -1.0608 H   0  0  0  0  0  0  0  0  0  0  0  0
    1.7697   -3.4375   -0.0892 H   0  0  0  0  0  0  0  0  0  0  0  0
    2.8855   -2.1623   -1.7698 H   0  0  0  0  0  0  0  0  0  0  0  0
    1.5364   -1.0118   -1.9184 H   0  0  0  0  0  0  0  0  0  0  0  0
   -1.9678   -2.4083    1.0539 H   0  0  0  0  0  0  0  0  0  0  0  0
   -4.6503   -1.4192    0.6800 H   0  0  0  0  0  0  0  0  0  0  0  0
   -2.0427    2.5461   -0.9375 H   0  0  0  0  0  0  0  0  0  0  0  0
   -4.5158    2.5928   -0.9356 H   0  0  0  0  0  0  0  0  0  0  0  0
   -6.5826    1.6676    0.0852 H   0  0  0  0  0  0  0  0  0  0  0  0
   -6.6537   -0.0086    0.6197 H   0  0  0  0  0  0  0  0  0  0  0  0
   -6.6071    0.3569   -1.1200 H   0  0  0  0  0  0  0  0  0  0  0  0
  1 10  2  0  0  0  0
  2  9  1  0  0  0  0
  2 10  1  0  0  0  0
  2 12  1  0  0  0  0
  3 13  1  0  0  0  0
  3 14  1  0  0  0  0
  3 33  1  0  0  0  0
  4 13  2  0  0  0  0
  4 15  1  0  0  0  0
  5  6  1  0  0  0  0
  5  7  1  0  0  0  0
  5 10  1  0  0  0  0
  5 21  1  0  0  0  0
  6  7  1  0  0  0  0
  6 22  1  0  0  0  0
  6 23  1  0  0  0  0
  7 24  1  0  0  0  0
  7 25  1  0  0  0  0
  8  9  1  0  0  0  0
  8 11  1  0  0  0  0
  8 13  1  0  0  0  0
  8 26  1  0  0  0  0
  9 27  1  0  0  0  0
  9 28  1  0  0  0  0
 11 12  1  0  0  0  0
 11 29  1  0  0  0  0
 11 30  1  0  0  0  0
 12 31  1  0  0  0  0
 12 32  1  0  0  0  0
 14 15  2  0  0  0  0
 14 16  1  0  0  0  0
 15 17  1  0  0  0  0
 16 18  2  0  0  0  0
 16 34  1  0  0  0  0
 17 19  2  0  0  0  0
 17 35  1  0  0  0  0
 18 19  1  0  0  0  0
 18 20  1  0  0  0  0
 19 36  1  0  0  0  0
 20 37  1  0  0  0  0
 20 38  1  0  0  0  0
 20 39  1  0  0  0  0
M  END
> <PUBCHEM_COMPOUND_CID>
45784011

> <PUBCHEM_CONFORMER_RMSD>
0.6

> <PUBCHEM_CONFORMER_DIVERSEORDER>
1
42
16
26
40
43
25
11
44
41
4
20
35
10
38
18
39
3
31
30
22
14
32
15
37
9
23
33
17
19
27
28
24
29
7
6
21
36
12
34
2
13
5
8

> <PUBCHEM_MMFF94_PARTIAL_CHARGES>
28
1 -0.57
10 0.63
12 0.3
13 0.01
14 -0.15
15 0.23
16 -0.15
17 -0.15
18 -0.14
19 -0.15
2 -0.66
20 0.14
21 0.1
22 0.1
23 0.1
24 0.1
25 0.1
3 0.03
33 0.27
34 0.15
35 0.15
36 0.15
4 -0.57
5 -0.1
6 -0.2
7 -0.2
8 0.18
9 0.3

> <PUBCHEM_EFFECTIVE_ROTOR_COUNT>
4.6

> <PUBCHEM_PHARMACOPHORE_FEATURES>
6
1 1 acceptor
1 3 donor
3 3 4 13 cation
5 2 8 9 11 12 rings
5 3 4 13 14 15 rings
6 14 15 16 17 18 19 rings

> <PUBCHEM_HEAVY_ATOM_COUNT>
20

> <PUBCHEM_ATOM_DEF_STEREO_COUNT>
1

> <PUBCHEM_ATOM_UDEF_STEREO_COUNT>
0

> <PUBCHEM_BOND_DEF_STEREO_COUNT>
0

> <PUBCHEM_BOND_UDEF_STEREO_COUNT>
0

> <PUBCHEM_ISOTOPIC_ATOM_COUNT>
0

> <PUBCHEM_COMPONENT_COUNT>
1

> <PUBCHEM_CACTVS_TAUTO_COUNT>
2

> <PUBCHEM_CONFORMER_ID>
02BA9BCB00000001

> <PUBCHEM_MMFF94_ENERGY>
39.424

> <PUBCHEM_FEATURE_SELFOVERLAP>
30.554

> <PUBCHEM_SHAPE_FINGERPRINT>
10498660 4 18410011026608407144
10670039 82 17895489016178647964
10871710 139 16609704008282856588
11128504 68 16988841683253019625
11595378 159 16878212083188938093
11796584 16 11671779356172376173
12403259 415 18339655537258727874
12596602 18 15357989996308126708
12633257 1 15719669952750647584
12670546 177 18060414729299604287
12730499 353 18341339937095458667
12769317 202 18271516550853827384
12892183 10 12829482671271612550
13402501 40 18410570712777456872
13533116 47 17241319162611187715
13675066 3 8214141828700897635
13955234 65 18337955562953925443
14341114 328 16370725963170250816
14528608 73 18343298180473798517
14790565 3 18125162633193716457
15375358 24 18408323289381887363
15885798 251 9511465523819827175
15961568 22 18187645825214679028
17349148 13 14273741741819934427
1813 80 13183021825793487787
18186145 218 18130799975036940450
193927 3 11239997892791014693
20567600 254 18260819406416510756
20645477 56 18334580127086687811
21150785 3 18130775777718618445
21452121 103 18336540539149744962
21728266 224 14346375536191834041
221357 26 18130511846945216396
23016692 55 9078839636067347680
23227448 37 18270114754916240943
23557571 272 18042707128804761395
23559900 14 18122055399831488955
2838139 119 18268983349568673920
3060560 45 18060703871146424702
341906 21 17749109997568550300
34797466 226 17917715703942659677
351380 180 18411415129354297088
4340502 62 15719399400176224305
43658 37 18343016714055451702
465052 167 10665228129231363680
474 4 17531257153097557766
495365 180 18131061641540027482
5104073 3 18114464432104430769
5281201 14 18128542561083911982
5312625 73 18343298189253766921
6327066 14 18196648712870821932
67856867 119 18261663766859258819
6913067 236 16878217619865668783
7808743 9 18119247513875665504
960060 61 15841551864134012700

> <PUBCHEM_SHAPE_MULTIPOLES>
390.78
11.69
2.43
1.04
6.21
0.04
0.14
7.37
0.79
-2.03
-0.06
-0.84
-0.13
1.24

> <PUBCHEM_SHAPE_SELFOVERLAP>
849.549

> <PUBCHEM_SHAPE_VOLUME>
215.1

> <PUBCHEM_COORDINATE_TYPE>
2
5
10

$$$$
