26744672
  -OEChem-12032416183D

 59 61  0     1  0  0  0  0  0999 V2000
   -2.5225    0.5904   -0.6231 O   0  0  0  0  0  0  0  0  0  0  0  0
   -5.3304    1.6380   -1.1490 O   0  0  0  0  0  0  0  0  0  0  0  0
   -5.7045   -0.2541    0.8127 O   0  0  0  0  0  0  0  0  0  0  0  0
   -0.0389    0.7818    0.9886 O   0  0  0  0  0  0  0  0  0  0  0  0
   -1.5322   -1.8842   -1.4931 O   0  0  0  0  0  0  0  0  0  0  0  0
    1.3563    2.2234   -0.1800 N   0  0  0  0  0  0  0  0  0  0  0  0
   -0.8604    2.7815    0.1421 N   0  0  0  0  0  0  0  0  0  0  0  0
   -1.0775   -3.2037    0.3651 N   0  0  0  0  0  0  0  0  0  0  0  0
    3.3445   -2.5563   -1.0443 N   0  0  0  0  0  0  0  0  0  0  0  0
   -3.0672    1.9163   -0.4332 C   0  0  1  0  0  0  0  0  0  0  0  0
   -4.5117    1.7270    0.0165 C   0  0  2  0  0  0  0  0  0  0  0  0
   -4.4501    0.3865    0.7191 C   0  0  2  0  0  0  0  0  0  0  0  0
   -3.4839   -0.3787   -0.1692 C   0  0  2  0  0  0  0  0  0  0  0  0
    2.5599    1.4270   -0.0892 C   0  0  0  0  0  0  0  0  0  0  0  0
   -2.2087    2.6284    0.6032 C   0  0  0  0  0  0  0  0  0  0  0  0
    3.4400    1.6158   -1.3294 C   0  0  0  0  0  0  0  0  0  0  0  0
    3.3343    1.7432    1.1948 C   0  0  0  0  0  0  0  0  0  0  0  0
   -2.7700   -1.5088    0.5507 C   0  0  0  0  0  0  0  0  0  0  0  0
    4.1084    2.9900   -1.3687 C   0  0  0  0  0  0  0  0  0  0  0  0
    4.0027    3.1172    1.1514 C   0  0  0  0  0  0  0  0  0  0  0  0
    4.8817    3.2769   -0.0853 C   0  0  0  0  0  0  0  0  0  0  0  0
    0.1399    1.8317    0.3725 C   0  0  0  0  0  0  0  0  0  0  0  0
   -1.7379   -2.1967   -0.3235 C   0  0  0  0  0  0  0  0  0  0  0  0
   -0.0454   -4.0210   -0.2303 C   0  0  0  0  0  0  0  0  0  0  0  0
    1.3198   -3.4235   -0.0476 C   0  0  0  0  0  0  0  0  0  0  0  0
    1.8335   -3.1842    1.2221 C   0  0  0  0  0  0  0  0  0  0  0  0
    2.1081   -3.0947   -1.1387 C   0  0  0  0  0  0  0  0  0  0  0  0
    3.1019   -2.6313    1.3599 C   0  0  0  0  0  0  0  0  0  0  0  0
    3.8104   -2.3380    0.2059 C   0  0  0  0  0  0  0  0  0  0  0  0
   -3.0018    2.4340   -1.3973 H   0  0  0  0  0  0  0  0  0  0  0  0
   -4.9067    2.5304    0.6446 H   0  0  0  0  0  0  0  0  0  0  0  0
   -4.0386    0.5080    1.7282 H   0  0  0  0  0  0  0  0  0  0  0  0
   -3.9968   -0.7778   -1.0541 H   0  0  0  0  0  0  0  0  0  0  0  0
    2.2468    0.3770   -0.0488 H   0  0  0  0  0  0  0  0  0  0  0  0
   -2.1868    2.0725    1.5470 H   0  0  0  0  0  0  0  0  0  0  0  0
   -2.6012    3.6308    0.8025 H   0  0  0  0  0  0  0  0  0  0  0  0
    2.8480    1.4731   -2.2414 H   0  0  0  0  0  0  0  0  0  0  0  0
    4.2204    0.8441   -1.3331 H   0  0  0  0  0  0  0  0  0  0  0  0
    4.1096    0.9798    1.3391 H   0  0  0  0  0  0  0  0  0  0  0  0
    2.6722    1.6892    2.0672 H   0  0  0  0  0  0  0  0  0  0  0  0
   -3.4927   -2.2570    0.8958 H   0  0  0  0  0  0  0  0  0  0  0  0
   -2.2374   -1.1171    1.4265 H   0  0  0  0  0  0  0  0  0  0  0  0
    3.3552    3.7708   -1.5259 H   0  0  0  0  0  0  0  0  0  0  0  0
    4.7916    3.0378   -2.2245 H   0  0  0  0  0  0  0  0  0  0  0  0
    4.6094    3.2578    2.0533 H   0  0  0  0  0  0  0  0  0  0  0  0
    3.2365    3.9019    1.1599 H   0  0  0  0  0  0  0  0  0  0  0  0
    5.7363    2.5926   -0.0148 H   0  0  0  0  0  0  0  0  0  0  0  0
    5.2895    4.2934   -0.1196 H   0  0  0  0  0  0  0  0  0  0  0  0
    1.4104    3.1443   -0.6038 H   0  0  0  0  0  0  0  0  0  0  0  0
   -0.6238    3.6144   -0.3883 H   0  0  0  0  0  0  0  0  0  0  0  0
   -5.3101    2.5069   -1.5853 H   0  0  0  0  0  0  0  0  0  0  0  0
   -6.3019    0.3440    1.2932 H   0  0  0  0  0  0  0  0  0  0  0  0
   -1.3138   -3.3752    1.3383 H   0  0  0  0  0  0  0  0  0  0  0  0
   -0.2743   -4.1607   -1.2929 H   0  0  0  0  0  0  0  0  0  0  0  0
   -0.0821   -5.0061    0.2479 H   0  0  0  0  0  0  0  0  0  0  0  0
    1.2578   -3.4268    2.1111 H   0  0  0  0  0  0  0  0  0  0  0  0
    1.7636   -3.2561   -2.1554 H   0  0  0  0  0  0  0  0  0  0  0  0
    3.5224   -2.4351    2.3395 H   0  0  0  0  0  0  0  0  0  0  0  0
    4.8031   -1.9031    0.2591 H   0  0  0  0  0  0  0  0  0  0  0  0
  1 10  1  0  0  0  0
  1 13  1  0  0  0  0
  2 11  1  0  0  0  0
  2 51  1  0  0  0  0
  3 12  1  0  0  0  0
  3 52  1  0  0  0  0
  4 22  2  0  0  0  0
  5 23  2  0  0  0  0
  6 14  1  0  0  0  0
  6 22  1  0  0  0  0
  6 49  1  0  0  0  0
  7 15  1  0  0  0  0
  7 22  1  0  0  0  0
  7 50  1  0  0  0  0
  8 23  1  0  0  0  0
  8 24  1  0  0  0  0
  8 53  1  0  0  0  0
  9 27  1  0  0  0  0
  9 29  2  0  0  0  0
 10 11  1  0  0  0  0
 10 15  1  0  0  0  0
 10 30  1  0  0  0  0
 11 12  1  0  0  0  0
 11 31  1  0  0  0  0
 12 13  1  0  0  0  0
 12 32  1  0  0  0  0
 13 18  1  0  0  0  0
 13 33  1  0  0  0  0
 14 16  1  0  0  0  0
 14 17  1  0  0  0  0
 14 34  1  0  0  0  0
 15 35  1  0  0  0  0
 15 36  1  0  0  0  0
 16 19  1  0  0  0  0
 16 37  1  0  0  0  0
 16 38  1  0  0  0  0
 17 20  1  0  0  0  0
 17 39  1  0  0  0  0
 17 40  1  0  0  0  0
 18 23  1  0  0  0  0
 18 41  1  0  0  0  0
 18 42  1  0  0  0  0
 19 21  1  0  0  0  0
 19 43  1  0  0  0  0
 19 44  1  0  0  0  0
 20 21  1  0  0  0  0
 20 45  1  0  0  0  0
 20 46  1  0  0  0  0
 21 47  1  0  0  0  0
 21 48  1  0  0  0  0
 24 25  1  0  0  0  0
 24 54  1  0  0  0  0
 24 55  1  0  0  0  0
 25 26  1  0  0  0  0
 25 27  2  0  0  0  0
 26 28  2  0  0  0  0
 26 56  1  0  0  0  0
 27 57  1  0  0  0  0
 28 29  1  0  0  0  0
 28 58  1  0  0  0  0
 29 59  1  0  0  0  0
M  END
> <PUBCHEM_COMPOUND_CID>
26744672

> <PUBCHEM_CONFORMER_RMSD>
1.4

> <PUBCHEM_CONFORMER_DIVERSEORDER>
1
35
117
71
10
122
113
46
106
120
78
50
70
74
7
59
45
98
116
9
103
47
54
85
89
25
56
72
51
62
96
44
121
114
111
76
8
88
11
52
101
63
82
5
91
104
20
41
22
43
84
38
21
77
27
105
61
33
92
42
29
73
123
19
18
86
36
75
24
40
14
115
110
97
28
49
64
65
100
55
87
16
30
112
12
119
67
95
58
23
102
60
6
93
32
94
26
81
53
31
108
69
99
39
80
48
68
34
57
17
79
107
15
4
13
118
37
66
83
2
90
109
3

> <PUBCHEM_MMFF94_PARTIAL_CHARGES>
33
1 -0.56
10 0.28
11 0.28
12 0.28
13 0.28
14 0.3
15 0.3
18 0.06
2 -0.68
22 0.69
23 0.57
24 0.44
25 -0.14
26 -0.15
27 0.16
28 -0.15
29 0.16
3 -0.68
4 -0.57
49 0.37
5 -0.57
50 0.37
51 0.4
52 0.4
53 0.37
56 0.15
57 0.15
58 0.15
59 0.15
6 -0.73
7 -0.73
8 -0.73
9 -0.62

> <PUBCHEM_EFFECTIVE_ROTOR_COUNT>
12.2

> <PUBCHEM_PHARMACOPHORE_FEATURES>
14
1 1 acceptor
1 2 acceptor
1 2 donor
1 3 acceptor
1 3 donor
1 4 acceptor
1 5 acceptor
1 6 donor
1 7 donor
1 8 donor
1 9 acceptor
5 1 10 11 12 13 rings
6 14 16 17 19 20 21 rings
6 9 25 26 27 28 29 rings

> <PUBCHEM_HEAVY_ATOM_COUNT>
29

> <PUBCHEM_ATOM_DEF_STEREO_COUNT>
4

> <PUBCHEM_ATOM_UDEF_STEREO_COUNT>
0

> <PUBCHEM_BOND_DEF_STEREO_COUNT>
0

> <PUBCHEM_BOND_UDEF_STEREO_COUNT>
0

> <PUBCHEM_ISOTOPIC_ATOM_COUNT>
0

> <PUBCHEM_COMPONENT_COUNT>
1

> <PUBCHEM_CACTVS_TAUTO_COUNT>
6

> <PUBCHEM_CONFORMER_ID>
0198176000000001

> <PUBCHEM_MMFF94_ENERGY>
48.4827

> <PUBCHEM_FEATURE_SELFOVERLAP>
71.116

> <PUBCHEM_SHAPE_FINGERPRINT>
1100329 8 18410854326874487326
11513181 2 18202002179014765342
12156800 1 15866352555784623402
12422481 6 18192965233069044786
12788726 201 17632307730747301353
13122387 1 17690559680824549990
13140716 1 18410289207435216939
14020679 6 17611492747900297433
14251757 5 17543927049513973116
14659021 117 17404289089591724336
15081414 286 18054515703087582367
15210252 30 18051136895729488682
15927050 60 18341614875543492535
20764821 26 18339347639184640230
21796203 349 17762095084470437106
23559900 14 18267013960348664049
3027735 51 18125434465509593143
3298306 158 18339924912758768709
338550 245 18408321099381147880
469060 322 17830755492315610139
5265222 85 17975988874737264500
6433294 58 18412547587396931088
653340 110 17765143265609866832

> <PUBCHEM_SHAPE_MULTIPOLES>
547.54
10.28
6.18
1.25
5.8
3.62
-0.07
-7.77
-0.14
-5.8
-0.05
-0.79
0.06
-0.17

> <PUBCHEM_SHAPE_SELFOVERLAP>
1134.469

> <PUBCHEM_SHAPE_VOLUME>
308.4

> <PUBCHEM_COORDINATE_TYPE>
2
5
10

$$$$
