28961828
  -OEChem-12032416393D

 60 62  0     1  0  0  0  0  0999 V2000
   -8.7409    0.6761    0.9983 F   0  0  0  0  0  0  0  0  0  0  0  0
   -6.7006    0.6239    1.7797 F   0  0  0  0  0  0  0  0  0  0  0  0
   -7.3505    2.2745    0.4616 F   0  0  0  0  0  0  0  0  0  0  0  0
    2.5193   -2.0901    0.9165 O   0  0  0  0  0  0  0  0  0  0  0  0
    4.9112   -2.0023   -0.8832 O   0  0  0  0  0  0  0  0  0  0  0  0
    3.4020    4.0533    0.9743 O   0  0  0  0  0  0  0  0  0  0  0  0
    3.2735   -4.5920    1.9540 O   0  0  0  0  0  0  0  0  0  0  0  0
   -0.5817    0.5589   -0.8509 O   0  0  0  0  0  0  0  0  0  0  0  0
   -7.0673    0.1898   -0.4357 O   0  0  0  0  0  0  0  0  0  0  0  0
    4.2409    0.7720   -0.6079 N   0  0  1  0  0  0  0  0  0  0  0  0
    0.5313   -1.4636   -0.9969 N   0  0  0  0  0  0  0  0  0  0  0  0
   -1.7697   -1.4657   -0.8451 N   0  0  0  0  0  0  0  0  0  0  0  0
    3.8846   -0.2094    0.4016 C   0  0  1  0  0  0  0  0  0  0  0  0
    3.6901    2.1169   -0.4075 C   0  0  2  0  0  0  0  0  0  0  0  0
    2.4594   -0.7723    0.3269 C   0  0  1  0  0  0  0  0  0  0  0  0
    4.7472   -1.4620    0.4216 C   0  0  1  0  0  0  0  0  0  0  0  0
    5.6852    0.9194   -0.7778 C   0  0  0  0  0  0  0  0  0  0  0  0
    3.8836   -2.3844    1.2737 C   0  0  2  0  0  0  0  0  0  0  0  0
    4.4707    2.9078   -1.4552 C   0  0  0  0  0  0  0  0  0  0  0  0
    5.8476    2.2533   -1.4970 C   0  0  0  0  0  0  0  0  0  0  0  0
    1.8575   -0.9270   -1.0653 C   0  0  0  0  0  0  0  0  0  0  0  0
    3.8662    2.7150    0.9920 C   0  0  0  0  0  0  0  0  0  0  0  0
    4.1390   -3.8696    1.0932 C   0  0  0  0  0  0  0  0  0  0  0  0
   -0.6227   -0.6684   -0.8922 C   0  0  0  0  0  0  0  0  0  0  0  0
    3.5360    4.6739    2.2477 C   0  0  0  0  0  0  0  0  0  0  0  0
   -3.1159   -1.0446   -0.7411 C   0  0  0  0  0  0  0  0  0  0  0  0
   -4.1413   -1.9897   -0.7061 C   0  0  0  0  0  0  0  0  0  0  0  0
   -3.4186    0.3154   -0.6733 C   0  0  0  0  0  0  0  0  0  0  0  0
   -5.4690   -1.5749   -0.6037 C   0  0  0  0  0  0  0  0  0  0  0  0
   -4.7463    0.7303   -0.5709 C   0  0  0  0  0  0  0  0  0  0  0  0
   -5.7716   -0.2149   -0.5360 C   0  0  0  0  0  0  0  0  0  0  0  0
   -7.4494    0.9503    0.7049 C   0  0  0  0  0  0  0  0  0  0  0  0
    4.0161    0.2125    1.4069 H   0  0  0  0  0  0  0  0  0  0  0  0
    2.6252    2.1478   -0.6682 H   0  0  0  0  0  0  0  0  0  0  0  0
    1.7888   -0.1622    0.9446 H   0  0  0  0  0  0  0  0  0  0  0  0
    5.7377   -1.3077    0.8625 H   0  0  0  0  0  0  0  0  0  0  0  0
    6.1272    0.1200   -1.3797 H   0  0  0  0  0  0  0  0  0  0  0  0
    6.2145    0.9649    0.1824 H   0  0  0  0  0  0  0  0  0  0  0  0
    3.9772   -2.1188    2.3346 H   0  0  0  0  0  0  0  0  0  0  0  0
    4.5394    3.9817   -1.2578 H   0  0  0  0  0  0  0  0  0  0  0  0
    3.9928    2.7901   -2.4369 H   0  0  0  0  0  0  0  0  0  0  0  0
    6.1765    2.1198   -2.5333 H   0  0  0  0  0  0  0  0  0  0  0  0
    6.5888    2.8765   -0.9847 H   0  0  0  0  0  0  0  0  0  0  0  0
    2.4375   -1.6310   -1.6702 H   0  0  0  0  0  0  0  0  0  0  0  0
    1.8195    0.0310   -1.5923 H   0  0  0  0  0  0  0  0  0  0  0  0
    4.9162    2.6987    1.3071 H   0  0  0  0  0  0  0  0  0  0  0  0
    3.2705    2.1589    1.7241 H   0  0  0  0  0  0  0  0  0  0  0  0
    5.1749   -4.1230    1.3382 H   0  0  0  0  0  0  0  0  0  0  0  0
    3.9151   -4.1917    0.0713 H   0  0  0  0  0  0  0  0  0  0  0  0
    5.5529   -2.7301   -0.8218 H   0  0  0  0  0  0  0  0  0  0  0  0
    0.4217   -2.4729   -1.0116 H   0  0  0  0  0  0  0  0  0  0  0  0
    3.4606   -5.5370    1.8212 H   0  0  0  0  0  0  0  0  0  0  0  0
    3.1628    5.6987    2.1711 H   0  0  0  0  0  0  0  0  0  0  0  0
    4.5874    4.7065    2.5492 H   0  0  0  0  0  0  0  0  0  0  0  0
    2.9438    4.1414    2.9981 H   0  0  0  0  0  0  0  0  0  0  0  0
   -1.6279   -2.4716   -0.8902 H   0  0  0  0  0  0  0  0  0  0  0  0
   -3.9192   -3.0525   -0.7578 H   0  0  0  0  0  0  0  0  0  0  0  0
   -2.6814    1.1055   -0.6962 H   0  0  0  0  0  0  0  0  0  0  0  0
   -6.2635   -2.3156   -0.5765 H   0  0  0  0  0  0  0  0  0  0  0  0
   -4.9696    1.7928   -0.5259 H   0  0  0  0  0  0  0  0  0  0  0  0
  1 32  1  0  0  0  0
  2 32  1  0  0  0  0
  3 32  1  0  0  0  0
  4 15  1  0  0  0  0
  4 18  1  0  0  0  0
  5 16  1  0  0  0  0
  5 50  1  0  0  0  0
  6 22  1  0  0  0  0
  6 25  1  0  0  0  0
  7 23  1  0  0  0  0
  7 52  1  0  0  0  0
  8 24  2  0  0  0  0
  9 31  1  0  0  0  0
  9 32  1  0  0  0  0
 10 13  1  0  0  0  0
 10 14  1  0  0  0  0
 10 17  1  0  0  0  0
 11 21  1  0  0  0  0
 11 24  1  0  0  0  0
 11 51  1  0  0  0  0
 12 24  1  0  0  0  0
 12 26  1  0  0  0  0
 12 56  1  0  0  0  0
 13 15  1  0  0  0  0
 13 16  1  0  0  0  0
 13 33  1  0  0  0  0
 14 19  1  0  0  0  0
 14 22  1  0  0  0  0
 14 34  1  0  0  0  0
 15 21  1  0  0  0  0
 15 35  1  0  0  0  0
 16 18  1  0  0  0  0
 16 36  1  0  0  0  0
 17 20  1  0  0  0  0
 17 37  1  0  0  0  0
 17 38  1  0  0  0  0
 18 23  1  0  0  0  0
 18 39  1  0  0  0  0
 19 20  1  0  0  0  0
 19 40  1  0  0  0  0
 19 41  1  0  0  0  0
 20 42  1  0  0  0  0
 20 43  1  0  0  0  0
 21 44  1  0  0  0  0
 21 45  1  0  0  0  0
 22 46  1  0  0  0  0
 22 47  1  0  0  0  0
 23 48  1  0  0  0  0
 23 49  1  0  0  0  0
 25 53  1  0  0  0  0
 25 54  1  0  0  0  0
 25 55  1  0  0  0  0
 26 27  2  0  0  0  0
 26 28  1  0  0  0  0
 27 29  1  0  0  0  0
 27 57  1  0  0  0  0
 28 30  2  0  0  0  0
 28 58  1  0  0  0  0
 29 31  2  0  0  0  0
 29 59  1  0  0  0  0
 30 31  1  0  0  0  0
 30 60  1  0  0  0  0
M  END
> <PUBCHEM_COMPOUND_CID>
28961828

> <PUBCHEM_CONFORMER_RMSD>
1.2

> <PUBCHEM_CONFORMER_DIVERSEORDER>
1
10
2
3
7
5
11
8
6
4
9

> <PUBCHEM_MMFF94_PARTIAL_CHARGES>
38
1 -0.34
10 -0.81
11 -0.73
12 -0.55
13 0.27
14 0.27
15 0.28
16 0.28
17 0.27
18 0.28
2 -0.34
21 0.3
22 0.28
23 0.28
24 0.69
25 0.28
26 0.12
27 -0.15
28 -0.15
29 -0.15
3 -0.34
30 -0.15
31 0.08
32 1.3
4 -0.56
5 -0.68
50 0.4
51 0.37
52 0.4
56 0.37
57 0.15
58 0.15
59 0.15
6 -0.56
60 0.15
7 -0.68
8 -0.57
9 -0.36

> <PUBCHEM_EFFECTIVE_ROTOR_COUNT>
13

> <PUBCHEM_PHARMACOPHORE_FEATURES>
14
1 10 cation
1 11 donor
1 12 donor
1 4 acceptor
1 5 acceptor
1 5 donor
1 6 acceptor
1 7 acceptor
1 7 donor
1 8 acceptor
1 9 acceptor
5 10 14 17 19 20 rings
5 4 13 15 16 18 rings
6 26 27 28 29 30 31 rings

> <PUBCHEM_HEAVY_ATOM_COUNT>
32

> <PUBCHEM_ATOM_DEF_STEREO_COUNT>
5

> <PUBCHEM_ATOM_UDEF_STEREO_COUNT>
0

> <PUBCHEM_BOND_DEF_STEREO_COUNT>
0

> <PUBCHEM_BOND_UDEF_STEREO_COUNT>
0

> <PUBCHEM_ISOTOPIC_ATOM_COUNT>
0

> <PUBCHEM_COMPONENT_COUNT>
1

> <PUBCHEM_CACTVS_TAUTO_COUNT>
3

> <PUBCHEM_CONFORMER_ID>
01B9EC2400000001

> <PUBCHEM_MMFF94_ENERGY>
89.1075

> <PUBCHEM_FEATURE_SELFOVERLAP>
71.104

> <PUBCHEM_SHAPE_FINGERPRINT>
10 15 18411146836165065163
10165383 225 17822297916474251182
10554248 39 18200019656591573791
10675989 125 18200026391006088576
11115154 58 18059872645051758676
11456790 92 18187640272216876840
11966995 178 18060150851189267397
12107183 9 17904475212557728179
12342043 65 17169262633498782422
13533116 47 18333729091743120283
13785724 45 18051410661256286046
13878862 14 18190994911751811396
14114211 68 18115041774688407132
15001296 14 18130223869261763873
15183329 4 17989211456229280081
15392192 104 17386862762641866503
1577012 14 18272368681403382615
17844677 252 18261390005617009423
21033648 29 18046062929019777236
21130935 74 18113623361829151907
21344244 78 18194944289653783162
22033318 11 17982184326696540441
22122407 14 18272379697794179801
23081809 10 18272642455519978127
23191077 185 17773304854149125143
23522609 53 18270977799210498457
23559900 14 18131636651514385326
255183 451 18196655086824128262
3178227 256 18114176420456936154
3663271 9 18335422383433265091
394071 54 17313385677079827084
397830 11 17531539775569066771
4073 2 18114749342548945547
44555599 121 18341614802660566193
5104073 3 18409448124669954435
86090 222 16588877732923009435

> <PUBCHEM_SHAPE_MULTIPOLES>
586.56
21.27
4.87
1.59
46.37
0.71
-0.53
9.15
-2.77
-10.42
-3.42
-1.36
0.54
-2.52

> <PUBCHEM_SHAPE_SELFOVERLAP>
1225.779

> <PUBCHEM_SHAPE_VOLUME>
334.2

> <PUBCHEM_COORDINATE_TYPE>
2
5
10

$$$$
