75536564
  -OEChem-12032416303D

 55 57  0     1  0  0  0  0  0999 V2000
   -7.9973   -0.0715    0.5342 S   0  0  0  0  0  0  0  0  0  0  0  0
    2.0447   -1.1411   -0.5313 O   0  0  0  0  0  0  0  0  0  0  0  0
    1.0848    2.0642    0.7762 O   0  0  0  0  0  0  0  0  0  0  0  0
    5.6912    1.3695    0.2503 O   0  0  0  0  0  0  0  0  0  0  0  0
   -8.1671   -1.1075    1.5438 O   0  0  0  0  0  0  0  0  0  0  0  0
   -8.4126    1.2939    0.8228 O   0  0  0  0  0  0  0  0  0  0  0  0
    4.6166   -0.6561    0.6611 N   0  0  0  0  0  0  0  0  0  0  0  0
   -1.3041    0.1836   -0.0191 N   0  0  0  0  0  0  0  0  0  0  0  0
    2.3654    0.1038    0.1116 C   0  0  1  0  0  0  0  0  0  0  0  0
    1.0479    0.6571    0.6376 C   0  0  2  0  0  0  0  0  0  0  0  0
    6.8337   -0.6606   -0.2681 C   0  0  0  0  0  0  0  0  0  0  0  0
    0.0863    0.2001   -0.4437 C   0  0  1  0  0  0  0  0  0  0  0  0
    7.6237    0.1255   -1.3157 C   0  0  0  0  0  0  0  0  0  0  0  0
    7.8094   -0.9466    0.8790 C   0  0  0  0  0  0  0  0  0  0  0  0
    8.8067    0.7027   -0.5519 C   0  0  0  0  0  0  0  0  0  0  0  0
    9.1604   -0.4080    0.4206 C   0  0  0  0  0  0  0  0  0  0  0  0
    0.6251   -1.1857   -0.7591 C   0  0  0  0  0  0  0  0  0  0  0  0
    3.3956   -0.1319    1.2017 C   0  0  0  0  0  0  0  0  0  0  0  0
    5.6695    0.1416    0.2277 C   0  0  0  0  0  0  0  0  0  0  0  0
   -2.2011    0.0699   -1.1629 C   0  0  0  0  0  0  0  0  0  0  0  0
   -3.6459    0.0346   -0.7409 C   0  0  0  0  0  0  0  0  0  0  0  0
   -4.1849   -1.1308   -0.1958 C   0  0  0  0  0  0  0  0  0  0  0  0
   -4.4454    1.1673   -0.8946 C   0  0  0  0  0  0  0  0  0  0  0  0
   -6.3229   -0.0310    0.0413 C   0  0  0  0  0  0  0  0  0  0  0  0
   -5.5234   -1.1636    0.1952 C   0  0  0  0  0  0  0  0  0  0  0  0
   -5.7839    1.1345   -0.5037 C   0  0  0  0  0  0  0  0  0  0  0  0
   -8.8724   -0.6140   -0.9161 C   0  0  0  0  0  0  0  0  0  0  0  0
    2.7873    0.7677   -0.6545 H   0  0  0  0  0  0  0  0  0  0  0  0
    0.7914    0.2129    1.6075 H   0  0  0  0  0  0  0  0  0  0  0  0
    0.2106    0.8639   -1.3111 H   0  0  0  0  0  0  0  0  0  0  0  0
    6.4689   -1.5934   -0.7146 H   0  0  0  0  0  0  0  0  0  0  0  0
    7.0501    0.9015   -1.8322 H   0  0  0  0  0  0  0  0  0  0  0  0
    7.9959   -0.5671   -2.0815 H   0  0  0  0  0  0  0  0  0  0  0  0
    7.8729   -2.0191    1.0922 H   0  0  0  0  0  0  0  0  0  0  0  0
    7.5043   -0.4504    1.8083 H   0  0  0  0  0  0  0  0  0  0  0  0
    8.5094    1.6065   -0.0077 H   0  0  0  0  0  0  0  0  0  0  0  0
    9.6410    0.9582   -1.2114 H   0  0  0  0  0  0  0  0  0  0  0  0
    9.7202   -1.1965   -0.0965 H   0  0  0  0  0  0  0  0  0  0  0  0
    9.7706   -0.0533    1.2562 H   0  0  0  0  0  0  0  0  0  0  0  0
    0.2154   -1.9537   -0.0930 H   0  0  0  0  0  0  0  0  0  0  0  0
    0.4337   -1.4883   -1.7931 H   0  0  0  0  0  0  0  0  0  0  0  0
    3.0335   -0.8747    1.9209 H   0  0  0  0  0  0  0  0  0  0  0  0
    3.6090    0.7984    1.7388 H   0  0  0  0  0  0  0  0  0  0  0  0
    4.7052   -1.6663    0.5996 H   0  0  0  0  0  0  0  0  0  0  0  0
   -1.5108    1.0508    0.4774 H   0  0  0  0  0  0  0  0  0  0  0  0
   -1.9933   -0.8449   -1.7326 H   0  0  0  0  0  0  0  0  0  0  0  0
   -2.0453    0.9068   -1.8562 H   0  0  0  0  0  0  0  0  0  0  0  0
    1.3114    2.4507   -0.0866 H   0  0  0  0  0  0  0  0  0  0  0  0
   -3.5722   -2.0200   -0.0728 H   0  0  0  0  0  0  0  0  0  0  0  0
   -4.0385    2.0822   -1.3169 H   0  0  0  0  0  0  0  0  0  0  0  0
   -5.9243   -2.0834    0.6116 H   0  0  0  0  0  0  0  0  0  0  0  0
   -6.3894    2.0263   -0.6384 H   0  0  0  0  0  0  0  0  0  0  0  0
   -9.9365   -0.6564   -0.6738 H   0  0  0  0  0  0  0  0  0  0  0  0
   -8.7027    0.1027   -1.7219 H   0  0  0  0  0  0  0  0  0  0  0  0
   -8.5145   -1.6063   -1.1968 H   0  0  0  0  0  0  0  0  0  0  0  0
  1  5  2  0  0  0  0
  1  6  2  0  0  0  0
  1 24  1  0  0  0  0
  1 27  1  0  0  0  0
  2  9  1  0  0  0  0
  2 17  1  0  0  0  0
  3 10  1  0  0  0  0
  3 48  1  0  0  0  0
  4 19  2  0  0  0  0
  7 18  1  0  0  0  0
  7 19  1  0  0  0  0
  7 44  1  0  0  0  0
  8 12  1  0  0  0  0
  8 20  1  0  0  0  0
  8 45  1  0  0  0  0
  9 10  1  0  0  0  0
  9 18  1  0  0  0  0
  9 28  1  0  0  0  0
 10 12  1  0  0  0  0
 10 29  1  0  0  0  0
 11 13  1  0  0  0  0
 11 14  1  0  0  0  0
 11 19  1  0  0  0  0
 11 31  1  0  0  0  0
 12 17  1  0  0  0  0
 12 30  1  0  0  0  0
 13 15  1  0  0  0  0
 13 32  1  0  0  0  0
 13 33  1  0  0  0  0
 14 16  1  0  0  0  0
 14 34  1  0  0  0  0
 14 35  1  0  0  0  0
 15 16  1  0  0  0  0
 15 36  1  0  0  0  0
 15 37  1  0  0  0  0
 16 38  1  0  0  0  0
 16 39  1  0  0  0  0
 17 40  1  0  0  0  0
 17 41  1  0  0  0  0
 18 42  1  0  0  0  0
 18 43  1  0  0  0  0
 20 21  1  0  0  0  0
 20 46  1  0  0  0  0
 20 47  1  0  0  0  0
 21 22  2  0  0  0  0
 21 23  1  0  0  0  0
 22 25  1  0  0  0  0
 22 49  1  0  0  0  0
 23 26  2  0  0  0  0
 23 50  1  0  0  0  0
 24 25  2  0  0  0  0
 24 26  1  0  0  0  0
 25 51  1  0  0  0  0
 26 52  1  0  0  0  0
 27 53  1  0  0  0  0
 27 54  1  0  0  0  0
 27 55  1  0  0  0  0
M  END
> <PUBCHEM_COMPOUND_CID>
75536564

> <PUBCHEM_CONFORMER_RMSD>
1

> <PUBCHEM_CONFORMER_DIVERSEORDER>
1
27
97
79
181
177
21
43
125
180
22
188
71
113
102
166
210
153
152
50
212
117
112
199
130
179
186
82
85
170
156
146
151
183
143
83
132
116
141
18
197
171
161
56
84
93
192
4
95
190
114
173
89
11
195
111
184
178
169
57
155
176
106
142
99
81
32
24
45
149
51
100
42
160
10
129
110
157
120
96
109
123
33
138
119
20
64
36
118
214
168
19
203
207
175
182
14
35
101
209
164
144
103
29
121
78
16
211
62
189
115
68
63
145
165
55
140
72
31
60
74
70
67
69
107
198
167
17
13
172
53
205
7
105
77
196
213
191
201
28
159
187
162
154
163
194
58
15
174
41
127
23
61
66
49
185
98
202
3
193
94
206
150
44
8
65
92
128
39
104
80
90
48
76
52
73
87
86
38
37
40
124
46
91
88
47
75
148
137
6
135
26
139
136
126
204
54
30
208
122
133
147
108
34
158
2
9
131
200
134
5
25
59
12

> <PUBCHEM_MMFF94_PARTIAL_CHARGES>
30
1 1.2
10 0.28
11 0.06
12 0.27
17 0.28
18 0.3
19 0.57
2 -0.56
20 0.41
21 -0.14
22 -0.15
23 -0.15
24 -0.01
25 -0.15
26 -0.15
27 0.11
3 -0.68
4 -0.57
44 0.37
45 0.36
48 0.4
49 0.15
5 -0.65
50 0.15
51 0.15
52 0.15
6 -0.65
7 -0.73
8 -0.9
9 0.28

> <PUBCHEM_EFFECTIVE_ROTOR_COUNT>
10

> <PUBCHEM_PHARMACOPHORE_FEATURES>
12
1 2 acceptor
1 3 acceptor
1 3 donor
1 4 acceptor
1 5 acceptor
1 6 acceptor
1 7 donor
1 8 cation
1 8 donor
5 11 13 14 15 16 rings
5 2 9 10 12 17 rings
6 21 22 23 24 25 26 rings

> <PUBCHEM_HEAVY_ATOM_COUNT>
27

> <PUBCHEM_ATOM_DEF_STEREO_COUNT>
3

> <PUBCHEM_ATOM_UDEF_STEREO_COUNT>
0

> <PUBCHEM_BOND_DEF_STEREO_COUNT>
0

> <PUBCHEM_BOND_UDEF_STEREO_COUNT>
0

> <PUBCHEM_ISOTOPIC_ATOM_COUNT>
0

> <PUBCHEM_COMPONENT_COUNT>
1

> <PUBCHEM_CACTVS_TAUTO_COUNT>
2

> <PUBCHEM_CONFORMER_ID>
048098B400000001

> <PUBCHEM_MMFF94_ENERGY>
47.8095

> <PUBCHEM_FEATURE_SELFOVERLAP>
60.916

> <PUBCHEM_SHAPE_FINGERPRINT>
10 15 18334857212638587439
10299344 5 17967531268129053122
10319688 140 16558199173202876166
106641 1 17458065971166602055
10670039 82 12463577253727502875
11135926 11 17988916752278401895
11315181 36 17240201024554046205
12082328 90 17822004277058225647
12089408 11 17967814937749500111
12643181 29 11169919386078199809
14123256 10 18333731312900276996
14150022 121 18338517435477385485
14251764 18 18407476661544917595
14251764 46 17918274255775645086
14671636 106 17458632267585648491
14933364 13 18335136492871023324
15461852 350 8862935074814367977
15728490 51 17095244739393546843
15840311 113 18261673770323524540
18335252 98 18040715844933245850
20105231 36 18131354103164920694
21095086 128 17022618663768968434
21150785 3 14779265319286935571
21267235 1 18273214200817354440
21792934 111 17704064102181511160
21792961 116 18340200804304439909
232437 2 18410292523861787959
246663 6 18410575088958052710
28498 318 15195288616790057028
3092352 35 17748827415281873650
3178227 256 18202001036637255698
335352 9 18202560704602504479
33684 2 18412261731753824198
34797466 226 17167866353253654958
4325135 7 16950281806377644142
5381727 24 15339114659478376421
5758199 1 17167861954616072834
59682541 35 15574718006018702964
6394761 36 15770058328478083560
67123 10 17458345243231226198

> <PUBCHEM_SHAPE_MULTIPOLES>
520.19
33.62
1.28
1.11
7.55
0.18
0.01
-2.35
2.14
-0.6
0.13
-0.26
-0.01
-0.08

> <PUBCHEM_SHAPE_SELFOVERLAP>
1071.41

> <PUBCHEM_SHAPE_VOLUME>
300.3

> <PUBCHEM_COORDINATE_TYPE>
2
5
10

$$$$
