11879582
  -OEChem-12032416363D

 54 58  0     1  0  0  0  0  0999 V2000
    3.4778   -2.1494   -1.0161 S   0  0  0  0  0  0  0  0  0  0  0  0
    0.6844   -2.8926   -0.5772 S   0  0  0  0  0  0  0  0  0  0  0  0
    3.1560    2.5285   -0.5264 O   0  0  0  0  0  0  0  0  0  0  0  0
    1.4372    1.2110    1.7724 O   0  0  0  0  0  0  0  0  0  0  0  0
   -1.2513    1.3902    0.3629 O   0  0  0  0  0  0  0  0  0  0  0  0
    4.7740   -2.2802   -0.3785 O   0  0  0  0  0  0  0  0  0  0  0  0
    3.2467   -2.7293   -2.3253 O   0  0  0  0  0  0  0  0  0  0  0  0
    3.0302   -0.5124   -1.0570 N   0  0  0  0  0  0  0  0  0  0  0  0
   -0.2662    3.5442    0.2345 N   0  0  0  0  0  0  0  0  0  0  0  0
   -0.6585    4.7910   -0.0440 N   0  0  0  0  0  0  0  0  0  0  0  0
   -2.3790    3.3806   -0.1894 N   0  0  0  0  0  0  0  0  0  0  0  0
   -1.9560    4.6856   -0.3039 N   0  0  0  0  0  0  0  0  0  0  0  0
   -4.1411   -2.4573    0.5615 N   0  0  0  0  0  0  0  0  0  0  0  0
    1.6583    0.9170    0.3841 C   0  0  1  0  0  0  0  0  0  0  0  0
    1.7572    2.2367   -0.3568 C   0  0  1  0  0  0  0  0  0  0  0  0
    3.0137    0.2789    0.1970 C   0  0  2  0  0  0  0  0  0  0  0  0
    1.1283    3.2533    0.5773 C   0  0  2  0  0  0  0  0  0  0  0  0
    3.9338    1.4739    0.0565 C   0  0  0  0  0  0  0  0  0  0  0  0
    1.3376    2.6300    1.9526 C   0  0  0  0  0  0  0  0  0  0  0  0
   -1.3129    2.6907    0.1451 C   0  0  0  0  0  0  0  0  0  0  0  0
    2.2637   -2.8330    0.0718 C   0  0  0  0  0  0  0  0  0  0  0  0
    2.3289   -3.3319    1.3472 C   0  0  0  0  0  0  0  0  0  0  0  0
   -2.0868    0.4846   -0.2763 C   0  0  0  0  0  0  0  0  0  0  0  0
    1.0552   -3.7750    1.8069 C   0  0  0  0  0  0  0  0  0  0  0  0
    0.0716   -3.5940    0.8597 C   0  0  0  0  0  0  0  0  0  0  0  0
   -2.6832   -0.5163    0.4659 C   0  0  0  0  0  0  0  0  0  0  0  0
   -2.2974    0.6109   -1.6360 C   0  0  0  0  0  0  0  0  0  0  0  0
   -3.5227   -1.4266   -0.1765 C   0  0  0  0  0  0  0  0  0  0  0  0
   -3.1367   -0.2994   -2.2782 C   0  0  0  0  0  0  0  0  0  0  0  0
   -3.7494   -1.3182   -1.5486 C   0  0  0  0  0  0  0  0  0  0  0  0
   -4.4509   -3.7257   -0.0672 C   0  0  0  0  0  0  0  0  0  0  0  0
   -4.4623   -2.2659    1.9619 C   0  0  0  0  0  0  0  0  0  0  0  0
    0.8455    0.2764    0.0404 H   0  0  0  0  0  0  0  0  0  0  0  0
    1.3117    2.2010   -1.3562 H   0  0  0  0  0  0  0  0  0  0  0  0
    3.3271   -0.3343    1.0471 H   0  0  0  0  0  0  0  0  0  0  0  0
    1.6483    4.2189    0.5367 H   0  0  0  0  0  0  0  0  0  0  0  0
    4.8127    1.2849   -0.5673 H   0  0  0  0  0  0  0  0  0  0  0  0
    4.2746    1.8242    1.0370 H   0  0  0  0  0  0  0  0  0  0  0  0
    0.5344    2.8496    2.6624 H   0  0  0  0  0  0  0  0  0  0  0  0
    2.2841    2.9666    2.3897 H   0  0  0  0  0  0  0  0  0  0  0  0
    2.3922   -0.1935   -1.7971 H   0  0  0  0  0  0  0  0  0  0  0  0
    3.2399   -3.3795    1.9294 H   0  0  0  0  0  0  0  0  0  0  0  0
    0.8695   -4.2037    2.7831 H   0  0  0  0  0  0  0  0  0  0  0  0
   -0.9780   -3.8389    0.9429 H   0  0  0  0  0  0  0  0  0  0  0  0
   -2.4754   -0.5812    1.5297 H   0  0  0  0  0  0  0  0  0  0  0  0
   -1.8162    1.3879   -2.2224 H   0  0  0  0  0  0  0  0  0  0  0  0
   -3.3119   -0.2155   -3.3468 H   0  0  0  0  0  0  0  0  0  0  0  0
   -4.4055   -2.0037   -2.0773 H   0  0  0  0  0  0  0  0  0  0  0  0
   -5.3657   -3.6503   -0.6643 H   0  0  0  0  0  0  0  0  0  0  0  0
   -3.6299   -4.0660   -0.7085 H   0  0  0  0  0  0  0  0  0  0  0  0
   -4.6104   -4.5097    0.6816 H   0  0  0  0  0  0  0  0  0  0  0  0
   -5.2151   -2.9884    2.2966 H   0  0  0  0  0  0  0  0  0  0  0  0
   -3.5730   -2.4041    2.5859 H   0  0  0  0  0  0  0  0  0  0  0  0
   -4.8795   -1.2694    2.1459 H   0  0  0  0  0  0  0  0  0  0  0  0
  1  6  2  0  0  0  0
  1  7  2  0  0  0  0
  1  8  1  0  0  0  0
  1 21  1  0  0  0  0
  2 21  1  0  0  0  0
  2 25  1  0  0  0  0
  3 15  1  0  0  0  0
  3 18  1  0  0  0  0
  4 14  1  0  0  0  0
  4 19  1  0  0  0  0
  5 20  1  0  0  0  0
  5 23  1  0  0  0  0
  8 16  1  0  0  0  0
  8 41  1  0  0  0  0
  9 10  1  0  0  0  0
  9 17  1  0  0  0  0
  9 20  1  0  0  0  0
 10 12  2  0  0  0  0
 11 12  1  0  0  0  0
 11 20  2  0  0  0  0
 13 28  1  0  0  0  0
 13 31  1  0  0  0  0
 13 32  1  0  0  0  0
 14 15  1  0  0  0  0
 14 16  1  0  0  0  0
 14 33  1  0  0  0  0
 15 17  1  0  0  0  0
 15 34  1  0  0  0  0
 16 18  1  0  0  0  0
 16 35  1  0  0  0  0
 17 19  1  0  0  0  0
 17 36  1  0  0  0  0
 18 37  1  0  0  0  0
 18 38  1  0  0  0  0
 19 39  1  0  0  0  0
 19 40  1  0  0  0  0
 21 22  2  0  0  0  0
 22 24  1  0  0  0  0
 22 42  1  0  0  0  0
 23 26  1  0  0  0  0
 23 27  2  0  0  0  0
 24 25  2  0  0  0  0
 24 43  1  0  0  0  0
 25 44  1  0  0  0  0
 26 28  2  0  0  0  0
 26 45  1  0  0  0  0
 27 29  1  0  0  0  0
 27 46  1  0  0  0  0
 28 30  1  0  0  0  0
 29 30  2  0  0  0  0
 29 47  1  0  0  0  0
 30 48  1  0  0  0  0
 31 49  1  0  0  0  0
 31 50  1  0  0  0  0
 31 51  1  0  0  0  0
 32 52  1  0  0  0  0
 32 53  1  0  0  0  0
 32 54  1  0  0  0  0
M  END
> <PUBCHEM_COMPOUND_CID>
11879582

> <PUBCHEM_CONFORMER_RMSD>
1

> <PUBCHEM_CONFORMER_DIVERSEORDER>
1
67
329
303
321
444
143
379
236
328
449
282
192
249
56
464
200
322
142
248
258
267
187
335
330
452
292
416
14
389
231
195
337
53
87
203
102
96
392
219
61
218
137
127
95
437
457
289
168
307
178
228
279
351
50
89
115
359
432
263
298
428
25
222
72
356
418
77
114
220
283
245
372
183
55
126
276
160
427
305
8
239
469
257
250
76
353
251
131
467
73
466
347
113
430
18
230
390
12
119
270
332
302
325
254
64
378
424
171
79
436
398
39
426
5
154
24
287
434
375
468
411
268
139
443
185
280
46
361
120
296
441
313
91
255
291
453
369
144
201
293
445
193
352
180
190
271
212
435
110
240
205
241
161
242
132
174
448
223
19
266
101
402
150
26
442
217
299
30
408
454
338
184
417
429
311
358
166
354
405
17
261
413
10
138
136
15
108
396
403
275
135
316
169
306
128
315
31
419
90
246
340
59
365
41
308
54
188
194
297
387
155
149
301
367
433
35
300
129
226
233
83
333
148
312
262
346
62
397
415
124
63
225
198
147
345
162
381
252
326
202
92
74
363
272
106
103
153
99
11
224
319
323
281
446
447
391
460
232
28
47
462
336
304
7
294
22
382
320
84
456
58
104
45
140
370
81
334
181
134
273
406
409
253
71
383
179
451
243
274
48
70
343
278
93
364
170
60
167
20
260
284
158
156
221
37
44
237
399
386
394
376
256
29
182
65
318
68
98
238
105
34
465
141
421
401
349
400
189
288
177
440
327
344
373
339
414
199
412
317
425
214
331
295
186
94
455
377
42
159
32
235
350
286
146
264
215
163
88
314
362
49
265
211
165
13
357
85
234
9
463
206
360
111
393
6
80
69
2
122
461
450
86
341
355
191
227
112
310
40
107
404
51
366
152
213
57
52
324
439
197
164
407
388
118
151
117
207
470
133
269
374
43
3
385
342
176
208
209
459
121
229
277
116
75
172
458
78
36
285
247
82
290
204
410
173
66
210
100
384
145
23
196
371
348
4
423
125
244
16
157
395
175
380
123
368
21
422
216
38
97
431
130
420
33
309
438
109
27
259

> <PUBCHEM_MMFF94_PARTIAL_CHARGES>
39
1 1.5
10 -0.42
11 -0.34
13 -0.84
14 0.28
15 0.28
16 0.36
17 0.26
18 0.28
19 0.28
2 -0.08
20 0.25
21 -0.02
22 -0.15
23 0.08
24 -0.15
25 -0.11
26 -0.15
27 -0.15
28 0.1
29 -0.15
3 -0.56
30 -0.15
31 0.37
32 0.37
4 -0.56
41 0.42
42 0.15
43 0.15
44 0.15
45 0.15
46 0.15
47 0.15
48 0.15
5 -0.15
6 -0.65
7 -0.65
8 -0.91
9 0.31

> <PUBCHEM_EFFECTIVE_ROTOR_COUNT>
8.2

> <PUBCHEM_PHARMACOPHORE_FEATURES>
12
1 13 cation
1 3 acceptor
1 4 acceptor
1 6 acceptor
1 7 acceptor
1 8 donor
3 9 11 20 cation
5 2 21 22 24 25 rings
5 3 14 15 16 18 rings
5 4 14 15 17 19 rings
5 9 10 11 12 20 rings
6 23 26 27 28 29 30 rings

> <PUBCHEM_HEAVY_ATOM_COUNT>
32

> <PUBCHEM_ATOM_DEF_STEREO_COUNT>
4

> <PUBCHEM_ATOM_UDEF_STEREO_COUNT>
0

> <PUBCHEM_BOND_DEF_STEREO_COUNT>
0

> <PUBCHEM_BOND_UDEF_STEREO_COUNT>
0

> <PUBCHEM_ISOTOPIC_ATOM_COUNT>
0

> <PUBCHEM_COMPONENT_COUNT>
1

> <PUBCHEM_CACTVS_TAUTO_COUNT>
1

> <PUBCHEM_CONFORMER_ID>
00B5449E00000001

> <PUBCHEM_MMFF94_ENERGY>
85.9565

> <PUBCHEM_FEATURE_SELFOVERLAP>
61.604

> <PUBCHEM_SHAPE_FINGERPRINT>
10816530 23 16610264759312918417
11513181 2 16542445769303903342
12100795 323 16967173899725751763
12553582 1 18196932394769496516
13122387 1 18410290302772884706
13402501 40 18048037655517735394
1361 2 17689994961645530243
14251757 5 17837785421555039198
17921350 177 17612570620691246072
19319366 153 17320444292669745610
19930381 70 18266178529391149651
20028762 73 17406551880369554199
20764821 26 18335147483202009499
20775530 9 18272093768698921470
21315764 21 16449245124766790335
238 59 18267851942859565326
3298306 158 18046885333520636191
3737641 26 18270413779271851764
463206 1 17904202521327376890
5309563 4 18339357599477244991
70251023 43 18130209494195855575
86090 222 17680156458538755139

> <PUBCHEM_SHAPE_MULTIPOLES>
607.01
7.93
7.03
1.75
5.66
2.9
0.13
-5.36
0.86
-2.19
-1.11
0.52
-0.95
1.78

> <PUBCHEM_SHAPE_SELFOVERLAP>
1291.449

> <PUBCHEM_SHAPE_VOLUME>
341.6

> <PUBCHEM_COORDINATE_TYPE>
2
5
10

$$$$
