56775540
  -OEChem-12032416323D

 44 46  0     0  0  0  0  0  0999 V2000
   -0.0393    2.4065    1.4909 O   0  0  0  0  0  0  0  0  0  0  0  0
    3.3156    0.6478   -1.0171 O   0  0  0  0  0  0  0  0  0  0  0  0
    5.3431   -1.4151   -0.1939 O   0  0  0  0  0  0  0  0  0  0  0  0
   -2.3182    1.3073   -0.3187 N   0  0  0  0  0  0  0  0  0  0  0  0
    2.0085    0.8338   -1.4505 N   0  0  0  0  0  0  0  0  0  0  0  0
   -0.8987    1.1395    0.0037 C   0  0  0  0  0  0  0  0  0  0  0  0
   -2.9492   -0.0075   -0.4165 C   0  0  0  0  0  0  0  0  0  0  0  0
   -0.7356    1.1398    1.5193 C   0  0  0  0  0  0  0  0  0  0  0  0
   -0.2431    2.5146    0.0636 C   0  0  0  0  0  0  0  0  0  0  0  0
   -2.9114   -0.7060    0.9472 C   0  0  0  0  0  0  0  0  0  0  0  0
   -4.3885    0.1417   -0.9215 C   0  0  0  0  0  0  0  0  0  0  0  0
   -0.2421    0.0574   -0.7978 C   0  0  0  0  0  0  0  0  0  0  0  0
   -3.6309   -2.0530    0.9026 C   0  0  0  0  0  0  0  0  0  0  0  0
   -5.1056   -1.2065   -0.9643 C   0  0  0  0  0  0  0  0  0  0  0  0
   -5.0608   -1.9108    0.3889 C   0  0  0  0  0  0  0  0  0  0  0  0
    1.2620    0.0959   -0.6239 C   0  0  0  0  0  0  0  0  0  0  0  0
    2.0354   -0.5713    0.3416 C   0  0  0  0  0  0  0  0  0  0  0  0
    3.3187   -0.1908    0.0505 C   0  0  0  0  0  0  0  0  0  0  0  0
    4.6279   -0.4981    0.6388 C   0  0  0  0  0  0  0  0  0  0  0  0
    6.6121   -1.7253    0.3570 C   0  0  0  0  0  0  0  0  0  0  0  0
   -2.4745   -0.6388   -1.1753 H   0  0  0  0  0  0  0  0  0  0  0  0
   -2.8422    1.9050    0.3199 H   0  0  0  0  0  0  0  0  0  0  0  0
   -1.6235    1.2452    2.1511 H   0  0  0  0  0  0  0  0  0  0  0  0
   -0.1007    0.3627    1.9543 H   0  0  0  0  0  0  0  0  0  0  0  0
    0.7020    2.6863   -0.4528 H   0  0  0  0  0  0  0  0  0  0  0  0
   -0.8867    3.3737   -0.1651 H   0  0  0  0  0  0  0  0  0  0  0  0
   -1.9010   -0.9410    1.2856 H   0  0  0  0  0  0  0  0  0  0  0  0
   -3.3943   -0.0842    1.7121 H   0  0  0  0  0  0  0  0  0  0  0  0
   -4.9506    0.8229   -0.2688 H   0  0  0  0  0  0  0  0  0  0  0  0
   -4.3945    0.5868   -1.9243 H   0  0  0  0  0  0  0  0  0  0  0  0
   -0.4548    0.1689   -1.8701 H   0  0  0  0  0  0  0  0  0  0  0  0
   -0.5465   -0.9542   -0.5057 H   0  0  0  0  0  0  0  0  0  0  0  0
   -3.6434   -2.4988    1.9038 H   0  0  0  0  0  0  0  0  0  0  0  0
   -3.0770   -2.7422    0.2529 H   0  0  0  0  0  0  0  0  0  0  0  0
   -4.6390   -1.8452   -1.7243 H   0  0  0  0  0  0  0  0  0  0  0  0
   -6.1482   -1.0592   -1.2681 H   0  0  0  0  0  0  0  0  0  0  0  0
   -5.5226   -2.9009    0.3048 H   0  0  0  0  0  0  0  0  0  0  0  0
   -5.6540   -1.3419    1.1154 H   0  0  0  0  0  0  0  0  0  0  0  0
    1.7116   -1.2334    1.1310 H   0  0  0  0  0  0  0  0  0  0  0  0
    4.4969   -0.9410    1.6332 H   0  0  0  0  0  0  0  0  0  0  0  0
    5.2111    0.4240    0.7487 H   0  0  0  0  0  0  0  0  0  0  0  0
    7.1174   -2.4258   -0.3135 H   0  0  0  0  0  0  0  0  0  0  0  0
    6.5014   -2.2007    1.3365 H   0  0  0  0  0  0  0  0  0  0  0  0
    7.2257   -0.8233    0.4435 H   0  0  0  0  0  0  0  0  0  0  0  0
  1  8  1  0  0  0  0
  1  9  1  0  0  0  0
  2  5  1  0  0  0  0
  2 18  1  0  0  0  0
  3 19  1  0  0  0  0
  3 20  1  0  0  0  0
  4  6  1  0  0  0  0
  4  7  1  0  0  0  0
  4 22  1  0  0  0  0
  5 16  2  0  0  0  0
  6  8  1  0  0  0  0
  6  9  1  0  0  0  0
  6 12  1  0  0  0  0
  7 10  1  0  0  0  0
  7 11  1  0  0  0  0
  7 21  1  0  0  0  0
  8 23  1  0  0  0  0
  8 24  1  0  0  0  0
  9 25  1  0  0  0  0
  9 26  1  0  0  0  0
 10 13  1  0  0  0  0
 10 27  1  0  0  0  0
 10 28  1  0  0  0  0
 11 14  1  0  0  0  0
 11 29  1  0  0  0  0
 11 30  1  0  0  0  0
 12 16  1  0  0  0  0
 12 31  1  0  0  0  0
 12 32  1  0  0  0  0
 13 15  1  0  0  0  0
 13 33  1  0  0  0  0
 13 34  1  0  0  0  0
 14 15  1  0  0  0  0
 14 35  1  0  0  0  0
 14 36  1  0  0  0  0
 15 37  1  0  0  0  0
 15 38  1  0  0  0  0
 16 17  1  0  0  0  0
 17 18  2  0  0  0  0
 17 39  1  0  0  0  0
 18 19  1  0  0  0  0
 19 40  1  0  0  0  0
 19 41  1  0  0  0  0
 20 42  1  0  0  0  0
 20 43  1  0  0  0  0
 20 44  1  0  0  0  0
M  END
> <PUBCHEM_COMPOUND_CID>
56775540

> <PUBCHEM_CONFORMER_RMSD>
0.8

> <PUBCHEM_CONFORMER_DIVERSEORDER>
1
128
13
3
126
91
79
88
114
31
28
77
75
5
71
103
19
25
7
35
113
97
66
74
54
87
105
96
80
129
119
112
50
36
6
81
107
18
55
68
9
58
64
95
111
99
20
122
124
89
24
51
11
108
29
53
43
27
123
70
62
100
46
15
37
98
4
2
34
33
84
117
12
69
101
102
93
63
116
78
125
30
130
61
42
60
121
67
22
52
83
94
21
48
92
41
85
16
47
14
45
73
72
44
106
59
127
49
32
76
40
109
110
39
90
57
26
56
82
23
115
10
8
38
104
17
120
118
86
65

> <PUBCHEM_MMFF94_PARTIAL_CHARGES>
17
1 -0.52
12 0.18
16 0.11
17 -0.15
18 -0.04
19 0.46
2 -0.02
20 0.28
22 0.36
3 -0.56
39 0.15
4 -0.84
5 -0.41
6 0.21
7 0.27
8 0.26
9 0.26

> <PUBCHEM_EFFECTIVE_ROTOR_COUNT>
8

> <PUBCHEM_PHARMACOPHORE_FEATURES>
8
1 1 acceptor
1 3 acceptor
1 4 cation
1 4 donor
1 5 acceptor
4 1 6 8 9 rings
5 2 5 16 17 18 rings
6 7 10 11 13 14 15 rings

> <PUBCHEM_HEAVY_ATOM_COUNT>
20

> <PUBCHEM_ATOM_DEF_STEREO_COUNT>
0

> <PUBCHEM_ATOM_UDEF_STEREO_COUNT>
0

> <PUBCHEM_BOND_DEF_STEREO_COUNT>
0

> <PUBCHEM_BOND_UDEF_STEREO_COUNT>
0

> <PUBCHEM_ISOTOPIC_ATOM_COUNT>
0

> <PUBCHEM_COMPONENT_COUNT>
1

> <PUBCHEM_CACTVS_TAUTO_COUNT>
1

> <PUBCHEM_CONFORMER_ID>
0362537400000001

> <PUBCHEM_MMFF94_ENERGY>
39.5134

> <PUBCHEM_FEATURE_SELFOVERLAP>
40.597

> <PUBCHEM_SHAPE_FINGERPRINT>
10465860 250 18413669123643225265
11796584 16 18114174246480609371
12236239 1 18334575729061094148
12363563 72 18271253797739481149
12403259 415 12829500267567838997
12633257 1 17842863246042446923
12760667 363 18412263921812943147
12892183 10 13973698216976355191
12895836 83 7997678797213679078
12916754 54 18261115153970602756
13257819 101 10015593787314787483
13288520 33 18335419041093653302
13544653 18 18273497887923469685
13862211 1 18272365395215792159
13955234 65 17763191636940001345
14123255 352 9655585101768841675
14178342 30 17845110483999087417
14211702 104 18268431227328487398
14251740 79 17821449054051955643
14252887 29 17275113837627205405
14341114 328 14404902543641942075
14848160 23 18410005546562420850
15188451 53 18336254670653703026
1813 80 17560813159624211189
18186145 218 13407077045706170901
18222031 100 17775291602872272525
18927931 339 18130791122713665862
193927 3 18336558156847292670
19784866 240 18187368714008519622
200 152 18260830392905768206
20671657 53 18338523048877639725
21069387 34 17603595118505996324
21267235 1 18260554419640167642
2297311 6 18060425681930211764
23402539 116 18342736282481422580
23557571 272 18129097831852338864
23559900 14 18114739438190583748
25 1 11963379757011982101
25122255 55 18409736131880744902
26918003 58 18410290285492529054
2916195 48 9799396829036069262
3004659 81 17894627067296637634
314173 85 17632303371381264741
5104073 3 18272656757038406976
559249 180 18187923941916801655
5718773 13 18268423715356859959
633830 44 14273453717007573983
76465 3 18340204206435548463

> <PUBCHEM_SHAPE_MULTIPOLES>
384.02
12.37
2.2
1.23
10.52
0.48
0.14
-11.01
-0.78
-0.59
0.64
-0.39
0.29
0

> <PUBCHEM_SHAPE_SELFOVERLAP>
796.339

> <PUBCHEM_SHAPE_VOLUME>
220.9

> <PUBCHEM_COORDINATE_TYPE>
2
5
10

$$$$
