11885915
  -OEChem-12032416253D

 59 63  0     1  0  0  0  0  0999 V2000
   -0.2293    2.5818    1.3732 O   0  0  0  0  0  0  0  0  0  0  0  0
   -3.9422   -0.8260    2.5423 O   0  0  0  0  0  0  0  0  0  0  0  0
    2.2928   -0.7252   -1.0788 O   0  0  0  0  0  0  0  0  0  0  0  0
    6.2322    1.4177    1.3271 O   0  0  0  0  0  0  0  0  0  0  0  0
   -4.4505    0.0876    0.4490 N   0  0  0  0  0  0  0  0  0  0  0  0
   -1.9552    1.9731   -0.0794 N   0  0  0  0  0  0  0  0  0  0  0  0
    1.6855    1.2979   -0.1223 N   0  0  0  0  0  0  0  0  0  0  0  0
   -2.0186   -2.0064    0.4735 N   0  0  0  0  0  0  0  0  0  0  0  0
    3.8460    0.5629    0.1200 N   0  0  0  0  0  0  0  0  0  0  0  0
   -4.4071    2.5741    0.3552 C   0  0  1  0  0  0  0  0  0  0  0  0
   -3.8020    1.2642   -1.6396 C   0  0  2  0  0  0  0  0  0  0  0  0
   -4.5438    2.5119   -1.1623 C   0  0  0  0  0  0  0  0  0  0  0  0
   -5.0178    1.3173    1.0013 C   0  0  0  0  0  0  0  0  0  0  0  0
   -2.9250    2.7443    0.7112 C   0  0  0  0  0  0  0  0  0  0  0  0
   -4.4503    0.0095   -1.0208 C   0  0  0  0  0  0  0  0  0  0  0  0
   -2.3349    1.3223   -1.2579 C   0  0  0  0  0  0  0  0  0  0  0  0
   -1.4113    0.7209   -2.0263 C   0  0  0  0  0  0  0  0  0  0  0  0
   -0.6142    2.0083    0.3532 C   0  0  0  0  0  0  0  0  0  0  0  0
   -3.9449   -0.8857    1.3139 C   0  0  0  0  0  0  0  0  0  0  0  0
    0.3799    1.3027   -0.5164 C   0  0  0  0  0  0  0  0  0  0  0  0
   -0.0274    0.7117   -1.6446 C   0  0  0  0  0  0  0  0  0  0  0  0
   -3.3425   -2.0847    0.7221 C   0  0  0  0  0  0  0  0  0  0  0  0
   -4.1251   -3.1928    0.4561 C   0  0  0  0  0  0  0  0  0  0  0  0
    2.5907    0.2722   -0.4254 C   0  0  0  0  0  0  0  0  0  0  0  0
   -3.5038   -4.3024   -0.1062 C   0  0  0  0  0  0  0  0  0  0  0  0
   -1.4495   -3.1042   -0.0731 C   0  0  0  0  0  0  0  0  0  0  0  0
   -2.1408   -4.2654   -0.3788 C   0  0  0  0  0  0  0  0  0  0  0  0
    5.0272   -0.2113    0.0426 C   0  0  0  0  0  0  0  0  0  0  0  0
    6.1905    0.2358    0.6492 C   0  0  0  0  0  0  0  0  0  0  0  0
    4.9913   -1.4138   -0.6463 C   0  0  0  0  0  0  0  0  0  0  0  0
    7.3473   -0.5391    0.5648 C   0  0  0  0  0  0  0  0  0  0  0  0
    6.1483   -2.1886   -0.7306 C   0  0  0  0  0  0  0  0  0  0  0  0
    7.3262   -1.7513   -0.1251 C   0  0  0  0  0  0  0  0  0  0  0  0
    6.5784    2.5810    0.5791 C   0  0  0  0  0  0  0  0  0  0  0  0
   -4.9558    3.4434    0.7384 H   0  0  0  0  0  0  0  0  0  0  0  0
   -3.9001    1.2034   -2.7312 H   0  0  0  0  0  0  0  0  0  0  0  0
   -5.6011    2.4628   -1.4498 H   0  0  0  0  0  0  0  0  0  0  0  0
   -4.1260    3.4145   -1.6255 H   0  0  0  0  0  0  0  0  0  0  0  0
   -4.8887    1.3499    2.0884 H   0  0  0  0  0  0  0  0  0  0  0  0
   -6.0966    1.2845    0.8059 H   0  0  0  0  0  0  0  0  0  0  0  0
   -2.7585    2.5306    1.7746 H   0  0  0  0  0  0  0  0  0  0  0  0
   -2.6490    3.7981    0.5688 H   0  0  0  0  0  0  0  0  0  0  0  0
   -3.9464   -0.8926   -1.3771 H   0  0  0  0  0  0  0  0  0  0  0  0
   -5.4989   -0.0662   -1.3345 H   0  0  0  0  0  0  0  0  0  0  0  0
   -1.6831    0.2009   -2.9390 H   0  0  0  0  0  0  0  0  0  0  0  0
    0.6376    0.2329   -2.3533 H   0  0  0  0  0  0  0  0  0  0  0  0
    1.9436    1.9385    0.6234 H   0  0  0  0  0  0  0  0  0  0  0  0
   -5.1877   -3.2081    0.6729 H   0  0  0  0  0  0  0  0  0  0  0  0
   -4.0808   -5.1942   -0.3318 H   0  0  0  0  0  0  0  0  0  0  0  0
   -0.3851   -3.0232   -0.2676 H   0  0  0  0  0  0  0  0  0  0  0  0
   -1.6358   -5.1183   -0.8174 H   0  0  0  0  0  0  0  0  0  0  0  0
    3.9274    1.4340    0.6381 H   0  0  0  0  0  0  0  0  0  0  0  0
    4.1252   -1.8249   -1.1420 H   0  0  0  0  0  0  0  0  0  0  0  0
    8.2686   -0.2053    1.0345 H   0  0  0  0  0  0  0  0  0  0  0  0
    6.1334   -3.1328   -1.2674 H   0  0  0  0  0  0  0  0  0  0  0  0
    8.2270   -2.3546   -0.1906 H   0  0  0  0  0  0  0  0  0  0  0  0
    6.5262    3.4454    1.2467 H   0  0  0  0  0  0  0  0  0  0  0  0
    7.6001    2.4973    0.1951 H   0  0  0  0  0  0  0  0  0  0  0  0
    5.8789    2.7360   -0.2484 H   0  0  0  0  0  0  0  0  0  0  0  0
  1 18  2  0  0  0  0
  2 19  2  0  0  0  0
  3 24  2  0  0  0  0
  4 29  1  0  0  0  0
  4 34  1  0  0  0  0
  5 13  1  0  0  0  0
  5 15  1  0  0  0  0
  5 19  1  0  0  0  0
  6 14  1  0  0  0  0
  6 16  1  0  0  0  0
  6 18  1  0  0  0  0
  7 20  1  0  0  0  0
  7 24  1  0  0  0  0
  7 47  1  0  0  0  0
  8 22  1  0  0  0  0
  8 26  2  0  0  0  0
  9 24  1  0  0  0  0
  9 28  1  0  0  0  0
  9 52  1  0  0  0  0
 10 12  1  0  0  0  0
 10 13  1  0  0  0  0
 10 14  1  0  0  0  0
 10 35  1  0  0  0  0
 11 12  1  0  0  0  0
 11 15  1  0  0  0  0
 11 16  1  0  0  0  0
 11 36  1  0  0  0  0
 12 37  1  0  0  0  0
 12 38  1  0  0  0  0
 13 39  1  0  0  0  0
 13 40  1  0  0  0  0
 14 41  1  0  0  0  0
 14 42  1  0  0  0  0
 15 43  1  0  0  0  0
 15 44  1  0  0  0  0
 16 17  2  0  0  0  0
 17 21  1  0  0  0  0
 17 45  1  0  0  0  0
 18 20  1  0  0  0  0
 19 22  1  0  0  0  0
 20 21  2  0  0  0  0
 21 46  1  0  0  0  0
 22 23  2  0  0  0  0
 23 25  1  0  0  0  0
 23 48  1  0  0  0  0
 25 27  2  0  0  0  0
 25 49  1  0  0  0  0
 26 27  1  0  0  0  0
 26 50  1  0  0  0  0
 27 51  1  0  0  0  0
 28 29  1  0  0  0  0
 28 30  2  0  0  0  0
 29 31  2  0  0  0  0
 30 32  1  0  0  0  0
 30 53  1  0  0  0  0
 31 33  1  0  0  0  0
 31 54  1  0  0  0  0
 32 33  2  0  0  0  0
 32 55  1  0  0  0  0
 33 56  1  0  0  0  0
 34 57  1  0  0  0  0
 34 58  1  0  0  0  0
 34 59  1  0  0  0  0
M  END
> <PUBCHEM_COMPOUND_CID>
11885915

> <PUBCHEM_CONFORMER_RMSD>
1

> <PUBCHEM_CONFORMER_DIVERSEORDER>
1
65
56
17
57
26
75
66
59
21
53
46
47
67
70
74
4
30
43
31
27
45
35
51
16
60
42
44
12
9
71
68
34
15
33
38
20
58
39
48
69
73
54
61
50
14
52
37
32
41
36
62
10
3
63
28
29
7
19
64
49
55
8
72
13
11
40
5
24
2
25
23
6
18
22

> <PUBCHEM_MMFF94_PARTIAL_CHARGES>
44
1 -0.57
11 0.14
13 0.3
14 0.3
15 0.3
16 -0.03
17 -0.15
18 0.62
19 0.54
2 -0.57
20 0.12
21 -0.15
22 0.4
23 -0.15
24 0.69
25 -0.15
26 0.16
27 -0.15
28 0.12
29 0.08
3 -0.57
30 -0.15
31 -0.15
32 -0.15
33 -0.15
34 0.28
4 -0.36
45 0.15
46 0.15
47 0.37
48 0.15
49 0.15
5 -0.66
50 0.15
51 0.15
52 0.37
53 0.15
54 0.15
55 0.15
56 0.15
6 -0.47
7 -0.54
8 -0.62
9 -0.55

> <PUBCHEM_EFFECTIVE_ROTOR_COUNT>
8

> <PUBCHEM_PHARMACOPHORE_FEATURES>
12
1 1 acceptor
1 2 acceptor
1 3 acceptor
1 4 acceptor
1 7 donor
1 8 acceptor
1 9 donor
6 28 29 30 31 32 33 rings
6 5 10 11 12 13 15 rings
6 6 10 11 12 14 16 rings
6 6 16 17 18 20 21 rings
6 8 22 23 25 26 27 rings

> <PUBCHEM_HEAVY_ATOM_COUNT>
34

> <PUBCHEM_ATOM_DEF_STEREO_COUNT>
2

> <PUBCHEM_ATOM_UDEF_STEREO_COUNT>
0

> <PUBCHEM_BOND_DEF_STEREO_COUNT>
0

> <PUBCHEM_BOND_UDEF_STEREO_COUNT>
0

> <PUBCHEM_ISOTOPIC_ATOM_COUNT>
0

> <PUBCHEM_COMPONENT_COUNT>
1

> <PUBCHEM_CACTVS_TAUTO_COUNT>
3

> <PUBCHEM_CONFORMER_ID>
00B55D5B00000001

> <PUBCHEM_MMFF94_ENERGY>
116.2222

> <PUBCHEM_FEATURE_SELFOVERLAP>
62.533

> <PUBCHEM_SHAPE_FINGERPRINT>
10483366 6 18337938096561408607
10675989 125 17253701682417862445
10864689 126 18120657933811676894
11135609 99 18043241342182135874
11524674 6 18339640040948360447
12633257 1 17913518936947649065
12643181 29 18335979762761277902
14659021 117 18342162406658662517
14844126 61 18336267929180764259
14866123 147 18409452501073109651
14950920 106 17845663658348260032
15021287 119 16950570982172577868
15183329 4 11602826783356649636
15348495 7 18341891905418572440
15361156 5 17895205419725332764
15799311 1 18338253600019939068
16110190 28 18408891766952943838
19958102 18 18261951852033140182
22122407 14 16559029398427333704
23559900 14 18411411821977012240
244849 19 17773857857369537834
249057 3 17822009775039111669
3383291 50 18410293619068314779
397830 11 18410288155927579224
4015057 19 18130491011779581096
4073 2 18412258429414616486
484985 159 18334849546264668479
5080951 261 17969481806399796254
5104073 3 18338784690248882624
5364581 5 18338795740504227672
57307002 103 18202286927420595240
57527306 92 16773802442737287561

> <PUBCHEM_SHAPE_MULTIPOLES>
651.32
17.65
4.56
1.5
38.99
4.33
0
1.16
-3.41
-5.41
-0.3
-1.37
-0.41
1.92

> <PUBCHEM_SHAPE_SELFOVERLAP>
1429.187

> <PUBCHEM_SHAPE_VOLUME>
343.5

> <PUBCHEM_COORDINATE_TYPE>
2
5
10

$$$$
