26763244
  -OEChem-12032416123D

 55 59  0     1  0  0  0  0  0999 V2000
   -1.0845   -2.2485    0.2396 S   0  0  0  0  0  0  0  0  0  0  0  0
   -5.0757   -1.5005    1.4307 F   0  0  0  0  0  0  0  0  0  0  0  0
   -5.7010    2.2922   -1.3600 F   0  0  0  0  0  0  0  0  0  0  0  0
    4.5233    1.7818    0.2767 O   0  0  0  0  0  0  0  0  0  0  0  0
    6.4309    3.0247    0.6018 O   0  0  0  0  0  0  0  0  0  0  0  0
   -3.4717    1.7577   -0.1603 O   0  0  0  0  0  0  0  0  0  0  0  0
   -0.8336    0.3073   -0.0699 N   0  0  0  0  0  0  0  0  0  0  0  0
   -3.0788   -0.5515    0.1049 N   0  0  0  0  0  0  0  0  0  0  0  0
    2.9601   -0.1893    0.1267 C   0  0  1  0  0  0  0  0  0  0  0  0
    2.9215   -1.6562   -0.4866 C   0  0  1  0  0  0  0  0  0  0  0  0
    4.2653    0.5026   -0.3030 C   0  0  2  0  0  0  0  0  0  0  0  0
    5.4639   -0.2986    0.1675 C   0  0  1  0  0  0  0  0  0  0  0  0
    4.2344   -2.4285   -0.1509 C   0  0  0  0  0  0  0  0  0  0  0  0
    5.5177   -1.6597   -0.4961 C   0  0  0  0  0  0  0  0  0  0  0  0
    1.6625    0.6359   -0.1954 C   0  0  1  0  0  0  0  0  0  0  0  0
    1.7239   -2.4379    0.1367 C   0  0  0  0  0  0  0  0  0  0  0  0
    6.5836    0.6875   -0.1055 C   0  0  1  0  0  0  0  0  0  0  0  0
    2.7563   -1.6417   -2.0302 C   0  0  0  0  0  0  0  0  0  0  0  0
    0.4393   -0.2329   -0.0327 C   0  0  0  0  0  0  0  0  0  0  0  0
    0.4869   -1.6064    0.1045 C   0  0  0  0  0  0  0  0  0  0  0  0
    5.8878    1.9730    0.3022 C   0  0  0  0  0  0  0  0  0  0  0  0
    1.5388    1.8969    0.6706 C   0  0  0  0  0  0  0  0  0  0  0  0
    7.8341    0.4164    0.7093 C   0  0  0  0  0  0  0  0  0  0  0  0
   -1.7138   -0.6595    0.0744 C   0  0  0  0  0  0  0  0  0  0  0  0
   -3.8805    0.6114   -0.0095 C   0  0  0  0  0  0  0  0  0  0  0  0
   -5.3515    0.4012    0.0345 C   0  0  0  0  0  0  0  0  0  0  0  0
   -5.8826   -0.6620    0.7647 C   0  0  0  0  0  0  0  0  0  0  0  0
   -6.2006    1.2671   -0.6547 C   0  0  0  0  0  0  0  0  0  0  0  0
   -7.2628   -0.8592    0.8061 C   0  0  0  0  0  0  0  0  0  0  0  0
   -7.5810    1.0699   -0.6134 C   0  0  0  0  0  0  0  0  0  0  0  0
   -8.1120    0.0068    0.1172 C   0  0  0  0  0  0  0  0  0  0  0  0
    2.9919   -0.2963    1.2227 H   0  0  0  0  0  0  0  0  0  0  0  0
    4.2645    0.6457   -1.3912 H   0  0  0  0  0  0  0  0  0  0  0  0
    5.3948   -0.4459    1.2573 H   0  0  0  0  0  0  0  0  0  0  0  0
    4.2465   -3.3982   -0.6641 H   0  0  0  0  0  0  0  0  0  0  0  0
    4.2542   -2.6528    0.9242 H   0  0  0  0  0  0  0  0  0  0  0  0
    6.3868   -2.2231   -0.1383 H   0  0  0  0  0  0  0  0  0  0  0  0
    5.6286   -1.5625   -1.5816 H   0  0  0  0  0  0  0  0  0  0  0  0
    1.6971    0.9539   -1.2457 H   0  0  0  0  0  0  0  0  0  0  0  0
    1.9414   -2.6821    1.1847 H   0  0  0  0  0  0  0  0  0  0  0  0
    1.5726   -3.3873   -0.3916 H   0  0  0  0  0  0  0  0  0  0  0  0
    6.8202    0.7460   -1.1742 H   0  0  0  0  0  0  0  0  0  0  0  0
    3.5759   -1.1210   -2.5326 H   0  0  0  0  0  0  0  0  0  0  0  0
    1.8267   -1.1619   -2.3497 H   0  0  0  0  0  0  0  0  0  0  0  0
    2.7374   -2.6646   -2.4249 H   0  0  0  0  0  0  0  0  0  0  0  0
    1.6002    1.6543    1.7372 H   0  0  0  0  0  0  0  0  0  0  0  0
    0.5807    2.4027    0.5040 H   0  0  0  0  0  0  0  0  0  0  0  0
    2.3142    2.6291    0.4366 H   0  0  0  0  0  0  0  0  0  0  0  0
    7.6266    0.4359    1.7849 H   0  0  0  0  0  0  0  0  0  0  0  0
    8.5940    1.1803    0.5125 H   0  0  0  0  0  0  0  0  0  0  0  0
    8.2619   -0.5594    0.4592 H   0  0  0  0  0  0  0  0  0  0  0  0
   -3.5529   -1.4449    0.2086 H   0  0  0  0  0  0  0  0  0  0  0  0
   -7.6760   -1.6871    1.3748 H   0  0  0  0  0  0  0  0  0  0  0  0
   -8.2420    1.7442   -1.1500 H   0  0  0  0  0  0  0  0  0  0  0  0
   -9.1867   -0.1467    0.1494 H   0  0  0  0  0  0  0  0  0  0  0  0
  1 20  1  0  0  0  0
  1 24  1  0  0  0  0
  2 27  1  0  0  0  0
  3 28  1  0  0  0  0
  4 11  1  0  0  0  0
  4 21  1  0  0  0  0
  5 21  2  0  0  0  0
  6 25  2  0  0  0  0
  7 19  1  0  0  0  0
  7 24  2  0  0  0  0
  8 24  1  0  0  0  0
  8 25  1  0  0  0  0
  8 52  1  0  0  0  0
  9 10  1  0  0  0  0
  9 11  1  0  0  0  0
  9 15  1  0  0  0  0
  9 32  1  0  0  0  0
 10 13  1  0  0  0  0
 10 16  1  0  0  0  0
 10 18  1  0  0  0  0
 11 12  1  0  0  0  0
 11 33  1  0  0  0  0
 12 14  1  0  0  0  0
 12 17  1  0  0  0  0
 12 34  1  0  0  0  0
 13 14  1  0  0  0  0
 13 35  1  0  0  0  0
 13 36  1  0  0  0  0
 14 37  1  0  0  0  0
 14 38  1  0  0  0  0
 15 19  1  0  0  0  0
 15 22  1  0  0  0  0
 15 39  1  0  0  0  0
 16 20  1  0  0  0  0
 16 40  1  0  0  0  0
 16 41  1  0  0  0  0
 17 21  1  0  0  0  0
 17 23  1  0  0  0  0
 17 42  1  0  0  0  0
 18 43  1  0  0  0  0
 18 44  1  0  0  0  0
 18 45  1  0  0  0  0
 19 20  2  0  0  0  0
 22 46  1  0  0  0  0
 22 47  1  0  0  0  0
 22 48  1  0  0  0  0
 23 49  1  0  0  0  0
 23 50  1  0  0  0  0
 23 51  1  0  0  0  0
 25 26  1  0  0  0  0
 26 27  2  0  0  0  0
 26 28  1  0  0  0  0
 27 29  1  0  0  0  0
 28 30  2  0  0  0  0
 29 31  2  0  0  0  0
 29 53  1  0  0  0  0
 30 31  1  0  0  0  0
 30 54  1  0  0  0  0
 31 55  1  0  0  0  0
M  END
> <PUBCHEM_COMPOUND_CID>
26763244

> <PUBCHEM_CONFORMER_RMSD>
0.8

> <PUBCHEM_CONFORMER_DIVERSEORDER>
1
6
5
3
4
2

> <PUBCHEM_MMFF94_PARTIAL_CHARGES>
27
1 -0.08
11 0.28
15 0.18
16 0.18
17 0.06
19 0.05
2 -0.19
20 -0.14
21 0.66
24 0.44
25 0.54
26 0.09
27 0.19
28 0.19
29 -0.15
3 -0.19
30 -0.15
31 -0.15
4 -0.43
5 -0.57
52 0.37
53 0.15
54 0.15
55 0.15
6 -0.57
7 -0.57
8 -0.49

> <PUBCHEM_EFFECTIVE_ROTOR_COUNT>
4.2

> <PUBCHEM_PHARMACOPHORE_FEATURES>
8
1 5 acceptor
1 6 acceptor
1 8 donor
5 1 7 19 20 24 rings
5 4 11 12 17 21 rings
6 26 27 28 29 30 31 rings
6 9 10 11 12 13 14 rings
6 9 10 15 16 19 20 rings

> <PUBCHEM_HEAVY_ATOM_COUNT>
31

> <PUBCHEM_ATOM_DEF_STEREO_COUNT>
6

> <PUBCHEM_ATOM_UDEF_STEREO_COUNT>
0

> <PUBCHEM_BOND_DEF_STEREO_COUNT>
0

> <PUBCHEM_BOND_UDEF_STEREO_COUNT>
0

> <PUBCHEM_ISOTOPIC_ATOM_COUNT>
0

> <PUBCHEM_COMPONENT_COUNT>
1

> <PUBCHEM_CACTVS_TAUTO_COUNT>
6

> <PUBCHEM_CONFORMER_ID>
01985FEC00000001

> <PUBCHEM_MMFF94_ENERGY>
81.2021

> <PUBCHEM_FEATURE_SELFOVERLAP>
40.759

> <PUBCHEM_SHAPE_FINGERPRINT>
10 15 18187645833745837408
10050765 1 18121780526034512577
10299344 5 14117800206607109005
10411042 1 17908425754629160822
10638233 991 16988562416084600809
10673678 19 18189629413374841772
10835480 77 18335697188320347525
11315181 36 18272934904675823177
11497681 19 18057878238407385695
11578080 2 16843580890387765642
11719270 70 18412260614830809898
12838862 33 18200860852086048072
13402501 40 18408885139713118821
13811026 1 18335700520381090418
14117953 113 18343869922995726636
14170010 4 18409731767913832116
14461889 52 18187368752536924011
14849402 71 18202005468875252897
14856354 85 15913323607673348421
14933364 13 18409450276194926625
150020 25 18336266756395969687
15131766 46 14998564133413465590
15183329 4 17060338526587466309
15289351 153 18341888542728062432
15419008 145 18115294576474421184
15840311 113 18411702110669336436
15849732 13 18260830410069885053
16120349 18 18342172288761569728
18335252 98 18412830213936729427
18608769 82 18410292562442556347
19611394 137 17896051004328270793
20157964 124 18343585127460669638
21150785 3 15913326901016361259
21521721 280 18343024384877910515
21792934 111 18340477886283760274
21859007 373 17895748496168828213
23081809 10 16487262019529903323
23522609 53 16701479904492355211
23559900 14 18334574660131487817
255183 451 17486505793878572558
27425 322 17313951960713918000
335352 9 18413112745839145254
3383291 50 17168719634786361771
34797466 226 17989212516384381151
4073 2 18113904908833707131
4093350 32 17418377970071567462
4340502 62 18334859424536266870
5104073 3 18262243218129318051
5109719 28 18335991964093492208
6086070 43 16988276598601009267
6201320 215 13551734216839967623

> <PUBCHEM_SHAPE_MULTIPOLES>
599.7
23.4
2.6
0.97
22.03
0.16
0.23
8.96
-1.5
-2.93
0.03
0.33
-0.16
2.4

> <PUBCHEM_SHAPE_SELFOVERLAP>
1305.268

> <PUBCHEM_SHAPE_VOLUME>
330.8

> <PUBCHEM_COORDINATE_TYPE>
2
5
10

$$$$
