51137882
  -OEChem-12032416243D

 43 46  0     1  0  0  0  0  0999 V2000
   -6.8410   -2.4757    0.2556 Cl  0  0  0  0  0  0  0  0  0  0  0  0
   -1.4976    1.5570    0.1570 N   0  0  1  0  0  0  0  0  0  0  0  0
    2.5093   -0.7389    0.8776 N   0  0  0  0  0  0  0  0  0  0  0  0
    2.7985    1.1231   -0.3013 N   0  0  0  0  0  0  0  0  0  0  0  0
    0.6197    0.9278    0.9449 C   0  0  1  0  0  0  0  0  0  0  0  0
    0.4619    2.4543    1.0559 C   0  0  0  0  0  0  0  0  0  0  0  0
   -0.5085    0.4882    0.0020 C   0  0  0  0  0  0  0  0  0  0  0  0
   -0.7184    2.7950    0.1553 C   0  0  0  0  0  0  0  0  0  0  0  0
    1.9833    0.4619    0.4895 C   0  0  0  0  0  0  0  0  0  0  0  0
   -2.5068    1.5359   -0.8915 C   0  0  0  0  0  0  0  0  0  0  0  0
    3.7463   -0.8607    0.2985 C   0  0  0  0  0  0  0  0  0  0  0  0
   -3.5921    0.5325   -0.6049 C   0  0  0  0  0  0  0  0  0  0  0  0
    3.9037    0.3139   -0.4320 C   0  0  0  0  0  0  0  0  0  0  0  0
    1.8781   -1.7094    1.7432 C   0  0  0  0  0  0  0  0  0  0  0  0
    4.7117   -1.8668    0.3496 C   0  0  0  0  0  0  0  0  0  0  0  0
    5.0883    0.5136   -1.1609 C   0  0  0  0  0  0  0  0  0  0  0  0
   -3.4659   -0.7800   -1.0600 C   0  0  0  0  0  0  0  0  0  0  0  0
   -4.7236    0.9151    0.1156 C   0  0  0  0  0  0  0  0  0  0  0  0
    5.8844   -1.6516   -0.3819 C   0  0  0  0  0  0  0  0  0  0  0  0
    6.0714   -0.4833   -1.1244 C   0  0  0  0  0  0  0  0  0  0  0  0
   -4.4711   -1.7099   -0.7946 C   0  0  0  0  0  0  0  0  0  0  0  0
   -5.7289   -0.0148    0.3810 C   0  0  0  0  0  0  0  0  0  0  0  0
   -5.6027   -1.3272   -0.0742 C   0  0  0  0  0  0  0  0  0  0  0  0
    0.4220    0.5236    1.9472 H   0  0  0  0  0  0  0  0  0  0  0  0
    1.3552    3.0186    0.7701 H   0  0  0  0  0  0  0  0  0  0  0  0
    0.2264    2.7191    2.0947 H   0  0  0  0  0  0  0  0  0  0  0  0
   -0.1460    0.4121   -1.0320 H   0  0  0  0  0  0  0  0  0  0  0  0
   -0.9034   -0.4877    0.3021 H   0  0  0  0  0  0  0  0  0  0  0  0
   -1.2885    3.6439    0.5457 H   0  0  0  0  0  0  0  0  0  0  0  0
   -0.3589    3.0450   -0.8513 H   0  0  0  0  0  0  0  0  0  0  0  0
   -2.9872    2.5221   -0.9629 H   0  0  0  0  0  0  0  0  0  0  0  0
   -2.0740    1.3611   -1.8861 H   0  0  0  0  0  0  0  0  0  0  0  0
    2.4312   -2.6501    1.7273 H   0  0  0  0  0  0  0  0  0  0  0  0
    0.8618   -1.8932    1.3868 H   0  0  0  0  0  0  0  0  0  0  0  0
    1.8658   -1.3051    2.7585 H   0  0  0  0  0  0  0  0  0  0  0  0
    4.5759   -2.7754    0.9245 H   0  0  0  0  0  0  0  0  0  0  0  0
    5.2431    1.4178   -1.7408 H   0  0  0  0  0  0  0  0  0  0  0  0
   -2.5922   -1.0906   -1.6266 H   0  0  0  0  0  0  0  0  0  0  0  0
   -4.8334    1.9338    0.4780 H   0  0  0  0  0  0  0  0  0  0  0  0
    6.6650   -2.4084   -0.3715 H   0  0  0  0  0  0  0  0  0  0  0  0
    6.9938   -0.3445   -1.6826 H   0  0  0  0  0  0  0  0  0  0  0  0
   -4.3595   -2.7290   -1.1559 H   0  0  0  0  0  0  0  0  0  0  0  0
   -6.6046    0.2972    0.9444 H   0  0  0  0  0  0  0  0  0  0  0  0
  1 23  1  0  0  0  0
  2  7  1  0  0  0  0
  2  8  1  0  0  0  0
  2 10  1  0  0  0  0
  3  9  1  0  0  0  0
  3 11  1  0  0  0  0
  3 14  1  0  0  0  0
  4  9  2  0  0  0  0
  4 13  1  0  0  0  0
  5  6  1  0  0  0  0
  5  7  1  0  0  0  0
  5  9  1  0  0  0  0
  5 24  1  0  0  0  0
  6  8  1  0  0  0  0
  6 25  1  0  0  0  0
  6 26  1  0  0  0  0
  7 27  1  0  0  0  0
  7 28  1  0  0  0  0
  8 29  1  0  0  0  0
  8 30  1  0  0  0  0
 10 12  1  0  0  0  0
 10 31  1  0  0  0  0
 10 32  1  0  0  0  0
 11 13  1  0  0  0  0
 11 15  2  0  0  0  0
 12 17  2  0  0  0  0
 12 18  1  0  0  0  0
 13 16  2  0  0  0  0
 14 33  1  0  0  0  0
 14 34  1  0  0  0  0
 14 35  1  0  0  0  0
 15 19  1  0  0  0  0
 15 36  1  0  0  0  0
 16 20  1  0  0  0  0
 16 37  1  0  0  0  0
 17 21  1  0  0  0  0
 17 38  1  0  0  0  0
 18 22  2  0  0  0  0
 18 39  1  0  0  0  0
 19 20  2  0  0  0  0
 19 40  1  0  0  0  0
 20 41  1  0  0  0  0
 21 23  2  0  0  0  0
 21 42  1  0  0  0  0
 22 23  1  0  0  0  0
 22 43  1  0  0  0  0
M  END
> <PUBCHEM_COMPOUND_CID>
51137882

> <PUBCHEM_CONFORMER_RMSD>
0.6

> <PUBCHEM_CONFORMER_DIVERSEORDER>
2
70
60
79
62
68
13
80
49
33
53
14
78
61
38
83
30
45
74
71
57
86
23
73
58
46
67
87
81
54
15
21
42
44
39
77
10
29
82
85
8
59
65
64
51
48
20
25
37
40
16
69
11
56
43
9
7
31
36
3
72
55
6
1
35
28
19
76
26
17
66
22
41
27
47
5
34
18
75
24
4
50
52
12
32
63
84

> <PUBCHEM_MMFF94_PARTIAL_CHARGES>
30
1 -0.18
10 0.41
11 -0.15
12 -0.14
13 0.23
14 0.26
15 -0.15
16 -0.15
17 -0.15
18 -0.15
19 -0.15
2 -0.81
20 -0.15
21 -0.15
22 -0.15
23 0.18
3 0.05
36 0.15
37 0.15
38 0.15
39 0.15
4 -0.57
40 0.15
41 0.15
42 0.15
43 0.15
5 0.18
7 0.27
8 0.27
9 0.01

> <PUBCHEM_EFFECTIVE_ROTOR_COUNT>
4

> <PUBCHEM_PHARMACOPHORE_FEATURES>
6
1 2 cation
3 3 4 9 cation
5 2 5 6 7 8 rings
5 3 4 9 11 13 rings
6 11 13 15 16 19 20 rings
6 12 17 18 21 22 23 rings

> <PUBCHEM_HEAVY_ATOM_COUNT>
23

> <PUBCHEM_ATOM_DEF_STEREO_COUNT>
1

> <PUBCHEM_ATOM_UDEF_STEREO_COUNT>
0

> <PUBCHEM_BOND_DEF_STEREO_COUNT>
0

> <PUBCHEM_BOND_UDEF_STEREO_COUNT>
0

> <PUBCHEM_ISOTOPIC_ATOM_COUNT>
0

> <PUBCHEM_COMPONENT_COUNT>
1

> <PUBCHEM_CACTVS_TAUTO_COUNT>
1

> <PUBCHEM_CONFORMER_ID>
030C4D5A00000002

> <PUBCHEM_MMFF94_ENERGY>
50.1837

> <PUBCHEM_FEATURE_SELFOVERLAP>
30.556

> <PUBCHEM_SHAPE_FINGERPRINT>
10 15 10879990298588769087
10299344 5 18409173207949737163
10595046 47 18333735697946108316
10622 236 17826214208603506202
10693767 8 18043532704047039194
10928967 22 18269816714541553951
11045515 52 18187082810868643564
11089746 13 10737295666450663374
11128504 68 17748548142932087844
11524674 6 16845572020183524471
11796584 16 18267018366984901821
12166972 35 18040159504876471404
12236239 1 18334580101216754932
12507557 5 11167932576744747245
12553582 1 18341596119309995149
12592606 108 18342174510520633031
12633257 1 13686290292359307977
12788726 201 18267582407923476185
13103583 49 14189286071488474812
13402501 40 18273498965966062415
13533116 47 18125435565653775491
13540713 4 18269531949825921657
13673619 4 18410293640479366957
13685833 64 18273497900966594611
13690498 29 18333445452925572453
13740256 8 18413388748183508113
13914758 101 14764344891607926433
13955234 65 17913483816325733209
14123256 34 18272657852328751039
14251757 5 18408604777228130339
14251764 30 18413108385661427447
14341114 176 18200594825890247705
14420673 8 18342742897459318439
14466204 15 9151175346148846879
14576447 43 18334011658295262160
14617045 38 18261114080323886699
14767858 380 18114471123520818724
14931854 50 17968086547967735739
14951699 99 9078243628141824966
15142383 8 14620517779240343762
15188451 53 15625641926299229013
15238133 3 12031784803560809322
15348495 7 15338826608073765871
15461852 350 12396595039226742064
15537594 2 18335702715605407051
17492 89 18196371408207135582
17780758 139 17703790297831495081
17909252 39 18271803472234405858
18335252 98 18342178903775752396
19784866 140 18409445864815250776
200 152 18261112928945460704
20567600 254 11674875610790904252
21033648 29 10737576067548472086
21054139 6 18113897122685525898
21196832 93 17823429373067325235
21267235 1 18411985793295984587
21298829 104 8574447430422923127
21315763 191 18342179938319798605
21403212 168 10663830632719888916
21774942 28 13407334262560453215
21859007 373 13038092956796349219
221357 26 18335980947702564875
22393880 68 18114737115045761044
22950370 63 18412263939187835121
23035841 295 18412546492074541663
235170 7 16370995279120998335
23522609 53 18123221019438032089
23559900 14 18341884221184542473
23622692 88 11312054349005663056
2748736 6 8502382113664252615
2767999 5 11314027980540135719
2838139 119 14201111314881958046
3004659 81 18334574629549544062
312425 54 14333407848102088166
329604 57 18408324384656621990
335352 9 18341327822026646245
351380 3 18412542115576811119
3737641 26 18058172734643522271
4107672 100 17894907383602928469
439807 62 18260546719307124863
44880168 125 17489867107443973047
46194498 28 17313661689127201629
465052 167 18202005451262106607
474113 269 17844800590437771927
5104073 3 17918272051998850921
54039377 194 18412830157907216462
543368 44 12107774204621229087
58260988 587 17415832750903496424
59682541 52 15213287591855766802
636775 8 18200605709527774230
7495541 125 17846492626440322240
7970288 3 18342735217488535927
8217 86 18335422387084114831
8863177 126 18269273637617751147
999808 66 18187940516633733171

> <PUBCHEM_SHAPE_MULTIPOLES>
460.26
16.65
2.59
1.16
5.68
0.4
-0.11
-12.09
3.62
1.49
-0.47
-0.65
-0.13
-0.31

> <PUBCHEM_SHAPE_SELFOVERLAP>
996.589

> <PUBCHEM_SHAPE_VOLUME>
256.6

> <PUBCHEM_COORDINATE_TYPE>
2
5
10

$$$$
