75536172
  -OEChem-12032416303D

 66 68  0     1  0  0  0  0  0999 V2000
   -5.4775   -1.1818    0.1857 O   0  0  0  0  0  0  0  0  0  0  0  0
   -0.6119   -3.9963    0.8825 O   0  0  0  0  0  0  0  0  0  0  0  0
   -0.0705   -3.1353   -1.1481 O   0  0  0  0  0  0  0  0  0  0  0  0
   -3.8864    0.2771   -0.6706 N   0  0  0  0  0  0  0  0  0  0  0  0
    2.1222   -0.6123    0.2624 N   0  0  0  0  0  0  0  0  0  0  0  0
    3.0227    0.8853   -1.1109 N   0  0  0  0  0  0  0  0  0  0  0  0
   -1.7116    1.2252    1.1773 C   0  0  1  0  0  0  0  0  0  0  0  0
   -2.7893    2.1114    0.5042 C   0  0  1  0  0  0  0  0  0  0  0  0
   -0.3205    1.8570    1.0158 C   0  0  0  0  0  0  0  0  0  0  0  0
    0.0624    2.0527   -0.4633 C   0  0  2  0  0  0  0  0  0  0  0  0
   -2.0087    0.9977    2.6627 C   0  0  0  0  0  0  0  0  0  0  0  0
   -1.0634    2.6830   -1.2578 C   0  0  0  0  0  0  0  0  0  0  0  0
   -2.3289    2.7117   -0.8034 C   0  0  0  0  0  0  0  0  0  0  0  0
   -4.0872    1.3277    0.2774 C   0  0  0  0  0  0  0  0  0  0  0  0
    0.5087    0.7308   -1.0978 C   0  0  0  0  0  0  0  0  0  0  0  0
   -1.5404    2.1920    3.4879 C   0  0  0  0  0  0  0  0  0  0  0  0
   -1.3459   -0.2879    3.1472 C   0  0  0  0  0  0  0  0  0  0  0  0
   -0.6930    3.3209   -2.5678 C   0  0  0  0  0  0  0  0  0  0  0  0
    1.9005    0.3602   -0.6723 C   0  0  0  0  0  0  0  0  0  0  0  0
   -4.6097   -0.9155   -0.6415 C   0  0  0  0  0  0  0  0  0  0  0  0
    3.4777   -0.7225    0.4387 C   0  0  0  0  0  0  0  0  0  0  0  0
    4.0174    0.2226   -0.4293 C   0  0  0  0  0  0  0  0  0  0  0  0
   -4.1814   -1.8727   -1.7411 C   0  0  0  0  0  0  0  0  0  0  0  0
    5.4129    0.3722   -0.4970 C   0  0  0  0  0  0  0  0  0  0  0  0
    4.2542   -1.5426    1.2579 C   0  0  0  0  0  0  0  0  0  0  0  0
   -2.7103   -2.2767   -1.6654 C   0  0  0  0  0  0  0  0  0  0  0  0
    6.2123   -0.4406    0.3165 C   0  0  0  0  0  0  0  0  0  0  0  0
    5.6412   -1.3805    1.1776 C   0  0  0  0  0  0  0  0  0  0  0  0
    6.0713    1.3623   -1.4013 C   0  0  0  0  0  0  0  0  0  0  0  0
   -2.3631   -2.9679   -0.3454 C   0  0  0  0  0  0  0  0  0  0  0  0
   -0.9038   -3.3571   -0.2807 C   0  0  0  0  0  0  0  0  0  0  0  0
   -1.7024    0.2481    0.6794 H   0  0  0  0  0  0  0  0  0  0  0  0
   -3.0306    2.9569    1.1606 H   0  0  0  0  0  0  0  0  0  0  0  0
    0.4480    1.2751    1.5336 H   0  0  0  0  0  0  0  0  0  0  0  0
   -0.3005    2.8611    1.4595 H   0  0  0  0  0  0  0  0  0  0  0  0
    0.9060    2.7581   -0.4772 H   0  0  0  0  0  0  0  0  0  0  0  0
   -3.0850    0.8770    2.8229 H   0  0  0  0  0  0  0  0  0  0  0  0
   -3.0884    3.2192   -1.3951 H   0  0  0  0  0  0  0  0  0  0  0  0
   -4.8630    1.9838   -0.1361 H   0  0  0  0  0  0  0  0  0  0  0  0
   -4.4899    0.9190    1.2085 H   0  0  0  0  0  0  0  0  0  0  0  0
    0.5306    0.8076   -2.1916 H   0  0  0  0  0  0  0  0  0  0  0  0
   -0.1860   -0.0851   -0.8723 H   0  0  0  0  0  0  0  0  0  0  0  0
   -1.9181    3.1447    3.1052 H   0  0  0  0  0  0  0  0  0  0  0  0
   -1.9255    2.0953    4.5107 H   0  0  0  0  0  0  0  0  0  0  0  0
   -0.4510    2.2474    3.5850 H   0  0  0  0  0  0  0  0  0  0  0  0
   -1.7068   -1.1528    2.5810 H   0  0  0  0  0  0  0  0  0  0  0  0
   -0.2558   -0.2545    3.0554 H   0  0  0  0  0  0  0  0  0  0  0  0
   -1.5817   -0.4656    4.2022 H   0  0  0  0  0  0  0  0  0  0  0  0
    0.1013    4.0597   -2.4193 H   0  0  0  0  0  0  0  0  0  0  0  0
   -1.5414    3.8410   -3.0257 H   0  0  0  0  0  0  0  0  0  0  0  0
   -0.3433    2.5727   -3.2846 H   0  0  0  0  0  0  0  0  0  0  0  0
   -3.2743    0.4457   -1.4634 H   0  0  0  0  0  0  0  0  0  0  0  0
    1.4147   -1.1541    0.7413 H   0  0  0  0  0  0  0  0  0  0  0  0
   -4.8180   -2.7634   -1.6833 H   0  0  0  0  0  0  0  0  0  0  0  0
   -4.3841   -1.3942   -2.7065 H   0  0  0  0  0  0  0  0  0  0  0  0
    3.8084   -2.2712    1.9254 H   0  0  0  0  0  0  0  0  0  0  0  0
   -2.4878   -2.9529   -2.5004 H   0  0  0  0  0  0  0  0  0  0  0  0
   -2.0658   -1.4010   -1.8037 H   0  0  0  0  0  0  0  0  0  0  0  0
    7.2956   -0.3463    0.2846 H   0  0  0  0  0  0  0  0  0  0  0  0
    6.2861   -1.9982    1.7978 H   0  0  0  0  0  0  0  0  0  0  0  0
    6.7305    0.8491   -2.1090 H   0  0  0  0  0  0  0  0  0  0  0  0
    5.3374    1.9321   -1.9799 H   0  0  0  0  0  0  0  0  0  0  0  0
    6.6629    2.0743   -0.8167 H   0  0  0  0  0  0  0  0  0  0  0  0
   -2.5641   -2.3017    0.4996 H   0  0  0  0  0  0  0  0  0  0  0  0
   -2.9646   -3.8768   -0.2352 H   0  0  0  0  0  0  0  0  0  0  0  0
    0.3349   -4.2479    0.9330 H   0  0  0  0  0  0  0  0  0  0  0  0
  1 20  2  0  0  0  0
  2 31  1  0  0  0  0
  2 66  1  0  0  0  0
  3 31  2  0  0  0  0
  4 14  1  0  0  0  0
  4 20  1  0  0  0  0
  4 52  1  0  0  0  0
  5 19  1  0  0  0  0
  5 21  1  0  0  0  0
  5 53  1  0  0  0  0
  6 19  2  0  0  0  0
  6 22  1  0  0  0  0
  7  8  1  0  0  0  0
  7  9  1  0  0  0  0
  7 11  1  0  0  0  0
  7 32  1  0  0  0  0
  8 13  1  0  0  0  0
  8 14  1  0  0  0  0
  8 33  1  0  0  0  0
  9 10  1  0  0  0  0
  9 34  1  0  0  0  0
  9 35  1  0  0  0  0
 10 12  1  0  0  0  0
 10 15  1  0  0  0  0
 10 36  1  0  0  0  0
 11 16  1  0  0  0  0
 11 17  1  0  0  0  0
 11 37  1  0  0  0  0
 12 13  2  0  0  0  0
 12 18  1  0  0  0  0
 13 38  1  0  0  0  0
 14 39  1  0  0  0  0
 14 40  1  0  0  0  0
 15 19  1  0  0  0  0
 15 41  1  0  0  0  0
 15 42  1  0  0  0  0
 16 43  1  0  0  0  0
 16 44  1  0  0  0  0
 16 45  1  0  0  0  0
 17 46  1  0  0  0  0
 17 47  1  0  0  0  0
 17 48  1  0  0  0  0
 18 49  1  0  0  0  0
 18 50  1  0  0  0  0
 18 51  1  0  0  0  0
 20 23  1  0  0  0  0
 21 22  1  0  0  0  0
 21 25  2  0  0  0  0
 22 24  2  0  0  0  0
 23 26  1  0  0  0  0
 23 54  1  0  0  0  0
 23 55  1  0  0  0  0
 24 27  1  0  0  0  0
 24 29  1  0  0  0  0
 25 28  1  0  0  0  0
 25 56  1  0  0  0  0
 26 30  1  0  0  0  0
 26 57  1  0  0  0  0
 26 58  1  0  0  0  0
 27 28  2  0  0  0  0
 27 59  1  0  0  0  0
 28 60  1  0  0  0  0
 29 61  1  0  0  0  0
 29 62  1  0  0  0  0
 29 63  1  0  0  0  0
 30 31  1  0  0  0  0
 30 64  1  0  0  0  0
 30 65  1  0  0  0  0
M  END
> <PUBCHEM_COMPOUND_CID>
75536172

> <PUBCHEM_CONFORMER_RMSD>
1

> <PUBCHEM_CONFORMER_DIVERSEORDER>
1
103
68
106
116
41
82
73
121
91
7
77
118
123
53
52
72
98
124
104
55
46
127
90
129
96
115
87
107
111
69
78
84
35
100
33
10
102
105
54
95
132
61
28
119
131
74
125
88
25
109
79
56
112
58
117
101
94
108
128
85
97
9
99
89
18
11
113
49
48
47
83
38
50
15
36
65
8
67
43
16
34
92
37
122
114
80
63
126
44
120
27
62
45
4
24
30
76
21
70
86
93
110
32
5
2
130
29
59
6
75
66
23
71
31
17
20
13
81
64
12
51
14
57
42
22
19
39
26
3
40
60

> <PUBCHEM_MMFF94_PARTIAL_CHARGES>
32
1 -0.57
10 0.14
12 -0.28
13 -0.29
14 0.3
15 0.18
18 0.14
19 0.01
2 -0.65
20 0.57
21 -0.15
22 0.23
23 0.06
24 -0.14
25 -0.15
27 -0.15
28 -0.15
29 0.14
3 -0.57
30 0.06
31 0.66
38 0.15
4 -0.73
5 0.03
52 0.37
53 0.27
56 0.15
59 0.15
6 -0.57
60 0.15
66 0.5
8 0.14

> <PUBCHEM_EFFECTIVE_ROTOR_COUNT>
10.8

> <PUBCHEM_PHARMACOPHORE_FEATURES>
11
1 1 acceptor
1 2 acceptor
1 3 acceptor
1 4 donor
1 5 donor
3 11 16 17 hydrophobe
3 2 3 31 anion
3 5 6 19 cation
5 5 6 19 21 22 rings
6 21 22 24 25 27 28 rings
6 7 8 9 10 12 13 rings

> <PUBCHEM_HEAVY_ATOM_COUNT>
31

> <PUBCHEM_ATOM_DEF_STEREO_COUNT>
3

> <PUBCHEM_ATOM_UDEF_STEREO_COUNT>
0

> <PUBCHEM_BOND_DEF_STEREO_COUNT>
0

> <PUBCHEM_BOND_UDEF_STEREO_COUNT>
0

> <PUBCHEM_ISOTOPIC_ATOM_COUNT>
0

> <PUBCHEM_COMPONENT_COUNT>
1

> <PUBCHEM_CACTVS_TAUTO_COUNT>
6

> <PUBCHEM_CONFORMER_ID>
0480972C00000001

> <PUBCHEM_MMFF94_ENERGY>
49.6929

> <PUBCHEM_FEATURE_SELFOVERLAP>
55.985

> <PUBCHEM_SHAPE_FINGERPRINT>
12156800 1 17472358467377178231
12522641 33 17684915922516698653
12788726 201 18202006550752875450
14068700 675 18130784616065149701
14251757 5 18338796835631016094
14840074 17 18334303045576586949
15274700 242 17749935705099940936
16120349 306 18338509721056206554
20511986 3 18113888365073012200
20600515 1 18200316648831106031
20775530 9 17981880058439438447
23419403 2 17343751998127497193
3027735 51 18341604880811807311
35225 105 17988066825252524367
392239 28 17561080323753613019
4015057 19 17530972409899479812
469060 322 18335147475086516519
56638632 33 17987223607456408793
7226269 152 17989207057850147707

> <PUBCHEM_SHAPE_MULTIPOLES>
605.41
11.66
4.15
2.55
16.54
2.24
-2.05
2.85
1.35
-3.72
1.26
-1.68
-1.44
-2.42

> <PUBCHEM_SHAPE_SELFOVERLAP>
1263.783

> <PUBCHEM_SHAPE_VOLUME>
342.9

> <PUBCHEM_COORDINATE_TYPE>
2
5
10

$$$$
