51137408
  -OEChem-12032416243D

 52 55  0     1  0  0  0  0  0999 V2000
   -2.0661   -0.8387    0.2859 O   0  0  0  0  0  0  0  0  0  0  0  0
    7.5678    1.4593   -0.2646 O   0  0  0  0  0  0  0  0  0  0  0  0
    1.7813   -0.5024   -0.9538 N   0  0  1  0  0  0  0  0  0  0  0  0
    5.5332    0.7085    0.5688 N   0  0  0  0  0  0  0  0  0  0  0  0
   -2.3729   -2.9132   -0.4928 N   0  0  0  0  0  0  0  0  0  0  0  0
   -3.4574   -2.5904    0.3013 N   0  0  0  0  0  0  0  0  0  0  0  0
    2.7726    0.1708   -0.1182 C   0  0  0  0  0  0  0  0  0  0  0  0
    0.8838   -1.3591   -0.1757 C   0  0  0  0  0  0  0  0  0  0  0  0
   -0.2599   -1.6386   -1.1600 C   0  0  2  0  0  0  0  0  0  0  0  0
    0.8999    0.4408   -1.6419 C   0  0  0  0  0  0  0  0  0  0  0  0
   -0.2301   -0.4517   -2.1387 C   0  0  0  0  0  0  0  0  0  0  0  0
    3.6344   -0.8654    0.6150 C   0  0  0  0  0  0  0  0  0  0  0  0
    3.6520    1.0869   -0.9790 C   0  0  0  0  0  0  0  0  0  0  0  0
    4.7407   -0.1859    1.4219 C   0  0  0  0  0  0  0  0  0  0  0  0
    4.7566    1.7275   -0.1405 C   0  0  0  0  0  0  0  0  0  0  0  0
   -1.5872   -1.8621   -0.4730 C   0  0  0  0  0  0  0  0  0  0  0  0
    6.9204    0.6728    0.4315 C   0  0  0  0  0  0  0  0  0  0  0  0
   -3.2355   -1.3714    0.7345 C   0  0  0  0  0  0  0  0  0  0  0  0
    7.6471   -0.4077    1.1916 C   0  0  0  0  0  0  0  0  0  0  0  0
   -4.0563   -0.5262    1.6108 C   0  0  0  0  0  0  0  0  0  0  0  0
   -4.8558    0.5535    0.8892 C   0  0  0  0  0  0  0  0  0  0  0  0
   -4.2332    1.7389    0.4987 C   0  0  0  0  0  0  0  0  0  0  0  0
   -6.2100    0.3556    0.6201 C   0  0  0  0  0  0  0  0  0  0  0  0
   -4.9647    2.7266   -0.1611 C   0  0  0  0  0  0  0  0  0  0  0  0
   -6.9416    1.3431   -0.0396 C   0  0  0  0  0  0  0  0  0  0  0  0
   -6.3190    2.5286   -0.4302 C   0  0  0  0  0  0  0  0  0  0  0  0
    2.2684    0.7919    0.6366 H   0  0  0  0  0  0  0  0  0  0  0  0
    0.5225   -0.8532    0.7293 H   0  0  0  0  0  0  0  0  0  0  0  0
    1.3551   -2.3028    0.1193 H   0  0  0  0  0  0  0  0  0  0  0  0
   -0.0269   -2.5498   -1.7286 H   0  0  0  0  0  0  0  0  0  0  0  0
    1.3797    0.9394   -2.4896 H   0  0  0  0  0  0  0  0  0  0  0  0
    0.4992    1.2016   -0.9597 H   0  0  0  0  0  0  0  0  0  0  0  0
   -0.0035   -0.8197   -3.1473 H   0  0  0  0  0  0  0  0  0  0  0  0
   -1.1775    0.0954   -2.1904 H   0  0  0  0  0  0  0  0  0  0  0  0
    3.0390   -1.4666    1.3108 H   0  0  0  0  0  0  0  0  0  0  0  0
    4.0904   -1.5547   -0.1083 H   0  0  0  0  0  0  0  0  0  0  0  0
    4.1089    0.5111   -1.7950 H   0  0  0  0  0  0  0  0  0  0  0  0
    3.0706    1.8963   -1.4338 H   0  0  0  0  0  0  0  0  0  0  0  0
    5.3581   -0.9473    1.9015 H   0  0  0  0  0  0  0  0  0  0  0  0
    4.3081    0.4290    2.2202 H   0  0  0  0  0  0  0  0  0  0  0  0
    5.4033    2.3329   -0.7834 H   0  0  0  0  0  0  0  0  0  0  0  0
    4.3272    2.3964    0.6149 H   0  0  0  0  0  0  0  0  0  0  0  0
    8.7209   -0.3326    0.9937 H   0  0  0  0  0  0  0  0  0  0  0  0
    7.4896   -0.2854    2.2665 H   0  0  0  0  0  0  0  0  0  0  0  0
    7.3088   -1.3940    0.8630 H   0  0  0  0  0  0  0  0  0  0  0  0
   -4.7451   -1.1601    2.1837 H   0  0  0  0  0  0  0  0  0  0  0  0
   -3.4200   -0.0427    2.3635 H   0  0  0  0  0  0  0  0  0  0  0  0
   -3.1790    1.9053    0.7036 H   0  0  0  0  0  0  0  0  0  0  0  0
   -6.7067   -0.5642    0.9172 H   0  0  0  0  0  0  0  0  0  0  0  0
   -4.4799    3.6497   -0.4652 H   0  0  0  0  0  0  0  0  0  0  0  0
   -7.9959    1.1888   -0.2497 H   0  0  0  0  0  0  0  0  0  0  0  0
   -6.8886    3.2974   -0.9440 H   0  0  0  0  0  0  0  0  0  0  0  0
  1 16  1  0  0  0  0
  1 18  1  0  0  0  0
  2 17  2  0  0  0  0
  3  7  1  0  0  0  0
  3  8  1  0  0  0  0
  3 10  1  0  0  0  0
  4 14  1  0  0  0  0
  4 15  1  0  0  0  0
  4 17  1  0  0  0  0
  5  6  1  0  0  0  0
  5 16  2  0  0  0  0
  6 18  2  0  0  0  0
  7 12  1  0  0  0  0
  7 13  1  0  0  0  0
  7 27  1  0  0  0  0
  8  9  1  0  0  0  0
  8 28  1  0  0  0  0
  8 29  1  0  0  0  0
  9 11  1  0  0  0  0
  9 16  1  0  0  0  0
  9 30  1  0  0  0  0
 10 11  1  0  0  0  0
 10 31  1  0  0  0  0
 10 32  1  0  0  0  0
 11 33  1  0  0  0  0
 11 34  1  0  0  0  0
 12 14  1  0  0  0  0
 12 35  1  0  0  0  0
 12 36  1  0  0  0  0
 13 15  1  0  0  0  0
 13 37  1  0  0  0  0
 13 38  1  0  0  0  0
 14 39  1  0  0  0  0
 14 40  1  0  0  0  0
 15 41  1  0  0  0  0
 15 42  1  0  0  0  0
 17 19  1  0  0  0  0
 18 20  1  0  0  0  0
 19 43  1  0  0  0  0
 19 44  1  0  0  0  0
 19 45  1  0  0  0  0
 20 21  1  0  0  0  0
 20 46  1  0  0  0  0
 20 47  1  0  0  0  0
 21 22  2  0  0  0  0
 21 23  1  0  0  0  0
 22 24  1  0  0  0  0
 22 48  1  0  0  0  0
 23 25  2  0  0  0  0
 23 49  1  0  0  0  0
 24 26  2  0  0  0  0
 24 50  1  0  0  0  0
 25 26  1  0  0  0  0
 25 51  1  0  0  0  0
 26 52  1  0  0  0  0
M  END
> <PUBCHEM_COMPOUND_CID>
51137408

> <PUBCHEM_CONFORMER_RMSD>
1.2

> <PUBCHEM_CONFORMER_DIVERSEORDER>
1
38
10
41
44
51
33
37
14
42
24
56
2
54
12
26
49
27
23
17
20
22
16
30
39
11
52
47
9
31
25
34
55
35
19
6
48
28
15
45
36
21
46
50
18
53
4
32
5
3
7
40
29
43
13
8

> <PUBCHEM_MMFF94_PARTIAL_CHARGES>
28
1 -0.28
10 0.27
14 0.3
15 0.3
16 0.3
17 0.57
18 0.3
19 0.06
2 -0.57
20 0.32
21 -0.14
22 -0.15
23 -0.15
24 -0.15
25 -0.15
26 -0.15
3 -0.81
4 -0.66
48 0.15
49 0.15
5 -0.34
50 0.15
51 0.15
52 0.15
6 -0.34
7 0.27
8 0.27
9 0.18

> <PUBCHEM_EFFECTIVE_ROTOR_COUNT>
7.2

> <PUBCHEM_PHARMACOPHORE_FEATURES>
6
1 2 acceptor
1 3 cation
5 1 5 6 16 18 rings
5 3 8 9 10 11 rings
6 21 22 23 24 25 26 rings
6 4 7 12 13 14 15 rings

> <PUBCHEM_HEAVY_ATOM_COUNT>
26

> <PUBCHEM_ATOM_DEF_STEREO_COUNT>
1

> <PUBCHEM_ATOM_UDEF_STEREO_COUNT>
0

> <PUBCHEM_BOND_DEF_STEREO_COUNT>
0

> <PUBCHEM_BOND_UDEF_STEREO_COUNT>
0

> <PUBCHEM_ISOTOPIC_ATOM_COUNT>
0

> <PUBCHEM_COMPONENT_COUNT>
1

> <PUBCHEM_CACTVS_TAUTO_COUNT>
1

> <PUBCHEM_CONFORMER_ID>
030C4B8000000001

> <PUBCHEM_MMFF94_ENERGY>
43.6453

> <PUBCHEM_FEATURE_SELFOVERLAP>
30.448

> <PUBCHEM_SHAPE_FINGERPRINT>
10 15 18334018302029641337
10554248 39 14907911500728142300
10577160 103 12678591214630116838
10928967 22 8069453744007956809
11146851 88 18410292502229300245
117089 54 10734717316348872469
12107183 9 18333446530603550290
12596602 18 17386012814262713265
12760667 363 11314030188812572265
12969540 114 16415764132459894423
12988421 55 18130523963375194947
13103583 49 16732991941940694091
13402501 40 18342739590181955073
13673619 4 12107790713657752823
13911987 19 17203890743641311211
13941219 33 16225760800749752531
14251764 18 17967814967882927358
14251764 30 8285903676150383745
14347424 109 18261385595397889426
14428016 545 18409727327793263498
14765038 42 17313105280735980490
14767858 380 12391511992407352324
14904525 67 18199179780301605944
14951699 99 18334301967540094748
15003188 100 14261342579448381370
15142383 8 18272368673177457568
15238133 3 18336272335890984788
15461852 350 17917709140815952159
15537594 2 13984655984144864752
15669420 48 17418367009715811997
17780758 139 17168147879432246259
21033648 29 18338250262725004175
21054139 6 10879999055958838396
21150785 3 12247678275440494600
21196832 93 10663804304612926228
21859007 373 18265338313254388958
22288116 15 11527947889372905048
2260408 40 17313107432456754810
23522609 53 17677068931361538628
23559900 14 17986417549363539702
23569914 2 17199060640274007440
2838139 119 18272082816569584125
312425 54 17022904549054567994
393628 179 18130492059989329457
4938544 92 18339641238822313878
5028188 123 18261683666523890254
5104073 3 18115288082567927904
5372103 7 17751341908597321709
54039377 194 8718822106788393217
6086070 43 16343692258125491298
6327066 14 18411697648208702725
8217 86 10015572909663305949
9981440 41 18114755837472908115
999808 66 12251899291483391680

> <PUBCHEM_SHAPE_MULTIPOLES>
503.41
20.73
2.61
1.41
14.73
0.27
0.3
-13.6
-7.21
-3.86
0.36
0.39
0.22
-0.06

> <PUBCHEM_SHAPE_SELFOVERLAP>
1068.303

> <PUBCHEM_SHAPE_VOLUME>
281.4

> <PUBCHEM_COORDINATE_TYPE>
2
5
10

$$$$
