26744962
  -OEChem-12032416283D

 45 48  0     1  0  0  0  0  0999 V2000
   -5.2080    3.0194   -1.0354 F   0  0  0  0  0  0  0  0  0  0  0  0
    2.6653    0.3553    1.8010 O   0  0  0  0  0  0  0  0  0  0  0  0
   -0.3849   -0.8053    0.4420 N   0  0  1  0  0  0  0  0  0  0  0  0
   -1.3225   -4.3338   -0.4165 N   0  0  0  0  0  0  0  0  0  0  0  0
    0.8253   -4.5479   -0.9990 N   0  0  0  0  0  0  0  0  0  0  0  0
    2.2685    0.8322   -0.3511 N   0  0  0  0  0  0  0  0  0  0  0  0
    3.4584    1.4689    1.4963 N   0  0  0  0  0  0  0  0  0  0  0  0
    1.0507   -1.1490    0.7275 C   0  0  1  0  0  0  0  0  0  0  0  0
    1.6050   -2.2582   -0.2355 C   0  0  0  0  0  0  0  0  0  0  0  0
   -1.2886   -1.9829    0.5926 C   0  0  0  0  0  0  0  0  0  0  0  0
   -0.7090   -3.1689   -0.0695 C   0  0  0  0  0  0  0  0  0  0  0  0
    0.6039   -3.3266   -0.4290 C   0  0  0  0  0  0  0  0  0  0  0  0
   -0.8858    0.2687    1.3103 C   0  0  0  0  0  0  0  0  0  0  0  0
    1.9977    0.0449    0.6590 C   0  0  0  0  0  0  0  0  0  0  0  0
   -2.0409    1.0036    0.6836 C   0  0  0  0  0  0  0  0  0  0  0  0
   -0.3558   -5.1339   -0.9741 C   0  0  0  0  0  0  0  0  0  0  0  0
    3.1692    1.6899    0.2105 C   0  0  0  0  0  0  0  0  0  0  0  0
    3.7820    2.7869   -0.5467 C   0  0  0  0  0  0  0  0  0  0  0  0
   -1.8040    2.1189   -0.1200 C   0  0  0  0  0  0  0  0  0  0  0  0
   -3.3476    0.5695    0.9065 C   0  0  0  0  0  0  0  0  0  0  0  0
    2.7543    3.8294   -1.0558 C   0  0  0  0  0  0  0  0  0  0  0  0
    4.6383    2.3022   -1.7443 C   0  0  0  0  0  0  0  0  0  0  0  0
   -2.8737    2.8000   -0.7006 C   0  0  0  0  0  0  0  0  0  0  0  0
   -4.4174    1.2507    0.3260 C   0  0  0  0  0  0  0  0  0  0  0  0
   -4.1804    2.3659   -0.4776 C   0  0  0  0  0  0  0  0  0  0  0  0
    1.0953   -1.5467    1.7529 H   0  0  0  0  0  0  0  0  0  0  0  0
    2.5322   -2.6758    0.1748 H   0  0  0  0  0  0  0  0  0  0  0  0
    1.8453   -1.8275   -1.2161 H   0  0  0  0  0  0  0  0  0  0  0  0
   -2.2571   -1.7768    0.1264 H   0  0  0  0  0  0  0  0  0  0  0  0
   -1.4528   -2.2239    1.6507 H   0  0  0  0  0  0  0  0  0  0  0  0
   -0.1183    1.0264    1.5083 H   0  0  0  0  0  0  0  0  0  0  0  0
   -1.1584   -0.1009    2.3086 H   0  0  0  0  0  0  0  0  0  0  0  0
   -2.2975   -4.5707   -0.2872 H   0  0  0  0  0  0  0  0  0  0  0  0
   -0.5797   -6.1260   -1.3395 H   0  0  0  0  0  0  0  0  0  0  0  0
    4.4658    3.3295    0.1211 H   0  0  0  0  0  0  0  0  0  0  0  0
   -0.7905    2.4661   -0.3041 H   0  0  0  0  0  0  0  0  0  0  0  0
   -3.5507   -0.2888    1.5411 H   0  0  0  0  0  0  0  0  0  0  0  0
    2.1701    4.2330   -0.2214 H   0  0  0  0  0  0  0  0  0  0  0  0
    3.2600    4.6635   -1.5533 H   0  0  0  0  0  0  0  0  0  0  0  0
    2.0535    3.3780   -1.7670 H   0  0  0  0  0  0  0  0  0  0  0  0
    5.1313    3.1467   -2.2369 H   0  0  0  0  0  0  0  0  0  0  0  0
    5.4127    1.6049   -1.4063 H   0  0  0  0  0  0  0  0  0  0  0  0
    4.0211    1.7834   -2.4862 H   0  0  0  0  0  0  0  0  0  0  0  0
   -2.6896    3.6679   -1.3269 H   0  0  0  0  0  0  0  0  0  0  0  0
   -5.4350    0.9148    0.5016 H   0  0  0  0  0  0  0  0  0  0  0  0
  1 25  1  0  0  0  0
  2  7  1  0  0  0  0
  2 14  1  0  0  0  0
  3  8  1  0  0  0  0
  3 10  1  0  0  0  0
  3 13  1  0  0  0  0
  4 11  1  0  0  0  0
  4 16  1  0  0  0  0
  4 33  1  0  0  0  0
  5 12  1  0  0  0  0
  5 16  2  0  0  0  0
  6 14  2  0  0  0  0
  6 17  1  0  0  0  0
  7 17  2  0  0  0  0
  8  9  1  0  0  0  0
  8 14  1  0  0  0  0
  8 26  1  0  0  0  0
  9 12  1  0  0  0  0
  9 27  1  0  0  0  0
  9 28  1  0  0  0  0
 10 11  1  0  0  0  0
 10 29  1  0  0  0  0
 10 30  1  0  0  0  0
 11 12  2  0  0  0  0
 13 15  1  0  0  0  0
 13 31  1  0  0  0  0
 13 32  1  0  0  0  0
 15 19  2  0  0  0  0
 15 20  1  0  0  0  0
 16 34  1  0  0  0  0
 17 18  1  0  0  0  0
 18 21  1  0  0  0  0
 18 22  1  0  0  0  0
 18 35  1  0  0  0  0
 19 23  1  0  0  0  0
 19 36  1  0  0  0  0
 20 24  2  0  0  0  0
 20 37  1  0  0  0  0
 21 38  1  0  0  0  0
 21 39  1  0  0  0  0
 21 40  1  0  0  0  0
 22 41  1  0  0  0  0
 22 42  1  0  0  0  0
 22 43  1  0  0  0  0
 23 25  2  0  0  0  0
 23 44  1  0  0  0  0
 24 25  1  0  0  0  0
 24 45  1  0  0  0  0
M  END
> <PUBCHEM_COMPOUND_CID>
26744962

> <PUBCHEM_CONFORMER_RMSD>
0.8

> <PUBCHEM_CONFORMER_DIVERSEORDER>
1
31
6
39
40
42
33
15
17
43
13
23
41
35
32
34
10
12
37
36
38
22
3
26
19
25
8
20
18
16
30
24
5
11
14
29
4
27
2
28
9
7
21

> <PUBCHEM_MMFF94_PARTIAL_CHARGES>
29
1 -0.19
10 0.45
11 -0.33
12 0.05
13 0.41
14 0.3
15 -0.14
16 0.04
17 0.34
18 0.18
19 -0.15
2 -0.02
20 -0.15
23 -0.15
24 -0.15
25 0.19
3 -0.81
33 0.27
34 0.15
36 0.15
37 0.15
4 0.03
44 0.15
45 0.15
5 -0.57
6 -0.57
7 -0.41
8 0.45
9 0.18

> <PUBCHEM_EFFECTIVE_ROTOR_COUNT>
4.8

> <PUBCHEM_PHARMACOPHORE_FEATURES>
9
1 3 cation
1 4 donor
3 18 21 22 hydrophobe
3 4 5 16 cation
3 6 7 17 cation
5 2 6 7 14 17 rings
5 4 5 11 12 16 rings
6 15 19 20 23 24 25 rings
6 3 8 9 10 11 12 rings

> <PUBCHEM_HEAVY_ATOM_COUNT>
25

> <PUBCHEM_ATOM_DEF_STEREO_COUNT>
1

> <PUBCHEM_ATOM_UDEF_STEREO_COUNT>
0

> <PUBCHEM_BOND_DEF_STEREO_COUNT>
0

> <PUBCHEM_BOND_UDEF_STEREO_COUNT>
0

> <PUBCHEM_ISOTOPIC_ATOM_COUNT>
0

> <PUBCHEM_COMPONENT_COUNT>
1

> <PUBCHEM_CACTVS_TAUTO_COUNT>
2

> <PUBCHEM_CONFORMER_ID>
0198188200000001

> <PUBCHEM_MMFF94_ENERGY>
45.0255

> <PUBCHEM_FEATURE_SELFOVERLAP>
45.772

> <PUBCHEM_SHAPE_FINGERPRINT>
10165383 225 18055665981286274448
10871710 139 17613450251542487108
11045515 52 17329996209783505230
11833330 49 17547284970424539858
12160290 23 18125166184445517850
12553582 1 17402891619003313810
12788726 201 17903348552558128178
138480 1 17762340219143240909
13899415 180 17256508731075835743
14114211 80 18268453341529629729
14251757 5 17906445877056257295
14508225 48 17333372801339258398
15210252 30 17106804747044625284
15842332 3 17898552418956182808
16988056 13 17687739441794360325
17134986 127 18409736140454121008
17980427 26 17168413948667117704
18681886 176 18335975411796098184
18785283 64 18193849149743648851
20600515 1 16687088714645495954
21285901 2 17339589367369362886
21304303 282 17768206371438825830
21857420 4 17180238912366123812
22149856 69 18342461388650631105
2255824 54 18124880062208658163
22907989 373 17977089477322780175
23558518 356 18263632039282192794
23559900 14 18049438150359162929
23598288 3 18117555343546434634
238 59 18267595593589106011
24893989 43 16121282071491505021
26353 1 17045983577400019910
266924 78 17983325666883938545
3057174 1 18342740684875941295
3388396 114 16460258374729615452
340366 18 18409171000621279754
4353968 344 17475243869990567828
458136 41 18270981041599097011
46194498 28 17974006155199154037
6287921 2 18265336105989695781
6608658 132 16966065579405428180
7164475 11 17906165510502537208
7808743 9 18192435388413076800
9709674 26 17977663109677433459
9925002 15 17616266114043402261

> <PUBCHEM_SHAPE_MULTIPOLES>
476.44
7.79
6.96
1.31
3.71
7.64
-0.14
-11.53
1.78
-5.04
3.79
0.82
-0.23
-0.44

> <PUBCHEM_SHAPE_SELFOVERLAP>
1031.458

> <PUBCHEM_SHAPE_VOLUME>
265.2

> <PUBCHEM_COORDINATE_TYPE>
2
5
10

$$$$
