11912219
  -OEChem-12032416263D

 46 48  0     1  0  0  0  0  0999 V2000
    4.3263   -0.9316    0.9685 O   0  0  0  0  0  0  0  0  0  0  0  0
   -2.8883   -0.7127   -1.5877 O   0  0  0  0  0  0  0  0  0  0  0  0
    2.3340   -0.7220   -0.2182 N   0  0  0  0  0  0  0  0  0  0  0  0
   -3.9320   -0.3647    0.4565 N   0  0  0  0  0  0  0  0  0  0  0  0
   -0.4726   -1.4314   -0.2093 C   0  0  1  0  0  0  0  0  0  0  0  0
   -0.0224    0.0396   -0.4009 C   0  0  2  0  0  0  0  0  0  0  0  0
    3.8590    1.1934    0.1157 C   0  0  0  0  0  0  0  0  0  0  0  0
    1.3913    0.0782   -1.0086 C   0  0  0  0  0  0  0  0  0  0  0  0
    0.5680   -2.2436    0.5805 C   0  0  0  0  0  0  0  0  0  0  0  0
    5.2893    1.6069    0.1565 C   0  0  0  0  0  0  0  0  0  0  0  0
    4.5461    1.5829   -1.1470 C   0  0  0  0  0  0  0  0  0  0  0  0
    1.9561   -2.1233   -0.0431 C   0  0  0  0  0  0  0  0  0  0  0  0
   -1.8543   -1.5578    0.4320 C   0  0  0  0  0  0  0  0  0  0  0  0
    3.5308   -0.2491    0.3284 C   0  0  0  0  0  0  0  0  0  0  0  0
   -5.0668    0.3516   -0.0512 C   0  0  0  0  0  0  0  0  0  0  0  0
   -0.0735    0.8789    0.8818 C   0  0  0  0  0  0  0  0  0  0  0  0
   -5.8285    1.2961    0.8212 C   0  0  0  0  0  0  0  0  0  0  0  0
   -4.9898    1.8222   -0.3065 C   0  0  0  0  0  0  0  0  0  0  0  0
   -2.9228   -0.8439   -0.3670 C   0  0  0  0  0  0  0  0  0  0  0  0
    0.2499    2.3305    0.5982 C   0  0  0  0  0  0  0  0  0  0  0  0
   -0.5306   -1.8790   -1.2128 H   0  0  0  0  0  0  0  0  0  0  0  0
   -0.6887    0.5142   -1.1323 H   0  0  0  0  0  0  0  0  0  0  0  0
    3.1926    1.8946    0.5981 H   0  0  0  0  0  0  0  0  0  0  0  0
    1.3636   -0.3829   -2.0050 H   0  0  0  0  0  0  0  0  0  0  0  0
    1.7527    1.0923   -1.1742 H   0  0  0  0  0  0  0  0  0  0  0  0
    0.6047   -1.8940    1.6197 H   0  0  0  0  0  0  0  0  0  0  0  0
    0.2764   -3.3001    0.6112 H   0  0  0  0  0  0  0  0  0  0  0  0
    6.0648    0.8645    0.2988 H   0  0  0  0  0  0  0  0  0  0  0  0
    5.5255    2.5758    0.5806 H   0  0  0  0  0  0  0  0  0  0  0  0
    4.8062    0.8106   -1.8605 H   0  0  0  0  0  0  0  0  0  0  0  0
    4.2781    2.5322   -1.5943 H   0  0  0  0  0  0  0  0  0  0  0  0
    2.6870   -2.6490    0.5794 H   0  0  0  0  0  0  0  0  0  0  0  0
    1.9730   -2.5933   -1.0336 H   0  0  0  0  0  0  0  0  0  0  0  0
   -2.1467   -2.6152    0.4692 H   0  0  0  0  0  0  0  0  0  0  0  0
   -1.8385   -1.2066    1.4694 H   0  0  0  0  0  0  0  0  0  0  0  0
   -5.6543   -0.2415   -0.7450 H   0  0  0  0  0  0  0  0  0  0  0  0
   -1.0762    0.8497    1.3197 H   0  0  0  0  0  0  0  0  0  0  0  0
    0.6167    0.4949    1.6408 H   0  0  0  0  0  0  0  0  0  0  0  0
   -5.4774    1.4687    1.8312 H   0  0  0  0  0  0  0  0  0  0  0  0
   -6.9051    1.3329    0.7086 H   0  0  0  0  0  0  0  0  0  0  0  0
   -5.5015    2.2112   -1.1781 H   0  0  0  0  0  0  0  0  0  0  0  0
   -4.0759    2.3452   -0.0522 H   0  0  0  0  0  0  0  0  0  0  0  0
   -3.8931   -0.5307    1.4586 H   0  0  0  0  0  0  0  0  0  0  0  0
    0.1088    2.9200    1.5111 H   0  0  0  0  0  0  0  0  0  0  0  0
   -0.4282    2.7404   -0.1584 H   0  0  0  0  0  0  0  0  0  0  0  0
    1.2682    2.5108    0.2660 H   0  0  0  0  0  0  0  0  0  0  0  0
  1 14  2  0  0  0  0
  2 19  2  0  0  0  0
  3  8  1  0  0  0  0
  3 12  1  0  0  0  0
  3 14  1  0  0  0  0
  4 15  1  0  0  0  0
  4 19  1  0  0  0  0
  4 43  1  0  0  0  0
  5  6  1  0  0  0  0
  5  9  1  0  0  0  0
  5 13  1  0  0  0  0
  5 21  1  0  0  0  0
  6  8  1  0  0  0  0
  6 16  1  0  0  0  0
  6 22  1  0  0  0  0
  7 10  1  0  0  0  0
  7 11  1  0  0  0  0
  7 14  1  0  0  0  0
  7 23  1  0  0  0  0
  8 24  1  0  0  0  0
  8 25  1  0  0  0  0
  9 12  1  0  0  0  0
  9 26  1  0  0  0  0
  9 27  1  0  0  0  0
 10 11  1  0  0  0  0
 10 28  1  0  0  0  0
 10 29  1  0  0  0  0
 11 30  1  0  0  0  0
 11 31  1  0  0  0  0
 12 32  1  0  0  0  0
 12 33  1  0  0  0  0
 13 19  1  0  0  0  0
 13 34  1  0  0  0  0
 13 35  1  0  0  0  0
 15 17  1  0  0  0  0
 15 18  1  0  0  0  0
 15 36  1  0  0  0  0
 16 20  1  0  0  0  0
 16 37  1  0  0  0  0
 16 38  1  0  0  0  0
 17 18  1  0  0  0  0
 17 39  1  0  0  0  0
 17 40  1  0  0  0  0
 18 41  1  0  0  0  0
 18 42  1  0  0  0  0
 20 44  1  0  0  0  0
 20 45  1  0  0  0  0
 20 46  1  0  0  0  0
M  END
> <PUBCHEM_COMPOUND_CID>
11912219

> <PUBCHEM_CONFORMER_RMSD>
0.8

> <PUBCHEM_CONFORMER_DIVERSEORDER>
2
75
33
27
131
101
7
42
31
20
148
55
161
93
119
48
152
121
138
81
68
166
164
94
175
109
64
69
63
177
172
12
111
38
147
143
176
56
136
127
113
49
114
122
115
53
88
163
62
110
58
98
169
130
6
80
145
140
16
173
171
170
104
167
9
168
26
96
133
149
107
44
84
70
135
103
86
99
76
47
79
124
126
8
106
120
174
66
87
25
37
28
91
137
13
23
46
112
29
159
78
50
77
123
162
73
43
108
74
97
132
85
65
160
5
100
141
134
154
95
52
67
82
19
125
41
72
139
158
118
156
51
128
102
11
18
17
1
57
144
83
14
30
15
116
89
157
146
150
59
153
35
4
155
22
39
45
92
142
71
36
105
21
40
129
117
90
24
151
165
61
54
60
3
32
34
10

> <PUBCHEM_MMFF94_PARTIAL_CHARGES>
26
1 -0.57
10 -0.2
11 -0.2
12 0.3
13 0.06
14 0.63
15 0.05
17 -0.2
18 -0.2
19 0.57
2 -0.57
23 0.1
28 0.1
29 0.1
3 -0.66
30 0.1
31 0.1
36 0.1
39 0.1
4 -0.58
40 0.1
41 0.1
42 0.1
43 0.37
7 -0.1
8 0.3

> <PUBCHEM_EFFECTIVE_ROTOR_COUNT>
9.4

> <PUBCHEM_PHARMACOPHORE_FEATURES>
5
1 1 acceptor
1 2 acceptor
1 20 hydrophobe
1 4 donor
6 3 5 6 8 9 12 rings

> <PUBCHEM_HEAVY_ATOM_COUNT>
20

> <PUBCHEM_ATOM_DEF_STEREO_COUNT>
2

> <PUBCHEM_ATOM_UDEF_STEREO_COUNT>
0

> <PUBCHEM_BOND_DEF_STEREO_COUNT>
0

> <PUBCHEM_BOND_UDEF_STEREO_COUNT>
0

> <PUBCHEM_ISOTOPIC_ATOM_COUNT>
0

> <PUBCHEM_COMPONENT_COUNT>
1

> <PUBCHEM_CACTVS_TAUTO_COUNT>
2

> <PUBCHEM_CONFORMER_ID>
00B5C41B00000002

> <PUBCHEM_MMFF94_ENERGY>
40.4044

> <PUBCHEM_FEATURE_SELFOVERLAP>
25.371

> <PUBCHEM_SHAPE_FINGERPRINT>
11089746 13 17418081114094120705
11578080 2 13625257536126477892
117890 112 18412544323052948616
12596602 18 17458064872167041449
12788726 201 18130796624519936120
12969540 114 17346591989032293284
13132413 78 18342175566106479237
13464514 151 18341332270694431499
13675066 3 15647042759706961910
14251764 75 17317065833093876748
14790565 3 18410578404752569601
15048467 5 18335421291772820820
15081414 286 18270692986611571825
15196674 1 18410293622650716299
1601671 61 18343300370548709121
17959699 21 18411139121259251817
18222031 100 9655577391901462975
18785283 64 17605291755300717613
19784866 34 18408885144055558963
19784866 9 18334293141418964827
21304253 335 18334862757188315388
21421861 104 18043241353958580034
21452121 103 18409445852284030202
23402539 116 18130503128308896006
23402655 69 18131069337794387183
23559900 14 18271525291392271542
293599 30 18412547634319538597
296302 2 18410857689242802538
34797466 226 15769488845721130297
34934 24 18273214196801604703
350125 39 18336546015591567862
3680242 22 18335981982773684040
4340502 62 17385731274861272523
5104073 3 18114177566326715026
59755656 215 18342184319819430766
6034566 193 17753356419150455980
633830 44 18410854373855448982
7495541 125 10881403144833434846
960060 61 12751234817846866586

> <PUBCHEM_SHAPE_MULTIPOLES>
389.89
11.9
2.4
1.02
6.53
0.07
-0.16
-7.29
0.4
-0.55
0.27
-0.02
-0.07
-0.69

> <PUBCHEM_SHAPE_SELFOVERLAP>
788.988

> <PUBCHEM_SHAPE_VOLUME>
226.8

> <PUBCHEM_COORDINATE_TYPE>
2
5
10

$$$$
