7050334
  -OEChem-12032416133D

 53 56  0     1  0  0  0  0  0999 V2000
   -7.7201   -0.5215   -2.5092 Cl  0  0  0  0  0  0  0  0  0  0  0  0
    7.5649   -2.9879   -0.4374 S   0  0  0  0  0  0  0  0  0  0  0  0
   -8.7514   -0.9988    0.2287 F   0  0  0  0  0  0  0  0  0  0  0  0
   -2.5110   -1.3337    1.8791 O   0  0  0  0  0  0  0  0  0  0  0  0
   -3.1227    1.4522   -1.7849 O   0  0  0  0  0  0  0  0  0  0  0  0
    3.6307    2.2632    1.2565 O   0  0  0  0  0  0  0  0  0  0  0  0
    5.8886    1.8573   -0.1882 O   0  0  0  0  0  0  0  0  0  0  0  0
   -1.2668    0.7258   -0.5965 N   0  0  0  0  0  0  0  0  0  0  0  0
   -3.2693   -0.0518    0.0387 N   0  0  0  0  0  0  0  0  0  0  0  0
    2.0408    0.6823    0.7569 N   0  0  0  0  0  0  0  0  0  0  0  0
   -0.9530   -0.1009    0.5366 C   0  0  1  0  0  0  0  0  0  0  0  0
    0.9141    1.5306    1.0711 C   0  0  2  0  0  0  0  0  0  0  0  0
   -0.2627    0.7104    1.6284 C   0  0  0  0  0  0  0  0  0  0  0  0
    0.4918    2.3587   -0.1552 C   0  0  0  0  0  0  0  0  0  0  0  0
   -0.2141    1.5113   -1.2154 C   0  0  0  0  0  0  0  0  0  0  0  0
   -2.3400   -0.5766    0.9314 C   0  0  0  0  0  0  0  0  0  0  0  0
   -2.6296    0.7673   -0.8970 C   0  0  0  0  0  0  0  0  0  0  0  0
   -4.6793   -0.2938    0.0834 C   0  0  0  0  0  0  0  0  0  0  0  0
    3.3568    1.1235    0.8761 C   0  0  0  0  0  0  0  0  0  0  0  0
   -5.4302   -0.2900   -1.0950 C   0  0  0  0  0  0  0  0  0  0  0  0
   -5.3116   -0.5368    1.3055 C   0  0  0  0  0  0  0  0  0  0  0  0
    4.3937    0.1338    0.5514 C   0  0  0  0  0  0  0  0  0  0  0  0
   -6.8039   -0.5275   -1.0516 C   0  0  0  0  0  0  0  0  0  0  0  0
   -6.6854   -0.7742    1.3489 C   0  0  0  0  0  0  0  0  0  0  0  0
    5.6152    0.5405    0.0325 C   0  0  0  0  0  0  0  0  0  0  0  0
    4.1238   -1.2097    0.7732 C   0  0  0  0  0  0  0  0  0  0  0  0
   -7.4316   -0.7695    0.1703 C   0  0  0  0  0  0  0  0  0  0  0  0
    6.5857   -0.4147   -0.2704 C   0  0  0  0  0  0  0  0  0  0  0  0
    5.0941   -2.1648    0.4703 C   0  0  0  0  0  0  0  0  0  0  0  0
    6.3251   -1.7673   -0.0514 C   0  0  0  0  0  0  0  0  0  0  0  0
    5.5519    2.3824   -1.4706 C   0  0  0  0  0  0  0  0  0  0  0  0
    7.8056   -2.7199   -2.2164 C   0  0  0  0  0  0  0  0  0  0  0  0
   -0.3543   -0.9523    0.1968 H   0  0  0  0  0  0  0  0  0  0  0  0
    1.2358    2.2272    1.8552 H   0  0  0  0  0  0  0  0  0  0  0  0
   -0.9847    1.4029    2.0823 H   0  0  0  0  0  0  0  0  0  0  0  0
    0.0738    0.0439    2.4319 H   0  0  0  0  0  0  0  0  0  0  0  0
    1.3546    2.8646   -0.6036 H   0  0  0  0  0  0  0  0  0  0  0  0
   -0.2003    3.1421    0.1808 H   0  0  0  0  0  0  0  0  0  0  0  0
   -0.6365    2.1487   -1.9984 H   0  0  0  0  0  0  0  0  0  0  0  0
    0.4873    0.8130   -1.6851 H   0  0  0  0  0  0  0  0  0  0  0  0
    1.8428   -0.2241    0.3460 H   0  0  0  0  0  0  0  0  0  0  0  0
   -4.9563   -0.1351   -2.0604 H   0  0  0  0  0  0  0  0  0  0  0  0
   -4.7707   -0.5169    2.2465 H   0  0  0  0  0  0  0  0  0  0  0  0
   -7.1760   -0.9558    2.3006 H   0  0  0  0  0  0  0  0  0  0  0  0
    3.1912   -1.5579    1.2074 H   0  0  0  0  0  0  0  0  0  0  0  0
    7.5435   -0.0882   -0.6691 H   0  0  0  0  0  0  0  0  0  0  0  0
    4.8759   -3.2141    0.6538 H   0  0  0  0  0  0  0  0  0  0  0  0
    6.1397    1.8886   -2.2508 H   0  0  0  0  0  0  0  0  0  0  0  0
    5.7896    3.4496   -1.4766 H   0  0  0  0  0  0  0  0  0  0  0  0
    4.4831    2.2614   -1.6739 H   0  0  0  0  0  0  0  0  0  0  0  0
    8.2418   -1.7355   -2.4046 H   0  0  0  0  0  0  0  0  0  0  0  0
    6.8526   -2.8031   -2.7459 H   0  0  0  0  0  0  0  0  0  0  0  0
    8.4881   -3.4810   -2.6036 H   0  0  0  0  0  0  0  0  0  0  0  0
  1 23  1  0  0  0  0
  2 30  1  0  0  0  0
  2 32  1  0  0  0  0
  3 27  1  0  0  0  0
  4 16  2  0  0  0  0
  5 17  2  0  0  0  0
  6 19  2  0  0  0  0
  7 25  1  0  0  0  0
  7 31  1  0  0  0  0
  8 11  1  0  0  0  0
  8 15  1  0  0  0  0
  8 17  1  0  0  0  0
  9 16  1  0  0  0  0
  9 17  1  0  0  0  0
  9 18  1  0  0  0  0
 10 12  1  0  0  0  0
 10 19  1  0  0  0  0
 10 41  1  0  0  0  0
 11 13  1  0  0  0  0
 11 16  1  0  0  0  0
 11 33  1  0  0  0  0
 12 13  1  0  0  0  0
 12 14  1  0  0  0  0
 12 34  1  0  0  0  0
 13 35  1  0  0  0  0
 13 36  1  0  0  0  0
 14 15  1  0  0  0  0
 14 37  1  0  0  0  0
 14 38  1  0  0  0  0
 15 39  1  0  0  0  0
 15 40  1  0  0  0  0
 18 20  2  0  0  0  0
 18 21  1  0  0  0  0
 19 22  1  0  0  0  0
 20 23  1  0  0  0  0
 20 42  1  0  0  0  0
 21 24  2  0  0  0  0
 21 43  1  0  0  0  0
 22 25  2  0  0  0  0
 22 26  1  0  0  0  0
 23 27  2  0  0  0  0
 24 27  1  0  0  0  0
 24 44  1  0  0  0  0
 25 28  1  0  0  0  0
 26 29  2  0  0  0  0
 26 45  1  0  0  0  0
 28 30  2  0  0  0  0
 28 46  1  0  0  0  0
 29 30  1  0  0  0  0
 29 47  1  0  0  0  0
 31 48  1  0  0  0  0
 31 49  1  0  0  0  0
 31 50  1  0  0  0  0
 32 51  1  0  0  0  0
 32 52  1  0  0  0  0
 32 53  1  0  0  0  0
M  END
> <PUBCHEM_COMPOUND_CID>
7050334

> <PUBCHEM_CONFORMER_RMSD>
1

> <PUBCHEM_CONFORMER_DIVERSEORDER>
1
47
32
37
9
29
42
14
50
24
7
10
25
6
13
46
30
20
4
58
12
48
56
51
16
2
23
33
39
31
22
18
43
5
19
8
34
59
26
3
49
11
17
28
38
44
40
15
45
36
57
21
55
27
35
52
53
41
54

> <PUBCHEM_MMFF94_PARTIAL_CHARGES>
37
1 -0.18
10 -0.73
11 0.36
12 0.3
15 0.3
16 0.57
17 0.69
18 0.12
19 0.54
2 -0.33
20 -0.15
21 -0.15
22 0.09
23 0.18
24 -0.15
25 0.08
26 -0.15
27 0.19
28 -0.15
29 -0.15
3 -0.19
30 0.1
31 0.28
32 0.23
4 -0.57
41 0.37
42 0.15
43 0.15
44 0.15
45 0.15
46 0.15
47 0.15
5 -0.57
6 -0.57
7 -0.36
8 -0.66
9 -0.24

> <PUBCHEM_EFFECTIVE_ROTOR_COUNT>
7

> <PUBCHEM_PHARMACOPHORE_FEATURES>
10
1 10 donor
1 32 hydrophobe
1 4 acceptor
1 5 acceptor
1 6 acceptor
1 7 acceptor
5 8 9 11 16 17 rings
6 18 20 21 23 24 27 rings
6 22 25 26 28 29 30 rings
6 8 11 12 13 14 15 rings

> <PUBCHEM_HEAVY_ATOM_COUNT>
32

> <PUBCHEM_ATOM_DEF_STEREO_COUNT>
2

> <PUBCHEM_ATOM_UDEF_STEREO_COUNT>
0

> <PUBCHEM_BOND_DEF_STEREO_COUNT>
0

> <PUBCHEM_BOND_UDEF_STEREO_COUNT>
0

> <PUBCHEM_ISOTOPIC_ATOM_COUNT>
0

> <PUBCHEM_COMPONENT_COUNT>
1

> <PUBCHEM_CACTVS_TAUTO_COUNT>
2

> <PUBCHEM_CONFORMER_ID>
006B945E00000001

> <PUBCHEM_MMFF94_ENERGY>
95.8226

> <PUBCHEM_FEATURE_SELFOVERLAP>
50.866

> <PUBCHEM_SHAPE_FINGERPRINT>
10299344 5 18060701701813341467
10319688 67 13110956518067967431
117089 54 17769102242406186494
12236239 1 16702302390223298881
12539765 74 13551462623574929377
13533116 47 18272930552993328872
13617811 41 16660361485006563735
13673619 4 18411135806098510600
13685833 64 18413387635644359050
13782708 43 18412538816757000143
13914758 101 17846784001406373177
14347424 109 16630238186710549248
14931854 50 17822292328010239858
150020 25 17675926490670669746
15064986 266 18261121737860165720
15082195 135 17677065628769363508
15131766 46 17056380443816506345
15183329 4 18201996651438638739
15198563 99 17822565011226099069
15352257 5 18410572916048044603
16994733 274 12540690418881806479
19301679 30 17202775791431896312
19302320 297 11527647680551488882
20105231 36 17458632216146248643
2026 5 18197779900157148158
21307412 95 18260552220907335635
21344244 181 18333452045273656394
21365058 113 18041000656736114405
2215653 11 18334007311213423825
22956985 138 16913994491430892006
23522609 53 17986420907949396048
23559900 14 18042684078042285857
23569917 315 18341333405558789543
23569943 247 18272365322338952675
23576562 1 16806448188411682967
24771293 8 9655566422676704947
24771750 20 16883311841293794524
3004659 81 18260546698206354466
335352 9 16805593799557993159
34797466 226 17821728373055433644
406291 66 18059575716619719518
4258327 124 12540709119000386984
437815 12 18334295375013228193
4616759 239 12823300135397244327
46194498 28 17749388204735051796
474113 269 17560795494671162247
54039377 194 18201723895810437990
59682541 35 11383829394530635167
59755656 215 17676759921164785579
6081469 158 17676203533926991806

> <PUBCHEM_SHAPE_MULTIPOLES>
618.57
25.91
2.55
1.79
9.87
0.17
-0.62
18.09
-8.38
-6.9
-0.63
1.62
0.18
1.22

> <PUBCHEM_SHAPE_SELFOVERLAP>
1317.999

> <PUBCHEM_SHAPE_VOLUME>
350.4

> <PUBCHEM_COORDINATE_TYPE>
2
5
10

$$$$
