40777850
  -OEChem-12032416283D

 50 52  0     1  0  0  0  0  0999 V2000
    2.4015   -0.4867    1.0622 O   0  0  0  0  0  0  0  0  0  0  0  0
    4.5297   -2.3884    0.0094 O   0  0  0  0  0  0  0  0  0  0  0  0
    5.3263    0.0645   -0.9483 O   0  0  0  0  0  0  0  0  0  0  0  0
   -0.0345   -1.3538    1.4190 O   0  0  0  0  0  0  0  0  0  0  0  0
    0.5011    1.8025    1.5659 O   0  0  0  0  0  0  0  0  0  0  0  0
   -1.3730    2.6344   -0.1785 O   0  0  0  0  0  0  0  0  0  0  0  0
   -1.3735   -0.9969   -0.4589 N   0  0  0  0  0  0  0  0  0  0  0  0
    2.2285    2.1587    0.0479 N   0  0  0  0  0  0  0  0  0  0  0  0
    2.2795   -1.5940    0.1403 C   0  0  2  0  0  0  0  0  0  0  0  0
    3.5601   -1.6068   -0.6873 C   0  0  1  0  0  0  0  0  0  0  0  0
    3.9570   -0.1451   -0.6767 C   0  0  1  0  0  0  0  0  0  0  0  0
    3.5879    0.2604    0.7404 C   0  0  1  0  0  0  0  0  0  0  0  0
    1.0296   -1.3662   -0.6988 C   0  0  0  0  0  0  0  0  0  0  0  0
    3.3128    1.7460    0.8892 C   0  0  0  0  0  0  0  0  0  0  0  0
   -0.1769   -1.2397    0.2014 C   0  0  0  0  0  0  0  0  0  0  0  0
   -1.5416   -0.8602   -1.9210 C   0  0  0  0  0  0  0  0  0  0  0  0
   -3.0248   -0.5928   -2.1981 C   0  0  0  0  0  0  0  0  0  0  0  0
   -2.6364   -0.8397    0.1495 C   0  0  0  0  0  0  0  0  0  0  0  0
   -3.6100   -0.6067   -0.8240 C   0  0  0  0  0  0  0  0  0  0  0  0
   -2.9787   -0.8884    1.4929 C   0  0  0  0  0  0  0  0  0  0  0  0
   -4.9406   -0.4174   -0.4824 C   0  0  0  0  0  0  0  0  0  0  0  0
    0.8979    2.1536    0.4581 C   0  0  0  0  0  0  0  0  0  0  0  0
   -4.3186   -0.6991    1.8463 C   0  0  0  0  0  0  0  0  0  0  0  0
   -5.2931   -0.4651    0.8661 C   0  0  0  0  0  0  0  0  0  0  0  0
   -0.0355    2.6393   -0.6304 C   0  0  0  0  0  0  0  0  0  0  0  0
   -2.2749    3.0876   -1.1839 C   0  0  0  0  0  0  0  0  0  0  0  0
    2.1771   -2.5071    0.7390 H   0  0  0  0  0  0  0  0  0  0  0  0
    3.4527   -2.0225   -1.6933 H   0  0  0  0  0  0  0  0  0  0  0  0
    3.3691    0.3950   -1.4265 H   0  0  0  0  0  0  0  0  0  0  0  0
    4.3744   -0.0268    1.4495 H   0  0  0  0  0  0  0  0  0  0  0  0
    0.8854   -2.2048   -1.3877 H   0  0  0  0  0  0  0  0  0  0  0  0
    1.1210   -0.4411   -1.2770 H   0  0  0  0  0  0  0  0  0  0  0  0
    4.1931    2.3370    0.6176 H   0  0  0  0  0  0  0  0  0  0  0  0
    3.0494    1.9729    1.9282 H   0  0  0  0  0  0  0  0  0  0  0  0
   -1.2068   -1.7846   -2.4049 H   0  0  0  0  0  0  0  0  0  0  0  0
   -0.9137   -0.0415   -2.2859 H   0  0  0  0  0  0  0  0  0  0  0  0
    4.2168   -3.3091    0.0072 H   0  0  0  0  0  0  0  0  0  0  0  0
    5.5157   -0.3317   -1.8159 H   0  0  0  0  0  0  0  0  0  0  0  0
   -3.4562   -1.3836   -2.8198 H   0  0  0  0  0  0  0  0  0  0  0  0
   -3.1713    0.3744   -2.6867 H   0  0  0  0  0  0  0  0  0  0  0  0
    2.4504    2.4765   -0.8912 H   0  0  0  0  0  0  0  0  0  0  0  0
   -2.2525   -1.0660    2.2763 H   0  0  0  0  0  0  0  0  0  0  0  0
   -5.6934   -0.2357   -1.2420 H   0  0  0  0  0  0  0  0  0  0  0  0
   -4.6087   -0.7332    2.8931 H   0  0  0  0  0  0  0  0  0  0  0  0
   -6.3288   -0.3199    1.1602 H   0  0  0  0  0  0  0  0  0  0  0  0
    0.2585    3.6584   -0.9074 H   0  0  0  0  0  0  0  0  0  0  0  0
    0.0734    1.9832   -1.5004 H   0  0  0  0  0  0  0  0  0  0  0  0
   -3.2941    2.9899   -0.8012 H   0  0  0  0  0  0  0  0  0  0  0  0
   -2.1782    2.4851   -2.0912 H   0  0  0  0  0  0  0  0  0  0  0  0
   -2.0848    4.1405   -1.4127 H   0  0  0  0  0  0  0  0  0  0  0  0
  1  9  1  0  0  0  0
  1 12  1  0  0  0  0
  2 10  1  0  0  0  0
  2 37  1  0  0  0  0
  3 11  1  0  0  0  0
  3 38  1  0  0  0  0
  4 15  2  0  0  0  0
  5 22  2  0  0  0  0
  6 25  1  0  0  0  0
  6 26  1  0  0  0  0
  7 15  1  0  0  0  0
  7 16  1  0  0  0  0
  7 18  1  0  0  0  0
  8 14  1  0  0  0  0
  8 22  1  0  0  0  0
  8 41  1  0  0  0  0
  9 10  1  0  0  0  0
  9 13  1  0  0  0  0
  9 27  1  0  0  0  0
 10 11  1  0  0  0  0
 10 28  1  0  0  0  0
 11 12  1  0  0  0  0
 11 29  1  0  0  0  0
 12 14  1  0  0  0  0
 12 30  1  0  0  0  0
 13 15  1  0  0  0  0
 13 31  1  0  0  0  0
 13 32  1  0  0  0  0
 14 33  1  0  0  0  0
 14 34  1  0  0  0  0
 16 17  1  0  0  0  0
 16 35  1  0  0  0  0
 16 36  1  0  0  0  0
 17 19  1  0  0  0  0
 17 39  1  0  0  0  0
 17 40  1  0  0  0  0
 18 19  1  0  0  0  0
 18 20  2  0  0  0  0
 19 21  2  0  0  0  0
 20 23  1  0  0  0  0
 20 42  1  0  0  0  0
 21 24  1  0  0  0  0
 21 43  1  0  0  0  0
 22 25  1  0  0  0  0
 23 24  2  0  0  0  0
 23 44  1  0  0  0  0
 24 45  1  0  0  0  0
 25 46  1  0  0  0  0
 25 47  1  0  0  0  0
 26 48  1  0  0  0  0
 26 49  1  0  0  0  0
 26 50  1  0  0  0  0
M  END
> <PUBCHEM_COMPOUND_CID>
40777850

> <PUBCHEM_CONFORMER_RMSD>
1

> <PUBCHEM_CONFORMER_DIVERSEORDER>
1
101
183
72
151
203
90
14
64
167
45
147
32
128
200
76
3
97
146
137
211
62
92
69
197
189
182
13
56
130
206
140
127
129
135
119
159
163
46
52
99
165
152
153
205
93
125
77
202
65
170
43
185
144
117
168
26
150
63
207
138
36
53
60
157
31
184
124
38
54
169
100
9
106
192
195
87
8
198
133
79
22
122
191
149
67
28
123
121
55
86
61
37
196
48
98
204
110
181
190
178
176
199
136
83
49
71
85
109
25
47
208
2
160
96
113
118
50
115
154
24
82
29
18
111
148
107
156
134
180
80
75
141
41
108
94
175
105
186
209
188
166
212
114
88
78
158
84
161
177
179
116
17
103
20
194
172
120
81
102
30
70
131
68
12
42
16
95
21
6
164
19
89
173
51
4
171
201
35
187
11
112
126
39
145
210
23
27
40
104
57
73
174
132
34
58
33
10
193
5
7
155
74
59
139
91
66
142
143
44
15
162

> <PUBCHEM_MMFF94_PARTIAL_CHARGES>
33
1 -0.56
10 0.28
11 0.28
12 0.28
13 0.06
14 0.3
15 0.57
16 0.3
17 0.14
18 0.12
19 -0.14
2 -0.68
20 -0.15
21 -0.15
22 0.57
23 -0.15
24 -0.15
25 0.34
26 0.28
3 -0.68
37 0.4
38 0.4
4 -0.57
41 0.37
42 0.15
43 0.15
44 0.15
45 0.15
5 -0.57
6 -0.56
7 -0.48
8 -0.73
9 0.28

> <PUBCHEM_EFFECTIVE_ROTOR_COUNT>
9.6

> <PUBCHEM_PHARMACOPHORE_FEATURES>
12
1 1 acceptor
1 2 acceptor
1 2 donor
1 3 acceptor
1 3 donor
1 4 acceptor
1 5 acceptor
1 6 acceptor
1 8 donor
5 1 9 10 11 12 rings
5 7 16 17 18 19 rings
6 18 19 20 21 23 24 rings

> <PUBCHEM_HEAVY_ATOM_COUNT>
26

> <PUBCHEM_ATOM_DEF_STEREO_COUNT>
4

> <PUBCHEM_ATOM_UDEF_STEREO_COUNT>
0

> <PUBCHEM_BOND_DEF_STEREO_COUNT>
0

> <PUBCHEM_BOND_UDEF_STEREO_COUNT>
0

> <PUBCHEM_ISOTOPIC_ATOM_COUNT>
0

> <PUBCHEM_COMPONENT_COUNT>
1

> <PUBCHEM_CACTVS_TAUTO_COUNT>
2

> <PUBCHEM_CONFORMER_ID>
026E387A00000001

> <PUBCHEM_MMFF94_ENERGY>
71.5183

> <PUBCHEM_FEATURE_SELFOVERLAP>
61.014

> <PUBCHEM_SHAPE_FINGERPRINT>
10366900 7 17821721767485370627
104564 63 18411417271931535220
10688039 33 18259989253525748429
12156800 1 17410539465092510997
12236239 1 17418096541675007731
12403814 3 18130786729215530599
12422481 6 18199768955155836761
12553582 1 18411694413612966960
12596599 1 17703790357291254319
12788726 201 18260265222481174640
13140716 1 18049714419761541112
13726171 33 17022618658889115228
14294032 229 16271101324318618241
14363568 33 18046363082255623685
14840074 17 18272377515470914317
15081414 286 18339081609121627832
15848702 151 18060704987458139311
17357779 13 18409722954635730917
1813 80 18129955489555468278
18785283 64 17826240875807162797
21033648 144 18271515515835229006
21033648 29 18040985263503934855
21641784 216 18116454595332334516
221357 26 18411133610805505862
22182313 1 18338780265641945680
23175994 123 18260553316318570495
23419403 2 15506364726742388833
23559900 14 15793389879283793451
345986 75 17988644043208499602
4340502 62 8502651506744478471
469060 322 16878516639514816749
474 4 18271803591960492891

> <PUBCHEM_SHAPE_MULTIPOLES>
489.89
9.88
2.84
1.66
0.13
2.57
0.13
-3.27
-0.5
-1.15
0.33
1.48
-0.17
0.95

> <PUBCHEM_SHAPE_SELFOVERLAP>
1036.437

> <PUBCHEM_SHAPE_VOLUME>
274.9

> <PUBCHEM_COORDINATE_TYPE>
2
5
10

$$$$
