11941677
  -OEChem-12032416163D

 65 70  0     1  0  0  0  0  0999 V2000
   -5.6845   -3.8786   -1.9573 F   0  0  0  0  0  0  0  0  0  0  0  0
   -1.5497    3.7061   -0.5797 O   0  0  0  0  0  0  0  0  0  0  0  0
   -2.4599    1.1608   -2.1383 O   0  0  0  0  0  0  0  0  0  0  0  0
    2.4017    1.9574   -0.6534 O   0  0  0  0  0  0  0  0  0  0  0  0
    7.4161   -1.7396    1.2316 O   0  0  0  0  0  0  0  0  0  0  0  0
   -3.8448    2.3751    1.0139 N   0  0  0  0  0  0  0  0  0  0  0  0
    0.5316    0.8045   -1.3740 N   0  0  0  0  0  0  0  0  0  0  0  0
    2.3676   -0.3897   -0.6818 N   0  0  0  0  0  0  0  0  0  0  0  0
   -5.2521    0.5495    0.7333 N   0  0  0  0  0  0  0  0  0  0  0  0
   -4.8573    1.5007    2.9119 N   0  0  0  0  0  0  0  0  0  0  0  0
   -2.4235    1.4989   -0.7415 C   0  0  1  0  0  0  0  0  0  0  0  0
   -1.1709    2.3214   -0.5103 C   0  0  1  0  0  0  0  0  0  0  0  0
   -3.5531    2.4422   -0.4013 C   0  0  2  0  0  0  0  0  0  0  0  0
   -0.2751    1.9625   -1.6739 C   0  0  2  0  0  0  0  0  0  0  0  0
   -2.9713    3.7989   -0.7537 C   0  0  0  0  0  0  0  0  0  0  0  0
   -1.2769    1.6652   -2.7755 C   0  0  0  0  0  0  0  0  0  0  0  0
   -4.6880    1.4340    1.5776 C   0  0  0  0  0  0  0  0  0  0  0  0
    1.8372    0.8887   -0.8755 C   0  0  0  0  0  0  0  0  0  0  0  0
   -6.0682   -0.3530    1.3163 C   0  0  0  0  0  0  0  0  0  0  0  0
    3.6505   -0.7327   -0.1949 C   0  0  0  0  0  0  0  0  0  0  0  0
   -5.6855    0.5690    3.4281 C   0  0  0  0  0  0  0  0  0  0  0  0
   -6.3246   -0.3919    2.6717 C   0  0  0  0  0  0  0  0  0  0  0  0
   -6.6739   -1.3035    0.4149 C   0  0  0  0  0  0  0  0  0  0  0  0
    4.5542    0.2701    0.1564 C   0  0  0  0  0  0  0  0  0  0  0  0
    4.0123   -2.0738   -0.0670 C   0  0  0  0  0  0  0  0  0  0  0  0
    5.8197   -0.0681    0.6358 C   0  0  0  0  0  0  0  0  0  0  0  0
    5.2779   -2.4120    0.4122 C   0  0  0  0  0  0  0  0  0  0  0  0
   -5.8705   -2.1484   -0.3509 C   0  0  0  0  0  0  0  0  0  0  0  0
   -8.0629   -1.3774    0.3094 C   0  0  0  0  0  0  0  0  0  0  0  0
    6.1815   -1.4092    0.7636 C   0  0  0  0  0  0  0  0  0  0  0  0
   -6.4560   -3.0672   -1.2219 C   0  0  0  0  0  0  0  0  0  0  0  0
   -8.6484   -2.2961   -0.5618 C   0  0  0  0  0  0  0  0  0  0  0  0
   -7.8449   -3.1409   -1.3273 C   0  0  0  0  0  0  0  0  0  0  0  0
    8.5034   -1.0493    0.7230 C   0  0  0  0  0  0  0  0  0  0  0  0
    8.6074   -0.8258   -0.6499 C   0  0  0  0  0  0  0  0  0  0  0  0
    9.4947   -0.5775    1.5834 C   0  0  0  0  0  0  0  0  0  0  0  0
    9.7025   -0.1303   -1.1623 C   0  0  0  0  0  0  0  0  0  0  0  0
   10.5898    0.1180    1.0709 C   0  0  0  0  0  0  0  0  0  0  0  0
   10.6938    0.3417   -0.3020 C   0  0  0  0  0  0  0  0  0  0  0  0
   -2.4226    0.5588   -0.1807 H   0  0  0  0  0  0  0  0  0  0  0  0
   -0.7232    2.1526    0.4744 H   0  0  0  0  0  0  0  0  0  0  0  0
   -4.4603    2.2775   -0.9940 H   0  0  0  0  0  0  0  0  0  0  0  0
    0.3861    2.7845   -1.9685 H   0  0  0  0  0  0  0  0  0  0  0  0
   -3.1527    4.0400   -1.8070 H   0  0  0  0  0  0  0  0  0  0  0  0
   -3.3578    4.6211   -0.1434 H   0  0  0  0  0  0  0  0  0  0  0  0
   -0.9223    0.9370   -3.5113 H   0  0  0  0  0  0  0  0  0  0  0  0
   -1.5594    2.5814   -3.3056 H   0  0  0  0  0  0  0  0  0  0  0  0
   -3.3762    3.0106    1.6498 H   0  0  0  0  0  0  0  0  0  0  0  0
    0.1106   -0.1151   -1.4671 H   0  0  0  0  0  0  0  0  0  0  0  0
    1.7654   -1.1743   -0.9179 H   0  0  0  0  0  0  0  0  0  0  0  0
   -5.8246    0.6168    4.5029 H   0  0  0  0  0  0  0  0  0  0  0  0
   -6.9775   -1.1234    3.1316 H   0  0  0  0  0  0  0  0  0  0  0  0
    4.3455    1.3285    0.0908 H   0  0  0  0  0  0  0  0  0  0  0  0
    3.3177   -2.8650   -0.3375 H   0  0  0  0  0  0  0  0  0  0  0  0
    6.4955    0.7328    0.9243 H   0  0  0  0  0  0  0  0  0  0  0  0
    5.5543   -3.4583    0.5094 H   0  0  0  0  0  0  0  0  0  0  0  0
   -4.7860   -2.1077   -0.2807 H   0  0  0  0  0  0  0  0  0  0  0  0
   -8.7075   -0.7243    0.8930 H   0  0  0  0  0  0  0  0  0  0  0  0
   -9.7297   -2.3528   -0.6451 H   0  0  0  0  0  0  0  0  0  0  0  0
   -8.3003   -3.8561   -2.0059 H   0  0  0  0  0  0  0  0  0  0  0  0
    7.8613   -1.2013   -1.3452 H   0  0  0  0  0  0  0  0  0  0  0  0
    9.4185   -0.7485    2.6537 H   0  0  0  0  0  0  0  0  0  0  0  0
    9.7863    0.0395   -2.2318 H   0  0  0  0  0  0  0  0  0  0  0  0
   11.3617    0.4853    1.7409 H   0  0  0  0  0  0  0  0  0  0  0  0
   11.5471    0.8821   -0.7011 H   0  0  0  0  0  0  0  0  0  0  0  0
  1 31  1  0  0  0  0
  2 12  1  0  0  0  0
  2 15  1  0  0  0  0
  3 11  1  0  0  0  0
  3 16  1  0  0  0  0
  4 18  2  0  0  0  0
  5 30  1  0  0  0  0
  5 34  1  0  0  0  0
  6 13  1  0  0  0  0
  6 17  1  0  0  0  0
  6 48  1  0  0  0  0
  7 14  1  0  0  0  0
  7 18  1  0  0  0  0
  7 49  1  0  0  0  0
  8 18  1  0  0  0  0
  8 20  1  0  0  0  0
  8 50  1  0  0  0  0
  9 17  1  0  0  0  0
  9 19  2  0  0  0  0
 10 17  2  0  0  0  0
 10 21  1  0  0  0  0
 11 12  1  0  0  0  0
 11 13  1  0  0  0  0
 11 40  1  0  0  0  0
 12 14  1  0  0  0  0
 12 41  1  0  0  0  0
 13 15  1  0  0  0  0
 13 42  1  0  0  0  0
 14 16  1  0  0  0  0
 14 43  1  0  0  0  0
 15 44  1  0  0  0  0
 15 45  1  0  0  0  0
 16 46  1  0  0  0  0
 16 47  1  0  0  0  0
 19 22  1  0  0  0  0
 19 23  1  0  0  0  0
 20 24  2  0  0  0  0
 20 25  1  0  0  0  0
 21 22  2  0  0  0  0
 21 51  1  0  0  0  0
 22 52  1  0  0  0  0
 23 28  2  0  0  0  0
 23 29  1  0  0  0  0
 24 26  1  0  0  0  0
 24 53  1  0  0  0  0
 25 27  2  0  0  0  0
 25 54  1  0  0  0  0
 26 30  2  0  0  0  0
 26 55  1  0  0  0  0
 27 30  1  0  0  0  0
 27 56  1  0  0  0  0
 28 31  1  0  0  0  0
 28 57  1  0  0  0  0
 29 32  2  0  0  0  0
 29 58  1  0  0  0  0
 31 33  2  0  0  0  0
 32 33  1  0  0  0  0
 32 59  1  0  0  0  0
 33 60  1  0  0  0  0
 34 35  2  0  0  0  0
 34 36  1  0  0  0  0
 35 37  1  0  0  0  0
 35 61  1  0  0  0  0
 36 38  2  0  0  0  0
 36 62  1  0  0  0  0
 37 39  2  0  0  0  0
 37 63  1  0  0  0  0
 38 39  1  0  0  0  0
 38 64  1  0  0  0  0
 39 65  1  0  0  0  0
M  END
> <PUBCHEM_COMPOUND_CID>
11941677

> <PUBCHEM_CONFORMER_RMSD>
1.4

> <PUBCHEM_CONFORMER_DIVERSEORDER>
1
33
43
71
22
9
94
64
77
37
56
11
19
89
76
41
85
20
57
3
54
63
47
34
74
73
55
95
46
39
23
75
62
21
66
82
87
25
90
26
49
24
42
84
79
58
67
60
61
88
28
65
31
52
7
36
15
81
44
5
16
92
35
17
93
13
45
83
48
53
18
69
32
14
29
78
80
8
10
27
86
59
12
91
30
70
68
51
40
50
38
6
4
2
72

> <PUBCHEM_MMFF94_PARTIAL_CHARGES>
56
1 -0.19
10 -0.62
11 0.28
12 0.28
13 0.37
14 0.3
15 0.28
16 0.28
17 0.72
18 0.69
19 0.31
2 -0.56
20 0.12
21 0.16
22 -0.15
24 -0.15
25 -0.15
26 -0.15
27 -0.15
28 -0.15
29 -0.15
3 -0.56
30 0.08
31 0.19
32 -0.15
33 -0.15
34 0.08
35 -0.15
36 -0.15
37 -0.15
38 -0.15
39 -0.15
4 -0.57
48 0.4
49 0.37
5 -0.17
50 0.37
51 0.15
52 0.15
53 0.15
54 0.15
55 0.15
56 0.15
57 0.15
58 0.15
59 0.15
6 -0.87
60 0.15
61 0.15
62 0.15
63 0.15
64 0.15
65 0.15
7 -0.73
8 -0.55
9 -0.62

> <PUBCHEM_EFFECTIVE_ROTOR_COUNT>
10.2

> <PUBCHEM_PHARMACOPHORE_FEATURES>
15
1 2 acceptor
1 3 acceptor
1 4 acceptor
1 5 acceptor
1 6 donor
1 7 donor
1 8 donor
1 9 acceptor
4 6 9 10 17 cation
5 2 11 12 13 15 rings
5 3 11 12 14 16 rings
6 20 24 25 26 27 30 rings
6 23 28 29 31 32 33 rings
6 34 35 36 37 38 39 rings
6 9 10 17 19 21 22 rings

> <PUBCHEM_HEAVY_ATOM_COUNT>
39

> <PUBCHEM_ATOM_DEF_STEREO_COUNT>
4

> <PUBCHEM_ATOM_UDEF_STEREO_COUNT>
0

> <PUBCHEM_BOND_DEF_STEREO_COUNT>
0

> <PUBCHEM_BOND_UDEF_STEREO_COUNT>
0

> <PUBCHEM_ISOTOPIC_ATOM_COUNT>
0

> <PUBCHEM_COMPONENT_COUNT>
1

> <PUBCHEM_CACTVS_TAUTO_COUNT>
9

> <PUBCHEM_CONFORMER_ID>
00B6372D00000001

> <PUBCHEM_MMFF94_ENERGY>
128.6781

> <PUBCHEM_FEATURE_SELFOVERLAP>
76.883

> <PUBCHEM_SHAPE_FINGERPRINT>
10049733 35 17749103392420591709
10100884 174 18334572481591993827
10162869 55 16370729228416014862
10190206 1 14418122999162401301
10674148 151 11241969299949737502
10920273 25 9511468848936755031
10952577 141 11891594821111595215
11211813 128 18335423440158685066
11273773 42 9151177545915660547
11410812 94 12612749129622066262
11478447 62 18260537948741592727
11621639 183 16055772949480720465
12013929 29 11383245566663055122
12120059 9 14635136895345648952
12173638 108 18189621721278040204
12218070 45 18130790088112441927
13383668 251 18271515499045996880
15064981 113 12035739656987116160
15160630 1 14979677650442045724
18603816 31 18261107445089778101
19302320 297 14405181794479702274
19303781 99 17894638093047119651
19304152 47 15554173562998501441
20105231 36 18201443546257408382
21095123 145 18410577276035429228
21792965 184 17987799742843469094
23389318 12 17313392236328142670
395649 100 16298383539611873389
3986486 107 15936396859414745839
4173938 306 13479136817999639552
42767 23 14634868669451762896
4339292 15 17603578630575206132
4403749 210 18263077717274243860
44575985 377 17845925333995916142
57303763 176 8430055165590239534
6712543 237 17988092089094074243
9511036 111 18339078293665435647
9962374 69 18260828233049252724

> <PUBCHEM_SHAPE_MULTIPOLES>
746.95
36.93
3.85
2.35
70.48
0.57
1.19
-26.44
9.1
-8.78
-1.96
-4.75
0.45
-3.94

> <PUBCHEM_SHAPE_SELFOVERLAP>
1651.152

> <PUBCHEM_SHAPE_VOLUME>
400.1

> <PUBCHEM_COORDINATE_TYPE>
2
5
10

$$$$
