45783700
  -OEChem-12032416263D

 47 49  0     1  0  0  0  0  0999 V2000
   -0.4604   -2.6127    0.8112 O   0  0  0  0  0  0  0  0  0  0  0  0
    5.8558    1.3841   -0.4748 O   0  0  0  0  0  0  0  0  0  0  0  0
   -3.1185   -0.1878   -0.1518 N   0  0  1  0  0  0  0  0  0  0  0  0
   -0.2117   -0.5102    0.0800 N   0  0  0  0  0  0  0  0  0  0  0  0
    0.9198   -2.3806    0.7547 N   0  0  0  0  0  0  0  0  0  0  0  0
    4.6480   -0.4923    0.1615 N   0  0  0  0  0  0  0  0  0  0  0  0
   -2.5667   -1.4546    0.3687 C   0  0  1  0  0  0  0  0  0  0  0  0
   -3.1489   -2.5426   -0.5524 C   0  0  0  0  0  0  0  0  0  0  0  0
   -4.3980   -0.5208   -0.7784 C   0  0  0  0  0  0  0  0  0  0  0  0
   -3.2602    0.8404    0.8711 C   0  0  0  0  0  0  0  0  0  0  0  0
   -4.0613   -1.7998   -1.5181 C   0  0  0  0  0  0  0  0  0  0  0  0
   -3.2802    2.2871    0.3147 C   0  0  0  0  0  0  0  0  0  0  0  0
   -1.0527   -1.4619    0.3975 C   0  0  0  0  0  0  0  0  0  0  0  0
   -3.3813    3.3123    1.4579 C   0  0  0  0  0  0  0  0  0  0  0  0
   -2.0213    2.5815   -0.5200 C   0  0  0  0  0  0  0  0  0  0  0  0
   -4.5158    2.4386   -0.5931 C   0  0  0  0  0  0  0  0  0  0  0  0
    0.9859   -1.1204    0.3152 C   0  0  0  0  0  0  0  0  0  0  0  0
    2.2317   -0.4430    0.0993 C   0  0  0  0  0  0  0  0  0  0  0  0
    2.2630    0.8690   -0.3606 C   0  0  0  0  0  0  0  0  0  0  0  0
    3.4410   -1.0736    0.3431 C   0  0  0  0  0  0  0  0  0  0  0  0
    3.4855    1.5010   -0.5598 C   0  0  0  0  0  0  0  0  0  0  0  0
    4.6387    0.7833   -0.2865 C   0  0  0  0  0  0  0  0  0  0  0  0
    7.0076    0.6029   -0.1791 C   0  0  0  0  0  0  0  0  0  0  0  0
   -2.9284   -1.6440    1.3892 H   0  0  0  0  0  0  0  0  0  0  0  0
   -2.3931   -3.1156   -1.1003 H   0  0  0  0  0  0  0  0  0  0  0  0
   -3.7414   -3.2491    0.0417 H   0  0  0  0  0  0  0  0  0  0  0  0
   -4.7697    0.1843   -1.5167 H   0  0  0  0  0  0  0  0  0  0  0  0
   -5.1842   -0.7142   -0.0375 H   0  0  0  0  0  0  0  0  0  0  0  0
   -2.4009    0.7865    1.5545 H   0  0  0  0  0  0  0  0  0  0  0  0
   -4.1404    0.6567    1.5027 H   0  0  0  0  0  0  0  0  0  0  0  0
   -4.9506   -2.3829   -1.7754 H   0  0  0  0  0  0  0  0  0  0  0  0
   -3.5189   -1.5767   -2.4455 H   0  0  0  0  0  0  0  0  0  0  0  0
   -4.2919    3.1554    2.0468 H   0  0  0  0  0  0  0  0  0  0  0  0
   -2.5256    3.2264    2.1368 H   0  0  0  0  0  0  0  0  0  0  0  0
   -3.4012    4.3392    1.0762 H   0  0  0  0  0  0  0  0  0  0  0  0
   -1.9306    1.9118   -1.3820 H   0  0  0  0  0  0  0  0  0  0  0  0
   -2.0369    3.6077   -0.9049 H   0  0  0  0  0  0  0  0  0  0  0  0
   -1.1161    2.4690    0.0871 H   0  0  0  0  0  0  0  0  0  0  0  0
   -5.4085    1.9665   -0.1700 H   0  0  0  0  0  0  0  0  0  0  0  0
   -4.7628    3.5022   -0.7113 H   0  0  0  0  0  0  0  0  0  0  0  0
   -4.3344    2.0889   -1.6128 H   0  0  0  0  0  0  0  0  0  0  0  0
    1.3519    1.4226   -0.5720 H   0  0  0  0  0  0  0  0  0  0  0  0
    3.5037   -2.0962    0.7034 H   0  0  0  0  0  0  0  0  0  0  0  0
    3.5272    2.5238   -0.9181 H   0  0  0  0  0  0  0  0  0  0  0  0
    7.0274    0.3166    0.8778 H   0  0  0  0  0  0  0  0  0  0  0  0
    7.0591   -0.2808   -0.8240 H   0  0  0  0  0  0  0  0  0  0  0  0
    7.8909    1.2171   -0.3783 H   0  0  0  0  0  0  0  0  0  0  0  0
  1  5  1  0  0  0  0
  1 13  1  0  0  0  0
  2 22  1  0  0  0  0
  2 23  1  0  0  0  0
  3  7  1  0  0  0  0
  3  9  1  0  0  0  0
  3 10  1  0  0  0  0
  4 13  2  0  0  0  0
  4 17  1  0  0  0  0
  5 17  2  0  0  0  0
  6 20  1  0  0  0  0
  6 22  2  0  0  0  0
  7  8  1  0  0  0  0
  7 13  1  0  0  0  0
  7 24  1  0  0  0  0
  8 11  1  0  0  0  0
  8 25  1  0  0  0  0
  8 26  1  0  0  0  0
  9 11  1  0  0  0  0
  9 27  1  0  0  0  0
  9 28  1  0  0  0  0
 10 12  1  0  0  0  0
 10 29  1  0  0  0  0
 10 30  1  0  0  0  0
 11 31  1  0  0  0  0
 11 32  1  0  0  0  0
 12 14  1  0  0  0  0
 12 15  1  0  0  0  0
 12 16  1  0  0  0  0
 14 33  1  0  0  0  0
 14 34  1  0  0  0  0
 14 35  1  0  0  0  0
 15 36  1  0  0  0  0
 15 37  1  0  0  0  0
 15 38  1  0  0  0  0
 16 39  1  0  0  0  0
 16 40  1  0  0  0  0
 16 41  1  0  0  0  0
 17 18  1  0  0  0  0
 18 19  1  0  0  0  0
 18 20  2  0  0  0  0
 19 21  2  0  0  0  0
 19 42  1  0  0  0  0
 20 43  1  0  0  0  0
 21 22  1  0  0  0  0
 21 44  1  0  0  0  0
 23 45  1  0  0  0  0
 23 46  1  0  0  0  0
 23 47  1  0  0  0  0
M  END
> <PUBCHEM_COMPOUND_CID>
45783700

> <PUBCHEM_CONFORMER_RMSD>
0.8

> <PUBCHEM_CONFORMER_DIVERSEORDER>
8
28
21
12
26
9
25
11
16
29
18
31
30
2
6
17
15
23
20
27
7
5
32
4
22
19
1
24
14
3
10
13

> <PUBCHEM_MMFF94_PARTIAL_CHARGES>
20
1 -0.02
10 0.27
13 0.3
17 0.46
18 0.05
19 -0.15
2 -0.36
20 0.16
21 -0.15
22 0.39
23 0.28
3 -0.81
4 -0.57
42 0.15
43 0.15
44 0.15
5 -0.41
6 -0.62
7 0.45
9 0.27

> <PUBCHEM_EFFECTIVE_ROTOR_COUNT>
6

> <PUBCHEM_PHARMACOPHORE_FEATURES>
6
1 3 cation
3 4 5 17 cation
4 12 14 15 16 hydrophobe
5 1 4 5 13 17 rings
5 3 7 8 9 11 rings
6 6 18 19 20 21 22 rings

> <PUBCHEM_HEAVY_ATOM_COUNT>
23

> <PUBCHEM_ATOM_DEF_STEREO_COUNT>
1

> <PUBCHEM_ATOM_UDEF_STEREO_COUNT>
0

> <PUBCHEM_BOND_DEF_STEREO_COUNT>
0

> <PUBCHEM_BOND_UDEF_STEREO_COUNT>
0

> <PUBCHEM_ISOTOPIC_ATOM_COUNT>
0

> <PUBCHEM_COMPONENT_COUNT>
1

> <PUBCHEM_CACTVS_TAUTO_COUNT>
1

> <PUBCHEM_CONFORMER_ID>
02BA9A9400000008

> <PUBCHEM_MMFF94_ENERGY>
56.267

> <PUBCHEM_FEATURE_SELFOVERLAP>
30.447

> <PUBCHEM_SHAPE_FINGERPRINT>
10087517 78 18409727396159727996
10291535 26 18335988665574095387
10411042 1 17832991924663216683
10670039 82 18409163333672237104
10871710 139 18409727357641750229
12107183 9 17977097968858558186
12166972 35 17532651445679623919
12390115 104 18339094700044334768
12403260 363 18337383941777173582
12788726 201 18271511036817471583
12838862 33 18263628624546036045
14251751 93 18272368659374612573
14251764 38 18411986900923254804
14251764 75 17910121213842635489
14739800 52 18194661861157513696
14765038 42 18199767854874549912
14767858 380 18198039436661775229
14931854 50 18340758265843811765
15183329 4 18260265249115810062
15196674 1 18335984186054944040
15348495 7 11819274494948296390
15420108 30 16614212469976210986
16994733 274 16082465832339668959
1813 80 12894803596009710314
19489759 90 18271526489624200514
20300324 65 18343299301470994071
20775438 99 16327342803641624559
21033650 10 18127437651267709828
21236236 1 18410573994068686844
21279426 13 18339933610996023262
21421566 26 17631154459604172799
21864079 5 18334860472202163267
221357 26 18201435925676831457
23227448 37 18411139104638487053
23402539 116 18339077198189714910
235170 7 17060347330975232388
23557571 272 18059860575222816661
23559900 14 18196646522094233072
25147074 1 18262224539591081330
283562 15 18408885174637626307
397830 11 12108079937419896156
441001 317 18411701006366660880
445580 125 18270975526834773016
474 4 18115025199871521795
5048184 11 18338238137710970465
5104073 3 18259701190786247810
5283173 99 18272653454899412056
531348 171 18202005413040632358
5364581 5 11242548794592022078
6299153 45 18188482464101689746
6327066 14 18264485088401166389
6328613 192 17969230096200938812
636775 72 18267585900792944080
7288768 16 17749116547921171931
7808743 9 18340206297615285889
9981440 41 18261111880767920795

> <PUBCHEM_SHAPE_MULTIPOLES>
441.67
12.96
3.45
1.01
19.08
1.02
0
5.58
-2.57
-4.79
0.45
-0.92
0.07
-1.7

> <PUBCHEM_SHAPE_SELFOVERLAP>
931.588

> <PUBCHEM_SHAPE_VOLUME>
251.9

> <PUBCHEM_COORDINATE_TYPE>
2
5
10

$$$$
