7663757
  -OEChem-12032416213D

 57 61  0     1  0  0  0  0  0999 V2000
    8.9020    0.5442   -0.8107 Cl  0  0  0  0  0  0  0  0  0  0  0  0
    0.5095   -2.6584   -1.3401 O   0  0  0  0  0  0  0  0  0  0  0  0
   -3.3776    0.5059   -2.6043 O   0  0  0  0  0  0  0  0  0  0  0  0
   -3.8848   -0.4512   -0.5303 N   0  0  0  0  0  0  0  0  0  0  0  0
   -1.2840   -2.1669    0.0653 N   0  0  0  0  0  0  0  0  0  0  0  0
   -3.6769   -2.9298   -0.4437 C   0  0  1  0  0  0  0  0  0  0  0  0
   -3.2195   -1.5931    1.5719 C   0  0  2  0  0  0  0  0  0  0  0  0
   -3.8617   -2.8851    1.0691 C   0  0  0  0  0  0  0  0  0  0  0  0
   -4.3515   -1.7133   -1.1037 C   0  0  0  0  0  0  0  0  0  0  0  0
   -2.1766   -2.9979   -0.7559 C   0  0  0  0  0  0  0  0  0  0  0  0
   -3.9329   -0.3814    0.9391 C   0  0  0  0  0  0  0  0  0  0  0  0
   -1.7417   -1.5504    1.2322 C   0  0  0  0  0  0  0  0  0  0  0  0
   -0.8831   -0.8930    2.0275 C   0  0  0  0  0  0  0  0  0  0  0  0
    0.0686   -2.1103   -0.3280 C   0  0  0  0  0  0  0  0  0  0  0  0
   -3.4202    0.5584   -1.3765 C   0  0  0  0  0  0  0  0  0  0  0  0
    1.0015   -1.3399    0.5677 C   0  0  0  0  0  0  0  0  0  0  0  0
    0.5064   -0.7886    1.6845 C   0  0  0  0  0  0  0  0  0  0  0  0
   -2.9165    1.7916   -0.7628 C   0  0  0  0  0  0  0  0  0  0  0  0
    2.3953   -1.2186    0.2211 C   0  0  0  0  0  0  0  0  0  0  0  0
   -1.5687    1.8998   -0.4296 C   0  0  0  0  0  0  0  0  0  0  0  0
   -3.7886    2.8494   -0.5176 C   0  0  0  0  0  0  0  0  0  0  0  0
    3.1390   -0.1582    0.5599 C   0  0  0  0  0  0  0  0  0  0  0  0
   -1.0898    3.0735    0.1524 C   0  0  0  0  0  0  0  0  0  0  0  0
   -3.3095    4.0230    0.0644 C   0  0  0  0  0  0  0  0  0  0  0  0
   -1.9602    4.1351    0.3995 C   0  0  0  0  0  0  0  0  0  0  0  0
    4.5623    0.0152    0.2209 C   0  0  0  0  0  0  0  0  0  0  0  0
   -1.4477    5.3893    1.0228 C   0  0  0  0  0  0  0  0  0  0  0  0
    5.3202   -1.0949   -0.1150 C   0  0  0  0  0  0  0  0  0  0  0  0
    5.1158    1.2853    0.2451 C   0  0  0  0  0  0  0  0  0  0  0  0
    6.6679   -0.9307   -0.4352 C   0  0  0  0  0  0  0  0  0  0  0  0
    6.4635    1.4495   -0.0752 C   0  0  0  0  0  0  0  0  0  0  0  0
    7.2394    0.3415   -0.4152 C   0  0  0  0  0  0  0  0  0  0  0  0
   -4.1541   -3.8318   -0.8461 H   0  0  0  0  0  0  0  0  0  0  0  0
   -3.3526   -1.5450    2.6604 H   0  0  0  0  0  0  0  0  0  0  0  0
   -3.3979   -3.7601    1.5414 H   0  0  0  0  0  0  0  0  0  0  0  0
   -4.9278   -2.9085    1.3256 H   0  0  0  0  0  0  0  0  0  0  0  0
   -5.4354   -1.7541   -0.9405 H   0  0  0  0  0  0  0  0  0  0  0  0
   -4.1882   -1.7312   -2.1865 H   0  0  0  0  0  0  0  0  0  0  0  0
   -1.8346   -4.0315   -0.6085 H   0  0  0  0  0  0  0  0  0  0  0  0
   -1.9943   -2.7683   -1.8133 H   0  0  0  0  0  0  0  0  0  0  0  0
   -4.9931   -0.3806    1.2210 H   0  0  0  0  0  0  0  0  0  0  0  0
   -3.5055    0.5508    1.3164 H   0  0  0  0  0  0  0  0  0  0  0  0
   -1.2146   -0.3953    2.9328 H   0  0  0  0  0  0  0  0  0  0  0  0
    1.1184   -0.2414    2.3948 H   0  0  0  0  0  0  0  0  0  0  0  0
    2.8029   -2.0416   -0.3568 H   0  0  0  0  0  0  0  0  0  0  0  0
   -0.8806    1.0833   -0.6285 H   0  0  0  0  0  0  0  0  0  0  0  0
   -4.8415    2.7718   -0.7752 H   0  0  0  0  0  0  0  0  0  0  0  0
    2.7020    0.6806    1.0974 H   0  0  0  0  0  0  0  0  0  0  0  0
   -0.0356    3.1493    0.4057 H   0  0  0  0  0  0  0  0  0  0  0  0
   -3.9973    4.8437    0.2504 H   0  0  0  0  0  0  0  0  0  0  0  0
   -2.2236    5.8792    1.6211 H   0  0  0  0  0  0  0  0  0  0  0  0
   -0.6084    5.1817    1.6953 H   0  0  0  0  0  0  0  0  0  0  0  0
   -1.1121    6.0845    0.2469 H   0  0  0  0  0  0  0  0  0  0  0  0
    4.9250   -2.1056   -0.1216 H   0  0  0  0  0  0  0  0  0  0  0  0
    4.5243    2.1587    0.5066 H   0  0  0  0  0  0  0  0  0  0  0  0
    7.2623   -1.8034   -0.6937 H   0  0  0  0  0  0  0  0  0  0  0  0
    6.8954    2.4468   -0.0560 H   0  0  0  0  0  0  0  0  0  0  0  0
  1 32  1  0  0  0  0
  2 14  2  0  0  0  0
  3 15  2  0  0  0  0
  4  9  1  0  0  0  0
  4 11  1  0  0  0  0
  4 15  1  0  0  0  0
  5 10  1  0  0  0  0
  5 12  1  0  0  0  0
  5 14  1  0  0  0  0
  6  8  1  0  0  0  0
  6  9  1  0  0  0  0
  6 10  1  0  0  0  0
  6 33  1  0  0  0  0
  7  8  1  0  0  0  0
  7 11  1  0  0  0  0
  7 12  1  0  0  0  0
  7 34  1  0  0  0  0
  8 35  1  0  0  0  0
  8 36  1  0  0  0  0
  9 37  1  0  0  0  0
  9 38  1  0  0  0  0
 10 39  1  0  0  0  0
 10 40  1  0  0  0  0
 11 41  1  0  0  0  0
 11 42  1  0  0  0  0
 12 13  2  0  0  0  0
 13 17  1  0  0  0  0
 13 43  1  0  0  0  0
 14 16  1  0  0  0  0
 15 18  1  0  0  0  0
 16 17  2  0  0  0  0
 16 19  1  0  0  0  0
 17 44  1  0  0  0  0
 18 20  2  0  0  0  0
 18 21  1  0  0  0  0
 19 22  2  0  0  0  0
 19 45  1  0  0  0  0
 20 23  1  0  0  0  0
 20 46  1  0  0  0  0
 21 24  2  0  0  0  0
 21 47  1  0  0  0  0
 22 26  1  0  0  0  0
 22 48  1  0  0  0  0
 23 25  2  0  0  0  0
 23 49  1  0  0  0  0
 24 25  1  0  0  0  0
 24 50  1  0  0  0  0
 25 27  1  0  0  0  0
 26 28  2  0  0  0  0
 26 29  1  0  0  0  0
 27 51  1  0  0  0  0
 27 52  1  0  0  0  0
 27 53  1  0  0  0  0
 28 30  1  0  0  0  0
 28 54  1  0  0  0  0
 29 31  2  0  0  0  0
 29 55  1  0  0  0  0
 30 32  2  0  0  0  0
 30 56  1  0  0  0  0
 31 32  1  0  0  0  0
 31 57  1  0  0  0  0
M  END
> <PUBCHEM_COMPOUND_CID>
7663757

> <PUBCHEM_CONFORMER_RMSD>
0.8

> <PUBCHEM_CONFORMER_DIVERSEORDER>
1
7
5
4
6
3
2

> <PUBCHEM_MMFF94_PARTIAL_CHARGES>
42
1 -0.18
10 0.3
11 0.3
12 -0.03
13 -0.15
14 0.62
15 0.54
16 0.01
17 -0.15
18 0.09
19 -0.15
2 -0.57
20 -0.15
21 -0.15
22 -0.18
23 -0.15
24 -0.15
25 -0.14
26 0.03
27 0.14
28 -0.15
29 -0.15
3 -0.57
30 -0.15
31 -0.15
32 0.18
4 -0.66
43 0.15
44 0.15
45 0.15
46 0.15
47 0.15
48 0.15
49 0.15
5 -0.47
50 0.15
54 0.15
55 0.15
56 0.15
57 0.15
7 0.14
9 0.3

> <PUBCHEM_EFFECTIVE_ROTOR_COUNT>
5

> <PUBCHEM_PHARMACOPHORE_FEATURES>
7
1 2 acceptor
1 3 acceptor
6 18 20 21 23 24 25 rings
6 26 28 29 30 31 32 rings
6 4 6 7 8 9 11 rings
6 5 12 13 14 16 17 rings
6 5 6 7 8 10 12 rings

> <PUBCHEM_HEAVY_ATOM_COUNT>
32

> <PUBCHEM_ATOM_DEF_STEREO_COUNT>
2

> <PUBCHEM_ATOM_UDEF_STEREO_COUNT>
0

> <PUBCHEM_BOND_DEF_STEREO_COUNT>
1

> <PUBCHEM_BOND_UDEF_STEREO_COUNT>
0

> <PUBCHEM_ISOTOPIC_ATOM_COUNT>
0

> <PUBCHEM_COMPONENT_COUNT>
1

> <PUBCHEM_CACTVS_TAUTO_COUNT>
1

> <PUBCHEM_CONFORMER_ID>
0074F08D00000001

> <PUBCHEM_MMFF94_ENERGY>
94.2024

> <PUBCHEM_FEATURE_SELFOVERLAP>
37.104

> <PUBCHEM_SHAPE_FINGERPRINT>
100830 39 18410576172250147524
10165383 225 18059583464698036651
10291535 26 18408326566310000579
10454371 7 18408610258265718388
10670039 82 18408600366786846920
10937287 8 17834390121190706009
11434127 23 18410572885988698334
11477941 20 18271232932561731748
11524674 6 9511193931805061809
11578080 2 18198916815784121071
12107698 1 18261675978120563812
12788726 201 18334286600247284890
14347329 18 18340198588692120440
14713325 29 18410859837016744099
15183329 4 18413387657826512206
15297060 5 18271527498530442008
15439362 3 17835806288156826036
15876981 60 18188494695488372191
17093844 170 7961945219119429683
19611394 137 17972046009398365267
19958102 18 18060144245640537758
20609170 92 18130799906971715726
21033650 10 18189921784873128838
21236236 1 18334859407403623552
21859007 373 18201422676800002288
22956985 138 16598744020347737779
354706 132 18262803956850581564
3610482 184 18189348891932994644
397830 11 8213843849183058614
437795 83 18410017659093324036
445580 37 18261120686373458604
4616759 239 17314225743472696040
469060 322 16009328521613598825
5171179 24 18129651044893712025
531348 171 18412261701668694698
550186 7 18272086063591000516
57527358 35 15866575534208614369
57527452 28 16630241515732599839
57527585 21 18054484956033571213
57676310 82 17556599647222628169
7288768 16 17897453783296350873
9980921 221 18266480758430803900

> <PUBCHEM_SHAPE_MULTIPOLES>
638.71
15.91
5.29
1.49
47.37
7.04
-0.04
1.24
-4.36
-8.63
0.7
-1.55
-0.4
0.29

> <PUBCHEM_SHAPE_SELFOVERLAP>
1396.652

> <PUBCHEM_SHAPE_VOLUME>
344.2

> <PUBCHEM_COORDINATE_TYPE>
2
5
10

$$$$
