40586229
  -OEChem-12032416283D

 57 60  0     1  0  0  0  0  0999 V2000
    0.7015    1.0179    0.9497 O   0  0  0  0  0  0  0  0  0  0  0  0
    0.3753    3.5160   -0.7987 O   0  0  0  0  0  0  0  0  0  0  0  0
    3.1336    1.2719   -0.3644 O   0  0  0  0  0  0  0  0  0  0  0  0
    3.3519   -0.2503   -2.0702 O   0  0  0  0  0  0  0  0  0  0  0  0
   -3.9016    2.1964    1.5548 O   0  0  0  0  0  0  0  0  0  0  0  0
   -7.1648   -2.8709   -0.3734 O   0  0  0  0  0  0  0  0  0  0  0  0
   -2.3194    1.2237    0.1657 N   0  0  0  0  0  0  0  0  0  0  0  0
    4.8602   -0.1917   -0.3082 N   0  0  0  0  0  0  0  0  0  0  0  0
   -0.3284    2.2563   -0.7907 C   0  0  1  0  0  0  0  0  0  0  0  0
    0.6952    1.1833   -0.4782 C   0  0  1  0  0  0  0  0  0  0  0  0
   -1.2805    2.2012    0.3812 C   0  0  2  0  0  0  0  0  0  0  0  0
    1.9793    1.8026   -0.9753 C   0  0  1  0  0  0  0  0  0  0  0  0
   -0.3643    1.7918    1.5215 C   0  0  0  0  0  0  0  0  0  0  0  0
    1.7793    3.2637   -0.6413 C   0  0  0  0  0  0  0  0  0  0  0  0
    5.7201   -1.2740   -0.7330 C   0  0  0  0  0  0  0  0  0  0  0  0
    7.1694   -1.0282   -0.3001 C   0  0  0  0  0  0  0  0  0  0  0  0
    5.2065   -2.6216   -0.2149 C   0  0  0  0  0  0  0  0  0  0  0  0
    7.3656   -1.1926    1.2070 C   0  0  0  0  0  0  0  0  0  0  0  0
    5.4059   -2.7832    1.2922 C   0  0  0  0  0  0  0  0  0  0  0  0
    6.8573   -2.5451    1.6968 C   0  0  0  0  0  0  0  0  0  0  0  0
    3.7511    0.2266   -1.0129 C   0  0  0  0  0  0  0  0  0  0  0  0
   -3.5609    1.3060    0.7805 C   0  0  0  0  0  0  0  0  0  0  0  0
   -4.5120    0.2064    0.4753 C   0  0  0  0  0  0  0  0  0  0  0  0
   -5.4998   -0.1373    1.3983 C   0  0  0  0  0  0  0  0  0  0  0  0
   -4.4160   -0.4837   -0.7330 C   0  0  0  0  0  0  0  0  0  0  0  0
   -6.3916   -1.1712    1.1128 C   0  0  0  0  0  0  0  0  0  0  0  0
   -5.3076   -1.5177   -1.0184 C   0  0  0  0  0  0  0  0  0  0  0  0
   -6.2955   -1.8614   -0.0957 C   0  0  0  0  0  0  0  0  0  0  0  0
   -7.0100   -3.5345   -1.6273 C   0  0  0  0  0  0  0  0  0  0  0  0
   -0.8018    2.1335   -1.7700 H   0  0  0  0  0  0  0  0  0  0  0  0
    0.4749    0.2095   -0.9248 H   0  0  0  0  0  0  0  0  0  0  0  0
   -1.7460    3.1688    0.5972 H   0  0  0  0  0  0  0  0  0  0  0  0
    2.0232    1.7215   -2.0703 H   0  0  0  0  0  0  0  0  0  0  0  0
    0.0916    2.6703    1.9912 H   0  0  0  0  0  0  0  0  0  0  0  0
   -0.8598    1.2042    2.3004 H   0  0  0  0  0  0  0  0  0  0  0  0
    2.0676    3.4983    0.3895 H   0  0  0  0  0  0  0  0  0  0  0  0
    2.3475    3.9238   -1.3037 H   0  0  0  0  0  0  0  0  0  0  0  0
   -2.0738    0.4020   -0.3767 H   0  0  0  0  0  0  0  0  0  0  0  0
    5.6897   -1.2979   -1.8295 H   0  0  0  0  0  0  0  0  0  0  0  0
    7.4916   -0.0240   -0.6009 H   0  0  0  0  0  0  0  0  0  0  0  0
    7.8224   -1.7408   -0.8201 H   0  0  0  0  0  0  0  0  0  0  0  0
    5.7446   -3.4285   -0.7289 H   0  0  0  0  0  0  0  0  0  0  0  0
    4.1441   -2.7472   -0.4554 H   0  0  0  0  0  0  0  0  0  0  0  0
    6.8478   -0.3894    1.7442 H   0  0  0  0  0  0  0  0  0  0  0  0
    8.4303   -1.0941    1.4482 H   0  0  0  0  0  0  0  0  0  0  0  0
    5.1010   -3.7912    1.5957 H   0  0  0  0  0  0  0  0  0  0  0  0
    4.7562   -2.0811    1.8287 H   0  0  0  0  0  0  0  0  0  0  0  0
    7.4863   -3.3423    1.2815 H   0  0  0  0  0  0  0  0  0  0  0  0
    6.9505   -2.6015    2.7872 H   0  0  0  0  0  0  0  0  0  0  0  0
    5.0492    0.2643    0.5790 H   0  0  0  0  0  0  0  0  0  0  0  0
   -5.5877    0.3850    2.3473 H   0  0  0  0  0  0  0  0  0  0  0  0
   -3.6811   -0.2270   -1.4904 H   0  0  0  0  0  0  0  0  0  0  0  0
   -7.1582   -1.4356    1.8360 H   0  0  0  0  0  0  0  0  0  0  0  0
   -5.1812   -2.0077   -1.9778 H   0  0  0  0  0  0  0  0  0  0  0  0
   -7.7827   -4.3083   -1.6809 H   0  0  0  0  0  0  0  0  0  0  0  0
   -6.0426   -4.0434   -1.6965 H   0  0  0  0  0  0  0  0  0  0  0  0
   -7.1816   -2.8527   -2.4671 H   0  0  0  0  0  0  0  0  0  0  0  0
  1 10  1  0  0  0  0
  1 13  1  0  0  0  0
  2  9  1  0  0  0  0
  2 14  1  0  0  0  0
  3 12  1  0  0  0  0
  3 21  1  0  0  0  0
  4 21  2  0  0  0  0
  5 22  2  0  0  0  0
  6 28  1  0  0  0  0
  6 29  1  0  0  0  0
  7 11  1  0  0  0  0
  7 22  1  0  0  0  0
  7 38  1  0  0  0  0
  8 15  1  0  0  0  0
  8 21  1  0  0  0  0
  8 50  1  0  0  0  0
  9 10  1  0  0  0  0
  9 11  1  0  0  0  0
  9 30  1  0  0  0  0
 10 12  1  0  0  0  0
 10 31  1  0  0  0  0
 11 13  1  0  0  0  0
 11 32  1  0  0  0  0
 12 14  1  0  0  0  0
 12 33  1  0  0  0  0
 13 34  1  0  0  0  0
 13 35  1  0  0  0  0
 14 36  1  0  0  0  0
 14 37  1  0  0  0  0
 15 16  1  0  0  0  0
 15 17  1  0  0  0  0
 15 39  1  0  0  0  0
 16 18  1  0  0  0  0
 16 40  1  0  0  0  0
 16 41  1  0  0  0  0
 17 19  1  0  0  0  0
 17 42  1  0  0  0  0
 17 43  1  0  0  0  0
 18 20  1  0  0  0  0
 18 44  1  0  0  0  0
 18 45  1  0  0  0  0
 19 20  1  0  0  0  0
 19 46  1  0  0  0  0
 19 47  1  0  0  0  0
 20 48  1  0  0  0  0
 20 49  1  0  0  0  0
 22 23  1  0  0  0  0
 23 24  2  0  0  0  0
 23 25  1  0  0  0  0
 24 26  1  0  0  0  0
 24 51  1  0  0  0  0
 25 27  2  0  0  0  0
 25 52  1  0  0  0  0
 26 28  2  0  0  0  0
 26 53  1  0  0  0  0
 27 28  1  0  0  0  0
 27 54  1  0  0  0  0
 29 55  1  0  0  0  0
 29 56  1  0  0  0  0
 29 57  1  0  0  0  0
M  END
> <PUBCHEM_COMPOUND_CID>
40586229

> <PUBCHEM_CONFORMER_RMSD>
1

> <PUBCHEM_CONFORMER_DIVERSEORDER>
1
40
43
33
19
45
67
3
74
70
49
7
5
47
69
44
28
58
16
63
9
62
54
73
25
75
14
50
35
36
55
32
24
30
77
65
18
48
31
12
20
21
11
42
51
61
13
22
39
29
76
8
37
4
27
64
68
15
71
66
10
26
56
53
23
72
34
59
38
6
60
52
17
57
2
46
41

> <PUBCHEM_MMFF94_PARTIAL_CHARGES>
30
1 -0.56
10 0.28
11 0.3
12 0.28
13 0.28
14 0.28
15 0.3
2 -0.56
21 0.78
22 0.54
23 0.09
24 -0.15
25 -0.15
26 -0.15
27 -0.15
28 0.08
29 0.28
3 -0.43
38 0.37
4 -0.57
5 -0.57
50 0.37
51 0.15
52 0.15
53 0.15
54 0.15
6 -0.36
7 -0.73
8 -0.73
9 0.28

> <PUBCHEM_EFFECTIVE_ROTOR_COUNT>
10.4

> <PUBCHEM_PHARMACOPHORE_FEATURES>
11
1 1 acceptor
1 2 acceptor
1 4 acceptor
1 5 acceptor
1 6 acceptor
1 7 donor
1 8 donor
5 1 9 10 11 13 rings
5 2 9 10 12 14 rings
6 15 16 17 18 19 20 rings
6 23 24 25 26 27 28 rings

> <PUBCHEM_HEAVY_ATOM_COUNT>
29

> <PUBCHEM_ATOM_DEF_STEREO_COUNT>
4

> <PUBCHEM_ATOM_UDEF_STEREO_COUNT>
0

> <PUBCHEM_BOND_DEF_STEREO_COUNT>
0

> <PUBCHEM_BOND_UDEF_STEREO_COUNT>
0

> <PUBCHEM_ISOTOPIC_ATOM_COUNT>
0

> <PUBCHEM_COMPONENT_COUNT>
1

> <PUBCHEM_CACTVS_TAUTO_COUNT>
4

> <PUBCHEM_CONFORMER_ID>
026B4BF500000001

> <PUBCHEM_MMFF94_ENERGY>
73.3641

> <PUBCHEM_FEATURE_SELFOVERLAP>
56.54

> <PUBCHEM_SHAPE_FINGERPRINT>
10254770 206 17988072405159484167
10258705 36 17841157650469577158
10622 236 18409731759619309597
10693767 8 18260824938265900939
10939801 23 18200874101864750054
11088757 655 18201432592787562674
11410812 94 15357967908013880806
11475781 23 12252192887749296766
11497681 19 18337116640978932990
11607047 403 18055623178144044568
11809386 21 18410578362446020345
1200032 147 10879995765871160116
12390115 104 10231457619520174460
12422481 6 17703509870457663414
13782708 43 18342172229238514112
13885169 86 11023816284530273010
13944108 23 8934459414218479950
14068700 675 18342179963889350569
14395042 24 16844441813047437863
14428016 204 11240003356453970539
14951699 99 10087649208247047067
15183329 4 18186523206894809282
15320294 125 18060143163366366535
15326921 28 17483976886832676633
15357212 105 14331974158961604322
15684389 69 18407763643255283684
15728490 51 18342738525382928334
15840311 113 10231769893833329137
16989378 47 18113892775783009803
16993427 108 18261384517128781658
190975 80 18201717384048744504
19315092 285 18272654550000346736
19841028 212 18269836596525298871
19958102 18 16370732491731303818
20028762 73 18343306963534947182
2026 5 18260264140408307787
20567600 247 18333449820374614226
20691028 202 9943516406278390062
20775438 99 17972033901483870962
21033648 29 13613983071539967665
21585482 111 10519443895579986483
21585483 132 18337943601944999579
21792938 703 18116998981841010011
23522609 53 18048918218245375381
25025965 108 17679853822622206994
2748736 6 10015572875124355846
2838139 119 11170206379364738014
3504750 166 17975694992105976616
397830 11 17632290173300361488
406291 66 18410290328458740687
439807 62 18334297582879521895
474113 269 18059847412240383607
4756326 101 14619694220369573963
50009960 94 18410282631887590514
508180 173 11747231155537767166
5104073 3 17846224362292975817
5718773 13 18335419067011182462
5874358 3 17968923228839757690
6058803 2 18267893677405882049
6201320 221 16879324763534903250
7970288 3 18409730672882028319
96874 4 18409163307517831234
9980921 52 17679001730885365906

> <PUBCHEM_SHAPE_MULTIPOLES>
551.63
22.64
4.19
1.59
2.37
0.12
-0.13
28.91
-2.37
-1.23
0.55
0.03
0.37
-4.28

> <PUBCHEM_SHAPE_SELFOVERLAP>
1171.401

> <PUBCHEM_SHAPE_VOLUME>
306.4

> <PUBCHEM_COORDINATE_TYPE>
2
5
10

$$$$
