11867217
  -OEChem-12032416153D

 58 62  0     1  0  0  0  0  0999 V2000
   -2.6525    1.0739   -0.1438 S   0  0  0  0  0  0  0  0  0  0  0  0
   -0.1817   -4.9545    1.0361 F   0  0  0  0  0  0  0  0  0  0  0  0
    0.5951    3.1287   -1.4461 O   0  0  0  0  0  0  0  0  0  0  0  0
    3.2700   -1.1764   -2.5220 O   0  0  0  0  0  0  0  0  0  0  0  0
   -2.6598    0.7319   -1.5533 O   0  0  0  0  0  0  0  0  0  0  0  0
   -2.4023    0.0685    0.8707 O   0  0  0  0  0  0  0  0  0  0  0  0
    4.0004   -0.3884   -0.4435 N   0  0  0  0  0  0  0  0  0  0  0  0
    2.1040    2.1100    0.0284 N   0  0  0  0  0  0  0  0  0  0  0  0
   -1.6254    2.4093    0.1189 N   0  0  0  0  0  0  0  0  0  0  0  0
    4.6271    2.0201   -0.3976 C   0  0  1  0  0  0  0  0  0  0  0  0
    3.6877    0.9614    1.6174 C   0  0  2  0  0  0  0  0  0  0  0  0
    4.7382    1.9541    1.1219 C   0  0  0  0  0  0  0  0  0  0  0  0
    4.8778    0.6326   -1.0156 C   0  0  0  0  0  0  0  0  0  0  0  0
    3.2467    2.5766   -0.7681 C   0  0  0  0  0  0  0  0  0  0  0  0
    3.9769   -0.4335    1.0276 C   0  0  0  0  0  0  0  0  0  0  0  0
    2.2902    1.4026    1.2241 C   0  0  0  0  0  0  0  0  0  0  0  0
    1.2373    1.0827    1.9986 C   0  0  0  0  0  0  0  0  0  0  0  0
    0.8218    2.4953   -0.4161 C   0  0  0  0  0  0  0  0  0  0  0  0
    3.2549   -1.2094   -1.2928 C   0  0  0  0  0  0  0  0  0  0  0  0
   -0.3009    2.0928    0.4680 C   0  0  0  0  0  0  0  0  0  0  0  0
   -0.1014    1.4361    1.6113 C   0  0  0  0  0  0  0  0  0  0  0  0
    2.3533   -2.1916   -0.6820 C   0  0  0  0  0  0  0  0  0  0  0  0
    1.0360   -1.8409   -0.3986 C   0  0  0  0  0  0  0  0  0  0  0  0
    2.8193   -3.4708   -0.3883 C   0  0  0  0  0  0  0  0  0  0  0  0
   -4.2185    1.8266    0.2227 C   0  0  0  0  0  0  0  0  0  0  0  0
    0.1787   -2.7752    0.1824 C   0  0  0  0  0  0  0  0  0  0  0  0
    1.9619   -4.4053    0.1925 C   0  0  0  0  0  0  0  0  0  0  0  0
    0.6415   -4.0576    0.4779 C   0  0  0  0  0  0  0  0  0  0  0  0
   -5.2786    0.7841    0.0439 C   0  0  0  0  0  0  0  0  0  0  0  0
   -5.6499   -0.0160    1.1205 C   0  0  0  0  0  0  0  0  0  0  0  0
   -5.8865    0.6218   -1.1978 C   0  0  0  0  0  0  0  0  0  0  0  0
   -6.6375   -0.9869    0.9543 C   0  0  0  0  0  0  0  0  0  0  0  0
   -6.8742   -0.3491   -1.3639 C   0  0  0  0  0  0  0  0  0  0  0  0
   -7.2496   -1.1534   -0.2878 C   0  0  0  0  0  0  0  0  0  0  0  0
    5.3907    2.7014   -0.7928 H   0  0  0  0  0  0  0  0  0  0  0  0
    3.7639    0.8989    2.7107 H   0  0  0  0  0  0  0  0  0  0  0  0
    4.5772    2.9451    1.5647 H   0  0  0  0  0  0  0  0  0  0  0  0
    5.7429    1.6289    1.4183 H   0  0  0  0  0  0  0  0  0  0  0  0
    4.7632    0.6766   -2.1039 H   0  0  0  0  0  0  0  0  0  0  0  0
    5.9079    0.3149   -0.8127 H   0  0  0  0  0  0  0  0  0  0  0  0
    3.2642    3.6683   -0.6462 H   0  0  0  0  0  0  0  0  0  0  0  0
    3.0310    2.3958   -1.8287 H   0  0  0  0  0  0  0  0  0  0  0  0
    4.9673   -0.7791    1.3490 H   0  0  0  0  0  0  0  0  0  0  0  0
    3.2525   -1.1613    1.4009 H   0  0  0  0  0  0  0  0  0  0  0  0
    1.3598    0.5266    2.9222 H   0  0  0  0  0  0  0  0  0  0  0  0
   -0.8870    1.1890    2.3157 H   0  0  0  0  0  0  0  0  0  0  0  0
   -1.6710    3.1179   -0.6264 H   0  0  0  0  0  0  0  0  0  0  0  0
    0.6623   -0.8488   -0.6347 H   0  0  0  0  0  0  0  0  0  0  0  0
    3.8464   -3.7512   -0.6063 H   0  0  0  0  0  0  0  0  0  0  0  0
   -4.1944    2.2008    1.2511 H   0  0  0  0  0  0  0  0  0  0  0  0
   -4.3688    2.6708   -0.4575 H   0  0  0  0  0  0  0  0  0  0  0  0
   -0.8500   -2.5057    0.4025 H   0  0  0  0  0  0  0  0  0  0  0  0
    2.3221   -5.4035    0.4230 H   0  0  0  0  0  0  0  0  0  0  0  0
   -5.1812    0.1046    2.0933 H   0  0  0  0  0  0  0  0  0  0  0  0
   -5.6035    1.2428   -2.0433 H   0  0  0  0  0  0  0  0  0  0  0  0
   -6.9300   -1.6132    1.7920 H   0  0  0  0  0  0  0  0  0  0  0  0
   -7.3510   -0.4788   -2.3310 H   0  0  0  0  0  0  0  0  0  0  0  0
   -8.0186   -1.9094   -0.4174 H   0  0  0  0  0  0  0  0  0  0  0  0
  1  5  2  0  0  0  0
  1  6  2  0  0  0  0
  1  9  1  0  0  0  0
  1 25  1  0  0  0  0
  2 28  1  0  0  0  0
  3 18  2  0  0  0  0
  4 19  2  0  0  0  0
  7 13  1  0  0  0  0
  7 15  1  0  0  0  0
  7 19  1  0  0  0  0
  8 14  1  0  0  0  0
  8 16  1  0  0  0  0
  8 18  1  0  0  0  0
  9 20  1  0  0  0  0
  9 47  1  0  0  0  0
 10 12  1  0  0  0  0
 10 13  1  0  0  0  0
 10 14  1  0  0  0  0
 10 35  1  0  0  0  0
 11 12  1  0  0  0  0
 11 15  1  0  0  0  0
 11 16  1  0  0  0  0
 11 36  1  0  0  0  0
 12 37  1  0  0  0  0
 12 38  1  0  0  0  0
 13 39  1  0  0  0  0
 13 40  1  0  0  0  0
 14 41  1  0  0  0  0
 14 42  1  0  0  0  0
 15 43  1  0  0  0  0
 15 44  1  0  0  0  0
 16 17  2  0  0  0  0
 17 21  1  0  0  0  0
 17 45  1  0  0  0  0
 18 20  1  0  0  0  0
 19 22  1  0  0  0  0
 20 21  2  0  0  0  0
 21 46  1  0  0  0  0
 22 23  2  0  0  0  0
 22 24  1  0  0  0  0
 23 26  1  0  0  0  0
 23 48  1  0  0  0  0
 24 27  2  0  0  0  0
 24 49  1  0  0  0  0
 25 29  1  0  0  0  0
 25 50  1  0  0  0  0
 25 51  1  0  0  0  0
 26 28  2  0  0  0  0
 26 52  1  0  0  0  0
 27 28  1  0  0  0  0
 27 53  1  0  0  0  0
 29 30  2  0  0  0  0
 29 31  1  0  0  0  0
 30 32  1  0  0  0  0
 30 54  1  0  0  0  0
 31 33  2  0  0  0  0
 31 55  1  0  0  0  0
 32 34  2  0  0  0  0
 32 56  1  0  0  0  0
 33 34  1  0  0  0  0
 33 57  1  0  0  0  0
 34 58  1  0  0  0  0
M  END
> <PUBCHEM_COMPOUND_CID>
11867217

> <PUBCHEM_CONFORMER_RMSD>
1

> <PUBCHEM_CONFORMER_DIVERSEORDER>
3
41
83
62
15
68
60
47
1
70
5
42
73
55
25
16
63
72
46
52
61
35
74
57
6
78
24
79
43
37
59
51
29
2
66
45
17
82
76
19
64
27
4
48
12
7
38
71
81
77
53
9
23
56
39
65
8
44
54
69
14
18
30
50
58
33
20
80
40
49
11
32
21
26
34
67
36
22
31
28
75
10
13

> <PUBCHEM_MMFF94_PARTIAL_CHARGES>
44
1 1.33
11 0.14
13 0.3
14 0.3
15 0.3
16 -0.03
17 -0.15
18 0.62
19 0.54
2 -0.19
20 0.21
21 -0.15
22 0.09
23 -0.15
24 -0.15
25 0.25
26 -0.15
27 -0.15
28 0.19
29 -0.14
3 -0.57
30 -0.15
31 -0.15
32 -0.15
33 -0.15
34 -0.15
4 -0.57
45 0.15
46 0.15
47 0.42
48 0.15
49 0.15
5 -0.65
52 0.15
53 0.15
54 0.15
55 0.15
56 0.15
57 0.15
58 0.15
6 -0.65
7 -0.66
8 -0.47
9 -0.75

> <PUBCHEM_EFFECTIVE_ROTOR_COUNT>
7

> <PUBCHEM_PHARMACOPHORE_FEATURES>
10
1 3 acceptor
1 4 acceptor
1 5 acceptor
1 6 acceptor
1 9 donor
6 22 23 24 26 27 28 rings
6 29 30 31 32 33 34 rings
6 7 10 11 12 13 15 rings
6 8 10 11 12 14 16 rings
6 8 16 17 18 20 21 rings

> <PUBCHEM_HEAVY_ATOM_COUNT>
34

> <PUBCHEM_ATOM_DEF_STEREO_COUNT>
2

> <PUBCHEM_ATOM_UDEF_STEREO_COUNT>
0

> <PUBCHEM_BOND_DEF_STEREO_COUNT>
0

> <PUBCHEM_BOND_UDEF_STEREO_COUNT>
0

> <PUBCHEM_ISOTOPIC_ATOM_COUNT>
0

> <PUBCHEM_COMPONENT_COUNT>
1

> <PUBCHEM_CACTVS_TAUTO_COUNT>
1

> <PUBCHEM_CONFORMER_ID>
00B5145100000003

> <PUBCHEM_MMFF94_ENERGY>
91.9368

> <PUBCHEM_FEATURE_SELFOVERLAP>
52.347

> <PUBCHEM_SHAPE_FINGERPRINT>
10316853 100 18339082691141454882
11093857 51 18189358847535786246
11963148 33 18337943602023984563
12596602 18 16917069979877151713
13150687 139 18192732227173712316
1361 2 18409169930520412361
13617811 41 18335137618511664541
15183329 4 17894345588705883473
15419008 42 17898264144988629853
15483637 11 17977386362853892059
15799311 1 18269572644919619185
15968369 26 18117819041780178971
17093844 170 18412265064711814464
18365409 1 18052259789264498772
19301679 30 18412269420310234961
19315092 285 18059290938000060842
19319366 153 18342168977336763582
20764821 26 18337666533229701111
20775438 99 18273490191131936927
20775530 9 17688039612832028498
21197605 99 18200311146915157135
21304304 249 18409442571445733946
21623969 137 18410290337427905337
22956985 138 18048304558245534578
25222932 49 18201712951516070479
27425 322 17169271649114827140
338550 245 18266739263299572079
3737641 26 18270399387142384745
404807 78 17969237791928063755
4340502 62 18060131085728906192
444735 86 18340759356828508995
46194498 28 18113335340488878053
463206 1 18129654331054577375
484989 97 18337971059512349042
508706 21 18193280912796781971
59755656 215 18412541037756180589
86090 222 18411701010830628667

> <PUBCHEM_SHAPE_MULTIPOLES>
657.86
14.48
4.9
1.62
30.17
6.41
-0.11
-1.22
-2
-4.59
0.39
-0.57
-0.26
0.79

> <PUBCHEM_SHAPE_SELFOVERLAP>
1431.746

> <PUBCHEM_SHAPE_VOLUME>
360.9

> <PUBCHEM_COORDINATE_TYPE>
2
5
10

$$$$
