71694024
  -OEChem-12032416293D

 46 48  0     1  0  0  0  0  0999 V2000
   -2.6850    2.3188    0.0257 S   0  0  0  0  0  0  0  0  0  0  0  0
    4.7530   -0.8137   -1.2173 F   0  0  0  0  0  0  0  0  0  0  0  0
    4.5016   -0.4905    0.9182 F   0  0  0  0  0  0  0  0  0  0  0  0
    4.6036   -2.5102    0.1345 F   0  0  0  0  0  0  0  0  0  0  0  0
   -3.0832   -1.9025    1.9551 O   0  0  0  0  0  0  0  0  0  0  0  0
   -4.3412   -3.5726    0.1558 O   0  0  0  0  0  0  0  0  0  0  0  0
   -2.9601    2.4277    1.4457 O   0  0  0  0  0  0  0  0  0  0  0  0
   -3.2648    3.2685   -0.9046 O   0  0  0  0  0  0  0  0  0  0  0  0
   -3.0468    0.7451   -0.5012 N   0  0  0  0  0  0  0  0  0  0  0  0
    2.8778    1.3314    2.5887 N   0  0  0  0  0  0  0  0  0  0  0  0
   -1.6632   -1.2810   -0.8581 C   0  0  2  0  0  0  0  0  0  0  0  0
   -2.4352   -0.4243    0.1830 C   0  0  2  0  0  0  0  0  0  0  0  0
   -3.5445   -1.3308    0.7321 C   0  0  1  0  0  0  0  0  0  0  0  0
   -2.2812   -2.6868   -0.7698 C   0  0  0  0  0  0  0  0  0  0  0  0
   -3.7119   -2.4076   -0.3365 C   0  0  1  0  0  0  0  0  0  0  0  0
   -0.1628   -1.2794   -0.6655 C   0  0  0  0  0  0  0  0  0  0  0  0
    0.6717   -0.8377   -1.6923 C   0  0  0  0  0  0  0  0  0  0  0  0
    0.3863   -1.7190    0.5392 C   0  0  0  0  0  0  0  0  0  0  0  0
   -0.9325    2.3831   -0.1963 C   0  0  0  0  0  0  0  0  0  0  0  0
    2.0552   -0.8350   -1.5145 C   0  0  0  0  0  0  0  0  0  0  0  0
    1.7698   -1.7166    0.7169 C   0  0  0  0  0  0  0  0  0  0  0  0
    2.6043   -1.2746   -0.3098 C   0  0  0  0  0  0  0  0  0  0  0  0
   -0.0827    1.9970    0.8404 C   0  0  0  0  0  0  0  0  0  0  0  0
   -0.3994    2.8213   -1.4086 C   0  0  0  0  0  0  0  0  0  0  0  0
    4.0836   -1.2731   -0.1202 C   0  0  0  0  0  0  0  0  0  0  0  0
    1.3001    2.0491    0.6648 C   0  0  0  0  0  0  0  0  0  0  0  0
    0.9834    2.8731   -1.5843 C   0  0  0  0  0  0  0  0  0  0  0  0
    1.8333    2.4872   -0.5476 C   0  0  0  0  0  0  0  0  0  0  0  0
    2.1708    1.6530    1.7264 C   0  0  0  0  0  0  0  0  0  0  0  0
   -1.8780   -0.8997   -1.8668 H   0  0  0  0  0  0  0  0  0  0  0  0
   -1.7989   -0.0915    1.0054 H   0  0  0  0  0  0  0  0  0  0  0  0
   -4.4879   -0.8159    0.9405 H   0  0  0  0  0  0  0  0  0  0  0  0
   -2.2434   -3.2110   -1.7313 H   0  0  0  0  0  0  0  0  0  0  0  0
   -1.7794   -3.3386   -0.0444 H   0  0  0  0  0  0  0  0  0  0  0  0
   -4.2960   -2.0176   -1.1789 H   0  0  0  0  0  0  0  0  0  0  0  0
   -3.5042    0.5855   -1.4066 H   0  0  0  0  0  0  0  0  0  0  0  0
   -2.9900   -1.1790    2.5982 H   0  0  0  0  0  0  0  0  0  0  0  0
   -4.3291   -4.2347   -0.5563 H   0  0  0  0  0  0  0  0  0  0  0  0
    0.2595   -0.4917   -2.6363 H   0  0  0  0  0  0  0  0  0  0  0  0
   -0.2451   -2.0644    1.3528 H   0  0  0  0  0  0  0  0  0  0  0  0
    2.6874   -0.4863   -2.3263 H   0  0  0  0  0  0  0  0  0  0  0  0
    2.1885   -2.0598    1.6592 H   0  0  0  0  0  0  0  0  0  0  0  0
   -0.4884    1.6618    1.7919 H   0  0  0  0  0  0  0  0  0  0  0  0
   -1.0421    3.1187   -2.2322 H   0  0  0  0  0  0  0  0  0  0  0  0
    1.3986    3.2110   -2.5293 H   0  0  0  0  0  0  0  0  0  0  0  0
    2.9090    2.5315   -0.7002 H   0  0  0  0  0  0  0  0  0  0  0  0
  1  7  2  0  0  0  0
  1  8  2  0  0  0  0
  1  9  1  0  0  0  0
  1 19  1  0  0  0  0
  2 25  1  0  0  0  0
  3 25  1  0  0  0  0
  4 25  1  0  0  0  0
  5 13  1  0  0  0  0
  5 37  1  0  0  0  0
  6 15  1  0  0  0  0
  6 38  1  0  0  0  0
  9 12  1  0  0  0  0
  9 36  1  0  0  0  0
 10 29  3  0  0  0  0
 11 12  1  0  0  0  0
 11 14  1  0  0  0  0
 11 16  1  0  0  0  0
 11 30  1  0  0  0  0
 12 13  1  0  0  0  0
 12 31  1  0  0  0  0
 13 15  1  0  0  0  0
 13 32  1  0  0  0  0
 14 15  1  0  0  0  0
 14 33  1  0  0  0  0
 14 34  1  0  0  0  0
 15 35  1  0  0  0  0
 16 17  2  0  0  0  0
 16 18  1  0  0  0  0
 17 20  1  0  0  0  0
 17 39  1  0  0  0  0
 18 21  2  0  0  0  0
 18 40  1  0  0  0  0
 19 23  1  0  0  0  0
 19 24  2  0  0  0  0
 20 22  2  0  0  0  0
 20 41  1  0  0  0  0
 21 22  1  0  0  0  0
 21 42  1  0  0  0  0
 22 25  1  0  0  0  0
 23 26  2  0  0  0  0
 23 43  1  0  0  0  0
 24 27  1  0  0  0  0
 24 44  1  0  0  0  0
 26 28  1  0  0  0  0
 26 29  1  0  0  0  0
 27 28  2  0  0  0  0
 27 45  1  0  0  0  0
 28 46  1  0  0  0  0
M  END
> <PUBCHEM_COMPOUND_CID>
71694024

> <PUBCHEM_CONFORMER_RMSD>
0.8

> <PUBCHEM_CONFORMER_DIVERSEORDER>
2
16
5
37
32
20
30
35
34
8
27
33
28
24
13
15
9
6
31
19
10
36
11
22
1
18
29
26
7
14
21
25
23
17
4
12
3

> <PUBCHEM_MMFF94_PARTIAL_CHARGES>
39
1 1.45
10 -0.56
11 0.14
12 0.36
13 0.28
15 0.28
16 -0.14
17 -0.15
18 -0.15
19 -0.01
2 -0.34
20 -0.15
21 -0.15
22 -0.14
23 -0.15
24 -0.15
25 1.16
26 0.07
27 -0.15
28 -0.15
29 0.48
3 -0.34
36 0.42
37 0.4
38 0.4
39 0.15
4 -0.34
40 0.15
41 0.15
42 0.15
43 0.15
44 0.15
45 0.15
46 0.15
5 -0.68
6 -0.68
7 -0.65
8 -0.65
9 -0.91

> <PUBCHEM_EFFECTIVE_ROTOR_COUNT>
6

> <PUBCHEM_PHARMACOPHORE_FEATURES>
11
1 10 acceptor
1 5 acceptor
1 5 donor
1 6 acceptor
1 6 donor
1 7 acceptor
1 8 acceptor
1 9 donor
5 11 12 13 14 15 rings
6 16 17 18 20 21 22 rings
6 19 23 24 26 27 28 rings

> <PUBCHEM_HEAVY_ATOM_COUNT>
29

> <PUBCHEM_ATOM_DEF_STEREO_COUNT>
4

> <PUBCHEM_ATOM_UDEF_STEREO_COUNT>
0

> <PUBCHEM_BOND_DEF_STEREO_COUNT>
0

> <PUBCHEM_BOND_UDEF_STEREO_COUNT>
0

> <PUBCHEM_ISOTOPIC_ATOM_COUNT>
0

> <PUBCHEM_COMPONENT_COUNT>
1

> <PUBCHEM_CACTVS_TAUTO_COUNT>
1

> <PUBCHEM_CONFORMER_ID>
0445F6C800000002

> <PUBCHEM_MMFF94_ENERGY>
56.2502

> <PUBCHEM_FEATURE_SELFOVERLAP>
55.851

> <PUBCHEM_SHAPE_FINGERPRINT>
1100329 8 18338521828685032117
11370993 70 17322668570295990500
11578080 2 17822556322395618863
12011746 2 18125430913112775205
12035758 1 18268154162945021489
12422481 6 18271816752325480539
12633257 1 17984413045155405896
13140716 1 18341621451343825971
13402501 40 18198897007373586524
13692114 37 18270408179737324057
13965767 371 17773334511125020419
14790565 3 17764032363207439584
14840074 17 17541633438320742872
17357779 13 18270662221507253108
17492 54 18045494214908866013
20600515 1 18127987303754567036
20691752 17 18040715900155761105
20905425 154 18270690899151789477
21421861 104 18190755308954496609
23419403 2 17988349417421827000
23557571 272 18129392513864008806
23559900 14 18117276063409190911
2818148 4 18265915681471142125
3052486 1 18187638085930862088
350125 39 18412271614579353145
35225 105 17827900850506889097
469060 322 18260834770089294872
484985 159 16163770245197655058
56638632 10 16411506969962154040
57527358 35 15578135176409735637
70251023 43 18337953506134088651
7471813 234 18339917238016598063

> <PUBCHEM_SHAPE_MULTIPOLES>
545.4
7.42
4.51
1.69
1.64
1.59
0.45
-5.34
1.22
-2.43
-0.52
0.76
0.58
0.63

> <PUBCHEM_SHAPE_SELFOVERLAP>
1165.12

> <PUBCHEM_SHAPE_VOLUME>
305.3

> <PUBCHEM_COORDINATE_TYPE>
2
5
10

$$$$
