11939954
  -OEChem-12032416383D

 67 71  0     1  0  0  0  0  0999 V2000
    0.3552   -3.8792    1.0765 O   0  0  0  0  0  0  0  0  0  0  0  0
   -0.8232   -1.2127    2.1891 O   0  0  0  0  0  0  0  0  0  0  0  0
    4.1660   -1.8412    1.0996 O   0  0  0  0  0  0  0  0  0  0  0  0
   10.1322    1.3137   -0.7334 O   0  0  0  0  0  0  0  0  0  0  0  0
   -1.9185   -2.9715   -0.8169 N   0  0  0  0  0  0  0  0  0  0  0  0
    2.1800   -0.7428    1.5405 N   0  0  0  0  0  0  0  0  0  0  0  0
    3.9712    0.4759    0.7773 N   0  0  0  0  0  0  0  0  0  0  0  0
   -3.4614   -1.2374   -0.8859 N   0  0  0  0  0  0  0  0  0  0  0  0
   -2.8648   -2.4601   -2.8749 N   0  0  0  0  0  0  0  0  0  0  0  0
   -7.1341    3.5027    1.1597 N   0  0  0  0  0  0  0  0  0  0  0  0
   -0.6749   -1.7451    0.8620 C   0  0  1  0  0  0  0  0  0  0  0  0
    0.6428   -2.4942    0.8225 C   0  0  1  0  0  0  0  0  0  0  0  0
   -1.7139   -2.8112    0.6061 C   0  0  2  0  0  0  0  0  0  0  0  0
    1.4361   -1.9037    1.9657 C   0  0  2  0  0  0  0  0  0  0  0  0
   -1.0651   -4.0544    1.1865 C   0  0  0  0  0  0  0  0  0  0  0  0
    0.3482   -1.5280    2.9561 C   0  0  0  0  0  0  0  0  0  0  0  0
   -2.7859   -2.1888   -1.5582 C   0  0  0  0  0  0  0  0  0  0  0  0
    3.5174   -0.7981    1.1302 C   0  0  0  0  0  0  0  0  0  0  0  0
   -4.2979   -0.4935   -1.6391 C   0  0  0  0  0  0  0  0  0  0  0  0
    5.2563    0.8420    0.3137 C   0  0  0  0  0  0  0  0  0  0  0  0
   -3.7196   -1.6786   -3.5670 C   0  0  0  0  0  0  0  0  0  0  0  0
   -4.4694   -0.6704   -2.9968 C   0  0  0  0  0  0  0  0  0  0  0  0
   -5.0230    0.5280   -0.9223 C   0  0  0  0  0  0  0  0  0  0  0  0
    6.2458   -0.1292    0.1617 C   0  0  0  0  0  0  0  0  0  0  0  0
    5.5338    2.1744    0.0074 C   0  0  0  0  0  0  0  0  0  0  0  0
   -4.3293    1.5343   -0.2502 C   0  0  0  0  0  0  0  0  0  0  0  0
   -6.4177    0.5099   -0.9030 C   0  0  0  0  0  0  0  0  0  0  0  0
    7.5128    0.2317   -0.2966 C   0  0  0  0  0  0  0  0  0  0  0  0
    6.8008    2.5353   -0.4508 C   0  0  0  0  0  0  0  0  0  0  0  0
    7.7903    1.5639   -0.6028 C   0  0  0  0  0  0  0  0  0  0  0  0
   -5.0302    2.5225    0.4411 C   0  0  0  0  0  0  0  0  0  0  0  0
   -7.1186    1.4980   -0.2117 C   0  0  0  0  0  0  0  0  0  0  0  0
   -6.4248    2.5043    0.4604 C   0  0  0  0  0  0  0  0  0  0  0  0
    9.1113    1.9409   -1.0800 C   0  0  0  0  0  0  0  0  0  0  0  0
   -8.5832    3.4917    1.1861 C   0  0  0  0  0  0  0  0  0  0  0  0
   -6.4228    4.5452    1.8730 C   0  0  0  0  0  0  0  0  0  0  0  0
    9.2781    3.1257   -2.0254 C   0  0  0  0  0  0  0  0  0  0  0  0
   -0.7019   -0.8984    0.1686 H   0  0  0  0  0  0  0  0  0  0  0  0
    1.1400   -2.4355   -0.1512 H   0  0  0  0  0  0  0  0  0  0  0  0
   -2.6661   -2.6324    1.1187 H   0  0  0  0  0  0  0  0  0  0  0  0
    2.1314   -2.6215    2.4140 H   0  0  0  0  0  0  0  0  0  0  0  0
   -1.2965   -4.1540    2.2528 H   0  0  0  0  0  0  0  0  0  0  0  0
   -1.3552   -4.9831    0.6854 H   0  0  0  0  0  0  0  0  0  0  0  0
    0.0952   -2.3770    3.6006 H   0  0  0  0  0  0  0  0  0  0  0  0
    0.6049   -0.6763    3.5934 H   0  0  0  0  0  0  0  0  0  0  0  0
   -1.3683   -3.6543   -1.3256 H   0  0  0  0  0  0  0  0  0  0  0  0
    1.6925    0.1457    1.4735 H   0  0  0  0  0  0  0  0  0  0  0  0
    3.3035    1.2380    0.8623 H   0  0  0  0  0  0  0  0  0  0  0  0
   -3.7863   -1.8917   -4.6286 H   0  0  0  0  0  0  0  0  0  0  0  0
   -5.1398   -0.0649   -3.5944 H   0  0  0  0  0  0  0  0  0  0  0  0
    6.1070   -1.1793    0.3765 H   0  0  0  0  0  0  0  0  0  0  0  0
    4.7722    2.9412    0.1240 H   0  0  0  0  0  0  0  0  0  0  0  0
   -3.2421    1.5663   -0.2569 H   0  0  0  0  0  0  0  0  0  0  0  0
   -6.9771   -0.2690   -1.4160 H   0  0  0  0  0  0  0  0  0  0  0  0
    8.2709   -0.5386   -0.4131 H   0  0  0  0  0  0  0  0  0  0  0  0
    6.9932    3.5819   -0.6696 H   0  0  0  0  0  0  0  0  0  0  0  0
   -4.4450    3.2839    0.9471 H   0  0  0  0  0  0  0  0  0  0  0  0
   -8.2024    1.4389   -0.2254 H   0  0  0  0  0  0  0  0  0  0  0  0
   -8.9839    4.3321    1.7640 H   0  0  0  0  0  0  0  0  0  0  0  0
   -8.9635    2.5793    1.6585 H   0  0  0  0  0  0  0  0  0  0  0  0
   -8.9985    3.5835    0.1762 H   0  0  0  0  0  0  0  0  0  0  0  0
   -7.1113    5.2398    2.3671 H   0  0  0  0  0  0  0  0  0  0  0  0
   -5.8120    5.1461    1.1901 H   0  0  0  0  0  0  0  0  0  0  0  0
   -5.7877    4.1238    2.6601 H   0  0  0  0  0  0  0  0  0  0  0  0
    9.4207    4.0400   -1.4443 H   0  0  0  0  0  0  0  0  0  0  0  0
    8.4096    3.2236   -2.6825 H   0  0  0  0  0  0  0  0  0  0  0  0
   10.1527    2.9552   -2.6603 H   0  0  0  0  0  0  0  0  0  0  0  0
  1 12  1  0  0  0  0
  1 15  1  0  0  0  0
  2 11  1  0  0  0  0
  2 16  1  0  0  0  0
  3 18  2  0  0  0  0
  4 34  2  0  0  0  0
  5 13  1  0  0  0  0
  5 17  1  0  0  0  0
  5 46  1  0  0  0  0
  6 14  1  0  0  0  0
  6 18  1  0  0  0  0
  6 47  1  0  0  0  0
  7 18  1  0  0  0  0
  7 20  1  0  0  0  0
  7 48  1  0  0  0  0
  8 17  1  0  0  0  0
  8 19  2  0  0  0  0
  9 17  2  0  0  0  0
  9 21  1  0  0  0  0
 10 33  1  0  0  0  0
 10 35  1  0  0  0  0
 10 36  1  0  0  0  0
 11 12  1  0  0  0  0
 11 13  1  0  0  0  0
 11 38  1  0  0  0  0
 12 14  1  0  0  0  0
 12 39  1  0  0  0  0
 13 15  1  0  0  0  0
 13 40  1  0  0  0  0
 14 16  1  0  0  0  0
 14 41  1  0  0  0  0
 15 42  1  0  0  0  0
 15 43  1  0  0  0  0
 16 44  1  0  0  0  0
 16 45  1  0  0  0  0
 19 22  1  0  0  0  0
 19 23  1  0  0  0  0
 20 24  2  0  0  0  0
 20 25  1  0  0  0  0
 21 22  2  0  0  0  0
 21 49  1  0  0  0  0
 22 50  1  0  0  0  0
 23 26  2  0  0  0  0
 23 27  1  0  0  0  0
 24 28  1  0  0  0  0
 24 51  1  0  0  0  0
 25 29  2  0  0  0  0
 25 52  1  0  0  0  0
 26 31  1  0  0  0  0
 26 53  1  0  0  0  0
 27 32  2  0  0  0  0
 27 54  1  0  0  0  0
 28 30  2  0  0  0  0
 28 55  1  0  0  0  0
 29 30  1  0  0  0  0
 29 56  1  0  0  0  0
 30 34  1  0  0  0  0
 31 33  2  0  0  0  0
 31 57  1  0  0  0  0
 32 33  1  0  0  0  0
 32 58  1  0  0  0  0
 34 37  1  0  0  0  0
 35 59  1  0  0  0  0
 35 60  1  0  0  0  0
 35 61  1  0  0  0  0
 36 62  1  0  0  0  0
 36 63  1  0  0  0  0
 36 64  1  0  0  0  0
 37 65  1  0  0  0  0
 37 66  1  0  0  0  0
 37 67  1  0  0  0  0
M  END
> <PUBCHEM_COMPOUND_CID>
11939954

> <PUBCHEM_CONFORMER_RMSD>
1

> <PUBCHEM_CONFORMER_DIVERSEORDER>
1
90
100
119
93
102
56
69
143
19
18
81
130
94
63
85
66
41
42
125
17
87
10
45
148
74
150
131
79
129
133
132
159
157
52
123
36
114
33
73
24
82
160
51
25
97
23
34
158
146
57
96
7
147
127
31
154
134
144
11
99
32
35
161
40
59
14
76
139
21
80
61
122
121
54
140
118
3
88
27
72
15
8
126
55
13
67
138
83
43
137
120
75
60
29
141
78
152
20
47
58
111
89
156
50
142
48
12
38
9
28
116
128
92
109
65
149
110
86
162
46
98
107
22
26
103
64
153
49
4
115
5
136
124
84
77
135
68
2
95
113
108
151
6
37
104
163
91
53
117
39
112
71
30
16
145
44
105
155
101
62
106
70

> <PUBCHEM_MMFF94_PARTIAL_CHARGES>
49
1 -0.56
10 -0.84
11 0.28
12 0.28
13 0.37
14 0.3
15 0.28
16 0.28
17 0.72
18 0.69
19 0.31
2 -0.56
20 0.12
21 0.16
22 -0.15
24 -0.15
25 -0.15
26 -0.15
27 -0.15
28 -0.15
29 -0.15
3 -0.57
30 0.09
31 -0.15
32 -0.15
33 0.1
34 0.42
35 0.37
36 0.37
37 0.06
4 -0.57
46 0.4
47 0.37
48 0.37
49 0.15
5 -0.87
50 0.15
51 0.15
52 0.15
53 0.15
54 0.15
55 0.15
56 0.15
57 0.15
58 0.15
6 -0.73
7 -0.55
8 -0.62
9 -0.62

> <PUBCHEM_EFFECTIVE_ROTOR_COUNT>
10.2

> <PUBCHEM_PHARMACOPHORE_FEATURES>
15
1 1 acceptor
1 10 cation
1 2 acceptor
1 3 acceptor
1 4 acceptor
1 5 donor
1 6 donor
1 7 donor
1 8 acceptor
4 5 8 9 17 cation
5 1 11 12 13 15 rings
5 2 11 12 14 16 rings
6 20 24 25 28 29 30 rings
6 23 26 27 31 32 33 rings
6 8 9 17 19 21 22 rings

> <PUBCHEM_HEAVY_ATOM_COUNT>
37

> <PUBCHEM_ATOM_DEF_STEREO_COUNT>
4

> <PUBCHEM_ATOM_UDEF_STEREO_COUNT>
0

> <PUBCHEM_BOND_DEF_STEREO_COUNT>
0

> <PUBCHEM_BOND_UDEF_STEREO_COUNT>
0

> <PUBCHEM_ISOTOPIC_ATOM_COUNT>
0

> <PUBCHEM_COMPONENT_COUNT>
1

> <PUBCHEM_CACTVS_TAUTO_COUNT>
48

> <PUBCHEM_CONFORMER_ID>
00B6307200000001

> <PUBCHEM_MMFF94_ENERGY>
130.114

> <PUBCHEM_FEATURE_SELFOVERLAP>
76.881

> <PUBCHEM_SHAPE_FINGERPRINT>
10369192 42 18187366558162413859
10794284 68 18272929458794935999
10920273 25 18409455769252863873
10930396 42 14851602194480699245
10952577 141 18130792214137298045
11273773 42 18408880746151213045
11410812 94 17989201573778557280
1200032 147 18186238416392659794
12013929 29 18409448055860572844
12061779 8 18336826398887515073
13165053 182 18118975934346038112
13383665 225 17917422092058147687
14017578 193 18191034597524654300
14114211 68 17345468181855828491
14150022 121 17604440724895585603
14664723 55 18409164411381909741
14765038 42 18333447638251627173
14840074 17 18261099730895958685
15064981 194 17897736585317741966
15131766 46 18042104523934624453
15357212 105 18200314308797245647
15510800 12 13614237126760002694
15685185 35 18260272983597977968
16120349 67 18412827988473659859
16728433 281 18261677094981411812
16992727 255 18130782322183297200
16993427 108 10665242457732639209
17852330 134 18341620270634339902
17899979 129 18335420145876805010
19304152 47 15430578607043693934
19309040 13 18411697660598343231
19315092 285 10881692273210362911
20771845 35 9439109923656200398
21136928 129 18114477742229608184
21223535 225 18342169012213297464
21585480 29 8862943888208435556
21772528 278 18113620084161865355
23522609 53 18340760430412454499
24771750 20 17130706060202013239
32027 91 12319158685502976239
3552219 110 18265876100208330943
3610482 184 18272636953392617095
38570 142 18410849941496574435
397830 11 11891318839012135178
3986486 107 15482387557075783401
406291 66 10303810977901400472
44880568 143 17845643884994523408
4516262 110 18335693885484845661
474113 269 10015579493811111433
508180 173 17846492690447893176
57634706 229 18186806906469413826
5911458 16 18411699855416100697
5937810 71 17750234872017706276
6201320 82 17897462782007678436
6289498 60 16589135204329757484
6698420 124 18186806855288411658
6703917 75 18410292528141587291

> <PUBCHEM_SHAPE_MULTIPOLES>
708.08
29.22
5.38
2.72
48.55
0.83
-1.41
43.84
-8.96
-6.65
1.99
-3.09
-1.57
-8.36

> <PUBCHEM_SHAPE_SELFOVERLAP>
1538.815

> <PUBCHEM_SHAPE_VOLUME>
385.2

> <PUBCHEM_COORDINATE_TYPE>
2
5
10

$$$$
