11867111
  -OEChem-12032416253D

 58 60  0     1  0  0  0  0  0999 V2000
   -5.8179    3.3246    0.3468 S   0  0  0  0  0  0  0  0  0  0  0  0
    3.2927   -0.4284   -2.8640 O   0  0  0  0  0  0  0  0  0  0  0  0
    3.7983   -0.8249    2.4428 O   0  0  0  0  0  0  0  0  0  0  0  0
   -2.6997   -2.6202    0.7379 O   0  0  0  0  0  0  0  0  0  0  0  0
   -4.7952   -1.6325   -0.5106 O   0  0  0  0  0  0  0  0  0  0  0  0
    2.3851   -1.1148   -0.8244 N   0  0  0  0  0  0  0  0  0  0  0  0
    4.5825   -0.1493    0.4066 N   0  0  0  0  0  0  0  0  0  0  0  0
   -0.8520   -1.2221    0.6404 N   0  0  0  0  0  0  0  0  0  0  0  0
    2.2246   -0.7559    0.5951 C   0  0  1  0  0  0  0  0  0  0  0  0
    1.4115   -1.7862    1.4000 C   0  0  0  0  0  0  0  0  0  0  0  0
    0.1483   -2.2606    0.6918 C   0  0  2  0  0  0  0  0  0  0  0  0
    0.5123   -2.7821   -0.6935 C   0  0  0  0  0  0  0  0  0  0  0  0
    1.2579   -1.7424   -1.5163 C   0  0  0  0  0  0  0  0  0  0  0  0
    4.3053    0.4344   -0.8851 C   0  0  1  0  0  0  0  0  0  0  0  0
    3.3146   -0.4378   -1.6312 C   0  0  0  0  0  0  0  0  0  0  0  0
    3.6003   -0.6257    1.2448 C   0  0  0  0  0  0  0  0  0  0  0  0
    3.8254    1.8752   -0.7869 C   0  0  0  0  0  0  0  0  0  0  0  0
    4.7622    2.7818    0.0307 C   0  0  0  0  0  0  0  0  0  0  0  0
   -2.2117   -1.4952    0.6683 C   0  0  0  0  0  0  0  0  0  0  0  0
    4.9780    2.2646    1.4536 C   0  0  0  0  0  0  0  0  0  0  0  0
    6.1103    2.9135   -0.6819 C   0  0  0  0  0  0  0  0  0  0  0  0
   -3.1129   -0.3174    0.5809 C   0  0  0  0  0  0  0  0  0  0  0  0
   -4.3566   -0.4458   -0.0035 C   0  0  0  0  0  0  0  0  0  0  0  0
   -2.6646    0.8825    1.0965 C   0  0  0  0  0  0  0  0  0  0  0  0
   -5.1876    0.6723   -0.0756 C   0  0  0  0  0  0  0  0  0  0  0  0
   -3.4955    2.0006    1.0243 C   0  0  0  0  0  0  0  0  0  0  0  0
   -4.7570    1.8955    0.4382 C   0  0  0  0  0  0  0  0  0  0  0  0
   -4.5037   -1.8981   -1.8809 C   0  0  0  0  0  0  0  0  0  0  0  0
   -6.0549    3.4944   -1.4447 C   0  0  0  0  0  0  0  0  0  0  0  0
    1.7313    0.2215    0.6350 H   0  0  0  0  0  0  0  0  0  0  0  0
    1.1588   -1.3670    2.3828 H   0  0  0  0  0  0  0  0  0  0  0  0
    2.0394   -2.6671    1.5958 H   0  0  0  0  0  0  0  0  0  0  0  0
   -0.2743   -3.0928    1.2687 H   0  0  0  0  0  0  0  0  0  0  0  0
   -0.3846   -3.1029   -1.2365 H   0  0  0  0  0  0  0  0  0  0  0  0
    1.1512   -3.6678   -0.5825 H   0  0  0  0  0  0  0  0  0  0  0  0
    1.6151   -2.2003   -2.4463 H   0  0  0  0  0  0  0  0  0  0  0  0
    0.5769   -0.9328   -1.8077 H   0  0  0  0  0  0  0  0  0  0  0  0
    5.2458    0.3808   -1.4455 H   0  0  0  0  0  0  0  0  0  0  0  0
    2.8275    1.9193   -0.3344 H   0  0  0  0  0  0  0  0  0  0  0  0
    3.7034    2.2883   -1.7968 H   0  0  0  0  0  0  0  0  0  0  0  0
    5.5397   -0.1506    0.7424 H   0  0  0  0  0  0  0  0  0  0  0  0
   -0.5279   -0.2767    0.4661 H   0  0  0  0  0  0  0  0  0  0  0  0
    4.2987    3.7749    0.0845 H   0  0  0  0  0  0  0  0  0  0  0  0
    5.2821    3.1213    2.0716 H   0  0  0  0  0  0  0  0  0  0  0  0
    4.0554    1.9026    1.9138 H   0  0  0  0  0  0  0  0  0  0  0  0
    5.8068    1.5642    1.5676 H   0  0  0  0  0  0  0  0  0  0  0  0
    6.6722    1.9744   -0.6933 H   0  0  0  0  0  0  0  0  0  0  0  0
    6.7332    3.6585   -0.1743 H   0  0  0  0  0  0  0  0  0  0  0  0
    5.9764    3.2460   -1.7167 H   0  0  0  0  0  0  0  0  0  0  0  0
   -1.7043    0.9965    1.5895 H   0  0  0  0  0  0  0  0  0  0  0  0
   -6.1716    0.5724   -0.5283 H   0  0  0  0  0  0  0  0  0  0  0  0
   -3.1459    2.9441    1.4366 H   0  0  0  0  0  0  0  0  0  0  0  0
   -4.8686   -2.9007   -2.1205 H   0  0  0  0  0  0  0  0  0  0  0  0
   -5.0154   -1.1764   -2.5254 H   0  0  0  0  0  0  0  0  0  0  0  0
   -3.4252   -1.8656   -2.0652 H   0  0  0  0  0  0  0  0  0  0  0  0
   -6.6237    4.4061   -1.6455 H   0  0  0  0  0  0  0  0  0  0  0  0
   -5.0884    3.5669   -1.9509 H   0  0  0  0  0  0  0  0  0  0  0  0
   -6.6122    2.6434   -1.8445 H   0  0  0  0  0  0  0  0  0  0  0  0
  1 27  1  0  0  0  0
  1 29  1  0  0  0  0
  2 15  2  0  0  0  0
  3 16  2  0  0  0  0
  4 19  2  0  0  0  0
  5 23  1  0  0  0  0
  5 28  1  0  0  0  0
  6  9  1  0  0  0  0
  6 13  1  0  0  0  0
  6 15  1  0  0  0  0
  7 14  1  0  0  0  0
  7 16  1  0  0  0  0
  7 41  1  0  0  0  0
  8 11  1  0  0  0  0
  8 19  1  0  0  0  0
  8 42  1  0  0  0  0
  9 10  1  0  0  0  0
  9 16  1  0  0  0  0
  9 30  1  0  0  0  0
 10 11  1  0  0  0  0
 10 31  1  0  0  0  0
 10 32  1  0  0  0  0
 11 12  1  0  0  0  0
 11 33  1  0  0  0  0
 12 13  1  0  0  0  0
 12 34  1  0  0  0  0
 12 35  1  0  0  0  0
 13 36  1  0  0  0  0
 13 37  1  0  0  0  0
 14 15  1  0  0  0  0
 14 17  1  0  0  0  0
 14 38  1  0  0  0  0
 17 18  1  0  0  0  0
 17 39  1  0  0  0  0
 17 40  1  0  0  0  0
 18 20  1  0  0  0  0
 18 21  1  0  0  0  0
 18 43  1  0  0  0  0
 19 22  1  0  0  0  0
 20 44  1  0  0  0  0
 20 45  1  0  0  0  0
 20 46  1  0  0  0  0
 21 47  1  0  0  0  0
 21 48  1  0  0  0  0
 21 49  1  0  0  0  0
 22 23  2  0  0  0  0
 22 24  1  0  0  0  0
 23 25  1  0  0  0  0
 24 26  2  0  0  0  0
 24 50  1  0  0  0  0
 25 27  2  0  0  0  0
 25 51  1  0  0  0  0
 26 27  1  0  0  0  0
 26 52  1  0  0  0  0
 28 53  1  0  0  0  0
 28 54  1  0  0  0  0
 28 55  1  0  0  0  0
 29 56  1  0  0  0  0
 29 57  1  0  0  0  0
 29 58  1  0  0  0  0
M  END
> <PUBCHEM_COMPOUND_CID>
11867111

> <PUBCHEM_CONFORMER_RMSD>
1

> <PUBCHEM_CONFORMER_DIVERSEORDER>
1
31
22
26
5
17
24
11
33
9
19
20
27
14
8
4
29
12
6
23
21
10
18
28
3
32
15
7
25
2
30
13
16

> <PUBCHEM_MMFF94_PARTIAL_CHARGES>
28
1 -0.33
11 0.3
13 0.3
14 0.36
15 0.57
16 0.57
19 0.54
2 -0.57
22 0.09
23 0.08
24 -0.15
25 -0.15
26 -0.15
27 0.1
28 0.28
29 0.23
3 -0.57
4 -0.57
41 0.37
42 0.37
5 -0.36
50 0.15
51 0.15
52 0.15
6 -0.66
7 -0.73
8 -0.73
9 0.36

> <PUBCHEM_EFFECTIVE_ROTOR_COUNT>
8.2

> <PUBCHEM_PHARMACOPHORE_FEATURES>
11
1 2 acceptor
1 29 hydrophobe
1 3 acceptor
1 4 acceptor
1 5 acceptor
1 7 donor
1 8 donor
3 18 20 21 hydrophobe
6 22 23 24 25 26 27 rings
6 6 7 9 14 15 16 rings
6 6 9 10 11 12 13 rings

> <PUBCHEM_HEAVY_ATOM_COUNT>
29

> <PUBCHEM_ATOM_DEF_STEREO_COUNT>
3

> <PUBCHEM_ATOM_UDEF_STEREO_COUNT>
0

> <PUBCHEM_BOND_DEF_STEREO_COUNT>
0

> <PUBCHEM_BOND_UDEF_STEREO_COUNT>
0

> <PUBCHEM_ISOTOPIC_ATOM_COUNT>
0

> <PUBCHEM_COMPONENT_COUNT>
1

> <PUBCHEM_CACTVS_TAUTO_COUNT>
4

> <PUBCHEM_CONFORMER_ID>
00B513E700000001

> <PUBCHEM_MMFF94_ENERGY>
102.194

> <PUBCHEM_FEATURE_SELFOVERLAP>
55.855

> <PUBCHEM_SHAPE_FINGERPRINT>
10319926 262 12107779680065824921
10498660 4 18271813380301360195
117089 54 10087642632236295101
11720765 8 17838910235136271782
12047536 79 13623536744937208191
12422481 6 16516247310922863309
12788726 201 17608106564971273371
13103583 49 11747205849337283239
13383661 66 13107819719501913421
13965767 371 17822010874244341966
14251764 30 10231754504754926373
14251764 38 18265340683955601157
14739800 52 18265323088170448080
14950920 106 13334746734309437429
15082195 135 18059566954505769997
15575132 122 18272650182070736687
1813 80 12103850033692393658
19053607 189 18341327877244607840
20511986 3 18261946376139676621
20715895 44 18337952281540570592
20775530 9 9439131892529359944
21033648 144 17967808383666758615
21033648 29 15792001273433378615
21864079 5 18409739464426576915
22393880 68 18342746195334643437
22950370 63 9439407934235005290
235170 7 16917351428667281159
23559900 14 18056766433559756695
2838139 119 18341333413519949980
312425 83 18060150807606371287
341906 21 18334863865358241170
3472631 163 18339642223050105421
34797466 226 17918002672082211133
376196 1 18410017610820152331
44802255 64 17340146829203886708
46194498 28 17346028008534523891
5104073 3 17675925404212496531
56633871 153 8213842775019656953
57724786 102 16878525448086578582
6036956 94 17901673988086788101
6898599 12 18271801307929201397
7808743 9 18341053037822726234
7970288 3 10231742388858055529
9849439 229 18335139752872384011
9981440 41 18334581273674749291

> <PUBCHEM_SHAPE_MULTIPOLES>
562.24
15.63
4.07
1.86
5.37
2.29
0.51
15.84
2.19
2.15
0.46
-1.41
-0.4
-0.24

> <PUBCHEM_SHAPE_SELFOVERLAP>
1167.163

> <PUBCHEM_SHAPE_VOLUME>
322.7

> <PUBCHEM_COORDINATE_TYPE>
2
5
10

$$$$
