51138127
  -OEChem-12032416323D

 65 68  0     1  0  0  0  0  0999 V2000
   -1.2103    2.5803   -0.7431 O   0  0  0  0  0  0  0  0  0  0  0  0
   -7.1890   -0.8916   -0.9497 O   0  0  0  0  0  0  0  0  0  0  0  0
    0.0728   -0.1618   -0.1772 N   0  0  0  0  0  0  0  0  0  0  0  0
    4.9711    1.0627   -0.0708 N   0  0  0  0  0  0  0  0  0  0  0  0
   -1.8650    1.6967    1.3087 N   0  0  0  0  0  0  0  0  0  0  0  0
    0.7469   -1.2755    0.5036 C   0  0  2  0  0  0  0  0  0  0  0  0
    2.2783   -1.2320    0.5027 C   0  0  0  0  0  0  0  0  0  0  0  0
    0.2918    1.1435    0.4291 C   0  0  1  0  0  0  0  0  0  0  0  0
    3.0661   -0.0804    0.2142 C   0  0  0  0  0  0  0  0  0  0  0  0
    0.1921   -2.5403   -0.1762 C   0  0  0  0  0  0  0  0  0  0  0  0
    1.4115    1.9081   -0.2743 C   0  0  0  0  0  0  0  0  0  0  0  0
    2.7579    1.2830   -0.1234 C   0  0  0  0  0  0  0  0  0  0  0  0
    4.4621   -0.1706    0.2611 C   0  0  0  0  0  0  0  0  0  0  0  0
   -1.2244   -2.8957    0.2861 C   0  0  0  0  0  0  0  0  0  0  0  0
    3.9566    1.9449   -0.2980 C   0  0  0  0  0  0  0  0  0  0  0  0
    2.9904   -2.3955    0.8908 C   0  0  0  0  0  0  0  0  0  0  0  0
   -0.9980    1.8833    0.2456 C   0  0  0  0  0  0  0  0  0  0  0  0
    5.1460   -1.3392    0.6004 C   0  0  0  0  0  0  0  0  0  0  0  0
    4.3823   -2.4518    0.9287 C   0  0  0  0  0  0  0  0  0  0  0  0
   -1.6682   -4.1912   -0.3973 C   0  0  0  0  0  0  0  0  0  0  0  0
   -2.2351   -1.7854   -0.0049 C   0  0  0  0  0  0  0  0  0  0  0  0
    6.3762    1.4002   -0.1523 C   0  0  0  0  0  0  0  0  0  0  0  0
    7.0008    0.9480   -1.4391 C   0  0  0  0  0  0  0  0  0  0  0  0
   -3.1666    2.3195    1.3860 C   0  0  0  0  0  0  0  0  0  0  0  0
   -4.2353    1.4670    0.7652 C   0  0  0  0  0  0  0  0  0  0  0  0
    8.0583    0.1316   -1.5092 C   0  0  0  0  0  0  0  0  0  0  0  0
   -4.3381    1.3776   -0.6231 C   0  0  0  0  0  0  0  0  0  0  0  0
   -5.1252    0.7638    1.5771 C   0  0  0  0  0  0  0  0  0  0  0  0
   -5.3309    0.5853   -1.1994 C   0  0  0  0  0  0  0  0  0  0  0  0
   -6.1180   -0.0286    1.0009 C   0  0  0  0  0  0  0  0  0  0  0  0
   -6.2209   -0.1178   -0.3873 C   0  0  0  0  0  0  0  0  0  0  0  0
   -7.2363   -0.9382   -2.3751 C   0  0  0  0  0  0  0  0  0  0  0  0
    0.4421   -1.2856    1.5592 H   0  0  0  0  0  0  0  0  0  0  0  0
    0.5078    1.0666    1.5032 H   0  0  0  0  0  0  0  0  0  0  0  0
    0.8111   -3.4190    0.0262 H   0  0  0  0  0  0  0  0  0  0  0  0
    0.2225   -2.4332   -1.2707 H   0  0  0  0  0  0  0  0  0  0  0  0
    1.2041    2.0102   -1.3489 H   0  0  0  0  0  0  0  0  0  0  0  0
    1.4496    2.9315    0.1240 H   0  0  0  0  0  0  0  0  0  0  0  0
    0.3019   -0.1500   -1.1704 H   0  0  0  0  0  0  0  0  0  0  0  0
   -1.2148   -3.0781    1.3683 H   0  0  0  0  0  0  0  0  0  0  0  0
    4.1569    2.9747   -0.5636 H   0  0  0  0  0  0  0  0  0  0  0  0
    2.4585   -3.2890    1.2095 H   0  0  0  0  0  0  0  0  0  0  0  0
    6.2286   -1.3863    0.6370 H   0  0  0  0  0  0  0  0  0  0  0  0
    4.8752   -3.3725    1.2293 H   0  0  0  0  0  0  0  0  0  0  0  0
   -1.7144   -4.0718   -1.4852 H   0  0  0  0  0  0  0  0  0  0  0  0
   -2.6609   -4.4953   -0.0484 H   0  0  0  0  0  0  0  0  0  0  0  0
   -0.9753   -5.0095   -0.1740 H   0  0  0  0  0  0  0  0  0  0  0  0
   -2.1576   -1.4129   -1.0313 H   0  0  0  0  0  0  0  0  0  0  0  0
   -2.1345   -0.9627    0.7042 H   0  0  0  0  0  0  0  0  0  0  0  0
   -3.2575   -2.1602    0.1242 H   0  0  0  0  0  0  0  0  0  0  0  0
    6.4667    2.4900   -0.0723 H   0  0  0  0  0  0  0  0  0  0  0  0
    6.8753    0.9763    0.7267 H   0  0  0  0  0  0  0  0  0  0  0  0
   -1.5978    1.0761    2.0673 H   0  0  0  0  0  0  0  0  0  0  0  0
    6.5721    1.3232   -2.3651 H   0  0  0  0  0  0  0  0  0  0  0  0
   -3.3754    2.5039    2.4457 H   0  0  0  0  0  0  0  0  0  0  0  0
   -3.1358    3.2965    0.8892 H   0  0  0  0  0  0  0  0  0  0  0  0
    8.4694   -0.1535   -2.4713 H   0  0  0  0  0  0  0  0  0  0  0  0
    8.5289   -0.2644   -0.6162 H   0  0  0  0  0  0  0  0  0  0  0  0
   -3.6630    1.9270   -1.2717 H   0  0  0  0  0  0  0  0  0  0  0  0
   -5.0553    0.8222    2.6600 H   0  0  0  0  0  0  0  0  0  0  0  0
   -5.3554    0.5628   -2.2835 H   0  0  0  0  0  0  0  0  0  0  0  0
   -6.8079   -0.5748    1.6384 H   0  0  0  0  0  0  0  0  0  0  0  0
   -8.0644   -1.5999   -2.6495 H   0  0  0  0  0  0  0  0  0  0  0  0
   -6.3243   -1.3771   -2.7937 H   0  0  0  0  0  0  0  0  0  0  0  0
   -7.4580    0.0455   -2.8027 H   0  0  0  0  0  0  0  0  0  0  0  0
  1 17  2  0  0  0  0
  2 31  1  0  0  0  0
  2 32  1  0  0  0  0
  3  6  1  0  0  0  0
  3  8  1  0  0  0  0
  3 39  1  0  0  0  0
  4 13  1  0  0  0  0
  4 15  1  0  0  0  0
  4 22  1  0  0  0  0
  5 17  1  0  0  0  0
  5 24  1  0  0  0  0
  5 53  1  0  0  0  0
  6  7  1  0  0  0  0
  6 10  1  0  0  0  0
  6 33  1  0  0  0  0
  7  9  2  0  0  0  0
  7 16  1  0  0  0  0
  8 11  1  0  0  0  0
  8 17  1  0  0  0  0
  8 34  1  0  0  0  0
  9 12  1  0  0  0  0
  9 13  1  0  0  0  0
 10 14  1  0  0  0  0
 10 35  1  0  0  0  0
 10 36  1  0  0  0  0
 11 12  1  0  0  0  0
 11 37  1  0  0  0  0
 11 38  1  0  0  0  0
 12 15  2  0  0  0  0
 13 18  2  0  0  0  0
 14 20  1  0  0  0  0
 14 21  1  0  0  0  0
 14 40  1  0  0  0  0
 15 41  1  0  0  0  0
 16 19  2  0  0  0  0
 16 42  1  0  0  0  0
 18 19  1  0  0  0  0
 18 43  1  0  0  0  0
 19 44  1  0  0  0  0
 20 45  1  0  0  0  0
 20 46  1  0  0  0  0
 20 47  1  0  0  0  0
 21 48  1  0  0  0  0
 21 49  1  0  0  0  0
 21 50  1  0  0  0  0
 22 23  1  0  0  0  0
 22 51  1  0  0  0  0
 22 52  1  0  0  0  0
 23 26  2  0  0  0  0
 23 54  1  0  0  0  0
 24 25  1  0  0  0  0
 24 55  1  0  0  0  0
 24 56  1  0  0  0  0
 25 27  2  0  0  0  0
 25 28  1  0  0  0  0
 26 57  1  0  0  0  0
 26 58  1  0  0  0  0
 27 29  1  0  0  0  0
 27 59  1  0  0  0  0
 28 30  2  0  0  0  0
 28 60  1  0  0  0  0
 29 31  2  0  0  0  0
 29 61  1  0  0  0  0
 30 31  1  0  0  0  0
 30 62  1  0  0  0  0
 32 63  1  0  0  0  0
 32 64  1  0  0  0  0
 32 65  1  0  0  0  0
M  END
> <PUBCHEM_COMPOUND_CID>
51138127

> <PUBCHEM_CONFORMER_RMSD>
1

> <PUBCHEM_CONFORMER_DIVERSEORDER>
1
59
67
51
88
73
30
28
5
16
9
29
36
52
90
53
13
39
83
40
68
45
19
56
61
32
81
65
11
63
4
48
21
20
74
55
85
84
6
10
35
82
26
76
60
70
27
47
77
80
3
79
87
25
62
69
50
34
38
43
46
22
54
12
7
58
2
78
18
42
75
64
14
31
41
23
71
91
17
8
37
86
57
92
15
89
49
24
66
44
72
33

> <PUBCHEM_MMFF94_PARTIAL_CHARGES>
40
1 -0.57
11 0.18
12 -0.18
13 -0.15
15 -0.3
16 -0.15
17 0.57
18 -0.15
19 -0.15
2 -0.36
22 0.39
23 -0.29
24 0.44
25 -0.14
26 -0.3
27 -0.15
28 -0.15
29 -0.15
3 -0.9
30 -0.15
31 0.08
32 0.28
39 0.36
4 0.05
41 0.15
42 0.15
43 0.15
44 0.15
5 -0.73
53 0.37
54 0.15
57 0.15
58 0.15
59 0.15
6 0.41
60 0.15
61 0.15
62 0.15
7 -0.14
8 0.33

> <PUBCHEM_EFFECTIVE_ROTOR_COUNT>
9.8

> <PUBCHEM_PHARMACOPHORE_FEATURES>
12
1 1 acceptor
1 2 acceptor
1 26 hydrophobe
1 3 cation
1 3 donor
1 4 cation
1 5 donor
3 14 20 21 hydrophobe
5 4 9 12 13 15 rings
6 25 27 28 29 30 31 rings
6 7 9 13 16 18 19 rings
7 3 6 7 8 9 11 12 rings

> <PUBCHEM_HEAVY_ATOM_COUNT>
32

> <PUBCHEM_ATOM_DEF_STEREO_COUNT>
2

> <PUBCHEM_ATOM_UDEF_STEREO_COUNT>
0

> <PUBCHEM_BOND_DEF_STEREO_COUNT>
0

> <PUBCHEM_BOND_UDEF_STEREO_COUNT>
0

> <PUBCHEM_ISOTOPIC_ATOM_COUNT>
0

> <PUBCHEM_COMPONENT_COUNT>
1

> <PUBCHEM_CACTVS_TAUTO_COUNT>
2

> <PUBCHEM_CONFORMER_ID>
030C4E4F00000001

> <PUBCHEM_MMFF94_ENERGY>
80.5926

> <PUBCHEM_FEATURE_SELFOVERLAP>
61.026

> <PUBCHEM_SHAPE_FINGERPRINT>
11136131 41 18115298961245920026
11513181 2 17844817997180242439
11578080 2 17487882618120906090
12788726 201 17988646263622364225
12838862 33 18262226820698879976
13692114 37 18271517676895089346
13782708 43 14332829522472104941
14068700 675 17917985101777620569
14394314 77 18342745096557103185
1454969 45 18409450267162062277
14767858 380 18342731936512550253
14790565 3 18411139099789501833
14840074 17 18260270732850082765
14931854 50 18342167878452389637
15064986 266 18187652354593343705
15131766 46 15504655038570620332
15183329 4 18413106173347068711
1577012 14 18341614776463644249
19319366 153 17895191082787486722
20028762 73 18200588090743899895
21026386 80 15863789488029797598
21033648 29 16081658772912750849
23522609 53 18057911137224286249
23559900 14 18200593734816197696
23576562 1 17896611776364553772
25147074 1 18260543434147728266
335352 9 18335710438826926404
350125 39 18408889529739056992
439807 62 18410850002543813079
44880568 143 16370724799545104093
484989 97 18121775291482722343
59755656 215 18341341028739312372

> <PUBCHEM_SHAPE_MULTIPOLES>
631.86
19.14
3.49
1.37
0.67
2.73
-0.38
-2.96
-7.98
0.19
0.29
1.51
-0.09
-2.51

> <PUBCHEM_SHAPE_SELFOVERLAP>
1350.809

> <PUBCHEM_SHAPE_VOLUME>
350.8

> <PUBCHEM_COORDINATE_TYPE>
2
5
10

$$$$
