45783302
  -OEChem-12032416273D

 61 65  0     1  0  0  0  0  0999 V2000
   -2.9989   -0.8944    2.1876 O   0  0  0  0  0  0  0  0  0  0  0  0
    5.0811   -1.8073   -2.6048 O   0  0  0  0  0  0  0  0  0  0  0  0
    2.4804    2.6850   -0.9990 O   0  0  0  0  0  0  0  0  0  0  0  0
   -3.8344   -0.4759   -1.3665 N   0  0  1  0  0  0  0  0  0  0  0  0
   -1.5643   -1.0752    0.4771 N   0  0  0  0  0  0  0  0  0  0  0  0
    3.4218   -1.3522   -0.3825 N   0  0  0  0  0  0  0  0  0  0  0  0
   -1.7179   -0.9106    2.7538 N   0  0  0  0  0  0  0  0  0  0  0  0
    3.2897   -1.1814    1.9742 N   0  0  0  0  0  0  0  0  0  0  0  0
    0.7915    3.5435    0.4042 N   0  0  0  0  0  0  0  0  0  0  0  0
   -4.0707   -0.9997   -0.0063 C   0  0  1  0  0  0  0  0  0  0  0  0
   -4.6363   -2.4151   -0.2250 C   0  0  0  0  0  0  0  0  0  0  0  0
   -4.7389   -2.5735   -1.7353 C   0  0  0  0  0  0  0  0  0  0  0  0
   -4.7975   -1.1460   -2.2405 C   0  0  0  0  0  0  0  0  0  0  0  0
   -3.9366    0.9754   -1.4489 C   0  0  0  0  0  0  0  0  0  0  0  0
   -2.8182   -0.9957    0.8448 C   0  0  0  0  0  0  0  0  0  0  0  0
   -2.6855    1.6544   -0.9584 C   0  0  0  0  0  0  0  0  0  0  0  0
   -0.9268   -1.0190    1.6822 C   0  0  0  0  0  0  0  0  0  0  0  0
   -2.7524    2.5563    0.1035 C   0  0  0  0  0  0  0  0  0  0  0  0
   -1.4597    1.3820   -1.5659 C   0  0  0  0  0  0  0  0  0  0  0  0
    0.5032   -1.0753    1.7812 C   0  0  0  0  0  0  0  0  0  0  0  0
    3.2128   -2.5292   -1.2370 C   0  0  0  0  0  0  0  0  0  0  0  0
    4.7708   -0.7776   -0.4300 C   0  0  0  0  0  0  0  0  0  0  0  0
   -1.5937    3.1859    0.5578 C   0  0  0  0  0  0  0  0  0  0  0  0
   -0.3009    2.0117   -1.1117 C   0  0  0  0  0  0  0  0  0  0  0  0
    2.6553   -1.2370    0.7818 C   0  0  0  0  0  0  0  0  0  0  0  0
    3.7214   -2.2403   -2.6448 C   0  0  0  0  0  0  0  0  0  0  0  0
    5.1970   -0.5829   -1.8809 C   0  0  0  0  0  0  0  0  0  0  0  0
    1.2786   -1.1882    0.6326 C   0  0  0  0  0  0  0  0  0  0  0  0
   -0.3680    2.9137   -0.0498 C   0  0  0  0  0  0  0  0  0  0  0  0
    1.1194   -1.0154    3.0263 C   0  0  0  0  0  0  0  0  0  0  0  0
    2.5032   -1.0719    3.0683 C   0  0  0  0  0  0  0  0  0  0  0  0
    2.0996    3.3979   -0.0763 C   0  0  0  0  0  0  0  0  0  0  0  0
    3.0747    4.2578    0.6882 C   0  0  0  0  0  0  0  0  0  0  0  0
   -4.8419   -0.4101    0.5093 H   0  0  0  0  0  0  0  0  0  0  0  0
   -4.0197   -3.2100    0.2085 H   0  0  0  0  0  0  0  0  0  0  0  0
   -5.6366   -2.4850    0.2196 H   0  0  0  0  0  0  0  0  0  0  0  0
   -5.6136   -3.1599   -2.0315 H   0  0  0  0  0  0  0  0  0  0  0  0
   -3.8436   -3.0787   -2.1187 H   0  0  0  0  0  0  0  0  0  0  0  0
   -5.8098   -0.7402   -2.1179 H   0  0  0  0  0  0  0  0  0  0  0  0
   -4.5125   -1.0807   -3.2951 H   0  0  0  0  0  0  0  0  0  0  0  0
   -4.0562    1.2818   -2.4978 H   0  0  0  0  0  0  0  0  0  0  0  0
   -4.8287    1.3504   -0.9302 H   0  0  0  0  0  0  0  0  0  0  0  0
   -3.7001    2.7764    0.5876 H   0  0  0  0  0  0  0  0  0  0  0  0
   -1.3933    0.6846   -2.3970 H   0  0  0  0  0  0  0  0  0  0  0  0
    2.1599   -2.8240   -1.2986 H   0  0  0  0  0  0  0  0  0  0  0  0
    3.7699   -3.3714   -0.8080 H   0  0  0  0  0  0  0  0  0  0  0  0
    5.4658   -1.4600    0.0742 H   0  0  0  0  0  0  0  0  0  0  0  0
    4.8028    0.1901    0.0843 H   0  0  0  0  0  0  0  0  0  0  0  0
   -1.6604    3.8858    1.3870 H   0  0  0  0  0  0  0  0  0  0  0  0
    0.6102    1.7490   -1.6308 H   0  0  0  0  0  0  0  0  0  0  0  0
    3.1099   -1.4775   -3.1419 H   0  0  0  0  0  0  0  0  0  0  0  0
    3.6762   -3.1498   -3.2521 H   0  0  0  0  0  0  0  0  0  0  0  0
    6.2433   -0.2641   -1.9230 H   0  0  0  0  0  0  0  0  0  0  0  0
    4.5944    0.1901   -2.3734 H   0  0  0  0  0  0  0  0  0  0  0  0
    0.8243   -1.2169   -0.3535 H   0  0  0  0  0  0  0  0  0  0  0  0
    0.5668   -0.9267    3.9558 H   0  0  0  0  0  0  0  0  0  0  0  0
    3.0327   -1.0287    4.0144 H   0  0  0  0  0  0  0  0  0  0  0  0
    0.6599    4.1867    1.1821 H   0  0  0  0  0  0  0  0  0  0  0  0
    4.0878    4.0950    0.3100 H   0  0  0  0  0  0  0  0  0  0  0  0
    2.8133    5.3124    0.5641 H   0  0  0  0  0  0  0  0  0  0  0  0
    3.0472    3.9962    1.7498 H   0  0  0  0  0  0  0  0  0  0  0  0
  1  7  1  0  0  0  0
  1 15  1  0  0  0  0
  2 26  1  0  0  0  0
  2 27  1  0  0  0  0
  3 32  2  0  0  0  0
  4 10  1  0  0  0  0
  4 13  1  0  0  0  0
  4 14  1  0  0  0  0
  5 15  2  0  0  0  0
  5 17  1  0  0  0  0
  6 21  1  0  0  0  0
  6 22  1  0  0  0  0
  6 25  1  0  0  0  0
  7 17  2  0  0  0  0
  8 25  2  0  0  0  0
  8 31  1  0  0  0  0
  9 29  1  0  0  0  0
  9 32  1  0  0  0  0
  9 58  1  0  0  0  0
 10 11  1  0  0  0  0
 10 15  1  0  0  0  0
 10 34  1  0  0  0  0
 11 12  1  0  0  0  0
 11 35  1  0  0  0  0
 11 36  1  0  0  0  0
 12 13  1  0  0  0  0
 12 37  1  0  0  0  0
 12 38  1  0  0  0  0
 13 39  1  0  0  0  0
 13 40  1  0  0  0  0
 14 16  1  0  0  0  0
 14 41  1  0  0  0  0
 14 42  1  0  0  0  0
 16 18  2  0  0  0  0
 16 19  1  0  0  0  0
 17 20  1  0  0  0  0
 18 23  1  0  0  0  0
 18 43  1  0  0  0  0
 19 24  2  0  0  0  0
 19 44  1  0  0  0  0
 20 28  2  0  0  0  0
 20 30  1  0  0  0  0
 21 26  1  0  0  0  0
 21 45  1  0  0  0  0
 21 46  1  0  0  0  0
 22 27  1  0  0  0  0
 22 47  1  0  0  0  0
 22 48  1  0  0  0  0
 23 29  2  0  0  0  0
 23 49  1  0  0  0  0
 24 29  1  0  0  0  0
 24 50  1  0  0  0  0
 25 28  1  0  0  0  0
 26 51  1  0  0  0  0
 26 52  1  0  0  0  0
 27 53  1  0  0  0  0
 27 54  1  0  0  0  0
 28 55  1  0  0  0  0
 30 31  2  0  0  0  0
 30 56  1  0  0  0  0
 31 57  1  0  0  0  0
 32 33  1  0  0  0  0
 33 59  1  0  0  0  0
 33 60  1  0  0  0  0
 33 61  1  0  0  0  0
M  END
> <PUBCHEM_COMPOUND_CID>
45783302

> <PUBCHEM_CONFORMER_RMSD>
1

> <PUBCHEM_CONFORMER_DIVERSEORDER>
1
132
35
29
98
96
164
115
17
163
80
180
177
161
59
63
83
167
111
117
140
55
42
47
50
69
34
7
192
68
23
142
128
104
125
157
120
199
5
193
160
99
97
54
159
100
95
6
37
170
194
70
135
179
92
19
33
145
53
78
118
190
88
200
182
93
171
3
146
196
181
79
2
62
130
21
15
60
90
154
101
85
56
51
176
129
165
25
183
195
4
153
147
149
158
18
87
108
162
45
10
185
131
178
136
107
166
77
84
72
184
156
11
152
197
73
119
71
198
189
121
49
150
67
46
134
186
141
122
13
61
28
81
187
148
110
31
124
8
127
52
74
113
39
66
14
191
188
76
112
64
133
89
16
65
116
27
155
172
43
109
36
168
26
139
94
30
9
105
169
82
175
103
57
174
151
123
20
24
126
44
114
106
22
138
102
91
143
144
58
41
137
75
38
12
86
48
40
173
32

> <PUBCHEM_MMFF94_PARTIAL_CHARGES>
39
1 -0.02
10 0.45
13 0.27
14 0.41
15 0.3
16 -0.14
17 0.46
18 -0.15
19 -0.15
2 -0.56
20 0.05
21 0.37
22 0.37
23 -0.15
24 -0.15
25 0.41
26 0.28
27 0.28
28 -0.15
29 0.12
3 -0.57
30 -0.15
31 0.16
32 0.57
33 0.06
4 -0.81
43 0.15
44 0.15
49 0.15
5 -0.57
50 0.15
55 0.15
56 0.15
57 0.15
58 0.37
6 -0.84
7 -0.41
8 -0.62
9 -0.55

> <PUBCHEM_EFFECTIVE_ROTOR_COUNT>
9.2

> <PUBCHEM_PHARMACOPHORE_FEATURES>
11
1 2 acceptor
1 3 acceptor
1 4 cation
1 9 donor
3 5 7 17 cation
3 6 8 25 cation
5 1 5 7 15 17 rings
5 4 10 11 12 13 rings
6 16 18 19 23 24 29 rings
6 2 6 21 22 26 27 rings
6 8 20 25 28 30 31 rings

> <PUBCHEM_HEAVY_ATOM_COUNT>
33

> <PUBCHEM_ATOM_DEF_STEREO_COUNT>
1

> <PUBCHEM_ATOM_UDEF_STEREO_COUNT>
0

> <PUBCHEM_BOND_DEF_STEREO_COUNT>
0

> <PUBCHEM_BOND_UDEF_STEREO_COUNT>
0

> <PUBCHEM_ISOTOPIC_ATOM_COUNT>
0

> <PUBCHEM_COMPONENT_COUNT>
1

> <PUBCHEM_CACTVS_TAUTO_COUNT>
2

> <PUBCHEM_CONFORMER_ID>
02BA990600000001

> <PUBCHEM_MMFF94_ENERGY>
86.933

> <PUBCHEM_FEATURE_SELFOVERLAP>
55.823

> <PUBCHEM_SHAPE_FINGERPRINT>
1100329 8 18045757050097017025
11524674 6 17547839107295850848
12596599 1 18269258085314306089
12788726 201 18045216042477272725
13383661 66 16973096960127252407
13761468 95 17250348197574282390
14040221 310 17840330834893789550
14114206 34 17896050861892911628
14910302 57 17916011378846242799
15968369 153 18338251413339150289
17909252 39 18271530896155209892
19319366 153 17317042434264222769
20028762 73 16244066935773684619
20642791 35 18334287657278828409
20691752 17 16951382409249080769
20775438 99 17907275990818366159
23559900 14 18343010074004825349
238918 7 17829607615061392840
3298306 158 17682099312563956529
4093350 32 18200303450723808297
46194498 28 18341891960625594902
5081480 168 18334019419201075825
59755656 215 17320397405355761111
70251023 43 18412549833553992175

> <PUBCHEM_SHAPE_MULTIPOLES>
631.63
10.17
4.56
2.99
0.36
5.5
1.07
-7.14
-7.01
1.66
-0.8
1.78
-2.3
0.92

> <PUBCHEM_SHAPE_SELFOVERLAP>
1364.904

> <PUBCHEM_SHAPE_VOLUME>
346.5

> <PUBCHEM_COORDINATE_TYPE>
2
5
10

$$$$
