7134475
  -OEChem-12032416153D

 53 54  0     1  0  0  0  0  0999 V2000
    3.3315   -0.1821   -1.3992 S   0  0  0  0  0  0  0  0  0  0  0  0
    0.1242    4.1988    2.0062 F   0  0  0  0  0  0  0  0  0  0  0  0
    0.2905    2.1269    2.6258 F   0  0  0  0  0  0  0  0  0  0  0  0
    2.0532    3.4002    2.6143 F   0  0  0  0  0  0  0  0  0  0  0  0
   -0.9387   -1.0653    1.5636 O   0  0  0  0  0  0  0  0  0  0  0  0
    2.9592   -3.1969    0.7094 O   0  0  0  0  0  0  0  0  0  0  0  0
    0.8303   -4.9766    1.5782 O   0  0  0  0  0  0  0  0  0  0  0  0
   -3.2651   -2.7568   -0.0332 O   0  0  0  0  0  0  0  0  0  0  0  0
    3.9377   -0.0003   -2.7043 O   0  0  0  0  0  0  0  0  0  0  0  0
    4.1649   -0.3784   -0.2285 O   0  0  0  0  0  0  0  0  0  0  0  0
   -3.5049    2.1838   -0.2386 O   0  0  0  0  0  0  0  0  0  0  0  0
    2.1961   -1.4380   -1.4707 N   0  0  0  0  0  0  0  0  0  0  0  0
   -2.8146   -0.4934   -0.3377 N   0  0  0  0  0  0  0  0  0  0  0  0
   -5.7154    1.5747   -0.1010 N   0  0  0  0  0  0  0  0  0  0  0  0
    1.3458   -1.7299   -0.2844 C   0  0  1  0  0  0  0  0  0  0  0  0
   -1.0733   -1.9392    0.4491 C   0  0  1  0  0  0  0  0  0  0  0  0
   -0.1208   -1.5256   -0.6742 C   0  0  0  0  0  0  0  0  0  0  0  0
    1.6262   -3.1585    0.1934 C   0  0  2  0  0  0  0  0  0  0  0  0
   -0.8029   -3.3724    0.9022 C   0  0  0  0  0  0  0  0  0  0  0  0
    0.6579   -3.5869    1.3016 C   0  0  1  0  0  0  0  0  0  0  0  0
   -2.5018   -1.7958    0.0122 C   0  0  0  0  0  0  0  0  0  0  0  0
   -4.1192   -0.0944   -0.8141 C   0  0  2  0  0  0  0  0  0  0  0  0
    2.3075    1.2215   -1.0733 C   0  0  0  0  0  0  0  0  0  0  0  0
    2.0307    1.5928    0.2424 C   0  0  0  0  0  0  0  0  0  0  0  0
   -4.2036   -0.1958   -2.3288 C   0  0  0  0  0  0  0  0  0  0  0  0
    1.7763    1.9577   -2.1323 C   0  0  0  0  0  0  0  0  0  0  0  0
   -4.3811    1.3293   -0.3475 C   0  0  0  0  0  0  0  0  0  0  0  0
    1.2227    2.7004    0.4991 C   0  0  0  0  0  0  0  0  0  0  0  0
    0.9684    3.0654   -1.8756 C   0  0  0  0  0  0  0  0  0  0  0  0
    0.6916    3.4367   -0.5598 C   0  0  0  0  0  0  0  0  0  0  0  0
    0.9265    3.0979    1.9056 C   0  0  0  0  0  0  0  0  0  0  0  0
    1.6010   -1.0511    0.5339 H   0  0  0  0  0  0  0  0  0  0  0  0
   -0.2523   -0.4723   -0.9485 H   0  0  0  0  0  0  0  0  0  0  0  0
   -0.3490   -2.1044   -1.5802 H   0  0  0  0  0  0  0  0  0  0  0  0
    1.5896   -3.8706   -0.6398 H   0  0  0  0  0  0  0  0  0  0  0  0
   -1.4383   -3.6326    1.7599 H   0  0  0  0  0  0  0  0  0  0  0  0
   -1.0646   -4.0873    0.1096 H   0  0  0  0  0  0  0  0  0  0  0  0
    0.8855   -3.0467    2.2286 H   0  0  0  0  0  0  0  0  0  0  0  0
    1.9078   -1.8382   -2.3713 H   0  0  0  0  0  0  0  0  0  0  0  0
   -0.8854   -0.1497    1.2432 H   0  0  0  0  0  0  0  0  0  0  0  0
    3.0121   -2.5778    1.4575 H   0  0  0  0  0  0  0  0  0  0  0  0
    0.2269   -5.2090    2.3046 H   0  0  0  0  0  0  0  0  0  0  0  0
   -2.1074    0.2313   -0.2700 H   0  0  0  0  0  0  0  0  0  0  0  0
   -4.8641   -0.7645   -0.3683 H   0  0  0  0  0  0  0  0  0  0  0  0
    2.4428    1.0355    1.0793 H   0  0  0  0  0  0  0  0  0  0  0  0
   -3.4641    0.4540   -2.8107 H   0  0  0  0  0  0  0  0  0  0  0  0
   -4.0145   -1.2206   -2.6657 H   0  0  0  0  0  0  0  0  0  0  0  0
   -5.1931    0.1058   -2.6883 H   0  0  0  0  0  0  0  0  0  0  0  0
    1.9739    1.6811   -3.1640 H   0  0  0  0  0  0  0  0  0  0  0  0
    0.5531    3.6373   -2.7001 H   0  0  0  0  0  0  0  0  0  0  0  0
    0.0592    4.3017   -0.3802 H   0  0  0  0  0  0  0  0  0  0  0  0
   -6.0282    2.4899    0.2055 H   0  0  0  0  0  0  0  0  0  0  0  0
   -6.4311    0.8642   -0.2148 H   0  0  0  0  0  0  0  0  0  0  0  0
  1  9  2  0  0  0  0
  1 10  2  0  0  0  0
  1 12  1  0  0  0  0
  1 23  1  0  0  0  0
  2 31  1  0  0  0  0
  3 31  1  0  0  0  0
  4 31  1  0  0  0  0
  5 16  1  0  0  0  0
  5 40  1  0  0  0  0
  6 18  1  0  0  0  0
  6 41  1  0  0  0  0
  7 20  1  0  0  0  0
  7 42  1  0  0  0  0
  8 21  2  0  0  0  0
 11 27  2  0  0  0  0
 12 15  1  0  0  0  0
 12 39  1  0  0  0  0
 13 21  1  0  0  0  0
 13 22  1  0  0  0  0
 13 43  1  0  0  0  0
 14 27  1  0  0  0  0
 14 52  1  0  0  0  0
 14 53  1  0  0  0  0
 15 17  1  0  0  0  0
 15 18  1  0  0  0  0
 15 32  1  0  0  0  0
 16 17  1  0  0  0  0
 16 19  1  0  0  0  0
 16 21  1  0  0  0  0
 17 33  1  0  0  0  0
 17 34  1  0  0  0  0
 18 20  1  0  0  0  0
 18 35  1  0  0  0  0
 19 20  1  0  0  0  0
 19 36  1  0  0  0  0
 19 37  1  0  0  0  0
 20 38  1  0  0  0  0
 22 25  1  0  0  0  0
 22 27  1  0  0  0  0
 22 44  1  0  0  0  0
 23 24  1  0  0  0  0
 23 26  2  0  0  0  0
 24 28  2  0  0  0  0
 24 45  1  0  0  0  0
 25 46  1  0  0  0  0
 25 47  1  0  0  0  0
 25 48  1  0  0  0  0
 26 29  1  0  0  0  0
 26 49  1  0  0  0  0
 28 30  1  0  0  0  0
 28 31  1  0  0  0  0
 29 30  2  0  0  0  0
 29 50  1  0  0  0  0
 30 51  1  0  0  0  0
M  END
> <PUBCHEM_COMPOUND_CID>
7134475

> <PUBCHEM_CONFORMER_RMSD>
1

> <PUBCHEM_CONFORMER_DIVERSEORDER>
7
48
210
230
204
137
86
157
141
29
81
220
85
213
145
118
53
134
63
13
132
155
61
171
107
92
105
40
112
184
221
160
168
235
125
164
91
214
178
108
181
161
17
5
205
224
212
203
216
193
90
102
122
207
99
19
223
54
110
82
123
26
227
106
237
14
175
103
6
163
228
89
222
233
3
206
176
98
79
211
77
190
117
169
138
41
188
8
208
158
67
217
44
39
159
232
111
236
78
100
9
58
179
32
152
189
183
96
93
187
2
70
156
38
21
196
76
143
97
23
31
71
148
231
185
174
147
119
46
62
104
16
201
146
142
42
15
167
35
12
215
218
95
144
115
83
166
191
150
124
140
75
173
36
73
4
116
139
165
28
101
66
55
24
162
202
219
199
60
200
22
20
239
225
27
114
198
151
180
170
154
177
30
128
135
127
121
195
59
1
49
80
50
57
109
72
149
238
182
133
229
33
209
18
131
25
45
120
94
153
56
11
172
192
52
197
43
51
68
65
64
34
87
88
84
37
10
186
47
234
113
226
136
194
74
69
129
130
126

> <PUBCHEM_MMFF94_PARTIAL_CHARGES>
39
1 1.45
10 -0.65
11 -0.57
12 -0.91
13 -0.73
14 -0.8
15 0.36
16 0.34
18 0.28
2 -0.34
20 0.28
21 0.57
22 0.36
23 -0.01
24 -0.15
26 -0.15
27 0.57
28 -0.14
29 -0.15
3 -0.34
30 -0.15
31 1.16
39 0.42
4 -0.34
40 0.4
41 0.4
42 0.4
43 0.37
45 0.15
49 0.15
5 -0.68
50 0.15
51 0.15
52 0.37
53 0.37
6 -0.68
7 -0.68
8 -0.57
9 -0.65

> <PUBCHEM_EFFECTIVE_ROTOR_COUNT>
9.2

> <PUBCHEM_PHARMACOPHORE_FEATURES>
15
1 10 acceptor
1 11 acceptor
1 12 donor
1 13 donor
1 14 donor
1 5 acceptor
1 5 donor
1 6 acceptor
1 6 donor
1 7 acceptor
1 7 donor
1 8 acceptor
1 9 acceptor
6 15 16 17 18 19 20 rings
6 23 24 26 28 29 30 rings

> <PUBCHEM_HEAVY_ATOM_COUNT>
31

> <PUBCHEM_ATOM_DEF_STEREO_COUNT>
5

> <PUBCHEM_ATOM_UDEF_STEREO_COUNT>
0

> <PUBCHEM_BOND_DEF_STEREO_COUNT>
0

> <PUBCHEM_BOND_UDEF_STEREO_COUNT>
0

> <PUBCHEM_ISOTOPIC_ATOM_COUNT>
0

> <PUBCHEM_COMPONENT_COUNT>
1

> <PUBCHEM_CACTVS_TAUTO_COUNT>
4

> <PUBCHEM_CONFORMER_ID>
006CDD0B00000007

> <PUBCHEM_MMFF94_ENERGY>
54.903

> <PUBCHEM_FEATURE_SELFOVERLAP>
76.159

> <PUBCHEM_SHAPE_FINGERPRINT>
10165383 225 15677500675395745148
12156800 1 16524089993729296696
12769317 202 18260824874110670303
12788726 201 17840878377607106725
14117953 113 15887152644618714749
14466204 15 18333725840869459398
14725015 67 18193271025718425131
14931854 50 18339370647588131397
17921350 177 16806423929544812965
20600515 1 18410011044473844884
20764821 26 18261678189612243749
23536364 44 17764917753999423796
23559900 14 17615134716600026638
238 59 17557143110011432525
3187 122 16392107375295041443
469060 322 17176316984464834990
6438718 38 16479720486480886664
84936 182 18335420175166057583

> <PUBCHEM_SHAPE_MULTIPOLES>
563.97
7.19
6.21
2.3
8.39
2.59
0.4
-2.99
-3.63
-1.56
3.63
-1.54
-1.78
1.04

> <PUBCHEM_SHAPE_SELFOVERLAP>
1170.553

> <PUBCHEM_SHAPE_VOLUME>
323.8

> <PUBCHEM_COORDINATE_TYPE>
2
5
10

$$$$
