7144183
  -OEChem-12032416363D

 55 59  0     1  0  0  0  0  0999 V2000
   -6.6952   -0.3015    1.3750 F   0  0  0  0  0  0  0  0  0  0  0  0
   -4.9443    0.9523    1.7462 F   0  0  0  0  0  0  0  0  0  0  0  0
   -6.4868    1.5877    0.2967 F   0  0  0  0  0  0  0  0  0  0  0  0
    4.0123    2.2626   -2.3723 O   0  0  0  0  0  0  0  0  0  0  0  0
    4.3118   -0.9714    1.5265 O   0  0  0  0  0  0  0  0  0  0  0  0
   -5.1230   -0.1684   -0.2394 O   0  0  0  0  0  0  0  0  0  0  0  0
    2.4080    0.3337    1.8999 N   0  0  0  0  0  0  0  0  0  0  0  0
    2.3555    2.0863   -0.7261 N   0  0  0  0  0  0  0  0  0  0  0  0
   -0.5131   -5.8873   -1.3571 N   0  0  0  0  0  0  0  0  0  0  0  0
    2.8011    2.7764    1.7046 C   0  0  1  0  0  0  0  0  0  0  0  0
    0.6150    1.8426    1.0705 C   0  0  2  0  0  0  0  0  0  0  0  0
    1.3008    3.0240    1.7556 C   0  0  0  0  0  0  0  0  0  0  0  0
    3.1592    1.4691    2.4316 C   0  0  0  0  0  0  0  0  0  0  0  0
    3.2399    2.7560    0.2391 C   0  0  0  0  0  0  0  0  0  0  0  0
    0.9541    0.5396    1.8266 C   0  0  0  0  0  0  0  0  0  0  0  0
    1.0352    1.7203   -0.3963 C   0  0  0  0  0  0  0  0  0  0  0  0
    0.2022    1.2482   -1.3602 C   0  0  0  0  0  0  0  0  0  0  0  0
    2.8734    1.9476   -2.0260 C   0  0  0  0  0  0  0  0  0  0  0  0
    3.0949   -0.8020    1.4639 C   0  0  0  0  0  0  0  0  0  0  0  0
    0.7031    1.0872   -2.7118 C   0  0  0  0  0  0  0  0  0  0  0  0
    1.9562    1.3931   -3.0475 C   0  0  0  0  0  0  0  0  0  0  0  0
   -1.1988    0.8754   -1.0647 C   0  0  0  0  0  0  0  0  0  0  0  0
    2.3208   -1.8923    0.8589 C   0  0  0  0  0  0  0  0  0  0  0  0
   -1.4980   -0.4222   -0.6613 C   0  0  0  0  0  0  0  0  0  0  0  0
   -2.2076    1.8252   -1.1929 C   0  0  0  0  0  0  0  0  0  0  0  0
    2.0969   -1.9036   -0.5156 C   0  0  0  0  0  0  0  0  0  0  0  0
    1.8152   -2.9113    1.6621 C   0  0  0  0  0  0  0  0  0  0  0  0
   -2.8191   -0.7735   -0.3834 C   0  0  0  0  0  0  0  0  0  0  0  0
   -3.5285    1.4739   -0.9149 C   0  0  0  0  0  0  0  0  0  0  0  0
   -3.8344    0.1746   -0.5103 C   0  0  0  0  0  0  0  0  0  0  0  0
    1.3625   -2.9407   -1.0906 C   0  0  0  0  0  0  0  0  0  0  0  0
    1.0808   -3.9484    1.0870 C   0  0  0  0  0  0  0  0  0  0  0  0
    0.8544   -3.9631   -0.2893 C   0  0  0  0  0  0  0  0  0  0  0  0
    0.1002   -5.0242   -0.8783 C   0  0  0  0  0  0  0  0  0  0  0  0
   -5.8047    0.5342    0.7938 C   0  0  0  0  0  0  0  0  0  0  0  0
    3.3270    3.5936    2.2136 H   0  0  0  0  0  0  0  0  0  0  0  0
   -0.4641    2.0138    1.1518 H   0  0  0  0  0  0  0  0  0  0  0  0
    1.0450    3.9660    1.2545 H   0  0  0  0  0  0  0  0  0  0  0  0
    0.9633    3.1118    2.7956 H   0  0  0  0  0  0  0  0  0  0  0  0
    2.9052    1.5504    3.4956 H   0  0  0  0  0  0  0  0  0  0  0  0
    4.2371    1.2851    2.3707 H   0  0  0  0  0  0  0  0  0  0  0  0
    4.2459    2.3266    0.1493 H   0  0  0  0  0  0  0  0  0  0  0  0
    3.3250    3.7934   -0.1130 H   0  0  0  0  0  0  0  0  0  0  0  0
    0.5943    0.6071    2.8611 H   0  0  0  0  0  0  0  0  0  0  0  0
    0.4520   -0.3183    1.3800 H   0  0  0  0  0  0  0  0  0  0  0  0
    0.0300    0.6894   -3.4655 H   0  0  0  0  0  0  0  0  0  0  0  0
    2.3239    1.2631   -4.0584 H   0  0  0  0  0  0  0  0  0  0  0  0
   -0.7265   -1.1743   -0.5601 H   0  0  0  0  0  0  0  0  0  0  0  0
   -1.9840    2.8412   -1.5084 H   0  0  0  0  0  0  0  0  0  0  0  0
    2.5001   -1.1201   -1.1495 H   0  0  0  0  0  0  0  0  0  0  0  0
    1.9857   -2.9083    2.7354 H   0  0  0  0  0  0  0  0  0  0  0  0
   -3.0509   -1.7874   -0.0690 H   0  0  0  0  0  0  0  0  0  0  0  0
   -4.3103    2.2204   -1.0244 H   0  0  0  0  0  0  0  0  0  0  0  0
    1.1959   -2.9384   -2.1652 H   0  0  0  0  0  0  0  0  0  0  0  0
    0.6905   -4.7378    1.7250 H   0  0  0  0  0  0  0  0  0  0  0  0
  1 35  1  0  0  0  0
  2 35  1  0  0  0  0
  3 35  1  0  0  0  0
  4 18  2  0  0  0  0
  5 19  2  0  0  0  0
  6 30  1  0  0  0  0
  6 35  1  0  0  0  0
  7 13  1  0  0  0  0
  7 15  1  0  0  0  0
  7 19  1  0  0  0  0
  8 14  1  0  0  0  0
  8 16  1  0  0  0  0
  8 18  1  0  0  0  0
  9 34  3  0  0  0  0
 10 12  1  0  0  0  0
 10 13  1  0  0  0  0
 10 14  1  0  0  0  0
 10 36  1  0  0  0  0
 11 12  1  0  0  0  0
 11 15  1  0  0  0  0
 11 16  1  0  0  0  0
 11 37  1  0  0  0  0
 12 38  1  0  0  0  0
 12 39  1  0  0  0  0
 13 40  1  0  0  0  0
 13 41  1  0  0  0  0
 14 42  1  0  0  0  0
 14 43  1  0  0  0  0
 15 44  1  0  0  0  0
 15 45  1  0  0  0  0
 16 17  2  0  0  0  0
 17 20  1  0  0  0  0
 17 22  1  0  0  0  0
 18 21  1  0  0  0  0
 19 23  1  0  0  0  0
 20 21  2  0  0  0  0
 20 46  1  0  0  0  0
 21 47  1  0  0  0  0
 22 24  2  0  0  0  0
 22 25  1  0  0  0  0
 23 26  2  0  0  0  0
 23 27  1  0  0  0  0
 24 28  1  0  0  0  0
 24 48  1  0  0  0  0
 25 29  2  0  0  0  0
 25 49  1  0  0  0  0
 26 31  1  0  0  0  0
 26 50  1  0  0  0  0
 27 32  2  0  0  0  0
 27 51  1  0  0  0  0
 28 30  2  0  0  0  0
 28 52  1  0  0  0  0
 29 30  1  0  0  0  0
 29 53  1  0  0  0  0
 31 33  2  0  0  0  0
 31 54  1  0  0  0  0
 32 33  1  0  0  0  0
 32 55  1  0  0  0  0
 33 34  1  0  0  0  0
M  END
> <PUBCHEM_COMPOUND_CID>
7144183

> <PUBCHEM_CONFORMER_RMSD>
0.8

> <PUBCHEM_CONFORMER_DIVERSEORDER>
1
7
10
12
6
4
11
8
5
9
3
2

> <PUBCHEM_MMFF94_PARTIAL_CHARGES>
43
1 -0.34
11 0.14
13 0.3
14 0.3
15 0.3
16 -0.03
17 -0.03
18 0.62
19 0.54
2 -0.34
20 -0.15
21 -0.14
22 0.03
23 0.09
24 -0.15
25 -0.15
26 -0.15
27 -0.15
28 -0.15
29 -0.15
3 -0.34
30 0.08
31 -0.15
32 -0.15
33 0.07
34 0.48
35 1.3
4 -0.57
46 0.15
47 0.15
48 0.15
49 0.15
5 -0.57
50 0.15
51 0.15
52 0.15
53 0.15
54 0.15
55 0.15
6 -0.36
7 -0.66
8 -0.47
9 -0.56

> <PUBCHEM_EFFECTIVE_ROTOR_COUNT>
6

> <PUBCHEM_PHARMACOPHORE_FEATURES>
9
1 4 acceptor
1 5 acceptor
1 6 acceptor
1 9 acceptor
6 22 24 25 28 29 30 rings
6 23 26 27 31 32 33 rings
6 7 10 11 12 13 15 rings
6 8 10 11 12 14 16 rings
6 8 16 17 18 20 21 rings

> <PUBCHEM_HEAVY_ATOM_COUNT>
35

> <PUBCHEM_ATOM_DEF_STEREO_COUNT>
2

> <PUBCHEM_ATOM_UDEF_STEREO_COUNT>
0

> <PUBCHEM_BOND_DEF_STEREO_COUNT>
0

> <PUBCHEM_BOND_UDEF_STEREO_COUNT>
0

> <PUBCHEM_ISOTOPIC_ATOM_COUNT>
0

> <PUBCHEM_COMPONENT_COUNT>
1

> <PUBCHEM_CACTVS_TAUTO_COUNT>
1

> <PUBCHEM_CONFORMER_ID>
006D02F700000001

> <PUBCHEM_MMFF94_ENERGY>
105.9948

> <PUBCHEM_FEATURE_SELFOVERLAP>
47.258

> <PUBCHEM_SHAPE_FINGERPRINT>
10064457 181 18195504095358833792
11421498 54 18127148389288639380
11578080 2 16830979542161928312
12128747 34 17979339877610908909
12156800 1 14855310945305154882
12422481 6 17752730711525224472
14863182 85 18410569574568366944
15324884 4 17392992398486420172
15392192 104 18115327678156045665
17492 54 17460058248357094998
19301679 30 17967822652771806249
20600515 1 17469595209561494748
20775530 9 17833262026402672463
21120745 212 17263305937797266022
22899556 56 17340105042575143546
23559900 14 17896321325211564317
3052486 1 17541932535093951494
3380486 145 17405099030092592094
35225 105 17553746753216656126
460360 51 18197501710608437305
513532 50 17346883351007680725
563151 248 17679010746295778916
57527452 28 18261685775062662614
57527585 103 16608270704354644118
57816373 69 17484518941991592695
6287921 2 18260818298167203370

> <PUBCHEM_SHAPE_MULTIPOLES>
665.91
9.02
5.75
2.65
20.49
10.59
-0.75
-5.08
4.11
-3.54
-1.07
-2.17
-1.44
-0.85

> <PUBCHEM_SHAPE_SELFOVERLAP>
1474.82

> <PUBCHEM_SHAPE_VOLUME>
354.7

> <PUBCHEM_COORDINATE_TYPE>
2
5
10

$$$$
