44716941
  -OEChem-12032416133D

 83 86  0     1  0  0  0  0  0999 V2000
    1.3955   -1.2021    0.2425 O   0  0  0  0  0  0  0  0  0  0  0  0
   -5.7917   -2.0823    0.4069 O   0  0  0  0  0  0  0  0  0  0  0  0
    0.6754   -3.8347    0.5399 O   0  0  0  0  0  0  0  0  0  0  0  0
   -5.6693    1.7268   -1.5897 O   0  0  0  0  0  0  0  0  0  0  0  0
    2.1398    0.7126   -0.7623 O   0  0  0  0  0  0  0  0  0  0  0  0
    8.3117   -0.6696    1.2690 O   0  0  0  0  0  0  0  0  0  0  0  0
    6.3119    2.8776   -1.2512 O   0  0  0  0  0  0  0  0  0  0  0  0
    8.5553    1.7162   -0.1167 O   0  0  0  0  0  0  0  0  0  0  0  0
   -7.1321    1.9921    0.1788 N   0  0  0  0  0  0  0  0  0  0  0  0
    3.5809   -0.7319    0.3854 N   0  0  0  0  0  0  0  0  0  0  0  0
   -2.9256   -0.7987    0.3087 C   0  0  2  0  0  0  0  0  0  0  0  0
   -2.2622   -1.7974   -0.7168 C   0  0  1  0  0  0  0  0  0  0  0  0
   -0.7623   -2.1994   -0.4435 C   0  0  1  0  0  0  0  0  0  0  0  0
   -4.2845   -0.3041   -0.3404 C   0  0  1  0  0  0  0  0  0  0  0  0
   -1.9773    0.4163    0.4949 C   0  0  0  0  0  0  0  0  0  0  0  0
   -3.2032   -2.9849   -1.0172 C   0  0  0  0  0  0  0  0  0  0  0  0
    0.0692   -0.9049   -0.1935 C   0  0  1  0  0  0  0  0  0  0  0  0
   -5.2299   -1.4594   -0.7439 C   0  0  1  0  0  0  0  0  0  0  0  0
   -0.5442    0.0303    0.8428 C   0  0  0  0  0  0  0  0  0  0  0  0
   -4.5303   -2.5057   -1.6067 C   0  0  0  0  0  0  0  0  0  0  0  0
   -3.1841   -1.4220    1.7020 C   0  0  0  0  0  0  0  0  0  0  0  0
   -0.5812   -3.2147    0.7034 C   0  0  0  0  0  0  0  0  0  0  0  0
   -5.0559    0.7362    0.4878 C   0  0  0  0  0  0  0  0  0  0  0  0
   -0.1808   -2.8883   -1.7122 C   0  0  0  0  0  0  0  0  0  0  0  0
   -5.9719    1.5260   -0.4123 C   0  0  0  0  0  0  0  0  0  0  0  0
    2.3662   -0.2996   -0.1106 C   0  0  0  0  0  0  0  0  0  0  0  0
   -8.1162    2.7761   -0.5531 C   0  0  0  0  0  0  0  0  0  0  0  0
   -7.5501    1.7865    1.5621 C   0  0  0  0  0  0  0  0  0  0  0  0
   -9.3397    2.7899    0.3503 C   0  0  0  0  0  0  0  0  0  0  0  0
   -8.7310    2.7292    1.7455 C   0  0  0  0  0  0  0  0  0  0  0  0
    4.8439   -0.1103    0.2578 C   0  0  0  0  0  0  0  0  0  0  0  0
    4.9627    1.0910   -0.4407 C   0  0  0  0  0  0  0  0  0  0  0  0
    5.9716   -0.6982    0.8310 C   0  0  0  0  0  0  0  0  0  0  0  0
    7.2181   -0.0847    0.7054 C   0  0  0  0  0  0  0  0  0  0  0  0
    6.2091    1.7047   -0.5661 C   0  0  0  0  0  0  0  0  0  0  0  0
    7.3368    1.1167    0.0069 C   0  0  0  0  0  0  0  0  0  0  0  0
    9.0403   -1.5932    0.4625 C   0  0  0  0  0  0  0  0  0  0  0  0
    5.1110    3.4114   -1.8058 C   0  0  0  0  0  0  0  0  0  0  0  0
    8.9241    2.6464    0.8989 C   0  0  0  0  0  0  0  0  0  0  0  0
   -2.2107   -1.2313   -1.6623 H   0  0  0  0  0  0  0  0  0  0  0  0
   -3.9789    0.1708   -1.2844 H   0  0  0  0  0  0  0  0  0  0  0  0
   -1.9599    1.0151   -0.4253 H   0  0  0  0  0  0  0  0  0  0  0  0
   -2.3427    1.0777    1.2885 H   0  0  0  0  0  0  0  0  0  0  0  0
   -3.3942   -3.5809   -0.1198 H   0  0  0  0  0  0  0  0  0  0  0  0
   -2.7498   -3.6644   -1.7456 H   0  0  0  0  0  0  0  0  0  0  0  0
    0.1053   -0.3677   -1.1525 H   0  0  0  0  0  0  0  0  0  0  0  0
   -6.0732   -1.0578   -1.3181 H   0  0  0  0  0  0  0  0  0  0  0  0
    0.0537    0.9476    0.9161 H   0  0  0  0  0  0  0  0  0  0  0  0
   -0.4854   -0.4130    1.8430 H   0  0  0  0  0  0  0  0  0  0  0  0
   -5.1831   -3.3749   -1.7505 H   0  0  0  0  0  0  0  0  0  0  0  0
   -4.3396   -2.0792   -2.5997 H   0  0  0  0  0  0  0  0  0  0  0  0
   -3.7261   -2.3680    1.6545 H   0  0  0  0  0  0  0  0  0  0  0  0
   -3.7643   -0.7443    2.3372 H   0  0  0  0  0  0  0  0  0  0  0  0
   -2.2644   -1.6206    2.2522 H   0  0  0  0  0  0  0  0  0  0  0  0
   -1.3399   -4.0009    0.6761 H   0  0  0  0  0  0  0  0  0  0  0  0
   -0.5994   -2.7476    1.6888 H   0  0  0  0  0  0  0  0  0  0  0  0
   -5.6003    0.2431    1.2955 H   0  0  0  0  0  0  0  0  0  0  0  0
   -4.3904    1.4727    0.9459 H   0  0  0  0  0  0  0  0  0  0  0  0
    0.9133   -2.9540   -1.6911 H   0  0  0  0  0  0  0  0  0  0  0  0
   -0.4330   -2.3179   -2.6141 H   0  0  0  0  0  0  0  0  0  0  0  0
   -0.5701   -3.9032   -1.8468 H   0  0  0  0  0  0  0  0  0  0  0  0
   -6.4018   -2.7746    0.1006 H   0  0  0  0  0  0  0  0  0  0  0  0
    0.7784   -4.4756    1.2638 H   0  0  0  0  0  0  0  0  0  0  0  0
   -8.3118    2.3377   -1.5361 H   0  0  0  0  0  0  0  0  0  0  0  0
   -7.7051    3.7824   -0.6896 H   0  0  0  0  0  0  0  0  0  0  0  0
   -7.8564    0.7403    1.6698 H   0  0  0  0  0  0  0  0  0  0  0  0
   -6.7336    2.0011    2.2574 H   0  0  0  0  0  0  0  0  0  0  0  0
   -9.9690    3.6703    0.1950 H   0  0  0  0  0  0  0  0  0  0  0  0
   -9.9484    1.8951    0.1729 H   0  0  0  0  0  0  0  0  0  0  0  0
   -8.3751    3.7247    2.0372 H   0  0  0  0  0  0  0  0  0  0  0  0
   -9.4350    2.3801    2.5057 H   0  0  0  0  0  0  0  0  0  0  0  0
    3.5683   -1.6048    0.9073 H   0  0  0  0  0  0  0  0  0  0  0  0
    4.0938    1.5437   -0.8823 H   0  0  0  0  0  0  0  0  0  0  0  0
    5.8852   -1.6346    1.3775 H   0  0  0  0  0  0  0  0  0  0  0  0
    9.8852   -1.9666    1.0476 H   0  0  0  0  0  0  0  0  0  0  0  0
    8.4065   -2.4406    0.1824 H   0  0  0  0  0  0  0  0  0  0  0  0
    9.4269   -1.1000   -0.4350 H   0  0  0  0  0  0  0  0  0  0  0  0
    4.6875    2.7500   -2.5695 H   0  0  0  0  0  0  0  0  0  0  0  0
    4.3871    3.6763   -1.0275 H   0  0  0  0  0  0  0  0  0  0  0  0
    5.3805    4.3438   -2.3134 H   0  0  0  0  0  0  0  0  0  0  0  0
    9.9166    3.0382    0.6603 H   0  0  0  0  0  0  0  0  0  0  0  0
    8.9685    2.1535    1.8752 H   0  0  0  0  0  0  0  0  0  0  0  0
    8.2173    3.4816    0.9319 H   0  0  0  0  0  0  0  0  0  0  0  0
  1 17  1  0  0  0  0
  1 26  1  0  0  0  0
  2 18  1  0  0  0  0
  2 62  1  0  0  0  0
  3 22  1  0  0  0  0
  3 63  1  0  0  0  0
  4 25  2  0  0  0  0
  5 26  2  0  0  0  0
  6 34  1  0  0  0  0
  6 37  1  0  0  0  0
  7 35  1  0  0  0  0
  7 38  1  0  0  0  0
  8 36  1  0  0  0  0
  8 39  1  0  0  0  0
  9 25  1  0  0  0  0
  9 27  1  0  0  0  0
  9 28  1  0  0  0  0
 10 26  1  0  0  0  0
 10 31  1  0  0  0  0
 10 72  1  0  0  0  0
 11 12  1  0  0  0  0
 11 14  1  0  0  0  0
 11 15  1  0  0  0  0
 11 21  1  0  0  0  0
 12 13  1  0  0  0  0
 12 16  1  0  0  0  0
 12 40  1  0  0  0  0
 13 17  1  0  0  0  0
 13 22  1  0  0  0  0
 13 24  1  0  0  0  0
 14 18  1  0  0  0  0
 14 23  1  0  0  0  0
 14 41  1  0  0  0  0
 15 19  1  0  0  0  0
 15 42  1  0  0  0  0
 15 43  1  0  0  0  0
 16 20  1  0  0  0  0
 16 44  1  0  0  0  0
 16 45  1  0  0  0  0
 17 19  1  0  0  0  0
 17 46  1  0  0  0  0
 18 20  1  0  0  0  0
 18 47  1  0  0  0  0
 19 48  1  0  0  0  0
 19 49  1  0  0  0  0
 20 50  1  0  0  0  0
 20 51  1  0  0  0  0
 21 52  1  0  0  0  0
 21 53  1  0  0  0  0
 21 54  1  0  0  0  0
 22 55  1  0  0  0  0
 22 56  1  0  0  0  0
 23 25  1  0  0  0  0
 23 57  1  0  0  0  0
 23 58  1  0  0  0  0
 24 59  1  0  0  0  0
 24 60  1  0  0  0  0
 24 61  1  0  0  0  0
 27 29  1  0  0  0  0
 27 64  1  0  0  0  0
 27 65  1  0  0  0  0
 28 30  1  0  0  0  0
 28 66  1  0  0  0  0
 28 67  1  0  0  0  0
 29 30  1  0  0  0  0
 29 68  1  0  0  0  0
 29 69  1  0  0  0  0
 30 70  1  0  0  0  0
 30 71  1  0  0  0  0
 31 32  2  0  0  0  0
 31 33  1  0  0  0  0
 32 35  1  0  0  0  0
 32 73  1  0  0  0  0
 33 34  2  0  0  0  0
 33 74  1  0  0  0  0
 34 36  1  0  0  0  0
 35 36  2  0  0  0  0
 37 75  1  0  0  0  0
 37 76  1  0  0  0  0
 37 77  1  0  0  0  0
 38 78  1  0  0  0  0
 38 79  1  0  0  0  0
 38 80  1  0  0  0  0
 39 81  1  0  0  0  0
 39 82  1  0  0  0  0
 39 83  1  0  0  0  0
M  END
> <PUBCHEM_COMPOUND_CID>
44716941

> <PUBCHEM_CONFORMER_RMSD>
1.2

> <PUBCHEM_CONFORMER_DIVERSEORDER>
1
41
32
52
9
47
19
46
37
24
39
12
16
29
51
26
34
55
33
43
44
23
15
45
36
50
22
35
14
54
10
30
8
38
4
48
31
49
6
11
20
56
7
40
53
13
25
5
3
42
21
18
2
17
28
27

> <PUBCHEM_MMFF94_PARTIAL_CHARGES>
32
1 -0.43
10 -0.55
17 0.28
18 0.28
2 -0.68
22 0.28
23 0.06
25 0.57
26 0.78
27 0.3
28 0.3
3 -0.68
31 0.12
32 -0.15
33 -0.15
34 0.08
35 0.08
36 0.08
37 0.28
38 0.28
39 0.28
4 -0.57
5 -0.57
6 -0.36
62 0.4
63 0.4
7 -0.36
72 0.37
73 0.15
74 0.15
8 -0.36
9 -0.66

> <PUBCHEM_EFFECTIVE_ROTOR_COUNT>
13.6

> <PUBCHEM_PHARMACOPHORE_FEATURES>
14
1 10 donor
1 2 acceptor
1 2 donor
1 3 acceptor
1 3 donor
1 4 acceptor
1 5 acceptor
1 6 acceptor
1 7 acceptor
1 8 acceptor
5 9 27 28 29 30 rings
6 11 12 13 15 17 19 rings
6 11 12 14 16 18 20 rings
6 31 32 33 34 35 36 rings

> <PUBCHEM_HEAVY_ATOM_COUNT>
39

> <PUBCHEM_ATOM_DEF_STEREO_COUNT>
5

> <PUBCHEM_ATOM_UDEF_STEREO_COUNT>
1

> <PUBCHEM_BOND_DEF_STEREO_COUNT>
0

> <PUBCHEM_BOND_UDEF_STEREO_COUNT>
0

> <PUBCHEM_ISOTOPIC_ATOM_COUNT>
0

> <PUBCHEM_COMPONENT_COUNT>
1

> <PUBCHEM_CACTVS_TAUTO_COUNT>
2

> <PUBCHEM_CONFORMER_ID>
02AA538D00000001

> <PUBCHEM_MMFF94_ENERGY>
162.4489

> <PUBCHEM_FEATURE_SELFOVERLAP>
71.075

> <PUBCHEM_SHAPE_FINGERPRINT>
10 15 17968381157017273417
10930396 42 17168146720714638269
11135926 11 18335130960974505111
11181472 205 18412548709127012132
11475781 23 18060709385657423772
11578821 258 18200027477733145096
12013929 29 18337396057939049444
12082328 90 18334292106369133323
12539765 74 18272656744844679462
13248334 5 17980484460567902151
13740195 50 18187370948398991681
13811026 1 18131071523758856214
14040222 383 18343298198165539763
14394314 77 18408882953606602080
15183329 4 18187634869417329126
15439362 3 18270121197600255031
1577012 14 18409444808870467874
15840311 113 18336831870876193375
16992727 255 18342176673970749393
19302320 297 18186809071006479717
19315958 150 18342179916649880855
20105231 36 12829490312572119056
20691028 202 18336546130917881596
25269216 80 16558167369339138557
3633792 109 18271527503453221554
3711267 37 18341340998348630673
3918712 181 18343581841447256896
44280117 145 18199464544832316727
4516262 110 18336820889314412111
5470011 282 12535334710343033240
5776283 40 17989202621740184801
99344 41 18411416211554641638
9962374 69 11386668337769717553

> <PUBCHEM_SHAPE_MULTIPOLES>
745.69
31.07
4.26
1.41
19.31
0.28
0.12
-31.75
-6.27
-3.45
0.9
-0.76
-0.21
-3.37

> <PUBCHEM_SHAPE_SELFOVERLAP>
1564.25

> <PUBCHEM_SHAPE_VOLUME>
418.8

> <PUBCHEM_COORDINATE_TYPE>
2
5
10

$$$$
