45783642
  -OEChem-12032416203D

 55 58  0     1  0  0  0  0  0999 V2000
    1.2707    2.7502    0.4667 F   0  0  0  0  0  0  0  0  0  0  0  0
    0.0482    4.2119    1.5139 F   0  0  0  0  0  0  0  0  0  0  0  0
    0.5230    4.4904   -0.5896 F   0  0  0  0  0  0  0  0  0  0  0  0
   -2.8358   -1.5724    2.0222 O   0  0  0  0  0  0  0  0  0  0  0  0
    7.5366   -0.5872   -1.5022 O   0  0  0  0  0  0  0  0  0  0  0  0
    4.9417   -0.7429   -1.6920 O   0  0  0  0  0  0  0  0  0  0  0  0
   -4.3655   -0.8026   -1.2293 N   0  0  1  0  0  0  0  0  0  0  0  0
   -1.7396   -1.3466    0.0821 N   0  0  0  0  0  0  0  0  0  0  0  0
   -1.4758   -1.5010    2.3494 N   0  0  0  0  0  0  0  0  0  0  0  0
    2.7188   -1.1788    2.0106 N   0  0  0  0  0  0  0  0  0  0  0  0
    4.6271   -0.9402    0.6340 N   0  0  0  0  0  0  0  0  0  0  0  0
   -4.2869   -1.5248    0.0562 C   0  0  1  0  0  0  0  0  0  0  0  0
   -4.7392   -2.9595   -0.2728 C   0  0  0  0  0  0  0  0  0  0  0  0
   -5.1090   -2.9312   -1.7491 C   0  0  0  0  0  0  0  0  0  0  0  0
   -5.4044   -1.4689   -2.0149 C   0  0  0  0  0  0  0  0  0  0  0  0
   -4.6260    0.6226   -1.0725 C   0  0  0  0  0  0  0  0  0  0  0  0
   -2.9029   -1.4743    0.6687 C   0  0  0  0  0  0  0  0  0  0  0  0
   -3.3789    1.3838   -0.7088 C   0  0  0  0  0  0  0  0  0  0  0  0
   -3.3336    2.1239    0.4728 C   0  0  0  0  0  0  0  0  0  0  0  0
   -2.2686    1.3483   -1.5524 C   0  0  0  0  0  0  0  0  0  0  0  0
   -0.8946   -1.3683    1.1534 C   0  0  0  0  0  0  0  0  0  0  0  0
   -2.1784    2.8287    0.8104 C   0  0  0  0  0  0  0  0  0  0  0  0
   -1.1133    2.0532   -1.2148 C   0  0  0  0  0  0  0  0  0  0  0  0
   -1.0682    2.7933   -0.0334 C   0  0  0  0  0  0  0  0  0  0  0  0
    0.5266   -1.2566    0.9942 C   0  0  0  0  0  0  0  0  0  0  0  0
    0.1680    3.5444    0.3295 C   0  0  0  0  0  0  0  0  0  0  0  0
    1.0980   -1.1212   -0.2662 C   0  0  0  0  0  0  0  0  0  0  0  0
    1.3729   -1.2797    2.0910 C   0  0  0  0  0  0  0  0  0  0  0  0
    2.4790   -1.0147   -0.3895 C   0  0  0  0  0  0  0  0  0  0  0  0
    3.2381   -1.0487    0.7692 C   0  0  0  0  0  0  0  0  0  0  0  0
    5.3690   -0.7992   -0.5429 C   0  0  0  0  0  0  0  0  0  0  0  0
    6.8559   -0.7229   -0.2720 C   0  0  0  0  0  0  0  0  0  0  0  0
    8.9475   -0.5091   -1.3220 C   0  0  0  0  0  0  0  0  0  0  0  0
   -5.0018   -1.1093    0.7804 H   0  0  0  0  0  0  0  0  0  0  0  0
   -3.9756   -3.7201   -0.0776 H   0  0  0  0  0  0  0  0  0  0  0  0
   -5.6254   -3.2120    0.3222 H   0  0  0  0  0  0  0  0  0  0  0  0
   -4.2564   -3.2654   -2.3533 H   0  0  0  0  0  0  0  0  0  0  0  0
   -5.9609   -3.5793   -1.9747 H   0  0  0  0  0  0  0  0  0  0  0  0
   -6.4107   -1.2133   -1.6593 H   0  0  0  0  0  0  0  0  0  0  0  0
   -5.3318   -1.2313   -3.0807 H   0  0  0  0  0  0  0  0  0  0  0  0
   -4.9716    1.0455   -2.0265 H   0  0  0  0  0  0  0  0  0  0  0  0
   -5.4369    0.8115   -0.3569 H   0  0  0  0  0  0  0  0  0  0  0  0
   -4.1902    2.1584    1.1405 H   0  0  0  0  0  0  0  0  0  0  0  0
   -2.2898    0.7795   -2.4782 H   0  0  0  0  0  0  0  0  0  0  0  0
   -2.1632    3.3978    1.7358 H   0  0  0  0  0  0  0  0  0  0  0  0
   -0.2530    2.0187   -1.8778 H   0  0  0  0  0  0  0  0  0  0  0  0
    0.4909   -1.0954   -1.1677 H   0  0  0  0  0  0  0  0  0  0  0  0
    1.0071   -1.3818    3.1083 H   0  0  0  0  0  0  0  0  0  0  0  0
    2.8489   -0.9120   -1.3963 H   0  0  0  0  0  0  0  0  0  0  0  0
    5.1384   -0.9708    1.5128 H   0  0  0  0  0  0  0  0  0  0  0  0
    7.1703   -1.6416    0.2357 H   0  0  0  0  0  0  0  0  0  0  0  0
    7.0542    0.1437    0.3685 H   0  0  0  0  0  0  0  0  0  0  0  0
    9.2071    0.3646   -0.7164 H   0  0  0  0  0  0  0  0  0  0  0  0
    9.3230   -1.4218   -0.8495 H   0  0  0  0  0  0  0  0  0  0  0  0
    9.4142   -0.4055   -2.3051 H   0  0  0  0  0  0  0  0  0  0  0  0
  1 26  1  0  0  0  0
  2 26  1  0  0  0  0
  3 26  1  0  0  0  0
  4  9  1  0  0  0  0
  4 17  1  0  0  0  0
  5 32  1  0  0  0  0
  5 33  1  0  0  0  0
  6 31  2  0  0  0  0
  7 12  1  0  0  0  0
  7 15  1  0  0  0  0
  7 16  1  0  0  0  0
  8 17  2  0  0  0  0
  8 21  1  0  0  0  0
  9 21  2  0  0  0  0
 10 28  1  0  0  0  0
 10 30  2  0  0  0  0
 11 30  1  0  0  0  0
 11 31  1  0  0  0  0
 11 50  1  0  0  0  0
 12 13  1  0  0  0  0
 12 17  1  0  0  0  0
 12 34  1  0  0  0  0
 13 14  1  0  0  0  0
 13 35  1  0  0  0  0
 13 36  1  0  0  0  0
 14 15  1  0  0  0  0
 14 37  1  0  0  0  0
 14 38  1  0  0  0  0
 15 39  1  0  0  0  0
 15 40  1  0  0  0  0
 16 18  1  0  0  0  0
 16 41  1  0  0  0  0
 16 42  1  0  0  0  0
 18 19  2  0  0  0  0
 18 20  1  0  0  0  0
 19 22  1  0  0  0  0
 19 43  1  0  0  0  0
 20 23  2  0  0  0  0
 20 44  1  0  0  0  0
 21 25  1  0  0  0  0
 22 24  2  0  0  0  0
 22 45  1  0  0  0  0
 23 24  1  0  0  0  0
 23 46  1  0  0  0  0
 24 26  1  0  0  0  0
 25 27  1  0  0  0  0
 25 28  2  0  0  0  0
 27 29  2  0  0  0  0
 27 47  1  0  0  0  0
 28 48  1  0  0  0  0
 29 30  1  0  0  0  0
 29 49  1  0  0  0  0
 31 32  1  0  0  0  0
 32 51  1  0  0  0  0
 32 52  1  0  0  0  0
 33 53  1  0  0  0  0
 33 54  1  0  0  0  0
 33 55  1  0  0  0  0
M  END
> <PUBCHEM_COMPOUND_CID>
45783642

> <PUBCHEM_CONFORMER_RMSD>
1

> <PUBCHEM_CONFORMER_DIVERSEORDER>
1
19
12
47
15
23
37
38
50
52
18
40
32
10
14
9
13
42
2
6
7
36
21
27
4
39
49
33
43
22
41
29
24
20
3
11
46
51
8
48
25
17
34
45
30
28
5
35
44
16
26
31

> <PUBCHEM_MMFF94_PARTIAL_CHARGES>
39
1 -0.34
10 -0.62
11 -0.55
12 0.45
15 0.27
16 0.41
17 0.3
18 -0.14
19 -0.15
2 -0.34
20 -0.15
21 0.46
22 -0.15
23 -0.15
24 -0.14
25 0.05
26 1.16
27 -0.15
28 0.16
29 -0.15
3 -0.34
30 0.43
31 0.57
32 0.34
33 0.28
4 -0.02
43 0.15
44 0.15
45 0.15
46 0.15
47 0.15
48 0.15
49 0.15
5 -0.56
50 0.37
6 -0.57
7 -0.81
8 -0.57
9 -0.41

> <PUBCHEM_EFFECTIVE_ROTOR_COUNT>
10

> <PUBCHEM_PHARMACOPHORE_FEATURES>
9
1 11 donor
1 5 acceptor
1 6 acceptor
1 7 cation
3 8 9 21 cation
5 4 8 9 17 21 rings
5 7 12 13 14 15 rings
6 10 25 27 28 29 30 rings
6 18 19 20 22 23 24 rings

> <PUBCHEM_HEAVY_ATOM_COUNT>
33

> <PUBCHEM_ATOM_DEF_STEREO_COUNT>
1

> <PUBCHEM_ATOM_UDEF_STEREO_COUNT>
0

> <PUBCHEM_BOND_DEF_STEREO_COUNT>
0

> <PUBCHEM_BOND_UDEF_STEREO_COUNT>
0

> <PUBCHEM_ISOTOPIC_ATOM_COUNT>
0

> <PUBCHEM_COMPONENT_COUNT>
1

> <PUBCHEM_CACTVS_TAUTO_COUNT>
11

> <PUBCHEM_CONFORMER_ID>
02BA9A5A00000001

> <PUBCHEM_MMFF94_ENERGY>
68.6844

> <PUBCHEM_FEATURE_SELFOVERLAP>
45.683

> <PUBCHEM_SHAPE_FINGERPRINT>
10032420 55 17823113701808208837
10454371 7 18337118882703688300
10670039 82 18333732395374622762
1100329 8 18337939114241621873
11477941 20 18412258445961561444
12788726 201 18190453870605803953
13761468 95 17828484665374479094
13782708 43 17775565313266101894
14931854 50 18113889442624468350
15183329 4 17749392512998822826
15876981 60 18410018718952746853
17492 54 18042394756086264489
19319366 153 17534614916492462627
20609170 92 17969503887328618148
20642791 35 18263059108214619565
20691752 17 17241862420861911157
20721686 56 18338234981437411664
20775438 99 17404555150152979663
21057603 43 17913771893484517091
21344244 246 17907852161049655263
255183 451 18125433370615206159
354706 132 18190751826237758068
484985 159 12462994477793391417
5171179 24 18341888657864595433
5969126 39 18342461439461815614
6608658 132 18335135358767535574

> <PUBCHEM_SHAPE_MULTIPOLES>
614.79
15.39
4.34
1.95
36.23
5.62
0.35
-10.59
-10.92
-4.4
0.5
-0.2
-0.81
-0.66

> <PUBCHEM_SHAPE_SELFOVERLAP>
1327.358

> <PUBCHEM_SHAPE_VOLUME>
340.1

> <PUBCHEM_COORDINATE_TYPE>
2
5
10

$$$$
