26743694
  -OEChem-12032416353D

 48 51  0     1  0  0  0  0  0999 V2000
   -3.1232   -2.7916   -0.3269 S   0  0  0  0  0  0  0  0  0  0  0  0
    6.3681    1.0129   -0.3025 O   0  0  0  0  0  0  0  0  0  0  0  0
    1.3968    1.1891   -1.2788 O   0  0  0  0  0  0  0  0  0  0  0  0
   -3.2147   -3.6474   -1.5020 O   0  0  0  0  0  0  0  0  0  0  0  0
   -3.7766   -3.1917    0.9112 O   0  0  0  0  0  0  0  0  0  0  0  0
    3.2467   -0.6847    0.0798 N   0  0  1  0  0  0  0  0  0  0  0  0
    0.4900    1.5101    0.7438 N   0  0  0  0  0  0  0  0  0  0  0  0
    0.0940    1.6511   -1.5049 N   0  0  0  0  0  0  0  0  0  0  0  0
   -2.4589    2.5562   -1.0894 N   0  0  0  0  0  0  0  0  0  0  0  0
    2.8920    0.6590    0.5802 C   0  0  1  0  0  0  0  0  0  0  0  0
    4.0537    1.5653    0.1323 C   0  0  0  0  0  0  0  0  0  0  0  0
    5.0324    0.6334   -0.5712 C   0  0  2  0  0  0  0  0  0  0  0  0
    4.7061   -0.7288    0.0109 C   0  0  0  0  0  0  0  0  0  0  0  0
    2.7034   -1.7632    0.8951 C   0  0  0  0  0  0  0  0  0  0  0  0
    1.5479    1.1348    0.0704 C   0  0  0  0  0  0  0  0  0  0  0  0
    1.2514   -2.0197    0.5902 C   0  0  0  0  0  0  0  0  0  0  0  0
    0.2974   -1.9128    1.6022 C   0  0  0  0  0  0  0  0  0  0  0  0
    0.8601   -2.3639   -0.7038 C   0  0  0  0  0  0  0  0  0  0  0  0
   -0.3758    1.8175   -0.2651 C   0  0  0  0  0  0  0  0  0  0  0  0
   -1.0481   -2.1495    1.3202 C   0  0  0  0  0  0  0  0  0  0  0  0
   -0.4853   -2.6008   -0.9857 C   0  0  0  0  0  0  0  0  0  0  0  0
   -1.4394   -2.4937    0.0262 C   0  0  0  0  0  0  0  0  0  0  0  0
   -1.7049    2.2875   -0.0001 C   0  0  0  0  0  0  0  0  0  0  0  0
   -3.7654   -1.2002   -0.7944 C   0  0  0  0  0  0  0  0  0  0  0  0
   -2.1444    2.4415    1.3049 C   0  0  0  0  0  0  0  0  0  0  0  0
   -3.4415    2.9008    1.5046 C   0  0  0  0  0  0  0  0  0  0  0  0
   -3.7141    3.0008   -0.8560 C   0  0  0  0  0  0  0  0  0  0  0  0
   -4.2478    3.1881    0.4088 C   0  0  0  0  0  0  0  0  0  0  0  0
    2.8657    0.6753    1.6786 H   0  0  0  0  0  0  0  0  0  0  0  0
    3.7478    2.3748   -0.5400 H   0  0  0  0  0  0  0  0  0  0  0  0
    4.5243    2.0343    1.0058 H   0  0  0  0  0  0  0  0  0  0  0  0
    4.8663    0.6433   -1.6554 H   0  0  0  0  0  0  0  0  0  0  0  0
    5.0667   -1.5344   -0.6372 H   0  0  0  0  0  0  0  0  0  0  0  0
    5.1706   -0.8535    0.9980 H   0  0  0  0  0  0  0  0  0  0  0  0
    2.8650   -1.5839    1.9661 H   0  0  0  0  0  0  0  0  0  0  0  0
    3.2303   -2.7015    0.6715 H   0  0  0  0  0  0  0  0  0  0  0  0
    6.4863    1.9196   -0.6333 H   0  0  0  0  0  0  0  0  0  0  0  0
    0.5874   -1.6416    2.6136 H   0  0  0  0  0  0  0  0  0  0  0  0
    1.5922   -2.4543   -1.5018 H   0  0  0  0  0  0  0  0  0  0  0  0
   -1.7748   -2.0519    2.1217 H   0  0  0  0  0  0  0  0  0  0  0  0
   -0.7687   -2.8618   -2.0014 H   0  0  0  0  0  0  0  0  0  0  0  0
   -4.8236   -1.3190   -1.0368 H   0  0  0  0  0  0  0  0  0  0  0  0
   -3.6518   -0.5124    0.0455 H   0  0  0  0  0  0  0  0  0  0  0  0
   -3.2208   -0.8390   -1.6689 H   0  0  0  0  0  0  0  0  0  0  0  0
   -1.5211    2.2183    2.1645 H   0  0  0  0  0  0  0  0  0  0  0  0
   -3.8238    3.0342    2.5122 H   0  0  0  0  0  0  0  0  0  0  0  0
   -4.3022    3.2098   -1.7436 H   0  0  0  0  0  0  0  0  0  0  0  0
   -5.2621    3.5468    0.5407 H   0  0  0  0  0  0  0  0  0  0  0  0
  1  4  2  0  0  0  0
  1  5  2  0  0  0  0
  1 22  1  0  0  0  0
  1 24  1  0  0  0  0
  2 12  1  0  0  0  0
  2 37  1  0  0  0  0
  3  8  1  0  0  0  0
  3 15  1  0  0  0  0
  6 10  1  0  0  0  0
  6 13  1  0  0  0  0
  6 14  1  0  0  0  0
  7 15  2  0  0  0  0
  7 19  1  0  0  0  0
  8 19  2  0  0  0  0
  9 23  1  0  0  0  0
  9 27  2  0  0  0  0
 10 11  1  0  0  0  0
 10 15  1  0  0  0  0
 10 29  1  0  0  0  0
 11 12  1  0  0  0  0
 11 30  1  0  0  0  0
 11 31  1  0  0  0  0
 12 13  1  0  0  0  0
 12 32  1  0  0  0  0
 13 33  1  0  0  0  0
 13 34  1  0  0  0  0
 14 16  1  0  0  0  0
 14 35  1  0  0  0  0
 14 36  1  0  0  0  0
 16 17  2  0  0  0  0
 16 18  1  0  0  0  0
 17 20  1  0  0  0  0
 17 38  1  0  0  0  0
 18 21  2  0  0  0  0
 18 39  1  0  0  0  0
 19 23  1  0  0  0  0
 20 22  2  0  0  0  0
 20 40  1  0  0  0  0
 21 22  1  0  0  0  0
 21 41  1  0  0  0  0
 23 25  2  0  0  0  0
 24 42  1  0  0  0  0
 24 43  1  0  0  0  0
 24 44  1  0  0  0  0
 25 26  1  0  0  0  0
 25 45  1  0  0  0  0
 26 28  2  0  0  0  0
 26 46  1  0  0  0  0
 27 28  1  0  0  0  0
 27 47  1  0  0  0  0
 28 48  1  0  0  0  0
M  END
> <PUBCHEM_COMPOUND_CID>
26743694

> <PUBCHEM_CONFORMER_RMSD>
0.8

> <PUBCHEM_CONFORMER_DIVERSEORDER>
1
203
171
245
186
13
168
255
271
2
221
260
202
224
234
161
12
237
259
42
9
84
286
266
216
248
122
175
36
4
241
127
179
79
129
207
147
151
195
3
193
149
281
267
270
99
238
138
124
200
199
97
71
274
156
214
222
172
189
233
14
251
262
92
110
265
75
104
204
220
108
230
232
43
247
279
130
236
6
146
85
125
181
197
174
136
31
150
120
143
188
253
76
190
287
89
48
20
140
5
187
178
191
109
135
210
34
64
183
194
177
218
101
10
246
94
185
261
167
137
144
63
121
160
209
227
60
17
148
159
68
285
112
142
223
198
123
114
157
213
269
28
257
176
132
74
116
49
196
40
18
35
229
217
164
91
208
126
78
23
82
88
54
41
212
206
249
67
107
81
162
228
113
52
277
50
231
44
115
32
282
65
169
243
45
70
268
102
182
29
145
86
226
134
56
289
211
61
100
83
201
8
77
219
141
11
111
98
55
30
39
73
235
47
283
118
278
165
250
264
26
205
240
192
215
276
166
117
37
24
170
33
53
239
244
7
154
16
21
95
272
87
133
184
93
51
27
46
139
158
284
62
288
22
163
19
280
59
153
106
131
96
258
15
252
242
155
263
25
256
58
72
180
273
66
38
57
275
69
105
254
152
225
103
90
128
80
173
119

> <PUBCHEM_MMFF94_PARTIAL_CHARGES>
36
1 1.2
10 0.45
12 0.28
13 0.27
14 0.41
15 0.3
16 -0.14
17 -0.15
18 -0.15
19 0.46
2 -0.68
20 -0.15
21 -0.15
22 -0.01
23 0.36
24 0.11
25 -0.15
26 -0.15
27 0.16
28 -0.15
3 -0.02
37 0.4
38 0.15
39 0.15
4 -0.65
40 0.15
41 0.15
45 0.15
46 0.15
47 0.15
48 0.15
5 -0.65
6 -0.81
7 -0.57
8 -0.41
9 -0.62

> <PUBCHEM_EFFECTIVE_ROTOR_COUNT>
6

> <PUBCHEM_PHARMACOPHORE_FEATURES>
11
1 2 acceptor
1 2 donor
1 4 acceptor
1 5 acceptor
1 6 cation
1 9 acceptor
3 7 8 19 cation
5 3 7 8 15 19 rings
5 6 10 11 12 13 rings
6 16 17 18 20 21 22 rings
6 9 23 25 26 27 28 rings

> <PUBCHEM_HEAVY_ATOM_COUNT>
28

> <PUBCHEM_ATOM_DEF_STEREO_COUNT>
2

> <PUBCHEM_ATOM_UDEF_STEREO_COUNT>
0

> <PUBCHEM_BOND_DEF_STEREO_COUNT>
0

> <PUBCHEM_BOND_UDEF_STEREO_COUNT>
0

> <PUBCHEM_ISOTOPIC_ATOM_COUNT>
0

> <PUBCHEM_COMPONENT_COUNT>
1

> <PUBCHEM_CACTVS_TAUTO_COUNT>
1

> <PUBCHEM_CONFORMER_ID>
0198138E00000001

> <PUBCHEM_MMFF94_ENERGY>
52.1031

> <PUBCHEM_FEATURE_SELFOVERLAP>
55.84

> <PUBCHEM_SHAPE_FINGERPRINT>
10064457 181 18268993085536756784
104564 63 18410292553314564402
10871710 139 18335708277192487690
1100329 8 18048871901739307914
11513181 2 18131065979220387039
11578080 2 17129337240427192974
11646440 116 18048037664039079138
12156800 1 18121815843719283143
12293681 4 18116438235322161066
12422481 6 18196680486874958603
12788726 201 18192141814428318128
13631057 29 18340481278553861636
13692114 37 18128514021437705951
138480 1 16682035835718409031
14028597 1 17533192362783016154
140371 6 17971201567324422618
14117953 113 17472683737781887725
14363568 33 17325782868588768761
14681490 219 18194955473279389311
14931854 50 18265874952902852015
14955137 171 17906462378120570571
17138139 8 17840264979759131229
17357779 13 18265608969488405990
19930381 70 16608844190195405199
21197605 99 18336560330728024691
21236236 1 18410013247797238312
23558518 356 18336548330094052980
238 59 17250583518526689157
25147074 1 18186794761187649746
283562 15 18264764540168205442
3052486 1 18261406532751352150
338550 245 18260557718196078837
38695281 34 18049159973622339153
4340502 62 18267873782652409164
469060 322 17095519608388569167
5171179 24 17986386918036735448
6004065 56 17260732466033282878
6287921 2 17265247671337111131
6438718 38 18130216074038143423
653340 110 18341603871378091000
6669772 16 18120098282593994926
8272917 22 17836084472603486616

> <PUBCHEM_SHAPE_MULTIPOLES>
536.68
9.25
5.17
1.35
8.49
1.77
-0.11
-4.73
0.66
-7.2
0.16
-0.75
0.12
-1.11

> <PUBCHEM_SHAPE_SELFOVERLAP>
1151.417

> <PUBCHEM_SHAPE_VOLUME>
300

> <PUBCHEM_COORDINATE_TYPE>
2
5
10

$$$$
