11912989
  -OEChem-12032416383D

 60 65  0     1  0  0  0  0  0999 V2000
   -2.0243   -1.8574    1.8726 O   0  0  0  0  0  0  0  0  0  0  0  0
   -1.9536   -3.9335   -0.4621 O   0  0  0  0  0  0  0  0  0  0  0  0
   -4.8462    1.8923    1.6592 O   0  0  0  0  0  0  0  0  0  0  0  0
    0.9409   -2.2451    1.0620 N   0  0  0  0  0  0  0  0  0  0  0  0
   -3.5934   -1.4874   -1.4024 N   0  0  0  0  0  0  0  0  0  0  0  0
   -4.3268    0.5422   -0.4806 N   0  0  0  0  0  0  0  0  0  0  0  0
   -4.1771    0.2494   -2.8678 N   0  0  0  0  0  0  0  0  0  0  0  0
   -1.1277   -2.8094   -0.1153 C   0  0  1  0  0  0  0  0  0  0  0  0
   -2.0400   -1.7335    0.4407 C   0  0  1  0  0  0  0  0  0  0  0  0
   -0.2247   -3.1623    1.0415 C   0  0  2  0  0  0  0  0  0  0  0  0
   -3.4047   -2.0891   -0.1005 C   0  0  2  0  0  0  0  0  0  0  0  0
   -1.1042   -2.8932    2.2469 C   0  0  0  0  0  0  0  0  0  0  0  0
   -3.3293   -3.5995   -0.2262 C   0  0  0  0  0  0  0  0  0  0  0  0
    1.7975   -2.4748   -0.0909 C   0  0  0  0  0  0  0  0  0  0  0  0
   -4.0460   -0.1934   -1.5891 C   0  0  0  0  0  0  0  0  0  0  0  0
    2.9889   -1.5544   -0.0968 C   0  0  0  0  0  0  0  0  0  0  0  0
    4.1614   -1.9497    0.5319 C   0  0  0  0  0  0  0  0  0  0  0  0
    2.8976   -0.3231   -0.7307 C   0  0  0  0  0  0  0  0  0  0  0  0
   -4.7651    1.7992   -0.6996 C   0  0  0  0  0  0  0  0  0  0  0  0
    5.2649   -1.0966    0.5268 C   0  0  0  0  0  0  0  0  0  0  0  0
    4.0012    0.5300   -0.7359 C   0  0  0  0  0  0  0  0  0  0  0  0
   -4.6201    1.5155   -3.0137 C   0  0  0  0  0  0  0  0  0  0  0  0
    5.1848    0.1433   -0.1072 C   0  0  0  0  0  0  0  0  0  0  0  0
   -4.9325    2.3448   -1.9560 C   0  0  0  0  0  0  0  0  0  0  0  0
   -5.0545    2.5523    0.4915 C   0  0  0  0  0  0  0  0  0  0  0  0
    6.3295    1.0282   -0.1133 C   0  0  0  0  0  0  0  0  0  0  0  0
   -5.5086    3.8268    0.7266 C   0  0  0  0  0  0  0  0  0  0  0  0
    6.4989    1.9564    0.9141 C   0  0  0  0  0  0  0  0  0  0  0  0
    7.2639    0.9531   -1.1464 C   0  0  0  0  0  0  0  0  0  0  0  0
   -5.5855    3.9613    2.1333 C   0  0  0  0  0  0  0  0  0  0  0  0
   -5.1720    2.7577    2.6551 C   0  0  0  0  0  0  0  0  0  0  0  0
    7.6025    2.8094    0.9085 C   0  0  0  0  0  0  0  0  0  0  0  0
    8.3676    1.8060   -1.1518 C   0  0  0  0  0  0  0  0  0  0  0  0
    8.5368    2.7342   -0.1243 C   0  0  0  0  0  0  0  0  0  0  0  0
   -0.6638   -2.4966   -1.0507 H   0  0  0  0  0  0  0  0  0  0  0  0
   -1.6983   -0.7216    0.2001 H   0  0  0  0  0  0  0  0  0  0  0  0
    0.1155   -4.2038    1.0408 H   0  0  0  0  0  0  0  0  0  0  0  0
   -4.2291   -1.8252    0.5721 H   0  0  0  0  0  0  0  0  0  0  0  0
   -1.6952   -3.7804    2.5012 H   0  0  0  0  0  0  0  0  0  0  0  0
   -0.5570   -2.5905    3.1454 H   0  0  0  0  0  0  0  0  0  0  0  0
   -3.6234   -4.0847    0.7112 H   0  0  0  0  0  0  0  0  0  0  0  0
   -3.9449   -4.0105   -1.0322 H   0  0  0  0  0  0  0  0  0  0  0  0
    1.4704   -2.4085    1.9188 H   0  0  0  0  0  0  0  0  0  0  0  0
   -3.3373   -2.0080   -2.2337 H   0  0  0  0  0  0  0  0  0  0  0  0
    2.1525   -3.5142   -0.0976 H   0  0  0  0  0  0  0  0  0  0  0  0
    1.2879   -2.3313   -1.0476 H   0  0  0  0  0  0  0  0  0  0  0  0
    4.2337   -2.9125    1.0301 H   0  0  0  0  0  0  0  0  0  0  0  0
    1.9798   -0.0110   -1.2212 H   0  0  0  0  0  0  0  0  0  0  0  0
    6.1798   -1.4134    1.0219 H   0  0  0  0  0  0  0  0  0  0  0  0
    3.9216    1.4934   -1.2343 H   0  0  0  0  0  0  0  0  0  0  0  0
   -4.7201    1.8562   -4.0387 H   0  0  0  0  0  0  0  0  0  0  0  0
   -5.2845    3.3538   -2.1293 H   0  0  0  0  0  0  0  0  0  0  0  0
   -5.7577    4.5764   -0.0112 H   0  0  0  0  0  0  0  0  0  0  0  0
    5.7802    2.0282    1.7270 H   0  0  0  0  0  0  0  0  0  0  0  0
    7.1472    0.2353   -1.9550 H   0  0  0  0  0  0  0  0  0  0  0  0
   -5.9024    4.8271    2.6965 H   0  0  0  0  0  0  0  0  0  0  0  0
   -5.0588    2.3777    3.6599 H   0  0  0  0  0  0  0  0  0  0  0  0
    7.7345    3.5322    1.7084 H   0  0  0  0  0  0  0  0  0  0  0  0
    9.0953    1.7476   -1.9560 H   0  0  0  0  0  0  0  0  0  0  0  0
    9.3961    3.3983   -0.1286 H   0  0  0  0  0  0  0  0  0  0  0  0
  1  9  1  0  0  0  0
  1 12  1  0  0  0  0
  2  8  1  0  0  0  0
  2 13  1  0  0  0  0
  3 25  1  0  0  0  0
  3 31  1  0  0  0  0
  4 10  1  0  0  0  0
  4 14  1  0  0  0  0
  4 43  1  0  0  0  0
  5 11  1  0  0  0  0
  5 15  1  0  0  0  0
  5 44  1  0  0  0  0
  6 15  1  0  0  0  0
  6 19  2  0  0  0  0
  7 15  2  0  0  0  0
  7 22  1  0  0  0  0
  8  9  1  0  0  0  0
  8 10  1  0  0  0  0
  8 35  1  0  0  0  0
  9 11  1  0  0  0  0
  9 36  1  0  0  0  0
 10 12  1  0  0  0  0
 10 37  1  0  0  0  0
 11 13  1  0  0  0  0
 11 38  1  0  0  0  0
 12 39  1  0  0  0  0
 12 40  1  0  0  0  0
 13 41  1  0  0  0  0
 13 42  1  0  0  0  0
 14 16  1  0  0  0  0
 14 45  1  0  0  0  0
 14 46  1  0  0  0  0
 16 17  2  0  0  0  0
 16 18  1  0  0  0  0
 17 20  1  0  0  0  0
 17 47  1  0  0  0  0
 18 21  2  0  0  0  0
 18 48  1  0  0  0  0
 19 24  1  0  0  0  0
 19 25  1  0  0  0  0
 20 23  2  0  0  0  0
 20 49  1  0  0  0  0
 21 23  1  0  0  0  0
 21 50  1  0  0  0  0
 22 24  2  0  0  0  0
 22 51  1  0  0  0  0
 23 26  1  0  0  0  0
 24 52  1  0  0  0  0
 25 27  2  0  0  0  0
 26 28  2  0  0  0  0
 26 29  1  0  0  0  0
 27 30  1  0  0  0  0
 27 53  1  0  0  0  0
 28 32  1  0  0  0  0
 28 54  1  0  0  0  0
 29 33  2  0  0  0  0
 29 55  1  0  0  0  0
 30 31  2  0  0  0  0
 30 56  1  0  0  0  0
 31 57  1  0  0  0  0
 32 34  2  0  0  0  0
 32 58  1  0  0  0  0
 33 34  1  0  0  0  0
 33 59  1  0  0  0  0
 34 60  1  0  0  0  0
M  END
> <PUBCHEM_COMPOUND_CID>
11912989

> <PUBCHEM_CONFORMER_RMSD>
1

> <PUBCHEM_CONFORMER_DIVERSEORDER>
1
93
56
110
145
128
80
11
12
7
38
111
40
106
195
167
37
158
36
218
206
134
8
142
116
144
176
115
221
31
14
136
169
98
122
84
137
99
197
81
69
222
188
49
29
160
155
53
205
178
130
149
196
108
6
202
141
87
184
18
74
35
67
124
39
43
153
86
223
95
207
139
182
26
23
193
161
179
225
151
62
229
147
220
224
89
201
96
164
109
34
132
226
9
21
61
63
213
211
65
102
181
105
210
50
78
150
192
219
217
171
52
4
228
10
94
57
60
92
170
73
183
203
163
117
123
17
32
209
58
71
162
91
51
72
172
125
113
133
180
100
131
199
159
148
103
2
47
114
175
187
143
190
77
166
42
13
97
88
156
107
146
48
165
191
177
5
19
119
140
46
152
118
64
55
157
101
227
214
27
208
83
127
138
200
186
129
216
174
45
173
75
121
68
198
212
104
30
194
24
85
154
189
22
112
54
25
70
15
185
126
66
90
82
41
135
28
16
20
120
33
79
76
44
168
215
3
204
59

> <PUBCHEM_MMFF94_PARTIAL_CHARGES>
48
1 -0.56
10 0.27
11 0.37
12 0.28
13 0.28
14 0.41
15 0.72
16 -0.14
17 -0.15
18 -0.15
19 0.36
2 -0.56
20 -0.15
21 -0.15
22 0.16
24 -0.15
25 0.09
27 -0.15
28 -0.15
29 -0.15
3 -0.28
30 -0.15
31 -0.01
32 -0.15
33 -0.15
34 -0.15
4 -0.9
43 0.36
44 0.4
47 0.15
48 0.15
49 0.15
5 -0.87
50 0.15
51 0.15
52 0.15
53 0.15
54 0.15
55 0.15
56 0.15
57 0.15
58 0.15
59 0.15
6 -0.62
60 0.15
7 -0.62
8 0.28
9 0.28

> <PUBCHEM_EFFECTIVE_ROTOR_COUNT>
8.2

> <PUBCHEM_PHARMACOPHORE_FEATURES>
14
1 1 acceptor
1 2 acceptor
1 3 acceptor
1 4 cation
1 4 donor
1 5 donor
1 6 acceptor
4 5 6 7 15 cation
5 1 8 9 10 12 rings
5 2 8 9 11 13 rings
5 3 25 27 30 31 rings
6 16 17 18 20 21 23 rings
6 26 28 29 32 33 34 rings
6 6 7 15 19 22 24 rings

> <PUBCHEM_HEAVY_ATOM_COUNT>
34

> <PUBCHEM_ATOM_DEF_STEREO_COUNT>
4

> <PUBCHEM_ATOM_UDEF_STEREO_COUNT>
0

> <PUBCHEM_BOND_DEF_STEREO_COUNT>
0

> <PUBCHEM_BOND_UDEF_STEREO_COUNT>
0

> <PUBCHEM_ISOTOPIC_ATOM_COUNT>
0

> <PUBCHEM_COMPONENT_COUNT>
1

> <PUBCHEM_CACTVS_TAUTO_COUNT>
3

> <PUBCHEM_CONFORMER_ID>
00B5C71D00000001

> <PUBCHEM_MMFF94_ENERGY>
93.8525

> <PUBCHEM_FEATURE_SELFOVERLAP>
71.764

> <PUBCHEM_SHAPE_FINGERPRINT>
10533779 1 18261377949929354324
10930396 42 16515692126777201801
11135609 201 18335143081493566587
11479125 193 18115867391535080969
11607047 74 12474763565112466687
12013929 29 18200037227250176216
12061779 8 18199190581569109065
12975358 362 17968670302052104548
13165054 27 18058472966512666073
13782708 43 8935001478046192550
14118638 360 18261668268138186402
14150022 121 18116166622038436851
14251764 75 18339083662162935579
14747282 140 18334575716372398149
14765038 42 18338241470347090533
15064981 113 17346885529432254790
15119646 57 18343865502856901295
15131766 46 18265045826847363013
15400415 2 18333725841339613694
15513586 35 17317630990232648053
15530120 55 17203030894723991228
16112460 7 18409450250098614432
16126227 98 18411989048506642505
16728433 281 18338527443157055548
19304152 47 17023181587651795549
19304671 126 18270967830348350806
19309040 13 17987801800364405559
19438510 23 18411984637126959723
20609170 109 15647347398012395561
21774942 28 18272368673145887008
21792938 79 17682945602539388645
2748736 6 18410283684391695320
3610482 184 17416958440477863397
393628 194 18410579513181563164
397830 11 10809622667166753462
437795 83 18341325712395545452
44426695 248 13912325685527557776
44426701 194 18044080269269117525
46194498 28 14761481823327013947
50677037 204 18335135384580219764
5937810 71 18262810670095202052
6034566 193 18267583516763210827
6036956 94 17982453685893288313
6712543 237 12973882568234274417

> <PUBCHEM_SHAPE_MULTIPOLES>
662.17
23.34
5.64
2.28
41.92
0.37
0.38
-30.65
1.94
-6.56
-2.62
-4.99
-1.39
-2.12

> <PUBCHEM_SHAPE_SELFOVERLAP>
1469.26

> <PUBCHEM_SHAPE_VOLUME>
353.6

> <PUBCHEM_COORDINATE_TYPE>
2
5
10

$$$$
