40777099
  -OEChem-12032416183D

 56 60  0     1  0  0  0  0  0999 V2000
   -3.1981   -2.3316    1.9619 Br  0  0  0  0  0  0  0  0  0  0  0  0
    5.0512   -2.3091   -0.7067 S   0  0  0  0  0  0  0  0  0  0  0  0
    5.1669    0.5333    1.9429 O   0  0  0  0  0  0  0  0  0  0  0  0
    1.1600    2.6012    1.1732 N   0  0  2  0  0  0  0  0  0  0  0  0
    3.3775   -0.4120    0.8073 N   0  0  0  0  0  0  0  0  0  0  0  0
   -1.1974    0.1741   -1.8884 N   0  0  0  0  0  0  0  0  0  0  0  0
   -3.1813   -1.1470   -1.5329 N   0  0  0  0  0  0  0  0  0  0  0  0
    0.6194    2.3276   -1.3598 C   0  0  2  0  0  0  0  0  0  0  0  0
   -0.6610    2.1183   -0.5048 C   0  0  2  0  0  0  0  0  0  0  0  0
    2.1318    1.6685    0.5439 C   0  0  2  0  0  0  0  0  0  0  0  0
    1.7068    1.3328   -0.9018 C   0  0  0  0  0  0  0  0  0  0  0  0
    1.1397    3.7460   -1.0425 C   0  0  0  0  0  0  0  0  0  0  0  0
   -0.2231    2.0956    0.9876 C   0  0  0  0  0  0  0  0  0  0  0  0
    1.2716    3.9080    0.4819 C   0  0  0  0  0  0  0  0  0  0  0  0
    2.3542    0.4067    1.3804 C   0  0  0  0  0  0  0  0  0  0  0  0
   -1.5770    0.9545   -0.8555 C   0  0  0  0  0  0  0  0  0  0  0  0
   -2.7289    0.7509   -0.1234 C   0  0  0  0  0  0  0  0  0  0  0  0
   -3.5002   -0.3259   -0.5110 C   0  0  0  0  0  0  0  0  0  0  0  0
   -2.0337   -0.8436   -2.1689 C   0  0  0  0  0  0  0  0  0  0  0  0
    4.7253   -0.2829    1.1383 C   0  0  0  0  0  0  0  0  0  0  0  0
   -4.7304   -0.6461    0.1728 C   0  0  0  0  0  0  0  0  0  0  0  0
   -1.6487   -1.7279   -3.3063 C   0  0  0  0  0  0  0  0  0  0  0  0
    5.6671   -1.1914    0.4351 C   0  0  0  0  0  0  0  0  0  0  0  0
   -4.7646   -1.5064    1.2703 C   0  0  0  0  0  0  0  0  0  0  0  0
   -5.9092   -0.0659   -0.2957 C   0  0  0  0  0  0  0  0  0  0  0  0
    7.0357   -1.2835    0.5623 C   0  0  0  0  0  0  0  0  0  0  0  0
   -5.9777   -1.7867    1.8992 C   0  0  0  0  0  0  0  0  0  0  0  0
   -7.1223   -0.3462    0.3332 C   0  0  0  0  0  0  0  0  0  0  0  0
    7.5859   -2.2849   -0.2890 C   0  0  0  0  0  0  0  0  0  0  0  0
    6.6169   -2.9199   -1.0343 C   0  0  0  0  0  0  0  0  0  0  0  0
   -7.1565   -1.2066    1.4306 C   0  0  0  0  0  0  0  0  0  0  0  0
    0.4196    2.2247   -2.4316 H   0  0  0  0  0  0  0  0  0  0  0  0
   -1.2843    3.0132   -0.6578 H   0  0  0  0  0  0  0  0  0  0  0  0
    3.1035    2.1828    0.4991 H   0  0  0  0  0  0  0  0  0  0  0  0
    1.3310    0.3071   -0.9863 H   0  0  0  0  0  0  0  0  0  0  0  0
    2.5778    1.4095   -1.5646 H   0  0  0  0  0  0  0  0  0  0  0  0
    0.4533    4.5032   -1.4392 H   0  0  0  0  0  0  0  0  0  0  0  0
    2.1116    3.9034   -1.5258 H   0  0  0  0  0  0  0  0  0  0  0  0
   -0.9095    2.7217    1.5734 H   0  0  0  0  0  0  0  0  0  0  0  0
   -0.3148    1.0946    1.4247 H   0  0  0  0  0  0  0  0  0  0  0  0
    2.2317    4.3798    0.7248 H   0  0  0  0  0  0  0  0  0  0  0  0
    0.5033    4.5949    0.8594 H   0  0  0  0  0  0  0  0  0  0  0  0
    1.4529   -0.2119    1.4368 H   0  0  0  0  0  0  0  0  0  0  0  0
    2.6401    0.6750    2.4041 H   0  0  0  0  0  0  0  0  0  0  0  0
    3.1034   -1.1104    0.1222 H   0  0  0  0  0  0  0  0  0  0  0  0
   -3.0130    1.3979    0.6980 H   0  0  0  0  0  0  0  0  0  0  0  0
   -2.1343   -1.3822   -4.2235 H   0  0  0  0  0  0  0  0  0  0  0  0
   -0.5648   -1.7186   -3.4586 H   0  0  0  0  0  0  0  0  0  0  0  0
   -1.9552   -2.7607   -3.1136 H   0  0  0  0  0  0  0  0  0  0  0  0
   -5.9031    0.6069   -1.1503 H   0  0  0  0  0  0  0  0  0  0  0  0
    7.6210   -0.6659    1.2317 H   0  0  0  0  0  0  0  0  0  0  0  0
   -6.0255   -2.4544    2.7558 H   0  0  0  0  0  0  0  0  0  0  0  0
   -8.0403    0.1053   -0.0315 H   0  0  0  0  0  0  0  0  0  0  0  0
    8.6388   -2.5271   -0.3516 H   0  0  0  0  0  0  0  0  0  0  0  0
    6.7536   -3.7132   -1.7555 H   0  0  0  0  0  0  0  0  0  0  0  0
   -8.1012   -1.4247    1.9201 H   0  0  0  0  0  0  0  0  0  0  0  0
  1 24  1  0  0  0  0
  2 23  1  0  0  0  0
  2 30  1  0  0  0  0
  3 20  2  0  0  0  0
  4 10  1  0  0  0  0
  4 13  1  0  0  0  0
  4 14  1  0  0  0  0
  5 15  1  0  0  0  0
  5 20  1  0  0  0  0
  5 45  1  0  0  0  0
  6 16  2  0  0  0  0
  6 19  1  0  0  0  0
  7 18  1  0  0  0  0
  7 19  2  0  0  0  0
  8  9  1  0  0  0  0
  8 11  1  0  0  0  0
  8 12  1  0  0  0  0
  8 32  1  0  0  0  0
  9 13  1  0  0  0  0
  9 16  1  0  0  0  0
  9 33  1  0  0  0  0
 10 11  1  0  0  0  0
 10 15  1  0  0  0  0
 10 34  1  0  0  0  0
 11 35  1  0  0  0  0
 11 36  1  0  0  0  0
 12 14  1  0  0  0  0
 12 37  1  0  0  0  0
 12 38  1  0  0  0  0
 13 39  1  0  0  0  0
 13 40  1  0  0  0  0
 14 41  1  0  0  0  0
 14 42  1  0  0  0  0
 15 43  1  0  0  0  0
 15 44  1  0  0  0  0
 16 17  1  0  0  0  0
 17 18  2  0  0  0  0
 17 46  1  0  0  0  0
 18 21  1  0  0  0  0
 19 22  1  0  0  0  0
 20 23  1  0  0  0  0
 21 24  1  0  0  0  0
 21 25  2  0  0  0  0
 22 47  1  0  0  0  0
 22 48  1  0  0  0  0
 22 49  1  0  0  0  0
 23 26  2  0  0  0  0
 24 27  2  0  0  0  0
 25 28  1  0  0  0  0
 25 50  1  0  0  0  0
 26 29  1  0  0  0  0
 26 51  1  0  0  0  0
 27 31  1  0  0  0  0
 27 52  1  0  0  0  0
 28 31  2  0  0  0  0
 28 53  1  0  0  0  0
 29 30  2  0  0  0  0
 29 54  1  0  0  0  0
 30 55  1  0  0  0  0
 31 56  1  0  0  0  0
M  END
> <PUBCHEM_COMPOUND_CID>
40777099

> <PUBCHEM_CONFORMER_RMSD>
1

> <PUBCHEM_CONFORMER_DIVERSEORDER>
1
37
123
143
108
98
119
139
77
64
27
82
88
154
75
124
149
141
113
157
39
129
42
107
151
130
166
67
104
59
66
76
78
144
153
167
43
65
142
148
165
118
80
121
159
101
115
109
132
140
120
152
40
128
111
116
105
162
100
131
45
48
24
84
125
146
54
71
94
86
89
97
32
34
117
112
12
49
145
135
69
133
158
23
164
79
51
56
126
127
122
138
163
160
134
47
44
83
102
92
147
58
85
21
81
30
52
18
93
60
73
2
38
50
41
22
19
53
61
95
106
90
46
161
28
87
36
110
136
57
33
74
62
6
31
150
8
156
68
26
15
63
114
25
96
72
4
91
103
35
14
29
99
137
3
55
155
11
7
9
70
5
10
20
16
13
17

> <PUBCHEM_MMFF94_PARTIAL_CHARGES>
36
1 -0.11
10 0.27
13 0.27
14 0.27
15 0.3
16 0.17
17 -0.15
18 0.31
19 0.48
2 -0.08
20 0.71
22 0.14
23 -0.05
24 0.11
25 -0.15
26 -0.15
27 -0.15
28 -0.15
29 -0.15
3 -0.57
30 -0.11
31 -0.15
4 -0.81
45 0.37
46 0.15
5 -0.73
50 0.15
51 0.15
52 0.15
53 0.15
54 0.15
55 0.15
56 0.15
6 -0.62
7 -0.62
9 0.14

> <PUBCHEM_EFFECTIVE_ROTOR_COUNT>
7.2

> <PUBCHEM_PHARMACOPHORE_FEATURES>
10
1 1 hydrophobe
1 3 acceptor
1 4 cation
1 5 donor
1 6 acceptor
3 6 7 19 cation
5 2 23 26 29 30 rings
6 21 24 25 27 28 31 rings
6 6 7 16 17 18 19 rings
8 4 8 9 10 11 12 13 14 rings

> <PUBCHEM_HEAVY_ATOM_COUNT>
31

> <PUBCHEM_ATOM_DEF_STEREO_COUNT>
3

> <PUBCHEM_ATOM_UDEF_STEREO_COUNT>
0

> <PUBCHEM_BOND_DEF_STEREO_COUNT>
0

> <PUBCHEM_BOND_UDEF_STEREO_COUNT>
0

> <PUBCHEM_ISOTOPIC_ATOM_COUNT>
0

> <PUBCHEM_COMPONENT_COUNT>
1

> <PUBCHEM_CACTVS_TAUTO_COUNT>
2

> <PUBCHEM_CONFORMER_ID>
026E358B00000001

> <PUBCHEM_MMFF94_ENERGY>
81.5188

> <PUBCHEM_FEATURE_SELFOVERLAP>
50.746

> <PUBCHEM_SHAPE_FINGERPRINT>
10010297 198 17830182659784748333
10692045 39 16702312230156995423
11135609 127 10590947284755139987
11135926 11 18120363522473085852
11211813 15 10737584829435152022
11399939 17 17976543041445616703
11505856 67 13480229633515381447
11513181 2 17537735664582499683
117089 54 18196944262640199006
11961588 58 10953460730213154980
12107183 9 17561079228536945547
12422481 6 17989203733223577526
12522641 68 15366183763069201165
12633257 1 16630520773540678017
12677640 9 16844429695995142679
13103583 49 16773788225804381438
131258 43 16298970752289120189
13150687 139 11530482199566983064
13402501 40 17967248719658848219
13540713 5 17557692848930515661
13583140 156 17835525195759382537
13673619 4 17749108902700062469
13690498 29 17313099739948281831
13782708 43 17458619060191857099
13947930 73 18115316686059154347
14202776 33 14996554033421997359
14251764 30 18333450928566074538
14420673 8 18186524324013425115
14767858 380 12973603343714555119
14955137 171 18413108372481028992
15669420 48 16370732552124622278
15684393 108 18335428933548698470
15721738 202 18260836986487722278
16110190 28 17846490444433431742
16120349 189 10375575015562005778
16992787 43 18266182906622863460
1813 80 18409724058901528572
19246450 95 17488469576994265761
20501277 279 18130777998454406048
20567600 254 9727630614026543784
20775530 9 18339065013662745542
208703 8 18260833653540424374
21365058 113 18041002855505973909
21403212 168 17060338488212498047
21716022 299 17969241047856302508
23559900 14 17896042208103483045
2838139 119 11383826052323496611
312425 54 16845276277230620378
3383291 50 18407759248834600563
3737641 26 18199744740093538526
3862424 121 15431180139347692843
4107672 100 16805878486426248293
437815 12 18335424568869628811
474113 269 18270953666211606831
513202 73 18129661885833531082
5372103 7 9223228524987151762
54039377 194 18410579453584251398
56633871 153 18059849571479934854
57816373 69 18189335835306572887
6009941 240 18189048694729889941
6058803 2 17270587303254685493
6371380 46 17968085418511999921
6679774 75 18271539679016126391
7918774 8 18335424556343455306
9896288 288 17985270659845961256
999808 66 18341051830910762922

> <PUBCHEM_SHAPE_MULTIPOLES>
621.96
18.8
3.85
2.22
8.08
3
-1.13
-20.61
5.67
3.73
0.03
-1.27
-0.97
2.4

> <PUBCHEM_SHAPE_SELFOVERLAP>
1328.994

> <PUBCHEM_SHAPE_VOLUME>
353.4

> <PUBCHEM_COORDINATE_TYPE>
2
5
10

$$$$
