38027552
  -OEChem-12032416253D

 66 68  0     1  0  0  0  0  0999 V2000
   -4.6881   -3.3462   -2.3548 F   0  0  0  0  0  0  0  0  0  0  0  0
   -2.6994    0.7544    2.8101 O   0  0  0  0  0  0  0  0  0  0  0  0
    1.6513    0.2949   -2.9871 O   0  0  0  0  0  0  0  0  0  0  0  0
    2.0362    1.9328   -1.3887 N   0  0  0  0  0  0  0  0  0  0  0  0
   -1.1793   -0.9297    2.3064 N   0  0  0  0  0  0  0  0  0  0  0  0
    6.1210   -3.7503    1.5436 N   0  0  0  0  0  0  0  0  0  0  0  0
   -0.8947    2.2357   -0.7876 C   0  0  1  0  0  0  0  0  0  0  0  0
    0.1116    3.3879   -1.0317 C   0  0  1  0  0  0  0  0  0  0  0  0
   -1.7441    2.5211    0.4603 C   0  0  0  0  0  0  0  0  0  0  0  0
   -0.8819    2.6923    1.7252 C   0  0  2  0  0  0  0  0  0  0  0  0
   -1.8083    2.0126   -1.9969 C   0  0  0  0  0  0  0  0  0  0  0  0
    0.2961    3.6140    1.4832 C   0  0  0  0  0  0  0  0  0  0  0  0
    0.7173    3.9241    0.2442 C   0  0  0  0  0  0  0  0  0  0  0  0
    1.2308    2.9522   -1.9845 C   0  0  0  0  0  0  0  0  0  0  0  0
   -0.4152    1.3352    2.2634 C   0  0  0  0  0  0  0  0  0  0  0  0
   -2.3393    0.5827   -2.0061 C   0  0  0  0  0  0  0  0  0  0  0  0
   -2.9568    3.0162   -1.9882 C   0  0  0  0  0  0  0  0  0  0  0  0
    0.9515    4.2085    2.6986 C   0  0  0  0  0  0  0  0  0  0  0  0
   -1.5706    0.3877    2.4952 C   0  0  0  0  0  0  0  0  0  0  0  0
    2.1866    0.6629   -1.9448 C   0  0  0  0  0  0  0  0  0  0  0  0
   -2.0783   -2.0500    2.4629 C   0  0  0  0  0  0  0  0  0  0  0  0
    3.0373   -0.2923   -1.1893 C   0  0  0  0  0  0  0  0  0  0  0  0
   -2.7741   -2.3958    1.1782 C   0  0  0  0  0  0  0  0  0  0  0  0
    2.8211   -1.6651   -1.3094 C   0  0  0  0  0  0  0  0  0  0  0  0
    4.0533    0.1839   -0.3606 C   0  0  0  0  0  0  0  0  0  0  0  0
   -3.9941   -1.7973    0.8631 C   0  0  0  0  0  0  0  0  0  0  0  0
   -2.2009   -3.3153    0.2997 C   0  0  0  0  0  0  0  0  0  0  0  0
    3.6209   -2.5616   -0.6010 C   0  0  0  0  0  0  0  0  0  0  0  0
    4.8531   -0.7127    0.3478 C   0  0  0  0  0  0  0  0  0  0  0  0
    4.6371   -2.0855    0.2276 C   0  0  0  0  0  0  0  0  0  0  0  0
   -4.6408   -2.1184   -0.3302 C   0  0  0  0  0  0  0  0  0  0  0  0
   -2.8476   -3.6365   -0.8936 C   0  0  0  0  0  0  0  0  0  0  0  0
   -4.0677   -3.0380   -1.2086 C   0  0  0  0  0  0  0  0  0  0  0  0
    5.4560   -3.0042    0.9537 C   0  0  0  0  0  0  0  0  0  0  0  0
   -0.3359    1.3099   -0.6036 H   0  0  0  0  0  0  0  0  0  0  0  0
   -0.4058    4.2331   -1.5027 H   0  0  0  0  0  0  0  0  0  0  0  0
   -2.5169    1.7607    0.5933 H   0  0  0  0  0  0  0  0  0  0  0  0
   -2.2780    3.4740    0.3445 H   0  0  0  0  0  0  0  0  0  0  0  0
   -1.5292    3.1580    2.4818 H   0  0  0  0  0  0  0  0  0  0  0  0
   -1.2482    2.1462   -2.9281 H   0  0  0  0  0  0  0  0  0  0  0  0
    1.5387    4.6289    0.1295 H   0  0  0  0  0  0  0  0  0  0  0  0
    1.8990    3.7971   -2.1913 H   0  0  0  0  0  0  0  0  0  0  0  0
    0.8396    2.6215   -2.9504 H   0  0  0  0  0  0  0  0  0  0  0  0
    0.0892    1.4570    3.2298 H   0  0  0  0  0  0  0  0  0  0  0  0
    0.3148    0.8846    1.5799 H   0  0  0  0  0  0  0  0  0  0  0  0
   -2.9560    0.3692   -1.1292 H   0  0  0  0  0  0  0  0  0  0  0  0
   -1.5185   -0.1421   -2.0298 H   0  0  0  0  0  0  0  0  0  0  0  0
   -2.9576    0.4089   -2.8935 H   0  0  0  0  0  0  0  0  0  0  0  0
   -3.7090    2.8042   -1.2212 H   0  0  0  0  0  0  0  0  0  0  0  0
   -3.4874    2.9632   -2.9471 H   0  0  0  0  0  0  0  0  0  0  0  0
   -2.6144    4.0498   -1.8823 H   0  0  0  0  0  0  0  0  0  0  0  0
    0.2132    4.7422    3.3057 H   0  0  0  0  0  0  0  0  0  0  0  0
    1.7389    4.9227    2.4349 H   0  0  0  0  0  0  0  0  0  0  0  0
    1.4090    3.4269    3.3126 H   0  0  0  0  0  0  0  0  0  0  0  0
    2.5030    2.1643   -0.5189 H   0  0  0  0  0  0  0  0  0  0  0  0
   -0.2214   -1.1350    2.0376 H   0  0  0  0  0  0  0  0  0  0  0  0
   -2.8124   -1.8220    3.2448 H   0  0  0  0  0  0  0  0  0  0  0  0
   -1.4864   -2.9002    2.8208 H   0  0  0  0  0  0  0  0  0  0  0  0
    2.0312   -2.0552   -1.9459 H   0  0  0  0  0  0  0  0  0  0  0  0
    4.2773    1.2418   -0.2627 H   0  0  0  0  0  0  0  0  0  0  0  0
   -4.4533   -1.0805    1.5383 H   0  0  0  0  0  0  0  0  0  0  0  0
   -1.2496   -3.7864    0.5326 H   0  0  0  0  0  0  0  0  0  0  0  0
    3.4393   -3.6288   -0.7039 H   0  0  0  0  0  0  0  0  0  0  0  0
    5.6458   -0.3270    0.9846 H   0  0  0  0  0  0  0  0  0  0  0  0
   -5.5903   -1.6521   -0.5761 H   0  0  0  0  0  0  0  0  0  0  0  0
   -2.4012   -4.3516   -1.5782 H   0  0  0  0  0  0  0  0  0  0  0  0
  1 33  1  0  0  0  0
  2 19  2  0  0  0  0
  3 20  2  0  0  0  0
  4 14  1  0  0  0  0
  4 20  1  0  0  0  0
  4 55  1  0  0  0  0
  5 19  1  0  0  0  0
  5 21  1  0  0  0  0
  5 56  1  0  0  0  0
  6 34  3  0  0  0  0
  7  8  1  0  0  0  0
  7  9  1  0  0  0  0
  7 11  1  0  0  0  0
  7 35  1  0  0  0  0
  8 13  1  0  0  0  0
  8 14  1  0  0  0  0
  8 36  1  0  0  0  0
  9 10  1  0  0  0  0
  9 37  1  0  0  0  0
  9 38  1  0  0  0  0
 10 12  1  0  0  0  0
 10 15  1  0  0  0  0
 10 39  1  0  0  0  0
 11 16  1  0  0  0  0
 11 17  1  0  0  0  0
 11 40  1  0  0  0  0
 12 13  2  0  0  0  0
 12 18  1  0  0  0  0
 13 41  1  0  0  0  0
 14 42  1  0  0  0  0
 14 43  1  0  0  0  0
 15 19  1  0  0  0  0
 15 44  1  0  0  0  0
 15 45  1  0  0  0  0
 16 46  1  0  0  0  0
 16 47  1  0  0  0  0
 16 48  1  0  0  0  0
 17 49  1  0  0  0  0
 17 50  1  0  0  0  0
 17 51  1  0  0  0  0
 18 52  1  0  0  0  0
 18 53  1  0  0  0  0
 18 54  1  0  0  0  0
 20 22  1  0  0  0  0
 21 23  1  0  0  0  0
 21 57  1  0  0  0  0
 21 58  1  0  0  0  0
 22 24  2  0  0  0  0
 22 25  1  0  0  0  0
 23 26  2  0  0  0  0
 23 27  1  0  0  0  0
 24 28  1  0  0  0  0
 24 59  1  0  0  0  0
 25 29  2  0  0  0  0
 25 60  1  0  0  0  0
 26 31  1  0  0  0  0
 26 61  1  0  0  0  0
 27 32  2  0  0  0  0
 27 62  1  0  0  0  0
 28 30  2  0  0  0  0
 28 63  1  0  0  0  0
 29 30  1  0  0  0  0
 29 64  1  0  0  0  0
 30 34  1  0  0  0  0
 31 33  2  0  0  0  0
 31 65  1  0  0  0  0
 32 33  1  0  0  0  0
 32 66  1  0  0  0  0
M  END
> <PUBCHEM_COMPOUND_CID>
38027552

> <PUBCHEM_CONFORMER_RMSD>
1.2

> <PUBCHEM_CONFORMER_DIVERSEORDER>
1
110
11
164
37
99
89
69
126
170
80
73
88
49
104
145
123
149
175
68
139
105
109
113
106
151
131
83
168
15
27
181
36
129
14
130
76
53
25
57
117
81
39
121
72
180
44
40
102
92
6
74
143
100
12
33
50
87
75
120
84
54
165
95
163
150
91
107
119
135
2
174
114
101
28
146
5
38
77
132
111
18
78
46
71
154
96
7
65
19
86
156
134
8
138
172
160
35
63
157
61
70
52
16
136
21
10
169
125
34
179
127
144
4
98
60
3
26
56
152
124
116
94
45
176
22
137
20
118
30
115
159
97
162
17
66
161
90
158
140
133
85
13
58
103
41
122
32
155
47
141
178
48
67
59
55
79
43
147
51
167
23
166
9
171
148
128
31
29
177
93
142
112
173
82
108
24
153
64
42
62

> <PUBCHEM_MMFF94_PARTIAL_CHARGES>
40
1 -0.19
10 0.14
12 -0.28
13 -0.29
14 0.3
15 0.06
18 0.14
19 0.57
2 -0.57
20 0.54
21 0.44
22 0.09
23 -0.14
24 -0.15
25 -0.15
26 -0.15
27 -0.15
28 -0.15
29 -0.15
3 -0.57
30 0.07
31 -0.15
32 -0.15
33 0.19
34 0.48
4 -0.73
41 0.15
5 -0.73
55 0.37
56 0.37
59 0.15
6 -0.56
60 0.15
61 0.15
62 0.15
63 0.15
64 0.15
65 0.15
66 0.15
8 0.14

> <PUBCHEM_EFFECTIVE_ROTOR_COUNT>
10.8

> <PUBCHEM_PHARMACOPHORE_FEATURES>
9
1 2 acceptor
1 3 acceptor
1 4 donor
1 5 donor
1 6 acceptor
3 11 16 17 hydrophobe
6 22 24 25 28 29 30 rings
6 23 26 27 31 32 33 rings
6 7 8 9 10 12 13 rings

> <PUBCHEM_HEAVY_ATOM_COUNT>
34

> <PUBCHEM_ATOM_DEF_STEREO_COUNT>
3

> <PUBCHEM_ATOM_UDEF_STEREO_COUNT>
0

> <PUBCHEM_BOND_DEF_STEREO_COUNT>
0

> <PUBCHEM_BOND_UDEF_STEREO_COUNT>
0

> <PUBCHEM_ISOTOPIC_ATOM_COUNT>
0

> <PUBCHEM_COMPONENT_COUNT>
1

> <PUBCHEM_CACTVS_TAUTO_COUNT>
4

> <PUBCHEM_CONFORMER_ID>
0244412000000001

> <PUBCHEM_MMFF94_ENERGY>
71.3679

> <PUBCHEM_FEATURE_SELFOVERLAP>
45.671

> <PUBCHEM_SHAPE_FINGERPRINT>
10842051 180 18192716864054055496
11285246 1 17530677714690879535
11427363 43 18408319977999447535
11552529 35 18196948686402817856
11720765 8 18265603454792518181
12156800 1 17899940968407285643
12977781 61 18123719149739377169
14114207 22 17624950001081757226
14251757 17 16226893422465393047
14674994 50 18190741921240761236
14705955 166 15477652960615242472
18603816 31 17244409800135652842
19315092 285 17413583197283847023
20775530 9 18338252538735904634
21315764 21 17532098369729804871
35225 105 17834439715166984693
4066623 53 18269542996955671005
469060 322 15697416863532366866
5081480 168 18116142454420946579
513532 50 17757807289822775983
57527452 28 17827635846835864549
86090 222 16038884875368394203

> <PUBCHEM_SHAPE_MULTIPOLES>
665.75
9.47
6.69
3.19
9.63
1.13
0.69
-15.03
-0.42
-1.29
0.8
-1.5
1.49
-1.42

> <PUBCHEM_SHAPE_SELFOVERLAP>
1402.458

> <PUBCHEM_SHAPE_VOLUME>
374.1

> <PUBCHEM_COORDINATE_TYPE>
2
5
10

$$$$
