45783344
  -OEChem-12032416263D

 58 61  0     1  0  0  0  0  0999 V2000
   -1.7615   -3.2608    0.5343 O   0  0  0  0  0  0  0  0  0  0  0  0
    3.9395    0.6348   -0.0754 O   0  0  0  0  0  0  0  0  0  0  0  0
    5.5467    2.0721   -1.8602 O   0  0  0  0  0  0  0  0  0  0  0  0
   -3.3680   -0.2546   -0.8393 N   0  0  1  0  0  0  0  0  0  0  0  0
   -0.6999   -1.4278   -0.1940 N   0  0  0  0  0  0  0  0  0  0  0  0
   -0.4345   -3.3821    0.9654 N   0  0  0  0  0  0  0  0  0  0  0  0
    4.2122   -1.3457    1.1025 N   0  0  0  0  0  0  0  0  0  0  0  0
   -3.5428    1.8628    0.3974 C   0  0  0  0  0  0  0  0  0  0  0  0
   -3.8597    0.3686    0.3827 C   0  0  0  0  0  0  0  0  0  0  0  0
   -3.1834   -1.7143   -0.7147 C   0  0  1  0  0  0  0  0  0  0  0  0
   -4.0401    2.5095    1.6974 C   0  0  0  0  0  0  0  0  0  0  0  0
   -2.0381    2.0995    0.2102 C   0  0  0  0  0  0  0  0  0  0  0  0
   -4.2770   -0.0477   -1.9670 C   0  0  0  0  0  0  0  0  0  0  0  0
   -3.3919   -2.2581   -2.1403 C   0  0  0  0  0  0  0  0  0  0  0  0
   -3.7485   -1.0411   -2.9820 C   0  0  0  0  0  0  0  0  0  0  0  0
   -3.6873    3.9939    1.7593 C   0  0  0  0  0  0  0  0  0  0  0  0
   -1.6887    3.5846    0.2748 C   0  0  0  0  0  0  0  0  0  0  0  0
   -2.1922    4.2258    1.5641 C   0  0  0  0  0  0  0  0  0  0  0  0
   -1.8319   -2.0832   -0.1402 C   0  0  0  0  0  0  0  0  0  0  0  0
    0.1277   -2.2636    0.4978 C   0  0  0  0  0  0  0  0  0  0  0  0
    1.5128   -1.9522    0.7026 C   0  0  0  0  0  0  0  0  0  0  0  0
    2.0467   -0.7740    0.1921 C   0  0  0  0  0  0  0  0  0  0  0  0
    2.3271   -2.8274    1.4128 C   0  0  0  0  0  0  0  0  0  0  0  0
    3.3899   -0.5197    0.4174 C   0  0  0  0  0  0  0  0  0  0  0  0
    3.6578   -2.4812    1.5835 C   0  0  0  0  0  0  0  0  0  0  0  0
    5.3222    0.8469    0.1841 C   0  0  0  0  0  0  0  0  0  0  0  0
    5.7510    2.1537   -0.4549 C   0  0  0  0  0  0  0  0  0  0  0  0
    5.9120    3.2813   -2.5104 C   0  0  0  0  0  0  0  0  0  0  0  0
   -4.0717    2.3490   -0.4337 H   0  0  0  0  0  0  0  0  0  0  0  0
   -4.9346    0.1947    0.5225 H   0  0  0  0  0  0  0  0  0  0  0  0
   -3.3650   -0.0847    1.2526 H   0  0  0  0  0  0  0  0  0  0  0  0
   -3.9654   -2.1440   -0.0725 H   0  0  0  0  0  0  0  0  0  0  0  0
   -3.5980    1.9989    2.5626 H   0  0  0  0  0  0  0  0  0  0  0  0
   -5.1271    2.3928    1.7812 H   0  0  0  0  0  0  0  0  0  0  0  0
   -1.6953    1.7134   -0.7566 H   0  0  0  0  0  0  0  0  0  0  0  0
   -1.4748    1.5638    0.9853 H   0  0  0  0  0  0  0  0  0  0  0  0
   -4.2360    0.9735   -2.3576 H   0  0  0  0  0  0  0  0  0  0  0  0
   -5.3160   -0.2901   -1.7105 H   0  0  0  0  0  0  0  0  0  0  0  0
   -4.2296   -2.9660   -2.1454 H   0  0  0  0  0  0  0  0  0  0  0  0
   -2.5156   -2.7716   -2.5506 H   0  0  0  0  0  0  0  0  0  0  0  0
   -2.8475   -0.6478   -3.4691 H   0  0  0  0  0  0  0  0  0  0  0  0
   -4.4807   -1.2764   -3.7600 H   0  0  0  0  0  0  0  0  0  0  0  0
   -4.2449    4.5339    0.9841 H   0  0  0  0  0  0  0  0  0  0  0  0
   -4.0013    4.4070    2.7244 H   0  0  0  0  0  0  0  0  0  0  0  0
   -0.6026    3.7109    0.2008 H   0  0  0  0  0  0  0  0  0  0  0  0
   -2.1299    4.1010   -0.5866 H   0  0  0  0  0  0  0  0  0  0  0  0
   -1.6439    3.8081    2.4174 H   0  0  0  0  0  0  0  0  0  0  0  0
   -1.9848    5.3016    1.5467 H   0  0  0  0  0  0  0  0  0  0  0  0
    1.4491   -0.0610   -0.3676 H   0  0  0  0  0  0  0  0  0  0  0  0
    1.9668   -3.7601    1.8341 H   0  0  0  0  0  0  0  0  0  0  0  0
    4.3351   -3.1294    2.1298 H   0  0  0  0  0  0  0  0  0  0  0  0
    5.9047    0.0272   -0.2548 H   0  0  0  0  0  0  0  0  0  0  0  0
    5.5023    0.8966    1.2645 H   0  0  0  0  0  0  0  0  0  0  0  0
    5.1466    2.9766   -0.0556 H   0  0  0  0  0  0  0  0  0  0  0  0
    6.8089    2.3444   -0.2437 H   0  0  0  0  0  0  0  0  0  0  0  0
    5.2979    4.1121   -2.1495 H   0  0  0  0  0  0  0  0  0  0  0  0
    6.9725    3.4984   -2.3496 H   0  0  0  0  0  0  0  0  0  0  0  0
    5.7395    3.1610   -3.5833 H   0  0  0  0  0  0  0  0  0  0  0  0
  1  6  1  0  0  0  0
  1 19  1  0  0  0  0
  2 24  1  0  0  0  0
  2 26  1  0  0  0  0
  3 27  1  0  0  0  0
  3 28  1  0  0  0  0
  4  9  1  0  0  0  0
  4 10  1  0  0  0  0
  4 13  1  0  0  0  0
  5 19  2  0  0  0  0
  5 20  1  0  0  0  0
  6 20  2  0  0  0  0
  7 24  2  0  0  0  0
  7 25  1  0  0  0  0
  8  9  1  0  0  0  0
  8 11  1  0  0  0  0
  8 12  1  0  0  0  0
  8 29  1  0  0  0  0
  9 30  1  0  0  0  0
  9 31  1  0  0  0  0
 10 14  1  0  0  0  0
 10 19  1  0  0  0  0
 10 32  1  0  0  0  0
 11 16  1  0  0  0  0
 11 33  1  0  0  0  0
 11 34  1  0  0  0  0
 12 17  1  0  0  0  0
 12 35  1  0  0  0  0
 12 36  1  0  0  0  0
 13 15  1  0  0  0  0
 13 37  1  0  0  0  0
 13 38  1  0  0  0  0
 14 15  1  0  0  0  0
 14 39  1  0  0  0  0
 14 40  1  0  0  0  0
 15 41  1  0  0  0  0
 15 42  1  0  0  0  0
 16 18  1  0  0  0  0
 16 43  1  0  0  0  0
 16 44  1  0  0  0  0
 17 18  1  0  0  0  0
 17 45  1  0  0  0  0
 17 46  1  0  0  0  0
 18 47  1  0  0  0  0
 18 48  1  0  0  0  0
 20 21  1  0  0  0  0
 21 22  2  0  0  0  0
 21 23  1  0  0  0  0
 22 24  1  0  0  0  0
 22 49  1  0  0  0  0
 23 25  2  0  0  0  0
 23 50  1  0  0  0  0
 25 51  1  0  0  0  0
 26 27  1  0  0  0  0
 26 52  1  0  0  0  0
 26 53  1  0  0  0  0
 27 54  1  0  0  0  0
 27 55  1  0  0  0  0
 28 56  1  0  0  0  0
 28 57  1  0  0  0  0
 28 58  1  0  0  0  0
M  END
> <PUBCHEM_COMPOUND_CID>
45783344

> <PUBCHEM_CONFORMER_RMSD>
1

> <PUBCHEM_CONFORMER_DIVERSEORDER>
1
78
61
26
53
41
71
56
20
80
45
51
30
35
28
79
3
62
37
59
23
68
64
69
74
12
77
34
54
81
50
10
29
49
57
66
67
24
73
75
63
22
17
48
38
43
70
13
52
72
8
14
6
21
65
76
60
39
18
40
33
46
15
16
5
25
27
36
4
42
58
7
32
55
31
11
44
9
2
47
19

> <PUBCHEM_MMFF94_PARTIAL_CHARGES>
23
1 -0.02
10 0.45
13 0.27
19 0.3
2 -0.36
20 0.46
21 0.05
22 -0.15
23 -0.15
24 0.39
25 0.16
26 0.28
27 0.28
28 0.28
3 -0.56
4 -0.81
49 0.15
5 -0.57
50 0.15
51 0.15
6 -0.41
7 -0.62
9 0.27

> <PUBCHEM_EFFECTIVE_ROTOR_COUNT>
10.2

> <PUBCHEM_PHARMACOPHORE_FEATURES>
7
1 3 acceptor
1 4 cation
3 5 6 20 cation
5 1 5 6 19 20 rings
5 4 10 13 14 15 rings
6 7 21 22 23 24 25 rings
6 8 11 12 16 17 18 rings

> <PUBCHEM_HEAVY_ATOM_COUNT>
28

> <PUBCHEM_ATOM_DEF_STEREO_COUNT>
1

> <PUBCHEM_ATOM_UDEF_STEREO_COUNT>
0

> <PUBCHEM_BOND_DEF_STEREO_COUNT>
0

> <PUBCHEM_BOND_UDEF_STEREO_COUNT>
0

> <PUBCHEM_ISOTOPIC_ATOM_COUNT>
0

> <PUBCHEM_COMPONENT_COUNT>
1

> <PUBCHEM_CACTVS_TAUTO_COUNT>
1

> <PUBCHEM_CONFORMER_ID>
02BA993000000001

> <PUBCHEM_MMFF94_ENERGY>
48.1369

> <PUBCHEM_FEATURE_SELFOVERLAP>
35.523

> <PUBCHEM_SHAPE_FINGERPRINT>
100830 2 18335997402044665696
10670039 82 18411699894392156828
10871710 139 18343578513363930049
11374522 363 17756706339123409444
11828042 291 11461282395718551833
12788726 201 18272364274318679917
12978246 48 17981321184103935209
13583140 156 17028530548591367643
13615921 28 18125434461140793149
13627167 48 18187654583243099108
14187579 7 18201437042732877704
14556957 393 18199443546700082389
15021287 119 17972310712458699962
15289351 153 18269825584825439888
15351339 4 17758674834324810232
16067690 210 18270698557311152348
21033648 29 16153981344568096015
21033650 10 18059581256610222226
21049683 271 17393607312885782579
21864079 5 18267021657040782763
312425 83 17845942835918796558
3610482 184 18340505429598293468
38570 142 18117020843941509558
50150288 127 17987539102626626977
5048184 11 17912076153952969433
50677037 204 18336269063100389140
5895379 119 18200297819953449690
6034566 193 17387429045532146996
6036956 94 18334298669148350869
6371009 1 18263343894384509176
6608658 132 18200302337778601021
6700243 42 17346035709221131774
9980921 221 18193584318646549012

> <PUBCHEM_SHAPE_MULTIPOLES>
538.69
12.72
5.83
2.26
17.25
3.92
-1.66
9.83
-5.12
-1.72
1.81
-0.49
0.51
-7.63

> <PUBCHEM_SHAPE_SELFOVERLAP>
1130.959

> <PUBCHEM_SHAPE_VOLUME>
304.2

> <PUBCHEM_COORDINATE_TYPE>
2
5
10

$$$$
