45783985
  -OEChem-12032416343D

 70 73  0     1  0  0  0  0  0999 V2000
    2.9713   -0.4684    1.1388 O   0  0  0  0  0  0  0  0  0  0  0  0
   -9.0414    2.2204    0.8206 O   0  0  0  0  0  0  0  0  0  0  0  0
    9.5254    1.5450   -1.1556 O   0  5  0  0  0  0  0  0  0  0  0  0
    9.2045   -0.5582   -1.6966 O   0  0  0  0  0  0  0  0  0  0  0  0
   -4.7563   -0.2240    0.1875 N   0  0  0  0  0  0  0  0  0  0  0  0
   -7.2260    1.1789   -0.1869 N   0  0  0  0  0  0  0  0  0  0  0  0
    1.8378    1.1566    2.1776 N   0  0  0  0  0  0  0  0  0  0  0  0
    3.0626    1.6691    1.7924 N   0  0  0  0  0  0  0  0  0  0  0  0
    8.8127    0.5123   -1.1725 N   0  3  0  0  0  0  0  0  0  0  0  0
   -1.9779   -0.4000   -0.7306 C   0  0  1  0  0  0  0  0  0  0  0  0
   -2.8271   -1.6452   -0.3846 C   0  0  2  0  0  0  0  0  0  0  0  0
   -0.9256   -0.1472    0.3582 C   0  0  0  0  0  0  0  0  0  0  0  0
    0.0067   -1.3537    0.5996 C   0  0  2  0  0  0  0  0  0  0  0  0
   -1.3248   -0.5346   -2.1128 C   0  0  0  0  0  0  0  0  0  0  0  0
   -3.9093   -1.3224    0.6508 C   0  0  0  0  0  0  0  0  0  0  0  0
   -1.9910   -2.7959    0.1145 C   0  0  0  0  0  0  0  0  0  0  0  0
   -0.7210   -2.6886    0.5464 C   0  0  0  0  0  0  0  0  0  0  0  0
    0.7575   -1.1359    1.9193 C   0  0  0  0  0  0  0  0  0  0  0  0
   -0.1747    0.4569   -2.2567 C   0  0  0  0  0  0  0  0  0  0  0  0
   -2.3602   -0.3255   -3.2133 C   0  0  0  0  0  0  0  0  0  0  0  0
   -5.4231    0.4284    1.3238 C   0  0  0  0  0  0  0  0  0  0  0  0
   -5.7495   -0.7111   -0.7810 C   0  0  0  0  0  0  0  0  0  0  0  0
    0.0515   -3.9171    0.9419 C   0  0  0  0  0  0  0  0  0  0  0  0
   -6.2822    1.5993    0.8477 C   0  0  0  0  0  0  0  0  0  0  0  0
   -6.6209    0.4359   -1.2961 C   0  0  0  0  0  0  0  0  0  0  0  0
    1.8285   -0.0928    1.7756 C   0  0  0  0  0  0  0  0  0  0  0  0
   -8.5550    1.5954   -0.1252 C   0  0  0  0  0  0  0  0  0  0  0  0
    3.6903    0.6861    1.1903 C   0  0  0  0  0  0  0  0  0  0  0  0
   -9.4282    1.2400   -1.3021 C   0  0  0  0  0  0  0  0  0  0  0  0
    4.9918    0.6421    0.5894 C   0  0  0  0  0  0  0  0  0  0  0  0
    5.8008    1.7784    0.5938 C   0  0  0  0  0  0  0  0  0  0  0  0
    5.4487   -0.5370    0.0006 C   0  0  0  0  0  0  0  0  0  0  0  0
    7.0664    1.7358    0.0091 C   0  0  0  0  0  0  0  0  0  0  0  0
    6.7144   -0.5798   -0.5840 C   0  0  0  0  0  0  0  0  0  0  0  0
    7.5232    0.5567   -0.5798 C   0  0  0  0  0  0  0  0  0  0  0  0
   -2.6072    0.4982   -0.7653 H   0  0  0  0  0  0  0  0  0  0  0  0
   -3.3185   -2.0155   -1.2896 H   0  0  0  0  0  0  0  0  0  0  0  0
   -1.4675    0.0690    1.2900 H   0  0  0  0  0  0  0  0  0  0  0  0
   -0.3518    0.7684    0.1810 H   0  0  0  0  0  0  0  0  0  0  0  0
    0.7446   -1.3980   -0.2118 H   0  0  0  0  0  0  0  0  0  0  0  0
   -0.9041   -1.5394   -2.2440 H   0  0  0  0  0  0  0  0  0  0  0  0
   -4.5079   -2.2136    0.8860 H   0  0  0  0  0  0  0  0  0  0  0  0
   -3.4173   -1.0439    1.5926 H   0  0  0  0  0  0  0  0  0  0  0  0
   -2.4672   -3.7740    0.0956 H   0  0  0  0  0  0  0  0  0  0  0  0
    0.0715   -0.8495    2.7257 H   0  0  0  0  0  0  0  0  0  0  0  0
    1.2630   -2.0468    2.2573 H   0  0  0  0  0  0  0  0  0  0  0  0
   -0.4888    1.4794   -2.0186 H   0  0  0  0  0  0  0  0  0  0  0  0
    0.1770    0.4703   -3.2957 H   0  0  0  0  0  0  0  0  0  0  0  0
    0.7032    0.2038   -1.6585 H   0  0  0  0  0  0  0  0  0  0  0  0
   -3.1470   -1.0839   -3.1950 H   0  0  0  0  0  0  0  0  0  0  0  0
   -1.8881   -0.3831   -4.2005 H   0  0  0  0  0  0  0  0  0  0  0  0
   -2.8359    0.6582   -3.1329 H   0  0  0  0  0  0  0  0  0  0  0  0
   -4.6769    0.8173    2.0271 H   0  0  0  0  0  0  0  0  0  0  0  0
   -6.0491   -0.2914    1.8679 H   0  0  0  0  0  0  0  0  0  0  0  0
   -6.3928   -1.4744   -0.3228 H   0  0  0  0  0  0  0  0  0  0  0  0
   -5.2655   -1.1694   -1.6491 H   0  0  0  0  0  0  0  0  0  0  0  0
    1.0404   -3.9156    0.4717 H   0  0  0  0  0  0  0  0  0  0  0  0
   -0.4535   -4.8365    0.6254 H   0  0  0  0  0  0  0  0  0  0  0  0
    0.1725   -3.9696    2.0280 H   0  0  0  0  0  0  0  0  0  0  0  0
   -5.6532    2.3850    0.4111 H   0  0  0  0  0  0  0  0  0  0  0  0
   -6.8108    2.0410    1.6986 H   0  0  0  0  0  0  0  0  0  0  0  0
   -7.3783    0.0335   -1.9718 H   0  0  0  0  0  0  0  0  0  0  0  0
   -6.0167    1.1496   -1.8696 H   0  0  0  0  0  0  0  0  0  0  0  0
   -9.5508    0.1555   -1.3642 H   0  0  0  0  0  0  0  0  0  0  0  0
   -8.9981    1.6310   -2.2280 H   0  0  0  0  0  0  0  0  0  0  0  0
  -10.4169    1.6905   -1.1707 H   0  0  0  0  0  0  0  0  0  0  0  0
    5.4649    2.7079    1.0471 H   0  0  0  0  0  0  0  0  0  0  0  0
    4.8473   -1.4424   -0.0223 H   0  0  0  0  0  0  0  0  0  0  0  0
    7.6693    2.6401    0.0314 H   0  0  0  0  0  0  0  0  0  0  0  0
    7.0377   -1.5154   -1.0332 H   0  0  0  0  0  0  0  0  0  0  0  0
  1 26  1  0  0  0  0
  1 28  1  0  0  0  0
  2 27  2  0  0  0  0
  3  9  1  0  0  0  0
  4  9  2  0  0  0  0
  5 15  1  0  0  0  0
  5 21  1  0  0  0  0
  5 22  1  0  0  0  0
  6 24  1  0  0  0  0
  6 25  1  0  0  0  0
  6 27  1  0  0  0  0
  7  8  1  0  0  0  0
  7 26  2  0  0  0  0
  8 28  2  0  0  0  0
  9 35  1  0  0  0  0
 10 11  1  0  0  0  0
 10 12  1  0  0  0  0
 10 14  1  0  0  0  0
 10 36  1  0  0  0  0
 11 15  1  0  0  0  0
 11 16  1  0  0  0  0
 11 37  1  0  0  0  0
 12 13  1  0  0  0  0
 12 38  1  0  0  0  0
 12 39  1  0  0  0  0
 13 17  1  0  0  0  0
 13 18  1  0  0  0  0
 13 40  1  0  0  0  0
 14 19  1  0  0  0  0
 14 20  1  0  0  0  0
 14 41  1  0  0  0  0
 15 42  1  0  0  0  0
 15 43  1  0  0  0  0
 16 17  2  0  0  0  0
 16 44  1  0  0  0  0
 17 23  1  0  0  0  0
 18 26  1  0  0  0  0
 18 45  1  0  0  0  0
 18 46  1  0  0  0  0
 19 47  1  0  0  0  0
 19 48  1  0  0  0  0
 19 49  1  0  0  0  0
 20 50  1  0  0  0  0
 20 51  1  0  0  0  0
 20 52  1  0  0  0  0
 21 24  1  0  0  0  0
 21 53  1  0  0  0  0
 21 54  1  0  0  0  0
 22 25  1  0  0  0  0
 22 55  1  0  0  0  0
 22 56  1  0  0  0  0
 23 57  1  0  0  0  0
 23 58  1  0  0  0  0
 23 59  1  0  0  0  0
 24 60  1  0  0  0  0
 24 61  1  0  0  0  0
 25 62  1  0  0  0  0
 25 63  1  0  0  0  0
 27 29  1  0  0  0  0
 28 30  1  0  0  0  0
 29 64  1  0  0  0  0
 29 65  1  0  0  0  0
 29 66  1  0  0  0  0
 30 31  2  0  0  0  0
 30 32  1  0  0  0  0
 31 33  1  0  0  0  0
 31 67  1  0  0  0  0
 32 34  2  0  0  0  0
 32 68  1  0  0  0  0
 33 35  2  0  0  0  0
 33 69  1  0  0  0  0
 34 35  1  0  0  0  0
 34 70  1  0  0  0  0
M  CHG  2   3  -1   9   1
M  END
> <PUBCHEM_COMPOUND_CID>
45783985

> <PUBCHEM_CONFORMER_RMSD>
1

> <PUBCHEM_CONFORMER_DIVERSEORDER>
26
106
113
6
335
68
339
25
223
340
102
271
236
263
48
73
87
181
235
237
333
141
312
319
13
166
24
114
251
288
172
195
189
255
178
329
150
111
170
276
4
169
315
186
101
134
192
250
316
45
218
177
12
137
247
71
53
190
51
197
205
49
188
202
66
28
318
267
11
29
289
123
21
27
75
125
155
286
322
257
107
46
35
39
179
175
65
287
266
30
118
219
325
241
55
96
280
7
212
115
295
302
310
23
174
297
92
57
206
152
176
199
275
14
201
10
89
243
43
285
149
268
163
204
182
200
269
161
284
259
278
112
215
331
273
301
127
82
254
19
338
109
234
52
183
253
41
324
133
148
304
9
323
216
171
342
298
264
31
270
184
105
3
16
194
140
283
210
303
67
47
306
34
128
311
85
314
341
256
97
320
229
80
147
282
72
168
334
20
70
121
132
74
129
224
162
159
258
59
146
321
50
42
131
58
221
260
208
327
337
265
78
300
196
252
160
307
198
309
138
119
36
291
193
238
214
173
84
63
135
15
100
290
230
272
104
167
56
145
8
220
336
60
120
231
158
32
211
122
83
110
292
332
209
98
246
40
157
5
225
99
62
116
164
81
226
37
240
281
69
328
274
233
61
185
154
76
279
242
95
124
249
222
136
239
151
88
228
54
245
207
38
94
277
18
79
244
262
317
213
294
156
299
17
165
44
144
153
293
93
296
330
142
108
126
33
308
86
90
130
313
248
77
64
180
22
143
139
232
117
187
326
305
91
1
103
191
203
261
227
2
217

> <PUBCHEM_MMFF94_PARTIAL_CHARGES>
35
1 -0.28
11 0.14
13 0.14
15 0.27
16 -0.29
17 -0.28
18 0.18
2 -0.57
21 0.27
22 0.27
23 0.14
24 0.3
25 0.3
26 0.3
27 0.57
28 0.43
29 0.06
3 -0.52
30 0.05
31 -0.15
32 -0.15
33 -0.15
34 -0.15
35 0.13
4 -0.52
44 0.15
5 -0.81
6 -0.66
67 0.15
68 0.15
69 0.15
7 -0.34
70 0.15
8 -0.34
9 0.91

> <PUBCHEM_EFFECTIVE_ROTOR_COUNT>
10

> <PUBCHEM_PHARMACOPHORE_FEATURES>
10
1 2 acceptor
1 3 acceptor
1 3 anion
1 4 acceptor
1 5 cation
3 14 19 20 hydrophobe
5 1 7 8 26 28 rings
6 10 11 12 13 16 17 rings
6 30 31 32 33 34 35 rings
6 5 6 21 22 24 25 rings

> <PUBCHEM_HEAVY_ATOM_COUNT>
35

> <PUBCHEM_ATOM_DEF_STEREO_COUNT>
3

> <PUBCHEM_ATOM_UDEF_STEREO_COUNT>
0

> <PUBCHEM_BOND_DEF_STEREO_COUNT>
0

> <PUBCHEM_BOND_UDEF_STEREO_COUNT>
0

> <PUBCHEM_ISOTOPIC_ATOM_COUNT>
0

> <PUBCHEM_COMPONENT_COUNT>
1

> <PUBCHEM_CACTVS_TAUTO_COUNT>
1

> <PUBCHEM_CONFORMER_ID>
02BA9BB10000001A

> <PUBCHEM_MMFF94_ENERGY>
77.5364

> <PUBCHEM_FEATURE_SELFOVERLAP>
50.828

> <PUBCHEM_SHAPE_FINGERPRINT>
10 15 17095237000294768513
10165383 225 18334294253683813970
10190206 1 17988087694762685449
10369192 42 18113051636323523943
10483366 6 16200433555089205025
106641 1 11025798708885887944
10670039 82 16343705401094312929
10674148 151 18272365382931932728
11411753 3 17772461545894873978
11991303 11 16773500179875952983
12218070 45 13262692473155699553
12838863 1 12175625070669577156
13150687 139 16774070779139663093
14040221 97 17677042435671645821
14664723 55 18410299120467682033
14840074 17 17313093181333130775
15183329 4 17561366179596965570
15188451 53 12823301204489892954
15320295 40 13110964214681075040
15347590 135 12901540234828290933
15350500 16 12679463079863138250
15392192 104 17967531273089107707
15461852 350 18272646884000323799
16992610 120 18260275152930612830
17852330 162 14835254732111739736
2026 5 12535352290124671869
20721686 146 18188487970318594909
21095123 293 17458064867487140836
21130935 74 8069491221955521344
21344244 246 14476971060077382845
23576562 1 17345459561081362601
24180151 248 17678451962196721854
24771293 8 17530682105091903015
3178227 256 14707212128065311292
38570 142 18273489070825291515
3986486 107 17775005674093811449
4098825 35 18412547596503641982
4149490 64 8645900306134501637
4353968 344 14764353704374448441
474113 269 16271935870607827452
484989 97 14404605689215351335
57527293 21 17604409827017188331
58260988 393 14635140179835223711
59682541 35 12973606642154668145
6004065 56 10447920698314752338
9689198 14 17967254199672568530
9953998 17 14273458089463707369

> <PUBCHEM_SHAPE_MULTIPOLES>
671.9
28.78
2.56
2.13
10.07
2.24
0.89
-23.45
7.66
-1.49
-0.69
0.08
-0.37
-0.26

> <PUBCHEM_SHAPE_SELFOVERLAP>
1417.46

> <PUBCHEM_SHAPE_VOLUME>
376.2

> <PUBCHEM_COORDINATE_TYPE>
2
5
10

$$$$
