75536081
  -OEChem-12032416293D

 41 43  0     1  0  0  0  0  0999 V2000
    1.6113    3.3949   -1.1804 O   0  0  0  0  0  0  0  0  0  0  0  0
    3.9985    2.0417   -1.2788 O   0  0  0  0  0  0  0  0  0  0  0  0
   -0.5127   -0.6991   -1.0641 O   0  0  0  0  0  0  0  0  0  0  0  0
    0.0460    1.1285    0.2504 N   0  0  0  0  0  0  0  0  0  0  0  0
    2.3038   -3.3811    0.9764 N   0  0  0  0  0  0  0  0  0  0  0  0
   -6.5069   -1.0466   -1.6270 N   0  0  0  0  0  0  0  0  0  0  0  0
    2.3406    0.4101    0.8452 C   0  0  2  0  0  0  0  0  0  0  0  0
    1.4342    1.1941   -0.1305 C   0  0  2  0  0  0  0  0  0  0  0  0
    1.9796    2.6195   -0.0554 C   0  0  1  0  0  0  0  0  0  0  0  0
    3.6538    1.2279    0.9515 C   0  0  0  0  0  0  0  0  0  0  0  0
    3.4881    2.4102   -0.0012 C   0  0  1  0  0  0  0  0  0  0  0  0
    2.5369   -1.0354    0.4395 C   0  0  0  0  0  0  0  0  0  0  0  0
    3.1063   -1.3648   -0.7855 C   0  0  0  0  0  0  0  0  0  0  0  0
    2.1559   -2.0713    1.2771 C   0  0  0  0  0  0  0  0  0  0  0  0
   -0.8239    0.1724   -0.2565 C   0  0  0  0  0  0  0  0  0  0  0  0
    3.2749   -2.7012   -1.1306 C   0  0  0  0  0  0  0  0  0  0  0  0
   -2.2301    0.2556    0.2155 C   0  0  0  0  0  0  0  0  0  0  0  0
    2.8610   -3.6625   -0.2227 C   0  0  0  0  0  0  0  0  0  0  0  0
   -3.2650   -0.2269   -0.5857 C   0  0  0  0  0  0  0  0  0  0  0  0
   -2.5154    0.8171    1.4602 C   0  0  0  0  0  0  0  0  0  0  0  0
   -4.5851   -0.1480   -0.1423 C   0  0  0  0  0  0  0  0  0  0  0  0
   -3.8357    0.8956    1.9038 C   0  0  0  0  0  0  0  0  0  0  0  0
   -4.8705    0.4133    1.1025 C   0  0  0  0  0  0  0  0  0  0  0  0
   -5.6455   -0.6439   -0.9616 C   0  0  0  0  0  0  0  0  0  0  0  0
    1.8797    0.4208    1.8441 H   0  0  0  0  0  0  0  0  0  0  0  0
    1.5126    0.8287   -1.1619 H   0  0  0  0  0  0  0  0  0  0  0  0
    1.6286    3.1271    0.8521 H   0  0  0  0  0  0  0  0  0  0  0  0
    3.7443    1.6033    1.9786 H   0  0  0  0  0  0  0  0  0  0  0  0
    4.5486    0.6347    0.7354 H   0  0  0  0  0  0  0  0  0  0  0  0
    4.0208    3.3069    0.3289 H   0  0  0  0  0  0  0  0  0  0  0  0
   -0.2863    1.8348    0.8976 H   0  0  0  0  0  0  0  0  0  0  0  0
    2.0694    4.2496   -1.1084 H   0  0  0  0  0  0  0  0  0  0  0  0
    4.9525    1.8829   -1.1775 H   0  0  0  0  0  0  0  0  0  0  0  0
    3.4281   -0.5984   -1.4835 H   0  0  0  0  0  0  0  0  0  0  0  0
    1.7049   -1.8807    2.2459 H   0  0  0  0  0  0  0  0  0  0  0  0
    3.7170   -2.9814   -2.0797 H   0  0  0  0  0  0  0  0  0  0  0  0
    2.9707   -4.7190   -0.4441 H   0  0  0  0  0  0  0  0  0  0  0  0
   -3.0475   -0.6617   -1.5592 H   0  0  0  0  0  0  0  0  0  0  0  0
   -1.7393    1.1738    2.1306 H   0  0  0  0  0  0  0  0  0  0  0  0
   -4.0576    1.3253    2.8763 H   0  0  0  0  0  0  0  0  0  0  0  0
   -5.8943    0.4799    1.4629 H   0  0  0  0  0  0  0  0  0  0  0  0
  1  9  1  0  0  0  0
  1 32  1  0  0  0  0
  2 11  1  0  0  0  0
  2 33  1  0  0  0  0
  3 15  2  0  0  0  0
  4  8  1  0  0  0  0
  4 15  1  0  0  0  0
  4 31  1  0  0  0  0
  5 14  1  0  0  0  0
  5 18  2  0  0  0  0
  6 24  3  0  0  0  0
  7  8  1  0  0  0  0
  7 10  1  0  0  0  0
  7 12  1  0  0  0  0
  7 25  1  0  0  0  0
  8  9  1  0  0  0  0
  8 26  1  0  0  0  0
  9 11  1  0  0  0  0
  9 27  1  0  0  0  0
 10 11  1  0  0  0  0
 10 28  1  0  0  0  0
 10 29  1  0  0  0  0
 11 30  1  0  0  0  0
 12 13  1  0  0  0  0
 12 14  2  0  0  0  0
 13 16  2  0  0  0  0
 13 34  1  0  0  0  0
 14 35  1  0  0  0  0
 15 17  1  0  0  0  0
 16 18  1  0  0  0  0
 16 36  1  0  0  0  0
 17 19  1  0  0  0  0
 17 20  2  0  0  0  0
 18 37  1  0  0  0  0
 19 21  2  0  0  0  0
 19 38  1  0  0  0  0
 20 22  1  0  0  0  0
 20 39  1  0  0  0  0
 21 23  1  0  0  0  0
 21 24  1  0  0  0  0
 22 23  2  0  0  0  0
 22 40  1  0  0  0  0
 23 41  1  0  0  0  0
M  END
> <PUBCHEM_COMPOUND_CID>
75536081

> <PUBCHEM_CONFORMER_RMSD>
0.8

> <PUBCHEM_CONFORMER_DIVERSEORDER>
1
71
41
51
62
20
46
75
68
35
24
54
64
26
67
7
70
3
61
38
53
17
69
2
72
40
48
63
19
23
25
58
52
47
4
66
6
73
56
49
32
34
59
37
9
28
18
55
50
22
74
16
21
39
8
60
42
13
36
10
57
65
5
27
33
43
31
12
29
45
15
11
30
44
14

> <PUBCHEM_MMFF94_PARTIAL_CHARGES>
34
1 -0.68
11 0.28
12 -0.14
13 -0.15
14 0.16
15 0.54
16 -0.15
17 0.09
18 0.16
19 -0.15
2 -0.68
20 -0.15
21 0.07
22 -0.15
23 -0.15
24 0.48
3 -0.57
31 0.37
32 0.4
33 0.4
34 0.15
35 0.15
36 0.15
37 0.15
38 0.15
39 0.15
4 -0.73
40 0.15
41 0.15
5 -0.62
6 -0.56
7 0.14
8 0.3
9 0.28

> <PUBCHEM_EFFECTIVE_ROTOR_COUNT>
5

> <PUBCHEM_PHARMACOPHORE_FEATURES>
11
1 1 acceptor
1 1 donor
1 2 acceptor
1 2 donor
1 3 acceptor
1 4 donor
1 5 acceptor
1 6 acceptor
5 7 8 9 10 11 rings
6 17 19 20 21 22 23 rings
6 5 12 13 14 16 18 rings

> <PUBCHEM_HEAVY_ATOM_COUNT>
24

> <PUBCHEM_ATOM_DEF_STEREO_COUNT>
4

> <PUBCHEM_ATOM_UDEF_STEREO_COUNT>
0

> <PUBCHEM_BOND_DEF_STEREO_COUNT>
0

> <PUBCHEM_BOND_UDEF_STEREO_COUNT>
0

> <PUBCHEM_ISOTOPIC_ATOM_COUNT>
0

> <PUBCHEM_COMPONENT_COUNT>
1

> <PUBCHEM_CACTVS_TAUTO_COUNT>
2

> <PUBCHEM_CONFORMER_ID>
048096D100000001

> <PUBCHEM_MMFF94_ENERGY>
67.1208

> <PUBCHEM_FEATURE_SELFOVERLAP>
55.834

> <PUBCHEM_SHAPE_FINGERPRINT>
10693767 8 18201447943876775390
11421498 54 18201729457007155232
12107183 9 17840316514860608713
12236239 1 18059856190124796825
12553582 1 18193841427382212666
13009979 54 17630898100889327242
13167823 11 18201719535932958667
13533116 47 18272086106962724499
13583140 156 18263364853750638071
14251739 40 18412260627878586029
14863182 85 18410292523908968416
15250474 111 18202277018425044167
17138139 8 17626645439464713871
17349148 13 17775281634865075671
17492 89 18343021060815985067
17818456 19 17772481079691063497
1813 80 18126012555085673846
18681886 176 16630250310939579576
20157964 124 18335129934772369629
20645477 70 18335412465714974943
21054139 6 18127965519395384078
21285901 2 17676753332437176861
22224240 67 18271230734208519200
2255824 54 18410863152831489290
23557571 272 16009014056539348870
23559900 14 18334576866974246019
23598291 2 18272099240276396465
25147074 1 17988935448898528401
25222932 49 16557317518778250611
3060560 45 18263367039820913988
312423 11 18131074805556767355
3421961 26 18339080376560485386
3633792 109 18339349800365073375
4409770 3 17038672362130980548
474 4 18336827610099590072
5104073 3 17847066562994102651
5312544 6 18343297098153109223
59682541 52 18189597411947494255
6025842 7 18336822086671167389
7970288 3 18053663568728597487
8272917 22 18408324405867753293
960060 61 17968663713787899951

> <PUBCHEM_SHAPE_MULTIPOLES>
461.36
11.31
3.62
1.46
18.48
1.2
0.17
2.4
-2.1
-6.7
-0.55
0.87
0.03
-1.65

> <PUBCHEM_SHAPE_SELFOVERLAP>
996.25

> <PUBCHEM_SHAPE_VOLUME>
249.9

> <PUBCHEM_COORDINATE_TYPE>
2
5
10

$$$$
