11879542
  -OEChem-12032416373D

 50 54  0     1  0  0  0  0  0999 V2000
   -4.5681    0.2376   -0.3091 S   0  0  0  0  0  0  0  0  0  0  0  0
    2.9633   -1.9424    3.1789 S   0  0  0  0  0  0  0  0  0  0  0  0
    1.0294    0.3784    0.2309 O   0  0  0  0  0  0  0  0  0  0  0  0
   -0.7140   -1.9666   -0.7776 O   0  0  0  0  0  0  0  0  0  0  0  0
    2.6194   -1.8694    0.5298 O   0  0  0  0  0  0  0  0  0  0  0  0
   -8.1639    0.9001   -1.0495 O   0  0  0  0  0  0  0  0  0  0  0  0
   -2.1583    1.0973    0.6166 N   0  0  0  0  0  0  0  0  0  0  0  0
   -1.6122    1.9055    1.5316 N   0  0  0  0  0  0  0  0  0  0  0  0
   -3.8367    1.9691    1.6664 N   0  0  0  0  0  0  0  0  0  0  0  0
   -2.6455    2.4380    2.1726 N   0  0  0  0  0  0  0  0  0  0  0  0
    4.5516   -0.8069    1.3839 N   0  0  0  0  0  0  0  0  0  0  0  0
    9.1206    2.1598   -0.8800 N   0  0  0  0  0  0  0  0  0  0  0  0
   -0.8967   -1.0117    0.2911 C   0  0  1  0  0  0  0  0  0  0  0  0
    0.4710   -0.7652    0.8965 C   0  0  1  0  0  0  0  0  0  0  0  0
   -1.3025    0.3287   -0.2903 C   0  0  2  0  0  0  0  0  0  0  0  0
    1.2195   -2.0313    0.5538 C   0  0  1  0  0  0  0  0  0  0  0  0
    0.0403    0.9710   -0.6230 C   0  0  0  0  0  0  0  0  0  0  0  0
    0.6619   -2.3703   -0.8090 C   0  0  0  0  0  0  0  0  0  0  0  0
   -3.5097    1.1396    0.7023 C   0  0  0  0  0  0  0  0  0  0  0  0
    3.3930   -1.5213    1.6156 C   0  0  0  0  0  0  0  0  0  0  0  0
   -6.1955    0.7473    0.3202 C   0  0  0  0  0  0  0  0  0  0  0  0
    5.1336   -0.3350    0.1810 C   0  0  0  0  0  0  0  0  0  0  0  0
   -7.3053    0.0701   -0.4310 C   0  0  0  0  0  0  0  0  0  0  0  0
    6.3230    0.3704    0.2366 C   0  0  0  0  0  0  0  0  0  0  0  0
    4.4975   -0.5891   -1.0217 C   0  0  0  0  0  0  0  0  0  0  0  0
   -7.6164   -1.2350   -0.6103 C   0  0  0  0  0  0  0  0  0  0  0  0
    6.8942    0.8364   -0.9476 C   0  0  0  0  0  0  0  0  0  0  0  0
    5.0687   -0.1230   -2.2058 C   0  0  0  0  0  0  0  0  0  0  0  0
   -8.7794   -1.2302   -1.4169 C   0  0  0  0  0  0  0  0  0  0  0  0
   -9.0721    0.0921   -1.6569 C   0  0  0  0  0  0  0  0  0  0  0  0
    6.2671    0.5897   -2.1688 C   0  0  0  0  0  0  0  0  0  0  0  0
    8.1221    1.5662   -0.9103 C   0  0  0  0  0  0  0  0  0  0  0  0
   -1.6112   -1.4440    0.9987 H   0  0  0  0  0  0  0  0  0  0  0  0
    0.4312   -0.5372    1.9646 H   0  0  0  0  0  0  0  0  0  0  0  0
   -1.8677    0.2257   -1.2233 H   0  0  0  0  0  0  0  0  0  0  0  0
    0.9340   -2.8394    1.2394 H   0  0  0  0  0  0  0  0  0  0  0  0
    0.0647    2.0592   -0.5127 H   0  0  0  0  0  0  0  0  0  0  0  0
    0.3312    0.7342   -1.6528 H   0  0  0  0  0  0  0  0  0  0  0  0
    0.7269   -3.4395   -1.0320 H   0  0  0  0  0  0  0  0  0  0  0  0
    1.1705   -1.8307   -1.6156 H   0  0  0  0  0  0  0  0  0  0  0  0
    5.0809   -0.5786    2.2228 H   0  0  0  0  0  0  0  0  0  0  0  0
   -6.2733    0.4853    1.3810 H   0  0  0  0  0  0  0  0  0  0  0  0
   -6.2901    1.8352    0.2315 H   0  0  0  0  0  0  0  0  0  0  0  0
    6.8084    0.5607    1.1913 H   0  0  0  0  0  0  0  0  0  0  0  0
    3.5768   -1.1288   -1.1584 H   0  0  0  0  0  0  0  0  0  0  0  0
   -7.0923   -2.0955   -0.2201 H   0  0  0  0  0  0  0  0  0  0  0  0
    4.5818   -0.3148   -3.1577 H   0  0  0  0  0  0  0  0  0  0  0  0
   -9.3350   -2.0837   -1.7776 H   0  0  0  0  0  0  0  0  0  0  0  0
   -9.8503    0.5970   -2.2105 H   0  0  0  0  0  0  0  0  0  0  0  0
    6.7000    0.9462   -3.1005 H   0  0  0  0  0  0  0  0  0  0  0  0
  1 19  1  0  0  0  0
  1 21  1  0  0  0  0
  2 20  2  0  0  0  0
  3 14  1  0  0  0  0
  3 17  1  0  0  0  0
  4 13  1  0  0  0  0
  4 18  1  0  0  0  0
  5 16  1  0  0  0  0
  5 20  1  0  0  0  0
  6 23  1  0  0  0  0
  6 30  1  0  0  0  0
  7  8  1  0  0  0  0
  7 15  1  0  0  0  0
  7 19  1  0  0  0  0
  8 10  2  0  0  0  0
  9 10  1  0  0  0  0
  9 19  2  0  0  0  0
 11 20  1  0  0  0  0
 11 22  1  0  0  0  0
 11 41  1  0  0  0  0
 12 32  3  0  0  0  0
 13 14  1  0  0  0  0
 13 15  1  0  0  0  0
 13 33  1  0  0  0  0
 14 16  1  0  0  0  0
 14 34  1  0  0  0  0
 15 17  1  0  0  0  0
 15 35  1  0  0  0  0
 16 18  1  0  0  0  0
 16 36  1  0  0  0  0
 17 37  1  0  0  0  0
 17 38  1  0  0  0  0
 18 39  1  0  0  0  0
 18 40  1  0  0  0  0
 21 23  1  0  0  0  0
 21 42  1  0  0  0  0
 21 43  1  0  0  0  0
 22 24  1  0  0  0  0
 22 25  2  0  0  0  0
 23 26  2  0  0  0  0
 24 27  2  0  0  0  0
 24 44  1  0  0  0  0
 25 28  1  0  0  0  0
 25 45  1  0  0  0  0
 26 29  1  0  0  0  0
 26 46  1  0  0  0  0
 27 31  1  0  0  0  0
 27 32  1  0  0  0  0
 28 31  2  0  0  0  0
 28 47  1  0  0  0  0
 29 30  2  0  0  0  0
 29 48  1  0  0  0  0
 30 49  1  0  0  0  0
 31 50  1  0  0  0  0
M  END
> <PUBCHEM_COMPOUND_CID>
11879542

> <PUBCHEM_CONFORMER_RMSD>
1.4

> <PUBCHEM_CONFORMER_DIVERSEORDER>
1
320
253
74
90
106
237
165
27
44
185
190
17
109
326
203
37
155
11
47
63
198
274
217
188
146
281
201
73
87
129
160
327
304
32
75
3
193
244
154
272
248
290
311
80
276
151
307
148
301
85
128
163
112
260
191
31
313
184
123
182
143
18
161
134
231
28
133
233
103
331
337
130
86
268
55
50
255
43
209
20
232
8
115
175
171
321
77
180
23
181
152
293
99
259
318
39
95
200
205
57
286
51
252
308
263
122
36
225
333
309
12
71
206
220
314
315
284
261
29
187
100
299
189
174
266
245
269
127
186
166
162
45
208
42
183
49
119
94
172
211
282
108
199
228
61
254
41
88
25
264
234
306
113
300
285
235
67
256
164
295
169
34
243
40
229
53
302
249
212
262
214
267
219
310
38
275
33
218
72
102
16
62
58
287
277
226
271
236
117
124
213
125
325
138
167
79
105
279
251
177
247
222
7
142
332
137
250
10
176
89
126
21
323
82
227
305
238
121
107
221
296
298
54
270
140
4
147
35
230
97
303
170
273
64
192
179
81
312
173
280
141
239
30
202
19
207
324
120
336
159
215
210
131
132
76
322
158
83
78
258
328
56
224
2
114
316
294
319
13
68
14
136
144
292
288
265
48
197
257
91
223
9
60
84
153
139
178
145
15
317
104
110
96
195
330
65
246
149
26
216
156
66
6
135
289
46
98
93
241
168
150
329
157
59
101
194
111
204
22
242
5
69
278
334
70
52
92
335
297
118
116
196
291
24
240
283

> <PUBCHEM_MMFF94_PARTIAL_CHARGES>
39
1 -0.29
11 -0.55
12 -0.56
13 0.28
14 0.28
15 0.26
16 0.28
17 0.28
18 0.28
19 0.24
2 -0.38
20 0.59
21 0.41
22 0.12
23 -0.04
24 -0.15
25 -0.15
26 -0.15
27 0.07
28 -0.15
29 -0.15
3 -0.56
30 -0.01
31 -0.15
32 0.48
4 -0.56
41 0.37
44 0.15
45 0.15
46 0.15
47 0.15
48 0.15
49 0.15
5 -0.43
50 0.15
6 -0.28
7 0.31
8 -0.42
9 -0.34

> <PUBCHEM_EFFECTIVE_ROTOR_COUNT>
9.2

> <PUBCHEM_PHARMACOPHORE_FEATURES>
11
1 12 acceptor
1 2 acceptor
1 3 acceptor
1 4 acceptor
1 6 acceptor
3 7 9 19 cation
5 3 13 14 15 17 rings
5 4 13 14 16 18 rings
5 6 23 26 29 30 rings
5 7 8 9 10 19 rings
6 22 24 25 27 28 31 rings

> <PUBCHEM_HEAVY_ATOM_COUNT>
32

> <PUBCHEM_ATOM_DEF_STEREO_COUNT>
4

> <PUBCHEM_ATOM_UDEF_STEREO_COUNT>
0

> <PUBCHEM_BOND_DEF_STEREO_COUNT>
0

> <PUBCHEM_BOND_UDEF_STEREO_COUNT>
0

> <PUBCHEM_ISOTOPIC_ATOM_COUNT>
0

> <PUBCHEM_COMPONENT_COUNT>
1

> <PUBCHEM_CACTVS_TAUTO_COUNT>
2

> <PUBCHEM_CONFORMER_ID>
00B5447600000001

> <PUBCHEM_MMFF94_ENERGY>
81.8166

> <PUBCHEM_FEATURE_SELFOVERLAP>
56.526

> <PUBCHEM_SHAPE_FINGERPRINT>
10076449 9 15841557383172223885
10190108 129 10591770865460041028
10429389 143 17675920989524276933
11443803 9 18410006663860741994
11456790 92 9295288365645883975
11475781 23 14562533947165586547
12144603 126 18342179926411018537
12373685 5 16370719361847598915
12592606 108 11887671788321894829
12838862 33 18040432231237109772
13383665 225 17845667936964458969
13383668 40 13696131978818046896
13617811 41 18202282498164756964
13782708 43 15913040964011748605
14117953 113 17240210924427128014
14444916 359 14117801319204749229
1454969 45 18412824677380577699
14675020 138 12829205555549726504
15328829 1 18334861636307222895
15979999 66 18333725837076497109
16991971 28 17775562070644323365
16992752 21 17918276450910563689
18365409 1 18200593730083556543
19315958 150 13623527948680928000
20105231 36 16845291653271485239
20511986 3 16515408469297430427
21150785 3 18408886239451392317
21403212 168 17313104172681559270
21792934 111 11602808091152185553
24771293 8 18408892814835891173
2747138 104 17561356297652788043
3472631 163 18338808892363390636
34797466 226 17060329738915522096
397638 26 11819279945457090477
4093350 32 16008742485847133891
4461854 278 16916787431713031847
4516262 110 18113339735125975558
45377200 153 16343409727009073783
5028188 123 16702306750258708409
54039377 194 12175628377424934770
57035037 87 16515401859426839277
58260988 647 14836414605347348766
6058803 2 17838059200129476483
6673363 416 17704080602982210280
70634741 139 17676778664708235187

> <PUBCHEM_SHAPE_MULTIPOLES>
612.88
27.2
2.32
2.08
23.19
1.54
0.85
-16.78
-9.56
-4.76
0.41
1.88
-0.11
-1.84

> <PUBCHEM_SHAPE_SELFOVERLAP>
1309.425

> <PUBCHEM_SHAPE_VOLUME>
343.3

> <PUBCHEM_COORDINATE_TYPE>
2
5
10

$$$$
