11886323
  -OEChem-12032416133D

 62 66  0     1  0  0  0  0  0999 V2000
    4.4121   -1.3268   -0.9511 O   0  0  0  0  0  0  0  0  0  0  0  0
    3.3393   -0.2670    1.8088 O   0  0  0  0  0  0  0  0  0  0  0  0
    1.4742    1.8808    0.6947 O   0  0  0  0  0  0  0  0  0  0  0  0
    0.4129   -3.4332    1.5132 O   0  0  0  0  0  0  0  0  0  0  0  0
   -4.2312   -3.8847    0.0840 O   0  0  0  0  0  0  0  0  0  0  0  0
   -2.5504   -4.2123    1.5729 O   0  0  0  0  0  0  0  0  0  0  0  0
    1.8590   -2.9159   -0.2268 N   0  0  0  0  0  0  0  0  0  0  0  0
    3.5787    2.1798   -0.3615 N   0  0  0  0  0  0  0  0  0  0  0  0
    4.1885    3.1344   -1.0781 N   0  0  0  0  0  0  0  0  0  0  0  0
    2.1389    3.7954   -0.5014 N   0  0  0  0  0  0  0  0  0  0  0  0
    3.3030    4.1198   -1.1607 N   0  0  0  0  0  0  0  0  0  0  0  0
   -4.0328    2.3529    0.0854 N   0  0  0  0  0  0  0  0  0  0  0  0
   -4.8564    2.4328    1.1415 N   0  0  0  0  0  0  0  0  0  0  0  0
   -6.0090    2.5194   -0.8324 N   0  0  0  0  0  0  0  0  0  0  0  0
    2.7145   -0.7986    0.6298 C   0  0  1  0  0  0  0  0  0  0  0  0
    3.4891   -0.2902   -0.5704 C   0  0  1  0  0  0  0  0  0  0  0  0
    2.8868   -2.3000    0.5771 C   0  0  2  0  0  0  0  0  0  0  0  0
    4.2519    0.9152   -0.0544 C   0  0  2  0  0  0  0  0  0  0  0  0
    4.2518   -2.4467   -0.0691 C   0  0  0  0  0  0  0  0  0  0  0  0
    4.4083    0.6113    1.4315 C   0  0  0  0  0  0  0  0  0  0  0  0
    0.6965   -3.4357    0.3171 C   0  0  0  0  0  0  0  0  0  0  0  0
   -0.2377   -4.0279   -0.7263 C   0  0  0  0  0  0  0  0  0  0  0  0
   -1.3164   -3.0524   -1.2626 C   0  0  0  0  0  0  0  0  0  0  0  0
    2.3313    2.5910   -0.0149 C   0  0  0  0  0  0  0  0  0  0  0  0
   -2.2673   -2.5395   -0.1548 C   0  0  0  0  0  0  0  0  0  0  0  0
   -2.1211   -3.7884   -2.3549 C   0  0  0  0  0  0  0  0  0  0  0  0
   -0.6525   -1.8271   -1.9253 C   0  0  0  0  0  0  0  0  0  0  0  0
   -3.0049   -3.6228    0.6011 C   0  0  0  0  0  0  0  0  0  0  0  0
    0.0994    1.9983    0.5427 C   0  0  0  0  0  0  0  0  0  0  0  0
   -0.4602    2.0371   -0.7345 C   0  0  0  0  0  0  0  0  0  0  0  0
   -0.7223    2.0778    1.6669 C   0  0  0  0  0  0  0  0  0  0  0  0
   -1.8415    2.1553   -0.8873 C   0  0  0  0  0  0  0  0  0  0  0  0
   -2.1037    2.1961    1.5141 C   0  0  0  0  0  0  0  0  0  0  0  0
   -2.6633    2.2348    0.2370 C   0  0  0  0  0  0  0  0  0  0  0  0
   -4.7256    2.4048   -1.0839 C   0  0  0  0  0  0  0  0  0  0  0  0
   -6.0400    2.5320    0.5327 C   0  0  0  0  0  0  0  0  0  0  0  0
    1.6635   -0.5052    0.6406 H   0  0  0  0  0  0  0  0  0  0  0  0
    2.8519   -0.0898   -1.4378 H   0  0  0  0  0  0  0  0  0  0  0  0
    2.8809   -2.7622    1.5703 H   0  0  0  0  0  0  0  0  0  0  0  0
    5.2461    0.9940   -0.5124 H   0  0  0  0  0  0  0  0  0  0  0  0
    5.0491   -2.3881    0.6800 H   0  0  0  0  0  0  0  0  0  0  0  0
    4.3767   -3.3754   -0.6343 H   0  0  0  0  0  0  0  0  0  0  0  0
    4.3871    1.5015    2.0674 H   0  0  0  0  0  0  0  0  0  0  0  0
    5.3458    0.0769    1.6202 H   0  0  0  0  0  0  0  0  0  0  0  0
    1.9779   -2.9161   -1.2359 H   0  0  0  0  0  0  0  0  0  0  0  0
    0.3687   -4.4034   -1.5618 H   0  0  0  0  0  0  0  0  0  0  0  0
   -0.7009   -4.9179   -0.2827 H   0  0  0  0  0  0  0  0  0  0  0  0
   -1.7230   -1.9410    0.5867 H   0  0  0  0  0  0  0  0  0  0  0  0
   -3.0147   -1.8545   -0.5774 H   0  0  0  0  0  0  0  0  0  0  0  0
   -2.5684   -4.7121   -1.9723 H   0  0  0  0  0  0  0  0  0  0  0  0
   -1.4796   -4.0630   -3.2002 H   0  0  0  0  0  0  0  0  0  0  0  0
   -2.9298   -3.1593   -2.7437 H   0  0  0  0  0  0  0  0  0  0  0  0
   -1.4007   -1.1889   -2.4100 H   0  0  0  0  0  0  0  0  0  0  0  0
    0.0684   -2.1308   -2.6924 H   0  0  0  0  0  0  0  0  0  0  0  0
   -0.1267   -1.2055   -1.1935 H   0  0  0  0  0  0  0  0  0  0  0  0
    0.1617    1.9602   -1.6225 H   0  0  0  0  0  0  0  0  0  0  0  0
   -0.2908    2.0475    2.6637 H   0  0  0  0  0  0  0  0  0  0  0  0
   -4.6946   -4.5921    0.5810 H   0  0  0  0  0  0  0  0  0  0  0  0
   -2.2216    2.1757   -1.9033 H   0  0  0  0  0  0  0  0  0  0  0  0
   -2.7086    2.2549    2.4152 H   0  0  0  0  0  0  0  0  0  0  0  0
   -4.3008    2.3601   -2.0767 H   0  0  0  0  0  0  0  0  0  0  0  0
   -6.9538    2.6163    1.1016 H   0  0  0  0  0  0  0  0  0  0  0  0
  1 16  1  0  0  0  0
  1 19  1  0  0  0  0
  2 15  1  0  0  0  0
  2 20  1  0  0  0  0
  3 24  1  0  0  0  0
  3 29  1  0  0  0  0
  4 21  2  0  0  0  0
  5 28  1  0  0  0  0
  5 58  1  0  0  0  0
  6 28  2  0  0  0  0
  7 17  1  0  0  0  0
  7 21  1  0  0  0  0
  7 45  1  0  0  0  0
  8  9  1  0  0  0  0
  8 18  1  0  0  0  0
  8 24  1  0  0  0  0
  9 11  2  0  0  0  0
 10 11  1  0  0  0  0
 10 24  2  0  0  0  0
 12 13  1  0  0  0  0
 12 34  1  0  0  0  0
 12 35  1  0  0  0  0
 13 36  2  0  0  0  0
 14 35  2  0  0  0  0
 14 36  1  0  0  0  0
 15 16  1  0  0  0  0
 15 17  1  0  0  0  0
 15 37  1  0  0  0  0
 16 18  1  0  0  0  0
 16 38  1  0  0  0  0
 17 19  1  0  0  0  0
 17 39  1  0  0  0  0
 18 20  1  0  0  0  0
 18 40  1  0  0  0  0
 19 41  1  0  0  0  0
 19 42  1  0  0  0  0
 20 43  1  0  0  0  0
 20 44  1  0  0  0  0
 21 22  1  0  0  0  0
 22 23  1  0  0  0  0
 22 46  1  0  0  0  0
 22 47  1  0  0  0  0
 23 25  1  0  0  0  0
 23 26  1  0  0  0  0
 23 27  1  0  0  0  0
 25 28  1  0  0  0  0
 25 48  1  0  0  0  0
 25 49  1  0  0  0  0
 26 50  1  0  0  0  0
 26 51  1  0  0  0  0
 26 52  1  0  0  0  0
 27 53  1  0  0  0  0
 27 54  1  0  0  0  0
 27 55  1  0  0  0  0
 29 30  2  0  0  0  0
 29 31  1  0  0  0  0
 30 32  1  0  0  0  0
 30 56  1  0  0  0  0
 31 33  2  0  0  0  0
 31 57  1  0  0  0  0
 32 34  2  0  0  0  0
 32 59  1  0  0  0  0
 33 34  1  0  0  0  0
 33 60  1  0  0  0  0
 35 61  1  0  0  0  0
 36 62  1  0  0  0  0
M  END
> <PUBCHEM_COMPOUND_CID>
11886323

> <PUBCHEM_CONFORMER_RMSD>
1.2

> <PUBCHEM_CONFORMER_DIVERSEORDER>
1
23
38
25
22
107
134
172
84
57
175
111
52
100
169
69
64
117
145
59
136
165
126
128
153
182
74
106
33
179
56
164
92
139
88
29
83
96
123
67
46
143
131
142
118
24
173
151
133
171
121
160
85
30
149
116
37
28
86
63
163
77
42
177
51
119
65
144
66
137
170
174
48
157
75
78
62
155
148
132
91
108
146
68
97
129
158
161
21
15
54
109
93
82
115
81
105
168
16
53
43
154
55
87
80
13
135
167
141
180
40
104
176
102
79
4
94
49
156
32
124
76
89
140
120
3
50
72
113
130
101
61
17
12
41
14
90
166
150
6
8
178
98
2
35
34
71
11
138
162
110
27
10
181
44
152
26
125
7
114
45
39
73
159
9
31
70
58
20
127
122
19
18
99
147
112
36
103
5
47
95
60

> <PUBCHEM_MMFF94_PARTIAL_CHARGES>
40
1 -0.56
10 -0.34
12 0.59
13 -0.71
14 -0.57
15 0.28
16 0.28
17 0.3
18 0.26
19 0.28
2 -0.56
20 0.28
21 0.57
22 0.06
24 0.25
25 0.06
28 0.66
29 0.08
3 -0.15
30 -0.15
31 -0.15
32 -0.15
33 -0.15
34 -0.02
35 0.04
36 0.37
4 -0.57
45 0.37
5 -0.65
56 0.15
57 0.15
58 0.5
59 0.15
6 -0.57
60 0.15
61 0.15
62 0.15
7 -0.73
8 0.31
9 -0.42

> <PUBCHEM_EFFECTIVE_ROTOR_COUNT>
11.2

> <PUBCHEM_PHARMACOPHORE_FEATURES>
16
1 1 acceptor
1 2 acceptor
1 4 acceptor
1 5 acceptor
1 6 acceptor
1 7 donor
3 12 14 35 cation
3 13 14 36 cation
3 23 26 27 hydrophobe
3 5 6 28 anion
3 8 10 24 cation
5 1 15 16 17 19 rings
5 12 13 14 35 36 rings
5 2 15 16 18 20 rings
5 8 9 10 11 24 rings
6 29 30 31 32 33 34 rings

> <PUBCHEM_HEAVY_ATOM_COUNT>
36

> <PUBCHEM_ATOM_DEF_STEREO_COUNT>
4

> <PUBCHEM_ATOM_UDEF_STEREO_COUNT>
0

> <PUBCHEM_BOND_DEF_STEREO_COUNT>
0

> <PUBCHEM_BOND_UDEF_STEREO_COUNT>
0

> <PUBCHEM_ISOTOPIC_ATOM_COUNT>
0

> <PUBCHEM_COMPONENT_COUNT>
1

> <PUBCHEM_CACTVS_TAUTO_COUNT>
2

> <PUBCHEM_CONFORMER_ID>
00B55EF300000001

> <PUBCHEM_MMFF94_ENERGY>
87.851

> <PUBCHEM_FEATURE_SELFOVERLAP>
84.697

> <PUBCHEM_SHAPE_FINGERPRINT>
10190206 1 17539981993631470316
10316853 100 18338238137858267267
1100329 8 18338797814719632838
11421498 54 17759526963982717924
11513181 2 18130231561553355758
11621639 254 17034197861113724828
11973864 48 18115589229292264485
12156800 1 18053140360275468654
12788726 201 18051692440694600064
13383661 66 16980970043677584518
1361 2 18266177223657905273
14117953 113 18050845524773036142
14681490 219 17980758565073998399
15483637 11 18336831995604220595
15484559 13 18121496847987388719
15775530 1 17483661674734783361
15968369 153 17913757582310199119
161222 619 18124899888500435259
17138139 8 17772723131305116045
19930381 70 17616816535376689737
20737093 15 17694743413797099053
20764821 26 18411416198231603943
21133410 62 17899404295438432055
21304303 94 18198924534536360164
21716022 299 14402936393824903767
22113638 7 18194678173005284086
338550 245 18411132545759325716
340366 18 18334858290280129748
394071 54 17695917631658421281
463206 1 18412537691697569416
5309563 4 17761211016475333820
653340 110 18053650662667624088
66674814 147 17910961244672316858

> <PUBCHEM_SHAPE_MULTIPOLES>
665.8
10.51
7.5
1.62
7.51
5.17
-0.07
-7.61
0.2
3.06
-1.02
0.31
0.57
-1.07

> <PUBCHEM_SHAPE_SELFOVERLAP>
1441.095

> <PUBCHEM_SHAPE_VOLUME>
365.3

> <PUBCHEM_COORDINATE_TYPE>
2
5
10

$$$$
