25391196
  -OEChem-12032416263D

 40 42  0     1  0  0  0  0  0999 V2000
    2.6503    1.7853   -0.6050 S   0  0  0  0  0  0  0  0  0  0  0  0
    3.6929   -3.9016    0.5418 F   0  0  0  0  0  0  0  0  0  0  0  0
   -2.7196    0.7000   -2.2640 O   0  0  0  0  0  0  0  0  0  0  0  0
   -3.0243    0.3473    2.3216 O   0  0  0  0  0  0  0  0  0  0  0  0
    3.4991    2.5750    0.2603 O   0  0  0  0  0  0  0  0  0  0  0  0
    2.6755    1.9631   -2.0405 O   0  0  0  0  0  0  0  0  0  0  0  0
   -2.7444   -2.3400   -0.2484 O   0  0  0  0  0  0  0  0  0  0  0  0
   -1.5621    1.5010    0.9029 N   0  0  0  0  0  0  0  0  0  0  0  0
    1.0301    1.9068   -0.0591 N   0  0  1  0  0  0  0  0  0  0  0  0
   -3.2078    0.3179   -0.0099 N   0  0  0  0  0  0  0  0  0  0  0  0
   -4.9824   -2.8551   -0.3597 N   0  0  0  0  0  0  0  0  0  0  0  0
   -1.3764    1.7082   -0.5145 C   0  0  1  0  0  0  0  0  0  0  0  0
    0.0088    1.2484   -0.9401 C   0  0  0  0  0  0  0  0  0  0  0  0
   -0.5751    2.0329    1.8228 C   0  0  0  0  0  0  0  0  0  0  0  0
    0.8184    1.5815    1.3919 C   0  0  0  0  0  0  0  0  0  0  0  0
   -2.5035    0.8537   -1.0691 C   0  0  0  0  0  0  0  0  0  0  0  0
   -2.6515    0.6849    1.2053 C   0  0  0  0  0  0  0  0  0  0  0  0
   -4.3651   -0.5434   -0.1516 C   0  0  0  0  0  0  0  0  0  0  0  0
    2.9628    0.0823   -0.2623 C   0  0  0  0  0  0  0  0  0  0  0  0
   -3.9199   -1.9850   -0.2390 C   0  0  0  0  0  0  0  0  0  0  0  0
    2.6925   -0.8853   -1.2301 C   0  0  0  0  0  0  0  0  0  0  0  0
    3.4797   -0.2959    0.9768 C   0  0  0  0  0  0  0  0  0  0  0  0
    2.9393   -2.2309   -0.9587 C   0  0  0  0  0  0  0  0  0  0  0  0
    3.7265   -1.6417    1.2481 C   0  0  0  0  0  0  0  0  0  0  0  0
    3.4565   -2.6092    0.2804 C   0  0  0  0  0  0  0  0  0  0  0  0
   -1.5579    2.7650   -0.7371 H   0  0  0  0  0  0  0  0  0  0  0  0
    0.0891    0.1589   -0.8554 H   0  0  0  0  0  0  0  0  0  0  0  0
    0.1667    1.5232   -1.9878 H   0  0  0  0  0  0  0  0  0  0  0  0
   -0.7973    1.7012    2.8416 H   0  0  0  0  0  0  0  0  0  0  0  0
   -0.6536    3.1252    1.7872 H   0  0  0  0  0  0  0  0  0  0  0  0
    1.5635    2.0899    2.0112 H   0  0  0  0  0  0  0  0  0  0  0  0
    0.8970    0.5004    1.5462 H   0  0  0  0  0  0  0  0  0  0  0  0
   -5.0179   -0.4223    0.7189 H   0  0  0  0  0  0  0  0  0  0  0  0
   -4.9053   -0.2803   -1.0668 H   0  0  0  0  0  0  0  0  0  0  0  0
    2.2871   -0.6141   -2.2007 H   0  0  0  0  0  0  0  0  0  0  0  0
    3.6969    0.4393    1.7463 H   0  0  0  0  0  0  0  0  0  0  0  0
    2.7281   -2.9847   -1.7114 H   0  0  0  0  0  0  0  0  0  0  0  0
    4.1283   -1.9367    2.2129 H   0  0  0  0  0  0  0  0  0  0  0  0
   -5.9464   -2.5371   -0.3642 H   0  0  0  0  0  0  0  0  0  0  0  0
   -4.8312   -3.8550   -0.4427 H   0  0  0  0  0  0  0  0  0  0  0  0
  1  5  2  0  0  0  0
  1  6  2  0  0  0  0
  1  9  1  0  0  0  0
  1 19  1  0  0  0  0
  2 25  1  0  0  0  0
  3 16  2  0  0  0  0
  4 17  2  0  0  0  0
  7 20  2  0  0  0  0
  8 12  1  0  0  0  0
  8 14  1  0  0  0  0
  8 17  1  0  0  0  0
  9 13  1  0  0  0  0
  9 15  1  0  0  0  0
 10 16  1  0  0  0  0
 10 17  1  0  0  0  0
 10 18  1  0  0  0  0
 11 20  1  0  0  0  0
 11 39  1  0  0  0  0
 11 40  1  0  0  0  0
 12 13  1  0  0  0  0
 12 16  1  0  0  0  0
 12 26  1  0  0  0  0
 13 27  1  0  0  0  0
 13 28  1  0  0  0  0
 14 15  1  0  0  0  0
 14 29  1  0  0  0  0
 14 30  1  0  0  0  0
 15 31  1  0  0  0  0
 15 32  1  0  0  0  0
 18 20  1  0  0  0  0
 18 33  1  0  0  0  0
 18 34  1  0  0  0  0
 19 21  2  0  0  0  0
 19 22  1  0  0  0  0
 21 23  1  0  0  0  0
 21 35  1  0  0  0  0
 22 24  2  0  0  0  0
 22 36  1  0  0  0  0
 23 25  2  0  0  0  0
 23 37  1  0  0  0  0
 24 25  1  0  0  0  0
 24 38  1  0  0  0  0
M  END
> <PUBCHEM_COMPOUND_CID>
25391196

> <PUBCHEM_CONFORMER_RMSD>
0.8

> <PUBCHEM_CONFORMER_DIVERSEORDER>
1
36
45
19
23
13
56
60
50
29
61
9
27
22
41
53
4
8
38
52
31
18
47
14
25
17
58
42
57
20
15
26
16
11
55
43
40
48
46
37
24
33
51
34
2
49
10
59
35
54
39
12
32
5
44
30
21
6
3
28
7

> <PUBCHEM_MMFF94_PARTIAL_CHARGES>
31
1 1.45
10 -0.42
11 -0.8
12 0.36
13 0.36
14 0.3
15 0.36
16 0.57
17 0.69
18 0.36
19 -0.01
2 -0.19
20 0.57
21 -0.15
22 -0.15
23 -0.15
24 -0.15
25 0.19
3 -0.57
35 0.15
36 0.15
37 0.15
38 0.15
39 0.37
4 -0.57
40 0.37
5 -0.65
6 -0.65
7 -0.57
8 -0.66
9 -0.85

> <PUBCHEM_EFFECTIVE_ROTOR_COUNT>
5

> <PUBCHEM_PHARMACOPHORE_FEATURES>
9
1 11 donor
1 3 acceptor
1 4 acceptor
1 5 acceptor
1 6 acceptor
1 7 acceptor
5 8 10 12 16 17 rings
6 19 21 22 23 24 25 rings
6 8 9 12 13 14 15 rings

> <PUBCHEM_HEAVY_ATOM_COUNT>
25

> <PUBCHEM_ATOM_DEF_STEREO_COUNT>
1

> <PUBCHEM_ATOM_UDEF_STEREO_COUNT>
0

> <PUBCHEM_BOND_DEF_STEREO_COUNT>
0

> <PUBCHEM_BOND_UDEF_STEREO_COUNT>
0

> <PUBCHEM_ISOTOPIC_ATOM_COUNT>
0

> <PUBCHEM_COMPONENT_COUNT>
1

> <PUBCHEM_CACTVS_TAUTO_COUNT>
4

> <PUBCHEM_CONFORMER_ID>
0183705C00000001

> <PUBCHEM_MMFF94_ENERGY>
39.6845

> <PUBCHEM_FEATURE_SELFOVERLAP>
45.807

> <PUBCHEM_SHAPE_FINGERPRINT>
10928967 22 17975710389300456466
12363563 72 17970913246143240968
12506688 2 18342736329710433328
12553582 1 18125732192658025574
12596599 1 18200886062647445507
12633257 1 18128831758712598363
12824470 246 18271250516511197657
13224815 77 18342460356570829284
13383661 66 17259950653611743598
13533116 47 18272651277382394339
13583140 156 17845925316626136441
14251757 17 17969478490632485087
150020 26 16197366900789494583
15475509 35 18056475282728525683
15664445 248 17752480130037173261
17974551 9 15406406733113013282
20775530 9 18412261748533448999
21054139 6 18195816391005101524
21503847 285 10015600410128093920
23559900 14 18342453695218939020
238 59 17458637756215904312
25222932 49 17772184473327810367
33382 64 18193561288635800603
345986 75 17775011253847322363
3797600 57 17916312799877494332
392239 28 17272256276306652578
463206 1 18052817241396452075
56633871 153 18125447397624901779
59444896 2 11008172575378708137
633830 44 16298106480115257101
6433294 58 18338514273716414418
7399639 24 17975959170917557789

> <PUBCHEM_SHAPE_MULTIPOLES>
461.79
9.08
3.62
1.74
3.73
2.51
0.08
6.97
0.02
-1.93
0.16
0.23
-0.74
-1.08

> <PUBCHEM_SHAPE_SELFOVERLAP>
977.42

> <PUBCHEM_SHAPE_VOLUME>
260.3

> <PUBCHEM_COORDINATE_TYPE>
2
5
10

$$$$
