45784092
  -OEChem-12032416313D

 63 66  0     1  0  0  0  0  0999 V2000
    2.8670    0.0760    0.7725 O   0  0  0  0  0  0  0  0  0  0  0  0
   -3.4027   -0.6659    0.4158 N   0  0  0  0  0  0  0  0  0  0  0  0
    3.9668   -1.4638   -0.4207 N   0  0  0  0  0  0  0  0  0  0  0  0
    4.4567   -0.2201   -0.7733 N   0  0  0  0  0  0  0  0  0  0  0  0
    3.3181    2.9779    0.6092 N   0  0  0  0  0  0  0  0  0  0  0  0
   -5.0808    3.9496   -0.6696 N   0  0  0  0  0  0  0  0  0  0  0  0
    4.7459    4.1202   -0.6508 N   0  0  0  0  0  0  0  0  0  0  0  0
   -1.0874   -1.9224   -0.8590 C   0  0  1  0  0  0  0  0  0  0  0  0
   -1.9698   -2.6466    0.1843 C   0  0  1  0  0  0  0  0  0  0  0  0
    0.2667   -1.5397   -0.2453 C   0  0  0  0  0  0  0  0  0  0  0  0
    1.0390   -2.7452    0.3323 C   0  0  2  0  0  0  0  0  0  0  0  0
   -0.9031   -2.7732   -2.1230 C   0  0  0  0  0  0  0  0  0  0  0  0
    0.1390   -3.7415    1.0475 C   0  0  0  0  0  0  0  0  0  0  0  0
   -1.2032   -3.6733    0.9784 C   0  0  0  0  0  0  0  0  0  0  0  0
   -2.6340   -1.6576    1.1478 C   0  0  0  0  0  0  0  0  0  0  0  0
    2.1723   -2.2195    1.2222 C   0  0  0  0  0  0  0  0  0  0  0  0
   -2.1764   -2.7608   -2.9630 C   0  0  0  0  0  0  0  0  0  0  0  0
    0.2855   -2.2690   -2.9350 C   0  0  0  0  0  0  0  0  0  0  0  0
    0.8031   -4.8614    1.8006 C   0  0  0  0  0  0  0  0  0  0  0  0
    3.0417   -1.2426    0.4837 C   0  0  0  0  0  0  0  0  0  0  0  0
   -4.0308    0.2862    1.3241 C   0  0  0  0  0  0  0  0  0  0  0  0
   -4.3981    1.5685    0.6260 C   0  0  0  0  0  0  0  0  0  0  0  0
    3.7861    0.6480   -0.0526 C   0  0  0  0  0  0  0  0  0  0  0  0
   -3.4152    2.5034    0.3201 C   0  0  0  0  0  0  0  0  0  0  0  0
   -5.7219    1.8228    0.2848 C   0  0  0  0  0  0  0  0  0  0  0  0
    3.9968    2.0467   -0.1252 C   0  0  0  0  0  0  0  0  0  0  0  0
   -3.8050    3.6675   -0.3224 C   0  0  0  0  0  0  0  0  0  0  0  0
   -6.0084    3.0174   -0.3562 C   0  0  0  0  0  0  0  0  0  0  0  0
    4.8722    2.7756   -0.8952 C   0  0  0  0  0  0  0  0  0  0  0  0
    3.8020    4.2079    0.2597 C   0  0  0  0  0  0  0  0  0  0  0  0
    2.2780    2.7352    1.5822 C   0  0  0  0  0  0  0  0  0  0  0  0
   -1.5579   -0.9833   -1.1762 H   0  0  0  0  0  0  0  0  0  0  0  0
   -2.7748   -3.1860   -0.3284 H   0  0  0  0  0  0  0  0  0  0  0  0
    0.8754   -0.9601   -0.9463 H   0  0  0  0  0  0  0  0  0  0  0  0
    0.0644   -0.8315    0.5717 H   0  0  0  0  0  0  0  0  0  0  0  0
    1.4997   -3.2963   -0.4975 H   0  0  0  0  0  0  0  0  0  0  0  0
   -0.6947   -3.8171   -1.8573 H   0  0  0  0  0  0  0  0  0  0  0  0
   -1.8035   -4.4105    1.5074 H   0  0  0  0  0  0  0  0  0  0  0  0
   -3.2950   -2.2052    1.8330 H   0  0  0  0  0  0  0  0  0  0  0  0
   -1.8719   -1.1651    1.7647 H   0  0  0  0  0  0  0  0  0  0  0  0
    1.7684   -1.7439    2.1250 H   0  0  0  0  0  0  0  0  0  0  0  0
    2.8158   -3.0415    1.5574 H   0  0  0  0  0  0  0  0  0  0  0  0
   -2.4478   -1.7421   -3.2613 H   0  0  0  0  0  0  0  0  0  0  0  0
   -3.0289   -3.1968   -2.4359 H   0  0  0  0  0  0  0  0  0  0  0  0
   -2.0370   -3.3456   -3.8792 H   0  0  0  0  0  0  0  0  0  0  0  0
    0.2112   -1.1949   -3.1388 H   0  0  0  0  0  0  0  0  0  0  0  0
    0.3098   -2.7722   -3.9095 H   0  0  0  0  0  0  0  0  0  0  0  0
    1.2542   -2.4806   -2.4774 H   0  0  0  0  0  0  0  0  0  0  0  0
    1.5399   -5.3627    1.1643 H   0  0  0  0  0  0  0  0  0  0  0  0
    0.0852   -5.6213    2.1278 H   0  0  0  0  0  0  0  0  0  0  0  0
    1.3080   -4.4816    2.6940 H   0  0  0  0  0  0  0  0  0  0  0  0
   -4.1107   -1.1159   -0.1632 H   0  0  0  0  0  0  0  0  0  0  0  0
   -3.3570    0.5500    2.1509 H   0  0  0  0  0  0  0  0  0  0  0  0
   -4.9152   -0.1674    1.7891 H   0  0  0  0  0  0  0  0  0  0  0  0
   -2.3733    2.3368    0.5717 H   0  0  0  0  0  0  0  0  0  0  0  0
   -6.5141    1.1159    0.5064 H   0  0  0  0  0  0  0  0  0  0  0  0
   -3.0767    4.4284   -0.5830 H   0  0  0  0  0  0  0  0  0  0  0  0
   -7.0253    3.2632   -0.6439 H   0  0  0  0  0  0  0  0  0  0  0  0
    5.5897    2.4074   -1.6151 H   0  0  0  0  0  0  0  0  0  0  0  0
    3.4338    5.1264    0.6962 H   0  0  0  0  0  0  0  0  0  0  0  0
    1.4397    2.2398    1.0861 H   0  0  0  0  0  0  0  0  0  0  0  0
    2.6864    2.1219    2.3891 H   0  0  0  0  0  0  0  0  0  0  0  0
    1.9390    3.6905    1.9927 H   0  0  0  0  0  0  0  0  0  0  0  0
  1 20  1  0  0  0  0
  1 23  1  0  0  0  0
  2 15  1  0  0  0  0
  2 21  1  0  0  0  0
  2 52  1  0  0  0  0
  3  4  1  0  0  0  0
  3 20  2  0  0  0  0
  4 23  2  0  0  0  0
  5 26  1  0  0  0  0
  5 30  1  0  0  0  0
  5 31  1  0  0  0  0
  6 27  2  0  0  0  0
  6 28  1  0  0  0  0
  7 29  1  0  0  0  0
  7 30  2  0  0  0  0
  8  9  1  0  0  0  0
  8 10  1  0  0  0  0
  8 12  1  0  0  0  0
  8 32  1  0  0  0  0
  9 14  1  0  0  0  0
  9 15  1  0  0  0  0
  9 33  1  0  0  0  0
 10 11  1  0  0  0  0
 10 34  1  0  0  0  0
 10 35  1  0  0  0  0
 11 13  1  0  0  0  0
 11 16  1  0  0  0  0
 11 36  1  0  0  0  0
 12 17  1  0  0  0  0
 12 18  1  0  0  0  0
 12 37  1  0  0  0  0
 13 14  2  0  0  0  0
 13 19  1  0  0  0  0
 14 38  1  0  0  0  0
 15 39  1  0  0  0  0
 15 40  1  0  0  0  0
 16 20  1  0  0  0  0
 16 41  1  0  0  0  0
 16 42  1  0  0  0  0
 17 43  1  0  0  0  0
 17 44  1  0  0  0  0
 17 45  1  0  0  0  0
 18 46  1  0  0  0  0
 18 47  1  0  0  0  0
 18 48  1  0  0  0  0
 19 49  1  0  0  0  0
 19 50  1  0  0  0  0
 19 51  1  0  0  0  0
 21 22  1  0  0  0  0
 21 53  1  0  0  0  0
 21 54  1  0  0  0  0
 22 24  2  0  0  0  0
 22 25  1  0  0  0  0
 23 26  1  0  0  0  0
 24 27  1  0  0  0  0
 24 55  1  0  0  0  0
 25 28  2  0  0  0  0
 25 56  1  0  0  0  0
 26 29  2  0  0  0  0
 27 57  1  0  0  0  0
 28 58  1  0  0  0  0
 29 59  1  0  0  0  0
 30 60  1  0  0  0  0
 31 61  1  0  0  0  0
 31 62  1  0  0  0  0
 31 63  1  0  0  0  0
M  END
> <PUBCHEM_COMPOUND_CID>
45784092

> <PUBCHEM_CONFORMER_RMSD>
1

> <PUBCHEM_CONFORMER_DIVERSEORDER>
42
81
20
26
118
90
70
34
126
19
99
108
72
74
177
182
92
102
151
114
189
196
12
121
157
136
137
201
194
78
1
133
190
36
116
183
166
31
100
198
44
123
33
29
163
129
52
27
125
18
103
46
79
175
50
204
171
192
184
202
41
40
138
39
97
145
178
130
57
8
110
200
117
162
155
173
144
5
45
60
63
172
25
112
120
131
152
186
69
43
146
88
93
139
180
105
165
47
119
195
21
134
13
11
188
203
160
176
61
158
64
169
154
107
35
16
56
87
82
55
205
28
84
38
185
161
159
77
148
153
115
113
73
128
85
59
199
30
48
132
143
51
83
101
22
32
156
95
193
109
53
58
124
15
187
9
37
80
149
141
23
4
76
167
49
86
174
10
122
140
68
104
75
142
197
91
98
111
24
147
94
179
170
7
65
168
96
3
17
67
62
106
181
54
6
66
71
164
127
89
2
14
135
191
150

> <PUBCHEM_MMFF94_PARTIAL_CHARGES>
34
1 -0.28
11 0.14
13 -0.28
14 -0.29
15 0.27
16 0.18
19 0.14
2 -0.9
20 0.3
21 0.41
22 -0.14
23 0.48
24 -0.15
25 -0.15
26 -0.15
27 0.16
28 0.16
29 0.08
3 -0.34
30 0.04
31 0.26
38 0.15
4 -0.34
5 0.05
52 0.36
55 0.15
56 0.15
57 0.15
58 0.15
59 0.15
6 -0.62
60 0.15
7 -0.57
9 0.14

> <PUBCHEM_EFFECTIVE_ROTOR_COUNT>
8.8

> <PUBCHEM_PHARMACOPHORE_FEATURES>
9
1 2 cation
1 2 donor
1 6 acceptor
3 12 17 18 hydrophobe
3 5 7 30 cation
5 1 3 4 20 23 rings
5 5 7 26 29 30 rings
6 6 22 24 25 27 28 rings
6 8 9 10 11 13 14 rings

> <PUBCHEM_HEAVY_ATOM_COUNT>
31

> <PUBCHEM_ATOM_DEF_STEREO_COUNT>
3

> <PUBCHEM_ATOM_UDEF_STEREO_COUNT>
0

> <PUBCHEM_BOND_DEF_STEREO_COUNT>
0

> <PUBCHEM_BOND_UDEF_STEREO_COUNT>
0

> <PUBCHEM_ISOTOPIC_ATOM_COUNT>
0

> <PUBCHEM_COMPONENT_COUNT>
1

> <PUBCHEM_CACTVS_TAUTO_COUNT>
1

> <PUBCHEM_CONFORMER_ID>
02BA9C1C0000002A

> <PUBCHEM_MMFF94_ENERGY>
54.1685

> <PUBCHEM_FEATURE_SELFOVERLAP>
45.671

> <PUBCHEM_SHAPE_FINGERPRINT>
10439779 11 17976813195056787929
10871710 139 18125156284788408359
10937287 8 18408040736210149619
11059845 2 18120345870320770528
12788726 201 17979615046999803967
1361 2 18335420153918334249
13761468 95 17842310152426975632
13944108 23 17981050708713023089
15320467 1 17976263761397608313
16067690 210 17254032003577258540
16991981 162 17915726781723155759
16992727 255 18189356636212859684
17921350 177 18059584606853349700
18603816 31 12028468603662375628
21223535 225 18340490075580632284
21388113 180 18409173182022139193
21475661 188 18339083691943110279
21716022 299 14403226673468415575
21860390 5 17765992801403667183
22122407 14 18335140865010606827
325973 47 18194122915101809801
3298306 158 18341046316346835001
3388396 114 17765699609592305276
469060 322 15794246639296897002
46939830 39 17608671413705225988
508706 21 17980482587776616160
57527585 21 17908415106650210902
6608658 132 17838894085573350839
7288768 16 17823697658140928026

> <PUBCHEM_SHAPE_MULTIPOLES>
602.21
11.72
7.67
1.94
5.8
1.72
1.5
19.21
0.3
-0.83
-0.6
0.42
-2.42
-0.74

> <PUBCHEM_SHAPE_SELFOVERLAP>
1279.028

> <PUBCHEM_SHAPE_VOLUME>
336.5

> <PUBCHEM_COORDINATE_TYPE>
2
5
10

$$$$
