51137549
  -OEChem-12032416243D

 54 57  0     1  0  0  0  0  0999 V2000
   -6.7144    3.2777    1.5216 F   0  0  0  0  0  0  0  0  0  0  0  0
   -5.4412    1.5329    1.8539 F   0  0  0  0  0  0  0  0  0  0  0  0
   -4.6575    3.3005    0.7833 F   0  0  0  0  0  0  0  0  0  0  0  0
    2.1581   -1.3160    0.3512 O   0  0  0  0  0  0  0  0  0  0  0  0
   -6.2096    1.9785   -0.2538 O   0  0  0  0  0  0  0  0  0  0  0  0
   -1.8229   -1.6295   -0.3635 N   0  0  1  0  0  0  0  0  0  0  0  0
    2.4597   -3.4671    0.8862 N   0  0  0  0  0  0  0  0  0  0  0  0
    3.7047   -2.8799    0.7590 N   0  0  0  0  0  0  0  0  0  0  0  0
    7.0760    2.5978   -0.5437 N   0  0  0  0  0  0  0  0  0  0  0  0
    0.0775   -2.5761    0.6325 C   0  0  1  0  0  0  0  0  0  0  0  0
   -0.6109   -1.6307    1.6324 C   0  0  0  0  0  0  0  0  0  0  0  0
   -0.5290   -2.2100   -0.7288 C   0  0  0  0  0  0  0  0  0  0  0  0
   -1.5394   -0.7699    0.7857 C   0  0  0  0  0  0  0  0  0  0  0  0
   -2.4345   -0.8994   -1.4641 C   0  0  0  0  0  0  0  0  0  0  0  0
    1.5876   -2.5176    0.6397 C   0  0  0  0  0  0  0  0  0  0  0  0
   -3.9089   -0.6872   -1.2454 C   0  0  0  0  0  0  0  0  0  0  0  0
   -4.3823    0.5626   -0.8463 C   0  0  0  0  0  0  0  0  0  0  0  0
    3.4801   -1.6251    0.4460 C   0  0  0  0  0  0  0  0  0  0  0  0
   -4.8015   -1.7411   -1.4415 C   0  0  0  0  0  0  0  0  0  0  0  0
    4.3955   -0.5502    0.1940 C   0  0  0  0  0  0  0  0  0  0  0  0
   -5.7483    0.7587   -0.6433 C   0  0  0  0  0  0  0  0  0  0  0  0
   -6.1674   -1.5450   -1.2385 C   0  0  0  0  0  0  0  0  0  0  0  0
   -6.6408   -0.2952   -0.8392 C   0  0  0  0  0  0  0  0  0  0  0  0
    5.7705   -0.7728    0.2690 C   0  0  0  0  0  0  0  0  0  0  0  0
    3.9107    0.7179   -0.1265 C   0  0  0  0  0  0  0  0  0  0  0  0
    6.1758    1.5407   -0.2968 C   0  0  0  0  0  0  0  0  0  0  0  0
    6.6606    0.2725    0.0236 C   0  0  0  0  0  0  0  0  0  0  0  0
    4.8008    1.7633   -0.3719 C   0  0  0  0  0  0  0  0  0  0  0  0
   -5.7386    2.5156    0.9773 C   0  0  0  0  0  0  0  0  0  0  0  0
    8.5065    2.3768   -0.4671 C   0  0  0  0  0  0  0  0  0  0  0  0
    6.5828    3.9174   -0.8849 C   0  0  0  0  0  0  0  0  0  0  0  0
   -0.2128   -3.6051    0.8865 H   0  0  0  0  0  0  0  0  0  0  0  0
   -1.1959   -2.2229    2.3472 H   0  0  0  0  0  0  0  0  0  0  0  0
    0.0905   -1.0161    2.2066 H   0  0  0  0  0  0  0  0  0  0  0  0
   -0.6474   -3.0970   -1.3608 H   0  0  0  0  0  0  0  0  0  0  0  0
    0.0957   -1.4861   -1.2687 H   0  0  0  0  0  0  0  0  0  0  0  0
   -1.0199    0.1511    0.4911 H   0  0  0  0  0  0  0  0  0  0  0  0
   -2.4416   -0.5001    1.3436 H   0  0  0  0  0  0  0  0  0  0  0  0
   -1.9250    0.0534   -1.6623 H   0  0  0  0  0  0  0  0  0  0  0  0
   -2.3333   -1.4761   -2.3946 H   0  0  0  0  0  0  0  0  0  0  0  0
   -3.6867    1.3850   -0.6990 H   0  0  0  0  0  0  0  0  0  0  0  0
   -4.4450   -2.7196   -1.7523 H   0  0  0  0  0  0  0  0  0  0  0  0
   -6.8624   -2.3656   -1.3909 H   0  0  0  0  0  0  0  0  0  0  0  0
   -7.7059   -0.1486   -0.6821 H   0  0  0  0  0  0  0  0  0  0  0  0
    6.1700   -1.7533    0.5170 H   0  0  0  0  0  0  0  0  0  0  0  0
    2.8465    0.9294   -0.1944 H   0  0  0  0  0  0  0  0  0  0  0  0
    7.7204    0.0486    0.0943 H   0  0  0  0  0  0  0  0  0  0  0  0
    4.3746    2.7311   -0.6170 H   0  0  0  0  0  0  0  0  0  0  0  0
    8.8045    2.0565    0.5375 H   0  0  0  0  0  0  0  0  0  0  0  0
    8.8319    1.6321   -1.2020 H   0  0  0  0  0  0  0  0  0  0  0  0
    9.0696    3.2921   -0.6811 H   0  0  0  0  0  0  0  0  0  0  0  0
    6.0006    3.8948   -1.8129 H   0  0  0  0  0  0  0  0  0  0  0  0
    5.9703    4.3323   -0.0767 H   0  0  0  0  0  0  0  0  0  0  0  0
    7.4023    4.6260   -1.0491 H   0  0  0  0  0  0  0  0  0  0  0  0
  1 29  1  0  0  0  0
  2 29  1  0  0  0  0
  3 29  1  0  0  0  0
  4 15  1  0  0  0  0
  4 18  1  0  0  0  0
  5 21  1  0  0  0  0
  5 29  1  0  0  0  0
  6 12  1  0  0  0  0
  6 13  1  0  0  0  0
  6 14  1  0  0  0  0
  7  8  1  0  0  0  0
  7 15  2  0  0  0  0
  8 18  2  0  0  0  0
  9 26  1  0  0  0  0
  9 30  1  0  0  0  0
  9 31  1  0  0  0  0
 10 11  1  0  0  0  0
 10 12  1  0  0  0  0
 10 15  1  0  0  0  0
 10 32  1  0  0  0  0
 11 13  1  0  0  0  0
 11 33  1  0  0  0  0
 11 34  1  0  0  0  0
 12 35  1  0  0  0  0
 12 36  1  0  0  0  0
 13 37  1  0  0  0  0
 13 38  1  0  0  0  0
 14 16  1  0  0  0  0
 14 39  1  0  0  0  0
 14 40  1  0  0  0  0
 16 17  2  0  0  0  0
 16 19  1  0  0  0  0
 17 21  1  0  0  0  0
 17 41  1  0  0  0  0
 18 20  1  0  0  0  0
 19 22  2  0  0  0  0
 19 42  1  0  0  0  0
 20 24  2  0  0  0  0
 20 25  1  0  0  0  0
 21 23  2  0  0  0  0
 22 23  1  0  0  0  0
 22 43  1  0  0  0  0
 23 44  1  0  0  0  0
 24 27  1  0  0  0  0
 24 45  1  0  0  0  0
 25 28  2  0  0  0  0
 25 46  1  0  0  0  0
 26 27  2  0  0  0  0
 26 28  1  0  0  0  0
 27 47  1  0  0  0  0
 28 48  1  0  0  0  0
 30 49  1  0  0  0  0
 30 50  1  0  0  0  0
 30 51  1  0  0  0  0
 31 52  1  0  0  0  0
 31 53  1  0  0  0  0
 31 54  1  0  0  0  0
M  END
> <PUBCHEM_COMPOUND_CID>
51137549

> <PUBCHEM_CONFORMER_RMSD>
1

> <PUBCHEM_CONFORMER_DIVERSEORDER>
1
121
128
53
44
48
28
79
39
31
99
84
51
91
107
87
58
95
86
8
92
66
59
68
10
70
112
118
42
97
20
17
64
108
38
89
111
24
54
56
117
129
41
113
88
82
47
29
2
96
61
74
126
67
122
27
77
23
127
103
30
72
36
33
93
15
106
35
94
98
60
101
63
5
13
104
12
57
123
6
114
21
76
62
40
32
65
115
73
80
16
81
43
69
85
100
78
50
116
45
109
19
132
4
52
90
22
110
119
75
49
120
37
46
14
11
34
130
83
102
25
71
7
125
9
105
55
26
124
131
18
3

> <PUBCHEM_MMFF94_PARTIAL_CHARGES>
38
1 -0.34
10 0.18
12 0.27
13 0.27
14 0.41
15 0.3
16 -0.14
17 -0.15
18 0.43
19 -0.15
2 -0.34
20 0.05
21 0.08
22 -0.15
23 -0.15
24 -0.15
25 -0.15
26 0.1
27 -0.15
28 -0.15
29 1.3
3 -0.34
30 0.37
31 0.37
4 -0.28
41 0.15
42 0.15
43 0.15
44 0.15
45 0.15
46 0.15
47 0.15
48 0.15
5 -0.36
6 -0.81
7 -0.34
8 -0.34
9 -0.84

> <PUBCHEM_EFFECTIVE_ROTOR_COUNT>
8

> <PUBCHEM_PHARMACOPHORE_FEATURES>
7
1 5 acceptor
1 6 cation
1 9 cation
5 4 7 8 15 18 rings
5 6 10 11 12 13 rings
6 16 17 19 21 22 23 rings
6 20 24 25 26 27 28 rings

> <PUBCHEM_HEAVY_ATOM_COUNT>
31

> <PUBCHEM_ATOM_DEF_STEREO_COUNT>
1

> <PUBCHEM_ATOM_UDEF_STEREO_COUNT>
0

> <PUBCHEM_BOND_DEF_STEREO_COUNT>
0

> <PUBCHEM_BOND_UDEF_STEREO_COUNT>
0

> <PUBCHEM_ISOTOPIC_ATOM_COUNT>
0

> <PUBCHEM_COMPONENT_COUNT>
1

> <PUBCHEM_CACTVS_TAUTO_COUNT>
1

> <PUBCHEM_CONFORMER_ID>
030C4C0D00000001

> <PUBCHEM_MMFF94_ENERGY>
89.6729

> <PUBCHEM_FEATURE_SELFOVERLAP>
35.523

> <PUBCHEM_SHAPE_FINGERPRINT>
10074138 170 15647344090570788091
100830 2 18129108814268623985
10595046 47 18411691089556817095
11273773 42 18411701010387334805
11828042 207 17915173744850919408
1200032 147 18113619006641811490
12821665 9 18410853287639919383
12975358 362 17412762614081913257
13383665 225 17561085762369392781
13690498 29 17559943502410393863
13757389 114 17845647175082066335
13782708 43 12535630453454366890
14040221 10 16128113208417311313
14150022 121 18042982054388863091
14202776 33 18131340922136610111
14251764 75 18409171008715335602
14394314 77 18410015412229777405
14664723 55 17701267928037397457
14849402 71 18408886269659010301
14856354 85 17988919020775917335
14931854 50 18129953372896135952
15064981 113 17560817554330109164
15064981 194 18044389455078870102
15183329 4 18202561791350789633
15198563 99 15410623562348131619
15289351 153 18410287039478285808
15357212 105 17916320346504032107
15439362 3 18410572904049749406
15685185 35 18263368151864223372
15840311 113 18264492776624189229
16112460 7 18335421300737750108
16126227 98 18263361541656126518
16992752 21 18129653249404094143
17899979 129 18412269415814781702
19438510 23 17895470431976243306
20691028 202 18117837918657518396
21033648 29 17385725842197647666
21298829 104 18409167731898375748
21307412 95 13830129537729707207
21585482 111 18187920638734063188
21774942 28 18272931631573302144
22122407 14 18410298024976117450
23522609 53 18130512938204266795
2748736 6 18335135427814209432
2838139 119 18187922855147644322
393628 194 18261398913733330428
397830 11 13984958353979097686
4073 2 18113334245193238819
4169191 19 18261107499769013372
4197921 191 18342170021883740979
4366758 26 18409171043049954500
437795 83 18338238279428592859
44555599 121 18411134719313269506
445580 204 18342176687224831784
474113 269 8430317905544922625
508180 173 17917712422234133936
5104073 3 17748823016502555714
543368 44 18335696153154017055
5718773 13 10591771986968478188
57303763 176 18271812256117472976
58083652 198 18042390353939744007
5911458 16 18342460318148654385
5937810 71 18060145361688378344
6057620 51 18338225068663857999
6608658 132 17489034747261286737
6673363 416 18126566953742962645

> <PUBCHEM_SHAPE_MULTIPOLES>
584.48
24.08
4.36
1.35
10.56
2.02
0.2
24.26
-3.72
1.74
1.18
-2.28
0.13
-4.97

> <PUBCHEM_SHAPE_SELFOVERLAP>
1263.636

> <PUBCHEM_SHAPE_VOLUME>
325.9

> <PUBCHEM_COORDINATE_TYPE>
2
5
10

$$$$
