75536520
  -OEChem-12032416313D

 51 52  0     1  0  0  0  0  0999 V2000
   -8.2118    0.6806   -0.7490 F   0  0  0  0  0  0  0  0  0  0  0  0
    1.5023    0.1778    0.0378 O   0  0  0  0  0  0  0  0  0  0  0  0
   -0.1323   -2.9948    0.4480 O   0  0  0  0  0  0  0  0  0  0  0  0
    3.7881    0.6017   -1.9174 O   0  0  0  0  0  0  0  0  0  0  0  0
   -2.0629   -0.5427    0.0785 N   0  0  0  0  0  0  0  0  0  0  0  0
    3.8742   -1.3254   -0.6215 N   0  0  0  0  0  0  0  0  0  0  0  0
   -0.6818   -0.6173    0.5267 C   0  0  1  0  0  0  0  0  0  0  0  0
    0.1133   -1.7288   -0.1330 C   0  0  1  0  0  0  0  0  0  0  0  0
    1.5394   -1.2569    0.1161 C   0  0  1  0  0  0  0  0  0  0  0  0
    0.1328    0.6059    0.1393 C   0  0  0  0  0  0  0  0  0  0  0  0
    2.5364   -1.8004   -0.8918 C   0  0  0  0  0  0  0  0  0  0  0  0
    5.9571    1.0011    0.5322 C   0  0  0  0  0  0  0  0  0  0  0  0
   -2.8585    0.2969    0.9663 C   0  0  0  0  0  0  0  0  0  0  0  0
    5.8202    0.1154   -0.7290 C   0  0  0  0  0  0  0  0  0  0  0  0
    4.3886   -0.1585   -1.1604 C   0  0  0  0  0  0  0  0  0  0  0  0
    5.2397    0.3763    1.7399 C   0  0  0  0  0  0  0  0  0  0  0  0
    7.4352    1.2366    0.8858 C   0  0  0  0  0  0  0  0  0  0  0  0
    5.3053    2.3649    0.2306 C   0  0  0  0  0  0  0  0  0  0  0  0
   -4.2889    0.3993    0.5081 C   0  0  0  0  0  0  0  0  0  0  0  0
   -4.6693    1.4160   -0.3680 C   0  0  0  0  0  0  0  0  0  0  0  0
   -5.2339   -0.5221    0.9595 C   0  0  0  0  0  0  0  0  0  0  0  0
   -5.9944    1.5113   -0.7925 C   0  0  0  0  0  0  0  0  0  0  0  0
   -6.5592   -0.4268    0.5350 C   0  0  0  0  0  0  0  0  0  0  0  0
   -6.9394    0.5900   -0.3411 C   0  0  0  0  0  0  0  0  0  0  0  0
   -0.6437   -0.7719    1.6143 H   0  0  0  0  0  0  0  0  0  0  0  0
   -0.1033   -1.7849   -1.2071 H   0  0  0  0  0  0  0  0  0  0  0  0
    1.8681   -1.5201    1.1302 H   0  0  0  0  0  0  0  0  0  0  0  0
   -0.1538    1.0046   -0.8407 H   0  0  0  0  0  0  0  0  0  0  0  0
    0.0597    1.4129    0.8746 H   0  0  0  0  0  0  0  0  0  0  0  0
    2.2645   -1.4895   -1.9070 H   0  0  0  0  0  0  0  0  0  0  0  0
    2.5653   -2.8942   -0.8590 H   0  0  0  0  0  0  0  0  0  0  0  0
   -2.4604   -1.4824    0.0678 H   0  0  0  0  0  0  0  0  0  0  0  0
    4.4506   -1.8807    0.0039 H   0  0  0  0  0  0  0  0  0  0  0  0
   -2.4385    1.3092    1.0233 H   0  0  0  0  0  0  0  0  0  0  0  0
   -2.8421   -0.0986    1.9906 H   0  0  0  0  0  0  0  0  0  0  0  0
    6.3310   -0.8423   -0.5640 H   0  0  0  0  0  0  0  0  0  0  0  0
    6.3322    0.5831   -1.5803 H   0  0  0  0  0  0  0  0  0  0  0  0
    0.0605   -2.9372    1.3991 H   0  0  0  0  0  0  0  0  0  0  0  0
    5.6177   -0.6319    1.9420 H   0  0  0  0  0  0  0  0  0  0  0  0
    5.3991    0.9760    2.6436 H   0  0  0  0  0  0  0  0  0  0  0  0
    4.1574    0.3104    1.5889 H   0  0  0  0  0  0  0  0  0  0  0  0
    7.5395    1.8876    1.7609 H   0  0  0  0  0  0  0  0  0  0  0  0
    7.9694    1.7073    0.0530 H   0  0  0  0  0  0  0  0  0  0  0  0
    7.9378    0.2895    1.1113 H   0  0  0  0  0  0  0  0  0  0  0  0
    5.4573    3.0618    1.0634 H   0  0  0  0  0  0  0  0  0  0  0  0
    5.7391    2.8242   -0.6648 H   0  0  0  0  0  0  0  0  0  0  0  0
    4.2237    2.2824    0.0804 H   0  0  0  0  0  0  0  0  0  0  0  0
   -3.9422    2.1389   -0.7284 H   0  0  0  0  0  0  0  0  0  0  0  0
   -4.9498   -1.3198    1.6407 H   0  0  0  0  0  0  0  0  0  0  0  0
   -6.2908    2.3023   -1.4750 H   0  0  0  0  0  0  0  0  0  0  0  0
   -7.2951   -1.1442    0.8858 H   0  0  0  0  0  0  0  0  0  0  0  0
  1 24  1  0  0  0  0
  2  9  1  0  0  0  0
  2 10  1  0  0  0  0
  3  8  1  0  0  0  0
  3 38  1  0  0  0  0
  4 15  2  0  0  0  0
  5  7  1  0  0  0  0
  5 13  1  0  0  0  0
  5 32  1  0  0  0  0
  6 11  1  0  0  0  0
  6 15  1  0  0  0  0
  6 33  1  0  0  0  0
  7  8  1  0  0  0  0
  7 10  1  0  0  0  0
  7 25  1  0  0  0  0
  8  9  1  0  0  0  0
  8 26  1  0  0  0  0
  9 11  1  0  0  0  0
  9 27  1  0  0  0  0
 10 28  1  0  0  0  0
 10 29  1  0  0  0  0
 11 30  1  0  0  0  0
 11 31  1  0  0  0  0
 12 14  1  0  0  0  0
 12 16  1  0  0  0  0
 12 17  1  0  0  0  0
 12 18  1  0  0  0  0
 13 19  1  0  0  0  0
 13 34  1  0  0  0  0
 13 35  1  0  0  0  0
 14 15  1  0  0  0  0
 14 36  1  0  0  0  0
 14 37  1  0  0  0  0
 16 39  1  0  0  0  0
 16 40  1  0  0  0  0
 16 41  1  0  0  0  0
 17 42  1  0  0  0  0
 17 43  1  0  0  0  0
 17 44  1  0  0  0  0
 18 45  1  0  0  0  0
 18 46  1  0  0  0  0
 18 47  1  0  0  0  0
 19 20  2  0  0  0  0
 19 21  1  0  0  0  0
 20 22  1  0  0  0  0
 20 48  1  0  0  0  0
 21 23  2  0  0  0  0
 21 49  1  0  0  0  0
 22 24  2  0  0  0  0
 22 50  1  0  0  0  0
 23 24  1  0  0  0  0
 23 51  1  0  0  0  0
M  END
> <PUBCHEM_COMPOUND_CID>
75536520

> <PUBCHEM_CONFORMER_RMSD>
1

> <PUBCHEM_CONFORMER_DIVERSEORDER>
1
100
9
60
114
117
108
112
96
27
33
80
102
21
15
2
44
34
107
133
68
94
40
64
126
85
134
26
111
132
121
82
119
88
113
16
18
76
101
62
105
77
115
53
120
87
90
22
123
92
93
95
49
19
37
12
7
11
125
58
69
67
84
99
78
35
118
38
91
116
57
128
74
124
52
135
31
23
55
63
56
71
46
36
131
41
70
122
51
106
59
13
24
104
47
79
130
10
28
32
97
129
39
98
48
8
54
25
103
81
29
17
127
83
45
110
14
5
72
86
73
89
43
20
75
109
65
42
30
61
4
50
66
3
6

> <PUBCHEM_MMFF94_PARTIAL_CHARGES>
27
1 -0.19
10 0.28
11 0.3
13 0.41
14 0.06
15 0.57
19 -0.14
2 -0.56
20 -0.15
21 -0.15
22 -0.15
23 -0.15
24 0.19
3 -0.68
32 0.36
33 0.37
38 0.4
4 -0.57
48 0.15
49 0.15
5 -0.9
50 0.15
51 0.15
6 -0.73
7 0.27
8 0.28
9 0.28

> <PUBCHEM_EFFECTIVE_ROTOR_COUNT>
9

> <PUBCHEM_PHARMACOPHORE_FEATURES>
10
1 2 acceptor
1 3 acceptor
1 3 donor
1 4 acceptor
1 5 cation
1 5 donor
1 6 donor
4 12 16 17 18 hydrophobe
5 2 7 8 9 10 rings
6 19 20 21 22 23 24 rings

> <PUBCHEM_HEAVY_ATOM_COUNT>
24

> <PUBCHEM_ATOM_DEF_STEREO_COUNT>
3

> <PUBCHEM_ATOM_UDEF_STEREO_COUNT>
0

> <PUBCHEM_BOND_DEF_STEREO_COUNT>
0

> <PUBCHEM_BOND_UDEF_STEREO_COUNT>
0

> <PUBCHEM_ISOTOPIC_ATOM_COUNT>
0

> <PUBCHEM_COMPONENT_COUNT>
1

> <PUBCHEM_CACTVS_TAUTO_COUNT>
2

> <PUBCHEM_CONFORMER_ID>
0480988800000001

> <PUBCHEM_MMFF94_ENERGY>
50.9347

> <PUBCHEM_FEATURE_SELFOVERLAP>
50.746

> <PUBCHEM_SHAPE_FINGERPRINT>
10 15 18187366557723849528
10299344 5 13973967601788997533
10638233 991 16487254378619112409
10666366 153 9583524200991049251
10835480 77 18337668612589886893
11315181 36 17632579349844107785
11719270 70 18260547796816623171
12778500 126 15719388417586580500
13533116 47 18270970034015317350
13673619 4 12031783656942120091
13685833 64 8502655909233539444
13914758 101 13407068185658072775
14117953 113 18342745139733323908
14123256 34 9727633916476631804
14216079 64 7853581209597395256
14251764 18 16225768536518647844
14344974 204 9366185971086900845
14347424 109 14923945669926023116
14461889 52 18187935005441710155
14681490 219 16845574210057793296
14767858 380 17060339621408475224
15183329 4 17458351818620818037
15348495 7 11603123689855189797
15352257 5 10879991367624746933
16079462 125 18334574633596552533
173720 79 18040152920517396346
20157964 124 18131355198518282614
20554085 129 17894623756135075833
20567600 254 18411702088967535810
20715895 44 18411983589888305392
21049683 118 18338780321940862098
21150785 3 16988841687769448781
21267235 1 9151175358933346419
21521721 280 18131638884881184275
220451 1 13830136066232853951
2297311 6 12607406581464137211
23016692 55 10879993558052195434
23035841 295 12319736960257781845
23081809 10 16558475188605881963
23424782 7 17917708058932806919
23522609 53 14332868030895868315
23559900 14 17917704743180689899
2767999 5 18408042909490007244
2916195 48 18409450292878956219
300161 21 18412263938918978775
312425 54 14273745104658410472
335352 9 18272941510303941118
3472631 163 18342177817170242412
34797466 226 16988568991415838292
4072396 5 17313105241791065386
4325135 7 17346597473990412124
4340502 62 18408044005044531238
465052 167 8574712399607323280
5104073 3 18115033987569587459
54039377 194 12035989281051433944

> <PUBCHEM_SHAPE_MULTIPOLES>
459.07
22.19
1.97
1.21
13.52
0.64
-0.06
-11.68
-0.1
-1.4
-0.04
-1.06
-0.1
1.66

> <PUBCHEM_SHAPE_SELFOVERLAP>
940.192

> <PUBCHEM_SHAPE_VOLUME>
267.4

> <PUBCHEM_COORDINATE_TYPE>
2
5
10

$$$$
