51137291
  -OEChem-12032416243D

 41 44  0     1  0  0  0  0  0999 V2000
   -6.3693    2.8097    1.1805 Cl  0  0  0  0  0  0  0  0  0  0  0  0
    2.1940   -0.5182    0.1679 O   0  0  0  0  0  0  0  0  0  0  0  0
   -1.8319   -0.8375   -0.2148 N   0  0  1  0  0  0  0  0  0  0  0  0
    2.5871   -2.7191    0.2436 N   0  0  0  0  0  0  0  0  0  0  0  0
    3.8022   -2.0723    0.1160 N   0  0  0  0  0  0  0  0  0  0  0  0
    6.0772    2.5622   -0.2911 N   0  0  0  0  0  0  0  0  0  0  0  0
    0.1755   -1.8857    0.3942 C   0  0  1  0  0  0  0  0  0  0  0  0
   -0.4268   -1.1759    1.6192 C   0  0  0  0  0  0  0  0  0  0  0  0
   -0.5706   -1.2885   -0.8066 C   0  0  0  0  0  0  0  0  0  0  0  0
   -1.4510   -0.2041    1.0476 C   0  0  0  0  0  0  0  0  0  0  0  0
   -2.5638    0.0666   -1.0897 C   0  0  0  0  0  0  0  0  0  0  0  0
    1.6774   -1.7733    0.2699 C   0  0  0  0  0  0  0  0  0  0  0  0
   -4.0127    0.1777   -0.6956 C   0  0  0  0  0  0  0  0  0  0  0  0
   -4.4668    1.3100   -0.0195 C   0  0  0  0  0  0  0  0  0  0  0  0
   -4.9010   -0.8516   -1.0075 C   0  0  0  0  0  0  0  0  0  0  0  0
    3.5244   -0.7901    0.0756 C   0  0  0  0  0  0  0  0  0  0  0  0
   -5.8094    1.4133    0.3447 C   0  0  0  0  0  0  0  0  0  0  0  0
   -6.2435   -0.7485   -0.6432 C   0  0  0  0  0  0  0  0  0  0  0  0
    4.3901    0.3466   -0.0480 C   0  0  0  0  0  0  0  0  0  0  0  0
   -6.6978    0.3841    0.0327 C   0  0  0  0  0  0  0  0  0  0  0  0
    5.7655    0.1690   -0.1478 C   0  0  0  0  0  0  0  0  0  0  0  0
    3.8572    1.6308   -0.0696 C   0  0  0  0  0  0  0  0  0  0  0  0
    6.5585    1.2990   -0.2665 C   0  0  0  0  0  0  0  0  0  0  0  0
    4.7355    2.6955   -0.1918 C   0  0  0  0  0  0  0  0  0  0  0  0
   -0.0689   -2.9544    0.4695 H   0  0  0  0  0  0  0  0  0  0  0  0
   -0.9264   -1.9156    2.2573 H   0  0  0  0  0  0  0  0  0  0  0  0
    0.3170   -0.6570    2.2330 H   0  0  0  0  0  0  0  0  0  0  0  0
   -0.0164   -0.4517   -1.2520 H   0  0  0  0  0  0  0  0  0  0  0  0
   -0.7352   -2.0417   -1.5848 H   0  0  0  0  0  0  0  0  0  0  0  0
   -0.9805    0.7751    0.8899 H   0  0  0  0  0  0  0  0  0  0  0  0
   -2.2976   -0.0804    1.7300 H   0  0  0  0  0  0  0  0  0  0  0  0
   -2.0942    1.0581   -1.1462 H   0  0  0  0  0  0  0  0  0  0  0  0
   -2.5456   -0.3169   -2.1198 H   0  0  0  0  0  0  0  0  0  0  0  0
   -3.7729    2.1112    0.2247 H   0  0  0  0  0  0  0  0  0  0  0  0
   -4.5594   -1.7389   -1.5341 H   0  0  0  0  0  0  0  0  0  0  0  0
   -6.9351   -1.5499   -0.8860 H   0  0  0  0  0  0  0  0  0  0  0  0
   -7.7466    0.4506    0.3104 H   0  0  0  0  0  0  0  0  0  0  0  0
    6.2244   -0.8144   -0.1355 H   0  0  0  0  0  0  0  0  0  0  0  0
    2.7934    1.8316    0.0041 H   0  0  0  0  0  0  0  0  0  0  0  0
    7.6372    1.2147   -0.3475 H   0  0  0  0  0  0  0  0  0  0  0  0
    4.3706    3.7171   -0.2138 H   0  0  0  0  0  0  0  0  0  0  0  0
  1 17  1  0  0  0  0
  2 12  1  0  0  0  0
  2 16  1  0  0  0  0
  3  9  1  0  0  0  0
  3 10  1  0  0  0  0
  3 11  1  0  0  0  0
  4  5  1  0  0  0  0
  4 12  2  0  0  0  0
  5 16  2  0  0  0  0
  6 23  2  0  0  0  0
  6 24  1  0  0  0  0
  7  8  1  0  0  0  0
  7  9  1  0  0  0  0
  7 12  1  0  0  0  0
  7 25  1  0  0  0  0
  8 10  1  0  0  0  0
  8 26  1  0  0  0  0
  8 27  1  0  0  0  0
  9 28  1  0  0  0  0
  9 29  1  0  0  0  0
 10 30  1  0  0  0  0
 10 31  1  0  0  0  0
 11 13  1  0  0  0  0
 11 32  1  0  0  0  0
 11 33  1  0  0  0  0
 13 14  2  0  0  0  0
 13 15  1  0  0  0  0
 14 17  1  0  0  0  0
 14 34  1  0  0  0  0
 15 18  2  0  0  0  0
 15 35  1  0  0  0  0
 16 19  1  0  0  0  0
 17 20  2  0  0  0  0
 18 20  1  0  0  0  0
 18 36  1  0  0  0  0
 19 21  2  0  0  0  0
 19 22  1  0  0  0  0
 20 37  1  0  0  0  0
 21 23  1  0  0  0  0
 21 38  1  0  0  0  0
 22 24  2  0  0  0  0
 22 39  1  0  0  0  0
 23 40  1  0  0  0  0
 24 41  1  0  0  0  0
M  END
> <PUBCHEM_COMPOUND_CID>
51137291

> <PUBCHEM_CONFORMER_RMSD>
0.8

> <PUBCHEM_CONFORMER_DIVERSEORDER>
1
50
106
85
45
5
111
10
78
35
97
62
26
69
8
67
60
100
76
15
73
17
70
90
57
11
89
71
52
24
43
105
81
31
94
113
86
28
3
104
112
38
64
82
53
59
51
7
96
14
9
39
110
99
58
55
27
12
84
63
25
49
30
87
23
4
114
95
66
6
20
54
33
34
13
41
65
83
103
109
79
92
16
36
61
75
88
93
44
47
19
68
46
102
77
22
21
32
18
101
42
108
72
37
48
91
29
98
40
56
74
80
2
107

> <PUBCHEM_MMFF94_PARTIAL_CHARGES>
31
1 -0.18
10 0.27
11 0.41
12 0.3
13 -0.14
14 -0.15
15 -0.15
16 0.43
17 0.18
18 -0.15
19 0.05
2 -0.28
20 -0.15
21 -0.15
22 -0.15
23 0.16
24 0.16
3 -0.81
34 0.15
35 0.15
36 0.15
37 0.15
38 0.15
39 0.15
4 -0.34
40 0.15
41 0.15
5 -0.34
6 -0.62
7 0.18
9 0.27

> <PUBCHEM_EFFECTIVE_ROTOR_COUNT>
5

> <PUBCHEM_PHARMACOPHORE_FEATURES>
6
1 3 cation
1 6 acceptor
5 2 4 5 12 16 rings
5 3 7 8 9 10 rings
6 13 14 15 17 18 20 rings
6 6 19 21 22 23 24 rings

> <PUBCHEM_HEAVY_ATOM_COUNT>
24

> <PUBCHEM_ATOM_DEF_STEREO_COUNT>
1

> <PUBCHEM_ATOM_UDEF_STEREO_COUNT>
0

> <PUBCHEM_BOND_DEF_STEREO_COUNT>
0

> <PUBCHEM_BOND_UDEF_STEREO_COUNT>
0

> <PUBCHEM_ISOTOPIC_ATOM_COUNT>
0

> <PUBCHEM_COMPONENT_COUNT>
1

> <PUBCHEM_CACTVS_TAUTO_COUNT>
1

> <PUBCHEM_CONFORMER_ID>
030C4B0B00000001

> <PUBCHEM_MMFF94_ENERGY>
50.1347

> <PUBCHEM_FEATURE_SELFOVERLAP>
30.448

> <PUBCHEM_SHAPE_FINGERPRINT>
10 15 15285362837977113838
10074138 170 15937262242808972971
10411042 1 17904478503532468338
10554248 39 17772177619113679743
10595046 47 18413384337547637279
10638233 991 18343298176305723909
10673678 19 18272654553804241694
11646440 116 17240485805542836332
12035758 1 16732994123984611833
12236239 1 18273213063041157703
12403259 415 17604424094286134959
12633257 1 15936688285133913566
12730499 353 18260269637886980842
12760667 363 10519994772200132775
12788726 201 17346322553080924993
12821665 9 18338795753647202831
12839892 36 13118002180479490337
12895836 83 17774998037436010143
13167372 99 18341049631734292784
13402501 40 18113893892680351764
13533116 47 17095794418061593218
13685833 64 10879994678822395095
13690498 29 17344898827863829807
13782708 43 12103570757764902584
13955234 65 17823691971668122978
14202776 33 18060410336196946413
14394314 77 18412833460758757113
14528608 73 18413387644039290079
14681490 219 18412824676938297632
14790565 3 18341050714545930361
14849402 71 18337396036537857357
14931854 50 17988375857615437360
14933364 13 18412827980057395703
15183329 4 17632860828282784225
15188451 53 12035451653333060833
15419008 145 18116419372521999152
15840311 113 18265621988035628693
16760501 71 18333453165879921989
16993089 31 13398626213001248141
16994733 274 18411416189990167465
17844677 252 18267587914466999591
20157964 124 18409448077055964346
20567600 247 9079114444922765085
20567600 254 17458052781264195575
21033648 144 18186794782124669503
21033648 29 18190736639132756552
21298829 104 18412265064691352016
21307412 95 13182740372492392117
21315764 119 16988852657126505324
21521721 280 18407763629964583691
21585482 111 18262800649161546997
21641784 216 16558757771699739817
21774942 28 18060704962195082128
22061861 79 11815892345330348129
23081809 10 18059563660345410463
23522609 53 17917726677784613361
2838139 119 18334850628295324420
2916195 48 17967246486328029503
3004659 81 17845934018403977262
335352 9 18408605873515227942
3472631 163 18342741853423277542
34797466 226 18201725037670157167
397830 11 18114477707948439395
4073 2 18187368756900735699
4325135 7 18412259554358529151
445580 126 18410845578104902304
46194498 28 18129385908589338814
465052 167 8646768915265549240
5104073 3 16227162584171649793
513532 50 18342187652624291214
53794403 172 18044099170903267636
5385378 56 18260823788048160890
543368 44 18410009945136264293
5911458 16 18059305266586648849
59682541 35 17676776448504655273
59682541 52 17632312155359376470
6328613 192 18270962346113430993
6608658 132 17274558524432073113

> <PUBCHEM_SHAPE_MULTIPOLES>
469.99
19.37
2.81
1.02
4.83
1
-0.17
13.77
1.48
-1.99
-0.45
1
-0.07
-1.96

> <PUBCHEM_SHAPE_SELFOVERLAP>
1015.963

> <PUBCHEM_SHAPE_VOLUME>
260.4

> <PUBCHEM_COORDINATE_TYPE>
2
5
10

$$$$
