38027859
  -OEChem-12032416143D

 66 67  0     1  0  0  0  0  0999 V2000
   -0.6043    3.2942    1.1946 O   0  0  0  0  0  0  0  0  0  0  0  0
    1.6400   -3.2938   -0.8917 O   0  0  0  0  0  0  0  0  0  0  0  0
    1.4829   -4.1951    1.6402 O   0  0  0  0  0  0  0  0  0  0  0  0
   -5.2808   -0.9344   -1.6284 O   0  0  0  0  0  0  0  0  0  0  0  0
    3.2061   -1.6645   -0.3342 N   0  0  0  0  0  0  0  0  0  0  0  0
   -0.8508    1.2785    2.3245 N   0  0  0  0  0  0  0  0  0  0  0  0
    1.4904    0.5745   -1.3765 C   0  0  1  0  0  0  0  0  0  0  0  0
    3.0027    0.3792   -1.6497 C   0  0  1  0  0  0  0  0  0  0  0  0
    1.2021    2.0279   -0.9708 C   0  0  0  0  0  0  0  0  0  0  0  0
    1.9837    2.4473    0.2885 C   0  0  2  0  0  0  0  0  0  0  0  0
    0.6392    0.1970   -2.5930 C   0  0  0  0  0  0  0  0  0  0  0  0
    3.4420    2.0442    0.2064 C   0  0  0  0  0  0  0  0  0  0  0  0
    3.8810    1.1282   -0.6751 C   0  0  0  0  0  0  0  0  0  0  0  0
    3.3794   -1.1067   -1.6387 C   0  0  0  0  0  0  0  0  0  0  0  0
    1.3300    1.8866    1.5565 C   0  0  0  0  0  0  0  0  0  0  0  0
   -0.7724   -0.1828   -2.1576 C   0  0  0  0  0  0  0  0  0  0  0  0
    0.6054    1.3459   -3.5957 C   0  0  0  0  0  0  0  0  0  0  0  0
    4.3932    2.7521    1.1307 C   0  0  0  0  0  0  0  0  0  0  0  0
   -0.1326    2.2575    1.6537 C   0  0  0  0  0  0  0  0  0  0  0  0
    2.3419   -2.7243   -0.0604 C   0  0  0  0  0  0  0  0  0  0  0  0
   -2.2724    1.3688    2.5661 C   0  0  0  0  0  0  0  0  0  0  0  0
    2.3575   -3.1127    1.4026 C   0  0  0  0  0  0  0  0  0  0  0  0
   -3.0717    0.7568    1.4522 C   0  0  0  0  0  0  0  0  0  0  0  0
   -3.9855    1.5345    0.7408 C   0  0  0  0  0  0  0  0  0  0  0  0
   -2.9007   -0.5893    1.1287 C   0  0  0  0  0  0  0  0  0  0  0  0
    1.4773   -4.5825    3.0112 C   0  0  0  0  0  0  0  0  0  0  0  0
   -4.7278    0.9662   -0.2945 C   0  0  0  0  0  0  0  0  0  0  0  0
   -3.6432   -1.1576    0.0937 C   0  0  0  0  0  0  0  0  0  0  0  0
   -4.5568   -0.3799   -0.6180 C   0  0  0  0  0  0  0  0  0  0  0  0
   -5.0559   -2.3158   -1.9059 C   0  0  0  0  0  0  0  0  0  0  0  0
    1.1954   -0.0685   -0.5381 H   0  0  0  0  0  0  0  0  0  0  0  0
    3.2489    0.7699   -2.6450 H   0  0  0  0  0  0  0  0  0  0  0  0
    0.1291    2.2012   -0.8615 H   0  0  0  0  0  0  0  0  0  0  0  0
    1.5376    2.7145   -1.7599 H   0  0  0  0  0  0  0  0  0  0  0  0
    1.9355    3.5445    0.3332 H   0  0  0  0  0  0  0  0  0  0  0  0
    1.0599   -0.6796   -3.0963 H   0  0  0  0  0  0  0  0  0  0  0  0
    4.9467    0.9125   -0.7218 H   0  0  0  0  0  0  0  0  0  0  0  0
    4.4390   -1.2295   -1.8937 H   0  0  0  0  0  0  0  0  0  0  0  0
    2.8127   -1.6782   -2.3787 H   0  0  0  0  0  0  0  0  0  0  0  0
    1.8166    2.2920    2.4520 H   0  0  0  0  0  0  0  0  0  0  0  0
    1.4493    0.7970    1.5970 H   0  0  0  0  0  0  0  0  0  0  0  0
   -1.2946    0.6464   -1.6710 H   0  0  0  0  0  0  0  0  0  0  0  0
   -0.7510   -1.0280   -1.4613 H   0  0  0  0  0  0  0  0  0  0  0  0
   -1.3722   -0.4862   -3.0228 H   0  0  0  0  0  0  0  0  0  0  0  0
   -0.0126    2.1877   -3.2661 H   0  0  0  0  0  0  0  0  0  0  0  0
    0.1527    0.9933   -4.5309 H   0  0  0  0  0  0  0  0  0  0  0  0
    1.6038    1.7103   -3.8550 H   0  0  0  0  0  0  0  0  0  0  0  0
    4.3250    3.8356    0.9891 H   0  0  0  0  0  0  0  0  0  0  0  0
    5.4342    2.4618    0.9525 H   0  0  0  0  0  0  0  0  0  0  0  0
    4.1617    2.5213    2.1747 H   0  0  0  0  0  0  0  0  0  0  0  0
    3.7830   -1.3053    0.4213 H   0  0  0  0  0  0  0  0  0  0  0  0
   -0.3709    0.4511    2.6666 H   0  0  0  0  0  0  0  0  0  0  0  0
   -2.5386    2.4218    2.7126 H   0  0  0  0  0  0  0  0  0  0  0  0
   -2.4857    0.8425    3.5032 H   0  0  0  0  0  0  0  0  0  0  0  0
    3.3814   -3.3921    1.6766 H   0  0  0  0  0  0  0  0  0  0  0  0
    2.0460   -2.2431    1.9932 H   0  0  0  0  0  0  0  0  0  0  0  0
   -4.1287    2.5846    0.9806 H   0  0  0  0  0  0  0  0  0  0  0  0
   -2.1941   -1.2070    1.6771 H   0  0  0  0  0  0  0  0  0  0  0  0
    0.7845   -5.4200    3.1285 H   0  0  0  0  0  0  0  0  0  0  0  0
    1.1367   -3.7545    3.6403 H   0  0  0  0  0  0  0  0  0  0  0  0
    2.4756   -4.9067    3.3205 H   0  0  0  0  0  0  0  0  0  0  0  0
   -5.4374    1.5771   -0.8458 H   0  0  0  0  0  0  0  0  0  0  0  0
   -3.4601   -2.2080   -0.1051 H   0  0  0  0  0  0  0  0  0  0  0  0
   -5.7141   -2.5900   -2.7369 H   0  0  0  0  0  0  0  0  0  0  0  0
   -5.3342   -2.9476   -1.0557 H   0  0  0  0  0  0  0  0  0  0  0  0
   -4.0282   -2.4968   -2.2390 H   0  0  0  0  0  0  0  0  0  0  0  0
  1 19  2  0  0  0  0
  2 20  2  0  0  0  0
  3 22  1  0  0  0  0
  3 26  1  0  0  0  0
  4 29  1  0  0  0  0
  4 30  1  0  0  0  0
  5 14  1  0  0  0  0
  5 20  1  0  0  0  0
  5 51  1  0  0  0  0
  6 19  1  0  0  0  0
  6 21  1  0  0  0  0
  6 52  1  0  0  0  0
  7  8  1  0  0  0  0
  7  9  1  0  0  0  0
  7 11  1  0  0  0  0
  7 31  1  0  0  0  0
  8 13  1  0  0  0  0
  8 14  1  0  0  0  0
  8 32  1  0  0  0  0
  9 10  1  0  0  0  0
  9 33  1  0  0  0  0
  9 34  1  0  0  0  0
 10 12  1  0  0  0  0
 10 15  1  0  0  0  0
 10 35  1  0  0  0  0
 11 16  1  0  0  0  0
 11 17  1  0  0  0  0
 11 36  1  0  0  0  0
 12 13  2  0  0  0  0
 12 18  1  0  0  0  0
 13 37  1  0  0  0  0
 14 38  1  0  0  0  0
 14 39  1  0  0  0  0
 15 19  1  0  0  0  0
 15 40  1  0  0  0  0
 15 41  1  0  0  0  0
 16 42  1  0  0  0  0
 16 43  1  0  0  0  0
 16 44  1  0  0  0  0
 17 45  1  0  0  0  0
 17 46  1  0  0  0  0
 17 47  1  0  0  0  0
 18 48  1  0  0  0  0
 18 49  1  0  0  0  0
 18 50  1  0  0  0  0
 20 22  1  0  0  0  0
 21 23  1  0  0  0  0
 21 53  1  0  0  0  0
 21 54  1  0  0  0  0
 22 55  1  0  0  0  0
 22 56  1  0  0  0  0
 23 24  2  0  0  0  0
 23 25  1  0  0  0  0
 24 27  1  0  0  0  0
 24 57  1  0  0  0  0
 25 28  2  0  0  0  0
 25 58  1  0  0  0  0
 26 59  1  0  0  0  0
 26 60  1  0  0  0  0
 26 61  1  0  0  0  0
 27 29  2  0  0  0  0
 27 62  1  0  0  0  0
 28 29  1  0  0  0  0
 28 63  1  0  0  0  0
 30 64  1  0  0  0  0
 30 65  1  0  0  0  0
 30 66  1  0  0  0  0
M  END
> <PUBCHEM_COMPOUND_CID>
38027859

> <PUBCHEM_CONFORMER_RMSD>
1.2

> <PUBCHEM_CONFORMER_DIVERSEORDER>
1
14
15
29
34
25
32
16
23
17
26
24
12
11
36
39
28
13
31
40
30
27
35
7
8
3
2
37
33
10
6
22
9
38
4
19
21
20
18
41
5

> <PUBCHEM_MMFF94_PARTIAL_CHARGES>
32
1 -0.57
10 0.14
12 -0.28
13 -0.29
14 0.3
15 0.06
18 0.14
19 0.57
2 -0.57
20 0.57
21 0.44
22 0.34
23 -0.14
24 -0.15
25 -0.15
26 0.28
27 -0.15
28 -0.15
29 0.08
3 -0.56
30 0.28
37 0.15
4 -0.36
5 -0.73
51 0.37
52 0.37
57 0.15
58 0.15
6 -0.73
62 0.15
63 0.15
8 0.14

> <PUBCHEM_EFFECTIVE_ROTOR_COUNT>
12.8

> <PUBCHEM_PHARMACOPHORE_FEATURES>
9
1 1 acceptor
1 2 acceptor
1 3 acceptor
1 4 acceptor
1 5 donor
1 6 donor
3 11 16 17 hydrophobe
6 23 24 25 27 28 29 rings
6 7 8 9 10 12 13 rings

> <PUBCHEM_HEAVY_ATOM_COUNT>
30

> <PUBCHEM_ATOM_DEF_STEREO_COUNT>
3

> <PUBCHEM_ATOM_UDEF_STEREO_COUNT>
0

> <PUBCHEM_BOND_DEF_STEREO_COUNT>
0

> <PUBCHEM_BOND_UDEF_STEREO_COUNT>
0

> <PUBCHEM_ISOTOPIC_ATOM_COUNT>
0

> <PUBCHEM_COMPONENT_COUNT>
1

> <PUBCHEM_CACTVS_TAUTO_COUNT>
4

> <PUBCHEM_CONFORMER_ID>
0244425300000001

> <PUBCHEM_MMFF94_ENERGY>
69.9311

> <PUBCHEM_FEATURE_SELFOVERLAP>
45.679

> <PUBCHEM_SHAPE_FINGERPRINT>
11370993 70 18262521536141418258
12156800 1 16014620315847456050
13383668 262 17973700740460357579
13751561 76 14946721344136688847
14674994 50 16745354549962142414
17138139 8 18201441440615501262
19315092 285 18266153137581808967
20511986 3 17989203742130581673
20764821 26 17188146019908849979
20775530 9 17537439518282238530
23559900 14 16843625776737613149
25222932 49 17987236819176490767
35225 105 17475535231015622198
46194498 28 16301809690768886969
463206 1 18340499897384503899
5081480 168 16879623770546178297
513532 50 17241309323078235143

> <PUBCHEM_SHAPE_MULTIPOLES>
583.95
9.19
4.77
3.23
10.31
6.15
-0.68
0.08
-2.23
-4.33
3.96
0.18
0.45
-1.92

> <PUBCHEM_SHAPE_SELFOVERLAP>
1190.22

> <PUBCHEM_SHAPE_VOLUME>
337.6

> <PUBCHEM_COORDINATE_TYPE>
2
5
10

$$$$
