71693345
  -OEChem-12032416233D

 57 58  0     1  0  0  0  0  0999 V2000
   -4.9129    0.5519   -0.1069 S   0  0  0  0  0  0  0  0  0  0  0  0
    2.4325    1.9826    0.7712 O   0  0  0  0  0  0  0  0  0  0  0  0
    2.0349   -0.2608   -2.6898 O   0  0  0  0  0  0  0  0  0  0  0  0
    5.8029    0.9763    0.2048 O   0  0  0  0  0  0  0  0  0  0  0  0
   -6.2756    0.9554    0.1862 O   0  0  0  0  0  0  0  0  0  0  0  0
   -4.4410    0.4900   -1.4760 O   0  0  0  0  0  0  0  0  0  0  0  0
    3.8312   -0.1261   -0.3696 N   0  0  0  0  0  0  0  0  0  0  0  0
   -3.8465    1.4869    0.8703 N   0  0  0  0  0  0  0  0  0  0  0  0
    2.3488   -0.1537   -0.3237 C   0  0  1  0  0  0  0  0  0  0  0  0
    1.7662    1.2721   -0.2733 C   0  0  1  0  0  0  0  0  0  0  0  0
    4.5318   -1.3649   -0.6970 C   0  0  0  0  0  0  0  0  0  0  0  0
    4.5984   -2.3291    0.4926 C   0  0  0  0  0  0  0  0  0  0  0  0
    1.7390   -0.9452   -1.4896 C   0  0  0  0  0  0  0  0  0  0  0  0
    0.2832    1.3278    0.0285 C   0  0  0  0  0  0  0  0  0  0  0  0
    4.5743    0.9568    0.1045 C   0  0  0  0  0  0  0  0  0  0  0  0
    3.7829    2.2045    0.4432 C   0  0  0  0  0  0  0  0  0  0  0  0
    5.3368   -1.6719    1.6593 C   0  0  0  0  0  0  0  0  0  0  0  0
    5.2839   -3.6444    0.1156 C   0  0  0  0  0  0  0  0  0  0  0  0
   -0.2165    0.7301    1.1856 C   0  0  0  0  0  0  0  0  0  0  0  0
   -0.5832    1.9779   -0.8504 C   0  0  0  0  0  0  0  0  0  0  0  0
   -2.4485    1.4329    0.5849 C   0  0  0  0  0  0  0  0  0  0  0  0
   -1.5822    0.7827    1.4638 C   0  0  0  0  0  0  0  0  0  0  0  0
   -1.9489    2.0305   -0.5723 C   0  0  0  0  0  0  0  0  0  0  0  0
   -4.6818   -1.0535    0.6234 C   0  0  0  0  0  0  0  0  0  0  0  0
   -5.8279   -2.0192    0.3157 C   0  0  0  0  0  0  0  0  0  0  0  0
   -5.6323   -3.3754    0.9958 C   0  0  0  0  0  0  0  0  0  0  0  0
   -5.9495   -2.2142   -1.1968 C   0  0  0  0  0  0  0  0  0  0  0  0
    2.1188   -0.6802    0.6105 H   0  0  0  0  0  0  0  0  0  0  0  0
    1.9596    1.8011   -1.2168 H   0  0  0  0  0  0  0  0  0  0  0  0
    5.5570   -1.1102   -0.9971 H   0  0  0  0  0  0  0  0  0  0  0  0
    4.0994   -1.8375   -1.5810 H   0  0  0  0  0  0  0  0  0  0  0  0
    3.5807   -2.5692    0.8241 H   0  0  0  0  0  0  0  0  0  0  0  0
    0.6498   -1.0007   -1.3897 H   0  0  0  0  0  0  0  0  0  0  0  0
    2.0924   -1.9775   -1.5494 H   0  0  0  0  0  0  0  0  0  0  0  0
    4.2564    2.6793    1.3088 H   0  0  0  0  0  0  0  0  0  0  0  0
    3.8529    2.9017   -0.3998 H   0  0  0  0  0  0  0  0  0  0  0  0
    4.7794   -0.8277    2.0749 H   0  0  0  0  0  0  0  0  0  0  0  0
    5.4611   -2.3892    2.4790 H   0  0  0  0  0  0  0  0  0  0  0  0
    6.3378   -1.3361    1.3696 H   0  0  0  0  0  0  0  0  0  0  0  0
    6.3174   -3.4754   -0.2051 H   0  0  0  0  0  0  0  0  0  0  0  0
    5.2999   -4.3343    0.9658 H   0  0  0  0  0  0  0  0  0  0  0  0
    4.7503   -4.1358   -0.7047 H   0  0  0  0  0  0  0  0  0  0  0  0
    0.4418    0.2289    1.8895 H   0  0  0  0  0  0  0  0  0  0  0  0
   -0.2087    2.4500   -1.7547 H   0  0  0  0  0  0  0  0  0  0  0  0
   -1.9603    0.3146    2.3690 H   0  0  0  0  0  0  0  0  0  0  0  0
   -2.6092    2.5518   -1.2605 H   0  0  0  0  0  0  0  0  0  0  0  0
   -3.7187   -1.4442    0.2789 H   0  0  0  0  0  0  0  0  0  0  0  0
   -4.6297   -0.9055    1.7080 H   0  0  0  0  0  0  0  0  0  0  0  0
   -6.7717   -1.5974    0.6827 H   0  0  0  0  0  0  0  0  0  0  0  0
    1.6245   -0.7614   -3.4153 H   0  0  0  0  0  0  0  0  0  0  0  0
   -4.0676    1.4960    1.8752 H   0  0  0  0  0  0  0  0  0  0  0  0
   -4.7162   -3.8647    0.6478 H   0  0  0  0  0  0  0  0  0  0  0  0
   -5.5601   -3.2550    2.0818 H   0  0  0  0  0  0  0  0  0  0  0  0
   -6.4750   -4.0430    0.7881 H   0  0  0  0  0  0  0  0  0  0  0  0
   -4.9903   -2.4947   -1.6451 H   0  0  0  0  0  0  0  0  0  0  0  0
   -6.3200   -1.3155   -1.6980 H   0  0  0  0  0  0  0  0  0  0  0  0
   -6.6669   -3.0109   -1.4246 H   0  0  0  0  0  0  0  0  0  0  0  0
  1  5  2  0  0  0  0
  1  6  2  0  0  0  0
  1  8  1  0  0  0  0
  1 24  1  0  0  0  0
  2 10  1  0  0  0  0
  2 16  1  0  0  0  0
  3 13  1  0  0  0  0
  3 50  1  0  0  0  0
  4 15  2  0  0  0  0
  7  9  1  0  0  0  0
  7 11  1  0  0  0  0
  7 15  1  0  0  0  0
  8 21  1  0  0  0  0
  8 51  1  0  0  0  0
  9 10  1  0  0  0  0
  9 13  1  0  0  0  0
  9 28  1  0  0  0  0
 10 14  1  0  0  0  0
 10 29  1  0  0  0  0
 11 12  1  0  0  0  0
 11 30  1  0  0  0  0
 11 31  1  0  0  0  0
 12 17  1  0  0  0  0
 12 18  1  0  0  0  0
 12 32  1  0  0  0  0
 13 33  1  0  0  0  0
 13 34  1  0  0  0  0
 14 19  2  0  0  0  0
 14 20  1  0  0  0  0
 15 16  1  0  0  0  0
 16 35  1  0  0  0  0
 16 36  1  0  0  0  0
 17 37  1  0  0  0  0
 17 38  1  0  0  0  0
 17 39  1  0  0  0  0
 18 40  1  0  0  0  0
 18 41  1  0  0  0  0
 18 42  1  0  0  0  0
 19 22  1  0  0  0  0
 19 43  1  0  0  0  0
 20 23  2  0  0  0  0
 20 44  1  0  0  0  0
 21 22  2  0  0  0  0
 21 23  1  0  0  0  0
 22 45  1  0  0  0  0
 23 46  1  0  0  0  0
 24 25  1  0  0  0  0
 24 47  1  0  0  0  0
 24 48  1  0  0  0  0
 25 26  1  0  0  0  0
 25 27  1  0  0  0  0
 25 49  1  0  0  0  0
 26 52  1  0  0  0  0
 26 53  1  0  0  0  0
 26 54  1  0  0  0  0
 27 55  1  0  0  0  0
 27 56  1  0  0  0  0
 27 57  1  0  0  0  0
M  END
> <PUBCHEM_COMPOUND_CID>
71693345

> <PUBCHEM_CONFORMER_RMSD>
1

> <PUBCHEM_CONFORMER_DIVERSEORDER>
1
148
125
12
145
142
200
122
102
196
94
106
121
144
156
167
197
59
188
74
157
38
111
108
174
58
79
140
202
95
181
182
48
55
71
133
201
208
165
14
112
114
204
150
162
85
138
175
172
39
99
53
6
137
119
40
10
120
54
25
91
43
147
126
193
185
93
28
21
159
134
49
104
130
69
24
124
152
46
184
155
170
78
205
86
76
8
51
199
13
27
101
47
166
113
149
65
190
176
83
207
72
37
107
160
62
75
153
131
192
98
164
127
163
26
41
42
66
194
15
100
135
70
52
117
60
20
18
187
68
171
64
73
23
105
191
116
44
141
16
139
84
115
206
63
9
90
180
19
29
169
161
50
97
30
186
77
110
178
80
33
158
151
17
189
88
3
203
7
89
56
173
81
109
146
177
11
168
198
128
35
183
36
5
195
67
45
4
22
123
2
154
31
61
87
103
129
132
57
96
118
136
179
32
34
143
82
92

> <PUBCHEM_MMFF94_PARTIAL_CHARGES>
27
1 1.33
10 0.42
11 0.3
13 0.28
14 -0.14
15 0.57
16 0.34
19 -0.15
2 -0.56
20 -0.15
21 0.2
22 -0.15
23 -0.15
24 0.11
3 -0.68
4 -0.57
43 0.15
44 0.15
45 0.15
46 0.15
5 -0.65
50 0.4
51 0.42
6 -0.65
7 -0.66
8 -0.76
9 0.3

> <PUBCHEM_EFFECTIVE_ROTOR_COUNT>
9

> <PUBCHEM_PHARMACOPHORE_FEATURES>
11
1 2 acceptor
1 3 acceptor
1 3 donor
1 4 acceptor
1 5 acceptor
1 6 acceptor
1 8 donor
3 12 17 18 hydrophobe
3 25 26 27 hydrophobe
6 14 19 20 21 22 23 rings
6 2 7 9 10 15 16 rings

> <PUBCHEM_HEAVY_ATOM_COUNT>
27

> <PUBCHEM_ATOM_DEF_STEREO_COUNT>
2

> <PUBCHEM_ATOM_UDEF_STEREO_COUNT>
0

> <PUBCHEM_BOND_DEF_STEREO_COUNT>
0

> <PUBCHEM_BOND_UDEF_STEREO_COUNT>
0

> <PUBCHEM_ISOTOPIC_ATOM_COUNT>
0

> <PUBCHEM_COMPONENT_COUNT>
1

> <PUBCHEM_CACTVS_TAUTO_COUNT>
2

> <PUBCHEM_CONFORMER_ID>
0445F42100000001

> <PUBCHEM_MMFF94_ENERGY>
65.8434

> <PUBCHEM_FEATURE_SELFOVERLAP>
55.84

> <PUBCHEM_SHAPE_FINGERPRINT>
10554248 39 12973869408527897857
11135609 99 18411136901484450558
11796584 16 18116424847892514672
11963148 33 18336260232483864106
12422481 6 17704072880472191383
12633257 1 16128096762702723309
13533116 47 18412261705963032232
1361 4 18409448102477978970
13782708 43 18411417293405929938
14211702 104 18410295817495322195
14251751 18 18411980239296856499
14848178 5 18410853248515708907
15183329 4 14129064677126338013
15510800 12 18130518461548521199
17349148 13 17846218813337133744
17492 89 18339642231571585082
17857418 61 18409729538809825515
19377110 9 17060620001247783240
19958102 18 17458620125391550571
20028762 73 18342736265677080662
20691028 202 8213880171426438743
21033650 10 16588583085497424381
21623969 137 17774730856632589471
22393880 68 17968649424494580747
23379529 103 17899423271031674635
23424784 1240 18201455678680481671
23559900 14 18412819210146387817
25122255 55 18409172078020209467
25222932 49 18341893022004659110
2838139 119 8646501691264958067
312425 54 18272095980870986025
4073 2 18336269036855071729
439807 62 18336830883682645987
463206 1 18114188514388327891
465052 167 18272934895516124348
50009960 94 18190157054391729274
5104073 3 18060140907659365825
5718773 13 18335697192298966162
6431902 208 18340768264728214351
7808743 9 9799399010757694463
7970288 3 17977946779204039226
8863177 126 18410576163064075054
90127 26 10375877402565980501

> <PUBCHEM_SHAPE_MULTIPOLES>
520.19
16.63
3.46
1.46
9.56
2.86
-0.48
12.46
1.48
-0.31
0.52
-0.16
0.26
0.01

> <PUBCHEM_SHAPE_SELFOVERLAP>
1049.345

> <PUBCHEM_SHAPE_VOLUME>
306.2

> <PUBCHEM_COORDINATE_TYPE>
2
5
10

$$$$
