40533465
  -OEChem-12032416113D

 51 55  0     1  0  0  0  0  0999 V2000
   -1.6276   -0.1258    1.9824 O   0  0  0  0  0  0  0  0  0  0  0  0
    2.4902   -0.1407   -2.1104 O   0  0  0  0  0  0  0  0  0  0  0  0
    2.4853   -1.7179   -0.4172 N   0  0  0  0  0  0  0  0  0  0  0  0
   -0.5000   -1.7302    0.7203 N   0  0  0  0  0  0  0  0  0  0  0  0
    3.2851    0.4652   -0.0173 N   0  0  0  0  0  0  0  0  0  0  0  0
   -5.8576    1.0755   -0.1367 N   0  0  0  0  0  0  0  0  0  0  0  0
    1.5854   -2.9400    1.5776 C   0  0  1  0  0  0  0  0  0  0  0  0
    0.7142   -3.4508   -0.6616 C   0  0  2  0  0  0  0  0  0  0  0  0
    1.1398   -4.0747    0.6649 C   0  0  0  0  0  0  0  0  0  0  0  0
    2.7627   -2.1596    0.9591 C   0  0  0  0  0  0  0  0  0  0  0  0
    0.3812   -2.0319    1.8563 C   0  0  0  0  0  0  0  0  0  0  0  0
    1.9254   -2.7487   -1.3002 C   0  0  0  0  0  0  0  0  0  0  0  0
   -0.4148   -2.4559   -0.4699 C   0  0  0  0  0  0  0  0  0  0  0  0
   -1.3079   -2.2479   -1.4505 C   0  0  0  0  0  0  0  0  0  0  0  0
   -1.4974   -0.7586    0.9331 C   0  0  0  0  0  0  0  0  0  0  0  0
    2.7322   -0.4270   -0.9352 C   0  0  0  0  0  0  0  0  0  0  0  0
   -2.4586   -0.5186   -0.1998 C   0  0  0  0  0  0  0  0  0  0  0  0
   -2.3397   -1.2599   -1.3115 C   0  0  0  0  0  0  0  0  0  0  0  0
   -3.5066    0.5124   -0.1057 C   0  0  0  0  0  0  0  0  0  0  0  0
    3.1187    1.8717    0.0167 C   0  0  0  0  0  0  0  0  0  0  0  0
   -3.1814    1.8496    0.0939 C   0  0  0  0  0  0  0  0  0  0  0  0
   -4.8474    0.1803   -0.2135 C   0  0  0  0  0  0  0  0  0  0  0  0
    3.8146    2.6331    0.9558 C   0  0  0  0  0  0  0  0  0  0  0  0
    2.2596    2.4952   -0.8880 C   0  0  0  0  0  0  0  0  0  0  0  0
   -4.1927    2.8001    0.1784 C   0  0  0  0  0  0  0  0  0  0  0  0
   -5.5029    2.3656    0.0577 C   0  0  0  0  0  0  0  0  0  0  0  0
    3.6514    4.0180    0.9900 C   0  0  0  0  0  0  0  0  0  0  0  0
    2.0965    3.8802   -0.8540 C   0  0  0  0  0  0  0  0  0  0  0  0
    2.7924    4.6415    0.0852 C   0  0  0  0  0  0  0  0  0  0  0  0
    1.9300   -3.3529    2.5339 H   0  0  0  0  0  0  0  0  0  0  0  0
    0.3878   -4.2578   -1.3304 H   0  0  0  0  0  0  0  0  0  0  0  0
    0.3101   -4.6323    1.1170 H   0  0  0  0  0  0  0  0  0  0  0  0
    1.9596   -4.7868    0.5105 H   0  0  0  0  0  0  0  0  0  0  0  0
    3.0123   -1.3268    1.6187 H   0  0  0  0  0  0  0  0  0  0  0  0
    3.6466   -2.8064    0.9038 H   0  0  0  0  0  0  0  0  0  0  0  0
   -0.2589   -2.5163    2.6065 H   0  0  0  0  0  0  0  0  0  0  0  0
    0.7096   -1.0864    2.3060 H   0  0  0  0  0  0  0  0  0  0  0  0
    2.7266   -3.4745   -1.4870 H   0  0  0  0  0  0  0  0  0  0  0  0
    1.6513   -2.3237   -2.2718 H   0  0  0  0  0  0  0  0  0  0  0  0
   -1.2574   -2.7896   -2.3892 H   0  0  0  0  0  0  0  0  0  0  0  0
   -3.0003   -1.1258   -2.1632 H   0  0  0  0  0  0  0  0  0  0  0  0
    3.8874    0.0909    0.7086 H   0  0  0  0  0  0  0  0  0  0  0  0
   -2.1456    2.1682    0.1809 H   0  0  0  0  0  0  0  0  0  0  0  0
   -5.1715   -0.8454   -0.3646 H   0  0  0  0  0  0  0  0  0  0  0  0
    4.4870    2.1597    1.6667 H   0  0  0  0  0  0  0  0  0  0  0  0
    1.6706    1.9513   -1.6171 H   0  0  0  0  0  0  0  0  0  0  0  0
   -3.9627    3.8480    0.3326 H   0  0  0  0  0  0  0  0  0  0  0  0
   -6.3283    3.0674    0.1161 H   0  0  0  0  0  0  0  0  0  0  0  0
    4.1928    4.6107    1.7215 H   0  0  0  0  0  0  0  0  0  0  0  0
    1.4220    4.3657   -1.5533 H   0  0  0  0  0  0  0  0  0  0  0  0
    2.6639    5.7196    0.1130 H   0  0  0  0  0  0  0  0  0  0  0  0
  1 15  2  0  0  0  0
  2 16  2  0  0  0  0
  3 10  1  0  0  0  0
  3 12  1  0  0  0  0
  3 16  1  0  0  0  0
  4 11  1  0  0  0  0
  4 13  1  0  0  0  0
  4 15  1  0  0  0  0
  5 16  1  0  0  0  0
  5 20  1  0  0  0  0
  5 42  1  0  0  0  0
  6 22  1  0  0  0  0
  6 26  2  0  0  0  0
  7  9  1  0  0  0  0
  7 10  1  0  0  0  0
  7 11  1  0  0  0  0
  7 30  1  0  0  0  0
  8  9  1  0  0  0  0
  8 12  1  0  0  0  0
  8 13  1  0  0  0  0
  8 31  1  0  0  0  0
  9 32  1  0  0  0  0
  9 33  1  0  0  0  0
 10 34  1  0  0  0  0
 10 35  1  0  0  0  0
 11 36  1  0  0  0  0
 11 37  1  0  0  0  0
 12 38  1  0  0  0  0
 12 39  1  0  0  0  0
 13 14  2  0  0  0  0
 14 18  1  0  0  0  0
 14 40  1  0  0  0  0
 15 17  1  0  0  0  0
 17 18  2  0  0  0  0
 17 19  1  0  0  0  0
 18 41  1  0  0  0  0
 19 21  1  0  0  0  0
 19 22  2  0  0  0  0
 20 23  2  0  0  0  0
 20 24  1  0  0  0  0
 21 25  2  0  0  0  0
 21 43  1  0  0  0  0
 22 44  1  0  0  0  0
 23 27  1  0  0  0  0
 23 45  1  0  0  0  0
 24 28  2  0  0  0  0
 24 46  1  0  0  0  0
 25 26  1  0  0  0  0
 25 47  1  0  0  0  0
 26 48  1  0  0  0  0
 27 29  2  0  0  0  0
 27 49  1  0  0  0  0
 28 29  1  0  0  0  0
 28 50  1  0  0  0  0
 29 51  1  0  0  0  0
M  END
> <PUBCHEM_COMPOUND_CID>
40533465

> <PUBCHEM_CONFORMER_RMSD>
0.8

> <PUBCHEM_CONFORMER_DIVERSEORDER>
1
24
29
35
3
31
32
17
34
20
13
18
27
30
36
26
21
15
33
16
12
28
19
2
14
25
22
5
8
4
11
10
23
7
6
37
9

> <PUBCHEM_MMFF94_PARTIAL_CHARGES>
39
1 -0.57
10 0.3
11 0.3
12 0.3
13 -0.03
14 -0.15
15 0.62
16 0.69
17 -0.01
18 -0.15
19 0.03
2 -0.57
20 0.12
21 -0.15
22 0.16
23 -0.15
24 -0.15
25 -0.15
26 0.16
27 -0.15
28 -0.15
29 -0.15
3 -0.66
4 -0.47
40 0.15
41 0.15
42 0.37
43 0.15
44 0.15
45 0.15
46 0.15
47 0.15
48 0.15
49 0.15
5 -0.55
50 0.15
51 0.15
6 -0.62
8 0.14

> <PUBCHEM_EFFECTIVE_ROTOR_COUNT>
5

> <PUBCHEM_PHARMACOPHORE_FEATURES>
9
1 1 acceptor
1 2 acceptor
1 5 donor
1 6 acceptor
6 20 23 24 27 28 29 rings
6 3 7 8 9 10 12 rings
6 4 13 14 15 17 18 rings
6 4 7 8 9 11 13 rings
6 6 19 21 22 25 26 rings

> <PUBCHEM_HEAVY_ATOM_COUNT>
29

> <PUBCHEM_ATOM_DEF_STEREO_COUNT>
2

> <PUBCHEM_ATOM_UDEF_STEREO_COUNT>
0

> <PUBCHEM_BOND_DEF_STEREO_COUNT>
0

> <PUBCHEM_BOND_UDEF_STEREO_COUNT>
0

> <PUBCHEM_ISOTOPIC_ATOM_COUNT>
0

> <PUBCHEM_COMPONENT_COUNT>
1

> <PUBCHEM_CACTVS_TAUTO_COUNT>
6

> <PUBCHEM_CONFORMER_ID>
026A7DD900000001

> <PUBCHEM_MMFF94_ENERGY>
88.6182

> <PUBCHEM_FEATURE_SELFOVERLAP>
47.241

> <PUBCHEM_SHAPE_FINGERPRINT>
10439779 11 18339072692890470808
10673678 19 18272938202883866649
10675989 125 18342461430514250641
10937287 8 18338795748708436133
11370993 70 18267865162800693672
12107183 9 18191848215381923624
12156800 1 14293073638632863006
12633257 1 15936691557308213963
12925494 130 18193558870770549873
13583140 156 18116730534138359203
13761468 95 17258537806918853404
13965767 371 18114449150251854636
14028597 1 17027689431113913714
14251764 38 18123466352644040492
14468879 13 18263933309367109481
14955137 171 18192147101591841626
15082195 135 18197198284343553413
15475509 84 17396410620627085522
16067690 210 16609659997436795624
17980427 23 18125409013444135682
18681886 176 18126280848655220315
19930381 70 18411138039439534029
20567600 299 18267584593993458805
21344244 78 17539111870909355283
21591340 35 18341620304007900752
21860390 5 18266463100648858335
23559900 14 17981609265347436887
238 59 18340503200193313738
3298306 158 18410577331306099473
376196 1 18058164115102646668
463206 1 17113254439003838324
469060 322 16610277944831037306
474 4 18409164407123988771
508180 173 18198081217454432732
508706 21 17764883772365798748
5776283 40 18267325260306447836
5895379 119 17556302752563113721
5939293 188 18266739078273216686
6036956 94 16966039195490036749
7288768 16 18042681899976382424
9849439 229 18191309479610169469
9981440 41 18122338249065203360

> <PUBCHEM_SHAPE_MULTIPOLES>
565.14
9.09
6.4
1.52
11.31
2.66
-0.09
11
-0.13
-6.17
-0.5
-0.68
-0.87
-0.22

> <PUBCHEM_SHAPE_SELFOVERLAP>
1247.327

> <PUBCHEM_SHAPE_VOLUME>
294.4

> <PUBCHEM_COORDINATE_TYPE>
2
5
10

$$$$
