75536949
  -OEChem-12032416303D

 36 37  0     1  0  0  0  0  0999 V2000
   -4.5909    1.2681   -1.4902 F   0  0  0  0  0  0  0  0  0  0  0  0
   -5.6345    1.0745    0.4200 F   0  0  0  0  0  0  0  0  0  0  0  0
   -3.5379    1.6903    0.4065 F   0  0  0  0  0  0  0  0  0  0  0  0
    3.8290    2.0369    0.8127 O   0  0  0  0  0  0  0  0  0  0  0  0
    5.6902   -0.1459   -1.3616 O   0  0  0  0  0  0  0  0  0  0  0  0
   -4.0769   -0.4740   -0.0999 O   0  0  0  0  0  0  0  0  0  0  0  0
    2.2682   -0.5574    0.0649 N   0  0  2  0  0  0  0  0  0  0  0  0
    3.5687   -0.8965   -0.5232 C   0  0  0  0  0  0  0  0  0  0  0  0
    4.7198    0.1061   -0.3443 C   0  0  2  0  0  0  0  0  0  0  0  0
    2.3495    0.1327    1.3531 C   0  0  0  0  0  0  0  0  0  0  0  0
    1.4274   -1.7522    0.1492 C   0  0  0  0  0  0  0  0  0  0  0  0
    4.3018    1.5669   -0.4452 C   0  0  0  0  0  0  0  0  0  0  0  0
    2.5029    1.6377    1.1298 C   0  0  0  0  0  0  0  0  0  0  0  0
   -0.0378   -1.4125    0.0830 C   0  0  0  0  0  0  0  0  0  0  0  0
   -0.8860   -1.7742    1.1296 C   0  0  0  0  0  0  0  0  0  0  0  0
   -0.5470   -0.7355   -1.0251 C   0  0  0  0  0  0  0  0  0  0  0  0
   -2.2434   -1.4592    1.0681 C   0  0  0  0  0  0  0  0  0  0  0  0
   -1.9043   -0.4204   -1.0868 C   0  0  0  0  0  0  0  0  0  0  0  0
   -2.7526   -0.7822   -0.0403 C   0  0  0  0  0  0  0  0  0  0  0  0
   -4.4461    0.8969   -0.2003 C   0  0  0  0  0  0  0  0  0  0  0  0
    3.4163   -1.0676   -1.5976 H   0  0  0  0  0  0  0  0  0  0  0  0
    3.9273   -1.8574   -0.1261 H   0  0  0  0  0  0  0  0  0  0  0  0
    5.2048   -0.0645    0.6248 H   0  0  0  0  0  0  0  0  0  0  0  0
    3.1553   -0.2706    1.9783 H   0  0  0  0  0  0  0  0  0  0  0  0
    1.4178    0.0035    1.9170 H   0  0  0  0  0  0  0  0  0  0  0  0
    1.6677   -2.3433    1.0432 H   0  0  0  0  0  0  0  0  0  0  0  0
    1.6151   -2.4191   -0.7047 H   0  0  0  0  0  0  0  0  0  0  0  0
    5.1743    2.1798   -0.6993 H   0  0  0  0  0  0  0  0  0  0  0  0
    3.5641    1.7412   -1.2381 H   0  0  0  0  0  0  0  0  0  0  0  0
    2.2462    2.1511    2.0634 H   0  0  0  0  0  0  0  0  0  0  0  0
    1.8066    2.0129    0.3692 H   0  0  0  0  0  0  0  0  0  0  0  0
    5.9790   -1.0698   -1.2678 H   0  0  0  0  0  0  0  0  0  0  0  0
   -0.5030   -2.3009    1.9996 H   0  0  0  0  0  0  0  0  0  0  0  0
    0.1002   -0.4529   -1.8513 H   0  0  0  0  0  0  0  0  0  0  0  0
   -2.8993   -1.7428    1.8866 H   0  0  0  0  0  0  0  0  0  0  0  0
   -2.2891    0.1002   -1.9594 H   0  0  0  0  0  0  0  0  0  0  0  0
  1 20  1  0  0  0  0
  2 20  1  0  0  0  0
  3 20  1  0  0  0  0
  4 12  1  0  0  0  0
  4 13  1  0  0  0  0
  5  9  1  0  0  0  0
  5 32  1  0  0  0  0
  6 19  1  0  0  0  0
  6 20  1  0  0  0  0
  7  8  1  0  0  0  0
  7 10  1  0  0  0  0
  7 11  1  0  0  0  0
  8  9  1  0  0  0  0
  8 21  1  0  0  0  0
  8 22  1  0  0  0  0
  9 12  1  0  0  0  0
  9 23  1  0  0  0  0
 10 13  1  0  0  0  0
 10 24  1  0  0  0  0
 10 25  1  0  0  0  0
 11 14  1  0  0  0  0
 11 26  1  0  0  0  0
 11 27  1  0  0  0  0
 12 28  1  0  0  0  0
 12 29  1  0  0  0  0
 13 30  1  0  0  0  0
 13 31  1  0  0  0  0
 14 15  2  0  0  0  0
 14 16  1  0  0  0  0
 15 17  1  0  0  0  0
 15 33  1  0  0  0  0
 16 18  2  0  0  0  0
 16 34  1  0  0  0  0
 17 19  2  0  0  0  0
 17 35  1  0  0  0  0
 18 19  1  0  0  0  0
 18 36  1  0  0  0  0
M  END
> <PUBCHEM_COMPOUND_CID>
75536949

> <PUBCHEM_CONFORMER_RMSD>
0.8

> <PUBCHEM_CONFORMER_DIVERSEORDER>
1
12
24
51
48
11
5
46
37
23
25
3
16
22
26
45
17
50
52
43
30
21
31
10
14
6
44
39
32
18
53
19
28
8
4
7
40
42
34
33
9
47
2
49
15
36
27
38
29
41
35
13
20

> <PUBCHEM_MMFF94_PARTIAL_CHARGES>
25
1 -0.34
10 0.27
11 0.41
12 0.28
13 0.28
14 -0.14
15 -0.15
16 -0.15
17 -0.15
18 -0.15
19 0.08
2 -0.34
20 1.3
3 -0.34
32 0.4
33 0.15
34 0.15
35 0.15
36 0.15
4 -0.56
5 -0.68
6 -0.36
7 -0.81
8 0.27
9 0.28

> <PUBCHEM_EFFECTIVE_ROTOR_COUNT>
5.4

> <PUBCHEM_PHARMACOPHORE_FEATURES>
7
1 4 acceptor
1 5 acceptor
1 5 donor
1 6 acceptor
1 7 cation
6 14 15 16 17 18 19 rings
7 4 7 8 9 10 12 13 rings

> <PUBCHEM_HEAVY_ATOM_COUNT>
20

> <PUBCHEM_ATOM_DEF_STEREO_COUNT>
1

> <PUBCHEM_ATOM_UDEF_STEREO_COUNT>
0

> <PUBCHEM_BOND_DEF_STEREO_COUNT>
0

> <PUBCHEM_BOND_UDEF_STEREO_COUNT>
0

> <PUBCHEM_ISOTOPIC_ATOM_COUNT>
0

> <PUBCHEM_COMPONENT_COUNT>
1

> <PUBCHEM_CACTVS_TAUTO_COUNT>
1

> <PUBCHEM_CONFORMER_ID>
04809A3500000001

> <PUBCHEM_MMFF94_ENERGY>
61.3283

> <PUBCHEM_FEATURE_SELFOVERLAP>
35.522

> <PUBCHEM_SHAPE_FINGERPRINT>
10498660 4 18409442600661451729
106641 1 16588320405529202529
11089746 13 18341604928330195350
11595378 159 16226038955780267797
11796584 16 12031789145598776197
12363563 72 11599726220067927598
12596602 18 15213023743203597541
12633257 1 16950834920745272056
12730499 353 18411707586046140083
12892183 10 13334724717943165342
13911882 115 7853575729799491072
1420 369 9151174272364603789
14251751 18 10592046851336554632
14251764 30 13408731660994549216
14252887 29 13045935777374006138
14341114 328 15213020474843852140
14848178 96 18408598141471749585
15209294 21 17967249797621519375
15210252 30 18336267924828423880
15238133 3 18336536123949478984
15375462 189 13984661481671380286
16752209 62 14548744984204628143
17834072 8 18131639976182334580
1813 80 12031785902951540179
18186145 218 18411125944310072191
192875 21 15195571216705249634
19784866 170 17748829600702685335
19862831 5 16630244787695688666
200 152 13902190378504635574
20645477 56 18335426763988586139
21033648 29 18339923830680081856
212847 35 18335136467117082746
21503847 285 17894915169951322236
21864079 5 18267573788076970112
221357 26 18060137617677577593
22224240 67 11819286593944905006
22289505 5 18273217469983331308
231179 274 18343865545717059418
23402655 69 18131633413335110572
23557571 272 18188786065922234027
23559900 14 18408887309167670410
2637199 183 18408323280981811490
2838139 119 18272080566085887717
3009799 131 18202569489044910070
4028521 119 18413386544706867497
474 4 18334573551396675725
5104073 3 17894910737091412194
633830 44 18339353162797270222
76465 3 10807944751459313324
7808743 9 17895478145479089084

> <PUBCHEM_SHAPE_MULTIPOLES>
367.18
11.55
1.99
1.25
1.17
0.36
-0.01
6.17
2.46
0.08
-0.43
-0.25
0.05
0.93

> <PUBCHEM_SHAPE_SELFOVERLAP>
763.093

> <PUBCHEM_SHAPE_VOLUME>
208.8

> <PUBCHEM_COORDINATE_TYPE>
2
5
10

$$$$
