45361336
  -OEChem-12032416363D

 70 72  0     1  0  0  0  0  0999 V2000
    3.3638    1.9511    1.3003 S   0  0  0  0  0  0  0  0  0  0  0  0
   -2.0520   -1.7838   -0.3961 O   0  0  0  0  0  0  0  0  0  0  0  0
   -6.0243    1.6209   -0.9036 O   0  0  0  0  0  0  0  0  0  0  0  0
    5.8434   -1.6789   -0.3144 O   0  0  0  0  0  0  0  0  0  0  0  0
    3.1786   -0.3195    0.0774 N   0  0  0  0  0  0  0  0  0  0  0  0
   -6.4011   -0.1532    0.5332 N   0  0  0  0  0  0  0  0  0  0  0  0
    5.3891    0.3871    0.7282 N   0  0  0  0  0  0  0  0  0  0  0  0
    8.5236   -1.0388   -0.4145 N   0  0  0  0  0  0  0  0  0  0  0  0
   -0.5563    1.7100    0.0791 C   0  0  1  0  0  0  0  0  0  0  0  0
   -0.6435    0.1335    0.1212 C   0  0  1  0  0  0  0  0  0  0  0  0
   -1.9004   -0.3848   -0.6334 C   0  0  2  0  0  0  0  0  0  0  0  0
   -3.2027    0.3020   -0.1674 C   0  0  1  0  0  0  0  0  0  0  0  0
   -1.8869    2.3189    0.5803 C   0  0  0  0  0  0  0  0  0  0  0  0
    0.7042   -0.5469   -0.3567 C   0  0  1  0  0  0  0  0  0  0  0  0
   -3.1007    1.8270   -0.1962 C   0  0  0  0  0  0  0  0  0  0  0  0
    0.5728    2.2023    1.0376 C   0  0  0  0  0  0  0  0  0  0  0  0
   -0.2675    2.2389   -1.3501 C   0  0  0  0  0  0  0  0  0  0  0  0
   -4.4121   -0.1469   -0.9966 C   0  0  2  0  0  0  0  0  0  0  0  0
    1.8977    0.1882    0.2047 C   0  0  0  0  0  0  0  0  0  0  0  0
    1.8197    1.4218    0.8172 C   0  0  0  0  0  0  0  0  0  0  0  0
    0.7914   -2.0376    0.0027 C   0  0  0  0  0  0  0  0  0  0  0  0
   -4.1827    0.2092   -2.4664 C   0  0  0  0  0  0  0  0  0  0  0  0
   -5.6827    0.5182   -0.4618 C   0  0  0  0  0  0  0  0  0  0  0  0
    4.0295    0.5182    0.6288 C   0  0  0  0  0  0  0  0  0  0  0  0
   -6.0867   -1.4704    1.0832 C   0  0  0  0  0  0  0  0  0  0  0  0
   -7.6049    0.4634    1.0801 C   0  0  0  0  0  0  0  0  0  0  0  0
    6.2230   -0.6692    0.2699 C   0  0  0  0  0  0  0  0  0  0  0  0
   -6.7859   -2.5146    0.2781 C   0  0  0  0  0  0  0  0  0  0  0  0
    7.6840   -0.4127    0.5966 C   0  0  0  0  0  0  0  0  0  0  0  0
   -7.6612   -3.3880    0.7890 C   0  0  0  0  0  0  0  0  0  0  0  0
    8.5449   -0.2359   -1.6394 C   0  0  0  0  0  0  0  0  0  0  0  0
    9.8858   -1.2293    0.0891 C   0  0  0  0  0  0  0  0  0  0  0  0
   -0.7691   -0.1500    1.1788 H   0  0  0  0  0  0  0  0  0  0  0  0
   -1.7226   -0.2561   -1.7027 H   0  0  0  0  0  0  0  0  0  0  0  0
   -3.3832    0.0060    0.8758 H   0  0  0  0  0  0  0  0  0  0  0  0
   -2.0296    2.0687    1.6404 H   0  0  0  0  0  0  0  0  0  0  0  0
   -1.8457    3.4145    0.5285 H   0  0  0  0  0  0  0  0  0  0  0  0
    0.7659   -0.4656   -1.4501 H   0  0  0  0  0  0  0  0  0  0  0  0
   -3.0442    2.2349   -1.2071 H   0  0  0  0  0  0  0  0  0  0  0  0
   -3.9750    2.2857    0.2778 H   0  0  0  0  0  0  0  0  0  0  0  0
    0.2655    2.0637    2.0825 H   0  0  0  0  0  0  0  0  0  0  0  0
    0.7510    3.2752    0.8935 H   0  0  0  0  0  0  0  0  0  0  0  0
   -0.9998    1.8850   -2.0812 H   0  0  0  0  0  0  0  0  0  0  0  0
    0.7182    1.9381   -1.7177 H   0  0  0  0  0  0  0  0  0  0  0  0
   -0.2923    3.3348   -1.3684 H   0  0  0  0  0  0  0  0  0  0  0  0
   -4.5210   -1.2336   -0.9616 H   0  0  0  0  0  0  0  0  0  0  0  0
    0.1072   -2.6403   -0.5987 H   0  0  0  0  0  0  0  0  0  0  0  0
    1.7917   -2.4417   -0.1908 H   0  0  0  0  0  0  0  0  0  0  0  0
    0.5701   -2.2048    1.0624 H   0  0  0  0  0  0  0  0  0  0  0  0
   -2.1712   -1.9159    0.5599 H   0  0  0  0  0  0  0  0  0  0  0  0
   -3.3612   -0.3515   -2.9185 H   0  0  0  0  0  0  0  0  0  0  0  0
   -4.0386    1.2733   -2.6636 H   0  0  0  0  0  0  0  0  0  0  0  0
   -5.0775   -0.0701   -3.0386 H   0  0  0  0  0  0  0  0  0  0  0  0
    5.8431    1.1638    1.2027 H   0  0  0  0  0  0  0  0  0  0  0  0
   -6.3799   -1.4937    2.1393 H   0  0  0  0  0  0  0  0  0  0  0  0
   -5.0100   -1.6526    1.0547 H   0  0  0  0  0  0  0  0  0  0  0  0
   -7.4799    0.5862    2.1601 H   0  0  0  0  0  0  0  0  0  0  0  0
   -7.7991    1.4444    0.6393 H   0  0  0  0  0  0  0  0  0  0  0  0
   -8.4636   -0.1842    0.8813 H   0  0  0  0  0  0  0  0  0  0  0  0
   -6.5584   -2.5773   -0.7830 H   0  0  0  0  0  0  0  0  0  0  0  0
    7.8928    0.6589    0.6995 H   0  0  0  0  0  0  0  0  0  0  0  0
    7.8447   -0.8744    1.5796 H   0  0  0  0  0  0  0  0  0  0  0  0
   -8.1321   -4.1296    0.1530 H   0  0  0  0  0  0  0  0  0  0  0  0
   -7.9228   -3.3791    1.8413 H   0  0  0  0  0  0  0  0  0  0  0  0
    7.5397   -0.1237   -2.0600 H   0  0  0  0  0  0  0  0  0  0  0  0
    9.1469   -0.7320   -2.4093 H   0  0  0  0  0  0  0  0  0  0  0  0
    8.9616    0.7642   -1.4722 H   0  0  0  0  0  0  0  0  0  0  0  0
   10.5089   -1.7248   -0.6638 H   0  0  0  0  0  0  0  0  0  0  0  0
   10.3613   -0.2800    0.3617 H   0  0  0  0  0  0  0  0  0  0  0  0
    9.8834   -1.8808    0.9701 H   0  0  0  0  0  0  0  0  0  0  0  0
  1 20  1  0  0  0  0
  1 24  1  0  0  0  0
  2 11  1  0  0  0  0
  2 50  1  0  0  0  0
  3 23  2  0  0  0  0
  4 27  2  0  0  0  0
  5 19  1  0  0  0  0
  5 24  2  0  0  0  0
  6 23  1  0  0  0  0
  6 25  1  0  0  0  0
  6 26  1  0  0  0  0
  7 24  1  0  0  0  0
  7 27  1  0  0  0  0
  7 54  1  0  0  0  0
  8 29  1  0  0  0  0
  8 31  1  0  0  0  0
  8 32  1  0  0  0  0
  9 10  1  0  0  0  0
  9 13  1  0  0  0  0
  9 16  1  0  0  0  0
  9 17  1  0  0  0  0
 10 11  1  0  0  0  0
 10 14  1  0  0  0  0
 10 33  1  0  0  0  0
 11 12  1  0  0  0  0
 11 34  1  0  0  0  0
 12 15  1  0  0  0  0
 12 18  1  0  0  0  0
 12 35  1  0  0  0  0
 13 15  1  0  0  0  0
 13 36  1  0  0  0  0
 13 37  1  0  0  0  0
 14 19  1  0  0  0  0
 14 21  1  0  0  0  0
 14 38  1  0  0  0  0
 15 39  1  0  0  0  0
 15 40  1  0  0  0  0
 16 20  1  0  0  0  0
 16 41  1  0  0  0  0
 16 42  1  0  0  0  0
 17 43  1  0  0  0  0
 17 44  1  0  0  0  0
 17 45  1  0  0  0  0
 18 22  1  0  0  0  0
 18 23  1  0  0  0  0
 18 46  1  0  0  0  0
 19 20  2  0  0  0  0
 21 47  1  0  0  0  0
 21 48  1  0  0  0  0
 21 49  1  0  0  0  0
 22 51  1  0  0  0  0
 22 52  1  0  0  0  0
 22 53  1  0  0  0  0
 25 28  1  0  0  0  0
 25 55  1  0  0  0  0
 25 56  1  0  0  0  0
 26 57  1  0  0  0  0
 26 58  1  0  0  0  0
 26 59  1  0  0  0  0
 27 29  1  0  0  0  0
 28 30  2  0  0  0  0
 28 60  1  0  0  0  0
 29 61  1  0  0  0  0
 29 62  1  0  0  0  0
 30 63  1  0  0  0  0
 30 64  1  0  0  0  0
 31 65  1  0  0  0  0
 31 66  1  0  0  0  0
 31 67  1  0  0  0  0
 32 68  1  0  0  0  0
 32 69  1  0  0  0  0
 32 70  1  0  0  0  0
M  END
> <PUBCHEM_COMPOUND_CID>
45361336

> <PUBCHEM_CONFORMER_RMSD>
1

> <PUBCHEM_CONFORMER_DIVERSEORDER>
1
86
30
67
84
83
40
77
25
74
43
54
14
57
82
70
69
44
52
81
89
29
16
88
50
18
46
68
79
34
80
48
9
32
33
65
58
85
76
66
21
26
61
63
23
87
31
37
62
75
51
55
19
39
56
38
45
73
5
60
24
41
47
10
7
36
49
78
28
13
59
8
20
3
42
71
22
53
35
72
17
27
11
4
64
2
12
6
15

> <PUBCHEM_MMFF94_PARTIAL_CHARGES>
29
1 -0.08
11 0.28
14 0.18
16 0.18
18 0.06
19 0.05
2 -0.68
20 -0.14
23 0.57
24 0.44
25 0.44
26 0.3
27 0.57
28 -0.29
29 0.33
3 -0.57
30 -0.3
31 0.27
32 0.27
4 -0.57
5 -0.57
50 0.4
54 0.37
6 -0.66
60 0.15
63 0.15
64 0.15
7 -0.49
8 -0.81

> <PUBCHEM_EFFECTIVE_ROTOR_COUNT>
10.2

> <PUBCHEM_PHARMACOPHORE_FEATURES>
11
1 2 acceptor
1 2 donor
1 22 hydrophobe
1 3 acceptor
1 30 hydrophobe
1 4 acceptor
1 7 donor
1 8 cation
5 1 5 19 20 24 rings
6 9 10 11 12 13 15 rings
6 9 10 14 16 19 20 rings

> <PUBCHEM_HEAVY_ATOM_COUNT>
32

> <PUBCHEM_ATOM_DEF_STEREO_COUNT>
5

> <PUBCHEM_ATOM_UDEF_STEREO_COUNT>
1

> <PUBCHEM_BOND_DEF_STEREO_COUNT>
0

> <PUBCHEM_BOND_UDEF_STEREO_COUNT>
0

> <PUBCHEM_ISOTOPIC_ATOM_COUNT>
0

> <PUBCHEM_COMPONENT_COUNT>
1

> <PUBCHEM_CACTVS_TAUTO_COUNT>
3

> <PUBCHEM_CONFORMER_ID>
02B428B800000001

> <PUBCHEM_MMFF94_ENERGY>
90.9452

> <PUBCHEM_FEATURE_SELFOVERLAP>
55.901

> <PUBCHEM_SHAPE_FINGERPRINT>
10076449 9 18408609175437580698
10533779 1 14475862701830087723
11135926 11 18342729698407860815
11456790 92 16917071074698245234
11963148 33 18261383451524251011
12166972 35 17894631482533840845
13673619 4 18272929410912180328
13782708 43 18334285453274433250
14856354 85 16732986440372574091
14955137 171 18337109068440140113
15131766 46 13971391536566526138
15183329 4 18272363149506733762
1577012 14 13912592823760787869
18608769 82 18409167731492232779
20105231 36 18413111658426929162
21130935 74 17131257082471660934
21150785 3 17022905640588144492
21267235 1 18341895195031276824
21781051 124 18339933709448149822
21792961 116 18335977580310963933
23559900 14 18271232946164357064
2747138 104 18343017800708863880
3004659 81 18410568475848185832
3178227 256 18343866623416201922
335352 9 18343576335050711276
3383291 50 18412821413042714914
350125 39 18341325600710850344
4107672 100 17822284652787423141
4169191 19 11386364820435177190
444769 64 18060697303835603775
484989 97 18410294747984622936
5104073 3 18270952561971780689
54039377 194 18410015454767064694
59755656 215 18271522010253100246
636775 8 18408327691976852598
6691757 9 15267340743672208439
9896288 288 17845382046397404137
999808 66 18412265034362206683

> <PUBCHEM_SHAPE_MULTIPOLES>
624.86
26.04
2.67
1.32
34.22
0.6
0.53
18.01
-0.6
-3.56
-0.55
-0.65
-0.3
1.97

> <PUBCHEM_SHAPE_SELFOVERLAP>
1277.234

> <PUBCHEM_SHAPE_VOLUME>
366.9

> <PUBCHEM_COORDINATE_TYPE>
2
5
10

$$$$
