11866251
  -OEChem-12032416153D

 64 68  0     1  0  0  0  0  0999 V2000
   -1.4272   -2.6912    0.9464 S   0  0  0  0  0  0  0  0  0  0  0  0
   -4.1207   -0.6509   -1.5662 S   0  0  0  0  0  0  0  0  0  0  0  0
    3.8778    1.2312   -1.0972 O   0  0  0  0  0  0  0  0  0  0  0  0
    5.5959    2.7050   -1.5041 O   0  0  0  0  0  0  0  0  0  0  0  0
   -5.5595   -0.8302   -1.5977 O   0  0  0  0  0  0  0  0  0  0  0  0
   -3.4071   -0.2194   -2.7534 O   0  0  0  0  0  0  0  0  0  0  0  0
   -5.2811   -0.5529    1.2124 O   0  0  0  0  0  0  0  0  0  0  0  0
   -1.6381    3.4523    0.1714 O   0  0  0  0  0  0  0  0  0  0  0  0
   -1.1321   -1.1972   -1.1442 N   0  0  0  0  0  0  0  0  0  0  0  0
   -3.3830   -2.0702   -0.9235 N   0  0  0  0  0  0  0  0  0  0  0  0
    2.4493   -0.5112    0.0324 C   0  0  1  0  0  0  0  0  0  0  0  0
    2.6084   -1.9176    0.7576 C   0  0  1  0  0  0  0  0  0  0  0  0
    3.8138   -0.0782   -0.5312 C   0  0  2  0  0  0  0  0  0  0  0  0
    4.8372    0.0156    0.5840 C   0  0  1  0  0  0  0  0  0  0  0  0
    3.7785   -1.8763    1.7881 C   0  0  0  0  0  0  0  0  0  0  0  0
    5.0969   -1.3371    1.2154 C   0  0  0  0  0  0  0  0  0  0  0  0
    1.2884   -0.5032   -1.0262 C   0  0  1  0  0  0  0  0  0  0  0  0
    1.2922   -2.2454    1.5283 C   0  0  0  0  0  0  0  0  0  0  0  0
    5.9754    0.7100   -0.1394 C   0  0  1  0  0  0  0  0  0  0  0  0
    2.8954   -3.0659   -0.2466 C   0  0  0  0  0  0  0  0  0  0  0  0
    0.0825   -1.2300   -0.4830 C   0  0  0  0  0  0  0  0  0  0  0  0
    0.1068   -2.0118    0.6553 C   0  0  0  0  0  0  0  0  0  0  0  0
    5.1753    1.6822   -0.9865 C   0  0  0  0  0  0  0  0  0  0  0  0
    0.9021    0.9166   -1.4620 C   0  0  0  0  0  0  0  0  0  0  0  0
    6.9428    1.4093    0.7964 C   0  0  0  0  0  0  0  0  0  0  0  0
   -2.0029   -1.9226   -0.4769 C   0  0  0  0  0  0  0  0  0  0  0  0
   -3.7551    0.5236   -0.2943 C   0  0  0  0  0  0  0  0  0  0  0  0
   -4.3783    0.4304    0.9386 C   0  0  0  0  0  0  0  0  0  0  0  0
   -2.8384    1.5256   -0.5668 C   0  0  0  0  0  0  0  0  0  0  0  0
   -2.5366    2.4613    0.4227 C   0  0  0  0  0  0  0  0  0  0  0  0
   -4.0765    1.3661    1.9281 C   0  0  0  0  0  0  0  0  0  0  0  0
   -3.1557    2.3815    1.6701 C   0  0  0  0  0  0  0  0  0  0  0  0
   -6.6496   -0.2742    0.9241 C   0  0  0  0  0  0  0  0  0  0  0  0
   -1.3766    4.3748    1.2278 C   0  0  0  0  0  0  0  0  0  0  0  0
    2.1661    0.2223    0.8042 H   0  0  0  0  0  0  0  0  0  0  0  0
    4.1237   -0.7760   -1.3197 H   0  0  0  0  0  0  0  0  0  0  0  0
    4.4603    0.6966    1.3639 H   0  0  0  0  0  0  0  0  0  0  0  0
    3.9504   -2.8753    2.2081 H   0  0  0  0  0  0  0  0  0  0  0  0
    3.4904   -1.2362    2.6330 H   0  0  0  0  0  0  0  0  0  0  0  0
    5.8333   -1.2452    2.0216 H   0  0  0  0  0  0  0  0  0  0  0  0
    5.5146   -2.0375    0.4838 H   0  0  0  0  0  0  0  0  0  0  0  0
    1.6207   -1.0482   -1.9194 H   0  0  0  0  0  0  0  0  0  0  0  0
    1.2006   -1.5932    2.4066 H   0  0  0  0  0  0  0  0  0  0  0  0
    1.3127   -3.2792    1.8945 H   0  0  0  0  0  0  0  0  0  0  0  0
    6.5078    0.0246   -0.8090 H   0  0  0  0  0  0  0  0  0  0  0  0
    3.0031   -4.0210    0.2813 H   0  0  0  0  0  0  0  0  0  0  0  0
    2.0918   -3.1969   -0.9772 H   0  0  0  0  0  0  0  0  0  0  0  0
    3.8189   -2.9068   -0.8097 H   0  0  0  0  0  0  0  0  0  0  0  0
    1.7053    1.4060   -2.0163 H   0  0  0  0  0  0  0  0  0  0  0  0
    0.0349    0.9043   -2.1316 H   0  0  0  0  0  0  0  0  0  0  0  0
    0.6453    1.5412   -0.5996 H   0  0  0  0  0  0  0  0  0  0  0  0
    7.4367    0.6916    1.4587 H   0  0  0  0  0  0  0  0  0  0  0  0
    7.7173    1.9336    0.2265 H   0  0  0  0  0  0  0  0  0  0  0  0
    6.4353    2.1568    1.4161 H   0  0  0  0  0  0  0  0  0  0  0  0
   -3.9621   -2.6888   -0.3426 H   0  0  0  0  0  0  0  0  0  0  0  0
   -2.3456    1.6112   -1.5300 H   0  0  0  0  0  0  0  0  0  0  0  0
   -4.5550    1.3088    2.9022 H   0  0  0  0  0  0  0  0  0  0  0  0
   -2.9677    3.0741    2.4833 H   0  0  0  0  0  0  0  0  0  0  0  0
   -6.7756    0.5323    0.1936 H   0  0  0  0  0  0  0  0  0  0  0  0
   -7.1489    0.0158    1.8537 H   0  0  0  0  0  0  0  0  0  0  0  0
   -7.1240   -1.1861    0.5512 H   0  0  0  0  0  0  0  0  0  0  0  0
   -0.9270    3.8775    2.0939 H   0  0  0  0  0  0  0  0  0  0  0  0
   -2.2726    4.9453    1.4951 H   0  0  0  0  0  0  0  0  0  0  0  0
   -0.6398    5.0935    0.8542 H   0  0  0  0  0  0  0  0  0  0  0  0
  1 22  1  0  0  0  0
  1 26  1  0  0  0  0
  2  5  2  0  0  0  0
  2  6  2  0  0  0  0
  2 10  1  0  0  0  0
  2 27  1  0  0  0  0
  3 13  1  0  0  0  0
  3 23  1  0  0  0  0
  4 23  2  0  0  0  0
  7 28  1  0  0  0  0
  7 33  1  0  0  0  0
  8 30  1  0  0  0  0
  8 34  1  0  0  0  0
  9 21  1  0  0  0  0
  9 26  2  0  0  0  0
 10 26  1  0  0  0  0
 10 55  1  0  0  0  0
 11 12  1  0  0  0  0
 11 13  1  0  0  0  0
 11 17  1  0  0  0  0
 11 35  1  0  0  0  0
 12 15  1  0  0  0  0
 12 18  1  0  0  0  0
 12 20  1  0  0  0  0
 13 14  1  0  0  0  0
 13 36  1  0  0  0  0
 14 16  1  0  0  0  0
 14 19  1  0  0  0  0
 14 37  1  0  0  0  0
 15 16  1  0  0  0  0
 15 38  1  0  0  0  0
 15 39  1  0  0  0  0
 16 40  1  0  0  0  0
 16 41  1  0  0  0  0
 17 21  1  0  0  0  0
 17 24  1  0  0  0  0
 17 42  1  0  0  0  0
 18 22  1  0  0  0  0
 18 43  1  0  0  0  0
 18 44  1  0  0  0  0
 19 23  1  0  0  0  0
 19 25  1  0  0  0  0
 19 45  1  0  0  0  0
 20 46  1  0  0  0  0
 20 47  1  0  0  0  0
 20 48  1  0  0  0  0
 21 22  2  0  0  0  0
 24 49  1  0  0  0  0
 24 50  1  0  0  0  0
 24 51  1  0  0  0  0
 25 52  1  0  0  0  0
 25 53  1  0  0  0  0
 25 54  1  0  0  0  0
 27 28  2  0  0  0  0
 27 29  1  0  0  0  0
 28 31  1  0  0  0  0
 29 30  2  0  0  0  0
 29 56  1  0  0  0  0
 30 32  1  0  0  0  0
 31 32  2  0  0  0  0
 31 57  1  0  0  0  0
 32 58  1  0  0  0  0
 33 59  1  0  0  0  0
 33 60  1  0  0  0  0
 33 61  1  0  0  0  0
 34 62  1  0  0  0  0
 34 63  1  0  0  0  0
 34 64  1  0  0  0  0
M  END
> <PUBCHEM_COMPOUND_CID>
11866251

> <PUBCHEM_CONFORMER_RMSD>
1

> <PUBCHEM_CONFORMER_DIVERSEORDER>
2
28
36
25
42
29
37
52
50
49
21
3
45
27
31
46
34
8
41
17
44
48
19
26
22
30
11
23
40
51
12
6
38
33
39
32
9
10
47
43
35
16
18
15
24
1
5
20
13
14
4
7

> <PUBCHEM_MMFF94_PARTIAL_CHARGES>
30
1 -0.08
10 -0.7
13 0.28
17 0.18
18 0.18
19 0.06
2 1.45
21 0.05
22 -0.14
23 0.66
26 0.52
27 -0.01
28 0.08
29 -0.15
3 -0.43
30 0.08
31 -0.15
32 -0.15
33 0.28
34 0.28
4 -0.57
5 -0.65
55 0.42
56 0.15
57 0.15
58 0.15
6 -0.65
7 -0.36
8 -0.36
9 -0.57

> <PUBCHEM_EFFECTIVE_ROTOR_COUNT>
6.2

> <PUBCHEM_PHARMACOPHORE_FEATURES>
12
1 10 donor
1 4 acceptor
1 5 acceptor
1 6 acceptor
1 7 acceptor
1 8 acceptor
1 9 acceptor
5 1 9 21 22 26 rings
5 3 13 14 19 23 rings
6 11 12 13 14 15 16 rings
6 11 12 17 18 21 22 rings
6 27 28 29 30 31 32 rings

> <PUBCHEM_HEAVY_ATOM_COUNT>
34

> <PUBCHEM_ATOM_DEF_STEREO_COUNT>
6

> <PUBCHEM_ATOM_UDEF_STEREO_COUNT>
0

> <PUBCHEM_BOND_DEF_STEREO_COUNT>
0

> <PUBCHEM_BOND_UDEF_STEREO_COUNT>
0

> <PUBCHEM_ISOTOPIC_ATOM_COUNT>
0

> <PUBCHEM_COMPONENT_COUNT>
1

> <PUBCHEM_CACTVS_TAUTO_COUNT>
4

> <PUBCHEM_CONFORMER_ID>
00B5108B00000002

> <PUBCHEM_MMFF94_ENERGY>
96.6086

> <PUBCHEM_FEATURE_SELFOVERLAP>
61.083

> <PUBCHEM_SHAPE_FINGERPRINT>
10 15 16877940581410716246
10670039 82 18272652329512225348
11135609 201 18342171220052919090
11513181 2 18128821837317130782
11595378 159 18341892939883159521
12596602 18 17967251979338175939
12788726 201 18341888580433383833
13583140 156 16515400746544999362
13911987 19 18339346523326561279
14394314 77 18412548700136995657
14739800 52 18270944831141326768
14747281 78 13109589757302513753
14840074 17 18273502256548898593
15021287 119 18118958088740657490
15163728 17 17846226518339911334
15289351 153 18198337554964409272
15575132 122 18342458093861932253
15968369 153 17844814874042705376
16112460 7 18040710326190577394
18603816 31 13118277131264241840
19377110 9 18412543197665801248
20739085 24 17676777457463656878
20764821 26 18193849360223887928
21033648 29 16443344230686631967
21033650 10 17060627697734654123
3633792 109 18114726158526258119
392239 28 18336563693508069331
4098825 35 17418101988289476166
460360 51 17678174902071520662
469060 322 17096660979253057535
5104073 3 17240752935486747531
5895379 119 18270957917716935290
6034566 193 16880781809930882156
6036956 94 18335427828967175525
6201320 215 17917429797029718168
6608658 132 18272923955559324941
6700243 42 17412776134174224102

> <PUBCHEM_SHAPE_MULTIPOLES>
662.23
14.78
3.83
1.86
7.04
2.46
-0.27
4.52
1.05
0.08
1.16
-1.19
0.09
-2.87

> <PUBCHEM_SHAPE_SELFOVERLAP>
1409.894

> <PUBCHEM_SHAPE_VOLUME>
372.9

> <PUBCHEM_COORDINATE_TYPE>
2
5
10

$$$$
