45783394
  -OEChem-12032416263D

 56 59  0     1  0  0  0  0  0999 V2000
   -0.6205    0.8877    2.4925 O   0  0  0  0  0  0  0  0  0  0  0  0
   -0.1487   -2.8320   -2.2031 O   0  0  0  0  0  0  0  0  0  0  0  0
   -2.9571   -0.6305    0.3515 N   0  0  1  0  0  0  0  0  0  0  0  0
    0.0882   -0.7330    1.1185 N   0  0  0  0  0  0  0  0  0  0  0  0
    0.7610    1.0717    2.3531 N   0  0  0  0  0  0  0  0  0  0  0  0
    1.7158   -1.0706   -0.9965 N   0  0  0  0  0  0  0  0  0  0  0  0
    4.0361   -0.9018   -0.5645 N   0  0  0  0  0  0  0  0  0  0  0  0
   -2.3916   -0.6065    1.7153 C   0  0  1  0  0  0  0  0  0  0  0  0
   -2.6142   -2.0309    2.2562 C   0  0  0  0  0  0  0  0  0  0  0  0
   -3.3641   -2.7629    1.1522 C   0  0  0  0  0  0  0  0  0  0  0  0
   -4.0107   -1.6455    0.3587 C   0  0  0  0  0  0  0  0  0  0  0  0
   -3.4500    0.6682   -0.0890 C   0  0  0  0  0  0  0  0  0  0  0  0
   -0.9343   -0.1952    1.7341 C   0  0  0  0  0  0  0  0  0  0  0  0
   -2.3328    1.5628   -0.5563 C   0  0  0  0  0  0  0  0  0  0  0  0
   -2.1236    2.7968    0.0596 C   0  0  0  0  0  0  0  0  0  0  0  0
   -1.5088    1.1590   -1.6070 C   0  0  0  0  0  0  0  0  0  0  0  0
    1.1059    0.0782    1.5286 C   0  0  0  0  0  0  0  0  0  0  0  0
   -1.0906    3.6270   -0.3753 C   0  0  0  0  0  0  0  0  0  0  0  0
   -0.4758    1.9893   -2.0418 C   0  0  0  0  0  0  0  0  0  0  0  0
    2.4576   -0.1323    1.0971 C   0  0  0  0  0  0  0  0  0  0  0  0
   -0.2664    3.2232   -1.4259 C   0  0  0  0  0  0  0  0  0  0  0  0
    2.7730   -0.6912   -0.1310 C   0  0  0  0  0  0  0  0  0  0  0  0
    0.8377    4.1116   -1.8908 C   0  0  0  0  0  0  0  0  0  0  0  0
    3.5057    0.2343    1.9339 C   0  0  0  0  0  0  0  0  0  0  0  0
    4.8189    0.0335    1.5229 C   0  0  0  0  0  0  0  0  0  0  0  0
    1.9425   -1.6528   -2.2783 C   0  0  0  0  0  0  0  0  0  0  0  0
    5.0288   -0.5329    0.2759 C   0  0  0  0  0  0  0  0  0  0  0  0
    0.6166   -1.9133   -2.9727 C   0  0  0  0  0  0  0  0  0  0  0  0
   -1.3988   -3.1120   -2.8178 C   0  0  0  0  0  0  0  0  0  0  0  0
   -2.9592    0.0795    2.3599 H   0  0  0  0  0  0  0  0  0  0  0  0
   -3.2392   -1.9890    3.1567 H   0  0  0  0  0  0  0  0  0  0  0  0
   -1.6901   -2.5588    2.5151 H   0  0  0  0  0  0  0  0  0  0  0  0
   -2.6549   -3.3169    0.5246 H   0  0  0  0  0  0  0  0  0  0  0  0
   -4.0949   -3.4736    1.5489 H   0  0  0  0  0  0  0  0  0  0  0  0
   -4.9151   -1.2904    0.8688 H   0  0  0  0  0  0  0  0  0  0  0  0
   -4.2755   -1.9717   -0.6518 H   0  0  0  0  0  0  0  0  0  0  0  0
   -4.0598    1.1549    0.6834 H   0  0  0  0  0  0  0  0  0  0  0  0
   -4.1173    0.5402   -0.9530 H   0  0  0  0  0  0  0  0  0  0  0  0
   -2.7563    3.1232    0.8805 H   0  0  0  0  0  0  0  0  0  0  0  0
   -1.6722    0.2065   -2.1010 H   0  0  0  0  0  0  0  0  0  0  0  0
   -0.9360    4.5847    0.1144 H   0  0  0  0  0  0  0  0  0  0  0  0
    0.1596    1.6643   -2.8613 H   0  0  0  0  0  0  0  0  0  0  0  0
    1.7602    3.8770   -1.3505 H   0  0  0  0  0  0  0  0  0  0  0  0
    1.0178    3.9880   -2.9641 H   0  0  0  0  0  0  0  0  0  0  0  0
    0.5934    5.1666   -1.7263 H   0  0  0  0  0  0  0  0  0  0  0  0
    3.3320    0.6711    2.9142 H   0  0  0  0  0  0  0  0  0  0  0  0
    0.8283   -0.6015   -0.8502 H   0  0  0  0  0  0  0  0  0  0  0  0
    5.6519    0.3098    2.1591 H   0  0  0  0  0  0  0  0  0  0  0  0
    2.5496   -0.9880   -2.9032 H   0  0  0  0  0  0  0  0  0  0  0  0
    2.4787   -2.6019   -2.1605 H   0  0  0  0  0  0  0  0  0  0  0  0
    6.0342   -0.7108   -0.0912 H   0  0  0  0  0  0  0  0  0  0  0  0
    0.0599   -0.9808   -3.1043 H   0  0  0  0  0  0  0  0  0  0  0  0
    0.8076   -2.3430   -3.9631 H   0  0  0  0  0  0  0  0  0  0  0  0
   -1.2496   -3.5657   -3.8023 H   0  0  0  0  0  0  0  0  0  0  0  0
   -1.9415   -3.8201   -2.1858 H   0  0  0  0  0  0  0  0  0  0  0  0
   -1.9957   -2.1997   -2.9091 H   0  0  0  0  0  0  0  0  0  0  0  0
  1  5  1  0  0  0  0
  1 13  1  0  0  0  0
  2 28  1  0  0  0  0
  2 29  1  0  0  0  0
  3  8  1  0  0  0  0
  3 11  1  0  0  0  0
  3 12  1  0  0  0  0
  4 13  2  0  0  0  0
  4 17  1  0  0  0  0
  5 17  2  0  0  0  0
  6 22  1  0  0  0  0
  6 26  1  0  0  0  0
  6 47  1  0  0  0  0
  7 22  1  0  0  0  0
  7 27  2  0  0  0  0
  8  9  1  0  0  0  0
  8 13  1  0  0  0  0
  8 30  1  0  0  0  0
  9 10  1  0  0  0  0
  9 31  1  0  0  0  0
  9 32  1  0  0  0  0
 10 11  1  0  0  0  0
 10 33  1  0  0  0  0
 10 34  1  0  0  0  0
 11 35  1  0  0  0  0
 11 36  1  0  0  0  0
 12 14  1  0  0  0  0
 12 37  1  0  0  0  0
 12 38  1  0  0  0  0
 14 15  2  0  0  0  0
 14 16  1  0  0  0  0
 15 18  1  0  0  0  0
 15 39  1  0  0  0  0
 16 19  2  0  0  0  0
 16 40  1  0  0  0  0
 17 20  1  0  0  0  0
 18 21  2  0  0  0  0
 18 41  1  0  0  0  0
 19 21  1  0  0  0  0
 19 42  1  0  0  0  0
 20 22  2  0  0  0  0
 20 24  1  0  0  0  0
 21 23  1  0  0  0  0
 23 43  1  0  0  0  0
 23 44  1  0  0  0  0
 23 45  1  0  0  0  0
 24 25  2  0  0  0  0
 24 46  1  0  0  0  0
 25 27  1  0  0  0  0
 25 48  1  0  0  0  0
 26 28  1  0  0  0  0
 26 49  1  0  0  0  0
 26 50  1  0  0  0  0
 27 51  1  0  0  0  0
 28 52  1  0  0  0  0
 28 53  1  0  0  0  0
 29 54  1  0  0  0  0
 29 55  1  0  0  0  0
 29 56  1  0  0  0  0
M  END
> <PUBCHEM_COMPOUND_CID>
45783394

> <PUBCHEM_CONFORMER_RMSD>
1

> <PUBCHEM_CONFORMER_DIVERSEORDER>
1
63
133
117
123
66
137
125
72
96
68
13
93
91
120
44
119
130
90
109
52
98
10
12
65
31
104
84
140
2
128
116
92
50
17
82
76
114
54
49
71
23
95
131
97
29
102
16
118
115
138
121
127
42
51
100
110
105
88
6
36
64
30
135
56
43
129
41
145
73
124
21
34
132
67
86
139
113
45
46
8
122
14
55
89
126
24
144
142
18
75
112
78
48
5
80
111
22
39
20
28
70
77
37
3
35
83
7
108
58
27
38
103
134
47
4
136
62
143
25
15
101
40
60
146
79
59
99
9
61
141
94
87
11
81
69
57
74
26
85
106
19
32
107
33
53

> <PUBCHEM_MMFF94_PARTIAL_CHARGES>
35
1 -0.02
11 0.27
12 0.41
13 0.3
14 -0.14
15 -0.15
16 -0.15
17 0.46
18 -0.15
19 -0.15
2 -0.56
20 0.05
21 -0.14
22 0.41
23 0.14
24 -0.15
25 -0.15
26 0.37
27 0.16
28 0.28
29 0.28
3 -0.81
39 0.15
4 -0.57
40 0.15
41 0.15
42 0.15
46 0.15
47 0.4
48 0.15
5 -0.41
51 0.15
6 -0.87
7 -0.62
8 0.45

> <PUBCHEM_EFFECTIVE_ROTOR_COUNT>
9

> <PUBCHEM_PHARMACOPHORE_FEATURES>
10
1 2 acceptor
1 3 cation
1 6 cation
1 6 donor
1 7 acceptor
3 4 5 17 cation
5 1 4 5 13 17 rings
5 3 8 9 10 11 rings
6 14 15 16 18 19 21 rings
6 7 20 22 24 25 27 rings

> <PUBCHEM_HEAVY_ATOM_COUNT>
29

> <PUBCHEM_ATOM_DEF_STEREO_COUNT>
1

> <PUBCHEM_ATOM_UDEF_STEREO_COUNT>
0

> <PUBCHEM_BOND_DEF_STEREO_COUNT>
0

> <PUBCHEM_BOND_UDEF_STEREO_COUNT>
0

> <PUBCHEM_ISOTOPIC_ATOM_COUNT>
0

> <PUBCHEM_COMPONENT_COUNT>
1

> <PUBCHEM_CACTVS_TAUTO_COUNT>
8

> <PUBCHEM_CONFORMER_ID>
02BA996200000001

> <PUBCHEM_MMFF94_ENERGY>
69.5409

> <PUBCHEM_FEATURE_SELFOVERLAP>
50.747

> <PUBCHEM_SHAPE_FINGERPRINT>
11578080 2 17908452180897229436
133893 2 17537472829974544833
13583140 156 18266718252609827898
13615921 28 17821726182215502460
14910302 57 18265330616963462898
15876981 60 17749682835064091158
17818456 19 17317018287894723184
1813 80 18192456218935358611
20600515 1 17968098577928039117
20905425 154 17681572637925247245
23419403 2 18267286811020781025
23557571 272 18334863779194936946
238 59 17126158483380949789
35225 105 17754417267223774367
469060 322 18124006148302344278
550186 7 18117274758023365574

> <PUBCHEM_SHAPE_MULTIPOLES>
560.16
6.88
4.19
3.19
6.18
4.18
-1.57
-3.7
2.96
-3.01
-2.65
0.35
-2
0.82

> <PUBCHEM_SHAPE_SELFOVERLAP>
1198.006

> <PUBCHEM_SHAPE_VOLUME>
312.7

> <PUBCHEM_COORDINATE_TYPE>
2
5
10

$$$$
