38028376
  -OEChem-12032416343D

 68 70  0     1  0  0  0  0  0999 V2000
   -2.8851    1.7889    2.0616 O   0  0  0  0  0  0  0  0  0  0  0  0
    2.2722   -0.8201   -2.3363 O   0  0  0  0  0  0  0  0  0  0  0  0
    1.5138   -2.9899   -1.0054 O   0  0  0  0  0  0  0  0  0  0  0  0
    2.7505    0.9719   -0.9413 N   0  0  0  0  0  0  0  0  0  0  0  0
   -1.8098   -0.2667    2.1985 N   0  0  0  0  0  0  0  0  0  0  0  0
   -4.6955   -1.2025    0.5542 N   0  0  0  0  0  0  0  0  0  0  0  0
   -0.0465    2.0581   -1.1422 C   0  0  1  0  0  0  0  0  0  0  0  0
    1.2627    2.8733   -1.2874 C   0  0  1  0  0  0  0  0  0  0  0  0
   -1.0241    2.7771   -0.2001 C   0  0  0  0  0  0  0  0  0  0  0  0
   -0.4270    2.9955    1.2029 C   0  0  2  0  0  0  0  0  0  0  0  0
   -0.7175    1.8134   -2.4974 C   0  0  0  0  0  0  0  0  0  0  0  0
    0.9806    3.5522    1.1353 C   0  0  0  0  0  0  0  0  0  0  0  0
    1.7155    3.5007    0.0101 C   0  0  0  0  0  0  0  0  0  0  0  0
    2.3925    2.0084   -1.8581 C   0  0  0  0  0  0  0  0  0  0  0  0
   -0.4674    1.7042    2.0275 C   0  0  0  0  0  0  0  0  0  0  0  0
   -1.6032    0.5730   -2.4365 C   0  0  0  0  0  0  0  0  0  0  0  0
   -1.5266    3.0358   -2.9189 C   0  0  0  0  0  0  0  0  0  0  0  0
    1.5085    4.2113    2.3792 C   0  0  0  0  0  0  0  0  0  0  0  0
   -1.8587    1.1158    2.0946 C   0  0  0  0  0  0  0  0  0  0  0  0
    2.6613   -0.3836   -1.2563 C   0  0  0  0  0  0  0  0  0  0  0  0
   -2.9914   -1.0940    2.2821 C   0  0  0  0  0  0  0  0  0  0  0  0
    3.0464   -1.3373   -0.1843 C   0  0  0  0  0  0  0  0  0  0  0  0
   -3.4473   -1.5608    0.9299 C   0  0  0  0  0  0  0  0  0  0  0  0
    2.4580   -2.5993   -0.1035 C   0  0  0  0  0  0  0  0  0  0  0  0
    4.0091   -0.9554    0.7501 C   0  0  0  0  0  0  0  0  0  0  0  0
    2.8323   -3.4797    0.9117 C   0  0  0  0  0  0  0  0  0  0  0  0
    4.3834   -1.8358    1.7653 C   0  0  0  0  0  0  0  0  0  0  0  0
   -2.5891   -2.3175    0.1485 C   0  0  0  0  0  0  0  0  0  0  0  0
    3.7951   -3.0979    1.8461 C   0  0  0  0  0  0  0  0  0  0  0  0
   -3.0410   -2.7330   -1.0991 C   0  0  0  0  0  0  0  0  0  0  0  0
   -5.1001   -1.6247   -0.6648 C   0  0  0  0  0  0  0  0  0  0  0  0
    0.9673   -4.2974   -0.8450 C   0  0  0  0  0  0  0  0  0  0  0  0
   -4.3192   -2.3842   -1.5210 C   0  0  0  0  0  0  0  0  0  0  0  0
    0.1895    1.0847   -0.6950 H   0  0  0  0  0  0  0  0  0  0  0  0
    1.1026    3.7027   -1.9878 H   0  0  0  0  0  0  0  0  0  0  0  0
   -1.9846    2.2585   -0.1585 H   0  0  0  0  0  0  0  0  0  0  0  0
   -1.2436    3.7842   -0.5798 H   0  0  0  0  0  0  0  0  0  0  0  0
   -1.0646    3.7407    1.6995 H   0  0  0  0  0  0  0  0  0  0  0  0
    0.0366    1.6240   -3.2683 H   0  0  0  0  0  0  0  0  0  0  0  0
    2.7028    3.9588    0.0060 H   0  0  0  0  0  0  0  0  0  0  0  0
    3.2928    2.6166   -2.0086 H   0  0  0  0  0  0  0  0  0  0  0  0
    2.1334    1.5895   -2.8341 H   0  0  0  0  0  0  0  0  0  0  0  0
   -0.1586    1.8981    3.0620 H   0  0  0  0  0  0  0  0  0  0  0  0
    0.2370    0.9690    1.6193 H   0  0  0  0  0  0  0  0  0  0  0  0
   -2.4166    0.6776   -1.7121 H   0  0  0  0  0  0  0  0  0  0  0  0
   -1.0169   -0.3113   -2.1644 H   0  0  0  0  0  0  0  0  0  0  0  0
   -2.0569    0.3776   -3.4143 H   0  0  0  0  0  0  0  0  0  0  0  0
   -2.4492    3.1617   -2.3427 H   0  0  0  0  0  0  0  0  0  0  0  0
   -1.8425    2.9150   -3.9627 H   0  0  0  0  0  0  0  0  0  0  0  0
   -0.9458    3.9619   -2.8779 H   0  0  0  0  0  0  0  0  0  0  0  0
    0.8345    5.0121    2.7002 H   0  0  0  0  0  0  0  0  0  0  0  0
    2.4970    4.6563    2.2224 H   0  0  0  0  0  0  0  0  0  0  0  0
    1.6002    3.4852    3.1925 H   0  0  0  0  0  0  0  0  0  0  0  0
    3.0740    1.2575   -0.0235 H   0  0  0  0  0  0  0  0  0  0  0  0
   -0.9090   -0.7361    2.2163 H   0  0  0  0  0  0  0  0  0  0  0  0
   -3.7886   -0.5310    2.7804 H   0  0  0  0  0  0  0  0  0  0  0  0
   -2.7500   -1.9588    2.9096 H   0  0  0  0  0  0  0  0  0  0  0  0
    4.5149    0.0044    0.7045 H   0  0  0  0  0  0  0  0  0  0  0  0
    2.4201   -4.4746    1.0383 H   0  0  0  0  0  0  0  0  0  0  0  0
    5.1383   -1.5417    2.4888 H   0  0  0  0  0  0  0  0  0  0  0  0
   -1.5940   -2.5876    0.4856 H   0  0  0  0  0  0  0  0  0  0  0  0
    4.0886   -3.7830    2.6361 H   0  0  0  0  0  0  0  0  0  0  0  0
   -2.3979   -3.3268   -1.7416 H   0  0  0  0  0  0  0  0  0  0  0  0
   -6.1042   -1.3259   -0.9468 H   0  0  0  0  0  0  0  0  0  0  0  0
    0.2338   -4.4393   -1.6455 H   0  0  0  0  0  0  0  0  0  0  0  0
    0.4253   -4.3961    0.1017 H   0  0  0  0  0  0  0  0  0  0  0  0
    1.7302   -5.0728   -0.9732 H   0  0  0  0  0  0  0  0  0  0  0  0
   -4.6919   -2.6964   -2.4897 H   0  0  0  0  0  0  0  0  0  0  0  0
  1 19  2  0  0  0  0
  2 20  2  0  0  0  0
  3 24  1  0  0  0  0
  3 32  1  0  0  0  0
  4 14  1  0  0  0  0
  4 20  1  0  0  0  0
  4 54  1  0  0  0  0
  5 19  1  0  0  0  0
  5 21  1  0  0  0  0
  5 55  1  0  0  0  0
  6 23  1  0  0  0  0
  6 31  2  0  0  0  0
  7  8  1  0  0  0  0
  7  9  1  0  0  0  0
  7 11  1  0  0  0  0
  7 34  1  0  0  0  0
  8 13  1  0  0  0  0
  8 14  1  0  0  0  0
  8 35  1  0  0  0  0
  9 10  1  0  0  0  0
  9 36  1  0  0  0  0
  9 37  1  0  0  0  0
 10 12  1  0  0  0  0
 10 15  1  0  0  0  0
 10 38  1  0  0  0  0
 11 16  1  0  0  0  0
 11 17  1  0  0  0  0
 11 39  1  0  0  0  0
 12 13  2  0  0  0  0
 12 18  1  0  0  0  0
 13 40  1  0  0  0  0
 14 41  1  0  0  0  0
 14 42  1  0  0  0  0
 15 19  1  0  0  0  0
 15 43  1  0  0  0  0
 15 44  1  0  0  0  0
 16 45  1  0  0  0  0
 16 46  1  0  0  0  0
 16 47  1  0  0  0  0
 17 48  1  0  0  0  0
 17 49  1  0  0  0  0
 17 50  1  0  0  0  0
 18 51  1  0  0  0  0
 18 52  1  0  0  0  0
 18 53  1  0  0  0  0
 20 22  1  0  0  0  0
 21 23  1  0  0  0  0
 21 56  1  0  0  0  0
 21 57  1  0  0  0  0
 22 24  1  0  0  0  0
 22 25  2  0  0  0  0
 23 28  2  0  0  0  0
 24 26  2  0  0  0  0
 25 27  1  0  0  0  0
 25 58  1  0  0  0  0
 26 29  1  0  0  0  0
 26 59  1  0  0  0  0
 27 29  2  0  0  0  0
 27 60  1  0  0  0  0
 28 30  1  0  0  0  0
 28 61  1  0  0  0  0
 29 62  1  0  0  0  0
 30 33  2  0  0  0  0
 30 63  1  0  0  0  0
 31 33  1  0  0  0  0
 31 64  1  0  0  0  0
 32 65  1  0  0  0  0
 32 66  1  0  0  0  0
 32 67  1  0  0  0  0
 33 68  1  0  0  0  0
M  END
> <PUBCHEM_COMPOUND_CID>
38028376

> <PUBCHEM_CONFORMER_RMSD>
1.2

> <PUBCHEM_CONFORMER_DIVERSEORDER>
1
62
82
83
12
26
40
34
74
33
25
89
61
47
73
87
44
48
94
10
32
76
30
52
70
81
84
56
55
95
46
92
17
90
43
31
45
67
3
22
18
36
6
42
78
37
51
57
49
80
7
19
75
23
9
85
4
50
41
72
59
53
24
93
8
58
21
77
14
5
79
29
88
63
38
15
2
13
27
16
69
65
71
11
39
91
20
54
64
68
86
28
60
35
66

> <PUBCHEM_MMFF94_PARTIAL_CHARGES>
39
1 -0.57
10 0.14
12 -0.28
13 -0.29
14 0.3
15 0.06
18 0.14
19 0.57
2 -0.57
20 0.54
21 0.44
22 0.09
23 0.17
24 0.08
25 -0.15
26 -0.15
27 -0.15
28 -0.15
29 -0.15
3 -0.36
30 -0.15
31 0.16
32 0.28
33 -0.15
4 -0.73
40 0.15
5 -0.73
54 0.37
55 0.37
58 0.15
59 0.15
6 -0.62
60 0.15
61 0.15
62 0.15
63 0.15
64 0.15
68 0.15
8 0.14

> <PUBCHEM_EFFECTIVE_ROTOR_COUNT>
11.8

> <PUBCHEM_PHARMACOPHORE_FEATURES>
10
1 1 acceptor
1 2 acceptor
1 3 acceptor
1 4 donor
1 5 donor
1 6 acceptor
3 11 16 17 hydrophobe
6 22 24 25 26 27 29 rings
6 6 23 28 30 31 33 rings
6 7 8 9 10 12 13 rings

> <PUBCHEM_HEAVY_ATOM_COUNT>
33

> <PUBCHEM_ATOM_DEF_STEREO_COUNT>
3

> <PUBCHEM_ATOM_UDEF_STEREO_COUNT>
0

> <PUBCHEM_BOND_DEF_STEREO_COUNT>
0

> <PUBCHEM_BOND_UDEF_STEREO_COUNT>
0

> <PUBCHEM_ISOTOPIC_ATOM_COUNT>
0

> <PUBCHEM_COMPONENT_COUNT>
1

> <PUBCHEM_CACTVS_TAUTO_COUNT>
4

> <PUBCHEM_CONFORMER_ID>
0244445800000001

> <PUBCHEM_MMFF94_ENERGY>
85.1513

> <PUBCHEM_FEATURE_SELFOVERLAP>
50.755

> <PUBCHEM_SHAPE_FINGERPRINT>
11552529 35 18051412860489654842
12156800 1 17320371840913408339
14114207 22 17690804137641414250
14251757 17 16226047812235109031
14674994 50 17901096426347799884
14705955 166 15909693929904268320
18603816 31 14710017875913802034
19026451 147 18058166322326011879
19315092 285 17555422361925245695
20764821 26 18120381947138837815
20775530 9 18189349991149125986
35225 105 17835266461900820135
463206 1 17912103925147974411
469060 322 15767201762656422554

> <PUBCHEM_SHAPE_MULTIPOLES>
646.57
7.69
6.39
3.03
4.17
0.69
0.07
-8.59
-1.25
-3.33
-0.48
0.8
1.96
-0.82

> <PUBCHEM_SHAPE_SELFOVERLAP>
1355.073

> <PUBCHEM_SHAPE_VOLUME>
362

> <PUBCHEM_COORDINATE_TYPE>
2
5
10

$$$$
