11911786
  -OEChem-12032416363D

 63 67  0     1  0  0  0  0  0999 V2000
    1.0033    3.5257   -1.0067 O   0  0  0  0  0  0  0  0  0  0  0  0
    0.8813    1.5577    1.4117 O   0  0  0  0  0  0  0  0  0  0  0  0
   -3.6629    2.8865    0.8101 O   0  0  0  0  0  0  0  0  0  0  0  0
    3.0790    1.2816   -1.4905 N   0  0  0  0  0  0  0  0  0  0  0  0
   -1.9092    1.5770    0.0431 N   0  0  0  0  0  0  0  0  0  0  0  0
    3.8647   -0.6019   -0.3326 N   0  0  0  0  0  0  0  0  0  0  0  0
    4.1376   -0.4138   -2.7196 N   0  0  0  0  0  0  0  0  0  0  0  0
   -6.7989   -2.5142   -0.3132 N   0  0  0  0  0  0  0  0  0  0  0  0
    1.1856    1.3856    0.0173 C   0  0  1  0  0  0  0  0  0  0  0  0
    0.2722    2.3131   -0.7602 C   0  0  1  0  0  0  0  0  0  0  0  0
    2.5745    1.8978   -0.2829 C   0  0  2  0  0  0  0  0  0  0  0  0
   -0.8774    2.5754    0.1857 C   0  0  2  0  0  0  0  0  0  0  0  0
    2.3412    3.3804   -0.5079 C   0  0  0  0  0  0  0  0  0  0  0  0
   -0.2070    2.4839    1.5450 C   0  0  0  0  0  0  0  0  0  0  0  0
    4.6646   -2.5423    0.9185 C   0  0  0  0  0  0  0  0  0  0  0  0
    3.6360   -2.2626    2.0234 C   0  0  0  0  0  0  0  0  0  0  0  0
    5.9885   -2.1846    1.6025 C   0  0  0  0  0  0  0  0  0  0  0  0
    4.2199   -1.1415    2.8870 C   0  0  0  0  0  0  0  0  0  0  0  0
    5.6621   -0.9482    2.4287 C   0  0  0  0  0  0  0  0  0  0  0  0
    3.7127    0.0519   -1.5150 C   0  0  0  0  0  0  0  0  0  0  0  0
    4.4862   -1.7978   -0.3932 C   0  0  0  0  0  0  0  0  0  0  0  0
   -3.2346    1.8218    0.3727 C   0  0  0  0  0  0  0  0  0  0  0  0
    4.9547   -2.3601   -1.5631 C   0  0  0  0  0  0  0  0  0  0  0  0
   -4.1704    0.6819    0.1935 C   0  0  0  0  0  0  0  0  0  0  0  0
    4.7509   -1.6156   -2.7069 C   0  0  0  0  0  0  0  0  0  0  0  0
   -5.3059    0.6230    0.9747 C   0  0  0  0  0  0  0  0  0  0  0  0
   -3.8748   -0.2810   -0.7493 C   0  0  0  0  0  0  0  0  0  0  0  0
   -6.1851   -0.4466    0.8056 C   0  0  0  0  0  0  0  0  0  0  0  0
   -4.7541   -1.3504   -0.9184 C   0  0  0  0  0  0  0  0  0  0  0  0
   -5.9092   -1.4333   -0.1409 C   0  0  0  0  0  0  0  0  0  0  0  0
   -6.3091   -3.8043   -0.7567 C   0  0  0  0  0  0  0  0  0  0  0  0
   -8.2163   -2.3451   -0.0623 C   0  0  0  0  0  0  0  0  0  0  0  0
    1.0220    0.3300   -0.2221 H   0  0  0  0  0  0  0  0  0  0  0  0
   -0.0270    1.9066   -1.7317 H   0  0  0  0  0  0  0  0  0  0  0  0
    3.2818    1.7666    0.5442 H   0  0  0  0  0  0  0  0  0  0  0  0
   -1.3243    3.5660    0.0482 H   0  0  0  0  0  0  0  0  0  0  0  0
    3.0419    3.8394   -1.2123 H   0  0  0  0  0  0  0  0  0  0  0  0
    2.3952    3.9320    0.4373 H   0  0  0  0  0  0  0  0  0  0  0  0
   -0.8716    2.1477    2.3467 H   0  0  0  0  0  0  0  0  0  0  0  0
    0.2222    3.4491    1.8354 H   0  0  0  0  0  0  0  0  0  0  0  0
    2.9244    1.7357   -2.3836 H   0  0  0  0  0  0  0  0  0  0  0  0
   -1.6090    0.6395   -0.2030 H   0  0  0  0  0  0  0  0  0  0  0  0
    4.6399   -3.6159    0.6901 H   0  0  0  0  0  0  0  0  0  0  0  0
    3.5217   -3.1584    2.6471 H   0  0  0  0  0  0  0  0  0  0  0  0
    2.6424   -2.0099    1.6389 H   0  0  0  0  0  0  0  0  0  0  0  0
    6.2874   -2.9992    2.2744 H   0  0  0  0  0  0  0  0  0  0  0  0
    6.8134   -2.0057    0.9056 H   0  0  0  0  0  0  0  0  0  0  0  0
    3.6513   -0.2127    2.7689 H   0  0  0  0  0  0  0  0  0  0  0  0
    4.1773   -1.4173    3.9464 H   0  0  0  0  0  0  0  0  0  0  0  0
    6.3483   -0.8258    3.2723 H   0  0  0  0  0  0  0  0  0  0  0  0
    5.7391   -0.0468    1.8095 H   0  0  0  0  0  0  0  0  0  0  0  0
    5.4535   -3.3202   -1.5953 H   0  0  0  0  0  0  0  0  0  0  0  0
    5.0855   -1.9753   -3.6740 H   0  0  0  0  0  0  0  0  0  0  0  0
   -5.5310    1.3790    1.7210 H   0  0  0  0  0  0  0  0  0  0  0  0
   -3.0068   -0.2330   -1.3987 H   0  0  0  0  0  0  0  0  0  0  0  0
   -7.0689   -0.4880    1.4358 H   0  0  0  0  0  0  0  0  0  0  0  0
   -4.5201   -2.0912   -1.6778 H   0  0  0  0  0  0  0  0  0  0  0  0
   -7.0254   -4.6000   -0.5234 H   0  0  0  0  0  0  0  0  0  0  0  0
   -5.3703   -4.0707   -0.2579 H   0  0  0  0  0  0  0  0  0  0  0  0
   -6.1538   -3.8087   -1.8407 H   0  0  0  0  0  0  0  0  0  0  0  0
   -8.4282   -2.3872    1.0113 H   0  0  0  0  0  0  0  0  0  0  0  0
   -8.8005   -3.1373   -0.5440 H   0  0  0  0  0  0  0  0  0  0  0  0
   -8.5842   -1.3943   -0.4643 H   0  0  0  0  0  0  0  0  0  0  0  0
  1 10  1  0  0  0  0
  1 13  1  0  0  0  0
  2  9  1  0  0  0  0
  2 14  1  0  0  0  0
  3 22  2  0  0  0  0
  4 11  1  0  0  0  0
  4 20  1  0  0  0  0
  4 41  1  0  0  0  0
  5 12  1  0  0  0  0
  5 22  1  0  0  0  0
  5 42  1  0  0  0  0
  6 20  1  0  0  0  0
  6 21  2  0  0  0  0
  7 20  2  0  0  0  0
  7 25  1  0  0  0  0
  8 30  1  0  0  0  0
  8 31  1  0  0  0  0
  8 32  1  0  0  0  0
  9 10  1  0  0  0  0
  9 11  1  0  0  0  0
  9 33  1  0  0  0  0
 10 12  1  0  0  0  0
 10 34  1  0  0  0  0
 11 13  1  0  0  0  0
 11 35  1  0  0  0  0
 12 14  1  0  0  0  0
 12 36  1  0  0  0  0
 13 37  1  0  0  0  0
 13 38  1  0  0  0  0
 14 39  1  0  0  0  0
 14 40  1  0  0  0  0
 15 16  1  0  0  0  0
 15 17  1  0  0  0  0
 15 21  1  0  0  0  0
 15 43  1  0  0  0  0
 16 18  1  0  0  0  0
 16 44  1  0  0  0  0
 16 45  1  0  0  0  0
 17 19  1  0  0  0  0
 17 46  1  0  0  0  0
 17 47  1  0  0  0  0
 18 19  1  0  0  0  0
 18 48  1  0  0  0  0
 18 49  1  0  0  0  0
 19 50  1  0  0  0  0
 19 51  1  0  0  0  0
 21 23  1  0  0  0  0
 22 24  1  0  0  0  0
 23 25  2  0  0  0  0
 23 52  1  0  0  0  0
 24 26  2  0  0  0  0
 24 27  1  0  0  0  0
 25 53  1  0  0  0  0
 26 28  1  0  0  0  0
 26 54  1  0  0  0  0
 27 29  2  0  0  0  0
 27 55  1  0  0  0  0
 28 30  2  0  0  0  0
 28 56  1  0  0  0  0
 29 30  1  0  0  0  0
 29 57  1  0  0  0  0
 31 58  1  0  0  0  0
 31 59  1  0  0  0  0
 31 60  1  0  0  0  0
 32 61  1  0  0  0  0
 32 62  1  0  0  0  0
 32 63  1  0  0  0  0
M  END
> <PUBCHEM_COMPOUND_CID>
11911786

> <PUBCHEM_CONFORMER_RMSD>
1

> <PUBCHEM_CONFORMER_DIVERSEORDER>
1
113
37
5
64
50
62
47
77
99
68
85
36
49
10
88
104
42
71
78
76
26
38
95
65
81
116
46
23
100
103
66
9
39
75
112
33
92
18
8
34
59
84
83
69
28
63
86
87
43
27
102
15
29
30
74
97
93
57
16
82
101
90
53
117
70
4
48
98
58
107
80
17
108
7
89
110
51
54
91
96
13
25
111
114
24
2
45
106
35
67
79
22
20
105
72
6
19
21
94
31
52
40
56
55
60
115
44
32
109
61
14
73
41
3
12
11

> <PUBCHEM_MMFF94_PARTIAL_CHARGES>
36
1 -0.56
10 0.28
11 0.37
12 0.3
13 0.28
14 0.28
15 0.14
2 -0.56
20 0.72
21 0.17
22 0.54
23 -0.15
24 0.09
25 0.16
26 -0.15
27 -0.15
28 -0.15
29 -0.15
3 -0.57
30 0.1
31 0.37
32 0.37
4 -0.87
41 0.4
42 0.37
5 -0.73
52 0.15
53 0.15
54 0.15
55 0.15
56 0.15
57 0.15
6 -0.62
7 -0.62
8 -0.84
9 0.28

> <PUBCHEM_EFFECTIVE_ROTOR_COUNT>
9.2

> <PUBCHEM_PHARMACOPHORE_FEATURES>
13
1 1 acceptor
1 2 acceptor
1 3 acceptor
1 4 donor
1 5 donor
1 6 acceptor
1 8 cation
4 4 6 7 20 cation
5 1 9 10 11 13 rings
5 15 16 17 18 19 rings
5 2 9 10 12 14 rings
6 24 26 27 28 29 30 rings
6 6 7 20 21 23 25 rings

> <PUBCHEM_HEAVY_ATOM_COUNT>
32

> <PUBCHEM_ATOM_DEF_STEREO_COUNT>
4

> <PUBCHEM_ATOM_UDEF_STEREO_COUNT>
0

> <PUBCHEM_BOND_DEF_STEREO_COUNT>
0

> <PUBCHEM_BOND_UDEF_STEREO_COUNT>
0

> <PUBCHEM_ISOTOPIC_ATOM_COUNT>
0

> <PUBCHEM_COMPONENT_COUNT>
1

> <PUBCHEM_CACTVS_TAUTO_COUNT>
6

> <PUBCHEM_CONFORMER_ID>
00B5C26A00000001

> <PUBCHEM_MMFF94_ENERGY>
104.5959

> <PUBCHEM_FEATURE_SELFOVERLAP>
66.679

> <PUBCHEM_SHAPE_FINGERPRINT>
10074138 170 17271737074532289689
10169797 241 18338247075442721682
10319926 262 17775291530548911897
10556698 54 12830308322752532851
10622 236 18260828142348153995
11069576 57 17097221528668212738
11227150 75 17024286562826522002
11607047 403 18194952166429255368
11796584 16 18269277859016923028
11973864 118 18119512482861210586
12047536 79 15841557357898189419
12120059 20 18338530732653110898
12342043 65 17058947532957113718
12422481 6 17346319276221117325
12661589 4 18340770454713090435
12975358 362 9726815898051187743
13512321 179 8718011805499982966
13782708 43 18187081789361992455
14150023 79 18118408582198701572
14347332 77 18335419059022868437
15001296 14 18264207075057079255
15510800 12 18201431454964192351
16096371 109 13901642783454950301
16989378 47 18259989296781187823
17134984 74 18114185288757066274
17138139 8 18261122833366794698
19309040 13 9978473707751403916
19315092 285 17676766479542897478
19841028 212 18338236098371839739
20691028 202 8934735379195261295
20775438 99 18041842938619522858
208703 8 18411703170856585943
21585480 29 16987977497088935774
21585481 104 16515394150403830351
21585483 132 18197207256393799383
21599406 157 16153717565347203411
21968339 14 16153724132678662572
23569914 152 13625459725779979659
25222932 49 18335137588398796844
2838139 119 11314316095557625277
3882209 13 17054953251953498751
392239 28 15768914754986546796
4046055 25 12761875762853991368
4066623 53 13695858200322815598
42767 28 12757149056665057911
439807 62 18187364342333322287
444735 82 9510922374816030223
463206 1 17968386641315880024
50009960 94 18266156483134595811
5104073 3 17775012314720023321
59025328 239 16226893212744946270
59682541 52 15502370106319273506
6058803 2 18266762271419524665
636783 107 18190730037373202555
6712543 237 16630244797193264519
7970288 3 18196662791425173390

> <PUBCHEM_SHAPE_MULTIPOLES>
616.03
19.65
4.54
2.3
26.49
0.94
-0.11
-23.13
-1.15
1.52
0.23
-5.58
-1.13
-2.61

> <PUBCHEM_SHAPE_SELFOVERLAP>
1330.217

> <PUBCHEM_SHAPE_VOLUME>
337.9

> <PUBCHEM_COORDINATE_TYPE>
2
5
10

$$$$
