45783374
  -OEChem-12032416263D

 54 57  0     1  0  0  0  0  0999 V2000
    0.7608    0.9214   -2.2458 O   0  0  0  0  0  0  0  0  0  0  0  0
   -0.8308   -3.3259    1.6955 O   0  0  0  0  0  0  0  0  0  0  0  0
    2.5361   -1.5504   -0.4887 N   0  0  1  0  0  0  0  0  0  0  0  0
   -0.4001   -0.6663   -1.1744 N   0  0  0  0  0  0  0  0  0  0  0  0
   -0.5191    1.4498   -2.0355 N   0  0  0  0  0  0  0  0  0  0  0  0
   -2.1075   -0.9276    0.8878 N   0  0  0  0  0  0  0  0  0  0  0  0
   -4.2803   -0.0492    0.5607 N   0  0  0  0  0  0  0  0  0  0  0  0
    2.1734    5.3246    0.3719 N   0  0  0  0  0  0  0  0  0  0  0  0
    2.0319   -1.1198   -1.8080 C   0  0  1  0  0  0  0  0  0  0  0  0
    1.8657   -2.4249   -2.6083 C   0  0  0  0  0  0  0  0  0  0  0  0
    2.3578   -3.5260   -1.6799 C   0  0  0  0  0  0  0  0  0  0  0  0
    3.2686   -2.7969   -0.7129 C   0  0  0  0  0  0  0  0  0  0  0  0
    3.3575   -0.5425    0.1693 C   0  0  0  0  0  0  0  0  0  0  0  0
    0.7455   -0.3268   -1.7091 C   0  0  0  0  0  0  0  0  0  0  0  0
    2.5197    0.5228    0.8251 C   0  0  0  0  0  0  0  0  0  0  0  0
    2.6715    1.8587    0.4536 C   0  0  0  0  0  0  0  0  0  0  0  0
    1.5898    0.1725    1.8042 C   0  0  0  0  0  0  0  0  0  0  0  0
   -1.1444    0.4551   -1.3988 C   0  0  0  0  0  0  0  0  0  0  0  0
   -2.5115    0.5490   -0.9750 C   0  0  0  0  0  0  0  0  0  0  0  0
    1.8937    2.8444    1.0611 C   0  0  0  0  0  0  0  0  0  0  0  0
    0.8117    1.1582    2.4114 C   0  0  0  0  0  0  0  0  0  0  0  0
    0.9637    2.4941    2.0402 C   0  0  0  0  0  0  0  0  0  0  0  0
   -2.9982   -0.1184    0.1375 C   0  0  0  0  0  0  0  0  0  0  0  0
   -3.3976    1.3384   -1.6997 C   0  0  0  0  0  0  0  0  0  0  0  0
    2.0480    4.2130    0.6808 C   0  0  0  0  0  0  0  0  0  0  0  0
   -2.5167   -1.6513    2.0463 C   0  0  0  0  0  0  0  0  0  0  0  0
   -4.7245    1.4348   -1.2955 C   0  0  0  0  0  0  0  0  0  0  0  0
   -5.1122    0.7277   -0.1687 C   0  0  0  0  0  0  0  0  0  0  0  0
   -1.3311   -2.3907    2.6428 C   0  0  0  0  0  0  0  0  0  0  0  0
    0.2784   -4.0481    2.2122 C   0  0  0  0  0  0  0  0  0  0  0  0
    2.7819   -0.5098   -2.3311 H   0  0  0  0  0  0  0  0  0  0  0  0
    0.8382   -2.6204   -2.9335 H   0  0  0  0  0  0  0  0  0  0  0  0
    2.4992   -2.3909   -3.5031 H   0  0  0  0  0  0  0  0  0  0  0  0
    2.8734   -4.3245   -2.2215 H   0  0  0  0  0  0  0  0  0  0  0  0
    1.5086   -3.9693   -1.1451 H   0  0  0  0  0  0  0  0  0  0  0  0
    3.4089   -3.3644    0.2123 H   0  0  0  0  0  0  0  0  0  0  0  0
    4.2478   -2.6167   -1.1743 H   0  0  0  0  0  0  0  0  0  0  0  0
    3.9426   -1.0069    0.9757 H   0  0  0  0  0  0  0  0  0  0  0  0
    4.0965   -0.1089   -0.5172 H   0  0  0  0  0  0  0  0  0  0  0  0
    3.3953    2.1305   -0.3119 H   0  0  0  0  0  0  0  0  0  0  0  0
    1.4734   -0.8626    2.1092 H   0  0  0  0  0  0  0  0  0  0  0  0
    0.0887    0.8860    3.1747 H   0  0  0  0  0  0  0  0  0  0  0  0
    0.3496    3.2507    2.5226 H   0  0  0  0  0  0  0  0  0  0  0  0
   -3.0867    1.8840   -2.5873 H   0  0  0  0  0  0  0  0  0  0  0  0
   -1.1218   -0.7032    0.8045 H   0  0  0  0  0  0  0  0  0  0  0  0
   -2.9316   -0.9725    2.8000 H   0  0  0  0  0  0  0  0  0  0  0  0
   -3.2910   -2.3772    1.7709 H   0  0  0  0  0  0  0  0  0  0  0  0
   -5.4336    2.0426   -1.8458 H   0  0  0  0  0  0  0  0  0  0  0  0
   -6.1361    0.7690    0.1878 H   0  0  0  0  0  0  0  0  0  0  0  0
   -0.5419   -1.6888    2.9280 H   0  0  0  0  0  0  0  0  0  0  0  0
   -1.6568   -2.9266    3.5420 H   0  0  0  0  0  0  0  0  0  0  0  0
    1.1016   -3.3688    2.4529 H   0  0  0  0  0  0  0  0  0  0  0  0
   -0.0136   -4.6169    3.1001 H   0  0  0  0  0  0  0  0  0  0  0  0
    0.6196   -4.7487    1.4454 H   0  0  0  0  0  0  0  0  0  0  0  0
  1  5  1  0  0  0  0
  1 14  1  0  0  0  0
  2 29  1  0  0  0  0
  2 30  1  0  0  0  0
  3  9  1  0  0  0  0
  3 12  1  0  0  0  0
  3 13  1  0  0  0  0
  4 14  2  0  0  0  0
  4 18  1  0  0  0  0
  5 18  2  0  0  0  0
  6 23  1  0  0  0  0
  6 26  1  0  0  0  0
  6 45  1  0  0  0  0
  7 23  1  0  0  0  0
  7 28  2  0  0  0  0
  8 25  3  0  0  0  0
  9 10  1  0  0  0  0
  9 14  1  0  0  0  0
  9 31  1  0  0  0  0
 10 11  1  0  0  0  0
 10 32  1  0  0  0  0
 10 33  1  0  0  0  0
 11 12  1  0  0  0  0
 11 34  1  0  0  0  0
 11 35  1  0  0  0  0
 12 36  1  0  0  0  0
 12 37  1  0  0  0  0
 13 15  1  0  0  0  0
 13 38  1  0  0  0  0
 13 39  1  0  0  0  0
 15 16  2  0  0  0  0
 15 17  1  0  0  0  0
 16 20  1  0  0  0  0
 16 40  1  0  0  0  0
 17 21  2  0  0  0  0
 17 41  1  0  0  0  0
 18 19  1  0  0  0  0
 19 23  2  0  0  0  0
 19 24  1  0  0  0  0
 20 22  2  0  0  0  0
 20 25  1  0  0  0  0
 21 22  1  0  0  0  0
 21 42  1  0  0  0  0
 22 43  1  0  0  0  0
 24 27  2  0  0  0  0
 24 44  1  0  0  0  0
 26 29  1  0  0  0  0
 26 46  1  0  0  0  0
 26 47  1  0  0  0  0
 27 28  1  0  0  0  0
 27 48  1  0  0  0  0
 28 49  1  0  0  0  0
 29 50  1  0  0  0  0
 29 51  1  0  0  0  0
 30 52  1  0  0  0  0
 30 53  1  0  0  0  0
 30 54  1  0  0  0  0
M  END
> <PUBCHEM_COMPOUND_CID>
45783374

> <PUBCHEM_CONFORMER_RMSD>
1

> <PUBCHEM_CONFORMER_DIVERSEORDER>
1
246
62
125
117
133
128
123
238
214
161
23
135
115
256
56
176
31
243
81
10
42
172
105
191
217
121
186
8
6
223
88
202
51
195
252
73
24
218
234
248
11
201
198
171
230
124
151
28
67
83
34
145
113
241
45
27
37
179
158
155
189
71
210
33
164
160
153
193
63
222
19
150
156
132
92
221
232
141
4
237
46
181
21
192
242
69
170
207
188
82
142
54
61
177
165
77
107
231
180
143
101
197
40
58
137
169
229
183
157
55
120
147
39
213
3
75
168
108
57
102
184
32
163
95
18
174
131
185
25
99
116
251
225
29
52
79
112
227
226
76
239
43
41
138
187
93
48
154
247
72
98
236
14
16
96
136
254
64
211
53
114
122
250
15
118
60
219
200
203
119
173
126
84
12
7
205
240
2
20
87
80
94
167
100
66
148
204
175
65
70
159
146
140
212
90
130
152
59
245
127
111
49
190
103
149
86
30
78
47
249
9
199
22
134
162
104
26
13
89
110
216
68
182
74
91
208
215
109
50
35
38
244
5
253
97
194
166
209
196
44
228
17
255
36
233
129
139
220
106
85
224
144
235
206
178

> <PUBCHEM_MMFF94_PARTIAL_CHARGES>
36
1 -0.02
12 0.27
13 0.41
14 0.3
15 -0.14
16 -0.15
17 -0.15
18 0.46
19 0.05
2 -0.56
20 0.07
21 -0.15
22 -0.15
23 0.41
24 -0.15
25 0.48
26 0.37
27 -0.15
28 0.16
29 0.28
3 -0.81
30 0.28
4 -0.57
40 0.15
41 0.15
42 0.15
43 0.15
44 0.15
45 0.4
48 0.15
49 0.15
5 -0.41
6 -0.87
7 -0.62
8 -0.56
9 0.45

> <PUBCHEM_EFFECTIVE_ROTOR_COUNT>
9

> <PUBCHEM_PHARMACOPHORE_FEATURES>
11
1 2 acceptor
1 3 cation
1 6 cation
1 6 donor
1 7 acceptor
1 8 acceptor
3 4 5 18 cation
5 1 4 5 14 18 rings
5 3 9 10 11 12 rings
6 15 16 17 20 21 22 rings
6 7 19 23 24 27 28 rings

> <PUBCHEM_HEAVY_ATOM_COUNT>
30

> <PUBCHEM_ATOM_DEF_STEREO_COUNT>
1

> <PUBCHEM_ATOM_UDEF_STEREO_COUNT>
0

> <PUBCHEM_BOND_DEF_STEREO_COUNT>
0

> <PUBCHEM_BOND_UDEF_STEREO_COUNT>
0

> <PUBCHEM_ISOTOPIC_ATOM_COUNT>
0

> <PUBCHEM_COMPONENT_COUNT>
1

> <PUBCHEM_CACTVS_TAUTO_COUNT>
8

> <PUBCHEM_CONFORMER_ID>
02BA994E00000001

> <PUBCHEM_MMFF94_ENERGY>
68.3082

> <PUBCHEM_FEATURE_SELFOVERLAP>
55.822

> <PUBCHEM_SHAPE_FINGERPRINT>
11244481 83 18335137630763095544
11578080 2 17983323670230482681
12403259 327 18042101233420028400
12633257 1 18043503170727753417
12788726 201 17403741047247793004
133893 2 17559977522138858721
13583140 156 18059848485464904975
13965767 371 15047543764394914071
14114206 34 17691164485186915254
14713325 29 16758593254519710076
14840074 17 17773007845056504402
151778 21 18200024191507714917
20600515 1 18117293462210301012
20715895 44 15264263012983779745
21120745 212 16034644072031577557
23559900 14 18412540999117507677
238 59 18130782420883258811
35225 105 16837974634847292726
3797600 57 16055192612925002351
550186 7 17466233350018419184
6786 2 17696207167697597308

> <PUBCHEM_SHAPE_MULTIPOLES>
575.76
6.78
5.2
2.97
8.9
3.26
-0.49
0.08
2.02
-5.54
-2.27
-0.08
-1.83
3.12

> <PUBCHEM_SHAPE_SELFOVERLAP>
1235.729

> <PUBCHEM_SHAPE_VOLUME>
317.5

> <PUBCHEM_COORDINATE_TYPE>
2
5
10

$$$$
