56775520
  -OEChem-12032416273D

 46 47  0     0  0  0  0  0  0999 V2000
   -2.4345    3.1702    0.7585 O   0  0  0  0  0  0  0  0  0  0  0  0
    2.8466    1.2898   -0.0350 O   0  0  0  0  0  0  0  0  0  0  0  0
    3.4858   -2.3237    0.0298 O   0  0  0  0  0  0  0  0  0  0  0  0
   -1.8243    0.1313    0.4898 N   0  0  0  0  0  0  0  0  0  0  0  0
    1.6921    1.9587   -0.4231 N   0  0  0  0  0  0  0  0  0  0  0  0
   -1.5143    1.4413   -0.0904 C   0  0  0  0  0  0  0  0  0  0  0  0
   -2.8130    2.2207   -0.2641 C   0  0  0  0  0  0  0  0  0  0  0  0
   -1.2285    2.4238    1.0396 C   0  0  0  0  0  0  0  0  0  0  0  0
   -0.5586    1.3587   -1.2410 C   0  0  0  0  0  0  0  0  0  0  0  0
   -2.3391   -0.7492   -0.5553 C   0  0  0  0  0  0  0  0  0  0  0  0
   -3.0876   -1.9963   -0.0192 C   0  0  0  0  0  0  0  0  0  0  0  0
    0.8312    0.9945   -0.7613 C   0  0  0  0  0  0  0  0  0  0  0  0
   -4.3266   -1.5178    0.7614 C   0  0  0  0  0  0  0  0  0  0  0  0
   -3.5534   -2.8957   -1.1777 C   0  0  0  0  0  0  0  0  0  0  0  0
   -2.1971   -2.8155    0.9319 C   0  0  0  0  0  0  0  0  0  0  0  0
    1.3812   -0.2899   -0.6084 C   0  0  0  0  0  0  0  0  0  0  0  0
    2.6492   -0.0485   -0.1496 C   0  0  0  0  0  0  0  0  0  0  0  0
    3.7766   -0.9114    0.2226 C   0  0  0  0  0  0  0  0  0  0  0  0
    5.0499   -0.6506   -0.6340 C   0  0  0  0  0  0  0  0  0  0  0  0
    4.1644   -0.7904    1.7253 C   0  0  0  0  0  0  0  0  0  0  0  0
   -2.9387    2.7196   -1.2308 H   0  0  0  0  0  0  0  0  0  0  0  0
   -3.7543    1.7263   -0.0004 H   0  0  0  0  0  0  0  0  0  0  0  0
   -1.2375    2.0336    2.0634 H   0  0  0  0  0  0  0  0  0  0  0  0
   -0.3554    3.0721    0.9232 H   0  0  0  0  0  0  0  0  0  0  0  0
   -0.4858    2.3435   -1.7256 H   0  0  0  0  0  0  0  0  0  0  0  0
   -0.8705    0.6887   -2.0485 H   0  0  0  0  0  0  0  0  0  0  0  0
   -1.0439   -0.3170    0.9673 H   0  0  0  0  0  0  0  0  0  0  0  0
   -1.5111   -1.1204   -1.1707 H   0  0  0  0  0  0  0  0  0  0  0  0
   -3.0218   -0.2182   -1.2318 H   0  0  0  0  0  0  0  0  0  0  0  0
   -4.9832   -0.9098    0.1287 H   0  0  0  0  0  0  0  0  0  0  0  0
   -4.9144   -2.3695    1.1232 H   0  0  0  0  0  0  0  0  0  0  0  0
   -4.0543   -0.9177    1.6365 H   0  0  0  0  0  0  0  0  0  0  0  0
   -4.1081   -3.7659   -0.8095 H   0  0  0  0  0  0  0  0  0  0  0  0
   -2.6983   -3.2640   -1.7553 H   0  0  0  0  0  0  0  0  0  0  0  0
   -4.2085   -2.3477   -1.8639 H   0  0  0  0  0  0  0  0  0  0  0  0
   -1.2685   -3.1176    0.4347 H   0  0  0  0  0  0  0  0  0  0  0  0
   -2.7089   -3.7273    1.2610 H   0  0  0  0  0  0  0  0  0  0  0  0
   -1.9295   -2.2537    1.8330 H   0  0  0  0  0  0  0  0  0  0  0  0
    0.9274   -1.2501   -0.8032 H   0  0  0  0  0  0  0  0  0  0  0  0
    5.8606   -1.3359   -0.3616 H   0  0  0  0  0  0  0  0  0  0  0  0
    5.4078    0.3778   -0.5163 H   0  0  0  0  0  0  0  0  0  0  0  0
    4.8360   -0.8190   -1.6961 H   0  0  0  0  0  0  0  0  0  0  0  0
    4.9831   -1.4722    1.9820 H   0  0  0  0  0  0  0  0  0  0  0  0
    3.3138   -1.0625    2.3615 H   0  0  0  0  0  0  0  0  0  0  0  0
    4.4674    0.2311    1.9786 H   0  0  0  0  0  0  0  0  0  0  0  0
    4.2697   -2.8347    0.2946 H   0  0  0  0  0  0  0  0  0  0  0  0
  1  7  1  0  0  0  0
  1  8  1  0  0  0  0
  2  5  1  0  0  0  0
  2 17  1  0  0  0  0
  3 18  1  0  0  0  0
  3 46  1  0  0  0  0
  4  6  1  0  0  0  0
  4 10  1  0  0  0  0
  4 27  1  0  0  0  0
  5 12  2  0  0  0  0
  6  7  1  0  0  0  0
  6  8  1  0  0  0  0
  6  9  1  0  0  0  0
  7 21  1  0  0  0  0
  7 22  1  0  0  0  0
  8 23  1  0  0  0  0
  8 24  1  0  0  0  0
  9 12  1  0  0  0  0
  9 25  1  0  0  0  0
  9 26  1  0  0  0  0
 10 11  1  0  0  0  0
 10 28  1  0  0  0  0
 10 29  1  0  0  0  0
 11 13  1  0  0  0  0
 11 14  1  0  0  0  0
 11 15  1  0  0  0  0
 12 16  1  0  0  0  0
 13 30  1  0  0  0  0
 13 31  1  0  0  0  0
 13 32  1  0  0  0  0
 14 33  1  0  0  0  0
 14 34  1  0  0  0  0
 14 35  1  0  0  0  0
 15 36  1  0  0  0  0
 15 37  1  0  0  0  0
 15 38  1  0  0  0  0
 16 17  2  0  0  0  0
 16 39  1  0  0  0  0
 17 18  1  0  0  0  0
 18 19  1  0  0  0  0
 18 20  1  0  0  0  0
 19 40  1  0  0  0  0
 19 41  1  0  0  0  0
 19 42  1  0  0  0  0
 20 43  1  0  0  0  0
 20 44  1  0  0  0  0
 20 45  1  0  0  0  0
M  END
> <PUBCHEM_COMPOUND_CID>
56775520

> <PUBCHEM_CONFORMER_RMSD>
0.8

> <PUBCHEM_CONFORMER_DIVERSEORDER>
1
22
49
77
59
64
109
101
113
67
65
83
96
112
31
114
71
50
44
68
61
100
25
88
92
81
110
97
104
58
91
13
42
108
75
79
102
48
66
111
4
89
30
43
80
99
47
57
74
37
87
103
106
60
84
85
86
52
9
29
72
46
95
10
41
78
82
69
11
24
34
15
73
8
56
7
17
12
36
18
32
19
5
39
3
90
26
40
63
62
45
94
105
23
93
20
107
51
6
33
55
2
28
98
70
21
35
14
27
53
54
76
16
38

> <PUBCHEM_MMFF94_PARTIAL_CHARGES>
17
1 -0.52
10 0.27
12 0.11
16 -0.15
17 -0.04
18 0.46
2 -0.02
27 0.36
3 -0.68
39 0.15
4 -0.84
46 0.4
5 -0.41
6 0.21
7 0.26
8 0.26
9 0.18

> <PUBCHEM_EFFECTIVE_ROTOR_COUNT>
6.8

> <PUBCHEM_PHARMACOPHORE_FEATURES>
10
1 1 acceptor
1 3 acceptor
1 3 donor
1 4 cation
1 4 donor
1 5 acceptor
3 18 19 20 hydrophobe
4 1 6 7 8 rings
4 11 13 14 15 hydrophobe
5 2 5 12 16 17 rings

> <PUBCHEM_HEAVY_ATOM_COUNT>
20

> <PUBCHEM_ATOM_DEF_STEREO_COUNT>
0

> <PUBCHEM_ATOM_UDEF_STEREO_COUNT>
0

> <PUBCHEM_BOND_DEF_STEREO_COUNT>
0

> <PUBCHEM_BOND_UDEF_STEREO_COUNT>
0

> <PUBCHEM_ISOTOPIC_ATOM_COUNT>
0

> <PUBCHEM_COMPONENT_COUNT>
1

> <PUBCHEM_CACTVS_TAUTO_COUNT>
1

> <PUBCHEM_CONFORMER_ID>
0362536000000001

> <PUBCHEM_MMFF94_ENERGY>
45.4345

> <PUBCHEM_FEATURE_SELFOVERLAP>
50.745

> <PUBCHEM_SHAPE_FINGERPRINT>
10090160 65 17685492443933466404
10366900 7 17559946628724026232
10616163 171 18411422782680550782
11265709 11 18338239370439976223
11357001 24 18412266112583633729
11552529 35 18271805692383870018
12346177 29 18336256851842773213
12422481 6 18122936177949799411
12506688 2 18120095245497618079
12553582 1 18267873958988518711
12633257 1 17631752537736184635
12788726 201 18339381732988255793
12824470 246 18186794794481667024
13004483 165 18339918329101268815
13083527 12 18194948863224246868
13544653 18 18265049317958819023
13583140 156 17560223753093713682
13631057 29 18337954592844457038
14081887 123 18342725313240768770
14178342 30 18266731403493609098
14251740 79 18262221258589138103
14787075 74 17837214044965823844
14965852 173 18410013195862290764
15099037 8 18335704965704267116
15375462 189 18052548952126803277
17492 89 18409731768093667322
19141452 34 18191586354750375508
19784866 135 18410294731321699073
20281475 54 18261111816896778870
20291156 8 18335985379908341239
20602899 9 17973980904975690397
20681677 274 18341886433203190440
21250096 35 18267865176028259703
212916 134 17838040520884773816
21452121 199 18194389215900281265
23184049 29 18410296929743703916
23419403 2 17980164755843884909
23557571 272 18202009797964175668
23559900 14 18339633529461765976
23598288 3 18202001049142518925
23728640 28 18338801100675465715
257057 1 18268709600973943109
3004659 81 18114457971840848039
3027735 51 18336822005526458651
3086196 2 18412819192253770513
312423 11 18261970621024236996
463206 1 18049155863317992559
5104073 3 18340477877915359010
5486654 36 18261401009497139000
58807428 26 17765165972991639249
633830 44 11387735933384785819
81228 2 18267889275247876585
90127 26 17203036384467738976
9709674 26 18129381509999274510

> <PUBCHEM_SHAPE_MULTIPOLES>
384.02
8.81
3.59
1.18
6.57
0.41
0.17
-6.1
0.88
-3.93
0.41
0.1
-0.15
-0.72

> <PUBCHEM_SHAPE_SELFOVERLAP>
782.825

> <PUBCHEM_SHAPE_VOLUME>
228.1

> <PUBCHEM_COORDINATE_TYPE>
2
5
10

$$$$
