71693208
  -OEChem-12032416303D

 75 77  0     1  0  0  0  0  0999 V2000
   -4.8011    1.5365    1.1102 O   0  0  0  0  0  0  0  0  0  0  0  0
   -8.7764    1.9796   -1.6845 O   0  0  0  0  0  0  0  0  0  0  0  0
   -7.2303    2.8165   -0.2497 O   0  0  0  0  0  0  0  0  0  0  0  0
    7.6374    2.6479   -0.0410 O   0  0  0  0  0  0  0  0  0  0  0  0
    9.3113    1.0923   -0.3200 O   0  0  0  0  0  0  0  0  0  0  0  0
   -4.2371   -0.6675    1.5788 N   0  0  0  0  0  0  0  0  0  0  0  0
    3.5813   -0.3940    0.8387 N   0  0  0  0  0  0  0  0  0  0  0  0
    3.8284   -2.2345   -0.3825 N   0  0  0  0  0  0  0  0  0  0  0  0
   -0.7171    0.2322    0.6258 C   0  0  1  0  0  0  0  0  0  0  0  0
   -2.0294   -0.5870    0.5450 C   0  0  1  0  0  0  0  0  0  0  0  0
    0.2734   -0.2342   -0.4519 C   0  0  0  0  0  0  0  0  0  0  0  0
    0.6217   -1.7285   -0.3156 C   0  0  2  0  0  0  0  0  0  0  0  0
   -0.9747    1.7350    0.4779 C   0  0  0  0  0  0  0  0  0  0  0  0
   -0.6167   -2.5798   -0.1207 C   0  0  0  0  0  0  0  0  0  0  0  0
   -1.7957   -2.0503    0.2511 C   0  0  0  0  0  0  0  0  0  0  0  0
   -2.8478   -0.4494    1.8339 C   0  0  0  0  0  0  0  0  0  0  0  0
    1.6301   -1.9597    0.8153 C   0  0  0  0  0  0  0  0  0  0  0  0
    0.1470    2.5343    1.1336 C   0  0  0  0  0  0  0  0  0  0  0  0
   -1.1157    2.1083   -0.9943 C   0  0  0  0  0  0  0  0  0  0  0  0
   -0.4801   -4.0493   -0.4073 C   0  0  0  0  0  0  0  0  0  0  0  0
    3.0180   -1.5609    0.4028 C   0  0  0  0  0  0  0  0  0  0  0  0
   -5.1174    0.3549    1.2323 C   0  0  0  0  0  0  0  0  0  0  0  0
   -6.8887   -0.4612   -0.4674 C   0  0  0  0  0  0  0  0  0  0  0  0
   -6.5437   -0.1201    1.0047 C   0  0  0  0  0  0  0  0  0  0  0  0
    4.8390   -0.3090    0.2989 C   0  0  0  0  0  0  0  0  0  0  0  0
    4.9694   -1.4693   -0.4592 C   0  0  0  0  0  0  0  0  0  0  0  0
   -6.7406    0.7521   -1.4163 C   0  0  0  0  0  0  0  0  0  0  0  0
   -8.3380   -0.9913   -0.5052 C   0  0  0  0  0  0  0  0  0  0  0  0
   -5.9715   -1.5878   -0.9882 C   0  0  0  0  0  0  0  0  0  0  0  0
    5.8431    0.6539    0.4054 C   0  0  0  0  0  0  0  0  0  0  0  0
    6.1657   -1.6990   -1.1594 C   0  0  0  0  0  0  0  0  0  0  0  0
   -7.5801    1.9548   -1.0458 C   0  0  0  0  0  0  0  0  0  0  0  0
    7.0271    0.4091   -0.2981 C   0  0  0  0  0  0  0  0  0  0  0  0
    7.1875   -0.7458   -1.0673 C   0  0  0  0  0  0  0  0  0  0  0  0
    8.1105    1.3777   -0.2260 C   0  0  0  0  0  0  0  0  0  0  0  0
    8.6111    3.6937    0.0459 C   0  0  0  0  0  0  0  0  0  0  0  0
   -0.2772    0.0523    1.6157 H   0  0  0  0  0  0  0  0  0  0  0  0
   -2.6263   -0.2067   -0.2946 H   0  0  0  0  0  0  0  0  0  0  0  0
    1.1856    0.3702   -0.4481 H   0  0  0  0  0  0  0  0  0  0  0  0
   -0.1668   -0.1255   -1.4519 H   0  0  0  0  0  0  0  0  0  0  0  0
    1.0787   -2.0313   -1.2690 H   0  0  0  0  0  0  0  0  0  0  0  0
   -1.9035    2.0167    0.9847 H   0  0  0  0  0  0  0  0  0  0  0  0
   -2.6614   -2.7051    0.3290 H   0  0  0  0  0  0  0  0  0  0  0  0
   -2.7402    0.5407    2.2867 H   0  0  0  0  0  0  0  0  0  0  0  0
   -2.5314   -1.1786    2.5893 H   0  0  0  0  0  0  0  0  0  0  0  0
    1.6824   -3.0223    1.0820 H   0  0  0  0  0  0  0  0  0  0  0  0
    1.3415   -1.4386    1.7350 H   0  0  0  0  0  0  0  0  0  0  0  0
    1.1187    2.3488    0.6656 H   0  0  0  0  0  0  0  0  0  0  0  0
    0.2312    2.2898    2.1980 H   0  0  0  0  0  0  0  0  0  0  0  0
   -0.0545    3.6085    1.0583 H   0  0  0  0  0  0  0  0  0  0  0  0
   -0.1645    2.0890   -1.5365 H   0  0  0  0  0  0  0  0  0  0  0  0
   -1.4798    3.1405   -1.0698 H   0  0  0  0  0  0  0  0  0  0  0  0
   -1.8448    1.4857   -1.5212 H   0  0  0  0  0  0  0  0  0  0  0  0
   -1.4410   -4.5713   -0.3437 H   0  0  0  0  0  0  0  0  0  0  0  0
    0.1990   -4.5275    0.3040 H   0  0  0  0  0  0  0  0  0  0  0  0
   -0.0909   -4.2042   -1.4189 H   0  0  0  0  0  0  0  0  0  0  0  0
   -4.5877   -1.6182    1.6494 H   0  0  0  0  0  0  0  0  0  0  0  0
   -6.7198   -0.9999    1.6384 H   0  0  0  0  0  0  0  0  0  0  0  0
   -7.2134    0.6564    1.3943 H   0  0  0  0  0  0  0  0  0  0  0  0
    3.1490    0.2879    1.4480 H   0  0  0  0  0  0  0  0  0  0  0  0
   -6.9960    0.4673   -2.4458 H   0  0  0  0  0  0  0  0  0  0  0  0
   -5.6975    1.0893   -1.4658 H   0  0  0  0  0  0  0  0  0  0  0  0
   -8.6541   -1.2100   -1.5314 H   0  0  0  0  0  0  0  0  0  0  0  0
   -8.4352   -1.9160    0.0755 H   0  0  0  0  0  0  0  0  0  0  0  0
   -9.0431   -0.2669   -0.0838 H   0  0  0  0  0  0  0  0  0  0  0  0
   -5.9939   -2.4587   -0.3236 H   0  0  0  0  0  0  0  0  0  0  0  0
   -4.9321   -1.2559   -1.0777 H   0  0  0  0  0  0  0  0  0  0  0  0
   -6.2880   -1.9237   -1.9827 H   0  0  0  0  0  0  0  0  0  0  0  0
    5.6948    1.5354    1.0196 H   0  0  0  0  0  0  0  0  0  0  0  0
    6.2996   -2.5929   -1.7602 H   0  0  0  0  0  0  0  0  0  0  0  0
    8.1120   -0.9233   -1.6127 H   0  0  0  0  0  0  0  0  0  0  0  0
   -9.3110    2.7617   -1.4301 H   0  0  0  0  0  0  0  0  0  0  0  0
    8.0829    4.6396    0.1918 H   0  0  0  0  0  0  0  0  0  0  0  0
    9.1869    3.7508   -0.8826 H   0  0  0  0  0  0  0  0  0  0  0  0
    9.2720    3.5233    0.9008 H   0  0  0  0  0  0  0  0  0  0  0  0
  1 22  2  0  0  0  0
  2 32  1  0  0  0  0
  2 72  1  0  0  0  0
  3 32  2  0  0  0  0
  4 35  1  0  0  0  0
  4 36  1  0  0  0  0
  5 35  2  0  0  0  0
  6 16  1  0  0  0  0
  6 22  1  0  0  0  0
  6 57  1  0  0  0  0
  7 21  1  0  0  0  0
  7 25  1  0  0  0  0
  7 60  1  0  0  0  0
  8 21  2  0  0  0  0
  8 26  1  0  0  0  0
  9 10  1  0  0  0  0
  9 11  1  0  0  0  0
  9 13  1  0  0  0  0
  9 37  1  0  0  0  0
 10 15  1  0  0  0  0
 10 16  1  0  0  0  0
 10 38  1  0  0  0  0
 11 12  1  0  0  0  0
 11 39  1  0  0  0  0
 11 40  1  0  0  0  0
 12 14  1  0  0  0  0
 12 17  1  0  0  0  0
 12 41  1  0  0  0  0
 13 18  1  0  0  0  0
 13 19  1  0  0  0  0
 13 42  1  0  0  0  0
 14 15  2  0  0  0  0
 14 20  1  0  0  0  0
 15 43  1  0  0  0  0
 16 44  1  0  0  0  0
 16 45  1  0  0  0  0
 17 21  1  0  0  0  0
 17 46  1  0  0  0  0
 17 47  1  0  0  0  0
 18 48  1  0  0  0  0
 18 49  1  0  0  0  0
 18 50  1  0  0  0  0
 19 51  1  0  0  0  0
 19 52  1  0  0  0  0
 19 53  1  0  0  0  0
 20 54  1  0  0  0  0
 20 55  1  0  0  0  0
 20 56  1  0  0  0  0
 22 24  1  0  0  0  0
 23 24  1  0  0  0  0
 23 27  1  0  0  0  0
 23 28  1  0  0  0  0
 23 29  1  0  0  0  0
 24 58  1  0  0  0  0
 24 59  1  0  0  0  0
 25 26  2  0  0  0  0
 25 30  1  0  0  0  0
 26 31  1  0  0  0  0
 27 32  1  0  0  0  0
 27 61  1  0  0  0  0
 27 62  1  0  0  0  0
 28 63  1  0  0  0  0
 28 64  1  0  0  0  0
 28 65  1  0  0  0  0
 29 66  1  0  0  0  0
 29 67  1  0  0  0  0
 29 68  1  0  0  0  0
 30 33  2  0  0  0  0
 30 69  1  0  0  0  0
 31 34  2  0  0  0  0
 31 70  1  0  0  0  0
 33 34  1  0  0  0  0
 33 35  1  0  0  0  0
 34 71  1  0  0  0  0
 36 73  1  0  0  0  0
 36 74  1  0  0  0  0
 36 75  1  0  0  0  0
M  END
> <PUBCHEM_COMPOUND_CID>
71693208

> <PUBCHEM_CONFORMER_RMSD>
1.2

> <PUBCHEM_CONFORMER_DIVERSEORDER>
1
100
99
76
64
95
96
85
61
93
70
29
17
32
60
39
27
101
87
51
33
59
98
48
71
67
23
72
5
68
57
73
46
78
44
58
83
79
54
56
50
82
92
88
37
94
10
42
91
84
21
90
35
65
34
38
7
6
47
26
69
52
77
45
43
49
63
66
86
3
18
25
16
40
55
41
12
75
30
11
19
15
62
97
13
74
4
53
80
2
31
89
24
22
14
20
36
81
9
8
28

> <PUBCHEM_MMFF94_PARTIAL_CHARGES>
35
1 -0.57
10 0.14
12 0.14
14 -0.28
15 -0.29
16 0.3
17 0.18
2 -0.65
20 0.14
21 0.01
22 0.57
24 0.06
25 -0.15
26 0.23
27 0.06
3 -0.57
30 -0.15
31 -0.15
32 0.66
33 0.09
34 -0.15
35 0.63
36 0.28
4 -0.43
43 0.15
5 -0.57
57 0.37
6 -0.73
60 0.27
69 0.15
7 0.03
70 0.15
71 0.15
72 0.5
8 -0.57

> <PUBCHEM_EFFECTIVE_ROTOR_COUNT>
12.8

> <PUBCHEM_PHARMACOPHORE_FEATURES>
13
1 1 acceptor
1 2 acceptor
1 3 acceptor
1 5 acceptor
1 6 donor
1 7 donor
3 13 18 19 hydrophobe
3 2 3 32 anion
3 23 28 29 hydrophobe
3 7 8 21 cation
5 7 8 21 25 26 rings
6 25 26 30 31 33 34 rings
6 9 10 11 12 14 15 rings

> <PUBCHEM_HEAVY_ATOM_COUNT>
36

> <PUBCHEM_ATOM_DEF_STEREO_COUNT>
3

> <PUBCHEM_ATOM_UDEF_STEREO_COUNT>
0

> <PUBCHEM_BOND_DEF_STEREO_COUNT>
0

> <PUBCHEM_BOND_UDEF_STEREO_COUNT>
0

> <PUBCHEM_ISOTOPIC_ATOM_COUNT>
0

> <PUBCHEM_COMPONENT_COUNT>
1

> <PUBCHEM_CACTVS_TAUTO_COUNT>
14

> <PUBCHEM_CONFORMER_ID>
0445F39800000001

> <PUBCHEM_MMFF94_ENERGY>
78.1907

> <PUBCHEM_FEATURE_SELFOVERLAP>
66.136

> <PUBCHEM_SHAPE_FINGERPRINT>
10006869 2 18115581539818020874
10533779 47 12829482598299717208
11135609 187 18411133636797557003
11135926 11 8358264713959457417
11456790 92 12685089294079693108
12664476 115 18410577289337290148
12838862 33 18340759404173421928
13782708 43 12247385779535829315
1454969 45 18341612581930307155
14856354 85 15482381015824520221
15849732 13 18411140251305441631
16992787 43 18411978065864329565
1754911 235 18343022177238158284
17899979 19 18408325501242987681
1818759 1 9511466632717630488
20982279 24 10879717636268518612
21781051 124 11239708734065453600
23569943 247 11022182380967544316
23576562 1 18337948013181296477
23729417 116 17550663752530685318
24771293 8 18272097084192465785
3918712 181 18335134272098955968
4169191 19 18412550903238440601
4403749 210 18334299816009925803
4516262 110 18334012801184311402
54039377 194 10519983776999381234
563151 97 18198628718827248195
5937810 71 18341615851007652809
6009941 240 17168151152144513539
9896288 288 10810159150999498799

> <PUBCHEM_SHAPE_MULTIPOLES>
696.57
29.07
3.59
1.29
10.22
0.4
0.09
19.69
-9.36
2.27
-0.48
-1.92
0.18
1.45

> <PUBCHEM_SHAPE_SELFOVERLAP>
1456.226

> <PUBCHEM_SHAPE_VOLUME>
394.2

> <PUBCHEM_COORDINATE_TYPE>
2
5
10

$$$$
