51136623
  -OEChem-12032416143D

 65 68  0     1  0  0  0  0  0999 V2000
    5.4503    2.3729   -0.5638 F   0  0  0  0  0  0  0  0  0  0  0  0
   -6.7600   -1.7492   -1.7520 O   0  0  0  0  0  0  0  0  0  0  0  0
   -0.8837    3.7624   -0.1659 O   0  0  0  0  0  0  0  0  0  0  0  0
   -6.9393    0.1703   -0.5419 O   0  0  0  0  0  0  0  0  0  0  0  0
    2.6476   -1.1797   -2.7834 O   0  0  0  0  0  0  0  0  0  0  0  0
    4.5623   -2.0307   -0.9627 O   0  0  0  0  0  0  0  0  0  0  0  0
   -2.1352    2.0650    0.7805 N   0  0  0  0  0  0  0  0  0  0  0  0
   -1.2488   -2.3012    1.7114 N   0  0  0  0  0  0  0  0  0  0  0  0
    0.1865    2.2001    1.1742 N   0  0  0  0  0  0  0  0  0  0  0  0
   -2.8774   -0.3000    0.8247 C   0  0  2  0  0  0  0  0  0  0  0  0
   -4.1878    0.1358    0.1170 C   0  0  1  0  0  0  0  0  0  0  0  0
   -3.9968    1.4305   -0.6941 C   0  0  0  0  0  0  0  0  0  0  0  0
   -2.3131    0.8803    1.6334 C   0  0  0  0  0  0  0  0  0  0  0  0
   -1.8108   -0.8583   -0.1245 C   0  0  0  0  0  0  0  0  0  0  0  0
   -3.3713    2.5366    0.1547 C   0  0  0  0  0  0  0  0  0  0  0  0
   -4.7920   -0.9633   -0.7565 C   0  0  0  0  0  0  0  0  0  0  0  0
   -0.8244   -1.6993    0.6495 C   0  0  0  0  0  0  0  0  0  0  0  0
   -0.9287    2.7600    0.5519 C   0  0  0  0  0  0  0  0  0  0  0  0
    0.5760   -1.7886    0.1630 C   0  0  0  0  0  0  0  0  0  0  0  0
   -6.2641   -0.7500   -0.9777 C   0  0  0  0  0  0  0  0  0  0  0  0
    1.5353   -2.2360    1.0802 C   0  0  0  0  0  0  0  0  0  0  0  0
    1.0965   -2.5757    2.4736 C   0  0  0  0  0  0  0  0  0  0  0  0
   -0.3067   -3.1664    2.4291 C   0  0  0  0  0  0  0  0  0  0  0  0
    0.9480   -1.4362   -1.1357 C   0  0  0  0  0  0  0  0  0  0  0  0
    2.8776   -2.3041    0.6968 C   0  0  0  0  0  0  0  0  0  0  0  0
    2.2885   -1.5225   -1.5142 C   0  0  0  0  0  0  0  0  0  0  0  0
    3.2511   -1.9524   -0.6003 C   0  0  0  0  0  0  0  0  0  0  0  0
    1.5314    2.2446    0.7303 C   0  0  0  0  0  0  0  0  0  0  0  0
    2.5337    1.6272    1.4787 C   0  0  0  0  0  0  0  0  0  0  0  0
    1.8531    2.9054   -0.4553 C   0  0  0  0  0  0  0  0  0  0  0  0
    3.8575    1.6709    1.0418 C   0  0  0  0  0  0  0  0  0  0  0  0
    3.1770    2.9491   -0.8922 C   0  0  0  0  0  0  0  0  0  0  0  0
    1.6055   -0.7504   -3.6573 C   0  0  0  0  0  0  0  0  0  0  0  0
    5.4828   -2.4793    0.0301 C   0  0  0  0  0  0  0  0  0  0  0  0
    4.1792    2.3319   -0.1436 C   0  0  0  0  0  0  0  0  0  0  0  0
   -3.1883   -1.0681    1.5439 H   0  0  0  0  0  0  0  0  0  0  0  0
   -4.9009    0.3682    0.9222 H   0  0  0  0  0  0  0  0  0  0  0  0
   -3.3467    1.2320   -1.5559 H   0  0  0  0  0  0  0  0  0  0  0  0
   -4.9518    1.7881   -1.0936 H   0  0  0  0  0  0  0  0  0  0  0  0
   -1.4000    0.5771    2.1438 H   0  0  0  0  0  0  0  0  0  0  0  0
   -3.0218    1.1642    2.4219 H   0  0  0  0  0  0  0  0  0  0  0  0
   -1.3114   -0.0457   -0.6585 H   0  0  0  0  0  0  0  0  0  0  0  0
   -2.2501   -1.5274   -0.8712 H   0  0  0  0  0  0  0  0  0  0  0  0
   -3.1891    3.4178   -0.4679 H   0  0  0  0  0  0  0  0  0  0  0  0
   -4.0546    2.8392    0.9570 H   0  0  0  0  0  0  0  0  0  0  0  0
   -4.6822   -1.9339   -0.2583 H   0  0  0  0  0  0  0  0  0  0  0  0
   -4.2998   -1.0060   -1.7343 H   0  0  0  0  0  0  0  0  0  0  0  0
    1.1085   -1.6610    3.0786 H   0  0  0  0  0  0  0  0  0  0  0  0
    1.7791   -3.2979    2.9351 H   0  0  0  0  0  0  0  0  0  0  0  0
   -0.6702   -3.3045    3.4532 H   0  0  0  0  0  0  0  0  0  0  0  0
   -0.3007   -4.1563    1.9558 H   0  0  0  0  0  0  0  0  0  0  0  0
    0.0519    1.6861    2.0369 H   0  0  0  0  0  0  0  0  0  0  0  0
    0.1695   -1.1247   -1.8198 H   0  0  0  0  0  0  0  0  0  0  0  0
    3.5803   -2.6369    1.4532 H   0  0  0  0  0  0  0  0  0  0  0  0
   -7.7209   -1.6411   -1.9171 H   0  0  0  0  0  0  0  0  0  0  0  0
    2.2963    1.1066    2.4029 H   0  0  0  0  0  0  0  0  0  0  0  0
    1.1200    3.3784   -1.0960 H   0  0  0  0  0  0  0  0  0  0  0  0
    4.6376    1.1880    1.6228 H   0  0  0  0  0  0  0  0  0  0  0  0
    3.4279    3.4572   -1.8187 H   0  0  0  0  0  0  0  0  0  0  0  0
    0.8792   -1.5489   -3.8436 H   0  0  0  0  0  0  0  0  0  0  0  0
    1.1332    0.1717   -3.3011 H   0  0  0  0  0  0  0  0  0  0  0  0
    2.0706   -0.5152   -4.6204 H   0  0  0  0  0  0  0  0  0  0  0  0
    5.5298   -1.7879    0.8785 H   0  0  0  0  0  0  0  0  0  0  0  0
    5.2732   -3.5087    0.3404 H   0  0  0  0  0  0  0  0  0  0  0  0
    6.4762   -2.4831   -0.4306 H   0  0  0  0  0  0  0  0  0  0  0  0
  1 35  1  0  0  0  0
  2 20  1  0  0  0  0
  2 55  1  0  0  0  0
  3 18  2  0  0  0  0
  4 20  2  0  0  0  0
  5 26  1  0  0  0  0
  5 33  1  0  0  0  0
  6 27  1  0  0  0  0
  6 34  1  0  0  0  0
  7 13  1  0  0  0  0
  7 15  1  0  0  0  0
  7 18  1  0  0  0  0
  8 17  2  0  0  0  0
  8 23  1  0  0  0  0
  9 18  1  0  0  0  0
  9 28  1  0  0  0  0
  9 52  1  0  0  0  0
 10 11  1  0  0  0  0
 10 13  1  0  0  0  0
 10 14  1  0  0  0  0
 10 36  1  0  0  0  0
 11 12  1  0  0  0  0
 11 16  1  0  0  0  0
 11 37  1  0  0  0  0
 12 15  1  0  0  0  0
 12 38  1  0  0  0  0
 12 39  1  0  0  0  0
 13 40  1  0  0  0  0
 13 41  1  0  0  0  0
 14 17  1  0  0  0  0
 14 42  1  0  0  0  0
 14 43  1  0  0  0  0
 15 44  1  0  0  0  0
 15 45  1  0  0  0  0
 16 20  1  0  0  0  0
 16 46  1  0  0  0  0
 16 47  1  0  0  0  0
 17 19  1  0  0  0  0
 19 21  1  0  0  0  0
 19 24  2  0  0  0  0
 21 22  1  0  0  0  0
 21 25  2  0  0  0  0
 22 23  1  0  0  0  0
 22 48  1  0  0  0  0
 22 49  1  0  0  0  0
 23 50  1  0  0  0  0
 23 51  1  0  0  0  0
 24 26  1  0  0  0  0
 24 53  1  0  0  0  0
 25 27  1  0  0  0  0
 25 54  1  0  0  0  0
 26 27  2  0  0  0  0
 28 29  2  0  0  0  0
 28 30  1  0  0  0  0
 29 31  1  0  0  0  0
 29 56  1  0  0  0  0
 30 32  2  0  0  0  0
 30 57  1  0  0  0  0
 31 35  2  0  0  0  0
 31 58  1  0  0  0  0
 32 35  1  0  0  0  0
 32 59  1  0  0  0  0
 33 60  1  0  0  0  0
 33 61  1  0  0  0  0
 33 62  1  0  0  0  0
 34 63  1  0  0  0  0
 34 64  1  0  0  0  0
 34 65  1  0  0  0  0
M  END
> <PUBCHEM_COMPOUND_CID>
51136623

> <PUBCHEM_CONFORMER_RMSD>
1

> <PUBCHEM_CONFORMER_DIVERSEORDER>
1
66
9
6
62
81
73
77
82
48
63
15
56
43
36
21
51
13
3
65
16
8
54
53
83
24
25
23
47
79
52
76
58
55
68
32
20
39
60
14
37
78
72
45
70
41
42
19
40
46
44
17
64
27
38
84
5
30
26
11
33
29
28
67
69
18
80
31
7
74
12
59
75
10
35
57
34
71
50
2
49
61
4
22

> <PUBCHEM_MMFF94_PARTIAL_CHARGES>
40
1 -0.19
13 0.3
14 0.06
15 0.3
16 0.06
17 0.3
18 0.69
19 0.09
2 -0.65
20 0.66
21 -0.14
22 0.14
23 0.25
24 -0.15
25 -0.15
26 0.08
27 0.08
28 0.12
29 -0.15
3 -0.57
30 -0.15
31 -0.15
32 -0.15
33 0.28
34 0.28
35 0.19
4 -0.57
5 -0.36
52 0.37
53 0.15
54 0.15
55 0.5
56 0.15
57 0.15
58 0.15
59 0.15
6 -0.36
7 -0.66
8 -0.7
9 -0.55

> <PUBCHEM_EFFECTIVE_ROTOR_COUNT>
10.6

> <PUBCHEM_PHARMACOPHORE_FEATURES>
12
1 2 acceptor
1 3 acceptor
1 4 acceptor
1 5 acceptor
1 6 acceptor
1 8 acceptor
1 9 donor
3 2 4 20 anion
6 19 21 24 25 26 27 rings
6 28 29 30 31 32 35 rings
6 7 10 11 12 13 15 rings
6 8 17 19 21 22 23 rings

> <PUBCHEM_HEAVY_ATOM_COUNT>
35

> <PUBCHEM_ATOM_DEF_STEREO_COUNT>
2

> <PUBCHEM_ATOM_UDEF_STEREO_COUNT>
0

> <PUBCHEM_BOND_DEF_STEREO_COUNT>
0

> <PUBCHEM_BOND_UDEF_STEREO_COUNT>
0

> <PUBCHEM_ISOTOPIC_ATOM_COUNT>
0

> <PUBCHEM_COMPONENT_COUNT>
1

> <PUBCHEM_CACTVS_TAUTO_COUNT>
2

> <PUBCHEM_CONFORMER_ID>
030C486F00000001

> <PUBCHEM_MMFF94_ENERGY>
112.7564

> <PUBCHEM_FEATURE_SELFOVERLAP>
60.986

> <PUBCHEM_SHAPE_FINGERPRINT>
11578080 2 17969510488096940734
12107698 1 18342454803183650238
12166972 35 17968099655400593926
12422481 6 18269534115110756056
12645989 146 18199193876030707230
13636023 20 18339903979985090189
14784336 7 18115862993162042674
14931854 50 18336276660611595054
15721738 202 17275113842391833043
16112460 7 18129110073480148523
17909252 39 17775290443157073926
19026451 147 18341610395502043719
20691752 17 18187657868339536145
20721686 56 18409732863610449850
20764821 26 18262250914763823344
20775438 99 18198886184494513471
20905425 154 18343021077584280832
21344244 246 18339636867072977991
22393880 68 18264763269058404221
27425 322 16444188806193891728
3298306 158 18266454498177673297
4093350 32 17775017795245771211
463206 1 18199177576676388221
513532 50 17346600815764982364
59755656 215 18271242836814370797

> <PUBCHEM_SHAPE_MULTIPOLES>
668.72
11.46
4.62
2.27
13.97
1.97
1.18
-1.23
5.13
-3.68
-1.35
-0.92
-1.58
-0.29

> <PUBCHEM_SHAPE_SELFOVERLAP>
1430.708

> <PUBCHEM_SHAPE_VOLUME>
370.5

> <PUBCHEM_COORDINATE_TYPE>
2
5
10

$$$$
