25338966
  -OEChem-12032416193D

 53 56  0     1  0  0  0  0  0999 V2000
   -1.7376   -3.4940   -1.9718 O   0  0  0  0  0  0  0  0  0  0  0  0
   -0.6870   -1.4374   -2.0318 O   0  0  0  0  0  0  0  0  0  0  0  0
    2.0735   -2.8201    0.2514 O   0  0  0  0  0  0  0  0  0  0  0  0
    3.6622   -0.9074    0.7151 O   0  0  0  0  0  0  0  0  0  0  0  0
    0.1015   -1.5948    0.4753 N   0  0  0  0  0  0  0  0  0  0  0  0
   -2.8278    0.4541    1.6033 N   0  0  0  0  0  0  0  0  0  0  0  0
   -3.9109   -1.4984    1.6587 N   0  0  0  0  0  0  0  0  0  0  0  0
   -0.7370   -2.7296    0.0033 C   0  0  1  0  0  0  0  0  0  0  0  0
   -2.0234   -2.9624    0.8237 C   0  0  0  0  0  0  0  0  0  0  0  0
   -1.9422   -0.4886    1.1724 C   0  0  0  0  0  0  0  0  0  0  0  0
   -0.5492   -0.2799    0.7380 C   0  0  0  0  0  0  0  0  0  0  0  0
   -2.6314   -1.6742    1.2123 C   0  0  0  0  0  0  0  0  0  0  0  0
   -2.5973    1.8718    1.7385 C   0  0  0  0  0  0  0  0  0  0  0  0
   -1.0347   -2.4521   -1.4431 C   0  0  0  0  0  0  0  0  0  0  0  0
    1.4959   -1.7511    0.4642 C   0  0  0  0  0  0  0  0  0  0  0  0
   -3.9992   -0.2030    1.8844 C   0  0  0  0  0  0  0  0  0  0  0  0
   -2.6421    2.6126    0.4252 C   0  0  0  0  0  0  0  0  0  0  0  0
    2.3125   -0.5123    0.7408 C   0  0  0  0  0  0  0  0  0  0  0  0
   -1.5444    3.3681    0.0131 C   0  0  0  0  0  0  0  0  0  0  0  0
   -3.7809    2.5422   -0.3770 C   0  0  0  0  0  0  0  0  0  0  0  0
   -2.0895   -3.3604   -3.3525 C   0  0  0  0  0  0  0  0  0  0  0  0
   -1.5854    4.0534   -1.2012 C   0  0  0  0  0  0  0  0  0  0  0  0
   -3.8221    3.2272   -1.5913 C   0  0  0  0  0  0  0  0  0  0  0  0
   -2.7243    3.9828   -2.0034 C   0  0  0  0  0  0  0  0  0  0  0  0
    4.5935    0.0447    0.3641 C   0  0  0  0  0  0  0  0  0  0  0  0
    4.3581    1.3895    0.6502 C   0  0  0  0  0  0  0  0  0  0  0  0
    5.7722   -0.3358   -0.2774 C   0  0  0  0  0  0  0  0  0  0  0  0
    5.3014    2.3537    0.2949 C   0  0  0  0  0  0  0  0  0  0  0  0
    6.7154    0.6283   -0.6328 C   0  0  0  0  0  0  0  0  0  0  0  0
    6.4800    1.9731   -0.3467 C   0  0  0  0  0  0  0  0  0  0  0  0
   -0.1375   -3.6478    0.0223 H   0  0  0  0  0  0  0  0  0  0  0  0
   -2.7506   -3.5825    0.2897 H   0  0  0  0  0  0  0  0  0  0  0  0
   -1.7582   -3.4966    1.7449 H   0  0  0  0  0  0  0  0  0  0  0  0
    0.0051    0.2549    1.5129 H   0  0  0  0  0  0  0  0  0  0  0  0
   -0.5015    0.3082   -0.1835 H   0  0  0  0  0  0  0  0  0  0  0  0
   -1.6302    1.9984    2.2395 H   0  0  0  0  0  0  0  0  0  0  0  0
   -3.3578    2.2831    2.4134 H   0  0  0  0  0  0  0  0  0  0  0  0
   -4.8785    0.3115    2.2482 H   0  0  0  0  0  0  0  0  0  0  0  0
    2.0765   -0.1318    1.7387 H   0  0  0  0  0  0  0  0  0  0  0  0
    2.0763    0.2224   -0.0384 H   0  0  0  0  0  0  0  0  0  0  0  0
   -0.6500    3.4308    0.6273 H   0  0  0  0  0  0  0  0  0  0  0  0
   -4.6498    1.9678   -0.0690 H   0  0  0  0  0  0  0  0  0  0  0  0
   -2.7294   -2.4846   -3.4968 H   0  0  0  0  0  0  0  0  0  0  0  0
   -1.1877   -3.2865   -3.9676 H   0  0  0  0  0  0  0  0  0  0  0  0
   -2.6450   -4.2538   -3.6498 H   0  0  0  0  0  0  0  0  0  0  0  0
   -0.7306    4.6413   -1.5223 H   0  0  0  0  0  0  0  0  0  0  0  0
   -4.7096    3.1742   -2.2150 H   0  0  0  0  0  0  0  0  0  0  0  0
   -2.7566    4.5165   -2.9487 H   0  0  0  0  0  0  0  0  0  0  0  0
    3.4637    1.7223    1.1685 H   0  0  0  0  0  0  0  0  0  0  0  0
    5.9606   -1.3819   -0.5027 H   0  0  0  0  0  0  0  0  0  0  0  0
    5.1210    3.4004    0.5221 H   0  0  0  0  0  0  0  0  0  0  0  0
    7.6332    0.3320   -1.1321 H   0  0  0  0  0  0  0  0  0  0  0  0
    7.2150    2.7236   -0.6224 H   0  0  0  0  0  0  0  0  0  0  0  0
  1 14  1  0  0  0  0
  1 21  1  0  0  0  0
  2 14  2  0  0  0  0
  3 15  2  0  0  0  0
  4 18  1  0  0  0  0
  4 25  1  0  0  0  0
  5  8  1  0  0  0  0
  5 11  1  0  0  0  0
  5 15  1  0  0  0  0
  6 10  1  0  0  0  0
  6 13  1  0  0  0  0
  6 16  1  0  0  0  0
  7 12  1  0  0  0  0
  7 16  2  0  0  0  0
  8  9  1  0  0  0  0
  8 14  1  0  0  0  0
  8 31  1  0  0  0  0
  9 12  1  0  0  0  0
  9 32  1  0  0  0  0
  9 33  1  0  0  0  0
 10 11  1  0  0  0  0
 10 12  2  0  0  0  0
 11 34  1  0  0  0  0
 11 35  1  0  0  0  0
 13 17  1  0  0  0  0
 13 36  1  0  0  0  0
 13 37  1  0  0  0  0
 15 18  1  0  0  0  0
 16 38  1  0  0  0  0
 17 19  2  0  0  0  0
 17 20  1  0  0  0  0
 18 39  1  0  0  0  0
 18 40  1  0  0  0  0
 19 22  1  0  0  0  0
 19 41  1  0  0  0  0
 20 23  2  0  0  0  0
 20 42  1  0  0  0  0
 21 43  1  0  0  0  0
 21 44  1  0  0  0  0
 21 45  1  0  0  0  0
 22 24  2  0  0  0  0
 22 46  1  0  0  0  0
 23 24  1  0  0  0  0
 23 47  1  0  0  0  0
 24 48  1  0  0  0  0
 25 26  2  0  0  0  0
 25 27  1  0  0  0  0
 26 28  1  0  0  0  0
 26 49  1  0  0  0  0
 27 29  2  0  0  0  0
 27 50  1  0  0  0  0
 28 30  2  0  0  0  0
 28 51  1  0  0  0  0
 29 30  1  0  0  0  0
 29 52  1  0  0  0  0
 30 53  1  0  0  0  0
M  END
> <PUBCHEM_COMPOUND_CID>
25338966

> <PUBCHEM_CONFORMER_RMSD>
1

> <PUBCHEM_CONFORMER_DIVERSEORDER>
1
55
150
4
131
63
37
126
99
30
135
13
128
33
39
47
94
169
18
170
139
173
86
162
53
101
165
149
27
174
15
57
67
93
19
124
163
46
5
96
120
10
95
68
153
123
102
16
129
85
182
9
28
14
21
6
157
26
167
3
178
75
83
29
97
98
152
78
127
147
121
44
52
88
114
91
42
117
113
73
2
137
64
111
112
59
122
65
100
43
106
144
146
108
138
92
155
82
23
87
41
109
161
134
17
141
8
175
140
125
110
156
35
38
171
177
48
76
151
80
58
45
81
71
172
118
69
154
61
79
54
34
49
181
60
105
51
160
104
31
62
84
164
20
130
176
132
32
143
159
166
70
77
115
158
119
25
145
11
133
148
22
107
168
136
103
7
24
142
66
56
36
116
74
179
40
72
12
90
180
89
50

> <PUBCHEM_MMFF94_PARTIAL_CHARGES>
41
1 -0.43
10 -0.33
11 0.48
12 0.05
13 0.4
14 0.66
15 0.57
16 0.04
17 -0.14
18 0.34
19 -0.15
2 -0.57
20 -0.15
21 0.28
22 -0.15
23 -0.15
24 -0.15
25 0.08
26 -0.15
27 -0.15
28 -0.15
29 -0.15
3 -0.57
30 -0.15
38 0.15
4 -0.36
41 0.15
42 0.15
46 0.15
47 0.15
48 0.15
49 0.15
5 -0.66
50 0.15
51 0.15
52 0.15
53 0.15
6 0.05
7 -0.57
8 0.36
9 0.18

> <PUBCHEM_EFFECTIVE_ROTOR_COUNT>
8.8

> <PUBCHEM_PHARMACOPHORE_FEATURES>
8
1 2 acceptor
1 3 acceptor
1 4 acceptor
3 6 7 16 cation
5 6 7 10 12 16 rings
6 17 19 20 22 23 24 rings
6 25 26 27 28 29 30 rings
6 5 8 9 10 11 12 rings

> <PUBCHEM_HEAVY_ATOM_COUNT>
30

> <PUBCHEM_ATOM_DEF_STEREO_COUNT>
1

> <PUBCHEM_ATOM_UDEF_STEREO_COUNT>
0

> <PUBCHEM_BOND_DEF_STEREO_COUNT>
0

> <PUBCHEM_BOND_UDEF_STEREO_COUNT>
0

> <PUBCHEM_ISOTOPIC_ATOM_COUNT>
0

> <PUBCHEM_COMPONENT_COUNT>
1

> <PUBCHEM_CACTVS_TAUTO_COUNT>
1

> <PUBCHEM_CONFORMER_ID>
0182A45600000001

> <PUBCHEM_MMFF94_ENERGY>
80.4698

> <PUBCHEM_FEATURE_SELFOVERLAP>
40.717

> <PUBCHEM_SHAPE_FINGERPRINT>
10670039 82 18262535774865684284
10871710 139 18338513148460843466
11045515 52 17839161245477162023
13627167 48 18044949106745886988
13761468 95 18199487484337040552
13911987 19 17988923319441555073
13994607 96 18335979796619518797
14251740 79 9295297109840524145
14856354 85 17970932143994699178
15264996 74 18197191798384014596
15513586 35 18265901452551011336
15575132 122 18334018306588489112
18603816 31 13254254718309056780
19309040 13 17056978264466543561
21033648 144 18193000313692205937
21315764 268 18411425042255276888
21716022 299 16404488928701939687
21860390 5 17114650823022961007
22956985 138 16597907270608105323
238 59 17548402718915789297
24771293 8 18268167405020285529
25019877 29 17273719691966169239
27425 322 17471848105547499597
376196 1 17900818241416336345
4046055 25 17483946451918690303
4371632 12 17200480143886429832
44249763 50 18270951454034176912
5252454 2 18202003218258999226
550186 7 18263099759056982086
57527585 21 17559393544421637489

> <PUBCHEM_SHAPE_MULTIPOLES>
578.97
12.01
5.67
2.18
27.74
2.2
-1.55
8.18
0.51
-6.38
-3.73
-3.22
-1.28
0.62

> <PUBCHEM_SHAPE_SELFOVERLAP>
1254.235

> <PUBCHEM_SHAPE_VOLUME>
314.9

> <PUBCHEM_COORDINATE_TYPE>
2
5
10

$$$$
