75367638
  -OEChem-12032416413D

 47 49  0     1  0  0  0  0  0999 V2000
   -5.2215   -1.6446   -0.7808 O   0  0  0  0  0  0  0  0  0  0  0  0
    0.2785    3.4692   -0.2892 O   0  0  0  0  0  0  0  0  0  0  0  0
    2.0038    0.4936   -1.3970 O   0  0  0  0  0  0  0  0  0  0  0  0
   -3.2946    0.5889    1.4545 O   0  0  0  0  0  0  0  0  0  0  0  0
   -1.1147    0.8029    0.6539 N   0  0  0  0  0  0  0  0  0  0  0  0
    3.0815   -0.2220    0.5264 N   0  0  0  0  0  0  0  0  0  0  0  0
   -2.5043   -1.1491    0.0617 C   0  0  0  0  0  0  0  0  0  0  0  0
   -3.4424   -2.0907    0.8163 C   0  0  0  0  0  0  0  0  0  0  0  0
   -2.9862   -0.8983   -1.3670 C   0  0  0  0  0  0  0  0  0  0  0  0
   -2.3502    0.1540    0.7905 C   0  0  0  0  0  0  0  0  0  0  0  0
   -0.0119    0.2437   -0.1340 C   0  0  0  0  0  0  0  0  0  0  0  0
    1.1324    1.1910   -0.5051 C   0  0  2  0  0  0  0  0  0  0  0  0
   -0.9107    2.0831    1.3367 C   0  0  0  0  0  0  0  0  0  0  0  0
   -4.9114   -1.7371    0.6079 C   0  0  0  0  0  0  0  0  0  0  0  0
   -4.4819   -0.6091   -1.4245 C   0  0  0  0  0  0  0  0  0  0  0  0
    0.6559    2.4556   -1.2143 C   0  0  0  0  0  0  0  0  0  0  0  0
   -0.9700    3.2480    0.3575 C   0  0  0  0  0  0  0  0  0  0  0  0
    3.0094   -0.2343   -0.8234 C   0  0  0  0  0  0  0  0  0  0  0  0
    3.8848   -0.9311   -1.6408 C   0  0  0  0  0  0  0  0  0  0  0  0
    4.0808   -0.9444    1.0809 C   0  0  0  0  0  0  0  0  0  0  0  0
    4.8995   -1.6625   -1.0335 C   0  0  0  0  0  0  0  0  0  0  0  0
    5.0062   -1.6746    0.3528 C   0  0  0  0  0  0  0  0  0  0  0  0
    4.1669   -0.9322    2.5707 C   0  0  0  0  0  0  0  0  0  0  0  0
   -1.5407   -1.6667    0.0330 H   0  0  0  0  0  0  0  0  0  0  0  0
   -3.2105   -2.1147    1.8874 H   0  0  0  0  0  0  0  0  0  0  0  0
   -3.2817   -3.1056    0.4289 H   0  0  0  0  0  0  0  0  0  0  0  0
   -2.7894   -1.8053   -1.9530 H   0  0  0  0  0  0  0  0  0  0  0  0
   -2.4478   -0.0759   -1.8494 H   0  0  0  0  0  0  0  0  0  0  0  0
   -0.4006   -0.1915   -1.0591 H   0  0  0  0  0  0  0  0  0  0  0  0
    0.3858   -0.5986    0.4454 H   0  0  0  0  0  0  0  0  0  0  0  0
    1.6587    1.5276    0.3970 H   0  0  0  0  0  0  0  0  0  0  0  0
    0.0392    2.0435    1.8800 H   0  0  0  0  0  0  0  0  0  0  0  0
   -1.7019    2.2180    2.0818 H   0  0  0  0  0  0  0  0  0  0  0  0
   -5.5356   -2.5329    1.0283 H   0  0  0  0  0  0  0  0  0  0  0  0
   -5.2074   -0.8114    1.1103 H   0  0  0  0  0  0  0  0  0  0  0  0
   -4.7265    0.3566   -0.9674 H   0  0  0  0  0  0  0  0  0  0  0  0
   -4.8094   -0.5674   -2.4684 H   0  0  0  0  0  0  0  0  0  0  0  0
    1.4789    2.8706   -1.8080 H   0  0  0  0  0  0  0  0  0  0  0  0
   -0.1573    2.2532   -1.9222 H   0  0  0  0  0  0  0  0  0  0  0  0
   -1.7653    3.1280   -0.3876 H   0  0  0  0  0  0  0  0  0  0  0  0
   -1.1840    4.1642    0.9180 H   0  0  0  0  0  0  0  0  0  0  0  0
    3.7880   -0.9112   -2.7208 H   0  0  0  0  0  0  0  0  0  0  0  0
    5.6058   -2.2219   -1.6395 H   0  0  0  0  0  0  0  0  0  0  0  0
    5.7938   -2.2411    0.8379 H   0  0  0  0  0  0  0  0  0  0  0  0
    4.0647   -1.9477    2.9664 H   0  0  0  0  0  0  0  0  0  0  0  0
    5.1269   -0.5168    2.8932 H   0  0  0  0  0  0  0  0  0  0  0  0
    3.3704   -0.3190    3.0053 H   0  0  0  0  0  0  0  0  0  0  0  0
  1 14  1  0  0  0  0
  1 15  1  0  0  0  0
  2 16  1  0  0  0  0
  2 17  1  0  0  0  0
  3 12  1  0  0  0  0
  3 18  1  0  0  0  0
  4 10  2  0  0  0  0
  5 10  1  0  0  0  0
  5 11  1  0  0  0  0
  5 13  1  0  0  0  0
  6 18  1  0  0  0  0
  6 20  2  0  0  0  0
  7  8  1  0  0  0  0
  7  9  1  0  0  0  0
  7 10  1  0  0  0  0
  7 24  1  0  0  0  0
  8 14  1  0  0  0  0
  8 25  1  0  0  0  0
  8 26  1  0  0  0  0
  9 15  1  0  0  0  0
  9 27  1  0  0  0  0
  9 28  1  0  0  0  0
 11 12  1  0  0  0  0
 11 29  1  0  0  0  0
 11 30  1  0  0  0  0
 12 16  1  0  0  0  0
 12 31  1  0  0  0  0
 13 17  1  0  0  0  0
 13 32  1  0  0  0  0
 13 33  1  0  0  0  0
 14 34  1  0  0  0  0
 14 35  1  0  0  0  0
 15 36  1  0  0  0  0
 15 37  1  0  0  0  0
 16 38  1  0  0  0  0
 16 39  1  0  0  0  0
 17 40  1  0  0  0  0
 17 41  1  0  0  0  0
 18 19  2  0  0  0  0
 19 21  1  0  0  0  0
 19 42  1  0  0  0  0
 20 22  1  0  0  0  0
 20 23  1  0  0  0  0
 21 22  2  0  0  0  0
 21 43  1  0  0  0  0
 22 44  1  0  0  0  0
 23 45  1  0  0  0  0
 23 46  1  0  0  0  0
 23 47  1  0  0  0  0
M  END
> <PUBCHEM_COMPOUND_CID>
75367638

> <PUBCHEM_CONFORMER_RMSD>
1

> <PUBCHEM_CONFORMER_DIVERSEORDER>
1
146
6
40
13
144
67
133
51
154
99
118
20
122
127
120
148
91
7
106
61
100
68
53
16
62
121
141
139
98
112
73
129
80
77
32
70
124
58
4
65
97
3
90
101
22
19
109
60
5
153
107
23
86
131
137
96
64
69
126
93
57
134
37
95
105
152
43
111
11
103
84
85
72
147
78
36
52
24
115
102
149
35
18
59
29
114
14
41
117
50
142
79
42
81
87
83
108
123
12
2
47
119
151
9
28
56
128
30
55
38
113
8
89
135
66
88
44
71
125
46
140
39
132
76
104
75
150
54
110
94
143
25
10
136
21
82
92
63
49
116
138
45
31
48
130
26
145
34
27
17
33
74
15

> <PUBCHEM_MMFF94_PARTIAL_CHARGES>
24
1 -0.56
10 0.57
11 0.3
12 0.28
13 0.3
14 0.28
15 0.28
16 0.28
17 0.28
18 0.39
19 -0.15
2 -0.56
20 0.17
21 -0.15
22 -0.15
23 0.14
3 -0.36
4 -0.57
42 0.15
43 0.15
44 0.15
5 -0.66
6 -0.62
7 0.06

> <PUBCHEM_EFFECTIVE_ROTOR_COUNT>
6.6

> <PUBCHEM_PHARMACOPHORE_FEATURES>
8
1 1 acceptor
1 2 acceptor
1 3 acceptor
1 4 acceptor
1 6 acceptor
6 1 7 8 9 14 15 rings
6 6 18 19 20 21 22 rings
7 2 5 11 12 13 16 17 rings

> <PUBCHEM_HEAVY_ATOM_COUNT>
23

> <PUBCHEM_ATOM_DEF_STEREO_COUNT>
1

> <PUBCHEM_ATOM_UDEF_STEREO_COUNT>
0

> <PUBCHEM_BOND_DEF_STEREO_COUNT>
0

> <PUBCHEM_BOND_UDEF_STEREO_COUNT>
0

> <PUBCHEM_ISOTOPIC_ATOM_COUNT>
0

> <PUBCHEM_COMPONENT_COUNT>
1

> <PUBCHEM_CACTVS_TAUTO_COUNT>
1

> <PUBCHEM_CONFORMER_ID>
047E04D600000001

> <PUBCHEM_MMFF94_ENERGY>
68.0236

> <PUBCHEM_FEATURE_SELFOVERLAP>
40.647

> <PUBCHEM_SHAPE_FINGERPRINT>
11265709 11 18411705391227680701
11370993 144 16700905873291239658
11552529 35 18127977395539366976
11578080 2 17749097877862678860
11796584 16 18186799205656335587
12363563 72 18411145748430680430
12403259 118 13039189182199552499
12422481 6 17702688574385264635
12553582 1 18334586719529152122
12788726 201 18408611348664671596
13004483 165 18343579646586644829
13083527 12 18270671073788907640
13544653 18 18202562899346688048
13583140 156 16127810743302453788
13782708 43 17774448158023450774
13828863 39 14404041665066652546
1420 369 18272654558031014095
14251757 17 14418139495593779592
14251764 38 10085439142784220779
14341114 328 14045740460506222807
14429115 67 18271802453830920256
14848178 5 18342453763954792271
14950920 106 15626221286716636790
15003188 33 16009020636603715726
15183329 4 17967807224674240479
16752209 62 18041272158782055344
17349148 13 18342745134625758695
1813 80 18413388756404099621
18222031 100 18342457066673606926
193927 3 18340779203223816718
204376 136 9223236234642604933
20567600 9 8645678216636987938
20626108 58 18340769333536267369
20671657 53 18260828236906266109
21250096 35 18261106387499239754
21304303 282 17542470896249307861
21452121 199 18339364166255991336
23175994 123 18410290346186573719
23419403 2 17984948661842672129
23557571 272 18200593579679870716
23559900 14 18337109093618548233
23598288 3 17899164665969993585
3004659 81 17749104487569049894
3027735 51 18191862332211275167
314173 85 18341894086655258266
339767 52 18260823800521885266
38570 142 14404327551634152938
4098825 35 14490480755136613010
44062 13 18041557040048484303
46194498 28 17242175879837538247
56616090 89 18272647952407911369
59444896 2 11699168590158036249
59682541 52 16515949433245048083
602551 16 18269560442864958914
613672 6 18411412934046325222
6438754 60 17821442465244835241
7970288 3 18410302414491761674
85463 6 18409728418134707712
960060 61 16588023515699121294

> <PUBCHEM_SHAPE_MULTIPOLES>
439.89
11.15
3.02
1.79
1.52
2.98
0.39
-10.84
-0.1
-1.17
0.1
1.15
-0.29
-0.62

> <PUBCHEM_SHAPE_SELFOVERLAP>
918.322

> <PUBCHEM_SHAPE_VOLUME>
244.1

> <PUBCHEM_COORDINATE_TYPE>
2
5
10

$$$$
