71694084
  -OEChem-12032416323D

 37 39  0     0  0  0  0  0  0999 V2000
   -0.2655    3.4530   -0.9462 O   0  0  0  0  0  0  0  0  0  0  0  0
   -3.0139   -1.7490    0.5579 O   0  0  0  0  0  0  0  0  0  0  0  0
   -5.0048   -1.9246   -1.6891 O   0  0  0  0  0  0  0  0  0  0  0  0
    0.6599    0.4924   -0.2537 N   0  0  0  0  0  0  0  0  0  0  0  0
   -1.8863   -1.0779    1.0153 N   0  0  0  0  0  0  0  0  0  0  0  0
    5.2347   -1.5725   -0.5762 N   0  0  0  0  0  0  0  0  0  0  0  0
   -0.2447    1.5896    0.0997 C   0  0  0  0  0  0  0  0  0  0  0  0
   -0.8549    2.1488   -1.1924 C   0  0  0  0  0  0  0  0  0  0  0  0
    0.5564    2.8984    0.1148 C   0  0  0  0  0  0  0  0  0  0  0  0
   -1.1519    1.2636    1.2577 C   0  0  0  0  0  0  0  0  0  0  0  0
   -2.1677    0.2185    0.8568 C   0  0  0  0  0  0  0  0  0  0  0  0
    1.6189    0.2876    0.8253 C   0  0  0  0  0  0  0  0  0  0  0  0
    2.8845   -0.3636    0.3344 C   0  0  0  0  0  0  0  0  0  0  0  0
   -3.4457    0.4242    0.3088 C   0  0  0  0  0  0  0  0  0  0  0  0
   -3.9353   -0.8439    0.1398 C   0  0  0  0  0  0  0  0  0  0  0  0
    2.9053   -1.7251    0.0529 C   0  0  0  0  0  0  0  0  0  0  0  0
    4.0374    0.3943    0.1609 C   0  0  0  0  0  0  0  0  0  0  0  0
   -5.1974   -1.3852   -0.3785 C   0  0  0  0  0  0  0  0  0  0  0  0
    4.0947   -2.2765   -0.3957 C   0  0  0  0  0  0  0  0  0  0  0  0
    5.1761   -0.2520   -0.2925 C   0  0  0  0  0  0  0  0  0  0  0  0
   -1.9435    2.2301   -1.2349 H   0  0  0  0  0  0  0  0  0  0  0  0
   -0.4964    1.7360   -2.1422 H   0  0  0  0  0  0  0  0  0  0  0  0
    0.4700    3.4930    1.0297 H   0  0  0  0  0  0  0  0  0  0  0  0
    1.6051    2.8803   -0.2014 H   0  0  0  0  0  0  0  0  0  0  0  0
   -1.7037    2.1631    1.5632 H   0  0  0  0  0  0  0  0  0  0  0  0
   -0.6068    0.9411    2.1521 H   0  0  0  0  0  0  0  0  0  0  0  0
    0.2028   -0.3870   -0.4911 H   0  0  0  0  0  0  0  0  0  0  0  0
    1.1811   -0.3616    1.5952 H   0  0  0  0  0  0  0  0  0  0  0  0
    1.8948    1.2080    1.3545 H   0  0  0  0  0  0  0  0  0  0  0  0
   -3.9418    1.3543    0.0742 H   0  0  0  0  0  0  0  0  0  0  0  0
    2.0245   -2.3457    0.1775 H   0  0  0  0  0  0  0  0  0  0  0  0
    4.0577    1.4587    0.3681 H   0  0  0  0  0  0  0  0  0  0  0  0
   -5.5717   -2.1835    0.2703 H   0  0  0  0  0  0  0  0  0  0  0  0
   -5.9611   -0.6034   -0.4408 H   0  0  0  0  0  0  0  0  0  0  0  0
    4.1634   -3.3339   -0.6290 H   0  0  0  0  0  0  0  0  0  0  0  0
    6.1012    0.2942   -0.4448 H   0  0  0  0  0  0  0  0  0  0  0  0
   -5.8659   -2.2681   -1.9828 H   0  0  0  0  0  0  0  0  0  0  0  0
  1  8  1  0  0  0  0
  1  9  1  0  0  0  0
  2  5  1  0  0  0  0
  2 15  1  0  0  0  0
  3 18  1  0  0  0  0
  3 37  1  0  0  0  0
  4  7  1  0  0  0  0
  4 12  1  0  0  0  0
  4 27  1  0  0  0  0
  5 11  2  0  0  0  0
  6 19  2  0  0  0  0
  6 20  1  0  0  0  0
  7  8  1  0  0  0  0
  7  9  1  0  0  0  0
  7 10  1  0  0  0  0
  8 21  1  0  0  0  0
  8 22  1  0  0  0  0
  9 23  1  0  0  0  0
  9 24  1  0  0  0  0
 10 11  1  0  0  0  0
 10 25  1  0  0  0  0
 10 26  1  0  0  0  0
 11 14  1  0  0  0  0
 12 13  1  0  0  0  0
 12 28  1  0  0  0  0
 12 29  1  0  0  0  0
 13 16  2  0  0  0  0
 13 17  1  0  0  0  0
 14 15  2  0  0  0  0
 14 30  1  0  0  0  0
 15 18  1  0  0  0  0
 16 19  1  0  0  0  0
 16 31  1  0  0  0  0
 17 20  2  0  0  0  0
 17 32  1  0  0  0  0
 18 33  1  0  0  0  0
 18 34  1  0  0  0  0
 19 35  1  0  0  0  0
 20 36  1  0  0  0  0
M  END
> <PUBCHEM_COMPOUND_CID>
71694084

> <PUBCHEM_CONFORMER_RMSD>
0.8

> <PUBCHEM_CONFORMER_DIVERSEORDER>
1
57
9
75
16
60
62
31
66
79
26
81
87
42
61
50
69
72
51
5
73
77
54
30
63
36
82
52
76
10
80
65
68
56
67
49
41
8
35
44
71
7
32
40
74
88
15
48
45
17
84
83
6
55
89
29
34
86
46
27
64
4
18
53
47
21
90
22
70
59
78
91
13
24
19
28
58
37
85
43
23
39
33
3
11
12
38
25
20
14
2

> <PUBCHEM_MMFF94_PARTIAL_CHARGES>
27
1 -0.52
10 0.18
11 0.11
12 0.41
13 -0.14
14 -0.15
15 -0.04
16 -0.15
17 -0.15
18 0.46
19 0.16
2 -0.02
20 0.16
27 0.36
3 -0.68
30 0.15
31 0.15
32 0.15
35 0.15
36 0.15
37 0.4
4 -0.84
5 -0.41
6 -0.62
7 0.21
8 0.26
9 0.26

> <PUBCHEM_EFFECTIVE_ROTOR_COUNT>
6.8

> <PUBCHEM_PHARMACOPHORE_FEATURES>
10
1 1 acceptor
1 3 acceptor
1 3 donor
1 4 cation
1 4 donor
1 5 acceptor
1 6 acceptor
4 1 7 8 9 rings
5 2 5 11 14 15 rings
6 6 13 16 17 19 20 rings

> <PUBCHEM_HEAVY_ATOM_COUNT>
20

> <PUBCHEM_ATOM_DEF_STEREO_COUNT>
0

> <PUBCHEM_ATOM_UDEF_STEREO_COUNT>
0

> <PUBCHEM_BOND_DEF_STEREO_COUNT>
0

> <PUBCHEM_BOND_UDEF_STEREO_COUNT>
0

> <PUBCHEM_ISOTOPIC_ATOM_COUNT>
0

> <PUBCHEM_COMPONENT_COUNT>
1

> <PUBCHEM_CACTVS_TAUTO_COUNT>
1

> <PUBCHEM_CONFORMER_ID>
0445F70400000001

> <PUBCHEM_MMFF94_ENERGY>
42.7734

> <PUBCHEM_FEATURE_SELFOVERLAP>
50.747

> <PUBCHEM_SHAPE_FINGERPRINT>
10366900 7 18260842475361091106
11265709 11 18410581686434287337
11552529 35 17987520316523440336
12553582 1 18186802465446245523
12596602 18 16271928242013251706
12788726 201 18041275448579688280
12916754 54 18341336574768698360
13004483 165 18411129208596045547
13103583 49 17131845265352879851
13533116 47 18129379483381196681
13544653 18 18343308084378271897
13583140 156 15338549419284239882
14178000 29 18411418444583960709
14251764 30 17346331362533537734
14508225 48 18259703393551173476
14790565 3 17544192684414510069
15352361 1 18411140238019444026
15848700 24 18409443708762656744
15849732 13 18191039923874606521
15880784 105 17775852319664479850
17357779 13 18334002900260983349
17492 89 18122625230670879311
17539 30 18263355889553277965
18222031 100 18340762723539374826
19141452 34 18270126699537094585
19784866 240 18272092747019067819
19784866 34 8502382130753827399
19784866 9 8934737577447955117
20374829 77 18409164376906204658
20645477 70 18117554257199055955
20671657 53 18409736196315342465
20871999 31 18040994021037320029
21069387 34 18341331210270117035
22620623 9 18188763934261583165
23402539 116 18411138009036808507
23557571 272 18338525114835985100
23559900 14 18193553587268971521
2838139 119 12540693747128389655
2871803 45 18333732390752816018
2916195 48 10881690134384805062
314194 84 18341619273167711547
3268164 11 17386295272818427036
3286 77 17632856430051260826
46194498 28 17604986108400519895
5207 123 18411978070670298141
5283173 99 17968367944891113581
6913067 236 18337659893795402024
7364860 26 18121221141025584817
76465 3 17845929736521490783
9971528 1 18339635758818551841

> <PUBCHEM_SHAPE_MULTIPOLES>
379.04
10.85
3.02
1.08
1.91
1.77
-0.13
-9.86
-2.46
-0.42
-0.96
-0.81
0.08
-0.2

> <PUBCHEM_SHAPE_SELFOVERLAP>
804.792

> <PUBCHEM_SHAPE_VOLUME>
212.4

> <PUBCHEM_COORDINATE_TYPE>
2
5
10

$$$$
