38027871
  -OEChem-12032416243D

 72 74  0     1  0  0  0  0  0999 V2000
   -2.0993    2.3980   -1.3710 O   0  0  0  0  0  0  0  0  0  0  0  0
    1.5714   -3.1391    1.5739 O   0  0  0  0  0  0  0  0  0  0  0  0
    5.2183    1.7718   -1.6358 O   0  0  0  0  0  0  0  0  0  0  0  0
   -3.2461    0.4951   -0.6687 N   0  0  0  0  0  0  0  0  0  0  0  0
    1.2507   -1.0091    2.4464 N   0  0  0  0  0  0  0  0  0  0  0  0
   -0.9766   -1.3475   -1.3743 C   0  0  1  0  0  0  0  0  0  0  0  0
   -2.4726   -1.5704   -1.7098 C   0  0  1  0  0  0  0  0  0  0  0  0
   -0.3641   -2.6253   -0.7808 C   0  0  0  0  0  0  0  0  0  0  0  0
   -1.0893   -3.0785    0.5002 C   0  0  2  0  0  0  0  0  0  0  0  0
   -0.1764   -0.9122   -2.6059 C   0  0  0  0  0  0  0  0  0  0  0  0
   -2.5948   -3.0661    0.3294 C   0  0  0  0  0  0  0  0  0  0  0  0
   -3.1942   -2.3978   -0.6719 C   0  0  0  0  0  0  0  0  0  0  0  0
   -3.2025   -0.2356   -1.8964 C   0  0  0  0  0  0  0  0  0  0  0  0
   -0.6666   -2.2291    1.7040 C   0  0  0  0  0  0  0  0  0  0  0  0
   -2.8974    2.3098    0.8763 C   0  0  0  0  0  0  0  0  0  0  0  0
    1.0717   -0.1428   -2.1848 C   0  0  0  0  0  0  0  0  0  0  0  0
    0.1956   -2.1240   -3.4542 C   0  0  0  0  0  0  0  0  0  0  0  0
   -4.1994    3.1166    0.9354 C   0  0  0  0  0  0  0  0  0  0  0  0
   -1.7751    3.2809    1.2462 C   0  0  0  0  0  0  0  0  0  0  0  0
   -3.3942   -3.8780    1.3102 C   0  0  0  0  0  0  0  0  0  0  0  0
   -3.8078    4.5031    1.4349 C   0  0  0  0  0  0  0  0  0  0  0  0
   -2.3635    4.6620    0.9954 C   0  0  0  0  0  0  0  0  0  0  0  0
   -2.6883    1.7607   -0.5018 C   0  0  0  0  0  0  0  0  0  0  0  0
    0.8343   -2.2077    1.8859 C   0  0  0  0  0  0  0  0  0  0  0  0
    2.6348   -0.7116    2.7350 C   0  0  0  0  0  0  0  0  0  0  0  0
    3.3216   -0.0520    1.5742 C   0  0  0  0  0  0  0  0  0  0  0  0
    4.4373   -0.6522    0.9905 C   0  0  0  0  0  0  0  0  0  0  0  0
    2.8433    1.1611    1.0790 C   0  0  0  0  0  0  0  0  0  0  0  0
    5.0749   -0.0392   -0.0880 C   0  0  0  0  0  0  0  0  0  0  0  0
    3.4809    1.7743    0.0006 C   0  0  0  0  0  0  0  0  0  0  0  0
    4.5967    1.1742   -0.5829 C   0  0  0  0  0  0  0  0  0  0  0  0
    4.6768    3.0110   -2.0912 C   0  0  0  0  0  0  0  0  0  0  0  0
   -0.8969   -0.5584   -0.6164 H   0  0  0  0  0  0  0  0  0  0  0  0
   -2.5582   -2.1228   -2.6540 H   0  0  0  0  0  0  0  0  0  0  0  0
    0.7105   -2.5103   -0.6222 H   0  0  0  0  0  0  0  0  0  0  0  0
   -0.4752   -3.4606   -1.4856 H   0  0  0  0  0  0  0  0  0  0  0  0
   -0.7758   -4.1159    0.6844 H   0  0  0  0  0  0  0  0  0  0  0  0
   -0.7700   -0.2334   -3.2267 H   0  0  0  0  0  0  0  0  0  0  0  0
   -4.2758   -2.4630   -0.7736 H   0  0  0  0  0  0  0  0  0  0  0  0
   -4.2435   -0.4120   -2.1935 H   0  0  0  0  0  0  0  0  0  0  0  0
   -2.7514    0.3714   -2.6861 H   0  0  0  0  0  0  0  0  0  0  0  0
   -1.0891   -2.6370    2.6305 H   0  0  0  0  0  0  0  0  0  0  0  0
   -1.0519   -1.2070    1.6034 H   0  0  0  0  0  0  0  0  0  0  0  0
   -2.9139    1.4830    1.5967 H   0  0  0  0  0  0  0  0  0  0  0  0
    1.7528   -0.7527   -1.5837 H   0  0  0  0  0  0  0  0  0  0  0  0
    0.8037    0.7446   -1.6016 H   0  0  0  0  0  0  0  0  0  0  0  0
    1.6269    0.1989   -3.0653 H   0  0  0  0  0  0  0  0  0  0  0  0
    0.9815   -2.7400   -3.0048 H   0  0  0  0  0  0  0  0  0  0  0  0
    0.6004   -1.7799   -4.4141 H   0  0  0  0  0  0  0  0  0  0  0  0
   -0.6663   -2.7545   -3.6916 H   0  0  0  0  0  0  0  0  0  0  0  0
   -3.7712    0.0932    0.1027 H   0  0  0  0  0  0  0  0  0  0  0  0
   -4.9266    2.6534    1.6109 H   0  0  0  0  0  0  0  0  0  0  0  0
   -4.6769    3.1943   -0.0489 H   0  0  0  0  0  0  0  0  0  0  0  0
   -0.8397    3.1266    0.6990 H   0  0  0  0  0  0  0  0  0  0  0  0
   -1.5466    3.1778    2.3148 H   0  0  0  0  0  0  0  0  0  0  0  0
   -3.0541   -4.9186    1.3084 H   0  0  0  0  0  0  0  0  0  0  0  0
   -4.4627   -3.8806    1.0696 H   0  0  0  0  0  0  0  0  0  0  0  0
   -3.2864   -3.4774    2.3226 H   0  0  0  0  0  0  0  0  0  0  0  0
   -3.8738    4.5377    2.5290 H   0  0  0  0  0  0  0  0  0  0  0  0
   -4.4558    5.2872    1.0326 H   0  0  0  0  0  0  0  0  0  0  0  0
   -2.3138    4.9134   -0.0704 H   0  0  0  0  0  0  0  0  0  0  0  0
   -1.8421    5.4426    1.5566 H   0  0  0  0  0  0  0  0  0  0  0  0
    0.5637   -0.2943    2.6683 H   0  0  0  0  0  0  0  0  0  0  0  0
    3.1426   -1.6400    3.0200 H   0  0  0  0  0  0  0  0  0  0  0  0
    2.6586   -0.0439    3.6035 H   0  0  0  0  0  0  0  0  0  0  0  0
    4.8204   -1.5979    1.3646 H   0  0  0  0  0  0  0  0  0  0  0  0
    1.9762    1.6406    1.5261 H   0  0  0  0  0  0  0  0  0  0  0  0
    5.9432   -0.5118   -0.5390 H   0  0  0  0  0  0  0  0  0  0  0  0
    3.0564    2.7148   -0.3338 H   0  0  0  0  0  0  0  0  0  0  0  0
    5.2937    3.3436   -2.9324 H   0  0  0  0  0  0  0  0  0  0  0  0
    4.7422    3.7863   -1.3203 H   0  0  0  0  0  0  0  0  0  0  0  0
    3.6568    2.8885   -2.4713 H   0  0  0  0  0  0  0  0  0  0  0  0
  1 23  2  0  0  0  0
  2 24  2  0  0  0  0
  3 31  1  0  0  0  0
  3 32  1  0  0  0  0
  4 13  1  0  0  0  0
  4 23  1  0  0  0  0
  4 51  1  0  0  0  0
  5 24  1  0  0  0  0
  5 25  1  0  0  0  0
  5 63  1  0  0  0  0
  6  7  1  0  0  0  0
  6  8  1  0  0  0  0
  6 10  1  0  0  0  0
  6 33  1  0  0  0  0
  7 12  1  0  0  0  0
  7 13  1  0  0  0  0
  7 34  1  0  0  0  0
  8  9  1  0  0  0  0
  8 35  1  0  0  0  0
  8 36  1  0  0  0  0
  9 11  1  0  0  0  0
  9 14  1  0  0  0  0
  9 37  1  0  0  0  0
 10 16  1  0  0  0  0
 10 17  1  0  0  0  0
 10 38  1  0  0  0  0
 11 12  2  0  0  0  0
 11 20  1  0  0  0  0
 12 39  1  0  0  0  0
 13 40  1  0  0  0  0
 13 41  1  0  0  0  0
 14 24  1  0  0  0  0
 14 42  1  0  0  0  0
 14 43  1  0  0  0  0
 15 18  1  0  0  0  0
 15 19  1  0  0  0  0
 15 23  1  0  0  0  0
 15 44  1  0  0  0  0
 16 45  1  0  0  0  0
 16 46  1  0  0  0  0
 16 47  1  0  0  0  0
 17 48  1  0  0  0  0
 17 49  1  0  0  0  0
 17 50  1  0  0  0  0
 18 21  1  0  0  0  0
 18 52  1  0  0  0  0
 18 53  1  0  0  0  0
 19 22  1  0  0  0  0
 19 54  1  0  0  0  0
 19 55  1  0  0  0  0
 20 56  1  0  0  0  0
 20 57  1  0  0  0  0
 20 58  1  0  0  0  0
 21 22  1  0  0  0  0
 21 59  1  0  0  0  0
 21 60  1  0  0  0  0
 22 61  1  0  0  0  0
 22 62  1  0  0  0  0
 25 26  1  0  0  0  0
 25 64  1  0  0  0  0
 25 65  1  0  0  0  0
 26 27  2  0  0  0  0
 26 28  1  0  0  0  0
 27 29  1  0  0  0  0
 27 66  1  0  0  0  0
 28 30  2  0  0  0  0
 28 67  1  0  0  0  0
 29 31  2  0  0  0  0
 29 68  1  0  0  0  0
 30 31  1  0  0  0  0
 30 69  1  0  0  0  0
 32 70  1  0  0  0  0
 32 71  1  0  0  0  0
 32 72  1  0  0  0  0
M  END
> <PUBCHEM_COMPOUND_CID>
38027871

> <PUBCHEM_CONFORMER_RMSD>
1.2

> <PUBCHEM_CONFORMER_DIVERSEORDER>
1
19
56
77
30
8
59
44
54
52
41
28
29
69
32
2
16
78
4
46
76
50
35
27
15
31
39
60
26
33
22
23
61
38
79
18
9
36
62
57
34
67
47
64
6
42
55
17
66
49
20
65
63
43
70
72
12
75
45
51
48
71
3
25
53
10
5
11
40
37
14
21
74
58
68
73
13
24
7

> <PUBCHEM_MMFF94_PARTIAL_CHARGES>
30
1 -0.57
11 -0.28
12 -0.29
13 0.3
14 0.06
15 0.06
2 -0.57
20 0.14
23 0.57
24 0.57
25 0.44
26 -0.14
27 -0.15
28 -0.15
29 -0.15
3 -0.36
30 -0.15
31 0.08
32 0.28
39 0.15
4 -0.73
5 -0.73
51 0.37
63 0.37
66 0.15
67 0.15
68 0.15
69 0.15
7 0.14
9 0.14

> <PUBCHEM_EFFECTIVE_ROTOR_COUNT>
12.8

> <PUBCHEM_PHARMACOPHORE_FEATURES>
9
1 1 acceptor
1 2 acceptor
1 3 acceptor
1 4 donor
1 5 donor
3 10 16 17 hydrophobe
5 15 18 19 21 22 rings
6 26 27 28 29 30 31 rings
6 6 7 8 9 11 12 rings

> <PUBCHEM_HEAVY_ATOM_COUNT>
32

> <PUBCHEM_ATOM_DEF_STEREO_COUNT>
3

> <PUBCHEM_ATOM_UDEF_STEREO_COUNT>
0

> <PUBCHEM_BOND_DEF_STEREO_COUNT>
0

> <PUBCHEM_BOND_UDEF_STEREO_COUNT>
0

> <PUBCHEM_ISOTOPIC_ATOM_COUNT>
0

> <PUBCHEM_COMPONENT_COUNT>
1

> <PUBCHEM_CACTVS_TAUTO_COUNT>
4

> <PUBCHEM_CONFORMER_ID>
0244425F00000001

> <PUBCHEM_MMFF94_ENERGY>
71.9501

> <PUBCHEM_FEATURE_SELFOVERLAP>
45.671

> <PUBCHEM_SHAPE_FINGERPRINT>
11059048 146 18410572842938116040
11578080 2 17558583303257565467
12104220 4 18046930198601674740
12156800 1 17392249205149016963
12788726 201 18265617769649340816
14251757 17 15913315867467190248
14279260 333 18408598151053441802
15264996 19 18263664989986489529
15419009 47 17985541149003235894
15664445 248 16473971388966063766
16067690 210 18340494477263143204
16991981 162 18265900331231762750
21987440 362 16767020486959546232
22907989 373 18336825402401750785
245318 6 17767960931618212665
35225 105 18266153154317988341
3534868 343 17978187730911442447
469060 322 14852452206461611680
50150288 127 18193021363258664352
5895379 119 18338784677052777088

> <PUBCHEM_SHAPE_MULTIPOLES>
630.97
9.28
6.06
3.03
10.06
4.37
-1.05
7
-0.4
-8.18
2.21
1.33
-1.41
-2.92

> <PUBCHEM_SHAPE_SELFOVERLAP>
1305.53

> <PUBCHEM_SHAPE_VOLUME>
360.7

> <PUBCHEM_COORDINATE_TYPE>
2
5
10

$$$$
