45783965
  -OEChem-12032416333D

 75 79  0     1  0  0  0  0  0999 V2000
    4.0046   -0.7448    0.9020 O   0  0  0  0  0  0  0  0  0  0  0  0
    9.0188    2.5201   -1.0706 O   0  0  0  0  0  0  0  0  0  0  0  0
   -3.4238   -0.9682    0.2178 N   0  0  0  0  0  0  0  0  0  0  0  0
   -5.8635    0.5161    0.1587 N   0  0  0  0  0  0  0  0  0  0  0  0
    2.6247    0.0694    2.4631 N   0  0  0  0  0  0  0  0  0  0  0  0
    3.6186    1.0044    2.2419 N   0  0  0  0  0  0  0  0  0  0  0  0
   -7.1867    2.0883   -1.0336 N   0  0  0  0  0  0  0  0  0  0  0  0
   -8.9993    2.0973    1.1067 N   0  0  0  0  0  0  0  0  0  0  0  0
   -0.7023   -1.0315   -0.8700 C   0  0  1  0  0  0  0  0  0  0  0  0
   -1.5605   -2.3043   -0.6835 C   0  0  2  0  0  0  0  0  0  0  0  0
    0.4114   -0.9743    0.1850 C   0  0  0  0  0  0  0  0  0  0  0  0
    1.3272   -2.2170    0.1755 C   0  0  2  0  0  0  0  0  0  0  0  0
   -0.1262   -0.9482   -2.2901 C   0  0  0  0  0  0  0  0  0  0  0  0
   -2.5790   -2.1393    0.4492 C   0  0  0  0  0  0  0  0  0  0  0  0
   -0.7259   -3.5327   -0.4246 C   0  0  0  0  0  0  0  0  0  0  0  0
    0.5672   -3.5150   -0.0525 C   0  0  0  0  0  0  0  0  0  0  0  0
    2.1512   -2.2278    1.4692 C   0  0  0  0  0  0  0  0  0  0  0  0
    1.0371    0.0372   -2.3352 C   0  0  0  0  0  0  0  0  0  0  0  0
   -1.2131   -0.5479   -3.2827 C   0  0  0  0  0  0  0  0  0  0  0  0
   -4.0634   -0.5395    1.4675 C   0  0  0  0  0  0  0  0  0  0  0  0
   -4.4480   -1.2637   -0.7917 C   0  0  0  0  0  0  0  0  0  0  0  0
    1.3310   -4.8023    0.0952 C   0  0  0  0  0  0  0  0  0  0  0  0
   -4.9065    0.7196    1.2506 C   0  0  0  0  0  0  0  0  0  0  0  0
   -5.3029   -0.0284   -1.0843 C   0  0  0  0  0  0  0  0  0  0  0  0
    2.8900   -0.9341    1.6598 C   0  0  0  0  0  0  0  0  0  0  0  0
   -6.9955    1.3337    0.0666 C   0  0  0  0  0  0  0  0  0  0  0  0
    4.4010    0.4870    1.3238 C   0  0  0  0  0  0  0  0  0  0  0  0
   -7.8857    1.3380    1.1179 C   0  0  0  0  0  0  0  0  0  0  0  0
    5.5861    1.0096    0.7081 C   0  0  0  0  0  0  0  0  0  0  0  0
   -8.3002    2.8477   -1.0447 C   0  0  0  0  0  0  0  0  0  0  0  0
   -9.1905    2.8520    0.0064 C   0  0  0  0  0  0  0  0  0  0  0  0
    6.0679    2.2657    1.0770 C   0  0  0  0  0  0  0  0  0  0  0  0
    6.2576    0.2615   -0.2590 C   0  0  0  0  0  0  0  0  0  0  0  0
    7.2208    2.7738    0.4785 C   0  0  0  0  0  0  0  0  0  0  0  0
    7.4106    0.7696   -0.8575 C   0  0  0  0  0  0  0  0  0  0  0  0
    7.8922    2.0257   -0.4887 C   0  0  0  0  0  0  0  0  0  0  0  0
    9.6549    1.7023   -2.0519 C   0  0  0  0  0  0  0  0  0  0  0  0
   -1.3119   -0.1310   -0.7237 H   0  0  0  0  0  0  0  0  0  0  0  0
   -2.1040   -2.5177   -1.6088 H   0  0  0  0  0  0  0  0  0  0  0  0
    0.9832   -0.0438    0.1146 H   0  0  0  0  0  0  0  0  0  0  0  0
   -0.0744   -0.9065    1.1693 H   0  0  0  0  0  0  0  0  0  0  0  0
    2.0293   -2.1286   -0.6634 H   0  0  0  0  0  0  0  0  0  0  0  0
    0.2640   -1.9240   -2.6055 H   0  0  0  0  0  0  0  0  0  0  0  0
   -2.0334   -2.0244    1.3955 H   0  0  0  0  0  0  0  0  0  0  0  0
   -3.1854   -3.0484    0.5671 H   0  0  0  0  0  0  0  0  0  0  0  0
   -1.2250   -4.4876   -0.5756 H   0  0  0  0  0  0  0  0  0  0  0  0
    1.5044   -2.3994    2.3387 H   0  0  0  0  0  0  0  0  0  0  0  0
    2.8901   -3.0377    1.4573 H   0  0  0  0  0  0  0  0  0  0  0  0
    0.7591    1.0123   -1.9196 H   0  0  0  0  0  0  0  0  0  0  0  0
    1.3346    0.2134   -3.3763 H   0  0  0  0  0  0  0  0  0  0  0  0
    1.9393   -0.3214   -1.8351 H   0  0  0  0  0  0  0  0  0  0  0  0
   -1.6646    0.4138   -3.0152 H   0  0  0  0  0  0  0  0  0  0  0  0
   -2.0123   -1.2907   -3.3472 H   0  0  0  0  0  0  0  0  0  0  0  0
   -0.7943   -0.4461   -4.2902 H   0  0  0  0  0  0  0  0  0  0  0  0
   -3.3011   -0.3087    2.2216 H   0  0  0  0  0  0  0  0  0  0  0  0
   -4.6950   -1.3408    1.8742 H   0  0  0  0  0  0  0  0  0  0  0  0
   -3.9994   -1.5753   -1.7398 H   0  0  0  0  0  0  0  0  0  0  0  0
   -5.0982   -2.0831   -0.4558 H   0  0  0  0  0  0  0  0  0  0  0  0
    1.5811   -4.9863    1.1445 H   0  0  0  0  0  0  0  0  0  0  0  0
    0.7581   -5.6651   -0.2615 H   0  0  0  0  0  0  0  0  0  0  0  0
    2.2572   -4.7636   -0.4876 H   0  0  0  0  0  0  0  0  0  0  0  0
   -5.4129    0.9591    2.1926 H   0  0  0  0  0  0  0  0  0  0  0  0
   -4.2579    1.5710    1.0070 H   0  0  0  0  0  0  0  0  0  0  0  0
   -4.6987    0.7400   -1.5837 H   0  0  0  0  0  0  0  0  0  0  0  0
   -6.1058   -0.3216   -1.7723 H   0  0  0  0  0  0  0  0  0  0  0  0
   -7.7564    0.7278    2.0044 H   0  0  0  0  0  0  0  0  0  0  0  0
   -8.4545    3.4543   -1.9284 H   0  0  0  0  0  0  0  0  0  0  0  0
  -10.0850    3.4624   -0.0033 H   0  0  0  0  0  0  0  0  0  0  0  0
    5.5610    2.8661    1.8286 H   0  0  0  0  0  0  0  0  0  0  0  0
    5.9123   -0.7207   -0.5719 H   0  0  0  0  0  0  0  0  0  0  0  0
    7.5918    3.7526    0.7701 H   0  0  0  0  0  0  0  0  0  0  0  0
    7.8828    0.1363   -1.6008 H   0  0  0  0  0  0  0  0  0  0  0  0
   10.0189    0.7642   -1.6193 H   0  0  0  0  0  0  0  0  0  0  0  0
    9.0066    1.5360   -2.9189 H   0  0  0  0  0  0  0  0  0  0  0  0
   10.5325    2.2507   -2.4097 H   0  0  0  0  0  0  0  0  0  0  0  0
  1 25  1  0  0  0  0
  1 27  1  0  0  0  0
  2 36  1  0  0  0  0
  2 37  1  0  0  0  0
  3 14  1  0  0  0  0
  3 20  1  0  0  0  0
  3 21  1  0  0  0  0
  4 23  1  0  0  0  0
  4 24  1  0  0  0  0
  4 26  1  0  0  0  0
  5  6  1  0  0  0  0
  5 25  2  0  0  0  0
  6 27  2  0  0  0  0
  7 26  2  0  0  0  0
  7 30  1  0  0  0  0
  8 28  2  0  0  0  0
  8 31  1  0  0  0  0
  9 10  1  0  0  0  0
  9 11  1  0  0  0  0
  9 13  1  0  0  0  0
  9 38  1  0  0  0  0
 10 14  1  0  0  0  0
 10 15  1  0  0  0  0
 10 39  1  0  0  0  0
 11 12  1  0  0  0  0
 11 40  1  0  0  0  0
 11 41  1  0  0  0  0
 12 16  1  0  0  0  0
 12 17  1  0  0  0  0
 12 42  1  0  0  0  0
 13 18  1  0  0  0  0
 13 19  1  0  0  0  0
 13 43  1  0  0  0  0
 14 44  1  0  0  0  0
 14 45  1  0  0  0  0
 15 16  2  0  0  0  0
 15 46  1  0  0  0  0
 16 22  1  0  0  0  0
 17 25  1  0  0  0  0
 17 47  1  0  0  0  0
 17 48  1  0  0  0  0
 18 49  1  0  0  0  0
 18 50  1  0  0  0  0
 18 51  1  0  0  0  0
 19 52  1  0  0  0  0
 19 53  1  0  0  0  0
 19 54  1  0  0  0  0
 20 23  1  0  0  0  0
 20 55  1  0  0  0  0
 20 56  1  0  0  0  0
 21 24  1  0  0  0  0
 21 57  1  0  0  0  0
 21 58  1  0  0  0  0
 22 59  1  0  0  0  0
 22 60  1  0  0  0  0
 22 61  1  0  0  0  0
 23 62  1  0  0  0  0
 23 63  1  0  0  0  0
 24 64  1  0  0  0  0
 24 65  1  0  0  0  0
 26 28  1  0  0  0  0
 27 29  1  0  0  0  0
 28 66  1  0  0  0  0
 29 32  2  0  0  0  0
 29 33  1  0  0  0  0
 30 31  2  0  0  0  0
 30 67  1  0  0  0  0
 31 68  1  0  0  0  0
 32 34  1  0  0  0  0
 32 69  1  0  0  0  0
 33 35  2  0  0  0  0
 33 70  1  0  0  0  0
 34 36  2  0  0  0  0
 34 71  1  0  0  0  0
 35 36  1  0  0  0  0
 35 72  1  0  0  0  0
 37 73  1  0  0  0  0
 37 74  1  0  0  0  0
 37 75  1  0  0  0  0
M  END
> <PUBCHEM_COMPOUND_CID>
45783965

> <PUBCHEM_CONFORMER_RMSD>
1.2

> <PUBCHEM_CONFORMER_DIVERSEORDER>
8
90
75
114
122
23
44
67
29
48
79
97
60
74
55
26
53
111
10
82
101
50
19
83
43
15
127
119
77
37
128
40
33
134
133
57
136
102
38
22
103
52
95
115
125
20
62
47
66
71
81
64
58
69
105
116
21
112
130
28
92
61
5
41
96
27
80
84
76
120
85
68
51
31
117
131
108
46
126
129
25
106
73
59
107
49
93
110
109
39
56
88
78
70
24
91
11
54
124
94
7
34
16
113
72
36
9
14
2
123
100
6
98
35
65
87
135
30
118
17
4
86
12
104
42
18
99
13
32
132
45
1
121
3
63
89

> <PUBCHEM_MMFF94_PARTIAL_CHARGES>
40
1 -0.28
10 0.14
12 0.14
14 0.27
15 -0.29
16 -0.28
17 0.18
2 -0.36
20 0.27
21 0.27
22 0.14
23 0.37
24 0.37
25 0.3
26 0.41
27 0.43
28 0.16
29 0.05
3 -0.81
30 0.16
31 0.16
32 -0.15
33 -0.15
34 -0.15
35 -0.15
36 0.08
37 0.28
4 -0.84
46 0.15
5 -0.34
6 -0.34
66 0.15
67 0.15
68 0.15
69 0.15
7 -0.62
70 0.15
71 0.15
72 0.15
8 -0.62

> <PUBCHEM_EFFECTIVE_ROTOR_COUNT>
10

> <PUBCHEM_PHARMACOPHORE_FEATURES>
10
1 2 acceptor
1 3 cation
1 8 acceptor
3 13 18 19 hydrophobe
3 4 7 26 cation
5 1 5 6 25 27 rings
6 29 32 33 34 35 36 rings
6 3 4 20 21 23 24 rings
6 7 8 26 28 30 31 rings
6 9 10 11 12 15 16 rings

> <PUBCHEM_HEAVY_ATOM_COUNT>
37

> <PUBCHEM_ATOM_DEF_STEREO_COUNT>
3

> <PUBCHEM_ATOM_UDEF_STEREO_COUNT>
0

> <PUBCHEM_BOND_DEF_STEREO_COUNT>
0

> <PUBCHEM_BOND_UDEF_STEREO_COUNT>
0

> <PUBCHEM_ISOTOPIC_ATOM_COUNT>
0

> <PUBCHEM_COMPONENT_COUNT>
1

> <PUBCHEM_CACTVS_TAUTO_COUNT>
1

> <PUBCHEM_CONFORMER_ID>
02BA9B9D00000008

> <PUBCHEM_MMFF94_ENERGY>
106.1044

> <PUBCHEM_FEATURE_SELFOVERLAP>
50.748

> <PUBCHEM_SHAPE_FINGERPRINT>
10483366 6 15769781247142114504
10674148 151 18271524299898027784
10952577 141 18338242660606841868
11146346 40 18057338197751824254
11297750 10 17391908154645052950
11672396 167 8430305824461873545
11828532 37 10735292369150316189
1200032 147 18333447651695893538
12047536 79 17460306664875432829
12124843 1 17489020573595142776
12218070 45 14418705842940205762
12539765 74 18272932683387220303
12660671 118 17986676956856688678
12758862 65 11891338629878927196
12838863 1 11311783856593060100
13150687 139 16128372679670090941
13165053 103 11743302634529838316
13782708 43 10231458758339921131
14040221 8 13973411168007814257
14040221 97 18114460072454688629
14359421 15 12391514166189131125
14664723 55 18272378580770938592
14904525 67 18124591140402975448
14931854 50 17418372497850449843
15183329 4 16702312277976381946
15198563 99 17483658367678713055
15320295 40 12319463173568053656
15347590 135 14056995027606405264
15350500 16 10159701287546986404
15350500 55 18260545606963219641
16993427 108 9583528594320502092
17852330 162 13541594618701138138
19303781 99 9078827451271567913
2026 5 9295018985055186657
20721686 146 18334577923515296957
21344244 181 11239697713785982237
22002106 203 10809634744303819513
23569914 152 17916883327076476470
23576562 1 17130696356852908872
24771293 8 17603586348288565239
3918712 181 18342453742290227448
392239 28 15357972417260055610
3986486 107 17917993906217769652
406291 66 9943812192154670312
4169191 19 18341046325506585697
50009960 94 11819579059759355401
5080951 261 16732983155466826875
54039377 194 9655574110894829265
5718773 13 9511463333491709171
57527293 21 17822556253392259866
5874358 3 9799693700985070652
9689198 14 18261116296421113706

> <PUBCHEM_SHAPE_MULTIPOLES>
719.82
28.96
4.28
2.21
4.3
3.06
-0.88
-43.74
-2.83
0.42
-0.05
-1.32
-0.2
-1.18

> <PUBCHEM_SHAPE_SELFOVERLAP>
1535.001

> <PUBCHEM_SHAPE_VOLUME>
398.5

> <PUBCHEM_COORDINATE_TYPE>
2
5
10

$$$$
