9421717
  -OEChem-12032416153D

 57 60  0     1  0  0  0  0  0999 V2000
    1.4455    0.1599    2.1544 O   0  0  0  0  0  0  0  0  0  0  0  0
   -2.8216   -1.1908   -1.8874 O   0  0  0  0  0  0  0  0  0  0  0  0
    0.0690    1.3199    0.6683 N   0  0  0  0  0  0  0  0  0  0  0  0
   -2.8817    0.6022   -0.4132 N   0  0  0  0  0  0  0  0  0  0  0  0
   -3.4221   -1.5905    0.2904 N   0  0  0  0  0  0  0  0  0  0  0  0
   -2.2096    2.2662    1.3454 C   0  0  2  0  0  0  0  0  0  0  0  0
   -1.4120    2.5454   -0.9586 C   0  0  2  0  0  0  0  0  0  0  0  0
   -1.9582    3.2953    0.2527 C   0  0  0  0  0  0  0  0  0  0  0  0
   -0.8704    1.6384    1.7509 C   0  0  0  0  0  0  0  0  0  0  0  0
   -3.2264    1.2040    0.8843 C   0  0  0  0  0  0  0  0  0  0  0  0
   -2.4716    1.5489   -1.4578 C   0  0  0  0  0  0  0  0  0  0  0  0
   -0.1281    1.8106   -0.6245 C   0  0  0  0  0  0  0  0  0  0  0  0
    3.4610   -0.4267    0.2776 C   0  0  0  0  0  0  0  0  0  0  0  0
    2.2313    0.3599   -0.0644 C   0  0  0  0  0  0  0  0  0  0  0  0
    1.2227    0.5935    1.0230 C   0  0  0  0  0  0  0  0  0  0  0  0
    0.8030    1.6077   -1.5707 C   0  0  0  0  0  0  0  0  0  0  0  0
    4.7235    0.4284    0.0979 C   0  0  0  0  0  0  0  0  0  0  0  0
    3.5446   -1.7053   -0.5686 C   0  0  0  0  0  0  0  0  0  0  0  0
    1.9984    0.8687   -1.2810 C   0  0  0  0  0  0  0  0  0  0  0  0
    5.9923   -0.3683    0.3946 C   0  0  0  0  0  0  0  0  0  0  0  0
    4.8162   -2.4974   -0.2710 C   0  0  0  0  0  0  0  0  0  0  0  0
    6.0663   -1.6408   -0.4430 C   0  0  0  0  0  0  0  0  0  0  0  0
   -3.0255   -0.7568   -0.7489 C   0  0  0  0  0  0  0  0  0  0  0  0
   -3.6197   -3.0107    0.1054 C   0  0  0  0  0  0  0  0  0  0  0  0
   -5.0495   -3.2929   -0.3374 C   0  0  0  0  0  0  0  0  0  0  0  0
   -3.2772   -3.7689    1.3817 C   0  0  0  0  0  0  0  0  0  0  0  0
   -2.6322    2.7647    2.2269 H   0  0  0  0  0  0  0  0  0  0  0  0
   -1.2218    3.2763   -1.7555 H   0  0  0  0  0  0  0  0  0  0  0  0
   -1.2451    4.0563    0.5938 H   0  0  0  0  0  0  0  0  0  0  0  0
   -2.8878    3.8176   -0.0040 H   0  0  0  0  0  0  0  0  0  0  0  0
   -0.3376    2.3402    2.4073 H   0  0  0  0  0  0  0  0  0  0  0  0
   -1.0352    0.7336    2.3493 H   0  0  0  0  0  0  0  0  0  0  0  0
   -3.3329    0.4673    1.6797 H   0  0  0  0  0  0  0  0  0  0  0  0
   -4.2095    1.6721    0.7503 H   0  0  0  0  0  0  0  0  0  0  0  0
   -3.3768    2.0866   -1.7670 H   0  0  0  0  0  0  0  0  0  0  0  0
   -2.1056    1.0144   -2.3415 H   0  0  0  0  0  0  0  0  0  0  0  0
    3.4351   -0.7418    1.3282 H   0  0  0  0  0  0  0  0  0  0  0  0
    0.6712    1.9698   -2.5849 H   0  0  0  0  0  0  0  0  0  0  0  0
    4.6845    1.3005    0.7628 H   0  0  0  0  0  0  0  0  0  0  0  0
    4.7930    0.8167   -0.9263 H   0  0  0  0  0  0  0  0  0  0  0  0
    3.5295   -1.4693   -1.6403 H   0  0  0  0  0  0  0  0  0  0  0  0
    2.6721   -2.3419   -0.3747 H   0  0  0  0  0  0  0  0  0  0  0  0
    2.6962    0.7340   -2.1007 H   0  0  0  0  0  0  0  0  0  0  0  0
    6.0182   -0.6297    1.4597 H   0  0  0  0  0  0  0  0  0  0  0  0
    6.8726    0.2541    0.1979 H   0  0  0  0  0  0  0  0  0  0  0  0
    4.8717   -3.3679   -0.9346 H   0  0  0  0  0  0  0  0  0  0  0  0
    4.7747   -2.8815    0.7557 H   0  0  0  0  0  0  0  0  0  0  0  0
    6.1843   -1.3753   -1.5008 H   0  0  0  0  0  0  0  0  0  0  0  0
    6.9522   -2.2193   -0.1579 H   0  0  0  0  0  0  0  0  0  0  0  0
   -3.7287   -1.2140    1.1759 H   0  0  0  0  0  0  0  0  0  0  0  0
   -2.9418   -3.3536   -0.6855 H   0  0  0  0  0  0  0  0  0  0  0  0
   -5.2050   -4.3647   -0.4989 H   0  0  0  0  0  0  0  0  0  0  0  0
   -5.7718   -2.9525    0.4131 H   0  0  0  0  0  0  0  0  0  0  0  0
   -5.2805   -2.7741   -1.2742 H   0  0  0  0  0  0  0  0  0  0  0  0
   -2.2420   -3.5734    1.6825 H   0  0  0  0  0  0  0  0  0  0  0  0
   -3.3908   -4.8486    1.2389 H   0  0  0  0  0  0  0  0  0  0  0  0
   -3.9243   -3.4644    2.2119 H   0  0  0  0  0  0  0  0  0  0  0  0
  1 15  2  0  0  0  0
  2 23  2  0  0  0  0
  3  9  1  0  0  0  0
  3 12  1  0  0  0  0
  3 15  1  0  0  0  0
  4 10  1  0  0  0  0
  4 11  1  0  0  0  0
  4 23  1  0  0  0  0
  5 23  1  0  0  0  0
  5 24  1  0  0  0  0
  5 50  1  0  0  0  0
  6  8  1  0  0  0  0
  6  9  1  0  0  0  0
  6 10  1  0  0  0  0
  6 27  1  0  0  0  0
  7  8  1  0  0  0  0
  7 11  1  0  0  0  0
  7 12  1  0  0  0  0
  7 28  1  0  0  0  0
  8 29  1  0  0  0  0
  8 30  1  0  0  0  0
  9 31  1  0  0  0  0
  9 32  1  0  0  0  0
 10 33  1  0  0  0  0
 10 34  1  0  0  0  0
 11 35  1  0  0  0  0
 11 36  1  0  0  0  0
 12 16  2  0  0  0  0
 13 14  1  0  0  0  0
 13 17  1  0  0  0  0
 13 18  1  0  0  0  0
 13 37  1  0  0  0  0
 14 15  1  0  0  0  0
 14 19  2  0  0  0  0
 16 19  1  0  0  0  0
 16 38  1  0  0  0  0
 17 20  1  0  0  0  0
 17 39  1  0  0  0  0
 17 40  1  0  0  0  0
 18 21  1  0  0  0  0
 18 41  1  0  0  0  0
 18 42  1  0  0  0  0
 19 43  1  0  0  0  0
 20 22  1  0  0  0  0
 20 44  1  0  0  0  0
 20 45  1  0  0  0  0
 21 22  1  0  0  0  0
 21 46  1  0  0  0  0
 21 47  1  0  0  0  0
 22 48  1  0  0  0  0
 22 49  1  0  0  0  0
 24 25  1  0  0  0  0
 24 26  1  0  0  0  0
 24 51  1  0  0  0  0
 25 52  1  0  0  0  0
 25 53  1  0  0  0  0
 25 54  1  0  0  0  0
 26 55  1  0  0  0  0
 26 56  1  0  0  0  0
 26 57  1  0  0  0  0
M  END
> <PUBCHEM_COMPOUND_CID>
9421717

> <PUBCHEM_CONFORMER_RMSD>
0.8

> <PUBCHEM_CONFORMER_DIVERSEORDER>
1
6
4
8
7
3
10
5
14
11
13
2
12
9

> <PUBCHEM_MMFF94_PARTIAL_CHARGES>
20
1 -0.57
10 0.3
11 0.3
12 -0.03
13 0.14
14 -0.12
15 0.62
16 -0.15
19 -0.15
2 -0.57
23 0.69
24 0.3
3 -0.47
38 0.15
4 -0.66
43 0.15
5 -0.73
50 0.37
7 0.14
9 0.3

> <PUBCHEM_EFFECTIVE_ROTOR_COUNT>
6.2

> <PUBCHEM_PHARMACOPHORE_FEATURES>
8
1 1 acceptor
1 2 acceptor
1 5 donor
3 24 25 26 hydrophobe
6 13 17 18 20 21 22 rings
6 3 12 14 15 16 19 rings
6 3 6 7 8 9 12 rings
6 4 6 7 8 10 11 rings

> <PUBCHEM_HEAVY_ATOM_COUNT>
26

> <PUBCHEM_ATOM_DEF_STEREO_COUNT>
2

> <PUBCHEM_ATOM_UDEF_STEREO_COUNT>
0

> <PUBCHEM_BOND_DEF_STEREO_COUNT>
0

> <PUBCHEM_BOND_UDEF_STEREO_COUNT>
0

> <PUBCHEM_ISOTOPIC_ATOM_COUNT>
0

> <PUBCHEM_COMPONENT_COUNT>
1

> <PUBCHEM_CACTVS_TAUTO_COUNT>
2

> <PUBCHEM_CONFORMER_ID>
008FC39500000001

> <PUBCHEM_MMFF94_ENERGY>
47.0507

> <PUBCHEM_FEATURE_SELFOVERLAP>
42.143

> <PUBCHEM_SHAPE_FINGERPRINT>
107951 10 18053379899465677381
11135609 12 18335143128236799587
11552529 35 18201996599608815728
121448 382 17894629227875911866
12633257 1 16056602126744142007
12760667 363 18341893017799531351
13009979 54 18338245945623612364
13103583 49 17131282379702934019
13544653 18 18201432631500290532
13583140 156 17702647870922541864
13631057 29 18411417332604285798
14251740 79 18187366531944068163
14251764 30 17897739888411824539
14739800 52 9222655615499937086
14844126 61 18060412508896639575
14866123 147 18411143528945717755
14950920 106 15984535740676498859
15163728 17 11098114666322817011
15209294 21 11455882555909333380
15664445 248 16014076466557677199
17349148 13 16732987488413250248
17909252 39 18191876840810832600
19141452 34 18264496087358516068
19315092 285 16770975803994822231
20775438 99 16897066839416647635
20775530 9 18336538430189414395
23379529 103 18189058766254424155
23402539 116 17096376029943184172
23466295 7 18336274491537526875
23503958 8 18413671300822242888
23559900 14 18342162359209008552
238 59 15140949721004959001
329604 57 18337955696529999094
4073 2 18341894031643778730
437815 12 18339354284253414831
484985 159 18336824204575828223
4921388 177 18339923697430814424
5104073 3 18201148851023032210
59755656 520 18125998261693339421
7970288 3 18267021850388820079
9981440 41 16054906464897208045

> <PUBCHEM_SHAPE_MULTIPOLES>
508.39
11.23
4.15
1.58
13.84
2.71
-0.17
11.01
0.48
-6.05
-0.36
-0.75
-0.46
0.21

> <PUBCHEM_SHAPE_SELFOVERLAP>
1074.5

> <PUBCHEM_SHAPE_VOLUME>
276.9

> <PUBCHEM_COORDINATE_TYPE>
2
5
10

$$$$
