11883396
  -OEChem-12032416283D

 53 56  0     1  0  0  0  0  0999 V2000
    8.6324    1.5311   -0.5715 F   0  0  0  0  0  0  0  0  0  0  0  0
    8.1989   -0.5720   -0.8764 F   0  0  0  0  0  0  0  0  0  0  0  0
    7.4004    0.9105   -2.2525 F   0  0  0  0  0  0  0  0  0  0  0  0
   -1.2120   -1.0742   -1.2781 O   0  0  0  0  0  0  0  0  0  0  0  0
   -2.2430   -3.1404    0.7396 O   0  0  0  0  0  0  0  0  0  0  0  0
    1.0009   -1.6913    0.2805 O   0  0  0  0  0  0  0  0  0  0  0  0
   -6.1204   -1.4207    0.1127 O   0  0  0  0  0  0  0  0  0  0  0  0
   -7.3386    3.3749    0.0860 O   0  0  0  0  0  0  0  0  0  0  0  0
    1.4712   -0.0351    1.7857 O   0  0  0  0  0  0  0  0  0  0  0  0
   -4.2350   -0.4487   -0.7615 N   0  0  0  0  0  0  0  0  0  0  0  0
   -6.1817    0.8416   -0.3955 N   0  0  0  0  0  0  0  0  0  0  0  0
    3.0319   -0.7160    0.1790 N   0  0  0  0  0  0  0  0  0  0  0  0
   -2.6160   -1.7667    0.5030 C   0  0  1  0  0  0  0  0  0  0  0  0
   -1.3445   -1.0206    0.1522 C   0  0  1  0  0  0  0  0  0  0  0  0
   -3.4535   -1.6650   -0.7504 C   0  0  2  0  0  0  0  0  0  0  0  0
   -0.2828   -1.8418    0.8436 C   0  0  1  0  0  0  0  0  0  0  0  0
   -2.3980   -1.6538   -1.8429 C   0  0  0  0  0  0  0  0  0  0  0  0
   -0.8131   -3.2488    0.6836 C   0  0  0  0  0  0  0  0  0  0  0  0
   -5.5512   -0.4115   -0.3163 C   0  0  0  0  0  0  0  0  0  0  0  0
    1.8201   -0.7339    0.8419 C   0  0  0  0  0  0  0  0  0  0  0  0
   -5.6334    2.0491   -1.0294 C   0  0  0  0  0  0  0  0  0  0  0  0
   -7.5723    0.9703    0.0458 C   0  0  0  0  0  0  0  0  0  0  0  0
   -5.9410    3.2873   -0.1940 C   0  0  0  0  0  0  0  0  0  0  0  0
   -7.7743    2.2469    0.8470 C   0  0  0  0  0  0  0  0  0  0  0  0
    4.1504    0.1105    0.4321 C   0  0  0  0  0  0  0  0  0  0  0  0
    5.3006   -0.0131   -0.3471 C   0  0  0  0  0  0  0  0  0  0  0  0
    4.1033    1.0500    1.4621 C   0  0  0  0  0  0  0  0  0  0  0  0
    6.4038    0.8027   -0.0964 C   0  0  0  0  0  0  0  0  0  0  0  0
    5.2065    1.8660    1.7128 C   0  0  0  0  0  0  0  0  0  0  0  0
    6.3567    1.7422    0.9335 C   0  0  0  0  0  0  0  0  0  0  0  0
    7.6336    0.6705   -0.9291 C   0  0  0  0  0  0  0  0  0  0  0  0
   -3.1016   -1.3934    1.4102 H   0  0  0  0  0  0  0  0  0  0  0  0
   -1.3475    0.0329    0.4465 H   0  0  0  0  0  0  0  0  0  0  0  0
   -4.1247   -2.5205   -0.8820 H   0  0  0  0  0  0  0  0  0  0  0  0
   -0.2869   -1.6129    1.9182 H   0  0  0  0  0  0  0  0  0  0  0  0
   -2.1430   -2.6738   -2.1509 H   0  0  0  0  0  0  0  0  0  0  0  0
   -2.6895   -1.0884   -2.7333 H   0  0  0  0  0  0  0  0  0  0  0  0
   -0.5293   -3.6940   -0.2766 H   0  0  0  0  0  0  0  0  0  0  0  0
   -0.4641   -3.9179    1.4760 H   0  0  0  0  0  0  0  0  0  0  0  0
   -3.7391    0.3992   -0.9970 H   0  0  0  0  0  0  0  0  0  0  0  0
   -4.5619    1.9993   -1.2132 H   0  0  0  0  0  0  0  0  0  0  0  0
   -6.1320    2.1274   -2.0030 H   0  0  0  0  0  0  0  0  0  0  0  0
   -8.1823    0.9970   -0.8651 H   0  0  0  0  0  0  0  0  0  0  0  0
   -7.8829    0.1018    0.6341 H   0  0  0  0  0  0  0  0  0  0  0  0
   -5.6510    4.1895   -0.7418 H   0  0  0  0  0  0  0  0  0  0  0  0
   -5.3831    3.2766    0.7500 H   0  0  0  0  0  0  0  0  0  0  0  0
   -7.2279    2.2154    1.7972 H   0  0  0  0  0  0  0  0  0  0  0  0
   -8.8358    2.3841    1.0750 H   0  0  0  0  0  0  0  0  0  0  0  0
    3.1355   -1.3778   -0.5863 H   0  0  0  0  0  0  0  0  0  0  0  0
    5.3410   -0.7447   -1.1510 H   0  0  0  0  0  0  0  0  0  0  0  0
    3.2486    1.2029    2.1061 H   0  0  0  0  0  0  0  0  0  0  0  0
    5.1709    2.5980    2.5146 H   0  0  0  0  0  0  0  0  0  0  0  0
    7.2057    2.3866    1.1441 H   0  0  0  0  0  0  0  0  0  0  0  0
  1 31  1  0  0  0  0
  2 31  1  0  0  0  0
  3 31  1  0  0  0  0
  4 14  1  0  0  0  0
  4 17  1  0  0  0  0
  5 13  1  0  0  0  0
  5 18  1  0  0  0  0
  6 16  1  0  0  0  0
  6 20  1  0  0  0  0
  7 19  2  0  0  0  0
  8 23  1  0  0  0  0
  8 24  1  0  0  0  0
  9 20  2  0  0  0  0
 10 15  1  0  0  0  0
 10 19  1  0  0  0  0
 10 40  1  0  0  0  0
 11 19  1  0  0  0  0
 11 21  1  0  0  0  0
 11 22  1  0  0  0  0
 12 20  1  0  0  0  0
 12 25  1  0  0  0  0
 12 49  1  0  0  0  0
 13 14  1  0  0  0  0
 13 15  1  0  0  0  0
 13 32  1  0  0  0  0
 14 16  1  0  0  0  0
 14 33  1  0  0  0  0
 15 17  1  0  0  0  0
 15 34  1  0  0  0  0
 16 18  1  0  0  0  0
 16 35  1  0  0  0  0
 17 36  1  0  0  0  0
 17 37  1  0  0  0  0
 18 38  1  0  0  0  0
 18 39  1  0  0  0  0
 21 23  1  0  0  0  0
 21 41  1  0  0  0  0
 21 42  1  0  0  0  0
 22 24  1  0  0  0  0
 22 43  1  0  0  0  0
 22 44  1  0  0  0  0
 23 45  1  0  0  0  0
 23 46  1  0  0  0  0
 24 47  1  0  0  0  0
 24 48  1  0  0  0  0
 25 26  1  0  0  0  0
 25 27  2  0  0  0  0
 26 28  2  0  0  0  0
 26 50  1  0  0  0  0
 27 29  1  0  0  0  0
 27 51  1  0  0  0  0
 28 30  1  0  0  0  0
 28 31  1  0  0  0  0
 29 30  2  0  0  0  0
 29 52  1  0  0  0  0
 30 53  1  0  0  0  0
M  END
> <PUBCHEM_COMPOUND_CID>
11883396

> <PUBCHEM_CONFORMER_RMSD>
1

> <PUBCHEM_CONFORMER_DIVERSEORDER>
1
70
81
59
28
92
90
12
52
77
32
21
19
69
54
61
56
104
100
51
68
82
62
30
22
78
98
88
91
108
15
84
86
42
63
27
31
20
72
93
85
96
13
94
73
47
74
75
29
26
79
60
83
44
76
58
99
18
40
17
103
35
38
71
4
97
8
65
109
39
107
67
11
6
43
89
87
45
37
9
36
23
102
106
55
46
3
2
50
16
34
66
25
5
24
57
49
14
53
33
41
7
101
64
10
48
95
80
105

> <PUBCHEM_MMFF94_PARTIAL_CHARGES>
37
1 -0.34
10 -0.73
11 -0.66
12 -0.55
13 0.28
14 0.28
15 0.3
16 0.28
17 0.28
18 0.28
19 0.69
2 -0.34
20 0.78
21 0.3
22 0.3
23 0.28
24 0.28
25 0.12
26 -0.15
27 -0.15
28 -0.14
29 -0.15
3 -0.34
30 -0.15
31 1.16
4 -0.56
40 0.37
49 0.37
5 -0.56
50 0.15
51 0.15
52 0.15
53 0.15
6 -0.43
7 -0.57
8 -0.56
9 -0.57

> <PUBCHEM_EFFECTIVE_ROTOR_COUNT>
10.4

> <PUBCHEM_PHARMACOPHORE_FEATURES>
11
1 10 donor
1 12 donor
1 4 acceptor
1 5 acceptor
1 7 acceptor
1 8 acceptor
1 9 acceptor
5 4 13 14 15 17 rings
5 5 13 14 16 18 rings
6 25 26 27 28 29 30 rings
6 8 11 21 22 23 24 rings

> <PUBCHEM_HEAVY_ATOM_COUNT>
31

> <PUBCHEM_ATOM_DEF_STEREO_COUNT>
4

> <PUBCHEM_ATOM_UDEF_STEREO_COUNT>
0

> <PUBCHEM_BOND_DEF_STEREO_COUNT>
0

> <PUBCHEM_BOND_UDEF_STEREO_COUNT>
0

> <PUBCHEM_ISOTOPIC_ATOM_COUNT>
0

> <PUBCHEM_COMPONENT_COUNT>
1

> <PUBCHEM_CACTVS_TAUTO_COUNT>
4

> <PUBCHEM_CONFORMER_ID>
00B5538400000001

> <PUBCHEM_MMFF94_ENERGY>
76.5502

> <PUBCHEM_FEATURE_SELFOVERLAP>
56.54

> <PUBCHEM_SHAPE_FINGERPRINT>
10 15 15936402347343518103
10190206 1 17846505794325022105
10369192 42 18342454834123933175
10674148 151 18410852166806299936
11181472 205 18186800306365241296
11408170 132 18411706522144516516
1200032 147 18113616764141810850
12596602 18 12396840204713267766
13782708 43 8430320155517123574
14747281 78 18270691844034538838
14904525 67 18263363766903502932
14919807 6 18341905048049978500
15183329 4 17132115740522712595
15350500 16 10447922854652234761
15519825 34 8934997058092769988
15604295 49 18270674407058472496
15728490 51 10953464028932492536
1577012 14 18408597050618582859
16126227 98 18334576841441981197
16992610 120 18335150773689946100
190975 80 8214141859287771766
2026 5 9151172057022140817
21033648 29 18198610216070999264
21095123 293 17967254182651793181
21136928 87 11898578776836752903
21223535 225 18342444954881909732
21424621 283 18408321069126622515
21585482 111 18263923242476197941
21756936 100 18410848889667488815
22864921 47 11167950108844234076
23389318 12 11383822801840381770
23559900 14 14620219931669712842
23569914 152 17414444879423943638
255183 313 13767931234440839577
3711267 37 17458065984516261276
392239 28 15285361726023747659
406291 66 10015569624203813317
4098825 35 18412824660048234686
44802255 64 17847061108248727367
44880568 143 18268992171489333832
4516262 110 18262509292313452863
508180 173 18202280342159864113
5385378 56 17967805025545938266
5718773 13 9655570820965366841
5719381 82 10159690310207008389
5758199 1 17967250892848729627
57634706 229 18261402139464285579
5911458 16 18113344106327081957
59682541 35 11674882221362732134
636775 72 18267856362428691432
6376802 137 11891337500639697437
6703917 75 18187652439817742539
9689198 14 18410578370677057263
9953998 17 12252174161475640775

> <PUBCHEM_SHAPE_MULTIPOLES>
565.99
26.89
3.37
1.43
15.49
0.41
-0.23
24.73
-5.85
-6.45
0.56
1.75
0.08
0.24

> <PUBCHEM_SHAPE_SELFOVERLAP>
1211.34

> <PUBCHEM_SHAPE_VOLUME>
313.5

> <PUBCHEM_COORDINATE_TYPE>
2
5
10

$$$$
