75536858
  -OEChem-12032416343D

 46 48  0     1  0  0  0  0  0999 V2000
    2.2118   -0.3704    1.3607 S   0  0  0  0  0  0  0  0  0  0  0  0
   -6.2699   -1.4380    0.3729 F   0  0  0  0  0  0  0  0  0  0  0  0
   -5.1736   -2.1900   -1.3476 F   0  0  0  0  0  0  0  0  0  0  0  0
   -4.5916   -2.7917    0.6531 F   0  0  0  0  0  0  0  0  0  0  0  0
    1.8153    3.7425   -0.9126 O   0  0  0  0  0  0  0  0  0  0  0  0
   -1.4889    2.6118    0.2011 O   0  0  0  0  0  0  0  0  0  0  0  0
    1.0209   -1.1161    1.7001 O   0  0  0  0  0  0  0  0  0  0  0  0
    3.1216    0.0952    2.3830 O   0  0  0  0  0  0  0  0  0  0  0  0
    4.7851   -2.4281   -0.8182 O   0  0  0  0  0  0  0  0  0  0  0  0
    1.7704    0.9590    0.3668 N   0  0  1  0  0  0  0  0  0  0  0  0
    3.6771   -2.5393   -1.6494 N   0  0  0  0  0  0  0  0  0  0  0  0
   -1.8982    0.3961   -0.3464 N   0  0  0  0  0  0  0  0  0  0  0  0
    0.6666    1.8139    0.8993 C   0  0  0  0  0  0  0  0  0  0  0  0
   -0.1626    2.3575   -0.2610 C   0  0  2  0  0  0  0  0  0  0  0  0
    2.9186    1.7274   -0.1990 C   0  0  0  0  0  0  0  0  0  0  0  0
    0.3983    3.6432   -0.8731 C   0  0  0  0  0  0  0  0  0  0  0  0
    2.4872    2.5811   -1.3842 C   0  0  0  0  0  0  0  0  0  0  0  0
    3.1372   -1.3235    0.1992 C   0  0  0  0  0  0  0  0  0  0  0  0
    4.4512   -1.7021    0.2793 C   0  0  0  0  0  0  0  0  0  0  0  0
    2.7052   -1.8718   -1.0208 C   0  0  0  0  0  0  0  0  0  0  0  0
   -2.3685    1.5656    0.1422 C   0  0  0  0  0  0  0  0  0  0  0  0
    5.5170   -1.4876    1.2672 C   0  0  0  0  0  0  0  0  0  0  0  0
    1.3692   -1.7866   -1.6340 C   0  0  0  0  0  0  0  0  0  0  0  0
   -3.6697    1.7569    0.5781 C   0  0  0  0  0  0  0  0  0  0  0  0
   -4.5447    0.6785    0.5081 C   0  0  0  0  0  0  0  0  0  0  0  0
   -4.0980   -0.5410    0.0112 C   0  0  0  0  0  0  0  0  0  0  0  0
   -2.7776   -0.6294   -0.3993 C   0  0  0  0  0  0  0  0  0  0  0  0
   -5.0092   -1.7132   -0.0765 C   0  0  0  0  0  0  0  0  0  0  0  0
    1.0742    2.6238    1.5159 H   0  0  0  0  0  0  0  0  0  0  0  0
    0.0306    1.2208    1.5652 H   0  0  0  0  0  0  0  0  0  0  0  0
   -0.1664    1.6311   -1.0850 H   0  0  0  0  0  0  0  0  0  0  0  0
    3.6963    1.0492   -0.5562 H   0  0  0  0  0  0  0  0  0  0  0  0
    3.3477    2.3566    0.5899 H   0  0  0  0  0  0  0  0  0  0  0  0
    0.0060    3.7721   -1.8896 H   0  0  0  0  0  0  0  0  0  0  0  0
    0.0366    4.5116   -0.3097 H   0  0  0  0  0  0  0  0  0  0  0  0
    3.3872    2.9365   -1.8977 H   0  0  0  0  0  0  0  0  0  0  0  0
    1.8909    2.0298   -2.1203 H   0  0  0  0  0  0  0  0  0  0  0  0
    5.2139   -1.8602    2.2505 H   0  0  0  0  0  0  0  0  0  0  0  0
    6.4368   -2.0086    0.9828 H   0  0  0  0  0  0  0  0  0  0  0  0
    5.7507   -0.4222    1.3562 H   0  0  0  0  0  0  0  0  0  0  0  0
    1.1570   -0.7619   -1.9551 H   0  0  0  0  0  0  0  0  0  0  0  0
    1.2839   -2.4345   -2.5130 H   0  0  0  0  0  0  0  0  0  0  0  0
    0.5933   -2.0924   -0.9252 H   0  0  0  0  0  0  0  0  0  0  0  0
   -4.0024    2.7147    0.9630 H   0  0  0  0  0  0  0  0  0  0  0  0
   -5.5695    0.8068    0.8447 H   0  0  0  0  0  0  0  0  0  0  0  0
   -2.3716   -1.5551   -0.7954 H   0  0  0  0  0  0  0  0  0  0  0  0
  1  7  2  0  0  0  0
  1  8  2  0  0  0  0
  1 10  1  0  0  0  0
  1 18  1  0  0  0  0
  2 28  1  0  0  0  0
  3 28  1  0  0  0  0
  4 28  1  0  0  0  0
  5 16  1  0  0  0  0
  5 17  1  0  0  0  0
  6 14  1  0  0  0  0
  6 21  1  0  0  0  0
  9 11  1  0  0  0  0
  9 19  1  0  0  0  0
 10 13  1  0  0  0  0
 10 15  1  0  0  0  0
 11 20  2  0  0  0  0
 12 21  2  0  0  0  0
 12 27  1  0  0  0  0
 13 14  1  0  0  0  0
 13 29  1  0  0  0  0
 13 30  1  0  0  0  0
 14 16  1  0  0  0  0
 14 31  1  0  0  0  0
 15 17  1  0  0  0  0
 15 32  1  0  0  0  0
 15 33  1  0  0  0  0
 16 34  1  0  0  0  0
 16 35  1  0  0  0  0
 17 36  1  0  0  0  0
 17 37  1  0  0  0  0
 18 19  2  0  0  0  0
 18 20  1  0  0  0  0
 19 22  1  0  0  0  0
 20 23  1  0  0  0  0
 21 24  1  0  0  0  0
 22 38  1  0  0  0  0
 22 39  1  0  0  0  0
 22 40  1  0  0  0  0
 23 41  1  0  0  0  0
 23 42  1  0  0  0  0
 23 43  1  0  0  0  0
 24 25  2  0  0  0  0
 24 44  1  0  0  0  0
 25 26  1  0  0  0  0
 25 45  1  0  0  0  0
 26 27  2  0  0  0  0
 26 28  1  0  0  0  0
 27 46  1  0  0  0  0
M  END
> <PUBCHEM_COMPOUND_CID>
75536858

> <PUBCHEM_CONFORMER_RMSD>
1

> <PUBCHEM_CONFORMER_DIVERSEORDER>
1
104
226
194
72
242
143
29
210
255
249
185
221
234
192
266
61
239
154
18
264
98
136
38
96
258
174
171
21
231
47
243
217
199
245
254
267
12
101
159
197
202
57
79
122
175
89
68
80
112
87
232
34
19
49
256
48
90
182
163
36
274
257
111
20
78
130
176
93
53
105
85
198
269
183
275
259
133
132
43
253
219
4
97
37
11
236
35
156
58
191
265
22
187
88
229
240
77
141
9
162
107
178
71
207
263
84
247
195
235
146
173
114
115
271
250
155
117
109
161
27
179
167
74
124
76
3
62
222
5
138
251
223
225
17
73
144
228
218
268
25
200
66
41
270
238
213
180
137
177
33
127
205
206
75
26
82
208
272
65
67
94
91
102
227
8
201
203
262
153
157
95
216
261
44
10
224
181
220
244
24
135
140
55
248
139
188
204
166
118
168
145
196
260
151
16
214
233
148
120
128
123
186
30
70
60
6
190
121
39
31
131
54
152
172
52
2
160
113
170
142
252
273
169
69
40
99
276
164
209
241
110
246
158
184
106
15
211
51
100
23
149
103
7
134
108
86
14
64
147
46
119
126
129
116
189
165
59
150
212
215
63
125
45
28
81
32
50
193
13
83
277
42
230
237
56
92

> <PUBCHEM_MMFF94_PARTIAL_CHARGES>
31
1 1.5
10 -0.85
11 -0.41
12 -0.62
13 0.36
14 0.28
15 0.36
16 0.28
17 0.28
18 -0.06
19 -0.04
2 -0.34
20 0.11
21 0.39
22 0.18
23 0.18
24 -0.15
25 -0.15
26 -0.14
27 0.16
28 1.16
3 -0.34
4 -0.34
44 0.15
45 0.15
46 0.15
5 -0.56
6 -0.36
7 -0.65
8 -0.65
9 -0.02

> <PUBCHEM_EFFECTIVE_ROTOR_COUNT>
6.4

> <PUBCHEM_PHARMACOPHORE_FEATURES>
7
1 11 acceptor
1 5 acceptor
1 7 acceptor
1 8 acceptor
5 9 11 18 19 20 rings
6 12 21 24 25 26 27 rings
7 5 10 13 14 15 16 17 rings

> <PUBCHEM_HEAVY_ATOM_COUNT>
28

> <PUBCHEM_ATOM_DEF_STEREO_COUNT>
1

> <PUBCHEM_ATOM_UDEF_STEREO_COUNT>
0

> <PUBCHEM_BOND_DEF_STEREO_COUNT>
0

> <PUBCHEM_BOND_UDEF_STEREO_COUNT>
0

> <PUBCHEM_ISOTOPIC_ATOM_COUNT>
0

> <PUBCHEM_COMPONENT_COUNT>
1

> <PUBCHEM_CACTVS_TAUTO_COUNT>
1

> <PUBCHEM_CONFORMER_ID>
048099DA00000001

> <PUBCHEM_MMFF94_ENERGY>
65.1728

> <PUBCHEM_FEATURE_SELFOVERLAP>
35.541

> <PUBCHEM_SHAPE_FINGERPRINT>
10042902 136 18411984624405510268
11014199 57 18411426076735824361
11135609 12 18412827967225325817
11315621 136 18262805184492893493
12107183 9 18267878190190929033
12128747 34 16771545049979552809
12422481 6 18127666328543708546
12553582 1 18042964276959892833
12596599 1 18339365154293148457
13009979 54 18201167567752296097
13402501 40 18130787789587480887
13533116 47 18267305512183378979
13690498 29 17968946284092002085
13911882 115 17988640736569120398
14114206 34 17168429238197361369
14251740 57 18342738541586935779
14863182 85 18267861873151079216
17492 89 18338519741868716963
1813 80 18334578992877887020
20645477 70 18261953076220086621
20775530 9 18413103940211929491
21421861 104 18340220686356847493
23379529 103 18270409278093702774
23559900 14 18411697686694583685
338550 245 18272086128005135519
4280585 95 18261668165126802600
513532 50 13262673781383835294
6287921 2 18201710786762764856
6823239 73 18341332210401437186
7970288 3 18262514784595994594
9709674 26 18262242226345241601

> <PUBCHEM_SHAPE_MULTIPOLES>
513.97
11.77
4.18
1.5
9.38
2.53
-0.18
-11.21
-1.06
-0.52
1.64
-1.59
-0.39
-0.36

> <PUBCHEM_SHAPE_SELFOVERLAP>
1076.682

> <PUBCHEM_SHAPE_VOLUME>
292.3

> <PUBCHEM_COORDINATE_TYPE>
2
5
10

$$$$
