7049404
  -OEChem-12032416123D

 61 62  0     1  0  0  0  0  0999 V2000
   -3.5192    3.8829    1.9716 S   0  0  0  0  0  0  0  0  0  0  0  0
    3.5913    0.4556    2.5361 F   0  0  0  0  0  0  0  0  0  0  0  0
    7.7728   -0.1882    0.4192 F   0  0  0  0  0  0  0  0  0  0  0  0
   -2.1627   -0.0245    1.0422 O   0  0  0  0  0  0  0  0  0  0  0  0
   -4.8765    1.3226    0.3045 O   0  0  0  0  0  0  0  0  0  0  0  0
    2.0653    1.4322   -2.1969 O   0  0  0  0  0  0  0  0  0  0  0  0
   -2.2279   -4.8362    1.2158 O   0  0  0  0  0  0  0  0  0  0  0  0
   -3.5383   -3.8731   -0.4086 O   0  0  0  0  0  0  0  0  0  0  0  0
   -2.8479    1.8556   -0.6745 N   0  0  0  0  0  0  0  0  0  0  0  0
    0.3049    1.6227   -0.7099 N   0  0  0  0  0  0  0  0  0  0  0  0
   -1.9226   -1.6679   -0.5890 N   0  0  0  0  0  0  0  0  0  0  0  0
    2.3800    1.0542    0.0986 N   0  0  0  0  0  0  0  0  0  0  0  0
   -2.5906    0.5385   -1.2379 C   0  0  1  0  0  0  0  0  0  0  0  0
   -0.6998    1.9758   -1.6813 C   0  0  1  0  0  0  0  0  0  0  0  0
   -1.4346    0.7430   -2.2147 C   0  0  0  0  0  0  0  0  0  0  0  0
   -1.8148    2.8148   -1.0649 C   0  0  0  0  0  0  0  0  0  0  0  0
   -2.2137   -0.3956   -0.1275 C   0  0  0  0  0  0  0  0  0  0  0  0
   -4.0266    2.1578   -0.0094 C   0  0  0  0  0  0  0  0  0  0  0  0
   -1.5103   -2.7481    0.2778 C   0  0  2  0  0  0  0  0  0  0  0  0
   -0.1080   -3.2880   -0.0779 C   0  0  0  0  0  0  0  0  0  0  0  0
   -4.2230    3.6118    0.3389 C   0  0  0  0  0  0  0  0  0  0  0  0
    1.6418    1.3715   -1.0451 C   0  0  0  0  0  0  0  0  0  0  0  0
   -2.5437   -3.8687    0.3096 C   0  0  0  0  0  0  0  0  0  0  0  0
    0.9748   -2.2035   -0.0838 C   0  0  0  0  0  0  0  0  0  0  0  0
   -0.1203   -4.0212   -1.4226 C   0  0  0  0  0  0  0  0  0  0  0  0
    3.7560    0.7380    0.1835 C   0  0  0  0  0  0  0  0  0  0  0  0
   -3.8778    5.6489    2.1408 C   0  0  0  0  0  0  0  0  0  0  0  0
   -3.1508   -5.9263    1.3097 C   0  0  0  0  0  0  0  0  0  0  0  0
    4.3322    0.4423    1.4189 C   0  0  0  0  0  0  0  0  0  0  0  0
    4.5368    0.7213   -0.9722 C   0  0  0  0  0  0  0  0  0  0  0  0
    5.6892    0.1298    1.4986 C   0  0  0  0  0  0  0  0  0  0  0  0
    5.8939    0.4089   -0.8924 C   0  0  0  0  0  0  0  0  0  0  0  0
    6.4701    0.1133    0.3430 C   0  0  0  0  0  0  0  0  0  0  0  0
   -3.4921    0.1571   -1.7307 H   0  0  0  0  0  0  0  0  0  0  0  0
   -0.2067    2.5207   -2.4937 H   0  0  0  0  0  0  0  0  0  0  0  0
   -1.8530    0.9885   -3.1997 H   0  0  0  0  0  0  0  0  0  0  0  0
   -0.7773   -0.1215   -2.3448 H   0  0  0  0  0  0  0  0  0  0  0  0
   -2.2535    3.4734   -1.8231 H   0  0  0  0  0  0  0  0  0  0  0  0
   -1.4892    3.4162   -0.2123 H   0  0  0  0  0  0  0  0  0  0  0  0
    0.0181    1.4866    0.2548 H   0  0  0  0  0  0  0  0  0  0  0  0
   -2.0646   -1.8803   -1.5722 H   0  0  0  0  0  0  0  0  0  0  0  0
   -1.4741   -2.3543    1.3018 H   0  0  0  0  0  0  0  0  0  0  0  0
    0.1791   -4.0230    0.6860 H   0  0  0  0  0  0  0  0  0  0  0  0
   -5.2997    3.8115    0.3640 H   0  0  0  0  0  0  0  0  0  0  0  0
   -3.7838    4.2823   -0.4019 H   0  0  0  0  0  0  0  0  0  0  0  0
    1.9671   -2.6495   -0.2092 H   0  0  0  0  0  0  0  0  0  0  0  0
    0.9731   -1.6498    0.8606 H   0  0  0  0  0  0  0  0  0  0  0  0
    0.8246   -1.4937   -0.9021 H   0  0  0  0  0  0  0  0  0  0  0  0
    0.8753   -4.4203   -1.6474 H   0  0  0  0  0  0  0  0  0  0  0  0
   -0.8113   -4.8697   -1.4187 H   0  0  0  0  0  0  0  0  0  0  0  0
   -0.4001   -3.3552   -2.2454 H   0  0  0  0  0  0  0  0  0  0  0  0
    1.8761    1.0457    0.9819 H   0  0  0  0  0  0  0  0  0  0  0  0
   -3.3753    6.2157    1.3527 H   0  0  0  0  0  0  0  0  0  0  0  0
   -4.9555    5.8244    2.0919 H   0  0  0  0  0  0  0  0  0  0  0  0
   -3.5113    5.9995    3.1093 H   0  0  0  0  0  0  0  0  0  0  0  0
   -3.2142   -6.4517    0.3520 H   0  0  0  0  0  0  0  0  0  0  0  0
   -4.1356   -5.5634    1.6185 H   0  0  0  0  0  0  0  0  0  0  0  0
   -2.7794   -6.6216    2.0673 H   0  0  0  0  0  0  0  0  0  0  0  0
    4.1651    0.9381   -1.9635 H   0  0  0  0  0  0  0  0  0  0  0  0
    6.1379   -0.1006    2.4603 H   0  0  0  0  0  0  0  0  0  0  0  0
    6.5033    0.3950   -1.7914 H   0  0  0  0  0  0  0  0  0  0  0  0
  1 21  1  0  0  0  0
  1 27  1  0  0  0  0
  2 29  1  0  0  0  0
  3 33  1  0  0  0  0
  4 17  2  0  0  0  0
  5 18  2  0  0  0  0
  6 22  2  0  0  0  0
  7 23  1  0  0  0  0
  7 28  1  0  0  0  0
  8 23  2  0  0  0  0
  9 13  1  0  0  0  0
  9 16  1  0  0  0  0
  9 18  1  0  0  0  0
 10 14  1  0  0  0  0
 10 22  1  0  0  0  0
 10 40  1  0  0  0  0
 11 17  1  0  0  0  0
 11 19  1  0  0  0  0
 11 41  1  0  0  0  0
 12 22  1  0  0  0  0
 12 26  1  0  0  0  0
 12 52  1  0  0  0  0
 13 15  1  0  0  0  0
 13 17  1  0  0  0  0
 13 34  1  0  0  0  0
 14 15  1  0  0  0  0
 14 16  1  0  0  0  0
 14 35  1  0  0  0  0
 15 36  1  0  0  0  0
 15 37  1  0  0  0  0
 16 38  1  0  0  0  0
 16 39  1  0  0  0  0
 18 21  1  0  0  0  0
 19 20  1  0  0  0  0
 19 23  1  0  0  0  0
 19 42  1  0  0  0  0
 20 24  1  0  0  0  0
 20 25  1  0  0  0  0
 20 43  1  0  0  0  0
 21 44  1  0  0  0  0
 21 45  1  0  0  0  0
 24 46  1  0  0  0  0
 24 47  1  0  0  0  0
 24 48  1  0  0  0  0
 25 49  1  0  0  0  0
 25 50  1  0  0  0  0
 25 51  1  0  0  0  0
 26 29  2  0  0  0  0
 26 30  1  0  0  0  0
 27 53  1  0  0  0  0
 27 54  1  0  0  0  0
 27 55  1  0  0  0  0
 28 56  1  0  0  0  0
 28 57  1  0  0  0  0
 28 58  1  0  0  0  0
 29 31  1  0  0  0  0
 30 32  2  0  0  0  0
 30 59  1  0  0  0  0
 31 33  2  0  0  0  0
 31 60  1  0  0  0  0
 32 33  1  0  0  0  0
 32 61  1  0  0  0  0
M  END
> <PUBCHEM_COMPOUND_CID>
7049404

> <PUBCHEM_CONFORMER_RMSD>
1.2

> <PUBCHEM_CONFORMER_DIVERSEORDER>
1
4
28
8
21
3
25
16
27
7
30
22
19
10
13
31
9
6
17
23
5
15
29
12
2
20
18
24
14
26
11

> <PUBCHEM_MMFF94_PARTIAL_CHARGES>
35
1 -0.46
10 -0.73
11 -0.73
12 -0.55
13 0.36
14 0.3
16 0.3
17 0.57
18 0.57
19 0.36
2 -0.19
21 0.29
22 0.69
23 0.66
26 0.12
27 0.23
28 0.28
29 0.19
3 -0.19
30 -0.15
31 -0.15
32 -0.15
33 0.19
4 -0.57
40 0.37
41 0.37
5 -0.57
52 0.37
59 0.15
6 -0.57
60 0.15
61 0.15
7 -0.43
8 -0.57
9 -0.66

> <PUBCHEM_EFFECTIVE_ROTOR_COUNT>
14

> <PUBCHEM_PHARMACOPHORE_FEATURES>
11
1 10 donor
1 11 donor
1 12 donor
1 27 hydrophobe
1 4 acceptor
1 5 acceptor
1 6 acceptor
1 8 acceptor
3 20 24 25 hydrophobe
5 9 13 14 15 16 rings
6 26 29 30 31 32 33 rings

> <PUBCHEM_HEAVY_ATOM_COUNT>
33

> <PUBCHEM_ATOM_DEF_STEREO_COUNT>
3

> <PUBCHEM_ATOM_UDEF_STEREO_COUNT>
0

> <PUBCHEM_BOND_DEF_STEREO_COUNT>
0

> <PUBCHEM_BOND_UDEF_STEREO_COUNT>
0

> <PUBCHEM_ISOTOPIC_ATOM_COUNT>
0

> <PUBCHEM_COMPONENT_COUNT>
1

> <PUBCHEM_CACTVS_TAUTO_COUNT>
6

> <PUBCHEM_CONFORMER_ID>
006B90BC00000001

> <PUBCHEM_MMFF94_ENERGY>
76.1187

> <PUBCHEM_FEATURE_SELFOVERLAP>
55.873

> <PUBCHEM_SHAPE_FINGERPRINT>
12422481 6 17752486460528797192
12788726 201 17975993268435190630
13004483 165 17978510063779177343
13726171 33 18120684519839133428
14363568 33 17472138371446201091
14739800 52 17556574345121536401
14840074 17 17822013064957445828
14866123 147 18335422421782002487
15347590 135 18200044945755054161
15537594 2 17386000638325847368
244849 19 17703248238504082470
4058900 60 18124878958502244697
484985 159 18187352272821314055
508706 21 18410576197577197566
79837 15 18410859841464315347
9896288 288 18269845229330351737

> <PUBCHEM_SHAPE_MULTIPOLES>
619.16
12.66
7.58
1.97
24.7
9.33
-0.2
-9.67
-4.95
-15.55
-4.12
-0.07
-1.23
-1.04

> <PUBCHEM_SHAPE_SELFOVERLAP>
1264.353

> <PUBCHEM_SHAPE_VOLUME>
362.1

> <PUBCHEM_COORDINATE_TYPE>
2
5
10

$$$$
