56774615
  -OEChem-12032416213D

 58 62  0     1  0  0  0  0  0999 V2000
   -3.1276    2.4413    1.4359 O   0  0  0  0  0  0  0  0  0  0  0  0
   -2.7606    0.5047   -2.2827 O   0  0  0  0  0  0  0  0  0  0  0  0
   -6.4273    2.1733   -0.0067 O   0  0  0  0  0  0  0  0  0  0  0  0
    7.6343   -2.4951   -0.4650 O   0  0  0  0  0  0  0  0  0  0  0  0
    9.2871   -1.1801    0.6954 O   0  0  0  0  0  0  0  0  0  0  0  0
    4.1162    2.2748   -0.1687 O   0  0  0  0  0  0  0  0  0  0  0  0
   -4.6330    0.6995   -0.1641 N   0  0  0  0  0  0  0  0  0  0  0  0
    3.1979    0.1112   -0.2380 N   0  0  0  0  0  0  0  0  0  0  0  0
   -3.2047    0.4697    0.0871 C   0  0  1  0  0  0  0  0  0  0  0  0
   -2.3561    1.0675   -1.0391 C   0  0  1  0  0  0  0  0  0  0  0  0
   -2.8124    1.0540    1.4389 C   0  0  0  0  0  0  0  0  0  0  0  0
   -5.3094   -0.2079   -1.0812 C   0  0  0  0  0  0  0  0  0  0  0  0
   -5.2849    1.8364    0.3096 C   0  0  0  0  0  0  0  0  0  0  0  0
   -0.8853    0.8142   -0.8269 C   0  0  0  0  0  0  0  0  0  0  0  0
   -4.5208    2.6429    1.3536 C   0  0  0  0  0  0  0  0  0  0  0  0
   -6.0968   -1.2587   -0.3533 C   0  0  0  0  0  0  0  0  0  0  0  0
    0.0007    1.8876   -0.7326 C   0  0  0  0  0  0  0  0  0  0  0  0
   -0.4102   -0.4932   -0.7250 C   0  0  0  0  0  0  0  0  0  0  0  0
    1.3617    1.6534   -0.5363 C   0  0  0  0  0  0  0  0  0  0  0  0
    0.9506   -0.7275   -0.5287 C   0  0  0  0  0  0  0  0  0  0  0  0
    1.8366    0.3457   -0.4345 C   0  0  0  0  0  0  0  0  0  0  0  0
   -5.4955   -2.4704   -0.0130 C   0  0  0  0  0  0  0  0  0  0  0  0
   -7.4299   -1.0231   -0.0175 C   0  0  0  0  0  0  0  0  0  0  0  0
   -6.2274   -3.4467    0.6632 C   0  0  0  0  0  0  0  0  0  0  0  0
   -8.1618   -1.9992    0.6585 C   0  0  0  0  0  0  0  0  0  0  0  0
   -7.5606   -3.2110    0.9989 C   0  0  0  0  0  0  0  0  0  0  0  0
    4.2275    1.0544   -0.1198 C   0  0  0  0  0  0  0  0  0  0  0  0
    5.5832    0.4917    0.1142 C   0  0  0  0  0  0  0  0  0  0  0  0
    5.8881   -0.7936   -0.3403 C   0  0  0  0  0  0  0  0  0  0  0  0
    7.1593   -1.2731   -0.0998 C   0  0  0  0  0  0  0  0  0  0  0  0
    8.1032   -0.5223    0.5629 C   0  0  0  0  0  0  0  0  0  0  0  0
    6.5476    1.2588    0.7914 C   0  0  0  0  0  0  0  0  0  0  0  0
    7.8278    0.7495    1.0218 C   0  0  0  0  0  0  0  0  0  0  0  0
    8.9829   -2.4289    0.0417 C   0  0  0  0  0  0  0  0  0  0  0  0
   -3.0711   -0.6172    0.1375 H   0  0  0  0  0  0  0  0  0  0  0  0
   -2.5467    2.1441   -1.1234 H   0  0  0  0  0  0  0  0  0  0  0  0
   -1.7480    0.9404    1.6613 H   0  0  0  0  0  0  0  0  0  0  0  0
   -3.3574    0.5609    2.2545 H   0  0  0  0  0  0  0  0  0  0  0  0
   -4.6066   -0.7072   -1.7512 H   0  0  0  0  0  0  0  0  0  0  0  0
   -5.9817    0.3726   -1.7255 H   0  0  0  0  0  0  0  0  0  0  0  0
   -4.6855    3.7045    1.1419 H   0  0  0  0  0  0  0  0  0  0  0  0
   -4.9669    2.4270    2.3316 H   0  0  0  0  0  0  0  0  0  0  0  0
   -2.4538   -0.4158   -2.3328 H   0  0  0  0  0  0  0  0  0  0  0  0
   -0.3564    2.9113   -0.8092 H   0  0  0  0  0  0  0  0  0  0  0  0
   -1.0790   -1.3460   -0.7997 H   0  0  0  0  0  0  0  0  0  0  0  0
    1.9826    2.5357   -0.4733 H   0  0  0  0  0  0  0  0  0  0  0  0
    1.3068   -1.7517   -0.4522 H   0  0  0  0  0  0  0  0  0  0  0  0
   -4.4585   -2.6685   -0.2702 H   0  0  0  0  0  0  0  0  0  0  0  0
   -7.9155   -0.0878   -0.2809 H   0  0  0  0  0  0  0  0  0  0  0  0
   -5.7594   -4.3903    0.9278 H   0  0  0  0  0  0  0  0  0  0  0  0
   -9.2003   -1.8165    0.9187 H   0  0  0  0  0  0  0  0  0  0  0  0
    3.4324   -0.8715   -0.1315 H   0  0  0  0  0  0  0  0  0  0  0  0
   -8.1306   -3.9712    1.5250 H   0  0  0  0  0  0  0  0  0  0  0  0
    5.1926   -1.4106   -0.8972 H   0  0  0  0  0  0  0  0  0  0  0  0
    6.3123    2.2575    1.1514 H   0  0  0  0  0  0  0  0  0  0  0  0
    8.5738    1.3371    1.5446 H   0  0  0  0  0  0  0  0  0  0  0  0
    9.6788   -2.5663   -0.7939 H   0  0  0  0  0  0  0  0  0  0  0  0
    9.1287   -3.2450    0.7588 H   0  0  0  0  0  0  0  0  0  0  0  0
  1 11  1  0  0  0  0
  1 15  1  0  0  0  0
  2 10  1  0  0  0  0
  2 43  1  0  0  0  0
  3 13  2  0  0  0  0
  4 30  1  0  0  0  0
  4 34  1  0  0  0  0
  5 31  1  0  0  0  0
  5 34  1  0  0  0  0
  6 27  2  0  0  0  0
  7  9  1  0  0  0  0
  7 12  1  0  0  0  0
  7 13  1  0  0  0  0
  8 21  1  0  0  0  0
  8 27  1  0  0  0  0
  8 52  1  0  0  0  0
  9 10  1  0  0  0  0
  9 11  1  0  0  0  0
  9 35  1  0  0  0  0
 10 14  1  0  0  0  0
 10 36  1  0  0  0  0
 11 37  1  0  0  0  0
 11 38  1  0  0  0  0
 12 16  1  0  0  0  0
 12 39  1  0  0  0  0
 12 40  1  0  0  0  0
 13 15  1  0  0  0  0
 14 17  2  0  0  0  0
 14 18  1  0  0  0  0
 15 41  1  0  0  0  0
 15 42  1  0  0  0  0
 16 22  2  0  0  0  0
 16 23  1  0  0  0  0
 17 19  1  0  0  0  0
 17 44  1  0  0  0  0
 18 20  2  0  0  0  0
 18 45  1  0  0  0  0
 19 21  2  0  0  0  0
 19 46  1  0  0  0  0
 20 21  1  0  0  0  0
 20 47  1  0  0  0  0
 22 24  1  0  0  0  0
 22 48  1  0  0  0  0
 23 25  2  0  0  0  0
 23 49  1  0  0  0  0
 24 26  2  0  0  0  0
 24 50  1  0  0  0  0
 25 26  1  0  0  0  0
 25 51  1  0  0  0  0
 26 53  1  0  0  0  0
 27 28  1  0  0  0  0
 28 29  2  0  0  0  0
 28 32  1  0  0  0  0
 29 30  1  0  0  0  0
 29 54  1  0  0  0  0
 30 31  2  0  0  0  0
 31 33  1  0  0  0  0
 32 33  2  0  0  0  0
 32 55  1  0  0  0  0
 33 56  1  0  0  0  0
 34 57  1  0  0  0  0
 34 58  1  0  0  0  0
M  END
> <PUBCHEM_COMPOUND_CID>
56774615

> <PUBCHEM_CONFORMER_RMSD>
1

> <PUBCHEM_CONFORMER_DIVERSEORDER>
2
42
25
71
39
45
49
51
53
64
75
16
73
56
65
44
24
70
59
74
69
20
48
28
63
31
35
57
34
32
55
46
67
37
27
77
3
10
19
81
62
58
29
38
26
36
7
72
76
40
68
78
60
41
21
14
1
33
5
17
15
11
4
18
54
61
6
12
52
43
8
22
50
47
79
9
80
66
23
13
30

> <PUBCHEM_MMFF94_PARTIAL_CHARGES>
48
1 -0.56
10 0.42
11 0.28
12 0.44
13 0.57
14 -0.14
15 0.34
16 -0.14
17 -0.15
18 -0.15
19 -0.15
2 -0.68
20 -0.15
21 0.12
22 -0.15
23 -0.15
24 -0.15
25 -0.15
26 -0.15
27 0.54
28 0.09
29 -0.15
3 -0.57
30 0.08
31 0.08
32 -0.15
33 -0.15
34 0.56
4 -0.36
43 0.4
44 0.15
45 0.15
46 0.15
47 0.15
48 0.15
49 0.15
5 -0.36
50 0.15
51 0.15
52 0.37
53 0.15
54 0.15
55 0.15
56 0.15
6 -0.57
7 -0.66
8 -0.55
9 0.3

> <PUBCHEM_EFFECTIVE_ROTOR_COUNT>
8.6

> <PUBCHEM_PHARMACOPHORE_FEATURES>
13
1 1 acceptor
1 2 acceptor
1 2 donor
1 3 acceptor
1 4 acceptor
1 5 acceptor
1 6 acceptor
1 8 donor
5 4 5 30 31 34 rings
6 1 7 9 11 13 15 rings
6 14 17 18 19 20 21 rings
6 16 22 23 24 25 26 rings
6 28 29 30 31 32 33 rings

> <PUBCHEM_HEAVY_ATOM_COUNT>
34

> <PUBCHEM_ATOM_DEF_STEREO_COUNT>
2

> <PUBCHEM_ATOM_UDEF_STEREO_COUNT>
0

> <PUBCHEM_BOND_DEF_STEREO_COUNT>
0

> <PUBCHEM_BOND_UDEF_STEREO_COUNT>
0

> <PUBCHEM_ISOTOPIC_ATOM_COUNT>
0

> <PUBCHEM_COMPONENT_COUNT>
1

> <PUBCHEM_CACTVS_TAUTO_COUNT>
4

> <PUBCHEM_CONFORMER_ID>
03624FD700000002

> <PUBCHEM_MMFF94_ENERGY>
107.5475

> <PUBCHEM_FEATURE_SELFOVERLAP>
66.132

> <PUBCHEM_SHAPE_FINGERPRINT>
10 15 17489586779302351980
10533779 47 16343431614410327078
11135609 99 18336548325677792799
11135926 11 18260823792290718383
11409948 41 14274279352526821472
11456790 92 17489583442824686282
11672396 43 17968948607737854915
12013929 27 17823982440997161511
12013929 94 18410579526503528690
12082328 90 18413386527490126837
12522641 68 17317305235040291997
12592606 108 18408604747817019170
13383668 90 16805595989628071023
13668630 136 18187078468740083068
13782708 43 18113615711642610148
13811026 1 18410571790428444175
14040222 275 17023194820646566484
14251764 18 18202559575917863420
14344974 204 18265616674644852895
15064981 113 14129325304775289019
15183329 4 12324230677181339141
15347590 135 17060347318159298019
15347591 1 18337110176542189877
15461852 350 17458061564493421863
15781502 593 18412820270707969514
16994733 274 11240003347325881302
17686467 74 18340482356913010560
19611394 137 18272653497658849803
19841028 212 18260546770804268464
2026 5 18259982673615330322
21130935 74 18412262810059738434
21315759 40 18187368722862211356
21424621 283 11600014253369931661
21781051 124 18336837463456531838
21927370 108 17240491299766389637
23569917 315 18334583455365479098
23569943 247 17901381200661852002
25025965 108 18201428242894235839
3178227 256 17489590095212003818
3383291 50 18335421313348488595
4616759 239 17418103126767312731
4625314 4 18260265270068576429
5028188 123 18335430028617003068
58083652 198 15913035534872562785
6441014 3 17612601424883755819
6691757 9 15985094219536823636
9831232 110 18337676313613903446
9896288 288 18130233645092106233
9953998 17 18272656740839316465
9962374 69 17822012030397451956
999808 66 18413105087084398295

> <PUBCHEM_SHAPE_MULTIPOLES>
654.53
30.76
3.26
1.18
37.42
1.44
0.05
23.06
-7.63
-4.69
-0.91
-0.96
-0.36
0.76

> <PUBCHEM_SHAPE_SELFOVERLAP>
1440.14

> <PUBCHEM_SHAPE_VOLUME>
347.3

> <PUBCHEM_COORDINATE_TYPE>
2
5
10

$$$$
