71693333
  -OEChem-12032416233D

 54 56  0     1  0  0  0  0  0999 V2000
    2.0752    1.7590    0.9120 O   0  0  0  0  0  0  0  0  0  0  0  0
    2.2809   -0.2072   -2.7297 O   0  0  0  0  0  0  0  0  0  0  0  0
   -4.9703    1.0101   -1.0694 O   0  0  0  0  0  0  0  0  0  0  0  0
    5.5990    1.5779    0.4185 O   0  0  0  0  0  0  0  0  0  0  0  0
    3.9407    0.1201   -0.3284 N   0  0  0  0  0  0  0  0  0  0  0  0
   -3.9008   -0.1176    0.6856 N   0  0  0  0  0  0  0  0  0  0  0  0
   -6.3410   -0.2120    0.5012 C   0  0  0  0  0  0  0  0  0  0  0  0
   -7.6202   -0.0008   -0.3506 C   0  0  0  0  0  0  0  0  0  0  0  0
   -6.6282   -1.7321    0.3890 C   0  0  0  0  0  0  0  0  0  0  0  0
   -8.1075   -1.3707    0.1574 C   0  0  0  0  0  0  0  0  0  0  0  0
    2.5017   -0.2393   -0.3509 C   0  0  1  0  0  0  0  0  0  0  0  0
    1.6127    1.0120   -0.2140 C   0  0  1  0  0  0  0  0  0  0  0  0
    4.9098   -0.8993   -0.7212 C   0  0  0  0  0  0  0  0  0  0  0  0
   -5.0122    0.2999   -0.0613 C   0  0  0  0  0  0  0  0  0  0  0  0
    5.1607   -1.9244    0.3904 C   0  0  0  0  0  0  0  0  0  0  0  0
    0.1477    0.7112    0.0249 C   0  0  0  0  0  0  0  0  0  0  0  0
    2.1155   -1.0418   -1.6017 C   0  0  0  0  0  0  0  0  0  0  0  0
    4.4091    1.2953    0.2624 C   0  0  0  0  0  0  0  0  0  0  0  0
    3.3493    2.3023    0.6629 C   0  0  0  0  0  0  0  0  0  0  0  0
   -2.5511    0.1588    0.4649 C   0  0  0  0  0  0  0  0  0  0  0  0
   -0.8195    1.2271   -0.8377 C   0  0  0  0  0  0  0  0  0  0  0  0
   -0.2346   -0.0811    1.1075 C   0  0  0  0  0  0  0  0  0  0  0  0
    6.1335   -3.0172   -0.0585 C   0  0  0  0  0  0  0  0  0  0  0  0
    5.7023   -1.2240    1.6370 C   0  0  0  0  0  0  0  0  0  0  0  0
   -2.1688    0.9510   -0.6178 C   0  0  0  0  0  0  0  0  0  0  0  0
   -1.5839   -0.3572    1.3275 C   0  0  0  0  0  0  0  0  0  0  0  0
   -6.4902    0.1534    1.5292 H   0  0  0  0  0  0  0  0  0  0  0  0
   -7.4516    0.0270   -1.4335 H   0  0  0  0  0  0  0  0  0  0  0  0
   -8.2423    0.8524   -0.0674 H   0  0  0  0  0  0  0  0  0  0  0  0
   -6.4244   -2.3206    1.2874 H   0  0  0  0  0  0  0  0  0  0  0  0
   -6.1526   -2.2188   -0.4707 H   0  0  0  0  0  0  0  0  0  0  0  0
   -8.6401   -1.9872   -0.5707 H   0  0  0  0  0  0  0  0  0  0  0  0
   -8.6970   -1.3146    1.0797 H   0  0  0  0  0  0  0  0  0  0  0  0
    2.3719   -0.8828    0.5275 H   0  0  0  0  0  0  0  0  0  0  0  0
    1.7066    1.6506   -1.1033 H   0  0  0  0  0  0  0  0  0  0  0  0
    5.8590   -0.3985   -0.9542 H   0  0  0  0  0  0  0  0  0  0  0  0
    4.6176   -1.3773   -1.6581 H   0  0  0  0  0  0  0  0  0  0  0  0
    4.2148   -2.4120    0.6562 H   0  0  0  0  0  0  0  0  0  0  0  0
    1.0643   -1.3458   -1.5552 H   0  0  0  0  0  0  0  0  0  0  0  0
    2.6931   -1.9608   -1.7270 H   0  0  0  0  0  0  0  0  0  0  0  0
    3.6815    2.7931    1.5836 H   0  0  0  0  0  0  0  0  0  0  0  0
    3.2825    3.0682   -0.1184 H   0  0  0  0  0  0  0  0  0  0  0  0
   -4.0970   -0.7009    1.4964 H   0  0  0  0  0  0  0  0  0  0  0  0
   -0.5357    1.8452   -1.6854 H   0  0  0  0  0  0  0  0  0  0  0  0
    0.5011   -0.4829    1.7984 H   0  0  0  0  0  0  0  0  0  0  0  0
    7.1106   -2.5962   -0.3186 H   0  0  0  0  0  0  0  0  0  0  0  0
    5.7452   -3.5414   -0.9380 H   0  0  0  0  0  0  0  0  0  0  0  0
    6.2822   -3.7577    0.7344 H   0  0  0  0  0  0  0  0  0  0  0  0
    6.6094   -0.6508    1.4196 H   0  0  0  0  0  0  0  0  0  0  0  0
    5.9634   -1.9644    2.4023 H   0  0  0  0  0  0  0  0  0  0  0  0
    4.9590   -0.5637    2.0928 H   0  0  0  0  0  0  0  0  0  0  0  0
   -2.8554    1.3867   -1.3294 H   0  0  0  0  0  0  0  0  0  0  0  0
   -1.8678   -0.9739    2.1766 H   0  0  0  0  0  0  0  0  0  0  0  0
    2.0123   -0.7213   -3.5100 H   0  0  0  0  0  0  0  0  0  0  0  0
  1 12  1  0  0  0  0
  1 19  1  0  0  0  0
  2 17  1  0  0  0  0
  2 54  1  0  0  0  0
  3 14  2  0  0  0  0
  4 18  2  0  0  0  0
  5 11  1  0  0  0  0
  5 13  1  0  0  0  0
  5 18  1  0  0  0  0
  6 14  1  0  0  0  0
  6 20  1  0  0  0  0
  6 43  1  0  0  0  0
  7  8  1  0  0  0  0
  7  9  1  0  0  0  0
  7 14  1  0  0  0  0
  7 27  1  0  0  0  0
  8 10  1  0  0  0  0
  8 28  1  0  0  0  0
  8 29  1  0  0  0  0
  9 10  1  0  0  0  0
  9 30  1  0  0  0  0
  9 31  1  0  0  0  0
 10 32  1  0  0  0  0
 10 33  1  0  0  0  0
 11 12  1  0  0  0  0
 11 17  1  0  0  0  0
 11 34  1  0  0  0  0
 12 16  1  0  0  0  0
 12 35  1  0  0  0  0
 13 15  1  0  0  0  0
 13 36  1  0  0  0  0
 13 37  1  0  0  0  0
 15 23  1  0  0  0  0
 15 24  1  0  0  0  0
 15 38  1  0  0  0  0
 16 21  2  0  0  0  0
 16 22  1  0  0  0  0
 17 39  1  0  0  0  0
 17 40  1  0  0  0  0
 18 19  1  0  0  0  0
 19 41  1  0  0  0  0
 19 42  1  0  0  0  0
 20 25  2  0  0  0  0
 20 26  1  0  0  0  0
 21 25  1  0  0  0  0
 21 44  1  0  0  0  0
 22 26  2  0  0  0  0
 22 45  1  0  0  0  0
 23 46  1  0  0  0  0
 23 47  1  0  0  0  0
 23 48  1  0  0  0  0
 24 49  1  0  0  0  0
 24 50  1  0  0  0  0
 24 51  1  0  0  0  0
 25 52  1  0  0  0  0
 26 53  1  0  0  0  0
M  END
> <PUBCHEM_COMPOUND_CID>
71693333

> <PUBCHEM_CONFORMER_RMSD>
1

> <PUBCHEM_CONFORMER_DIVERSEORDER>
1
2
12
4
19
21
15
18
14
10
17
5
16
6
13
20
8
7
3
11
9

> <PUBCHEM_MMFF94_PARTIAL_CHARGES>
26
1 -0.56
11 0.3
12 0.42
13 0.3
14 0.58
16 -0.14
17 0.28
18 0.57
19 0.34
2 -0.68
20 0.12
21 -0.15
22 -0.15
25 -0.15
26 -0.15
3 -0.57
4 -0.57
43 0.37
44 0.15
45 0.15
5 -0.66
52 0.15
53 0.15
54 0.4
6 -0.55
7 0.05

> <PUBCHEM_EFFECTIVE_ROTOR_COUNT>
8.8

> <PUBCHEM_PHARMACOPHORE_FEATURES>
10
1 1 acceptor
1 2 acceptor
1 2 donor
1 3 acceptor
1 4 acceptor
1 6 donor
3 15 23 24 hydrophobe
4 7 8 9 10 rings
6 1 5 11 12 18 19 rings
6 16 20 21 22 25 26 rings

> <PUBCHEM_HEAVY_ATOM_COUNT>
26

> <PUBCHEM_ATOM_DEF_STEREO_COUNT>
2

> <PUBCHEM_ATOM_UDEF_STEREO_COUNT>
0

> <PUBCHEM_BOND_DEF_STEREO_COUNT>
0

> <PUBCHEM_BOND_UDEF_STEREO_COUNT>
0

> <PUBCHEM_ISOTOPIC_ATOM_COUNT>
0

> <PUBCHEM_COMPONENT_COUNT>
1

> <PUBCHEM_CACTVS_TAUTO_COUNT>
6

> <PUBCHEM_CONFORMER_ID>
0445F41500000001

> <PUBCHEM_MMFF94_ENERGY>
71.6724

> <PUBCHEM_FEATURE_SELFOVERLAP>
50.747

> <PUBCHEM_SHAPE_FINGERPRINT>
10 15 15267336331786272771
106641 1 17988917865455633314
10670039 82 16226044440917488239
11135609 99 18410012131090813678
11719270 70 17703792509302231471
11796584 16 17749114370510221266
11991303 11 14346086356017375675
12166972 35 17530969076883110413
12236239 1 16559040380616549793
125118 31 9943535115472559667
12616971 3 17418369208058897141
13073987 5 18272088275336075568
13533116 47 18341894099819755008
13617811 41 15936407827811276678
13685833 64 18410575085042887131
13782708 43 18335138657212825999
14251757 52 10159693590543936655
14294032 229 16299780929440769573
14849402 71 10015568533445916835
15183329 4 15068342293822885999
15419008 42 17557427583440221253
15475509 35 18041827429935611818
15510794 2 18410012170494098859
17844677 252 18342747317107545985
18222031 100 16370727019695165660
19377110 9 16487265365409329211
1979834 28 16774081743901039062
2026 5 18410854327149502063
21130935 74 18412546505128534915
21267235 1 17703800189109542196
21304304 249 18272935977801137998
21344244 78 17203324482078247080
21623969 137 17846788425127755463
21641784 216 14635143487218771399
22149856 69 15912785937707981723
22956985 138 17128193620118960086
23522609 53 18120971392846189205
23536379 177 18273498983725738321
23559900 14 17821737134999363092
23569943 247 18115868486741498331
29717793 49 16950286212729142791
34797466 226 17167865287790574796
4073 2 18190744334796123427
4340502 62 16917351437220208407
465052 167 18272089375263882350
5104073 3 18060137596498160384
5718773 13 18336265622535886770
58260988 393 15554172471623335618
59755656 215 17385439899742591755
6328613 192 7925911495852325767
6438161 24 17749381538855910506
8988823 20 18412263947920071128

> <PUBCHEM_SHAPE_MULTIPOLES>
501.63
20.39
2.12
1.36
29.24
0.62
-0.51
10.9
1.81
-3.54
0.24
-1.15
0.13
0.83

> <PUBCHEM_SHAPE_SELFOVERLAP>
1044.617

> <PUBCHEM_SHAPE_VOLUME>
282.1

> <PUBCHEM_COORDINATE_TYPE>
2
5
10

$$$$
