11882854
  -OEChem-12032416363D

 74 78  0     1  0  0  0  0  0999 V2000
   -0.5047    2.8045    0.2305 S   0  0  0  0  0  0  0  0  0  0  0  0
   -7.9601    0.5470   -0.7423 O   0  0  0  0  0  0  0  0  0  0  0  0
   -7.6216    2.3312    0.8220 O   0  0  0  0  0  0  0  0  0  0  0  0
   -0.4215   -2.2654   -1.4526 O   0  0  0  0  0  0  0  0  0  0  0  0
    2.8356   -0.4162   -0.1464 O   0  0  0  0  0  0  0  0  0  0  0  0
    2.9519   -3.8019   -0.9028 O   0  0  0  0  0  0  0  0  0  0  0  0
    8.1161    3.0117    0.0437 O   0  0  0  0  0  0  0  0  0  0  0  0
   -0.0385    0.2746   -0.0431 N   0  0  0  0  0  0  0  0  0  0  0  0
   -0.2465   -3.7983    0.2856 N   0  0  0  0  0  0  0  0  0  0  0  0
    1.8813    1.7255    0.0934 N   0  0  0  0  0  0  0  0  0  0  0  0
   -3.8277   -0.3322    0.3339 C   0  0  2  0  0  0  0  0  0  0  0  0
   -4.1974    1.0693   -0.3253 C   0  0  1  0  0  0  0  0  0  0  0  0
   -5.7226    1.4712   -0.3447 C   0  0  1  0  0  0  0  0  0  0  0  0
   -2.3526   -0.7253   -0.1383 C   0  0  1  0  0  0  0  0  0  0  0  0
   -4.8101   -1.4178   -0.1774 C   0  0  0  0  0  0  0  0  0  0  0  0
   -6.5652    0.2600   -0.8356 C   0  0  1  0  0  0  0  0  0  0  0  0
   -3.2571    2.2017    0.1810 C   0  0  0  0  0  0  0  0  0  0  0  0
   -6.2763   -1.0243   -0.0664 C   0  0  0  0  0  0  0  0  0  0  0  0
   -3.8820   -0.3019    1.8813 C   0  0  0  0  0  0  0  0  0  0  0  0
   -1.4102    0.4429   -0.0011 C   0  0  0  0  0  0  0  0  0  0  0  0
   -6.2609    2.0077    1.0001 C   0  0  0  0  0  0  0  0  0  0  0  0
   -5.9302    2.6238   -1.3677 C   0  0  0  0  0  0  0  0  0  0  0  0
   -1.8371    1.7494    0.1228 C   0  0  0  0  0  0  0  0  0  0  0  0
   -1.7846   -1.9863    0.5269 C   0  0  0  0  0  0  0  0  0  0  0  0
   -0.7531   -2.6691   -0.3412 C   0  0  0  0  0  0  0  0  0  0  0  0
    0.5398    1.4498    0.0774 C   0  0  0  0  0  0  0  0  0  0  0  0
    0.7551   -4.6509   -0.3126 C   0  0  0  0  0  0  0  0  0  0  0  0
    2.9310    0.7992   -0.0168 C   0  0  0  0  0  0  0  0  0  0  0  0
    2.1191   -4.1875    0.0992 C   0  0  0  0  0  0  0  0  0  0  0  0
    4.2988    1.3824    0.0002 C   0  0  0  0  0  0  0  0  0  0  0  0
    2.7410   -4.0613    1.3196 C   0  0  0  0  0  0  0  0  0  0  0  0
    5.3473    0.7197   -0.6379 C   0  0  0  0  0  0  0  0  0  0  0  0
    4.5333    2.5924    0.6534 C   0  0  0  0  0  0  0  0  0  0  0  0
    4.0392   -3.5662    1.0501 C   0  0  0  0  0  0  0  0  0  0  0  0
    4.1182   -3.4251   -0.3158 C   0  0  0  0  0  0  0  0  0  0  0  0
    6.6303    1.2668   -0.6227 C   0  0  0  0  0  0  0  0  0  0  0  0
    5.8163    3.1395    0.6687 C   0  0  0  0  0  0  0  0  0  0  0  0
    6.8647    2.4768    0.0306 C   0  0  0  0  0  0  0  0  0  0  0  0
    9.1410    2.2829   -0.6300 C   0  0  0  0  0  0  0  0  0  0  0  0
   -3.9434    0.9354   -1.3913 H   0  0  0  0  0  0  0  0  0  0  0  0
   -2.4261   -0.9062   -1.2213 H   0  0  0  0  0  0  0  0  0  0  0  0
   -4.6699   -2.3581    0.3676 H   0  0  0  0  0  0  0  0  0  0  0  0
   -4.5956   -1.6402   -1.2311 H   0  0  0  0  0  0  0  0  0  0  0  0
   -6.3506    0.0843   -1.8982 H   0  0  0  0  0  0  0  0  0  0  0  0
   -3.3756    3.0957   -0.4403 H   0  0  0  0  0  0  0  0  0  0  0  0
   -3.5007    2.4815    1.2114 H   0  0  0  0  0  0  0  0  0  0  0  0
   -6.5849   -0.9275    0.9804 H   0  0  0  0  0  0  0  0  0  0  0  0
   -6.8968   -1.8348   -0.4700 H   0  0  0  0  0  0  0  0  0  0  0  0
   -3.5950   -1.2699    2.3067 H   0  0  0  0  0  0  0  0  0  0  0  0
   -4.8800   -0.1071    2.2684 H   0  0  0  0  0  0  0  0  0  0  0  0
   -3.2073    0.4437    2.3109 H   0  0  0  0  0  0  0  0  0  0  0  0
   -6.2082    1.2762    1.8024 H   0  0  0  0  0  0  0  0  0  0  0  0
   -5.7328    2.9116    1.3185 H   0  0  0  0  0  0  0  0  0  0  0  0
   -6.9899    2.8325   -1.5525 H   0  0  0  0  0  0  0  0  0  0  0  0
   -5.4741    3.5588   -1.0262 H   0  0  0  0  0  0  0  0  0  0  0  0
   -5.4850    2.3723   -2.3373 H   0  0  0  0  0  0  0  0  0  0  0  0
   -1.3279   -1.7523    1.4968 H   0  0  0  0  0  0  0  0  0  0  0  0
   -2.5702   -2.7286    0.7006 H   0  0  0  0  0  0  0  0  0  0  0  0
   -8.4429   -0.2165   -1.1018 H   0  0  0  0  0  0  0  0  0  0  0  0
   -7.9506    2.6771    1.6690 H   0  0  0  0  0  0  0  0  0  0  0  0
   -0.5765   -4.0398    1.2158 H   0  0  0  0  0  0  0  0  0  0  0  0
    2.0904    2.7170    0.1548 H   0  0  0  0  0  0  0  0  0  0  0  0
    0.5820   -5.6712    0.0434 H   0  0  0  0  0  0  0  0  0  0  0  0
    0.6483   -4.6361   -1.4021 H   0  0  0  0  0  0  0  0  0  0  0  0
    2.3141   -4.2957    2.2843 H   0  0  0  0  0  0  0  0  0  0  0  0
    5.1841   -0.2209   -1.1574 H   0  0  0  0  0  0  0  0  0  0  0  0
    3.7565    3.1249    1.1937 H   0  0  0  0  0  0  0  0  0  0  0  0
    4.8193   -3.3391    1.7622 H   0  0  0  0  0  0  0  0  0  0  0  0
    4.8920   -3.0861   -0.9889 H   0  0  0  0  0  0  0  0  0  0  0  0
    7.3979    0.7007   -1.1392 H   0  0  0  0  0  0  0  0  0  0  0  0
    5.9951    4.0785    1.1855 H   0  0  0  0  0  0  0  0  0  0  0  0
    9.3094    1.3043   -0.1676 H   0  0  0  0  0  0  0  0  0  0  0  0
    8.9402    2.2055   -1.7040 H   0  0  0  0  0  0  0  0  0  0  0  0
   10.0694    2.8528   -0.5189 H   0  0  0  0  0  0  0  0  0  0  0  0
  1 23  1  0  0  0  0
  1 26  1  0  0  0  0
  2 16  1  0  0  0  0
  2 59  1  0  0  0  0
  3 21  1  0  0  0  0
  3 60  1  0  0  0  0
  4 25  2  0  0  0  0
  5 28  2  0  0  0  0
  6 29  1  0  0  0  0
  6 35  1  0  0  0  0
  7 38  1  0  0  0  0
  7 39  1  0  0  0  0
  8 20  1  0  0  0  0
  8 26  2  0  0  0  0
  9 25  1  0  0  0  0
  9 27  1  0  0  0  0
  9 61  1  0  0  0  0
 10 26  1  0  0  0  0
 10 28  1  0  0  0  0
 10 62  1  0  0  0  0
 11 12  1  0  0  0  0
 11 14  1  0  0  0  0
 11 15  1  0  0  0  0
 11 19  1  0  0  0  0
 12 13  1  0  0  0  0
 12 17  1  0  0  0  0
 12 40  1  0  0  0  0
 13 16  1  0  0  0  0
 13 21  1  0  0  0  0
 13 22  1  0  0  0  0
 14 20  1  0  0  0  0
 14 24  1  0  0  0  0
 14 41  1  0  0  0  0
 15 18  1  0  0  0  0
 15 42  1  0  0  0  0
 15 43  1  0  0  0  0
 16 18  1  0  0  0  0
 16 44  1  0  0  0  0
 17 23  1  0  0  0  0
 17 45  1  0  0  0  0
 17 46  1  0  0  0  0
 18 47  1  0  0  0  0
 18 48  1  0  0  0  0
 19 49  1  0  0  0  0
 19 50  1  0  0  0  0
 19 51  1  0  0  0  0
 20 23  2  0  0  0  0
 21 52  1  0  0  0  0
 21 53  1  0  0  0  0
 22 54  1  0  0  0  0
 22 55  1  0  0  0  0
 22 56  1  0  0  0  0
 24 25  1  0  0  0  0
 24 57  1  0  0  0  0
 24 58  1  0  0  0  0
 27 29  1  0  0  0  0
 27 63  1  0  0  0  0
 27 64  1  0  0  0  0
 28 30  1  0  0  0  0
 29 31  2  0  0  0  0
 30 32  2  0  0  0  0
 30 33  1  0  0  0  0
 31 34  1  0  0  0  0
 31 65  1  0  0  0  0
 32 36  1  0  0  0  0
 32 66  1  0  0  0  0
 33 37  2  0  0  0  0
 33 67  1  0  0  0  0
 34 35  2  0  0  0  0
 34 68  1  0  0  0  0
 35 69  1  0  0  0  0
 36 38  2  0  0  0  0
 36 70  1  0  0  0  0
 37 38  1  0  0  0  0
 37 71  1  0  0  0  0
 39 72  1  0  0  0  0
 39 73  1  0  0  0  0
 39 74  1  0  0  0  0
M  END
> <PUBCHEM_COMPOUND_CID>
11882854

> <PUBCHEM_CONFORMER_RMSD>
1.2

> <PUBCHEM_CONFORMER_DIVERSEORDER>
1
20
29
7
31
5
13
6
30
27
17
32
12
2
21
9
16
19
8
26
11
25
10
3
28
24
23
22
15
4
14
18

> <PUBCHEM_MMFF94_PARTIAL_CHARGES>
43
1 -0.08
10 -0.49
14 0.18
16 0.28
17 0.18
2 -0.68
20 0.05
21 0.28
23 -0.14
24 0.06
25 0.57
26 0.44
27 0.48
28 0.54
29 -0.04
3 -0.68
30 0.09
31 -0.15
32 -0.15
33 -0.15
34 -0.15
35 -0.01
36 -0.15
37 -0.15
38 0.08
39 0.28
4 -0.57
5 -0.57
59 0.4
6 -0.28
60 0.4
61 0.37
62 0.37
65 0.15
66 0.15
67 0.15
68 0.15
69 0.15
7 -0.36
70 0.15
71 0.15
8 -0.57
9 -0.73

> <PUBCHEM_EFFECTIVE_ROTOR_COUNT>
11.2

> <PUBCHEM_PHARMACOPHORE_FEATURES>
15
1 10 donor
1 2 acceptor
1 2 donor
1 3 acceptor
1 3 donor
1 4 acceptor
1 5 acceptor
1 6 acceptor
1 7 acceptor
1 9 donor
5 1 8 20 23 26 rings
5 6 29 31 34 35 rings
6 11 12 13 15 16 18 rings
6 11 12 14 17 20 23 rings
6 30 32 33 36 37 38 rings

> <PUBCHEM_HEAVY_ATOM_COUNT>
39

> <PUBCHEM_ATOM_DEF_STEREO_COUNT>
5

> <PUBCHEM_ATOM_UDEF_STEREO_COUNT>
0

> <PUBCHEM_BOND_DEF_STEREO_COUNT>
0

> <PUBCHEM_BOND_UDEF_STEREO_COUNT>
0

> <PUBCHEM_ISOTOPIC_ATOM_COUNT>
0

> <PUBCHEM_COMPONENT_COUNT>
1

> <PUBCHEM_CACTVS_TAUTO_COUNT>
6

> <PUBCHEM_CONFORMER_ID>
00B5516600000001

> <PUBCHEM_MMFF94_ENERGY>
116.5005

> <PUBCHEM_FEATURE_SELFOVERLAP>
76.272

> <PUBCHEM_SHAPE_FINGERPRINT>
10050765 1 18194401087116657829
10190206 1 18126270068297448591
10290309 65 18336819819525300428
10864689 126 18341050835143125320
11007060 377 18128536157461617025
11062273 19 18267586793939438966
11135609 187 18410855460355125777
11135926 11 18408595968249979164
11136131 41 18261386733422415250
11719270 70 18410287022050821600
12522641 33 18408321090131759020
13811026 1 18334575746441871451
14040222 383 18267862968625943208
14394314 77 18411422821087570329
14790565 3 18193278726705446124
14856354 85 16443342143126862913
15001296 14 18337668612136310155
15351339 4 18343587309688970648
15400415 2 18338796835863169912
15439362 3 18337670820086486849
15890870 6 18410574028544456844
15927050 60 18341045323861710686
16067689 302 18412829089003756511
20609170 92 18187071825433511909
20771845 165 18115018581411977749
21133665 82 18410857703077082062
21360443 120 18408040727889168606
23559900 14 18194954146529945339
249057 3 18336265751453685508
3383291 50 18267304424887110587
3411729 13 18408321073268829594
4017518 198 18271249421474204142
4073 2 18335707160527156841
5265222 85 18120659286615897324
6371380 46 18199746002655583792
6669772 16 18410575076173689766
99344 41 18410572885703412852

> <PUBCHEM_SHAPE_MULTIPOLES>
756.29
21.42
6.02
1.04
8.2
7.54
-0.13
-22.14
2.16
8.36
-0.41
-0.58
0.17
-0.23

> <PUBCHEM_SHAPE_SELFOVERLAP>
1617.727

> <PUBCHEM_SHAPE_VOLUME>
422.5

> <PUBCHEM_COORDINATE_TYPE>
2
5
10

$$$$
