7142810
  -OEChem-12032416293D

 58 62  0     1  0  0  0  0  0999 V2000
   -6.4290   -0.7913    0.9452 S   0  0  0  0  0  0  0  0  0  0  0  0
   -1.3793    2.1260   -1.8025 O   0  0  0  0  0  0  0  0  0  0  0  0
   -3.8288    0.2638    1.8455 O   0  0  0  0  0  0  0  0  0  0  0  0
    3.4011    1.4281   -0.4648 N   0  0  2  0  0  0  0  0  0  0  0  0
    0.3443    2.3152   -0.2366 N   0  0  0  0  0  0  0  0  0  0  0  0
   -2.8244    0.3998   -0.2260 N   0  0  0  0  0  0  0  0  0  0  0  0
    2.4386    3.7368   -0.6363 C   0  0  1  0  0  0  0  0  0  0  0  0
    2.2014    2.4854    1.4553 C   0  0  2  0  0  0  0  0  0  0  0  0
    2.4522    3.8767    0.8801 C   0  0  0  0  0  0  0  0  0  0  0  0
    3.5378    2.7512   -1.0863 C   0  0  0  0  0  0  0  0  0  0  0  0
    3.3265    1.5279    1.0006 C   0  0  0  0  0  0  0  0  0  0  0  0
    1.0364    3.2989   -1.0809 C   0  0  0  0  0  0  0  0  0  0  0  0
    0.8467    1.9586    1.0189 C   0  0  0  0  0  0  0  0  0  0  0  0
    4.4879    0.5420   -0.8741 C   0  0  0  0  0  0  0  0  0  0  0  0
    0.1440    1.1415    1.8211 C   0  0  0  0  0  0  0  0  0  0  0  0
   -0.8901    1.8284   -0.7119 C   0  0  0  0  0  0  0  0  0  0  0  0
    4.2524   -0.8692   -0.3381 C   0  0  0  0  0  0  0  0  0  0  0  0
   -1.6313    0.9025    0.2023 C   0  0  0  0  0  0  0  0  0  0  0  0
   -1.1190    0.6032    1.4007 C   0  0  0  0  0  0  0  0  0  0  0  0
    2.9278   -1.4396   -0.8514 C   0  0  0  0  0  0  0  0  0  0  0  0
    2.6989   -2.8464   -0.3608 C   0  0  0  0  0  0  0  0  0  0  0  0
   -3.8883    0.0972    0.6258 C   0  0  0  0  0  0  0  0  0  0  0  0
    3.1605   -3.9149   -1.1154 C   0  0  0  0  0  0  0  0  0  0  0  0
    2.0309   -3.0504    0.8376 C   0  0  0  0  0  0  0  0  0  0  0  0
    2.9491   -5.2167   -0.6614 C   0  0  0  0  0  0  0  0  0  0  0  0
    1.8196   -4.3523    1.2915 C   0  0  0  0  0  0  0  0  0  0  0  0
   -5.1036   -0.4066   -0.0327 C   0  0  0  0  0  0  0  0  0  0  0  0
    2.2787   -5.4355    0.5419 C   0  0  0  0  0  0  0  0  0  0  0  0
   -5.2981   -0.6052   -1.3541 C   0  0  0  0  0  0  0  0  0  0  0  0
   -6.6105   -1.1034   -1.5984 C   0  0  0  0  0  0  0  0  0  0  0  0
   -7.3325   -1.2518   -0.4346 C   0  0  0  0  0  0  0  0  0  0  0  0
    2.6580    4.7086   -1.0961 H   0  0  0  0  0  0  0  0  0  0  0  0
    2.2329    2.5599    2.5504 H   0  0  0  0  0  0  0  0  0  0  0  0
    3.4196    4.2650    1.2215 H   0  0  0  0  0  0  0  0  0  0  0  0
    1.6843    4.5856    1.2139 H   0  0  0  0  0  0  0  0  0  0  0  0
    3.4920    2.6498   -2.1778 H   0  0  0  0  0  0  0  0  0  0  0  0
    4.5186    3.1841   -0.8462 H   0  0  0  0  0  0  0  0  0  0  0  0
    4.2831    1.8780    1.4119 H   0  0  0  0  0  0  0  0  0  0  0  0
    3.1131    0.5581    1.4610 H   0  0  0  0  0  0  0  0  0  0  0  0
    1.0585    2.9209   -2.1108 H   0  0  0  0  0  0  0  0  0  0  0  0
    0.3841    4.1828   -1.0988 H   0  0  0  0  0  0  0  0  0  0  0  0
    4.5388    0.4950   -1.9693 H   0  0  0  0  0  0  0  0  0  0  0  0
    5.4598    0.9106   -0.5222 H   0  0  0  0  0  0  0  0  0  0  0  0
    0.5179    0.8421    2.7947 H   0  0  0  0  0  0  0  0  0  0  0  0
    4.3227   -0.9261    0.7533 H   0  0  0  0  0  0  0  0  0  0  0  0
    5.0731   -1.5025   -0.7025 H   0  0  0  0  0  0  0  0  0  0  0  0
   -1.5694   -0.0978    2.0935 H   0  0  0  0  0  0  0  0  0  0  0  0
    2.0774   -0.8213   -0.5391 H   0  0  0  0  0  0  0  0  0  0  0  0
    2.9126   -1.4294   -1.9492 H   0  0  0  0  0  0  0  0  0  0  0  0
   -2.9956    0.4676   -1.2246 H   0  0  0  0  0  0  0  0  0  0  0  0
    3.6855   -3.7549   -2.0528 H   0  0  0  0  0  0  0  0  0  0  0  0
    1.6712   -2.2132    1.4292 H   0  0  0  0  0  0  0  0  0  0  0  0
    3.3070   -6.0601   -1.2446 H   0  0  0  0  0  0  0  0  0  0  0  0
    1.2980   -4.5227    2.2287 H   0  0  0  0  0  0  0  0  0  0  0  0
    2.1143   -6.4491    0.8955 H   0  0  0  0  0  0  0  0  0  0  0  0
   -4.5819   -0.4268   -2.1447 H   0  0  0  0  0  0  0  0  0  0  0  0
   -7.0048   -1.3420   -2.5776 H   0  0  0  0  0  0  0  0  0  0  0  0
   -8.3472   -1.6089   -0.3287 H   0  0  0  0  0  0  0  0  0  0  0  0
  1 27  1  0  0  0  0
  1 31  1  0  0  0  0
  2 16  2  0  0  0  0
  3 22  2  0  0  0  0
  4 10  1  0  0  0  0
  4 11  1  0  0  0  0
  4 14  1  0  0  0  0
  5 12  1  0  0  0  0
  5 13  1  0  0  0  0
  5 16  1  0  0  0  0
  6 18  1  0  0  0  0
  6 22  1  0  0  0  0
  6 50  1  0  0  0  0
  7  9  1  0  0  0  0
  7 10  1  0  0  0  0
  7 12  1  0  0  0  0
  7 32  1  0  0  0  0
  8  9  1  0  0  0  0
  8 11  1  0  0  0  0
  8 13  1  0  0  0  0
  8 33  1  0  0  0  0
  9 34  1  0  0  0  0
  9 35  1  0  0  0  0
 10 36  1  0  0  0  0
 10 37  1  0  0  0  0
 11 38  1  0  0  0  0
 11 39  1  0  0  0  0
 12 40  1  0  0  0  0
 12 41  1  0  0  0  0
 13 15  2  0  0  0  0
 14 17  1  0  0  0  0
 14 42  1  0  0  0  0
 14 43  1  0  0  0  0
 15 19  1  0  0  0  0
 15 44  1  0  0  0  0
 16 18  1  0  0  0  0
 17 20  1  0  0  0  0
 17 45  1  0  0  0  0
 17 46  1  0  0  0  0
 18 19  2  0  0  0  0
 19 47  1  0  0  0  0
 20 21  1  0  0  0  0
 20 48  1  0  0  0  0
 20 49  1  0  0  0  0
 21 23  2  0  0  0  0
 21 24  1  0  0  0  0
 22 27  1  0  0  0  0
 23 25  1  0  0  0  0
 23 51  1  0  0  0  0
 24 26  2  0  0  0  0
 24 52  1  0  0  0  0
 25 28  2  0  0  0  0
 25 53  1  0  0  0  0
 26 28  1  0  0  0  0
 26 54  1  0  0  0  0
 27 29  2  0  0  0  0
 28 55  1  0  0  0  0
 29 30  1  0  0  0  0
 29 56  1  0  0  0  0
 30 31  2  0  0  0  0
 30 57  1  0  0  0  0
 31 58  1  0  0  0  0
M  END
> <PUBCHEM_COMPOUND_CID>
7142810

> <PUBCHEM_CONFORMER_RMSD>
1

> <PUBCHEM_CONFORMER_DIVERSEORDER>
1
15
14
25
26
27
12
19
2
22
13
17
6
5
24
18
9
11
20
16
3
21
10
4
23
8
7

> <PUBCHEM_MMFF94_PARTIAL_CHARGES>
39
1 -0.08
10 0.27
11 0.27
12 0.3
13 -0.03
14 0.27
15 -0.15
16 0.62
18 0.12
19 -0.15
2 -0.57
20 0.14
21 -0.14
22 0.71
23 -0.15
24 -0.15
25 -0.15
26 -0.15
27 -0.05
28 -0.15
29 -0.15
3 -0.57
30 -0.15
31 -0.11
4 -0.81
44 0.15
47 0.15
5 -0.47
50 0.37
51 0.15
52 0.15
53 0.15
54 0.15
55 0.15
56 0.15
57 0.15
58 0.15
6 -0.54
8 0.14

> <PUBCHEM_EFFECTIVE_ROTOR_COUNT>
8

> <PUBCHEM_PHARMACOPHORE_FEATURES>
9
1 2 acceptor
1 3 acceptor
1 4 cation
1 6 donor
5 1 27 29 30 31 rings
6 21 23 24 25 26 28 rings
6 4 7 8 9 10 11 rings
6 5 13 15 16 18 19 rings
6 5 7 8 9 12 13 rings

> <PUBCHEM_HEAVY_ATOM_COUNT>
31

> <PUBCHEM_ATOM_DEF_STEREO_COUNT>
2

> <PUBCHEM_ATOM_UDEF_STEREO_COUNT>
0

> <PUBCHEM_BOND_DEF_STEREO_COUNT>
0

> <PUBCHEM_BOND_UDEF_STEREO_COUNT>
0

> <PUBCHEM_ISOTOPIC_ATOM_COUNT>
0

> <PUBCHEM_COMPONENT_COUNT>
1

> <PUBCHEM_CACTVS_TAUTO_COUNT>
2

> <PUBCHEM_CONFORMER_ID>
006CFD9A00000001

> <PUBCHEM_MMFF94_ENERGY>
75.8351

> <PUBCHEM_FEATURE_SELFOVERLAP>
47.222

> <PUBCHEM_SHAPE_FINGERPRINT>
10622 236 18128817448229883763
10675989 125 18200312263601580897
11014199 57 17762622794096420118
11135609 149 18265031571343869287
11181472 205 18411980257669092257
114674 6 18409731776862436858
11488393 25 18262225647497198531
11763715 3 17904507115601742286
12107183 9 17912660007918720865
12147406 95 17969762121540431107
12202916 173 18113330925820958922
12539745 222 13252868255758982812
12717326 68 17828746371556626218
13150687 139 18044113456634420604
13533116 47 18202004386606602249
1361 2 18337674216788484864
14659021 117 17109022432297334722
14675020 138 18199454640384290984
14910700 183 18340471370987132130
15419008 42 18042659794570943013
17138139 8 17486481891598780807
17909252 39 18335698326085780069
19026451 147 18265612092009329954
19315092 285 18060135410111470947
19319366 153 18200306753121123046
20775438 99 17541335143576368029
20775530 9 17974867068255540498
21133410 171 17246925477622572586
21285901 2 17894343393434023437
21360442 67 18192710270794128183
23569914 152 17616781394761234077
25222932 49 18271805679520366710
3103668 31 17112707436647946526
345986 75 17703508788204792019
397830 11 9943517566837263557
46194498 28 18041277772094081853
463206 1 18199747105955360623
5223283 242 18044926884574080125
5309563 4 18339644408935199558
86090 222 18335991955566640106

> <PUBCHEM_SHAPE_MULTIPOLES>
615.13
13.14
6.97
1.63
32.21
8.58
0.18
6.28
-3.34
-12.9
-0.08
0.56
-0.32
-0.18

> <PUBCHEM_SHAPE_SELFOVERLAP>
1328.343

> <PUBCHEM_SHAPE_VOLUME>
336.6

> <PUBCHEM_COORDINATE_TYPE>
2
5
10

$$$$
