71694358
  -OEChem-12032416223D

 76 80  0     1  0  0  0  0  0999 V2000
    0.8632   -4.6613    0.7876 O   0  0  0  0  0  0  0  0  0  0  0  0
   -4.1730    0.0787   -2.4270 O   0  0  0  0  0  0  0  0  0  0  0  0
    0.8105    0.5729   -0.0811 O   0  0  0  0  0  0  0  0  0  0  0  0
   -1.0039   -3.2933    0.7773 N   0  0  0  0  0  0  0  0  0  0  0  0
   -5.7808   -0.5536   -0.8727 N   0  0  0  0  0  0  0  0  0  0  0  0
    1.4710   -1.5664    1.7763 N   0  0  0  0  0  0  0  0  0  0  0  0
    6.3592    1.0920   -0.1775 N   0  0  0  0  0  0  0  0  0  0  0  0
    9.1847    1.3929   -0.4516 N   0  0  0  0  0  0  0  0  0  0  0  0
   -6.3140    2.6033    2.1529 N   0  0  0  0  0  0  0  0  0  0  0  0
   -2.3846   -1.8950   -1.3752 C   0  0  1  0  0  0  0  0  0  0  0  0
   -1.6541   -1.1648   -0.2092 C   0  0  2  0  0  0  0  0  0  0  0  0
   -1.7630   -3.2993   -1.5622 C   0  0  0  0  0  0  0  0  0  0  0  0
   -1.6747   -2.0219    1.0706 C   0  0  0  0  0  0  0  0  0  0  0  0
   -1.6795   -4.0873   -0.2522 C   0  0  0  0  0  0  0  0  0  0  0  0
   -3.9064   -1.9969   -1.2125 C   0  0  0  0  0  0  0  0  0  0  0  0
   -2.1590    0.2283    0.0576 C   0  0  0  0  0  0  0  0  0  0  0  0
    0.2681   -3.6640    1.2127 C   0  0  0  0  0  0  0  0  0  0  0  0
   -4.6050   -0.7110   -1.5917 C   0  0  0  0  0  0  0  0  0  0  0  0
   -1.4861    1.3909    0.0125 C   0  0  0  0  0  0  0  0  0  0  0  0
    0.9432   -2.8292    2.2852 C   0  0  0  0  0  0  0  0  0  0  0  0
   -0.0359    1.7032   -0.2559 C   0  0  0  0  0  0  0  0  0  0  0  0
    2.3597   -1.6863    0.6226 C   0  0  0  0  0  0  0  0  0  0  0  0
    2.9659   -0.3480    0.2354 C   0  0  0  0  0  0  0  0  0  0  0  0
    7.1135    0.1903   -1.0586 C   0  0  0  0  0  0  0  0  0  0  0  0
    6.9897    2.3877    0.0967 C   0  0  0  0  0  0  0  0  0  0  0  0
    4.9642    0.9814   -0.1601 C   0  0  0  0  0  0  0  0  0  0  0  0
   -6.6542    0.5870   -1.0282 C   0  0  0  0  0  0  0  0  0  0  0  0
    2.1690    0.7632   -0.1252 C   0  0  0  0  0  0  0  0  0  0  0  0
    8.5642    0.0763   -0.5918 C   0  0  0  0  0  0  0  0  0  0  0  0
    8.4456    2.1959    0.5210 C   0  0  0  0  0  0  0  0  0  0  0  0
    4.3644   -0.2206    0.2110 C   0  0  0  0  0  0  0  0  0  0  0  0
    4.1748    2.0697   -0.5172 C   0  0  0  0  0  0  0  0  0  0  0  0
    2.7832    1.9633   -0.5026 C   0  0  0  0  0  0  0  0  0  0  0  0
   -6.2935    1.7028   -0.0906 C   0  0  0  0  0  0  0  0  0  0  0  0
   -5.6330    2.8377   -0.5480 C   0  0  0  0  0  0  0  0  0  0  0  0
   -6.6088    1.6348    1.2569 C   0  0  0  0  0  0  0  0  0  0  0  0
   -5.3127    3.8555    0.3435 C   0  0  0  0  0  0  0  0  0  0  0  0
   -5.6719    3.6913    1.6716 C   0  0  0  0  0  0  0  0  0  0  0  0
   -2.1694   -1.3418   -2.3000 H   0  0  0  0  0  0  0  0  0  0  0  0
   -0.6132   -1.1078   -0.5385 H   0  0  0  0  0  0  0  0  0  0  0  0
   -0.7456   -3.1747   -1.9568 H   0  0  0  0  0  0  0  0  0  0  0  0
   -2.3186   -3.8752   -2.3111 H   0  0  0  0  0  0  0  0  0  0  0  0
   -2.6915   -2.2424    1.4127 H   0  0  0  0  0  0  0  0  0  0  0  0
   -1.1786   -1.4933    1.8870 H   0  0  0  0  0  0  0  0  0  0  0  0
   -2.6812   -4.3322    0.1190 H   0  0  0  0  0  0  0  0  0  0  0  0
   -1.1552   -5.0327   -0.4230 H   0  0  0  0  0  0  0  0  0  0  0  0
   -4.1808   -2.3045   -0.1992 H   0  0  0  0  0  0  0  0  0  0  0  0
   -4.3074   -2.7595   -1.8925 H   0  0  0  0  0  0  0  0  0  0  0  0
   -3.2020    0.3026    0.3583 H   0  0  0  0  0  0  0  0  0  0  0  0
   -2.0777    2.2817    0.2283 H   0  0  0  0  0  0  0  0  0  0  0  0
    0.2343   -2.6431    3.0985 H   0  0  0  0  0  0  0  0  0  0  0  0
    1.7579   -3.4216    2.7195 H   0  0  0  0  0  0  0  0  0  0  0  0
    0.0498    2.0860   -1.2795 H   0  0  0  0  0  0  0  0  0  0  0  0
    0.2580    2.4878    0.4526 H   0  0  0  0  0  0  0  0  0  0  0  0
   -6.0528   -1.2601   -0.1955 H   0  0  0  0  0  0  0  0  0  0  0  0
    1.9614   -1.0925    2.5352 H   0  0  0  0  0  0  0  0  0  0  0  0
    1.8221   -2.0677   -0.2537 H   0  0  0  0  0  0  0  0  0  0  0  0
    3.1584   -2.4030    0.8496 H   0  0  0  0  0  0  0  0  0  0  0  0
    7.0764    0.5774   -2.0851 H   0  0  0  0  0  0  0  0  0  0  0  0
    6.6812   -0.8166   -1.0780 H   0  0  0  0  0  0  0  0  0  0  0  0
    6.4655    2.9114    0.9058 H   0  0  0  0  0  0  0  0  0  0  0  0
    6.9492    3.0193   -0.8000 H   0  0  0  0  0  0  0  0  0  0  0  0
   -7.6787    0.2508   -0.8329 H   0  0  0  0  0  0  0  0  0  0  0  0
   -6.6194    0.9278   -2.0695 H   0  0  0  0  0  0  0  0  0  0  0  0
    8.6133   -0.4635    0.3622 H   0  0  0  0  0  0  0  0  0  0  0  0
    9.1322   -0.5104   -1.3220 H   0  0  0  0  0  0  0  0  0  0  0  0
    8.9255    3.1762    0.6147 H   0  0  0  0  0  0  0  0  0  0  0  0
    8.4918    1.7205    1.5089 H   0  0  0  0  0  0  0  0  0  0  0  0
    4.9819   -1.0691    0.4990 H   0  0  0  0  0  0  0  0  0  0  0  0
   10.1463    1.2791   -0.1325 H   0  0  0  0  0  0  0  0  0  0  0  0
    4.6083    3.0159   -0.8293 H   0  0  0  0  0  0  0  0  0  0  0  0
    2.2063    2.8341   -0.7985 H   0  0  0  0  0  0  0  0  0  0  0  0
   -5.3607    2.9398   -1.5948 H   0  0  0  0  0  0  0  0  0  0  0  0
   -7.1238    0.7744    1.6731 H   0  0  0  0  0  0  0  0  0  0  0  0
   -4.7969    4.7485    0.0096 H   0  0  0  0  0  0  0  0  0  0  0  0
   -5.4443    4.4559    2.4070 H   0  0  0  0  0  0  0  0  0  0  0  0
  1 17  2  0  0  0  0
  2 18  2  0  0  0  0
  3 21  1  0  0  0  0
  3 28  1  0  0  0  0
  4 13  1  0  0  0  0
  4 14  1  0  0  0  0
  4 17  1  0  0  0  0
  5 18  1  0  0  0  0
  5 27  1  0  0  0  0
  5 55  1  0  0  0  0
  6 20  1  0  0  0  0
  6 22  1  0  0  0  0
  6 56  1  0  0  0  0
  7 24  1  0  0  0  0
  7 25  1  0  0  0  0
  7 26  1  0  0  0  0
  8 29  1  0  0  0  0
  8 30  1  0  0  0  0
  8 70  1  0  0  0  0
  9 36  1  0  0  0  0
  9 38  2  0  0  0  0
 10 11  1  0  0  0  0
 10 12  1  0  0  0  0
 10 15  1  0  0  0  0
 10 39  1  0  0  0  0
 11 13  1  0  0  0  0
 11 16  1  0  0  0  0
 11 40  1  0  0  0  0
 12 14  1  0  0  0  0
 12 41  1  0  0  0  0
 12 42  1  0  0  0  0
 13 43  1  0  0  0  0
 13 44  1  0  0  0  0
 14 45  1  0  0  0  0
 14 46  1  0  0  0  0
 15 18  1  0  0  0  0
 15 47  1  0  0  0  0
 15 48  1  0  0  0  0
 16 19  2  0  0  0  0
 16 49  1  0  0  0  0
 17 20  1  0  0  0  0
 19 21  1  0  0  0  0
 19 50  1  0  0  0  0
 20 51  1  0  0  0  0
 20 52  1  0  0  0  0
 21 53  1  0  0  0  0
 21 54  1  0  0  0  0
 22 23  1  0  0  0  0
 22 57  1  0  0  0  0
 22 58  1  0  0  0  0
 23 28  2  0  0  0  0
 23 31  1  0  0  0  0
 24 29  1  0  0  0  0
 24 59  1  0  0  0  0
 24 60  1  0  0  0  0
 25 30  1  0  0  0  0
 25 61  1  0  0  0  0
 25 62  1  0  0  0  0
 26 31  2  0  0  0  0
 26 32  1  0  0  0  0
 27 34  1  0  0  0  0
 27 63  1  0  0  0  0
 27 64  1  0  0  0  0
 28 33  1  0  0  0  0
 29 65  1  0  0  0  0
 29 66  1  0  0  0  0
 30 67  1  0  0  0  0
 30 68  1  0  0  0  0
 31 69  1  0  0  0  0
 32 33  2  0  0  0  0
 32 71  1  0  0  0  0
 33 72  1  0  0  0  0
 34 35  1  0  0  0  0
 34 36  2  0  0  0  0
 35 37  2  0  0  0  0
 35 73  1  0  0  0  0
 36 74  1  0  0  0  0
 37 38  1  0  0  0  0
 37 75  1  0  0  0  0
 38 76  1  0  0  0  0
M  END
> <PUBCHEM_COMPOUND_CID>
71694358

> <PUBCHEM_CONFORMER_RMSD>
1

> <PUBCHEM_CONFORMER_DIVERSEORDER>
1
142
124
123
13
96
171
181
68
176
131
145
48
88
159
12
30
179
120
152
57
113
140
58
107
130
127
31
168
69
133
27
87
7
160
125
119
43
80
35
72
146
118
136
177
50
83
173
144
39
178
20
86
84
184
183
165
99
40
132
122
95
66
36
175
112
129
172
117
166
164
97
143
139
102
63
41
49
115
150
147
153
11
79
71
93
14
76
91
34
45
21
81
46
54
73
106
114
116
110
154
44
105
162
135
89
8
52
137
74
180
67
157
182
29
156
161
98
55
77
149
78
170
148
101
94
64
23
62
85
75
70
109
59
103
104
47
158
92
38
185
3
126
61
138
32
121
134
167
19
82
9
174
6
90
17
26
111
151
33
53
51
22
4
128
16
28
163
2
15
18
155
65
108
24
100
25
169
10
37
5
42
56
141
60

> <PUBCHEM_MMFF94_PARTIAL_CHARGES>
48
1 -0.57
11 0.14
13 0.3
14 0.3
15 0.06
16 -0.29
17 0.57
18 0.57
19 -0.29
2 -0.57
20 0.33
21 0.42
22 0.41
23 -0.14
24 0.37
25 0.37
26 0.1
27 0.44
28 0.08
29 0.27
3 -0.36
30 0.27
31 -0.15
32 -0.15
33 -0.15
34 -0.14
35 -0.15
36 0.16
37 -0.15
38 0.16
4 -0.66
49 0.15
5 -0.73
50 0.15
55 0.37
56 0.36
6 -0.9
69 0.15
7 -0.84
70 0.36
71 0.15
72 0.15
73 0.15
74 0.15
75 0.15
76 0.15
8 -0.9
9 -0.62

> <PUBCHEM_EFFECTIVE_ROTOR_COUNT>
9

> <PUBCHEM_PHARMACOPHORE_FEATURES>
14
1 1 acceptor
1 2 acceptor
1 3 acceptor
1 5 donor
1 6 cation
1 6 donor
1 7 cation
1 8 cation
1 8 donor
1 9 acceptor
6 23 26 28 31 32 33 rings
6 4 10 11 12 13 14 rings
6 7 8 24 25 29 30 rings
6 9 34 35 36 37 38 rings

> <PUBCHEM_HEAVY_ATOM_COUNT>
38

> <PUBCHEM_ATOM_DEF_STEREO_COUNT>
2

> <PUBCHEM_ATOM_UDEF_STEREO_COUNT>
0

> <PUBCHEM_BOND_DEF_STEREO_COUNT>
1

> <PUBCHEM_BOND_UDEF_STEREO_COUNT>
0

> <PUBCHEM_ISOTOPIC_ATOM_COUNT>
0

> <PUBCHEM_COMPONENT_COUNT>
1

> <PUBCHEM_CACTVS_TAUTO_COUNT>
4

> <PUBCHEM_CONFORMER_ID>
0445F81600000001

> <PUBCHEM_MMFF94_ENERGY>
110.8388

> <PUBCHEM_FEATURE_SELFOVERLAP>
71.05

> <PUBCHEM_SHAPE_FINGERPRINT>
100830 2 18199472065583874017
10190206 1 18340759417089732165
10674148 151 18272930514776082734
10904742 90 18409170978297494224
11007060 377 18343302604211401737
11135926 11 18187357719029255526
11136131 41 17969218932462423018
11621639 183 15865179188458187253
1200032 147 18040713654315361138
12422481 6 17905879281170953687
14040222 383 18409726305121802424
14294032 229 18261950761206951412
14340393 91 17132111389683983760
14394314 77 18409168800712573896
14790565 3 18410571769613088109
15064981 113 17703241697411224484
15064981 194 17970925564241425462
15183329 4 18411693292684817725
15297060 5 18410572907526461146
15439362 3 18412545384432863902
16112460 7 18408319969166471712
16126227 98 18411141341868497129
19304152 47 16732973190166104621
21133665 82 18412545423266443782
21223535 225 18341895207879268460
21360443 120 18260545610672832103
23559900 14 18195518427775697552
249057 3 18260265295885963540
445580 204 18413387644002444737
44880568 143 18270685406695927500
4516262 110 18335696088861318053
508180 173 18059856190055979081
9896288 288 18337117868606824395

> <PUBCHEM_SHAPE_MULTIPOLES>
734.53
22.43
5.27
1.63
32.01
3.28
-0.27
-25.31
2.55
-5.52
-1.86
-2.19
0.64
-3.23

> <PUBCHEM_SHAPE_SELFOVERLAP>
1551.821

> <PUBCHEM_SHAPE_VOLUME>
404.1

> <PUBCHEM_COORDINATE_TYPE>
2
5
10

$$$$
