75536604
  -OEChem-12032416303D

 49 51  0     1  0  0  0  0  0999 V2000
    4.6220    0.6180   -0.4174 S   0  0  0  0  0  0  0  0  0  0  0  0
    1.6665   -2.5964   -0.5841 S   0  0  0  0  0  0  0  0  0  0  0  0
   -4.4142   -0.6773    0.5628 O   0  0  0  0  0  0  0  0  0  0  0  0
   -4.8534    2.1781   -0.8237 O   0  0  0  0  0  0  0  0  0  0  0  0
   -0.5595   -1.6661   -2.2818 O   0  0  0  0  0  0  0  0  0  0  0  0
    5.0862   -0.3001    0.6138 O   0  0  0  0  0  0  0  0  0  0  0  0
    4.6816    0.2223   -1.8173 O   0  0  0  0  0  0  0  0  0  0  0  0
   -1.9263    1.0654    1.0286 N   0  0  0  0  0  0  0  0  0  0  0  0
   -2.1928   -1.4825   -0.6443 N   0  0  0  0  0  0  0  0  0  0  0  0
   -3.3340    1.4108    0.8420 C   0  0  1  0  0  0  0  0  0  0  0  0
   -3.7515    1.2921   -0.6133 C   0  0  1  0  0  0  0  0  0  0  0  0
   -4.2346   -0.1498   -0.7648 C   0  0  1  0  0  0  0  0  0  0  0  0
   -4.2333    0.3828    1.5090 C   0  0  0  0  0  0  0  0  0  0  0  0
   -3.2531   -1.0449   -1.5059 C   0  0  0  0  0  0  0  0  0  0  0  0
   -1.0689    2.2257    0.8176 C   0  0  0  0  0  0  0  0  0  0  0  0
    0.3496    1.8259    0.5098 C   0  0  0  0  0  0  0  0  0  0  0  0
   -0.9112   -1.7622   -1.1090 C   0  0  0  0  0  0  0  0  0  0  0  0
    1.1882    1.3862    1.5341 C   0  0  0  0  0  0  0  0  0  0  0  0
    0.8253    1.8951   -0.7996 C   0  0  0  0  0  0  0  0  0  0  0  0
    2.9780    1.0852   -0.0604 C   0  0  0  0  0  0  0  0  0  0  0  0
    2.5023    1.0157    1.2491 C   0  0  0  0  0  0  0  0  0  0  0  0
    2.1395    1.5248   -1.0848 C   0  0  0  0  0  0  0  0  0  0  0  0
    0.0671   -2.2305   -0.0939 C   0  0  0  0  0  0  0  0  0  0  0  0
    5.5583    2.1191   -0.2333 C   0  0  0  0  0  0  0  0  0  0  0  0
   -0.1177   -2.4288    1.2568 C   0  0  0  0  0  0  0  0  0  0  0  0
    1.0696   -2.8870    1.8976 C   0  0  0  0  0  0  0  0  0  0  0  0
    2.1163   -3.0215    1.0123 C   0  0  0  0  0  0  0  0  0  0  0  0
   -3.5453    2.3939    1.2808 H   0  0  0  0  0  0  0  0  0  0  0  0
   -2.9772    1.5771   -1.3325 H   0  0  0  0  0  0  0  0  0  0  0  0
   -5.2037   -0.1835   -1.2763 H   0  0  0  0  0  0  0  0  0  0  0  0
   -3.8376   -0.0229    2.4454 H   0  0  0  0  0  0  0  0  0  0  0  0
   -5.2209    0.8094    1.7208 H   0  0  0  0  0  0  0  0  0  0  0  0
   -2.8618   -0.5679   -2.4103 H   0  0  0  0  0  0  0  0  0  0  0  0
   -3.7687   -1.9616   -1.8154 H   0  0  0  0  0  0  0  0  0  0  0  0
   -1.7692    0.7063    1.9699 H   0  0  0  0  0  0  0  0  0  0  0  0
   -1.0817    2.8722    1.7047 H   0  0  0  0  0  0  0  0  0  0  0  0
   -1.4385    2.8475   -0.0082 H   0  0  0  0  0  0  0  0  0  0  0  0
   -5.1341    2.0770   -1.7493 H   0  0  0  0  0  0  0  0  0  0  0  0
   -2.4270   -1.6591    0.3267 H   0  0  0  0  0  0  0  0  0  0  0  0
    0.8288    1.3284    2.5581 H   0  0  0  0  0  0  0  0  0  0  0  0
    0.1825    2.2329   -1.6081 H   0  0  0  0  0  0  0  0  0  0  0  0
    3.1393    0.6803    2.0626 H   0  0  0  0  0  0  0  0  0  0  0  0
    2.4899    1.5913   -2.1108 H   0  0  0  0  0  0  0  0  0  0  0  0
    6.6049    1.8943   -0.4495 H   0  0  0  0  0  0  0  0  0  0  0  0
    5.1831    2.8605   -0.9413 H   0  0  0  0  0  0  0  0  0  0  0  0
    5.4584    2.4766    0.7933 H   0  0  0  0  0  0  0  0  0  0  0  0
   -1.0467   -2.2588    1.7847 H   0  0  0  0  0  0  0  0  0  0  0  0
    1.1522   -3.1052    2.9543 H   0  0  0  0  0  0  0  0  0  0  0  0
    3.1244   -3.3472    1.2269 H   0  0  0  0  0  0  0  0  0  0  0  0
  1  6  2  0  0  0  0
  1  7  2  0  0  0  0
  1 20  1  0  0  0  0
  1 24  1  0  0  0  0
  2 23  1  0  0  0  0
  2 27  1  0  0  0  0
  3 12  1  0  0  0  0
  3 13  1  0  0  0  0
  4 11  1  0  0  0  0
  4 38  1  0  0  0  0
  5 17  2  0  0  0  0
  8 10  1  0  0  0  0
  8 15  1  0  0  0  0
  8 35  1  0  0  0  0
  9 14  1  0  0  0  0
  9 17  1  0  0  0  0
  9 39  1  0  0  0  0
 10 11  1  0  0  0  0
 10 13  1  0  0  0  0
 10 28  1  0  0  0  0
 11 12  1  0  0  0  0
 11 29  1  0  0  0  0
 12 14  1  0  0  0  0
 12 30  1  0  0  0  0
 13 31  1  0  0  0  0
 13 32  1  0  0  0  0
 14 33  1  0  0  0  0
 14 34  1  0  0  0  0
 15 16  1  0  0  0  0
 15 36  1  0  0  0  0
 15 37  1  0  0  0  0
 16 18  2  0  0  0  0
 16 19  1  0  0  0  0
 17 23  1  0  0  0  0
 18 21  1  0  0  0  0
 18 40  1  0  0  0  0
 19 22  2  0  0  0  0
 19 41  1  0  0  0  0
 20 21  2  0  0  0  0
 20 22  1  0  0  0  0
 21 42  1  0  0  0  0
 22 43  1  0  0  0  0
 23 25  2  0  0  0  0
 24 44  1  0  0  0  0
 24 45  1  0  0  0  0
 24 46  1  0  0  0  0
 25 26  1  0  0  0  0
 25 47  1  0  0  0  0
 26 27  2  0  0  0  0
 26 48  1  0  0  0  0
 27 49  1  0  0  0  0
M  END
> <PUBCHEM_COMPOUND_CID>
75536604

> <PUBCHEM_CONFORMER_RMSD>
1

> <PUBCHEM_CONFORMER_DIVERSEORDER>
5
47
81
69
163
138
173
175
144
19
85
152
150
24
191
51
68
27
11
126
108
111
93
40
157
54
104
185
139
164
79
161
130
171
187
90
32
100
172
117
176
156
71
145
74
183
101
159
92
36
141
158
142
151
72
78
137
97
18
53
134
31
80
114
45
84
82
12
170
75
181
9
76
57
129
105
149
95
52
125
123
165
186
168
188
29
55
73
61
109
189
63
50
13
39
49
193
107
67
6
127
182
8
169
86
88
66
38
162
77
132
91
17
21
177
113
118
23
128
110
41
65
143
179
136
87
154
15
155
166
147
48
133
25
119
135
178
59
153
20
102
120
64
106
4
99
62
167
56
16
2
98
83
89
37
192
46
26
121
148
70
122
1
115
103
44
30
94
160
131
124
42
174
96
184
180
146
33
35
10
58
60
140
14
116
34
112
22
43
3
28
7
190

> <PUBCHEM_MMFF94_PARTIAL_CHARGES>
37
1 1.2
10 0.27
11 0.28
12 0.28
13 0.28
14 0.3
15 0.41
16 -0.14
17 0.71
18 -0.15
19 -0.15
2 -0.08
20 -0.01
21 -0.15
22 -0.15
23 -0.05
24 0.11
25 -0.15
26 -0.15
27 -0.11
3 -0.56
35 0.36
38 0.4
39 0.37
4 -0.68
40 0.15
41 0.15
42 0.15
43 0.15
47 0.15
48 0.15
49 0.15
5 -0.57
6 -0.65
7 -0.65
8 -0.9
9 -0.73

> <PUBCHEM_EFFECTIVE_ROTOR_COUNT>
9

> <PUBCHEM_PHARMACOPHORE_FEATURES>
12
1 3 acceptor
1 4 acceptor
1 4 donor
1 5 acceptor
1 6 acceptor
1 7 acceptor
1 8 cation
1 8 donor
1 9 donor
5 2 23 25 26 27 rings
5 3 10 11 12 13 rings
6 16 18 19 20 21 22 rings

> <PUBCHEM_HEAVY_ATOM_COUNT>
27

> <PUBCHEM_ATOM_DEF_STEREO_COUNT>
3

> <PUBCHEM_ATOM_UDEF_STEREO_COUNT>
0

> <PUBCHEM_BOND_DEF_STEREO_COUNT>
0

> <PUBCHEM_BOND_UDEF_STEREO_COUNT>
0

> <PUBCHEM_ISOTOPIC_ATOM_COUNT>
0

> <PUBCHEM_COMPONENT_COUNT>
1

> <PUBCHEM_CACTVS_TAUTO_COUNT>
2

> <PUBCHEM_CONFORMER_ID>
048098DC00000005

> <PUBCHEM_MMFF94_ENERGY>
45.5908

> <PUBCHEM_FEATURE_SELFOVERLAP>
60.916

> <PUBCHEM_SHAPE_FINGERPRINT>
11578080 2 17605547756978889623
12035759 4 18271242729382068482
12156800 1 14298405776227467531
12422481 6 18049973668404139602
12592029 89 18334303067199110265
12788726 201 18271814544776204208
14251751 93 18410576214529816589
14251757 17 17417823845806232990
14787075 74 18131354128876734384
14790565 3 18335138734912854860
15209289 33 18202005459952624929
20905425 154 18270686346475730349
21421861 104 17837793143779851513
22393880 68 18201424883870204357
3298306 158 18408319964855907545
338550 245 18335700486744012628
35225 105 17902815272470902347
513532 50 16987693771564834585
57091435 65 18199192793144527575
59755656 215 18342457062953542095
6287921 2 17485652550383107014
7226269 152 18271807956137915048

> <PUBCHEM_SHAPE_MULTIPOLES>
524.04
9.72
3.58
1.74
1.51
2.16
0.09
-5.29
1.57
1.12
-0.67
-0.19
0.57
-0.92

> <PUBCHEM_SHAPE_SELFOVERLAP>
1081.241

> <PUBCHEM_SHAPE_VOLUME>
302.3

> <PUBCHEM_COORDINATE_TYPE>
2
5
10

$$$$
