7134606
  -OEChem-12032416233D

 67 68  0     1  0  0  0  0  0999 V2000
    7.8957   -0.1904   -0.4791 S   0  0  0  0  0  0  0  0  0  0  0  0
    0.0334   -0.1790    1.7611 O   0  0  0  0  0  0  0  0  0  0  0  0
   -0.8696    3.7706    1.5903 O   0  0  0  0  0  0  0  0  0  0  0  0
    4.9244   -1.1075   -0.4568 O   0  0  0  0  0  0  0  0  0  0  0  0
    2.2834   -3.3810   -0.6400 O   0  0  0  0  0  0  0  0  0  0  0  0
   -5.3336    3.4166   -0.3545 O   0  0  0  0  0  0  0  0  0  0  0  0
   -3.9798    2.7327   -2.0467 O   0  0  0  0  0  0  0  0  0  0  0  0
   -5.8821   -0.7260   -0.2004 O   0  0  0  0  0  0  0  0  0  0  0  0
    0.4808    2.1278    0.6422 N   0  0  0  0  0  0  0  0  0  0  0  0
    4.4417    1.1633   -0.5728 N   0  0  0  0  0  0  0  0  0  0  0  0
    0.4151   -1.4195   -0.1714 N   0  0  0  0  0  0  0  0  0  0  0  0
    1.7090   -4.3182    1.3770 N   0  0  0  0  0  0  0  0  0  0  0  0
    3.1697    1.1242    0.1073 C   0  0  2  0  0  0  0  0  0  0  0  0
    0.6410    0.9649   -0.2460 C   0  0  1  0  0  0  0  0  0  0  0  0
    2.0290    0.8817   -0.8851 C   0  0  0  0  0  0  0  0  0  0  0  0
    2.9326    2.4199    0.8799 C   0  0  0  0  0  0  0  0  0  0  0  0
    1.5793    2.3961    1.5780 C   0  0  0  0  0  0  0  0  0  0  0  0
    0.3212   -0.2538    0.5694 C   0  0  0  0  0  0  0  0  0  0  0  0
   -0.6927    2.8833    0.7512 C   0  0  0  0  0  0  0  0  0  0  0  0
   -1.7903    2.5809   -0.2389 C   0  0  0  0  0  0  0  0  0  0  0  0
    0.1785   -2.7315    0.3860 C   0  0  1  0  0  0  0  0  0  0  0  0
    5.2176    0.0367   -0.7993 C   0  0  0  0  0  0  0  0  0  0  0  0
   -0.9395   -3.4801   -0.3485 C   0  0  0  0  0  0  0  0  0  0  0  0
   -2.9789    3.4839    0.0205 C   0  0  0  0  0  0  0  0  0  0  0  0
    6.5122    0.3447   -1.5141 C   0  0  0  0  0  0  0  0  0  0  0  0
    1.4864   -3.5028    0.2873 C   0  0  0  0  0  0  0  0  0  0  0  0
   -2.2577   -2.7461   -0.3088 C   0  0  0  0  0  0  0  0  0  0  0  0
   -4.1227    3.1602   -0.9085 C   0  0  0  0  0  0  0  0  0  0  0  0
   -2.5779   -1.8336   -1.3140 C   0  0  0  0  0  0  0  0  0  0  0  0
   -3.1557   -2.9797    0.7328 C   0  0  0  0  0  0  0  0  0  0  0  0
   -3.7958   -1.1548   -1.2778 C   0  0  0  0  0  0  0  0  0  0  0  0
   -4.3736   -2.3010    0.7691 C   0  0  0  0  0  0  0  0  0  0  0  0
   -4.6938   -1.3886   -0.2363 C   0  0  0  0  0  0  0  0  0  0  0  0
    7.9451    1.2184    0.6537 C   0  0  0  0  0  0  0  0  0  0  0  0
   -6.7525   -1.0125    0.8932 C   0  0  0  0  0  0  0  0  0  0  0  0
    3.1976    0.2890    0.8190 H   0  0  0  0  0  0  0  0  0  0  0  0
   -0.0939    1.0016   -1.0553 H   0  0  0  0  0  0  0  0  0  0  0  0
    2.0836    1.6597   -1.6608 H   0  0  0  0  0  0  0  0  0  0  0  0
    2.1954   -0.0620   -1.4158 H   0  0  0  0  0  0  0  0  0  0  0  0
    3.7278    2.5706    1.6199 H   0  0  0  0  0  0  0  0  0  0  0  0
    2.9746    3.2766    0.1942 H   0  0  0  0  0  0  0  0  0  0  0  0
    1.5681    1.6299    2.3599 H   0  0  0  0  0  0  0  0  0  0  0  0
    1.4214    3.3562    2.0808 H   0  0  0  0  0  0  0  0  0  0  0  0
    4.7485    2.0565   -0.9472 H   0  0  0  0  0  0  0  0  0  0  0  0
    0.6347   -1.3712   -1.1614 H   0  0  0  0  0  0  0  0  0  0  0  0
   -2.0924    1.5326   -0.1386 H   0  0  0  0  0  0  0  0  0  0  0  0
   -1.4112    2.7455   -1.2536 H   0  0  0  0  0  0  0  0  0  0  0  0
   -0.0930   -2.6185    1.4428 H   0  0  0  0  0  0  0  0  0  0  0  0
   -1.0658   -4.4826    0.0817 H   0  0  0  0  0  0  0  0  0  0  0  0
   -0.6568   -3.6526   -1.3964 H   0  0  0  0  0  0  0  0  0  0  0  0
   -3.3303    3.3495    1.0512 H   0  0  0  0  0  0  0  0  0  0  0  0
   -2.7211    4.5399   -0.1176 H   0  0  0  0  0  0  0  0  0  0  0  0
    6.6122    1.4021   -1.7748 H   0  0  0  0  0  0  0  0  0  0  0  0
    6.5218   -0.2283   -2.4468 H   0  0  0  0  0  0  0  0  0  0  0  0
   -1.8885   -1.6425   -2.1321 H   0  0  0  0  0  0  0  0  0  0  0  0
   -2.9150   -3.6869    1.5223 H   0  0  0  0  0  0  0  0  0  0  0  0
    1.0438   -4.4065    2.1384 H   0  0  0  0  0  0  0  0  0  0  0  0
    2.5532   -4.8768    1.4446 H   0  0  0  0  0  0  0  0  0  0  0  0
   -4.0391   -0.4443   -2.0630 H   0  0  0  0  0  0  0  0  0  0  0  0
   -5.0236   -2.5296    1.6067 H   0  0  0  0  0  0  0  0  0  0  0  0
    7.0139    1.2907    1.2213 H   0  0  0  0  0  0  0  0  0  0  0  0
    8.1153    2.1472    0.1030 H   0  0  0  0  0  0  0  0  0  0  0  0
    8.7683    1.0803    1.3600 H   0  0  0  0  0  0  0  0  0  0  0  0
   -6.0689    3.2109   -0.9704 H   0  0  0  0  0  0  0  0  0  0  0  0
   -7.6491   -0.3979    0.7620 H   0  0  0  0  0  0  0  0  0  0  0  0
   -6.3046   -0.7238    1.8501 H   0  0  0  0  0  0  0  0  0  0  0  0
   -7.0778   -2.0583    0.8855 H   0  0  0  0  0  0  0  0  0  0  0  0
  1 25  1  0  0  0  0
  1 34  1  0  0  0  0
  2 18  2  0  0  0  0
  3 19  2  0  0  0  0
  4 22  2  0  0  0  0
  5 26  2  0  0  0  0
  6 28  1  0  0  0  0
  6 64  1  0  0  0  0
  7 28  2  0  0  0  0
  8 33  1  0  0  0  0
  8 35  1  0  0  0  0
  9 14  1  0  0  0  0
  9 17  1  0  0  0  0
  9 19  1  0  0  0  0
 10 13  1  0  0  0  0
 10 22  1  0  0  0  0
 10 44  1  0  0  0  0
 11 18  1  0  0  0  0
 11 21  1  0  0  0  0
 11 45  1  0  0  0  0
 12 26  1  0  0  0  0
 12 57  1  0  0  0  0
 12 58  1  0  0  0  0
 13 15  1  0  0  0  0
 13 16  1  0  0  0  0
 13 36  1  0  0  0  0
 14 15  1  0  0  0  0
 14 18  1  0  0  0  0
 14 37  1  0  0  0  0
 15 38  1  0  0  0  0
 15 39  1  0  0  0  0
 16 17  1  0  0  0  0
 16 40  1  0  0  0  0
 16 41  1  0  0  0  0
 17 42  1  0  0  0  0
 17 43  1  0  0  0  0
 19 20  1  0  0  0  0
 20 24  1  0  0  0  0
 20 46  1  0  0  0  0
 20 47  1  0  0  0  0
 21 23  1  0  0  0  0
 21 26  1  0  0  0  0
 21 48  1  0  0  0  0
 22 25  1  0  0  0  0
 23 27  1  0  0  0  0
 23 49  1  0  0  0  0
 23 50  1  0  0  0  0
 24 28  1  0  0  0  0
 24 51  1  0  0  0  0
 24 52  1  0  0  0  0
 25 53  1  0  0  0  0
 25 54  1  0  0  0  0
 27 29  2  0  0  0  0
 27 30  1  0  0  0  0
 29 31  1  0  0  0  0
 29 55  1  0  0  0  0
 30 32  2  0  0  0  0
 30 56  1  0  0  0  0
 31 33  2  0  0  0  0
 31 59  1  0  0  0  0
 32 33  1  0  0  0  0
 32 60  1  0  0  0  0
 34 61  1  0  0  0  0
 34 62  1  0  0  0  0
 34 63  1  0  0  0  0
 35 65  1  0  0  0  0
 35 66  1  0  0  0  0
 35 67  1  0  0  0  0
M  END
> <PUBCHEM_COMPOUND_CID>
7134606

> <PUBCHEM_CONFORMER_RMSD>
1.4

> <PUBCHEM_CONFORMER_DIVERSEORDER>
1
16
14
11
18
15
20
9
13
26
17
4
10
12
24
19
8
2
5
22
25
6
7
23
21
3

> <PUBCHEM_MMFF94_PARTIAL_CHARGES>
42
1 -0.46
10 -0.73
11 -0.73
12 -0.8
13 0.3
14 0.36
17 0.3
18 0.57
19 0.57
2 -0.57
20 0.06
21 0.36
22 0.57
23 0.14
24 0.06
25 0.29
26 0.57
27 -0.14
28 0.66
29 -0.15
3 -0.57
30 -0.15
31 -0.15
32 -0.15
33 0.08
34 0.23
35 0.28
4 -0.57
44 0.37
45 0.37
5 -0.57
55 0.15
56 0.15
57 0.37
58 0.37
59 0.15
6 -0.65
60 0.15
64 0.5
7 -0.57
8 -0.36
9 -0.66

> <PUBCHEM_EFFECTIVE_ROTOR_COUNT>
16.2

> <PUBCHEM_PHARMACOPHORE_FEATURES>
14
1 10 donor
1 11 donor
1 12 donor
1 2 acceptor
1 3 acceptor
1 34 hydrophobe
1 4 acceptor
1 5 acceptor
1 6 acceptor
1 7 acceptor
1 8 acceptor
3 6 7 28 anion
6 27 29 30 31 32 33 rings
6 9 13 14 15 16 17 rings

> <PUBCHEM_HEAVY_ATOM_COUNT>
35

> <PUBCHEM_ATOM_DEF_STEREO_COUNT>
3

> <PUBCHEM_ATOM_UDEF_STEREO_COUNT>
0

> <PUBCHEM_BOND_DEF_STEREO_COUNT>
0

> <PUBCHEM_BOND_UDEF_STEREO_COUNT>
0

> <PUBCHEM_ISOTOPIC_ATOM_COUNT>
0

> <PUBCHEM_COMPONENT_COUNT>
1

> <PUBCHEM_CACTVS_TAUTO_COUNT>
8

> <PUBCHEM_CONFORMER_ID>
006CDD8E00000001

> <PUBCHEM_MMFF94_ENERGY>
85.4187

> <PUBCHEM_FEATURE_SELFOVERLAP>
71.109

> <PUBCHEM_SHAPE_FINGERPRINT>
10190108 129 18336277803368431097
10483366 6 18412828005511071690
10670039 82 18335133207221029061
1100329 8 17978503131960248619
12645989 146 18056477481435322471
12788726 201 18410856581906306954
12857493 111 18129664226950502104
13111901 25 18261948528007995706
13140716 1 17977940517288485601
15351339 4 18336819801775427019
15420108 30 17484555276401203065
15790856 291 18340497771561406902
16112460 7 18055921983513793289
17627616 140 18264489494757887738
19311894 1 18123185981205432195
20764821 26 18195800770604320611
20832881 197 18272093859146656602
23536364 44 18272375252023084204
23559900 14 17984701379785439416
25223398 141 18334297586541869980
59755656 215 18410293614197893015
6036956 94 18045797934022401604
70634741 139 18339367465534673460
7226269 152 18338236085064730246

> <PUBCHEM_SHAPE_MULTIPOLES>
663.12
15.61
5.79
1.36
19.78
0.02
-0.01
1.31
-3.01
-5.5
0.92
-0.12
0.4
1.45

> <PUBCHEM_SHAPE_SELFOVERLAP>
1348.526

> <PUBCHEM_SHAPE_VOLUME>
385.3

> <PUBCHEM_COORDINATE_TYPE>
2
5
10

$$$$
