26741971
  -OEChem-12032416353D

 53 54  0     1  0  0  0  0  0999 V2000
   -2.5934   -2.3274    2.4284 O   0  0  0  0  0  0  0  0  0  0  0  0
   -1.9531    1.4360   -1.3870 O   0  0  0  0  0  0  0  0  0  0  0  0
   -0.5398   -2.9068   -1.3420 O   0  0  0  0  0  0  0  0  0  0  0  0
    5.0262   -0.0104   -0.5181 O   0  0  0  0  0  0  0  0  0  0  0  0
    7.4960    0.1230    0.5310 O   0  0  0  0  0  0  0  0  0  0  0  0
   -3.9013    0.3869   -0.6873 N   0  0  0  0  0  0  0  0  0  0  0  0
   -1.1918   -1.1960    0.0801 N   0  0  0  0  0  0  0  0  0  0  0  0
   -3.6267    2.7246   -0.4832 N   0  0  0  0  0  0  0  0  0  0  0  0
    7.0406    2.0719    1.6671 N   0  0  0  0  0  0  0  0  0  0  0  0
   -2.5912   -1.5747    0.1635 C   0  0  1  0  0  0  0  0  0  0  0  0
   -3.1033   -1.2836    1.5868 C   0  0  1  0  0  0  0  0  0  0  0  0
   -4.6273   -1.2426    1.7516 C   0  0  0  0  0  0  0  0  0  0  0  0
   -3.3760   -0.9432   -0.9946 C   0  0  0  0  0  0  0  0  0  0  0  0
   -5.2407    0.1125    1.3878 C   0  0  0  0  0  0  0  0  0  0  0  0
   -5.2476    0.4089   -0.1057 C   0  0  0  0  0  0  0  0  0  0  0  0
   -3.0821    1.5121   -0.8917 C   0  0  0  0  0  0  0  0  0  0  0  0
   -0.2790   -1.9077   -0.6770 C   0  0  0  0  0  0  0  0  0  0  0  0
    1.1192   -1.4073   -0.6367 C   0  0  0  0  0  0  0  0  0  0  0  0
   -2.9099    3.9734   -0.6106 C   0  0  0  0  0  0  0  0  0  0  0  0
    2.1807   -2.2858   -0.8536 C   0  0  0  0  0  0  0  0  0  0  0  0
    1.3706   -0.0595   -0.3800 C   0  0  0  0  0  0  0  0  0  0  0  0
   -1.9027    4.1511    0.5066 C   0  0  0  0  0  0  0  0  0  0  0  0
    3.4937   -1.8166   -0.8136 C   0  0  0  0  0  0  0  0  0  0  0  0
    2.6835    0.4098   -0.3400 C   0  0  0  0  0  0  0  0  0  0  0  0
    3.7450   -0.4688   -0.5567 C   0  0  0  0  0  0  0  0  0  0  0  0
    5.2930    1.0986    0.3391 C   0  0  0  0  0  0  0  0  0  0  0  0
    6.7173    1.0216    0.8359 C   0  0  0  0  0  0  0  0  0  0  0  0
   -2.6197   -2.6614    0.0044 H   0  0  0  0  0  0  0  0  0  0  0  0
   -2.6738   -0.3467    1.9636 H   0  0  0  0  0  0  0  0  0  0  0  0
   -4.8762   -1.4457    2.8016 H   0  0  0  0  0  0  0  0  0  0  0  0
   -5.0980   -2.0515    1.1794 H   0  0  0  0  0  0  0  0  0  0  0  0
   -2.7498   -0.8749   -1.8927 H   0  0  0  0  0  0  0  0  0  0  0  0
   -4.2191   -1.5911   -1.2632 H   0  0  0  0  0  0  0  0  0  0  0  0
   -6.2779    0.1302    1.7441 H   0  0  0  0  0  0  0  0  0  0  0  0
   -4.7122    0.9102    1.9241 H   0  0  0  0  0  0  0  0  0  0  0  0
   -5.8611   -0.3325   -0.6323 H   0  0  0  0  0  0  0  0  0  0  0  0
   -5.7379    1.3673   -0.2931 H   0  0  0  0  0  0  0  0  0  0  0  0
   -0.9027   -0.3835    0.6134 H   0  0  0  0  0  0  0  0  0  0  0  0
   -2.8168   -2.0995    3.3470 H   0  0  0  0  0  0  0  0  0  0  0  0
   -4.5018    2.7579    0.0229 H   0  0  0  0  0  0  0  0  0  0  0  0
   -2.4044    3.9973   -1.5818 H   0  0  0  0  0  0  0  0  0  0  0  0
   -3.6498    4.7795   -0.5875 H   0  0  0  0  0  0  0  0  0  0  0  0
    2.0058   -3.3402   -1.0504 H   0  0  0  0  0  0  0  0  0  0  0  0
    0.5757    0.6672   -0.2437 H   0  0  0  0  0  0  0  0  0  0  0  0
   -2.3944    4.1221    1.4847 H   0  0  0  0  0  0  0  0  0  0  0  0
   -1.1459    3.3598    0.4927 H   0  0  0  0  0  0  0  0  0  0  0  0
   -1.3907    5.1132    0.4090 H   0  0  0  0  0  0  0  0  0  0  0  0
    4.3169   -2.5056   -0.9821 H   0  0  0  0  0  0  0  0  0  0  0  0
    2.8355    1.4719   -0.1714 H   0  0  0  0  0  0  0  0  0  0  0  0
    5.1627    2.0312   -0.2211 H   0  0  0  0  0  0  0  0  0  0  0  0
    4.6503    1.0930    1.2292 H   0  0  0  0  0  0  0  0  0  0  0  0
    6.3763    2.8025    1.9022 H   0  0  0  0  0  0  0  0  0  0  0  0
    7.9662    2.1485    2.0752 H   0  0  0  0  0  0  0  0  0  0  0  0
  1 11  1  0  0  0  0
  1 39  1  0  0  0  0
  2 16  2  0  0  0  0
  3 17  2  0  0  0  0
  4 25  1  0  0  0  0
  4 26  1  0  0  0  0
  5 27  2  0  0  0  0
  6 13  1  0  0  0  0
  6 15  1  0  0  0  0
  6 16  1  0  0  0  0
  7 10  1  0  0  0  0
  7 17  1  0  0  0  0
  7 38  1  0  0  0  0
  8 16  1  0  0  0  0
  8 19  1  0  0  0  0
  8 40  1  0  0  0  0
  9 27  1  0  0  0  0
  9 52  1  0  0  0  0
  9 53  1  0  0  0  0
 10 11  1  0  0  0  0
 10 13  1  0  0  0  0
 10 28  1  0  0  0  0
 11 12  1  0  0  0  0
 11 29  1  0  0  0  0
 12 14  1  0  0  0  0
 12 30  1  0  0  0  0
 12 31  1  0  0  0  0
 13 32  1  0  0  0  0
 13 33  1  0  0  0  0
 14 15  1  0  0  0  0
 14 34  1  0  0  0  0
 14 35  1  0  0  0  0
 15 36  1  0  0  0  0
 15 37  1  0  0  0  0
 17 18  1  0  0  0  0
 18 20  2  0  0  0  0
 18 21  1  0  0  0  0
 19 22  1  0  0  0  0
 19 41  1  0  0  0  0
 19 42  1  0  0  0  0
 20 23  1  0  0  0  0
 20 43  1  0  0  0  0
 21 24  2  0  0  0  0
 21 44  1  0  0  0  0
 22 45  1  0  0  0  0
 22 46  1  0  0  0  0
 22 47  1  0  0  0  0
 23 25  2  0  0  0  0
 23 48  1  0  0  0  0
 24 25  1  0  0  0  0
 24 49  1  0  0  0  0
 26 27  1  0  0  0  0
 26 50  1  0  0  0  0
 26 51  1  0  0  0  0
M  END
> <PUBCHEM_COMPOUND_CID>
26741971

> <PUBCHEM_CONFORMER_RMSD>
1

> <PUBCHEM_CONFORMER_DIVERSEORDER>
2
39
61
38
32
53
23
30
67
7
27
49
20
77
45
56
72
75
14
17
9
25
55
64
8
73
54
68
71
74
52
33
76
31
70
46
6
5
47
57
41
44
26
10
29
40
22
34
36
48
11
60
63
21
16
12
18
59
37
4
62
51
1
19
65
50
69
15
24
58
3
42
66
28
13
43
35

> <PUBCHEM_MMFF94_PARTIAL_CHARGES>
33
1 -0.68
10 0.3
11 0.28
13 0.3
15 0.3
16 0.69
17 0.54
18 0.09
19 0.3
2 -0.57
20 -0.15
21 -0.15
23 -0.15
24 -0.15
25 0.08
26 0.34
27 0.57
3 -0.57
38 0.37
39 0.4
4 -0.36
40 0.37
43 0.15
44 0.15
48 0.15
49 0.15
5 -0.57
52 0.37
53 0.37
6 -0.66
7 -0.73
8 -0.73
9 -0.8

> <PUBCHEM_EFFECTIVE_ROTOR_COUNT>
10.4

> <PUBCHEM_PHARMACOPHORE_FEATURES>
11
1 1 acceptor
1 1 donor
1 2 acceptor
1 3 acceptor
1 4 acceptor
1 5 acceptor
1 7 donor
1 8 donor
1 9 donor
6 18 20 21 23 24 25 rings
7 6 10 11 12 13 14 15 rings

> <PUBCHEM_HEAVY_ATOM_COUNT>
27

> <PUBCHEM_ATOM_DEF_STEREO_COUNT>
2

> <PUBCHEM_ATOM_UDEF_STEREO_COUNT>
0

> <PUBCHEM_BOND_DEF_STEREO_COUNT>
0

> <PUBCHEM_BOND_UDEF_STEREO_COUNT>
0

> <PUBCHEM_ISOTOPIC_ATOM_COUNT>
0

> <PUBCHEM_COMPONENT_COUNT>
1

> <PUBCHEM_CACTVS_TAUTO_COUNT>
8

> <PUBCHEM_CONFORMER_ID>
01980CD300000002

> <PUBCHEM_MMFF94_ENERGY>
64.505

> <PUBCHEM_FEATURE_SELFOVERLAP>
55.833

> <PUBCHEM_SHAPE_FINGERPRINT>
10 15 18334857264473308336
10291535 26 18408322177122501281
10319926 262 17894635846706020250
10675989 125 17111555697770777061
1100329 8 13799759248639221939
11135609 149 16485586304439078924
12403259 415 18342464694920575078
12596602 18 16878226467197702312
13402501 40 18412545405569531369
13690498 29 11167645612415191309
14739800 52 18262785286336725002
14930077 153 13038612016331130320
15119646 57 16629972005875659249
16067690 210 18187909703984743288
17780758 139 16950562228723597859
18393751 57 18411143558393446419
21033648 144 18060140955262935870
21033648 29 18410297994890578390
22182313 1 18269009621540596454
23466295 7 10447057590820669813
23559900 14 17751095621296240295
2838139 119 18272640252333201612
373842 8 18335421322334094116
392239 28 18114475538626028977
497634 4 16917064482250206991
5104073 3 18189334572295745386
9981440 41 18335420128031979475

> <PUBCHEM_SHAPE_MULTIPOLES>
506.38
15.47
3.85
1.54
27.13
3.94
0.75
6.78
6.56
-3.09
-0.26
-1.01
-0.51
3.17

> <PUBCHEM_SHAPE_SELFOVERLAP>
1040.471

> <PUBCHEM_SHAPE_VOLUME>
287

> <PUBCHEM_COORDINATE_TYPE>
2
5
10

$$$$
