71693982
  -OEChem-12032416293D

 44 46  0     1  0  0  0  0  0999 V2000
    3.5426   -4.0077   -0.3720 F   0  0  0  0  0  0  0  0  0  0  0  0
    5.1613   -3.2297    0.8439 F   0  0  0  0  0  0  0  0  0  0  0  0
    5.0834   -2.7711   -1.2801 F   0  0  0  0  0  0  0  0  0  0  0  0
   -0.4011    4.2831   -1.1667 O   0  0  0  0  0  0  0  0  0  0  0  0
    2.3163    4.0442   -0.8529 O   0  0  0  0  0  0  0  0  0  0  0  0
   -0.6199   -0.3229   -1.3173 O   0  0  0  0  0  0  0  0  0  0  0  0
   -1.0824    1.5037    0.0353 N   0  0  0  0  0  0  0  0  0  0  0  0
    2.7037   -1.7000    1.2010 N   0  0  0  0  0  0  0  0  0  0  0  0
   -7.7042   -2.1486    0.5125 N   0  0  0  0  0  0  0  0  0  0  0  0
    1.1808    1.7690    1.0062 C   0  0  2  0  0  0  0  0  0  0  0  0
    0.1932    2.1562   -0.1177 C   0  0  2  0  0  0  0  0  0  0  0  0
    0.0776    3.6738    0.0175 C   0  0  1  0  0  0  0  0  0  0  0  0
    2.0011    3.0499    1.3075 C   0  0  0  0  0  0  0  0  0  0  0  0
    1.5082    4.1042    0.3184 C   0  0  1  0  0  0  0  0  0  0  0  0
    2.0206    0.5563    0.6649 C   0  0  0  0  0  0  0  0  0  0  0  0
    2.8572    0.5536   -0.4458 C   0  0  0  0  0  0  0  0  0  0  0  0
    1.9802   -0.5851    1.4492 C   0  0  0  0  0  0  0  0  0  0  0  0
   -1.3861    0.3003   -0.5871 C   0  0  0  0  0  0  0  0  0  0  0  0
    3.6171   -0.5748   -0.7340 C   0  0  0  0  0  0  0  0  0  0  0  0
   -2.7538   -0.2288   -0.3499 C   0  0  0  0  0  0  0  0  0  0  0  0
    3.5054   -1.6656    0.1129 C   0  0  0  0  0  0  0  0  0  0  0  0
    4.3056   -2.8943   -0.1659 C   0  0  0  0  0  0  0  0  0  0  0  0
   -3.3560   -1.0562   -1.2978 C   0  0  0  0  0  0  0  0  0  0  0  0
   -3.4352    0.1008    0.8218 C   0  0  0  0  0  0  0  0  0  0  0  0
   -4.6396   -1.5541   -1.0740 C   0  0  0  0  0  0  0  0  0  0  0  0
   -4.7188   -0.3971    1.0456 C   0  0  0  0  0  0  0  0  0  0  0  0
   -5.3210   -1.2246    0.0978 C   0  0  0  0  0  0  0  0  0  0  0  0
   -6.6362   -1.7344    0.3266 C   0  0  0  0  0  0  0  0  0  0  0  0
    0.6090    1.5382    1.9172 H   0  0  0  0  0  0  0  0  0  0  0  0
    0.5749    1.9081   -1.1158 H   0  0  0  0  0  0  0  0  0  0  0  0
   -0.5883    3.9448    0.8467 H   0  0  0  0  0  0  0  0  0  0  0  0
    1.7674    3.3771    2.3285 H   0  0  0  0  0  0  0  0  0  0  0  0
    3.0832    2.8913    1.2498 H   0  0  0  0  0  0  0  0  0  0  0  0
    1.5616    5.1232    0.7131 H   0  0  0  0  0  0  0  0  0  0  0  0
   -1.7740    1.9762    0.6069 H   0  0  0  0  0  0  0  0  0  0  0  0
   -0.3572    5.2459   -1.0379 H   0  0  0  0  0  0  0  0  0  0  0  0
    3.2217    4.2890   -0.5960 H   0  0  0  0  0  0  0  0  0  0  0  0
    2.9347    1.4186   -1.0968 H   0  0  0  0  0  0  0  0  0  0  0  0
    1.3471   -0.6469    2.3288 H   0  0  0  0  0  0  0  0  0  0  0  0
    4.2702   -0.5776   -1.5997 H   0  0  0  0  0  0  0  0  0  0  0  0
   -2.8431   -1.3209   -2.2187 H   0  0  0  0  0  0  0  0  0  0  0  0
   -2.9918    0.7130    1.6012 H   0  0  0  0  0  0  0  0  0  0  0  0
   -5.0962   -2.1972   -1.8226 H   0  0  0  0  0  0  0  0  0  0  0  0
   -5.2349   -0.1375    1.9669 H   0  0  0  0  0  0  0  0  0  0  0  0
  1 22  1  0  0  0  0
  2 22  1  0  0  0  0
  3 22  1  0  0  0  0
  4 12  1  0  0  0  0
  4 36  1  0  0  0  0
  5 14  1  0  0  0  0
  5 37  1  0  0  0  0
  6 18  2  0  0  0  0
  7 11  1  0  0  0  0
  7 18  1  0  0  0  0
  7 35  1  0  0  0  0
  8 17  1  0  0  0  0
  8 21  2  0  0  0  0
  9 28  3  0  0  0  0
 10 11  1  0  0  0  0
 10 13  1  0  0  0  0
 10 15  1  0  0  0  0
 10 29  1  0  0  0  0
 11 12  1  0  0  0  0
 11 30  1  0  0  0  0
 12 14  1  0  0  0  0
 12 31  1  0  0  0  0
 13 14  1  0  0  0  0
 13 32  1  0  0  0  0
 13 33  1  0  0  0  0
 14 34  1  0  0  0  0
 15 16  1  0  0  0  0
 15 17  2  0  0  0  0
 16 19  2  0  0  0  0
 16 38  1  0  0  0  0
 17 39  1  0  0  0  0
 18 20  1  0  0  0  0
 19 21  1  0  0  0  0
 19 40  1  0  0  0  0
 20 23  2  0  0  0  0
 20 24  1  0  0  0  0
 21 22  1  0  0  0  0
 23 25  1  0  0  0  0
 23 41  1  0  0  0  0
 24 26  2  0  0  0  0
 24 42  1  0  0  0  0
 25 27  2  0  0  0  0
 25 43  1  0  0  0  0
 26 27  1  0  0  0  0
 26 44  1  0  0  0  0
 27 28  1  0  0  0  0
M  END
> <PUBCHEM_COMPOUND_CID>
71693982

> <PUBCHEM_CONFORMER_RMSD>
0.8

> <PUBCHEM_CONFORMER_DIVERSEORDER>
1
20
14
10
5
8
17
3
2
19
12
16
13
18
6
7
15
11
4
9

> <PUBCHEM_MMFF94_PARTIAL_CHARGES>
37
1 -0.34
10 0.14
11 0.3
12 0.28
14 0.28
15 -0.14
16 -0.15
17 0.16
18 0.54
19 -0.15
2 -0.34
20 0.09
21 0.17
22 1.16
23 -0.15
24 -0.15
25 -0.15
26 -0.15
27 0.07
28 0.48
3 -0.34
35 0.37
36 0.4
37 0.4
38 0.15
39 0.15
4 -0.68
40 0.15
41 0.15
42 0.15
43 0.15
44 0.15
5 -0.68
6 -0.57
7 -0.73
8 -0.62
9 -0.56

> <PUBCHEM_EFFECTIVE_ROTOR_COUNT>
6

> <PUBCHEM_PHARMACOPHORE_FEATURES>
11
1 4 acceptor
1 4 donor
1 5 acceptor
1 5 donor
1 6 acceptor
1 7 donor
1 8 acceptor
1 9 acceptor
5 10 11 12 13 14 rings
6 20 23 24 25 26 27 rings
6 8 15 16 17 19 21 rings

> <PUBCHEM_HEAVY_ATOM_COUNT>
28

> <PUBCHEM_ATOM_DEF_STEREO_COUNT>
4

> <PUBCHEM_ATOM_UDEF_STEREO_COUNT>
0

> <PUBCHEM_BOND_DEF_STEREO_COUNT>
0

> <PUBCHEM_BOND_UDEF_STEREO_COUNT>
0

> <PUBCHEM_ISOTOPIC_ATOM_COUNT>
0

> <PUBCHEM_COMPONENT_COUNT>
1

> <PUBCHEM_CACTVS_TAUTO_COUNT>
2

> <PUBCHEM_CONFORMER_ID>
0445F69E00000001

> <PUBCHEM_MMFF94_ENERGY>
69.6063

> <PUBCHEM_FEATURE_SELFOVERLAP>
55.834

> <PUBCHEM_SHAPE_FINGERPRINT>
10411042 1 18338516339864397410
10554248 39 18340194315843031405
11059845 2 17201097889559419659
114674 6 18187919633626845467
117089 54 18268441135137895183
11954058 11 18410858789282094135
11991303 11 17537442816996476573
12107183 9 18199479779445104833
12553582 1 18412254026229197278
12788726 201 17829042109143137400
13009979 54 17917158216702420481
13533116 47 18339644572534327531
13692114 37 17476346674976128514
13785724 45 18342466898238843247
13911852 28 18339924818707740895
13955234 65 18198059390109199777
14251764 30 18409732820392309931
14863182 85 18194955482017380552
14866123 147 17980761537433934233
15042514 8 17980483364828177040
15250474 111 17841420738178791279
15927050 60 17909552005530636854
17349148 13 17561082549301033221
17492 89 18340204189566675411
17818456 19 17989215824300892761
1813 80 18343028761079956158
19319366 153 17840308053622502537
1979834 28 18269259335070675000
20165401 70 18270116959232619583
20505436 4 17413596386954469533
20775438 99 18048022258313680763
20775530 9 18340758244052411694
21049683 271 18410016567891731084
21344244 78 18130216168680580849
22033318 11 18056512550518248873
22849339 104 17548709478264764692
22950370 63 18339648845161837931
23559900 14 18338229462346154387
255183 451 18412549816526941711
3380486 145 17342052050240655696
3388396 114 17534662328605055508
3421961 26 18412822520811305041
345986 75 17847065480097763649
34797466 226 16588307254387003719
4144715 1 18114744958484101641
4394409 98 15239501787277210534
4409770 3 17832141619795937605
44880168 125 16916221040757641870
46194498 28 17531526602397987805
465052 167 18343025505975293847
5309563 4 18339079285502148595
56633871 153 17988639654026853063
57527585 21 14709489066185963374
613672 6 18195218088738179014
6695519 79 16627106683554840218
70251023 43 18408606954691802865
7970288 3 18338796715166671043
8272917 22 18120089739555734069
86090 222 17530968038065618731

> <PUBCHEM_SHAPE_MULTIPOLES>
521.85
12.98
5.39
1.25
23.22
3.1
-0.02
-15.91
-1.14
-8.82
0.66
-0.11
0.02
0.28

> <PUBCHEM_SHAPE_SELFOVERLAP>
1129.827

> <PUBCHEM_SHAPE_VOLUME>
286

> <PUBCHEM_COORDINATE_TYPE>
2
5
10

$$$$
