26744180
  -OEChem-12032416313D

 44 47  0     1  0  0  0  0  0999 V2000
   -4.5977    3.5591    0.5896 O   0  0  0  0  0  0  0  0  0  0  0  0
   -0.9438   -0.2268   -2.1008 O   0  0  0  0  0  0  0  0  0  0  0  0
    6.1820    0.4339    0.5974 O   0  0  0  0  0  0  0  0  0  0  0  0
   -3.1594    0.2877    0.5783 N   0  0  1  0  0  0  0  0  0  0  0  0
   -0.1625    0.7558   -0.2458 N   0  0  0  0  0  0  0  0  0  0  0  0
   -1.6000   -2.1098    1.5704 N   0  0  0  0  0  0  0  0  0  0  0  0
   -2.1961   -2.9674   -0.3894 N   0  0  0  0  0  0  0  0  0  0  0  0
    0.4440   -0.4154   -2.1151 N   0  0  0  0  0  0  0  0  0  0  0  0
   -2.6720    0.8068   -0.7157 C   0  0  1  0  0  0  0  0  0  0  0  0
   -2.9316    2.3235   -0.6546 C   0  0  0  0  0  0  0  0  0  0  0  0
   -3.6079    2.5540    0.6911 C   0  0  2  0  0  0  0  0  0  0  0  0
   -4.2104    1.2017    1.0216 C   0  0  0  0  0  0  0  0  0  0  0  0
   -3.6262   -1.0906    0.5052 C   0  0  0  0  0  0  0  0  0  0  0  0
   -1.2170    0.4714   -0.9676 C   0  0  0  0  0  0  0  0  0  0  0  0
   -2.4841   -2.0714    0.5283 C   0  0  0  0  0  0  0  0  0  0  0  0
    0.8325    0.1914   -0.9897 C   0  0  0  0  0  0  0  0  0  0  0  0
   -0.6904   -3.0930    1.3000 C   0  0  0  0  0  0  0  0  0  0  0  0
    2.2061    0.2531   -0.5809 C   0  0  0  0  0  0  0  0  0  0  0  0
   -1.0789   -3.6077    0.0855 C   0  0  0  0  0  0  0  0  0  0  0  0
    2.5534    0.9021    0.6039 C   0  0  0  0  0  0  0  0  0  0  0  0
    3.1949   -0.3350   -1.3695 C   0  0  0  0  0  0  0  0  0  0  0  0
    3.8893    0.9631    1.0001 C   0  0  0  0  0  0  0  0  0  0  0  0
    4.5309   -0.2740   -0.9736 C   0  0  0  0  0  0  0  0  0  0  0  0
    4.8781    0.3751    0.2113 C   0  0  0  0  0  0  0  0  0  0  0  0
    6.4668    1.1124    1.8199 C   0  0  0  0  0  0  0  0  0  0  0  0
   -3.2737    0.4082   -1.5448 H   0  0  0  0  0  0  0  0  0  0  0  0
   -2.0198    2.9270   -0.7298 H   0  0  0  0  0  0  0  0  0  0  0  0
   -3.5890    2.6288   -1.4784 H   0  0  0  0  0  0  0  0  0  0  0  0
   -2.8723    2.8483    1.4497 H   0  0  0  0  0  0  0  0  0  0  0  0
   -4.4158    1.1096    2.0933 H   0  0  0  0  0  0  0  0  0  0  0  0
   -5.1543    1.0516    0.4808 H   0  0  0  0  0  0  0  0  0  0  0  0
   -4.2602   -1.2677   -0.3725 H   0  0  0  0  0  0  0  0  0  0  0  0
   -4.2460   -1.3198    1.3831 H   0  0  0  0  0  0  0  0  0  0  0  0
   -4.1557    4.3764    0.3028 H   0  0  0  0  0  0  0  0  0  0  0  0
   -1.6137   -1.5180    2.3905 H   0  0  0  0  0  0  0  0  0  0  0  0
    0.1221   -3.3260    1.9728 H   0  0  0  0  0  0  0  0  0  0  0  0
   -0.6103   -4.4057   -0.4715 H   0  0  0  0  0  0  0  0  0  0  0  0
    1.8050    1.3695    1.2393 H   0  0  0  0  0  0  0  0  0  0  0  0
    2.9625   -0.8492   -2.2987 H   0  0  0  0  0  0  0  0  0  0  0  0
    4.0893    1.4824    1.9312 H   0  0  0  0  0  0  0  0  0  0  0  0
    5.2972   -0.7338   -1.5918 H   0  0  0  0  0  0  0  0  0  0  0  0
    7.5500    1.0627    1.9723 H   0  0  0  0  0  0  0  0  0  0  0  0
    6.0004    0.6126    2.6756 H   0  0  0  0  0  0  0  0  0  0  0  0
    6.2004    2.1733    1.7628 H   0  0  0  0  0  0  0  0  0  0  0  0
  1 11  1  0  0  0  0
  1 34  1  0  0  0  0
  2  8  1  0  0  0  0
  2 14  1  0  0  0  0
  3 24  1  0  0  0  0
  3 25  1  0  0  0  0
  4  9  1  0  0  0  0
  4 12  1  0  0  0  0
  4 13  1  0  0  0  0
  5 14  2  0  0  0  0
  5 16  1  0  0  0  0
  6 15  1  0  0  0  0
  6 17  1  0  0  0  0
  6 35  1  0  0  0  0
  7 15  2  0  0  0  0
  7 19  1  0  0  0  0
  8 16  2  0  0  0  0
  9 10  1  0  0  0  0
  9 14  1  0  0  0  0
  9 26  1  0  0  0  0
 10 11  1  0  0  0  0
 10 27  1  0  0  0  0
 10 28  1  0  0  0  0
 11 12  1  0  0  0  0
 11 29  1  0  0  0  0
 12 30  1  0  0  0  0
 12 31  1  0  0  0  0
 13 15  1  0  0  0  0
 13 32  1  0  0  0  0
 13 33  1  0  0  0  0
 16 18  1  0  0  0  0
 17 19  2  0  0  0  0
 17 36  1  0  0  0  0
 18 20  2  0  0  0  0
 18 21  1  0  0  0  0
 19 37  1  0  0  0  0
 20 22  1  0  0  0  0
 20 38  1  0  0  0  0
 21 23  2  0  0  0  0
 21 39  1  0  0  0  0
 22 24  2  0  0  0  0
 22 40  1  0  0  0  0
 23 24  1  0  0  0  0
 23 41  1  0  0  0  0
 25 42  1  0  0  0  0
 25 43  1  0  0  0  0
 25 44  1  0  0  0  0
M  END
> <PUBCHEM_COMPOUND_CID>
26744180

> <PUBCHEM_CONFORMER_RMSD>
0.8

> <PUBCHEM_CONFORMER_DIVERSEORDER>
1
6
44
23
10
40
30
48
14
49
36
31
42
19
46
3
15
11
9
45
25
38
41
26
34
2
24
29
35
5
37
39
12
18
7
32
43
16
20
33
17
4
22
21
13
8
28
47
27

> <PUBCHEM_MMFF94_PARTIAL_CHARGES>
32
1 -0.68
11 0.28
12 0.27
13 0.45
14 0.3
15 0.01
16 0.46
17 -0.3
18 0.05
19 0.08
2 -0.02
20 -0.15
21 -0.15
22 -0.15
23 -0.15
24 0.08
25 0.28
3 -0.36
34 0.4
35 0.27
36 0.15
37 0.15
38 0.15
39 0.15
4 -0.81
40 0.15
41 0.15
5 -0.57
6 0.03
7 -0.57
8 -0.41
9 0.45

> <PUBCHEM_EFFECTIVE_ROTOR_COUNT>
6

> <PUBCHEM_PHARMACOPHORE_FEATURES>
11
1 1 acceptor
1 1 donor
1 3 acceptor
1 4 cation
1 6 donor
3 5 8 16 cation
3 6 7 15 cation
5 2 5 8 14 16 rings
5 4 9 10 11 12 rings
5 6 7 15 17 19 rings
6 18 20 21 22 23 24 rings

> <PUBCHEM_HEAVY_ATOM_COUNT>
25

> <PUBCHEM_ATOM_DEF_STEREO_COUNT>
2

> <PUBCHEM_ATOM_UDEF_STEREO_COUNT>
0

> <PUBCHEM_BOND_DEF_STEREO_COUNT>
0

> <PUBCHEM_BOND_UDEF_STEREO_COUNT>
0

> <PUBCHEM_ISOTOPIC_ATOM_COUNT>
0

> <PUBCHEM_COMPONENT_COUNT>
1

> <PUBCHEM_CACTVS_TAUTO_COUNT>
1

> <PUBCHEM_CONFORMER_ID>
0198157400000001

> <PUBCHEM_MMFF94_ENERGY>
51.7906

> <PUBCHEM_FEATURE_SELFOVERLAP>
55.824

> <PUBCHEM_SHAPE_FINGERPRINT>
11370993 144 18411699872811870766
11552529 35 18192144017789050378
12293681 4 18343585140229819832
12422481 6 17459178587267431114
12616971 3 16588023520457857620
12633257 1 18336556009141975128
12788726 201 18045801223318288951
13004483 165 17979640366101682391
13140716 1 17902806480683436091
13583140 156 17774723177215467098
13994607 96 13901639596214818943
14178342 30 18334860549633095214
15021287 119 16660639657844539676
16988056 13 10651538032597651706
19377110 9 17458906067719636028
20554085 129 18267004086730722481
20600515 1 18336561446687097637
21033648 29 18339932506351203521
212916 134 18337394833746015281
21401589 2 18059582347642568729
23559900 14 18267604420100308318
23728640 28 18188500180367467139
5104073 3 18264189457776419584
5265222 85 18119844428388338086
5364581 5 18052529156913538072
5924683 9 18268987751213852758
602551 16 18261395589638892146
7064713 232 18187368709776784190
90127 26 17917715721207009260
9862522 239 17749382608133637053

> <PUBCHEM_SHAPE_MULTIPOLES>
471.98
11.44
3.45
1.63
17.02
1.9
0.29
-7.03
-5.04
-5.95
-1.2
0.86
0.09
0.73

> <PUBCHEM_SHAPE_SELFOVERLAP>
1027.417

> <PUBCHEM_SHAPE_VOLUME>
258.6

> <PUBCHEM_COORDINATE_TYPE>
2
5
10

$$$$
