44716331
  -OEChem-12032416183D

 43 46  0     1  0  0  0  0  0999 V2000
    4.9223   -0.4955   -0.2632 S   0  0  0  0  0  0  0  0  0  0  0  0
   -3.3855    0.4378    1.0708 N   0  0  2  0  0  0  0  0  0  0  0  0
    0.7670   -2.0972   -0.1145 N   0  0  0  0  0  0  0  0  0  0  0  0
   -2.7069    3.5775   -0.9185 N   0  0  0  0  0  0  0  0  0  0  0  0
    2.0789   -1.8198   -0.2043 N   0  0  0  0  0  0  0  0  0  0  0  0
   -2.3949   -0.8854   -0.9419 C   0  0  2  0  0  0  0  0  0  0  0  0
   -1.5198   -1.0882    0.3259 C   0  0  2  0  0  0  0  0  0  0  0  0
   -3.2739    1.3262   -0.1160 C   0  0  2  0  0  0  0  0  0  0  0  0
   -2.5011    0.6226   -1.2524 C   0  0  0  0  0  0  0  0  0  0  0  0
   -3.8146   -1.3764   -0.5860 C   0  0  0  0  0  0  0  0  0  0  0  0
   -2.0533   -0.1171    1.4176 C   0  0  0  0  0  0  0  0  0  0  0  0
   -4.2774   -0.6906    0.7114 C   0  0  0  0  0  0  0  0  0  0  0  0
   -0.0072   -1.0121    0.1747 C   0  0  0  0  0  0  0  0  0  0  0  0
   -2.6656    2.6870    0.2297 C   0  0  0  0  0  0  0  0  0  0  0  0
    0.8585    0.0488    0.2820 C   0  0  0  0  0  0  0  0  0  0  0  0
    2.1286   -0.5074    0.0388 C   0  0  0  0  0  0  0  0  0  0  0  0
    0.3174   -3.4539   -0.3235 C   0  0  0  0  0  0  0  0  0  0  0  0
    3.4028    0.2336    0.0397 C   0  0  0  0  0  0  0  0  0  0  0  0
    3.5169    1.5849    0.2821 C   0  0  0  0  0  0  0  0  0  0  0  0
    4.8698    2.0274    0.2181 C   0  0  0  0  0  0  0  0  0  0  0  0
    5.7379    0.9977   -0.0706 C   0  0  0  0  0  0  0  0  0  0  0  0
   -1.9936   -1.4323   -1.8013 H   0  0  0  0  0  0  0  0  0  0  0  0
   -1.7344   -2.1018    0.6971 H   0  0  0  0  0  0  0  0  0  0  0  0
   -4.2960    1.5289   -0.4704 H   0  0  0  0  0  0  0  0  0  0  0  0
   -3.0337    0.7660   -2.2007 H   0  0  0  0  0  0  0  0  0  0  0  0
   -1.4937    1.0339   -1.3830 H   0  0  0  0  0  0  0  0  0  0  0  0
   -4.5057   -1.1437   -1.4052 H   0  0  0  0  0  0  0  0  0  0  0  0
   -3.8213   -2.4647   -0.4548 H   0  0  0  0  0  0  0  0  0  0  0  0
   -1.3626    0.7000    1.6445 H   0  0  0  0  0  0  0  0  0  0  0  0
   -2.1385   -0.6665    2.3654 H   0  0  0  0  0  0  0  0  0  0  0  0
   -5.3078   -0.3321    0.5961 H   0  0  0  0  0  0  0  0  0  0  0  0
   -4.3098   -1.4159    1.5344 H   0  0  0  0  0  0  0  0  0  0  0  0
   -3.2308    3.1470    1.0485 H   0  0  0  0  0  0  0  0  0  0  0  0
   -1.6271    2.5956    0.5637 H   0  0  0  0  0  0  0  0  0  0  0  0
    0.5990    1.0755    0.4959 H   0  0  0  0  0  0  0  0  0  0  0  0
   -2.3098    4.4803   -0.6611 H   0  0  0  0  0  0  0  0  0  0  0  0
   -2.1195    3.2159   -1.6681 H   0  0  0  0  0  0  0  0  0  0  0  0
   -0.0107   -3.8585    0.6370 H   0  0  0  0  0  0  0  0  0  0  0  0
    1.1426   -4.0539   -0.7167 H   0  0  0  0  0  0  0  0  0  0  0  0
   -0.5024   -3.4481   -1.0456 H   0  0  0  0  0  0  0  0  0  0  0  0
    2.6870    2.2462    0.4972 H   0  0  0  0  0  0  0  0  0  0  0  0
    5.1900    3.0491    0.3758 H   0  0  0  0  0  0  0  0  0  0  0  0
    6.8121    1.0508   -0.1776 H   0  0  0  0  0  0  0  0  0  0  0  0
  1 18  1  0  0  0  0
  1 21  1  0  0  0  0
  2  8  1  0  0  0  0
  2 11  1  0  0  0  0
  2 12  1  0  0  0  0
  3  5  1  0  0  0  0
  3 13  1  0  0  0  0
  3 17  1  0  0  0  0
  4 14  1  0  0  0  0
  4 36  1  0  0  0  0
  4 37  1  0  0  0  0
  5 16  2  0  0  0  0
  6  7  1  0  0  0  0
  6  9  1  0  0  0  0
  6 10  1  0  0  0  0
  6 22  1  0  0  0  0
  7 11  1  0  0  0  0
  7 13  1  0  0  0  0
  7 23  1  0  0  0  0
  8  9  1  0  0  0  0
  8 14  1  0  0  0  0
  8 24  1  0  0  0  0
  9 25  1  0  0  0  0
  9 26  1  0  0  0  0
 10 12  1  0  0  0  0
 10 27  1  0  0  0  0
 10 28  1  0  0  0  0
 11 29  1  0  0  0  0
 11 30  1  0  0  0  0
 12 31  1  0  0  0  0
 12 32  1  0  0  0  0
 13 15  2  0  0  0  0
 14 33  1  0  0  0  0
 14 34  1  0  0  0  0
 15 16  1  0  0  0  0
 15 35  1  0  0  0  0
 16 18  1  0  0  0  0
 17 38  1  0  0  0  0
 17 39  1  0  0  0  0
 17 40  1  0  0  0  0
 18 19  2  0  0  0  0
 19 20  1  0  0  0  0
 19 41  1  0  0  0  0
 20 21  2  0  0  0  0
 20 42  1  0  0  0  0
 21 43  1  0  0  0  0
M  END
> <PUBCHEM_COMPOUND_CID>
44716331

> <PUBCHEM_CONFORMER_RMSD>
0.6

> <PUBCHEM_CONFORMER_DIVERSEORDER>
3
13
18
19
14
17
2
4
10
11
5
20
12
6
8
15
9
7
16
1

> <PUBCHEM_MMFF94_PARTIAL_CHARGES>
24
1 -0.08
11 0.27
12 0.27
13 -0.33
14 0.27
15 -0.15
16 0.29
17 0.26
18 0.04
19 -0.15
2 -0.81
20 -0.15
21 -0.11
3 0.31
35 0.15
36 0.36
37 0.36
4 -0.99
41 0.15
42 0.15
43 0.15
5 -0.71
7 0.18
8 0.27

> <PUBCHEM_EFFECTIVE_ROTOR_COUNT>
4.2

> <PUBCHEM_PHARMACOPHORE_FEATURES>
7
1 2 cation
1 4 cation
1 4 donor
1 5 acceptor
5 1 18 19 20 21 rings
5 3 5 13 15 16 rings
8 2 6 7 8 9 10 11 12 rings

> <PUBCHEM_HEAVY_ATOM_COUNT>
21

> <PUBCHEM_ATOM_DEF_STEREO_COUNT>
3

> <PUBCHEM_ATOM_UDEF_STEREO_COUNT>
0

> <PUBCHEM_BOND_DEF_STEREO_COUNT>
0

> <PUBCHEM_BOND_UDEF_STEREO_COUNT>
0

> <PUBCHEM_ISOTOPIC_ATOM_COUNT>
0

> <PUBCHEM_COMPONENT_COUNT>
1

> <PUBCHEM_CACTVS_TAUTO_COUNT>
1

> <PUBCHEM_CONFORMER_ID>
02AA512B00000003

> <PUBCHEM_MMFF94_ENERGY>
37.5649

> <PUBCHEM_FEATURE_SELFOVERLAP>
35.522

> <PUBCHEM_SHAPE_FINGERPRINT>
10498660 4 18410285900325969965
10670039 82 18260844708728683556
10803635 8 12247414353562794640
11595378 159 17968360321672303224
12107183 9 17756412778212930290
12236239 1 17775573047757980987
12390115 104 18270697384346944017
12403259 226 18198619019962899040
12403259 415 18273210924253089160
12403260 363 18409720781751329782
12507557 5 17023182776993843428
12596602 18 16733263568647416768
12670546 56 17603574232328053410
12916748 109 18410296947382430914
13140716 1 17901113228059278291
14142880 1 17895188858215745933
14251751 93 18201716249839807364
14251764 75 17910679756943592993
14508225 48 17550654951962782214
15183329 4 18412548713453511070
15196674 1 18411419505736353384
15463212 79 18271512208758370902
15537594 2 12319467609868591140
17844677 252 18409736145039238740
1813 80 10807668838739935066
18186145 218 18202289095709153678
204376 136 18410858801993065458
20645477 56 18268996552144738946
20645477 70 17203345398938301918
21033648 144 18057034925488414084
21033648 29 18340759421174306888
21279426 13 18268716005234418454
21524375 3 18342741857634354922
21652331 79 18410575110470104857
21864079 5 18410568453507977980
221357 26 18273212027832849940
22950370 63 8718834206206800162
23402539 116 18199463436298042575
23557571 272 17894927234345645059
23559900 14 17983290431284075378
27216 239 18260832587861039849
474 4 18342181072349504874
4921388 177 14548730746493238541
5104073 3 18261114015292281194
5281201 14 18201728331941351316
633830 44 18131077008796109470
7808743 9 18194401324141303320
90127 26 18334022687839928192
9981440 41 18334852809785478338

> <PUBCHEM_SHAPE_MULTIPOLES>
416.1
10.59
3.1
0.97
11.4
0.64
0.03
4.63
0.02
-1.24
-0.62
-0.87
0.11
0.45

> <PUBCHEM_SHAPE_SELFOVERLAP>
884.933

> <PUBCHEM_SHAPE_VOLUME>
235.3

> <PUBCHEM_COORDINATE_TYPE>
2
5
10

$$$$
