45784388
  -OEChem-12032416343D

 80 83  0     1  0  0  0  0  0999 V2000
   -0.6549    2.1523   -1.6797 O   0  0  0  0  0  0  0  0  0  0  0  0
   -5.4659    2.7376    0.5749 O   0  0  0  0  0  0  0  0  0  0  0  0
    4.4466   -2.3542   -0.7846 O   0  0  0  0  0  0  0  0  0  0  0  0
   10.1770    0.2027    0.0335 O   0  0  0  0  0  0  0  0  0  0  0  0
   -5.3733   -1.8069   -1.9338 O   0  0  0  0  0  0  0  0  0  0  0  0
    3.8362   -0.2993    0.0987 N   0  0  0  0  0  0  0  0  0  0  0  0
   -5.0666    1.3130   -1.2113 N   0  0  0  0  0  0  0  0  0  0  0  0
   -0.2766   -0.1260    1.3606 C   0  0  1  0  0  0  0  0  0  0  0  0
    0.0682    0.5131   -0.0259 C   0  0  2  0  0  0  0  0  0  0  0  0
    1.6111    0.7815   -0.1493 C   0  0  1  0  0  0  0  0  0  0  0  0
   -0.8487    1.7330   -0.3280 C   0  0  2  0  0  0  0  0  0  0  0  0
   -1.7817   -0.4809    1.4048 C   0  0  0  0  0  0  0  0  0  0  0  0
    0.5217   -1.4401    1.5226 C   0  0  0  0  0  0  0  0  0  0  0  0
   -2.3514    1.3985   -0.1802 C   0  0  1  0  0  0  0  0  0  0  0  0
    2.4071   -0.5322    0.0899 C   0  0  2  0  0  0  0  0  0  0  0  0
   -2.6832    0.7195    1.1484 C   0  0  0  0  0  0  0  0  0  0  0  0
    2.0252   -1.2467    1.3860 C   0  0  0  0  0  0  0  0  0  0  0  0
    0.0475    0.8175    2.5465 C   0  0  0  0  0  0  0  0  0  0  0  0
   -3.2310    2.6429   -0.3535 C   0  0  2  0  0  0  0  0  0  0  0  0
    2.0250    1.3844   -1.5024 C   0  0  0  0  0  0  0  0  0  0  0  0
   -2.8655    3.6934    0.6894 C   0  0  0  0  0  0  0  0  0  0  0  0
   -4.7037    2.2556   -0.2603 C   0  0  0  0  0  0  0  0  0  0  0  0
    4.7432   -1.2459   -0.3464 C   0  0  0  0  0  0  0  0  0  0  0  0
    6.1753   -0.8640   -0.2473 C   0  0  0  0  0  0  0  0  0  0  0  0
   -6.4084    0.7893   -1.3200 C   0  0  0  0  0  0  0  0  0  0  0  0
    7.1525   -1.8505   -0.1146 C   0  0  0  0  0  0  0  0  0  0  0  0
    6.5430    0.4810   -0.2860 C   0  0  0  0  0  0  0  0  0  0  0  0
   -6.6177   -0.4073   -0.4376 C   0  0  0  0  0  0  0  0  0  0  0  0
    8.4972   -1.4920   -0.0201 C   0  0  0  0  0  0  0  0  0  0  0  0
    7.8876    0.8396   -0.1915 C   0  0  0  0  0  0  0  0  0  0  0  0
    8.8647   -0.1469   -0.0585 C   0  0  0  0  0  0  0  0  0  0  0  0
   -6.0905   -1.6508   -0.7858 C   0  0  0  0  0  0  0  0  0  0  0  0
   -7.3487   -0.2651    0.7419 C   0  0  0  0  0  0  0  0  0  0  0  0
   -6.2942   -2.7522    0.0454 C   0  0  0  0  0  0  0  0  0  0  0  0
   -7.5526   -1.3666    1.5730 C   0  0  0  0  0  0  0  0  0  0  0  0
   -7.0254   -2.6102    1.2249 C   0  0  0  0  0  0  0  0  0  0  0  0
   10.4822    1.5958   -0.0126 C   0  0  0  0  0  0  0  0  0  0  0  0
   -4.8716   -3.1128   -2.2113 C   0  0  0  0  0  0  0  0  0  0  0  0
   -0.1603   -0.2371   -0.8000 H   0  0  0  0  0  0  0  0  0  0  0  0
    1.9058    1.5132    0.6137 H   0  0  0  0  0  0  0  0  0  0  0  0
   -0.5326    2.5552    0.3162 H   0  0  0  0  0  0  0  0  0  0  0  0
   -2.0028   -1.2497    0.6520 H   0  0  0  0  0  0  0  0  0  0  0  0
   -2.0397   -0.9222    2.3761 H   0  0  0  0  0  0  0  0  0  0  0  0
    0.1958   -2.1653    0.7648 H   0  0  0  0  0  0  0  0  0  0  0  0
    0.3069   -1.8978    2.4967 H   0  0  0  0  0  0  0  0  0  0  0  0
   -2.5879    0.6814   -0.9777 H   0  0  0  0  0  0  0  0  0  0  0  0
    2.1870   -1.2148   -0.7426 H   0  0  0  0  0  0  0  0  0  0  0  0
   -2.6002    1.3967    2.0010 H   0  0  0  0  0  0  0  0  0  0  0  0
   -3.7172    0.3559    1.1529 H   0  0  0  0  0  0  0  0  0  0  0  0
    2.5125   -2.2296    1.4260 H   0  0  0  0  0  0  0  0  0  0  0  0
    2.4142   -0.6953    2.2507 H   0  0  0  0  0  0  0  0  0  0  0  0
    1.1127    1.0493    2.6256 H   0  0  0  0  0  0  0  0  0  0  0  0
   -0.2497    0.3578    3.4964 H   0  0  0  0  0  0  0  0  0  0  0  0
   -0.4728    1.7765    2.4734 H   0  0  0  0  0  0  0  0  0  0  0  0
   -3.0797    3.0762   -1.3505 H   0  0  0  0  0  0  0  0  0  0  0  0
    1.6865    2.4203   -1.5932 H   0  0  0  0  0  0  0  0  0  0  0  0
    3.1131    1.4224   -1.6174 H   0  0  0  0  0  0  0  0  0  0  0  0
    1.6239    0.8005   -2.3372 H   0  0  0  0  0  0  0  0  0  0  0  0
    4.1593    0.5479    0.5540 H   0  0  0  0  0  0  0  0  0  0  0  0
   -0.8798    1.4072   -2.2627 H   0  0  0  0  0  0  0  0  0  0  0  0
   -1.8499    4.0783    0.5743 H   0  0  0  0  0  0  0  0  0  0  0  0
   -3.5211    4.5653    0.5641 H   0  0  0  0  0  0  0  0  0  0  0  0
   -3.0096    3.3692    1.7226 H   0  0  0  0  0  0  0  0  0  0  0  0
   -4.3902    1.0030   -1.9015 H   0  0  0  0  0  0  0  0  0  0  0  0
   -6.5816    0.5242   -2.3692 H   0  0  0  0  0  0  0  0  0  0  0  0
   -7.1223    1.5850   -1.0758 H   0  0  0  0  0  0  0  0  0  0  0  0
    6.8860   -2.9035   -0.0778 H   0  0  0  0  0  0  0  0  0  0  0  0
    5.8163    1.2772   -0.4195 H   0  0  0  0  0  0  0  0  0  0  0  0
    9.2540   -2.2647    0.0843 H   0  0  0  0  0  0  0  0  0  0  0  0
    8.1041    1.9015   -0.2351 H   0  0  0  0  0  0  0  0  0  0  0  0
   -7.7644    0.6974    1.0278 H   0  0  0  0  0  0  0  0  0  0  0  0
   -5.9153   -3.7475   -0.1590 H   0  0  0  0  0  0  0  0  0  0  0  0
   -8.1213   -1.2559    2.4917 H   0  0  0  0  0  0  0  0  0  0  0  0
   -7.1846   -3.4671    1.8732 H   0  0  0  0  0  0  0  0  0  0  0  0
   11.5694    1.6915    0.0755 H   0  0  0  0  0  0  0  0  0  0  0  0
   10.1993    2.0380   -0.9738 H   0  0  0  0  0  0  0  0  0  0  0  0
   10.0444    2.1321    0.8362 H   0  0  0  0  0  0  0  0  0  0  0  0
   -4.3283   -3.0536   -3.1602 H   0  0  0  0  0  0  0  0  0  0  0  0
   -5.6823   -3.8354   -2.3546 H   0  0  0  0  0  0  0  0  0  0  0  0
   -4.1507   -3.4377   -1.4533 H   0  0  0  0  0  0  0  0  0  0  0  0
  1 11  1  0  0  0  0
  1 60  1  0  0  0  0
  2 22  2  0  0  0  0
  3 23  2  0  0  0  0
  4 31  1  0  0  0  0
  4 37  1  0  0  0  0
  5 32  1  0  0  0  0
  5 38  1  0  0  0  0
  6 15  1  0  0  0  0
  6 23  1  0  0  0  0
  6 59  1  0  0  0  0
  7 22  1  0  0  0  0
  7 25  1  0  0  0  0
  7 64  1  0  0  0  0
  8  9  1  0  0  0  0
  8 12  1  0  0  0  0
  8 13  1  0  0  0  0
  8 18  1  0  0  0  0
  9 10  1  0  0  0  0
  9 11  1  0  0  0  0
  9 39  1  0  0  0  0
 10 15  1  0  0  0  0
 10 20  1  0  0  0  0
 10 40  1  0  0  0  0
 11 14  1  0  0  0  0
 11 41  1  0  0  0  0
 12 16  1  0  0  0  0
 12 42  1  0  0  0  0
 12 43  1  0  0  0  0
 13 17  1  0  0  0  0
 13 44  1  0  0  0  0
 13 45  1  0  0  0  0
 14 16  1  0  0  0  0
 14 19  1  0  0  0  0
 14 46  1  0  0  0  0
 15 17  1  0  0  0  0
 15 47  1  0  0  0  0
 16 48  1  0  0  0  0
 16 49  1  0  0  0  0
 17 50  1  0  0  0  0
 17 51  1  0  0  0  0
 18 52  1  0  0  0  0
 18 53  1  0  0  0  0
 18 54  1  0  0  0  0
 19 21  1  0  0  0  0
 19 22  1  0  0  0  0
 19 55  1  0  0  0  0
 20 56  1  0  0  0  0
 20 57  1  0  0  0  0
 20 58  1  0  0  0  0
 21 61  1  0  0  0  0
 21 62  1  0  0  0  0
 21 63  1  0  0  0  0
 23 24  1  0  0  0  0
 24 26  2  0  0  0  0
 24 27  1  0  0  0  0
 25 28  1  0  0  0  0
 25 65  1  0  0  0  0
 25 66  1  0  0  0  0
 26 29  1  0  0  0  0
 26 67  1  0  0  0  0
 27 30  2  0  0  0  0
 27 68  1  0  0  0  0
 28 32  1  0  0  0  0
 28 33  2  0  0  0  0
 29 31  2  0  0  0  0
 29 69  1  0  0  0  0
 30 31  1  0  0  0  0
 30 70  1  0  0  0  0
 32 34  2  0  0  0  0
 33 35  1  0  0  0  0
 33 71  1  0  0  0  0
 34 36  1  0  0  0  0
 34 72  1  0  0  0  0
 35 36  2  0  0  0  0
 35 73  1  0  0  0  0
 36 74  1  0  0  0  0
 37 75  1  0  0  0  0
 37 76  1  0  0  0  0
 37 77  1  0  0  0  0
 38 78  1  0  0  0  0
 38 79  1  0  0  0  0
 38 80  1  0  0  0  0
M  END
> <PUBCHEM_COMPOUND_CID>
45784388

> <PUBCHEM_CONFORMER_RMSD>
1.2

> <PUBCHEM_CONFORMER_DIVERSEORDER>
1
82
105
76
133
55
130
106
54
111
34
142
96
139
119
11
123
141
35
144
126
53
42
46
29
49
121
127
19
45
138
51
143
81
43
61
60
134
120
2
135
88
124
52
16
128
3
91
146
92
95
17
71
129
39
22
148
47
137
80
72
73
131
12
48
132
89
136
104
65
113
7
112
97
20
13
14
147
110
145
57
30
8
15
125
115
93
101
116
122
40
23
44
50
58
68
64
114
84
32
86
63
85
140
38
5
56
21
37
41
107
36
9
69
79
31
78
59
108
33
75
94
10
70
18
99
100
103
62
117
98
26
25
118
74
83
4
27
6
90
77
87
24
109
102
66
67
28

> <PUBCHEM_MMFF94_PARTIAL_CHARGES>
38
1 -0.68
11 0.28
15 0.3
19 0.06
2 -0.57
22 0.57
23 0.54
24 0.09
25 0.44
26 -0.15
27 -0.15
28 -0.14
29 -0.15
3 -0.57
30 -0.15
31 0.08
32 0.08
33 -0.15
34 -0.15
35 -0.15
36 -0.15
37 0.28
38 0.28
4 -0.36
5 -0.36
59 0.37
6 -0.73
60 0.4
64 0.37
67 0.15
68 0.15
69 0.15
7 -0.73
70 0.15
71 0.15
72 0.15
73 0.15
74 0.15

> <PUBCHEM_EFFECTIVE_ROTOR_COUNT>
11.6

> <PUBCHEM_PHARMACOPHORE_FEATURES>
13
1 1 acceptor
1 1 donor
1 2 acceptor
1 21 hydrophobe
1 3 acceptor
1 4 acceptor
1 5 acceptor
1 6 donor
1 7 donor
6 24 26 27 29 30 31 rings
6 28 32 33 34 35 36 rings
6 8 9 10 13 15 17 rings
6 8 9 11 12 14 16 rings

> <PUBCHEM_HEAVY_ATOM_COUNT>
38

> <PUBCHEM_ATOM_DEF_STEREO_COUNT>
6

> <PUBCHEM_ATOM_UDEF_STEREO_COUNT>
1

> <PUBCHEM_BOND_DEF_STEREO_COUNT>
0

> <PUBCHEM_BOND_UDEF_STEREO_COUNT>
0

> <PUBCHEM_ISOTOPIC_ATOM_COUNT>
0

> <PUBCHEM_COMPONENT_COUNT>
1

> <PUBCHEM_CACTVS_TAUTO_COUNT>
4

> <PUBCHEM_CONFORMER_ID>
02BA9D4400000001

> <PUBCHEM_MMFF94_ENERGY>
129.5479

> <PUBCHEM_FEATURE_SELFOVERLAP>
65.988

> <PUBCHEM_SHAPE_FINGERPRINT>
10076449 9 18131914870620282010
10462674 296 17627210592794926471
10554248 39 16009037133794931306
10577160 183 14634863167377221040
10674148 151 18334298644216440417
11135926 11 16588028970016969849
11477941 20 18113894953811652037
117089 54 18118690053260331043
12082328 90 18341331098020634366
13690498 29 18341607105952499849
13811026 1 17749114413301488752
13947947 19 17530972406163051916
14040221 310 17385713695818859373
14142895 15 18409731790491319404
14150023 24 12757147987724870104
14279260 333 18186801370715583043
14444916 359 13110962024944658428
14856354 85 15410603801378038773
15274700 256 18335138739661048226
15289351 153 7925638787088320798
15301273 46 11671784866826491338
15461852 350 18410017620137217006
15538507 19 18267585895965168175
15728490 51 18411135844599943564
17686467 74 18408882949670545280
18608769 82 18411982450977907227
20105231 36 14261346956146832084
21795232 338 18202282503182267969
21867018 265 18271805756961600830
24771293 8 18114186298676047332
335507 130 18413110575978398836
395649 100 18259985989435194459
4169191 19 10737276940261585533
4330586 98 18335699507417928199
437795 160 18410280412185765922
44280117 145 18411983581007967117
4625314 4 18338232661585457388
484989 97 18187653547802441993
54039377 194 18334860554645564991
54583773 228 18261680367746264212
6004065 56 18335141999325350748
6086070 43 14201688601563209781
6201320 215 12396286046020520119
6673363 416 18342179964802570920
6691757 9 16515696532643118824
70634741 139 18411138017937758635
999808 66 18202283585287212255

> <PUBCHEM_SHAPE_MULTIPOLES>
742.71
29.93
3.26
1.64
56.43
0.62
0.12
-9.19
-2.9
-5.56
-0.55
-2.55
-0.46
-0.28

> <PUBCHEM_SHAPE_SELFOVERLAP>
1570.02

> <PUBCHEM_SHAPE_VOLUME>
412.8

> <PUBCHEM_COORDINATE_TYPE>
2
5
10

$$$$
