11867224
  -OEChem-12032416403D

 55 59  0     1  0  0  0  0  0999 V2000
   -2.9589    0.7949   -1.2035 S   0  0  0  0  0  0  0  0  0  0  0  0
    0.4060   -3.7626    0.3245 S   0  0  0  0  0  0  0  0  0  0  0  0
   -0.3822    2.3870   -1.9596 O   0  0  0  0  0  0  0  0  0  0  0  0
    3.1348   -1.6028   -1.3072 O   0  0  0  0  0  0  0  0  0  0  0  0
   -3.6453    1.3609   -2.3495 O   0  0  0  0  0  0  0  0  0  0  0  0
   -1.8499   -0.1205   -1.3946 O   0  0  0  0  0  0  0  0  0  0  0  0
    3.5316    0.1009    0.2222 N   0  0  0  0  0  0  0  0  0  0  0  0
    1.2341    2.2686   -0.2672 N   0  0  0  0  0  0  0  0  0  0  0  0
   -2.4990    2.0336   -0.1454 N   0  0  0  0  0  0  0  0  0  0  0  0
    3.7480    2.4022   -0.7252 C   0  0  1  0  0  0  0  0  0  0  0  0
    2.9420    2.1019    1.5790 C   0  0  2  0  0  0  0  0  0  0  0  0
    3.8344    2.9641    0.6886 C   0  0  0  0  0  0  0  0  0  0  0  0
    4.2273    0.9405   -0.7551 C   0  0  0  0  0  0  0  0  0  0  0  0
    2.3074    2.5467   -1.2297 C   0  0  0  0  0  0  0  0  0  0  0  0
    3.4638    0.6516    1.5840 C   0  0  0  0  0  0  0  0  0  0  0  0
    1.5020    2.1292    1.1013 C   0  0  0  0  0  0  0  0  0  0  0  0
    0.4943    1.9910    1.9824 C   0  0  0  0  0  0  0  0  0  0  0  0
   -0.0826    2.2536   -0.7737 C   0  0  0  0  0  0  0  0  0  0  0  0
    3.0686   -1.1589   -0.1580 C   0  0  0  0  0  0  0  0  0  0  0  0
   -1.1488    2.0747    0.2437 C   0  0  0  0  0  0  0  0  0  0  0  0
   -0.8747    1.9610    1.5436 C   0  0  0  0  0  0  0  0  0  0  0  0
    2.4463   -2.0048    0.9240 C   0  0  0  0  0  0  0  0  0  0  0  0
    2.0501   -3.3129    0.3179 C   0  0  0  0  0  0  0  0  0  0  0  0
    2.8581   -4.2465   -0.2703 C   0  0  0  0  0  0  0  0  0  0  0  0
   -4.1709   -0.0413   -0.2237 C   0  0  0  0  0  0  0  0  0  0  0  0
    2.1106   -5.3680   -0.7325 C   0  0  0  0  0  0  0  0  0  0  0  0
    0.7643   -5.2349   -0.4731 C   0  0  0  0  0  0  0  0  0  0  0  0
   -5.4951    0.3512   -0.3083 C   0  0  0  0  0  0  0  0  0  0  0  0
   -3.7714   -1.0720    0.6088 C   0  0  0  0  0  0  0  0  0  0  0  0
   -6.4508   -0.3080    0.4648 C   0  0  0  0  0  0  0  0  0  0  0  0
   -4.7272   -1.7311    1.3819 C   0  0  0  0  0  0  0  0  0  0  0  0
   -6.0669   -1.3491    1.3098 C   0  0  0  0  0  0  0  0  0  0  0  0
    4.4035    2.9783   -1.3900 H   0  0  0  0  0  0  0  0  0  0  0  0
    2.9998    2.4940    2.6027 H   0  0  0  0  0  0  0  0  0  0  0  0
    3.5095    4.0120    0.7091 H   0  0  0  0  0  0  0  0  0  0  0  0
    4.8706    2.9417    1.0472 H   0  0  0  0  0  0  0  0  0  0  0  0
    4.1218    0.5288   -1.7645 H   0  0  0  0  0  0  0  0  0  0  0  0
    5.2940    0.8955   -0.5026 H   0  0  0  0  0  0  0  0  0  0  0  0
    2.1515    3.5851   -1.5532 H   0  0  0  0  0  0  0  0  0  0  0  0
    2.1471    1.9270   -2.1210 H   0  0  0  0  0  0  0  0  0  0  0  0
    4.4843    0.6216    1.9860 H   0  0  0  0  0  0  0  0  0  0  0  0
    2.8490    0.0346    2.2429 H   0  0  0  0  0  0  0  0  0  0  0  0
    0.6808    1.8710    3.0444 H   0  0  0  0  0  0  0  0  0  0  0  0
   -1.6430    1.8317    2.2985 H   0  0  0  0  0  0  0  0  0  0  0  0
    1.5810   -1.4777    1.3403 H   0  0  0  0  0  0  0  0  0  0  0  0
    3.1787   -2.1794    1.7199 H   0  0  0  0  0  0  0  0  0  0  0  0
   -3.1462    2.1880    0.6407 H   0  0  0  0  0  0  0  0  0  0  0  0
    3.9321   -4.1494   -0.3666 H   0  0  0  0  0  0  0  0  0  0  0  0
    2.5388   -6.2292   -1.2285 H   0  0  0  0  0  0  0  0  0  0  0  0
   -0.0260   -5.9320   -0.7135 H   0  0  0  0  0  0  0  0  0  0  0  0
   -5.8122    1.1641   -0.9540 H   0  0  0  0  0  0  0  0  0  0  0  0
   -2.7326   -1.3782    0.6847 H   0  0  0  0  0  0  0  0  0  0  0  0
   -7.4936   -0.0095    0.4103 H   0  0  0  0  0  0  0  0  0  0  0  0
   -4.4281   -2.5405    2.0415 H   0  0  0  0  0  0  0  0  0  0  0  0
   -6.8108   -1.8617    1.9126 H   0  0  0  0  0  0  0  0  0  0  0  0
  1  5  2  0  0  0  0
  1  6  2  0  0  0  0
  1  9  1  0  0  0  0
  1 25  1  0  0  0  0
  2 23  1  0  0  0  0
  2 27  1  0  0  0  0
  3 18  2  0  0  0  0
  4 19  2  0  0  0  0
  7 13  1  0  0  0  0
  7 15  1  0  0  0  0
  7 19  1  0  0  0  0
  8 14  1  0  0  0  0
  8 16  1  0  0  0  0
  8 18  1  0  0  0  0
  9 20  1  0  0  0  0
  9 47  1  0  0  0  0
 10 12  1  0  0  0  0
 10 13  1  0  0  0  0
 10 14  1  0  0  0  0
 10 33  1  0  0  0  0
 11 12  1  0  0  0  0
 11 15  1  0  0  0  0
 11 16  1  0  0  0  0
 11 34  1  0  0  0  0
 12 35  1  0  0  0  0
 12 36  1  0  0  0  0
 13 37  1  0  0  0  0
 13 38  1  0  0  0  0
 14 39  1  0  0  0  0
 14 40  1  0  0  0  0
 15 41  1  0  0  0  0
 15 42  1  0  0  0  0
 16 17  2  0  0  0  0
 17 21  1  0  0  0  0
 17 43  1  0  0  0  0
 18 20  1  0  0  0  0
 19 22  1  0  0  0  0
 20 21  2  0  0  0  0
 21 44  1  0  0  0  0
 22 23  1  0  0  0  0
 22 45  1  0  0  0  0
 22 46  1  0  0  0  0
 23 24  2  0  0  0  0
 24 26  1  0  0  0  0
 24 48  1  0  0  0  0
 25 28  2  0  0  0  0
 25 29  1  0  0  0  0
 26 27  2  0  0  0  0
 26 49  1  0  0  0  0
 27 50  1  0  0  0  0
 28 30  1  0  0  0  0
 28 51  1  0  0  0  0
 29 31  2  0  0  0  0
 29 52  1  0  0  0  0
 30 32  2  0  0  0  0
 30 53  1  0  0  0  0
 31 32  1  0  0  0  0
 31 54  1  0  0  0  0
 32 55  1  0  0  0  0
M  END
> <PUBCHEM_COMPOUND_CID>
11867224

> <PUBCHEM_CONFORMER_RMSD>
1

> <PUBCHEM_CONFORMER_DIVERSEORDER>
1
73
45
57
8
31
62
27
72
47
13
58
5
68
40
10
19
17
21
56
48
54
24
75
64
26
44
51
39
25
52
74
3
22
38
9
14
60
77
18
55
28
67
76
61
23
70
53
4
16
59
15
50
33
66
34
63
43
6
2
69
71
7
46
65
35
37
49
12
41
32
29
30
42
20
11
36

> <PUBCHEM_MMFF94_PARTIAL_CHARGES>
41
1 1.45
11 0.14
13 0.3
14 0.3
15 0.3
16 -0.03
17 -0.15
18 0.62
19 0.57
2 -0.08
20 0.21
21 -0.15
22 0.24
23 -0.14
24 -0.15
25 -0.01
26 -0.15
27 -0.11
28 -0.15
29 -0.15
3 -0.57
30 -0.15
31 -0.15
32 -0.15
4 -0.57
43 0.15
44 0.15
47 0.42
48 0.15
49 0.15
5 -0.65
50 0.15
51 0.15
52 0.15
53 0.15
54 0.15
55 0.15
6 -0.65
7 -0.66
8 -0.47
9 -0.75

> <PUBCHEM_EFFECTIVE_ROTOR_COUNT>
7

> <PUBCHEM_PHARMACOPHORE_FEATURES>
10
1 3 acceptor
1 4 acceptor
1 5 acceptor
1 6 acceptor
1 9 donor
5 2 23 24 26 27 rings
6 25 28 29 30 31 32 rings
6 7 10 11 12 13 15 rings
6 8 10 11 12 14 16 rings
6 8 16 17 18 20 21 rings

> <PUBCHEM_HEAVY_ATOM_COUNT>
32

> <PUBCHEM_ATOM_DEF_STEREO_COUNT>
2

> <PUBCHEM_ATOM_UDEF_STEREO_COUNT>
0

> <PUBCHEM_BOND_DEF_STEREO_COUNT>
0

> <PUBCHEM_BOND_UDEF_STEREO_COUNT>
0

> <PUBCHEM_ISOTOPIC_ATOM_COUNT>
0

> <PUBCHEM_COMPONENT_COUNT>
1

> <PUBCHEM_CACTVS_TAUTO_COUNT>
1

> <PUBCHEM_CONFORMER_ID>
00B5145800000001

> <PUBCHEM_MMFF94_ENERGY>
70.3506

> <PUBCHEM_FEATURE_SELFOVERLAP>
52.333

> <PUBCHEM_SHAPE_FINGERPRINT>
10064457 181 18052533575859352368
11014199 57 17692256240167467210
11756154 67 17404311698241567527
12128747 34 18339922603032195309
12596602 18 17130994338000244265
13383661 66 18053980417319221246
13402501 40 18333735744916539507
1361 2 18338236085033354611
14028597 1 17774178867578133009
14114211 80 18124337135377005131
14659021 117 17040065443553946346
14863182 85 18338518642072499408
15419008 42 17970605451754881197
17909252 39 18337678516066741819
19319366 153 18271802475331916364
1979834 28 18408603699291033435
20764821 26 18267003132673047439
20775438 99 17613396036491752285
20775530 9 17979068289036658926
21344244 181 18270136698869423158
22223350 30 17982990518276410434
23559900 14 18190736440962594703
2818148 4 17837508357620497898
345986 75 17560519495825201145
3737641 26 18341337695211966923
4340502 62 18198339753085454768
4435113 14 18041578991773768435
44426695 316 16613697331051096963
46194498 28 17749392610754377541
463206 1 18199462336960299411
5265222 85 18119542182227109956
613672 6 17834092170529413890
6433294 58 18410572842838337299
653340 110 17116346824146321088
86090 222 18339372945142634170

> <PUBCHEM_SHAPE_MULTIPOLES>
627.82
11.02
6.4
1.7
18.29
10.97
-0.08
-0.08
1.44
-7.39
-0.82
0.35
-1.04
1.72

> <PUBCHEM_SHAPE_SELFOVERLAP>
1350.098

> <PUBCHEM_SHAPE_VOLUME>
344.7

> <PUBCHEM_COORDINATE_TYPE>
2
5
10

$$$$
