38028384
  -OEChem-12032416143D

 61 62  0     1  0  0  0  0  0999 V2000
   -1.7149    2.7307    1.3522 O   0  0  0  0  0  0  0  0  0  0  0  0
    2.0310   -2.8924   -1.3197 O   0  0  0  0  0  0  0  0  0  0  0  0
    1.6699   -4.2719    0.9638 O   0  0  0  0  0  0  0  0  0  0  0  0
    3.1561   -1.1686   -0.2331 N   0  0  0  0  0  0  0  0  0  0  0  0
   -1.7397    0.5241    2.0807 N   0  0  0  0  0  0  0  0  0  0  0  0
   -4.5531    0.5317    0.0818 N   0  0  0  0  0  0  0  0  0  0  0  0
    1.2216    0.9222   -1.1975 C   0  0  1  0  0  0  0  0  0  0  0  0
    2.7670    1.0281   -1.2189 C   0  0  1  0  0  0  0  0  0  0  0  0
    0.6041    2.2064   -0.6233 C   0  0  0  0  0  0  0  0  0  0  0  0
    1.0932    2.4988    0.8077 C   0  0  2  0  0  0  0  0  0  0  0  0
    0.6506    0.6509   -2.5928 C   0  0  0  0  0  0  0  0  0  0  0  0
    2.5971    2.3585    0.9285 C   0  0  0  0  0  0  0  0  0  0  0  0
    3.3299    1.7095    0.0063 C   0  0  0  0  0  0  0  0  0  0  0  0
    3.4139   -0.3526   -1.3779 C   0  0  0  0  0  0  0  0  0  0  0  0
    0.3754    1.6097    1.8292 C   0  0  0  0  0  0  0  0  0  0  0  0
   -0.7119   -0.0267   -2.4878 C   0  0  0  0  0  0  0  0  0  0  0  0
    0.5496    1.9488   -3.3878 C   0  0  0  0  0  0  0  0  0  0  0  0
    3.2461    3.0214    2.1115 C   0  0  0  0  0  0  0  0  0  0  0  0
   -1.1288    1.7153    1.7172 C   0  0  0  0  0  0  0  0  0  0  0  0
    2.4785   -2.3860   -0.2944 C   0  0  0  0  0  0  0  0  0  0  0  0
   -3.1724    0.3371    2.0712 C   0  0  0  0  0  0  0  0  0  0  0  0
    2.3478   -3.0378    1.0657 C   0  0  0  0  0  0  0  0  0  0  0  0
   -3.6580   -0.2180    0.7634 C   0  0  0  0  0  0  0  0  0  0  0  0
   -3.1789   -1.4423    0.3260 C   0  0  0  0  0  0  0  0  0  0  0  0
    1.5323   -4.9085    2.2308 C   0  0  0  0  0  0  0  0  0  0  0  0
   -3.6488   -1.9287   -0.8890 C   0  0  0  0  0  0  0  0  0  0  0  0
   -4.9871    0.0266   -1.0948 C   0  0  0  0  0  0  0  0  0  0  0  0
   -4.5704   -1.1863   -1.6190 C   0  0  0  0  0  0  0  0  0  0  0  0
    0.9321    0.0925   -0.5407 H   0  0  0  0  0  0  0  0  0  0  0  0
    3.0810    1.6352   -2.0773 H   0  0  0  0  0  0  0  0  0  0  0  0
   -0.4862    2.1809   -0.6845 H   0  0  0  0  0  0  0  0  0  0  0  0
    0.9174    3.0752   -1.2179 H   0  0  0  0  0  0  0  0  0  0  0  0
    0.8307    3.5452    1.0181 H   0  0  0  0  0  0  0  0  0  0  0  0
    1.3014   -0.0347   -3.1451 H   0  0  0  0  0  0  0  0  0  0  0  0
    4.4119    1.6807    0.1201 H   0  0  0  0  0  0  0  0  0  0  0  0
    4.5036   -0.2527   -1.4524 H   0  0  0  0  0  0  0  0  0  0  0  0
    3.0842   -0.8565   -2.2904 H   0  0  0  0  0  0  0  0  0  0  0  0
    0.6356    1.9103    2.8515 H   0  0  0  0  0  0  0  0  0  0  0  0
    0.6926    0.5658    1.7156 H   0  0  0  0  0  0  0  0  0  0  0  0
   -1.4497    0.5993   -1.9768 H   0  0  0  0  0  0  0  0  0  0  0  0
   -0.6348   -0.9744   -1.9444 H   0  0  0  0  0  0  0  0  0  0  0  0
   -1.1060   -0.2515   -3.4850 H   0  0  0  0  0  0  0  0  0  0  0  0
   -0.2598    2.6021   -3.0454 H   0  0  0  0  0  0  0  0  0  0  0  0
    0.3182    1.7123   -4.4338 H   0  0  0  0  0  0  0  0  0  0  0  0
    1.4876    2.5116   -3.3994 H   0  0  0  0  0  0  0  0  0  0  0  0
    2.9948    4.0867    2.1354 H   0  0  0  0  0  0  0  0  0  0  0  0
    4.3380    2.9415    2.0814 H   0  0  0  0  0  0  0  0  0  0  0  0
    2.9086    2.5622    3.0454 H   0  0  0  0  0  0  0  0  0  0  0  0
    3.5338   -0.8715    0.6623 H   0  0  0  0  0  0  0  0  0  0  0  0
   -1.1679   -0.2646    2.3684 H   0  0  0  0  0  0  0  0  0  0  0  0
   -3.6603    1.2949    2.2840 H   0  0  0  0  0  0  0  0  0  0  0  0
   -3.4245   -0.3543    2.8826 H   0  0  0  0  0  0  0  0  0  0  0  0
    3.3532   -3.1958    1.4728 H   0  0  0  0  0  0  0  0  0  0  0  0
    1.7911   -2.3580    1.7214 H   0  0  0  0  0  0  0  0  0  0  0  0
   -2.4623   -2.0176    0.9026 H   0  0  0  0  0  0  0  0  0  0  0  0
    1.0021   -5.8533    2.0846 H   0  0  0  0  0  0  0  0  0  0  0  0
    0.9495   -4.2809    2.9120 H   0  0  0  0  0  0  0  0  0  0  0  0
    2.5160   -5.1209    2.6604 H   0  0  0  0  0  0  0  0  0  0  0  0
   -3.2970   -2.8841   -1.2664 H   0  0  0  0  0  0  0  0  0  0  0  0
   -5.7043    0.6440   -1.6255 H   0  0  0  0  0  0  0  0  0  0  0  0
   -4.9497   -1.5455   -2.5688 H   0  0  0  0  0  0  0  0  0  0  0  0
  1 19  2  0  0  0  0
  2 20  2  0  0  0  0
  3 22  1  0  0  0  0
  3 25  1  0  0  0  0
  4 14  1  0  0  0  0
  4 20  1  0  0  0  0
  4 49  1  0  0  0  0
  5 19  1  0  0  0  0
  5 21  1  0  0  0  0
  5 50  1  0  0  0  0
  6 23  1  0  0  0  0
  6 27  2  0  0  0  0
  7  8  1  0  0  0  0
  7  9  1  0  0  0  0
  7 11  1  0  0  0  0
  7 29  1  0  0  0  0
  8 13  1  0  0  0  0
  8 14  1  0  0  0  0
  8 30  1  0  0  0  0
  9 10  1  0  0  0  0
  9 31  1  0  0  0  0
  9 32  1  0  0  0  0
 10 12  1  0  0  0  0
 10 15  1  0  0  0  0
 10 33  1  0  0  0  0
 11 16  1  0  0  0  0
 11 17  1  0  0  0  0
 11 34  1  0  0  0  0
 12 13  2  0  0  0  0
 12 18  1  0  0  0  0
 13 35  1  0  0  0  0
 14 36  1  0  0  0  0
 14 37  1  0  0  0  0
 15 19  1  0  0  0  0
 15 38  1  0  0  0  0
 15 39  1  0  0  0  0
 16 40  1  0  0  0  0
 16 41  1  0  0  0  0
 16 42  1  0  0  0  0
 17 43  1  0  0  0  0
 17 44  1  0  0  0  0
 17 45  1  0  0  0  0
 18 46  1  0  0  0  0
 18 47  1  0  0  0  0
 18 48  1  0  0  0  0
 20 22  1  0  0  0  0
 21 23  1  0  0  0  0
 21 51  1  0  0  0  0
 21 52  1  0  0  0  0
 22 53  1  0  0  0  0
 22 54  1  0  0  0  0
 23 24  2  0  0  0  0
 24 26  1  0  0  0  0
 24 55  1  0  0  0  0
 25 56  1  0  0  0  0
 25 57  1  0  0  0  0
 25 58  1  0  0  0  0
 26 28  2  0  0  0  0
 26 59  1  0  0  0  0
 27 28  1  0  0  0  0
 27 60  1  0  0  0  0
 28 61  1  0  0  0  0
M  END
> <PUBCHEM_COMPOUND_CID>
38028384

> <PUBCHEM_CONFORMER_RMSD>
1

> <PUBCHEM_CONFORMER_DIVERSEORDER>
1
69
88
61
31
79
47
52
72
39
74
44
23
65
54
58
30
93
95
46
92
59
89
20
84
94
75
32
14
50
80
86
36
60
26
96
24
57
45
77
73
82
53
68
42
70
37
6
11
25
56
7
21
85
34
62
28
76
66
78
9
2
3
10
83
4
64
12
27
43
49
48
51
16
87
13
41
40
33
8
81
38
71
15
90
5
55
91
19
17
35
29
22
67
63
18

> <PUBCHEM_MMFF94_PARTIAL_CHARGES>
30
1 -0.57
10 0.14
12 -0.28
13 -0.29
14 0.3
15 0.06
18 0.14
19 0.57
2 -0.57
20 0.57
21 0.44
22 0.34
23 0.17
24 -0.15
25 0.28
26 -0.15
27 0.16
28 -0.15
3 -0.56
35 0.15
4 -0.73
49 0.37
5 -0.73
50 0.37
55 0.15
59 0.15
6 -0.62
60 0.15
61 0.15
8 0.14

> <PUBCHEM_EFFECTIVE_ROTOR_COUNT>
11.8

> <PUBCHEM_PHARMACOPHORE_FEATURES>
9
1 1 acceptor
1 2 acceptor
1 3 acceptor
1 4 donor
1 5 donor
1 6 acceptor
3 11 16 17 hydrophobe
6 6 23 24 26 27 28 rings
6 7 8 9 10 12 13 rings

> <PUBCHEM_HEAVY_ATOM_COUNT>
28

> <PUBCHEM_ATOM_DEF_STEREO_COUNT>
3

> <PUBCHEM_ATOM_UDEF_STEREO_COUNT>
0

> <PUBCHEM_BOND_DEF_STEREO_COUNT>
0

> <PUBCHEM_BOND_UDEF_STEREO_COUNT>
0

> <PUBCHEM_ISOTOPIC_ATOM_COUNT>
0

> <PUBCHEM_COMPONENT_COUNT>
1

> <PUBCHEM_CACTVS_TAUTO_COUNT>
4

> <PUBCHEM_CONFORMER_ID>
0244446000000001

> <PUBCHEM_MMFF94_ENERGY>
55.2825

> <PUBCHEM_FEATURE_SELFOVERLAP>
45.679

> <PUBCHEM_SHAPE_FINGERPRINT>
10064457 181 17975410531905046518
11370993 70 18121210141550555203
11578080 2 18335978666875114188
12156800 1 16450621747832138275
12633257 1 17416708889650536585
13583140 156 18200306753585353469
14251757 17 16877954789104573927
14674994 50 16962938014121194830
19315092 285 17910352321637327679
20511986 3 17560795576487056905
20764821 26 16612233984095393675
20775530 9 17757279180248707250
25222932 49 17628632252897318191
35225 105 17188700177942689287
46194498 28 16735267991065768989
463206 1 18342187677792811747
513532 50 17605246572529301279

> <PUBCHEM_SHAPE_MULTIPOLES>
543.68
7.91
4.84
3.02
9.65
7.47
-1
0.16
-0.64
-4.96
3.27
-0.17
-1.06
-0.42

> <PUBCHEM_SHAPE_SELFOVERLAP>
1106.878

> <PUBCHEM_SHAPE_VOLUME>
313.1

> <PUBCHEM_COORDINATE_TYPE>
2
5
10

$$$$
