26742631
  -OEChem-12032416183D

 52 53  0     1  0  0  0  0  0999 V2000
   -3.3225   -1.2830    1.2720 O   0  0  0  0  0  0  0  0  0  0  0  0
    4.7582   -1.4712    0.3819 O   0  0  0  0  0  0  0  0  0  0  0  0
   -6.5126    0.0302   -0.6967 O   0  0  0  0  0  0  0  0  0  0  0  0
    2.6189   -0.5672    0.4529 N   0  0  0  0  0  0  0  0  0  0  0  0
   -2.4364    0.8567    1.1080 N   0  0  0  0  0  0  0  0  0  0  0  0
    4.5352    0.8079    0.2514 N   0  0  0  0  0  0  0  0  0  0  0  0
   -4.2730    0.4741   -1.1567 N   0  0  0  0  0  0  0  0  0  0  0  0
    0.4545    0.4179   -0.3245 C   0  0  2  0  0  0  0  0  0  0  0  0
   -0.2435   -0.9466   -0.1324 C   0  0  1  0  0  0  0  0  0  0  0  0
    0.8033   -2.0557   -0.3418 C   0  0  0  0  0  0  0  0  0  0  0  0
    1.6958    0.5740    0.5791 C   0  0  0  0  0  0  0  0  0  0  0  0
   -0.4886    1.6289   -0.2165 C   0  0  0  0  0  0  0  0  0  0  0  0
   -0.9484   -1.1109    1.2248 C   0  0  0  0  0  0  0  0  0  0  0  0
    2.0058   -1.8919    0.5802 C   0  0  0  0  0  0  0  0  0  0  0  0
   -1.2685    1.7378    1.0900 C   0  0  0  0  0  0  0  0  0  0  0  0
   -2.3488   -0.5284    1.2084 C   0  0  0  0  0  0  0  0  0  0  0  0
   -3.7399    1.4995    1.0061 C   0  0  0  0  0  0  0  0  0  0  0  0
    4.0215   -0.4795    0.3604 C   0  0  0  0  0  0  0  0  0  0  0  0
   -4.1619    1.7142   -0.4378 C   0  0  0  0  0  0  0  0  0  0  0  0
    5.9550    1.0649    0.1571 C   0  0  0  0  0  0  0  0  0  0  0  0
   -5.4448   -0.2673   -1.2261 C   0  0  0  0  0  0  0  0  0  0  0  0
    6.3563    1.0635   -1.2804 C   0  0  0  0  0  0  0  0  0  0  0  0
   -5.2920   -1.5091   -2.0628 C   0  0  0  0  0  0  0  0  0  0  0  0
    7.2766    0.2411   -1.7968 C   0  0  0  0  0  0  0  0  0  0  0  0
    0.8340    0.4293   -1.3581 H   0  0  0  0  0  0  0  0  0  0  0  0
   -0.9961   -1.0566   -0.9257 H   0  0  0  0  0  0  0  0  0  0  0  0
    1.1473   -2.0255   -1.3840 H   0  0  0  0  0  0  0  0  0  0  0  0
    0.3512   -3.0430   -0.1914 H   0  0  0  0  0  0  0  0  0  0  0  0
    2.1690    1.5254    0.3437 H   0  0  0  0  0  0  0  0  0  0  0  0
    1.4196    0.6236    1.6376 H   0  0  0  0  0  0  0  0  0  0  0  0
   -1.1834    1.6081   -1.0647 H   0  0  0  0  0  0  0  0  0  0  0  0
    0.1102    2.5408   -0.3372 H   0  0  0  0  0  0  0  0  0  0  0  0
   -0.3812   -0.6924    2.0608 H   0  0  0  0  0  0  0  0  0  0  0  0
   -1.0666   -2.1790    1.4510 H   0  0  0  0  0  0  0  0  0  0  0  0
    1.7142   -2.0132    1.6299 H   0  0  0  0  0  0  0  0  0  0  0  0
    2.7352   -2.6781    0.3603 H   0  0  0  0  0  0  0  0  0  0  0  0
   -0.6425    1.5141    1.9585 H   0  0  0  0  0  0  0  0  0  0  0  0
   -1.6071    2.7731    1.2124 H   0  0  0  0  0  0  0  0  0  0  0  0
   -4.4828    0.8687    1.5094 H   0  0  0  0  0  0  0  0  0  0  0  0
   -3.7189    2.4506    1.5495 H   0  0  0  0  0  0  0  0  0  0  0  0
   -5.1294    2.2276   -0.4639 H   0  0  0  0  0  0  0  0  0  0  0  0
   -3.4387    2.3382   -0.9718 H   0  0  0  0  0  0  0  0  0  0  0  0
    3.9383    1.6184    0.1789 H   0  0  0  0  0  0  0  0  0  0  0  0
   -3.4438    0.1303   -1.6329 H   0  0  0  0  0  0  0  0  0  0  0  0
    6.1411    2.0513    0.5935 H   0  0  0  0  0  0  0  0  0  0  0  0
    6.5053    0.3208    0.7427 H   0  0  0  0  0  0  0  0  0  0  0  0
    5.8794    1.7861   -1.9381 H   0  0  0  0  0  0  0  0  0  0  0  0
   -4.3717   -2.0368   -1.7959 H   0  0  0  0  0  0  0  0  0  0  0  0
   -6.1401   -2.1769   -1.8885 H   0  0  0  0  0  0  0  0  0  0  0  0
   -5.2604   -1.2333   -3.1202 H   0  0  0  0  0  0  0  0  0  0  0  0
    7.5309    0.2932   -2.8497 H   0  0  0  0  0  0  0  0  0  0  0  0
    7.7879   -0.4937   -1.1848 H   0  0  0  0  0  0  0  0  0  0  0  0
  1 16  2  0  0  0  0
  2 18  2  0  0  0  0
  3 21  2  0  0  0  0
  4 11  1  0  0  0  0
  4 14  1  0  0  0  0
  4 18  1  0  0  0  0
  5 15  1  0  0  0  0
  5 16  1  0  0  0  0
  5 17  1  0  0  0  0
  6 18  1  0  0  0  0
  6 20  1  0  0  0  0
  6 43  1  0  0  0  0
  7 19  1  0  0  0  0
  7 21  1  0  0  0  0
  7 44  1  0  0  0  0
  8  9  1  0  0  0  0
  8 11  1  0  0  0  0
  8 12  1  0  0  0  0
  8 25  1  0  0  0  0
  9 10  1  0  0  0  0
  9 13  1  0  0  0  0
  9 26  1  0  0  0  0
 10 14  1  0  0  0  0
 10 27  1  0  0  0  0
 10 28  1  0  0  0  0
 11 29  1  0  0  0  0
 11 30  1  0  0  0  0
 12 15  1  0  0  0  0
 12 31  1  0  0  0  0
 12 32  1  0  0  0  0
 13 16  1  0  0  0  0
 13 33  1  0  0  0  0
 13 34  1  0  0  0  0
 14 35  1  0  0  0  0
 14 36  1  0  0  0  0
 15 37  1  0  0  0  0
 15 38  1  0  0  0  0
 17 19  1  0  0  0  0
 17 39  1  0  0  0  0
 17 40  1  0  0  0  0
 19 41  1  0  0  0  0
 19 42  1  0  0  0  0
 20 22  1  0  0  0  0
 20 45  1  0  0  0  0
 20 46  1  0  0  0  0
 21 23  1  0  0  0  0
 22 24  2  0  0  0  0
 22 47  1  0  0  0  0
 23 48  1  0  0  0  0
 23 49  1  0  0  0  0
 23 50  1  0  0  0  0
 24 51  1  0  0  0  0
 24 52  1  0  0  0  0
M  END
> <PUBCHEM_COMPOUND_CID>
26742631

> <PUBCHEM_CONFORMER_RMSD>
1

> <PUBCHEM_CONFORMER_DIVERSEORDER>
1
73
21
11
82
46
108
67
57
27
104
19
81
49
75
97
100
22
77
50
78
103
6
41
36
66
99
84
4
33
31
13
60
42
101
24
72
40
87
69
52
30
58
29
43
95
89
107
32
25
88
62
85
106
34
93
26
59
86
15
83
74
79
64
48
102
10
54
37
45
105
61
91
38
76
65
56
39
23
63
70
47
7
55
12
14
90
51
92
94
28
53
17
3
68
20
44
8
18
71
96
35
98
80
9
16
5
2

> <PUBCHEM_MMFF94_PARTIAL_CHARGES>
25
1 -0.57
11 0.3
13 0.06
14 0.3
15 0.3
16 0.57
17 0.3
18 0.69
19 0.3
2 -0.57
20 0.44
21 0.57
22 -0.29
23 0.06
24 -0.3
3 -0.57
4 -0.66
43 0.37
44 0.37
47 0.15
5 -0.66
51 0.15
52 0.15
6 -0.73
7 -0.73

> <PUBCHEM_EFFECTIVE_ROTOR_COUNT>
9.6

> <PUBCHEM_PHARMACOPHORE_FEATURES>
8
1 1 acceptor
1 2 acceptor
1 24 hydrophobe
1 3 acceptor
1 6 donor
1 7 donor
6 4 8 9 10 11 14 rings
7 5 8 9 12 13 15 16 rings

> <PUBCHEM_HEAVY_ATOM_COUNT>
24

> <PUBCHEM_ATOM_DEF_STEREO_COUNT>
2

> <PUBCHEM_ATOM_UDEF_STEREO_COUNT>
0

> <PUBCHEM_BOND_DEF_STEREO_COUNT>
0

> <PUBCHEM_BOND_UDEF_STEREO_COUNT>
0

> <PUBCHEM_ISOTOPIC_ATOM_COUNT>
0

> <PUBCHEM_COMPONENT_COUNT>
1

> <PUBCHEM_CACTVS_TAUTO_COUNT>
8

> <PUBCHEM_CONFORMER_ID>
01980F6700000001

> <PUBCHEM_MMFF94_ENERGY>
41.968

> <PUBCHEM_FEATURE_SELFOVERLAP>
40.613

> <PUBCHEM_SHAPE_FINGERPRINT>
10366900 7 18342174462278740344
10591671 39 18336551606805712894
10670039 82 18340779152686613348
10906281 52 18335434421577359625
12011746 2 18411982481311788088
12166972 35 15698001860043490824
12236239 1 18271802394081069237
13583140 156 15647059252966960801
13685833 64 12679464179986708900
13782708 43 15769782351360101990
14251764 18 8214134149541764208
14251764 30 14189568650250726981
14466204 15 11746929846581463399
14528608 73 18413387631602676972
14767858 380 18411415133058615837
14787075 74 18412258406969199953
15183329 4 18059585659721437990
15527383 91 9727628432415525907
17349148 13 18335976489695005089
17980427 23 18334306352870541725
19784866 170 18186814564833250632
200 152 18201993318464772369
21150785 3 18131351934137448388
23035841 295 15913610570927095205
23402539 116 18261951843775339289
23559900 14 18261953062929269441
2838139 119 18334574625270758344
300161 21 16732703857167453608
34797466 226 16558463184388463728
5207 217 18409164432814476303
7226269 152 14056991720185636743
999808 66 13542469765311012884

> <PUBCHEM_SHAPE_MULTIPOLES>
456.38
16.08
1.97
1.53
13.19
0.19
0.44
-2.08
9.66
-0.67
-0.14
-0.77
0.24
-1.34

> <PUBCHEM_SHAPE_SELFOVERLAP>
917.106

> <PUBCHEM_SHAPE_VOLUME>
262.5

> <PUBCHEM_COORDINATE_TYPE>
2
5
10

$$$$
