75536636
  -OEChem-12032416393D

 53 55  0     1  0  0  0  0  0999 V2000
    8.6554    2.1982   -0.2354 F   0  0  0  0  0  0  0  0  0  0  0  0
    0.6428    0.1125   -1.0789 O   0  0  0  0  0  0  0  0  0  0  0  0
   -0.6721   -2.3677    1.1628 O   0  0  0  0  0  0  0  0  0  0  0  0
   -8.0697    0.9034    1.8173 O   0  0  0  0  0  0  0  0  0  0  0  0
    3.8567   -1.4540    1.6087 O   0  0  0  0  0  0  0  0  0  0  0  0
   -2.7986   -1.0057   -0.7078 N   0  0  0  0  0  0  0  0  0  0  0  0
   -6.4562    0.9317    0.1460 N   0  0  0  0  0  0  0  0  0  0  0  0
    3.2184   -1.0698   -0.5885 N   0  0  0  0  0  0  0  0  0  0  0  0
   -1.4848   -0.5646   -0.2685 C   0  0  1  0  0  0  0  0  0  0  0  0
   -3.7839    0.0610   -0.5483 C   0  0  0  0  0  0  0  0  0  0  0  0
   -0.4961   -1.6988   -0.0709 C   0  0  1  0  0  0  0  0  0  0  0  0
    0.8271   -0.9472   -0.1255 C   0  0  1  0  0  0  0  0  0  0  0  0
   -4.2537    0.1300    0.9103 C   0  0  0  0  0  0  0  0  0  0  0  0
   -4.9754   -0.1785   -1.4847 C   0  0  0  0  0  0  0  0  0  0  0  0
   -0.7673    0.2824   -1.3067 C   0  0  0  0  0  0  0  0  0  0  0  0
   -5.3546    1.1755    1.0796 C   0  0  0  0  0  0  0  0  0  0  0  0
   -6.0632    0.8733   -1.2675 C   0  0  0  0  0  0  0  0  0  0  0  0
    1.9960   -1.8195   -0.5473 C   0  0  0  0  0  0  0  0  0  0  0  0
   -7.7600    0.8147    0.6264 C   0  0  0  0  0  0  0  0  0  0  0  0
   -8.8374    0.5615   -0.3977 C   0  0  0  0  0  0  0  0  0  0  0  0
    4.0635   -0.9455    0.5101 C   0  0  0  0  0  0  0  0  0  0  0  0
    5.2782   -0.1132    0.3126 C   0  0  0  0  0  0  0  0  0  0  0  0
    5.8664    0.5310    1.4012 C   0  0  0  0  0  0  0  0  0  0  0  0
    5.8308    0.0236   -0.9607 C   0  0  0  0  0  0  0  0  0  0  0  0
    7.0069    1.3122    1.2162 C   0  0  0  0  0  0  0  0  0  0  0  0
    6.9715    0.8047   -1.1457 C   0  0  0  0  0  0  0  0  0  0  0  0
    7.5595    1.4491   -0.0573 C   0  0  0  0  0  0  0  0  0  0  0  0
   -1.5433   -0.0150    0.6792 H   0  0  0  0  0  0  0  0  0  0  0  0
   -3.3515    1.0304   -0.8296 H   0  0  0  0  0  0  0  0  0  0  0  0
   -0.5685   -2.4317   -0.8841 H   0  0  0  0  0  0  0  0  0  0  0  0
    1.0486   -0.4802    0.8432 H   0  0  0  0  0  0  0  0  0  0  0  0
   -3.0883   -1.8286   -0.1802 H   0  0  0  0  0  0  0  0  0  0  0  0
   -3.4334    0.3798    1.5911 H   0  0  0  0  0  0  0  0  0  0  0  0
   -4.6451   -0.8472    1.2243 H   0  0  0  0  0  0  0  0  0  0  0  0
   -5.4006   -1.1743   -1.3010 H   0  0  0  0  0  0  0  0  0  0  0  0
   -4.6477   -0.1552   -2.5310 H   0  0  0  0  0  0  0  0  0  0  0  0
   -0.9711   -0.0525   -2.3304 H   0  0  0  0  0  0  0  0  0  0  0  0
   -1.0176    1.3451   -1.2355 H   0  0  0  0  0  0  0  0  0  0  0  0
   -5.7122    1.1697    2.1142 H   0  0  0  0  0  0  0  0  0  0  0  0
   -4.9660    2.1798    0.8730 H   0  0  0  0  0  0  0  0  0  0  0  0
   -5.6921    1.8682   -1.5410 H   0  0  0  0  0  0  0  0  0  0  0  0
   -6.9108    0.6560   -1.9197 H   0  0  0  0  0  0  0  0  0  0  0  0
    1.8406   -2.2084   -1.5597 H   0  0  0  0  0  0  0  0  0  0  0  0
    2.1121   -2.6673    0.1364 H   0  0  0  0  0  0  0  0  0  0  0  0
   -0.6096   -1.7121    1.8779 H   0  0  0  0  0  0  0  0  0  0  0  0
    3.4133   -0.5655   -1.4467 H   0  0  0  0  0  0  0  0  0  0  0  0
   -8.6476   -0.3793   -0.9213 H   0  0  0  0  0  0  0  0  0  0  0  0
   -8.8887    1.3925   -1.1061 H   0  0  0  0  0  0  0  0  0  0  0  0
   -9.8061    0.4819    0.1053 H   0  0  0  0  0  0  0  0  0  0  0  0
    5.4484    0.4404    2.4003 H   0  0  0  0  0  0  0  0  0  0  0  0
    5.4229   -0.4854   -1.8289 H   0  0  0  0  0  0  0  0  0  0  0  0
    7.4648    1.8147    2.0631 H   0  0  0  0  0  0  0  0  0  0  0  0
    7.4065    0.9062   -2.1356 H   0  0  0  0  0  0  0  0  0  0  0  0
  1 27  1  0  0  0  0
  2 12  1  0  0  0  0
  2 15  1  0  0  0  0
  3 11  1  0  0  0  0
  3 45  1  0  0  0  0
  4 19  2  0  0  0  0
  5 21  2  0  0  0  0
  6  9  1  0  0  0  0
  6 10  1  0  0  0  0
  6 32  1  0  0  0  0
  7 16  1  0  0  0  0
  7 17  1  0  0  0  0
  7 19  1  0  0  0  0
  8 18  1  0  0  0  0
  8 21  1  0  0  0  0
  8 46  1  0  0  0  0
  9 11  1  0  0  0  0
  9 15  1  0  0  0  0
  9 28  1  0  0  0  0
 10 13  1  0  0  0  0
 10 14  1  0  0  0  0
 10 29  1  0  0  0  0
 11 12  1  0  0  0  0
 11 30  1  0  0  0  0
 12 18  1  0  0  0  0
 12 31  1  0  0  0  0
 13 16  1  0  0  0  0
 13 33  1  0  0  0  0
 13 34  1  0  0  0  0
 14 17  1  0  0  0  0
 14 35  1  0  0  0  0
 14 36  1  0  0  0  0
 15 37  1  0  0  0  0
 15 38  1  0  0  0  0
 16 39  1  0  0  0  0
 16 40  1  0  0  0  0
 17 41  1  0  0  0  0
 17 42  1  0  0  0  0
 18 43  1  0  0  0  0
 18 44  1  0  0  0  0
 19 20  1  0  0  0  0
 20 47  1  0  0  0  0
 20 48  1  0  0  0  0
 20 49  1  0  0  0  0
 21 22  1  0  0  0  0
 22 23  2  0  0  0  0
 22 24  1  0  0  0  0
 23 25  1  0  0  0  0
 23 50  1  0  0  0  0
 24 26  2  0  0  0  0
 24 51  1  0  0  0  0
 25 27  2  0  0  0  0
 25 52  1  0  0  0  0
 26 27  1  0  0  0  0
 26 53  1  0  0  0  0
M  END
> <PUBCHEM_COMPOUND_CID>
75536636

> <PUBCHEM_CONFORMER_RMSD>
1

> <PUBCHEM_CONFORMER_DIVERSEORDER>
1
27
45
14
17
26
84
4
88
59
85
74
77
62
51
39
23
76
33
55
34
67
61
44
36
80
42
25
72
43
52
41
54
81
40
31
82
68
87
19
21
7
49
9
22
15
38
56
20
53
73
10
75
79
13
24
48
89
18
63
28
70
66
57
83
60
78
86
32
12
50
35
37
2
11
46
47
16
29
71
3
64
30
6
58
5
65
69
8

> <PUBCHEM_MMFF94_PARTIAL_CHARGES>
32
1 -0.19
10 0.27
11 0.28
12 0.28
15 0.28
16 0.3
17 0.3
18 0.3
19 0.57
2 -0.56
20 0.06
21 0.54
22 0.09
23 -0.15
24 -0.15
25 -0.15
26 -0.15
27 0.19
3 -0.68
32 0.36
4 -0.57
45 0.4
46 0.37
5 -0.57
50 0.15
51 0.15
52 0.15
53 0.15
6 -0.9
7 -0.66
8 -0.73
9 0.27

> <PUBCHEM_EFFECTIVE_ROTOR_COUNT>
9.2

> <PUBCHEM_PHARMACOPHORE_FEATURES>
11
1 2 acceptor
1 3 acceptor
1 3 donor
1 4 acceptor
1 5 acceptor
1 6 cation
1 6 donor
1 8 donor
5 2 9 11 12 15 rings
6 22 23 24 25 26 27 rings
6 7 10 13 14 16 17 rings

> <PUBCHEM_HEAVY_ATOM_COUNT>
27

> <PUBCHEM_ATOM_DEF_STEREO_COUNT>
3

> <PUBCHEM_ATOM_UDEF_STEREO_COUNT>
0

> <PUBCHEM_BOND_DEF_STEREO_COUNT>
0

> <PUBCHEM_BOND_UDEF_STEREO_COUNT>
0

> <PUBCHEM_ISOTOPIC_ATOM_COUNT>
0

> <PUBCHEM_COMPONENT_COUNT>
1

> <PUBCHEM_CACTVS_TAUTO_COUNT>
2

> <PUBCHEM_CONFORMER_ID>
048098FC00000001

> <PUBCHEM_MMFF94_ENERGY>
52.4753

> <PUBCHEM_FEATURE_SELFOVERLAP>
55.822

> <PUBCHEM_SHAPE_FINGERPRINT>
10 15 17458064863096707599
10162869 55 17968093166591096791
10533779 47 17023453167883797208
106641 1 17967536787794888355
10670039 82 14620522202756212474
10906281 52 18408892845227359086
11315181 36 18272650152654870431
11408170 108 11025784371500012329
11578821 258 18342454816808115209
11638347 137 15791725283567534288
11991303 11 14045445778494957117
12539765 74 17846504694734325015
12838862 33 17095235918290180831
13540713 4 13109521728345522854
13540713 5 17098073894222826382
13668630 136 10807929371197400285
13673619 4 9223231840759841674
13685833 64 11025796496851292454
13782708 43 8790885190126646278
13862211 1 9223231853839383438
13885169 127 12324232859373073759
14251764 18 17603587443547332751
14849402 71 18411701015136586713
15183329 4 14979962467071947618
15188451 53 11097850792370115782
15461852 350 16343698855601089701
15690457 1 11818994097491613144
15706992 2 18271537458728133497
1577012 14 18131062723750661727
16994733 274 18343017753516841265
1768 124 12901536928452488480
1768 4 18408606976383014329
18603816 31 13840276935560261961
190975 80 16081091493120442475
2026 5 7997699696308959193
21095123 293 17917718959702515465
21150785 3 15985104110867461637
21344244 246 11311793756318994100
21344244 78 15213020436659081270
21424621 283 18342462495818152579
221357 26 15626224624591359362
22224240 67 18113337501279056803
23035841 295 10809349936447589877
23576562 1 15481802711331522953
24771293 8 18335417988826724764
249057 25 13046233719329677111
3004659 81 13110960938343883438
3178227 256 17385446518329197605
3633792 109 15554447423003249930
3711267 37 18201730547813206297
4073 2 18272371975459598295
4340502 62 16008744698224737674
445580 37 16128660726210300683
504579 68 14764349335896705830
5283156 175 8142086464030285485
54076057 255 17917426554044248240
5470011 282 13542459891249647688
5758199 1 18411981351909598855
59682541 35 17313107466352094329
59682541 52 14836410229371350620
9689198 14 18060704991473252187
9953998 17 17676211286585197171

> <PUBCHEM_SHAPE_MULTIPOLES>
509.95
28.35
1.72
1.45
5.46
0.25
0.16
-19.44
1.38
-1.73
0.36
0.25
-0.07
-0.94

> <PUBCHEM_SHAPE_SELFOVERLAP>
1064.29

> <PUBCHEM_SHAPE_VOLUME>
289.8

> <PUBCHEM_COORDINATE_TYPE>
2
5
10

$$$$
