45361015
  -OEChem-12032416293D

 57 60  0     1  0  0  0  0  0999 V2000
    7.8063   -0.8762    1.4569 S   0  0  0  0  0  0  0  0  0  0  0  0
   -7.9503    0.7982    0.9848 S   0  0  0  0  0  0  0  0  0  0  0  0
    2.9080   -1.5876   -1.1682 O   0  0  0  0  0  0  0  0  0  0  0  0
   -3.7998    0.2117   -2.2039 O   0  0  0  0  0  0  0  0  0  0  0  0
    0.7689    1.5066   -0.2519 N   0  0  1  0  0  0  0  0  0  0  0  0
    4.1645    0.2738    0.3316 N   0  0  1  0  0  0  0  0  0  0  0  0
    0.8912   -1.3722   -0.1088 N   0  0  0  0  0  0  0  0  0  0  0  0
   -5.1656   -0.0606   -0.3466 N   0  0  0  0  0  0  0  0  0  0  0  0
    2.0354    1.4256    0.5090 C   0  0  1  0  0  0  0  0  0  0  0  0
    2.7391    0.0422    0.6319 C   0  0  1  0  0  0  0  0  0  0  0  0
    3.1623    2.3095   -0.0572 C   0  0  0  0  0  0  0  0  0  0  0  0
    4.4177    1.6969    0.5269 C   0  0  0  0  0  0  0  0  0  0  0  0
   -0.3537    0.7227    0.3346 C   0  0  2  0  0  0  0  0  0  0  0  0
    2.2156   -1.0350   -0.3145 C   0  0  0  0  0  0  0  0  0  0  0  0
    0.0281   -0.6854    0.8316 C   0  0  0  0  0  0  0  0  0  0  0  0
    5.0636   -0.5568    1.1225 C   0  0  0  0  0  0  0  0  0  0  0  0
   -1.4926    0.5589   -0.6937 C   0  0  0  0  0  0  0  0  0  0  0  0
    0.3641    2.9092   -0.4473 C   0  0  0  0  0  0  0  0  0  0  0  0
   -2.8179    0.3217    0.0065 C   0  0  0  0  0  0  0  0  0  0  0  0
    6.4156   -0.6941    0.4744 C   0  0  0  0  0  0  0  0  0  0  0  0
   -3.9541    0.1562   -0.9868 C   0  0  0  0  0  0  0  0  0  0  0  0
    6.7269   -0.6957   -0.8675 C   0  0  0  0  0  0  0  0  0  0  0  0
    8.1256   -0.8484   -1.0920 C   0  0  0  0  0  0  0  0  0  0  0  0
    8.8299   -0.9577    0.0867 C   0  0  0  0  0  0  0  0  0  0  0  0
   -6.3989   -0.2475   -1.0734 C   0  0  0  0  0  0  0  0  0  0  0  0
   -7.5729   -0.4290   -0.1483 C   0  0  0  0  0  0  0  0  0  0  0  0
   -8.4430   -1.4938   -0.0662 C   0  0  0  0  0  0  0  0  0  0  0  0
   -9.4328   -1.2994    0.9402 C   0  0  0  0  0  0  0  0  0  0  0  0
   -9.2814   -0.0937    1.5888 C   0  0  0  0  0  0  0  0  0  0  0  0
    1.8448    1.7822    1.5333 H   0  0  0  0  0  0  0  0  0  0  0  0
    2.6284   -0.3184    1.6633 H   0  0  0  0  0  0  0  0  0  0  0  0
    3.0590    3.3592    0.2365 H   0  0  0  0  0  0  0  0  0  0  0  0
    3.1929    2.2558   -1.1537 H   0  0  0  0  0  0  0  0  0  0  0  0
    4.5080    1.9639    1.5875 H   0  0  0  0  0  0  0  0  0  0  0  0
    5.3112    2.0408   -0.0030 H   0  0  0  0  0  0  0  0  0  0  0  0
   -0.7372    1.2733    1.2053 H   0  0  0  0  0  0  0  0  0  0  0  0
    0.5316   -0.6226    1.8016 H   0  0  0  0  0  0  0  0  0  0  0  0
   -0.8408   -1.3300    0.9887 H   0  0  0  0  0  0  0  0  0  0  0  0
    4.6610   -1.5773    1.1893 H   0  0  0  0  0  0  0  0  0  0  0  0
    5.1423   -0.1905    2.1544 H   0  0  0  0  0  0  0  0  0  0  0  0
   -1.2719   -0.2662   -1.3841 H   0  0  0  0  0  0  0  0  0  0  0  0
   -1.6183    1.4319   -1.3383 H   0  0  0  0  0  0  0  0  0  0  0  0
    0.4868   -2.0996   -0.6904 H   0  0  0  0  0  0  0  0  0  0  0  0
   -0.5606    3.0305   -1.0140 H   0  0  0  0  0  0  0  0  0  0  0  0
    1.1095    3.4572   -1.0329 H   0  0  0  0  0  0  0  0  0  0  0  0
    0.2339    3.4240    0.5119 H   0  0  0  0  0  0  0  0  0  0  0  0
   -2.7945   -0.5775    0.6298 H   0  0  0  0  0  0  0  0  0  0  0  0
   -3.0601    1.1731    0.6542 H   0  0  0  0  0  0  0  0  0  0  0  0
    5.9954   -0.5974   -1.6596 H   0  0  0  0  0  0  0  0  0  0  0  0
    8.5913   -0.8777   -2.0684 H   0  0  0  0  0  0  0  0  0  0  0  0
    9.8967   -1.0819    0.2087 H   0  0  0  0  0  0  0  0  0  0  0  0
   -5.1873   -0.0937    0.6691 H   0  0  0  0  0  0  0  0  0  0  0  0
   -6.5537    0.6207   -1.7247 H   0  0  0  0  0  0  0  0  0  0  0  0
   -6.2772   -1.1244   -1.7196 H   0  0  0  0  0  0  0  0  0  0  0  0
   -8.3766   -2.3722   -0.6955 H   0  0  0  0  0  0  0  0  0  0  0  0
  -10.2159   -2.0080    1.1764 H   0  0  0  0  0  0  0  0  0  0  0  0
   -9.8887    0.3061    2.3886 H   0  0  0  0  0  0  0  0  0  0  0  0
  1 20  1  0  0  0  0
  1 24  1  0  0  0  0
  2 26  1  0  0  0  0
  2 29  1  0  0  0  0
  3 14  2  0  0  0  0
  4 21  2  0  0  0  0
  5  9  1  0  0  0  0
  5 13  1  0  0  0  0
  5 18  1  0  0  0  0
  6 10  1  0  0  0  0
  6 12  1  0  0  0  0
  6 16  1  0  0  0  0
  7 14  1  0  0  0  0
  7 15  1  0  0  0  0
  7 43  1  0  0  0  0
  8 21  1  0  0  0  0
  8 25  1  0  0  0  0
  8 52  1  0  0  0  0
  9 10  1  0  0  0  0
  9 11  1  0  0  0  0
  9 30  1  0  0  0  0
 10 14  1  0  0  0  0
 10 31  1  0  0  0  0
 11 12  1  0  0  0  0
 11 32  1  0  0  0  0
 11 33  1  0  0  0  0
 12 34  1  0  0  0  0
 12 35  1  0  0  0  0
 13 15  1  0  0  0  0
 13 17  1  0  0  0  0
 13 36  1  0  0  0  0
 15 37  1  0  0  0  0
 15 38  1  0  0  0  0
 16 20  1  0  0  0  0
 16 39  1  0  0  0  0
 16 40  1  0  0  0  0
 17 19  1  0  0  0  0
 17 41  1  0  0  0  0
 17 42  1  0  0  0  0
 18 44  1  0  0  0  0
 18 45  1  0  0  0  0
 18 46  1  0  0  0  0
 19 21  1  0  0  0  0
 19 47  1  0  0  0  0
 19 48  1  0  0  0  0
 20 22  2  0  0  0  0
 22 23  1  0  0  0  0
 22 49  1  0  0  0  0
 23 24  2  0  0  0  0
 23 50  1  0  0  0  0
 24 51  1  0  0  0  0
 25 26  1  0  0  0  0
 25 53  1  0  0  0  0
 25 54  1  0  0  0  0
 26 27  2  0  0  0  0
 27 28  1  0  0  0  0
 27 55  1  0  0  0  0
 28 29  2  0  0  0  0
 28 56  1  0  0  0  0
 29 57  1  0  0  0  0
M  END
> <PUBCHEM_COMPOUND_CID>
45361015

> <PUBCHEM_CONFORMER_RMSD>
1.4

> <PUBCHEM_CONFORMER_DIVERSEORDER>
2
33
1
30
71
16
73
48
10
42
41
65
60
64
46
28
57
35
89
32
37
9
76
63
13
85
83
8
92
26
80
93
21
94
47
5
62
29
50
90
49
36
55
77
81
15
12
17
69
86
7
61
3
66
22
88
74
20
84
38
19
70
58
67
75
34
45
51
25
52
82
54
78
72
23
40
68
31
87
11
43
79
4
59
44
91
39
6
18
14
53
56
24
27

> <PUBCHEM_MMFF94_PARTIAL_CHARGES>
35
1 -0.08
10 0.33
12 0.27
13 0.27
14 0.57
15 0.3
16 0.45
18 0.27
19 0.06
2 -0.08
20 -0.14
21 0.57
22 -0.15
23 -0.15
24 -0.11
25 0.48
26 -0.14
27 -0.15
28 -0.15
29 -0.11
3 -0.57
4 -0.57
43 0.37
49 0.15
5 -0.81
50 0.15
51 0.15
52 0.37
55 0.15
56 0.15
57 0.15
6 -0.81
7 -0.73
8 -0.73
9 0.27

> <PUBCHEM_EFFECTIVE_ROTOR_COUNT>
9.4

> <PUBCHEM_PHARMACOPHORE_FEATURES>
10
1 3 acceptor
1 4 acceptor
1 5 cation
1 6 cation
1 7 donor
1 8 donor
5 1 20 22 23 24 rings
5 2 26 27 28 29 rings
5 6 9 10 11 12 rings
7 5 7 9 10 13 14 15 rings

> <PUBCHEM_HEAVY_ATOM_COUNT>
29

> <PUBCHEM_ATOM_DEF_STEREO_COUNT>
3

> <PUBCHEM_ATOM_UDEF_STEREO_COUNT>
0

> <PUBCHEM_BOND_DEF_STEREO_COUNT>
0

> <PUBCHEM_BOND_UDEF_STEREO_COUNT>
0

> <PUBCHEM_ISOTOPIC_ATOM_COUNT>
0

> <PUBCHEM_COMPONENT_COUNT>
1

> <PUBCHEM_CACTVS_TAUTO_COUNT>
6

> <PUBCHEM_CONFORMER_ID>
02B4277700000002

> <PUBCHEM_MMFF94_ENERGY>
59.1439

> <PUBCHEM_FEATURE_SELFOVERLAP>
50.783

> <PUBCHEM_SHAPE_FINGERPRINT>
10076449 9 17749109989411294741
10299344 5 18343582962897086799
10533779 47 16702314433280299343
11135926 11 17989197132455241991
11315181 36 12540693714050013493
12089408 11 16343697755203127621
13553643 46 14405185062792079203
13673619 4 17967247607621046941
14251764 46 18131633383207302458
14344974 52 15936699246238450142
14444916 359 18335139791543816587
15142383 8 13110962033111955978
15419008 145 17917999348237155705
15461852 350 15502373422687939095
15840311 113 14490200418954639918
16728433 110 17968095356191162620
1754911 235 12757147978918240971
1818759 1 18411421704327098690
19315958 150 15554452889868773278
20105231 36 18410012126210167023
20771845 171 18187375290627499142
21049683 271 17748826314947488780
21150785 3 15140961751039621314
21267235 1 18410291406379071781
21403212 168 9511458914360660748
21781051 124 17967536795778415090
21792961 116 17458345208602534320
246663 6 18187365428537730131
249057 3 18411696612362221431
3178227 256 18412543215062214466
335352 9 18409167727608377894
4093350 32 16702307823647410359
5283156 175 16630811001987707370
54039377 194 18334013887146081053
636775 8 15140969474588176041
67123 10 15502376724948226827
9995097 26 16298390167247453657

> <PUBCHEM_SHAPE_MULTIPOLES>
572.84
31.9
1.86
1.32
37.77
1.19
0.11
-15.5
-6.82
-1.1
0.05
0.6
-0.17
0.32

> <PUBCHEM_SHAPE_SELFOVERLAP>
1179.282

> <PUBCHEM_SHAPE_VOLUME>
329.8

> <PUBCHEM_COORDINATE_TYPE>
2
5
10

$$$$
