7143032
  -OEChem-12032416223D

 68 72  0     1  0  0  0  0  0999 V2000
   -0.8274   -3.2554   -1.0775 O   0  0  0  0  0  0  0  0  0  0  0  0
   -4.2765    0.2401   -2.6982 O   0  0  0  0  0  0  0  0  0  0  0  0
    1.9480    0.1402    0.9417 O   0  0  0  0  0  0  0  0  0  0  0  0
   -1.6047    5.1165    0.1727 O   0  0  0  0  0  0  0  0  0  0  0  0
    6.0274    2.5034    0.9361 O   0  0  0  0  0  0  0  0  0  0  0  0
    8.0854   -1.2537   -1.1688 O   0  0  0  0  0  0  0  0  0  0  0  0
   -4.8443   -0.3526   -0.5071 N   0  0  0  0  0  0  0  0  0  0  0  0
   -2.4963   -2.3361    0.2750 N   0  0  0  0  0  0  0  0  0  0  0  0
    1.1851   -1.9377    0.2507 N   0  0  0  0  0  0  0  0  0  0  0  0
    3.3942   -1.4055   -0.0721 N   0  0  0  0  0  0  0  0  0  0  0  0
   -4.9885   -2.8021   -0.0916 C   0  0  1  0  0  0  0  0  0  0  0  0
   -4.2776   -1.2941    1.7199 C   0  0  2  0  0  0  0  0  0  0  0  0
   -5.1134   -2.5335    1.4042 C   0  0  0  0  0  0  0  0  0  0  0  0
   -5.5055   -1.5971   -0.8985 C   0  0  0  0  0  0  0  0  0  0  0  0
   -3.5248   -3.1278   -0.4146 C   0  0  0  0  0  0  0  0  0  0  0  0
   -4.8320   -0.0847    0.9402 C   0  0  0  0  0  0  0  0  0  0  0  0
   -2.8208   -1.5116    1.3573 C   0  0  0  0  0  0  0  0  0  0  0  0
   -1.8510   -0.8875    2.0469 C   0  0  0  0  0  0  0  0  0  0  0  0
   -1.1636   -2.5278   -0.1422 C   0  0  0  0  0  0  0  0  0  0  0  0
   -4.2694    0.4587   -1.4881 C   0  0  0  0  0  0  0  0  0  0  0  0
   -0.1153   -1.7930    0.6347 C   0  0  0  0  0  0  0  0  0  0  0  0
   -0.4720   -1.0322    1.6749 C   0  0  0  0  0  0  0  0  0  0  0  0
   -3.5741    1.6747   -1.0535 C   0  0  0  0  0  0  0  0  0  0  0  0
   -4.2746    2.8753   -0.9376 C   0  0  0  0  0  0  0  0  0  0  0  0
   -2.2118    1.6305   -0.7567 C   0  0  0  0  0  0  0  0  0  0  0  0
    2.1667   -0.9530    0.4241 C   0  0  0  0  0  0  0  0  0  0  0  0
   -3.6130    4.0317   -0.5248 C   0  0  0  0  0  0  0  0  0  0  0  0
   -1.5501    2.7870   -0.3440 C   0  0  0  0  0  0  0  0  0  0  0  0
   -2.2507    3.9875   -0.2280 C   0  0  0  0  0  0  0  0  0  0  0  0
    4.6309   -0.7194   -0.0885 C   0  0  0  0  0  0  0  0  0  0  0  0
    5.7616   -1.3320   -0.6284 C   0  0  0  0  0  0  0  0  0  0  0  0
    4.7201    0.5698    0.4367 C   0  0  0  0  0  0  0  0  0  0  0  0
   -0.2115    5.0009    0.4578 C   0  0  0  0  0  0  0  0  0  0  0  0
    5.9398    1.2462    0.4221 C   0  0  0  0  0  0  0  0  0  0  0  0
    6.9815   -0.6557   -0.6432 C   0  0  0  0  0  0  0  0  0  0  0  0
    7.0706    0.6334   -0.1179 C   0  0  0  0  0  0  0  0  0  0  0  0
    4.8332    3.0696    1.4738 C   0  0  0  0  0  0  0  0  0  0  0  0
    7.9244   -2.5731   -1.6874 C   0  0  0  0  0  0  0  0  0  0  0  0
   -5.6026   -3.6698   -0.3620 H   0  0  0  0  0  0  0  0  0  0  0  0
   -4.3664   -1.0851    2.7939 H   0  0  0  0  0  0  0  0  0  0  0  0
   -6.1628   -2.3681    1.6771 H   0  0  0  0  0  0  0  0  0  0  0  0
   -4.7630   -3.3974    1.9828 H   0  0  0  0  0  0  0  0  0  0  0  0
   -6.5778   -1.4579   -0.7148 H   0  0  0  0  0  0  0  0  0  0  0  0
   -5.3840   -1.7800   -1.9715 H   0  0  0  0  0  0  0  0  0  0  0  0
   -3.3472   -3.0665   -1.4958 H   0  0  0  0  0  0  0  0  0  0  0  0
   -3.3283   -4.1722   -0.1357 H   0  0  0  0  0  0  0  0  0  0  0  0
   -4.2635    0.8164    1.1822 H   0  0  0  0  0  0  0  0  0  0  0  0
   -5.8711    0.1076    1.2349 H   0  0  0  0  0  0  0  0  0  0  0  0
   -2.0789   -0.2348    2.8832 H   0  0  0  0  0  0  0  0  0  0  0  0
    0.2301   -0.5175    2.3195 H   0  0  0  0  0  0  0  0  0  0  0  0
    1.3908   -2.6867   -0.4049 H   0  0  0  0  0  0  0  0  0  0  0  0
   -5.3363    2.9205   -1.1660 H   0  0  0  0  0  0  0  0  0  0  0  0
   -1.6553    0.7028   -0.8545 H   0  0  0  0  0  0  0  0  0  0  0  0
   -4.1639    4.9641   -0.4365 H   0  0  0  0  0  0  0  0  0  0  0  0
   -0.4916    2.6816   -0.1314 H   0  0  0  0  0  0  0  0  0  0  0  0
    3.4071   -2.3420   -0.4682 H   0  0  0  0  0  0  0  0  0  0  0  0
    5.6363   -2.3353   -1.0230 H   0  0  0  0  0  0  0  0  0  0  0  0
    3.8530    1.0475    0.8542 H   0  0  0  0  0  0  0  0  0  0  0  0
   -0.0277    4.3246    1.2996 H   0  0  0  0  0  0  0  0  0  0  0  0
    0.3596    4.7187   -0.4332 H   0  0  0  0  0  0  0  0  0  0  0  0
    0.1398    5.9924    0.7619 H   0  0  0  0  0  0  0  0  0  0  0  0
    8.0214    1.1603   -0.1288 H   0  0  0  0  0  0  0  0  0  0  0  0
    5.0884    4.0707    1.8372 H   0  0  0  0  0  0  0  0  0  0  0  0
    4.4703    2.5033    2.3384 H   0  0  0  0  0  0  0  0  0  0  0  0
    4.0647    3.2000    0.7040 H   0  0  0  0  0  0  0  0  0  0  0  0
    8.9014   -2.8934   -2.0639 H   0  0  0  0  0  0  0  0  0  0  0  0
    7.2338   -2.5902   -2.5374 H   0  0  0  0  0  0  0  0  0  0  0  0
    7.6367   -3.2817   -0.9033 H   0  0  0  0  0  0  0  0  0  0  0  0
  1 19  2  0  0  0  0
  2 20  2  0  0  0  0
  3 26  2  0  0  0  0
  4 29  1  0  0  0  0
  4 33  1  0  0  0  0
  5 34  1  0  0  0  0
  5 37  1  0  0  0  0
  6 35  1  0  0  0  0
  6 38  1  0  0  0  0
  7 14  1  0  0  0  0
  7 16  1  0  0  0  0
  7 20  1  0  0  0  0
  8 15  1  0  0  0  0
  8 17  1  0  0  0  0
  8 19  1  0  0  0  0
  9 21  1  0  0  0  0
  9 26  1  0  0  0  0
  9 51  1  0  0  0  0
 10 26  1  0  0  0  0
 10 30  1  0  0  0  0
 10 56  1  0  0  0  0
 11 13  1  0  0  0  0
 11 14  1  0  0  0  0
 11 15  1  0  0  0  0
 11 39  1  0  0  0  0
 12 13  1  0  0  0  0
 12 16  1  0  0  0  0
 12 17  1  0  0  0  0
 12 40  1  0  0  0  0
 13 41  1  0  0  0  0
 13 42  1  0  0  0  0
 14 43  1  0  0  0  0
 14 44  1  0  0  0  0
 15 45  1  0  0  0  0
 15 46  1  0  0  0  0
 16 47  1  0  0  0  0
 16 48  1  0  0  0  0
 17 18  2  0  0  0  0
 18 22  1  0  0  0  0
 18 49  1  0  0  0  0
 19 21  1  0  0  0  0
 20 23  1  0  0  0  0
 21 22  2  0  0  0  0
 22 50  1  0  0  0  0
 23 24  2  0  0  0  0
 23 25  1  0  0  0  0
 24 27  1  0  0  0  0
 24 52  1  0  0  0  0
 25 28  2  0  0  0  0
 25 53  1  0  0  0  0
 27 29  2  0  0  0  0
 27 54  1  0  0  0  0
 28 29  1  0  0  0  0
 28 55  1  0  0  0  0
 30 31  2  0  0  0  0
 30 32  1  0  0  0  0
 31 35  1  0  0  0  0
 31 57  1  0  0  0  0
 32 34  2  0  0  0  0
 32 58  1  0  0  0  0
 33 59  1  0  0  0  0
 33 60  1  0  0  0  0
 33 61  1  0  0  0  0
 34 36  1  0  0  0  0
 35 36  2  0  0  0  0
 36 62  1  0  0  0  0
 37 63  1  0  0  0  0
 37 64  1  0  0  0  0
 37 65  1  0  0  0  0
 38 66  1  0  0  0  0
 38 67  1  0  0  0  0
 38 68  1  0  0  0  0
M  END
> <PUBCHEM_COMPOUND_CID>
7143032

> <PUBCHEM_CONFORMER_RMSD>
1

> <PUBCHEM_CONFORMER_DIVERSEORDER>
1
46
48
22
27
14
40
38
29
57
11
13
49
2
25
30
37
50
33
45
53
36
41
42
9
52
20
51
18
31
54
43
6
23
39
35
16
26
5
47
34
58
44
4
21
10
32
12
55
24
3
28
15
17
56
7
19
8

> <PUBCHEM_MMFF94_PARTIAL_CHARGES>
47
1 -0.57
10 -0.55
12 0.14
14 0.3
15 0.3
16 0.3
17 -0.03
18 -0.15
19 0.62
2 -0.57
20 0.54
21 0.12
22 -0.15
23 0.09
24 -0.15
25 -0.15
26 0.69
27 -0.15
28 -0.15
29 0.08
3 -0.57
30 0.12
31 -0.15
32 -0.15
33 0.28
34 0.08
35 0.08
36 -0.15
37 0.28
38 0.28
4 -0.36
49 0.15
5 -0.36
50 0.15
51 0.37
52 0.15
53 0.15
54 0.15
55 0.15
56 0.37
57 0.15
58 0.15
6 -0.36
62 0.15
7 -0.66
8 -0.47
9 -0.54

> <PUBCHEM_EFFECTIVE_ROTOR_COUNT>
10

> <PUBCHEM_PHARMACOPHORE_FEATURES>
13
1 1 acceptor
1 10 donor
1 2 acceptor
1 3 acceptor
1 4 acceptor
1 5 acceptor
1 6 acceptor
1 9 donor
6 23 24 25 27 28 29 rings
6 30 31 32 34 35 36 rings
6 7 11 12 13 14 16 rings
6 8 11 12 13 15 17 rings
6 8 17 18 19 21 22 rings

> <PUBCHEM_HEAVY_ATOM_COUNT>
38

> <PUBCHEM_ATOM_DEF_STEREO_COUNT>
2

> <PUBCHEM_ATOM_UDEF_STEREO_COUNT>
0

> <PUBCHEM_BOND_DEF_STEREO_COUNT>
0

> <PUBCHEM_BOND_UDEF_STEREO_COUNT>
0

> <PUBCHEM_ISOTOPIC_ATOM_COUNT>
0

> <PUBCHEM_COMPONENT_COUNT>
1

> <PUBCHEM_CACTVS_TAUTO_COUNT>
3

> <PUBCHEM_CONFORMER_ID>
006CFE7800000001

> <PUBCHEM_MMFF94_ENERGY>
143.2074

> <PUBCHEM_FEATURE_SELFOVERLAP>
67.609

> <PUBCHEM_SHAPE_FINGERPRINT>
100830 39 18337112272558933470
10454371 7 18334019359018818900
10816530 145 18337686303502008411
10864689 126 18338228246169497564
11524674 6 9799699181901072643
117089 54 18339644546047735420
12788726 201 18187639211027924619
13761468 95 18058174929671867331
13782708 43 18342741810806361626
15183329 4 18413670210513252418
15276724 80 18412544310062564598
15876981 60 18114186384438197863
15968369 153 18269267023468550108
16067689 391 17702100262586514564
19958102 18 18272936037767104222
21033648 144 18129099095094748954
21344244 246 17617929680001342175
21859007 373 18342444921386931970
22956985 138 16669677892491459371
23516275 100 18048023353657370156
2747138 104 18041572454079189083
354706 132 18116439137803298652
373842 8 18262235650735253804
4173938 306 17631153227318453338
484985 159 15697988653114066247
57527585 21 18051948370118529461
5776283 40 17547870555029873231
6086070 43 18338234861415490298
9980921 221 18264227837450942612

> <PUBCHEM_SHAPE_MULTIPOLES>
726.88
18.94
5.78
1.62
41.87
7.76
-0.05
-6.16
-5.18
-4.96
-0.09
-0.94
-0.37
3.98

> <PUBCHEM_SHAPE_SELFOVERLAP>
1584.263

> <PUBCHEM_SHAPE_VOLUME>
389.1

> <PUBCHEM_COORDINATE_TYPE>
2
5
10

$$$$
