25390377
  -OEChem-12032416173D

 65 67  0     1  0  0  0  0  0999 V2000
   -3.2241   -1.1526   -1.0546 O   0  0  0  0  0  0  0  0  0  0  0  0
   -5.4405   -2.2306    0.7286 O   0  0  0  0  0  0  0  0  0  0  0  0
   -5.5078    0.4815    1.1847 O   0  0  0  0  0  0  0  0  0  0  0  0
   -1.1207   -2.6366   -1.5542 O   0  0  0  0  0  0  0  0  0  0  0  0
   -2.4972    3.8338   -0.8121 O   0  0  0  0  0  0  0  0  0  0  0  0
    0.6143   -2.2701   -0.0558 N   0  0  0  0  0  0  0  0  0  0  0  0
   -2.3016    1.5248   -0.7358 N   0  0  0  0  0  0  0  0  0  0  0  0
    3.1505   -1.0530    0.1661 N   0  0  0  0  0  0  0  0  0  0  0  0
    4.4272    0.8586    0.7327 N   0  0  0  0  0  0  0  0  0  0  0  0
   -3.1487   -2.0524    0.0748 C   0  0  2  0  0  0  0  0  0  0  0  0
   -4.2112   -1.5886    1.0652 C   0  0  1  0  0  0  0  0  0  0  0  0
   -4.2939   -0.1058    0.7674 C   0  0  1  0  0  0  0  0  0  0  0  0
   -4.1427   -0.0899   -0.7445 C   0  0  1  0  0  0  0  0  0  0  0  0
   -1.7358   -1.9767    0.6373 C   0  0  0  0  0  0  0  0  0  0  0  0
   -3.6045    1.2241   -1.2819 C   0  0  0  0  0  0  0  0  0  0  0  0
   -0.7268   -2.3259   -0.4272 C   0  0  0  0  0  0  0  0  0  0  0  0
    1.1210   -1.9067    1.2688 C   0  0  0  0  0  0  0  0  0  0  0  0
    1.6599   -2.6153   -1.0157 C   0  0  0  0  0  0  0  0  0  0  0  0
    2.1185   -0.7528    1.1680 C   0  0  0  0  0  0  0  0  0  0  0  0
    2.6622   -1.4721   -1.1575 C   0  0  0  0  0  0  0  0  0  0  0  0
   -0.4322    2.8722    0.0313 C   0  0  0  0  0  0  0  0  0  0  0  0
   -1.8511    2.8230   -0.5442 C   0  0  0  0  0  0  0  0  0  0  0  0
    4.3836   -0.3934    0.2247 C   0  0  0  0  0  0  0  0  0  0  0  0
    0.5966    2.2086   -0.9008 C   0  0  0  0  0  0  0  0  0  0  0  0
   -0.4110    2.2568    1.4455 C   0  0  0  0  0  0  0  0  0  0  0  0
    5.4916   -1.0775   -0.2488 C   0  0  0  0  0  0  0  0  0  0  0  0
    0.6251    2.8481   -2.2841 C   0  0  0  0  0  0  0  0  0  0  0  0
   -1.3754    2.8994    2.4347 C   0  0  0  0  0  0  0  0  0  0  0  0
    6.7238   -0.4353   -0.1974 C   0  0  0  0  0  0  0  0  0  0  0  0
    5.6420    1.4510    0.7664 C   0  0  0  0  0  0  0  0  0  0  0  0
    6.8089    0.8532    0.3185 C   0  0  0  0  0  0  0  0  0  0  0  0
   -3.3573   -3.0621   -0.2986 H   0  0  0  0  0  0  0  0  0  0  0  0
   -3.9909   -1.8114    2.1131 H   0  0  0  0  0  0  0  0  0  0  0  0
   -3.4686    0.4129    1.2671 H   0  0  0  0  0  0  0  0  0  0  0  0
   -5.0967   -0.3104   -1.2393 H   0  0  0  0  0  0  0  0  0  0  0  0
   -1.6339   -2.6739    1.4757 H   0  0  0  0  0  0  0  0  0  0  0  0
   -1.5217   -0.9616    0.9836 H   0  0  0  0  0  0  0  0  0  0  0  0
   -4.2954    2.0470   -1.0711 H   0  0  0  0  0  0  0  0  0  0  0  0
   -3.4692    1.1589   -2.3671 H   0  0  0  0  0  0  0  0  0  0  0  0
    1.6148   -2.7979    1.6755 H   0  0  0  0  0  0  0  0  0  0  0  0
    0.3219   -1.6377    1.9615 H   0  0  0  0  0  0  0  0  0  0  0  0
    1.2312   -2.8578   -1.9931 H   0  0  0  0  0  0  0  0  0  0  0  0
    2.1591   -3.5171   -0.6410 H   0  0  0  0  0  0  0  0  0  0  0  0
   -5.3289   -3.1810    0.9023 H   0  0  0  0  0  0  0  0  0  0  0  0
   -5.5938    0.3254    2.1406 H   0  0  0  0  0  0  0  0  0  0  0  0
    1.6019    0.1691    0.8887 H   0  0  0  0  0  0  0  0  0  0  0  0
    2.5716   -0.5982    2.1547 H   0  0  0  0  0  0  0  0  0  0  0  0
    3.4719   -1.8062   -1.8154 H   0  0  0  0  0  0  0  0  0  0  0  0
    2.1833   -0.6135   -1.6449 H   0  0  0  0  0  0  0  0  0  0  0  0
   -1.6713    0.7467   -0.5737 H   0  0  0  0  0  0  0  0  0  0  0  0
   -0.1709    3.9353    0.1244 H   0  0  0  0  0  0  0  0  0  0  0  0
    0.3980    1.1372   -1.0114 H   0  0  0  0  0  0  0  0  0  0  0  0
    1.5948    2.3007   -0.4556 H   0  0  0  0  0  0  0  0  0  0  0  0
    0.6042    2.3516    1.8510 H   0  0  0  0  0  0  0  0  0  0  0  0
   -0.6246    1.1835    1.4016 H   0  0  0  0  0  0  0  0  0  0  0  0
    5.4315   -2.0899   -0.6346 H   0  0  0  0  0  0  0  0  0  0  0  0
    1.4217    2.3996   -2.8864 H   0  0  0  0  0  0  0  0  0  0  0  0
   -0.3184    2.6982   -2.8176 H   0  0  0  0  0  0  0  0  0  0  0  0
    0.8180    3.9235   -2.2156 H   0  0  0  0  0  0  0  0  0  0  0  0
   -1.2421    2.4602    3.4285 H   0  0  0  0  0  0  0  0  0  0  0  0
   -2.4174    2.7446    2.1396 H   0  0  0  0  0  0  0  0  0  0  0  0
   -1.1941    3.9760    2.5122 H   0  0  0  0  0  0  0  0  0  0  0  0
    7.6168   -0.9393   -0.5545 H   0  0  0  0  0  0  0  0  0  0  0  0
    5.6545    2.4549    1.1778 H   0  0  0  0  0  0  0  0  0  0  0  0
    7.7589    1.3727    0.3693 H   0  0  0  0  0  0  0  0  0  0  0  0
  1 10  1  0  0  0  0
  1 13  1  0  0  0  0
  2 11  1  0  0  0  0
  2 44  1  0  0  0  0
  3 12  1  0  0  0  0
  3 45  1  0  0  0  0
  4 16  2  0  0  0  0
  5 22  2  0  0  0  0
  6 16  1  0  0  0  0
  6 17  1  0  0  0  0
  6 18  1  0  0  0  0
  7 15  1  0  0  0  0
  7 22  1  0  0  0  0
  7 50  1  0  0  0  0
  8 19  1  0  0  0  0
  8 20  1  0  0  0  0
  8 23  1  0  0  0  0
  9 23  1  0  0  0  0
  9 30  2  0  0  0  0
 10 11  1  0  0  0  0
 10 14  1  0  0  0  0
 10 32  1  0  0  0  0
 11 12  1  0  0  0  0
 11 33  1  0  0  0  0
 12 13  1  0  0  0  0
 12 34  1  0  0  0  0
 13 15  1  0  0  0  0
 13 35  1  0  0  0  0
 14 16  1  0  0  0  0
 14 36  1  0  0  0  0
 14 37  1  0  0  0  0
 15 38  1  0  0  0  0
 15 39  1  0  0  0  0
 17 19  1  0  0  0  0
 17 40  1  0  0  0  0
 17 41  1  0  0  0  0
 18 20  1  0  0  0  0
 18 42  1  0  0  0  0
 18 43  1  0  0  0  0
 19 46  1  0  0  0  0
 19 47  1  0  0  0  0
 20 48  1  0  0  0  0
 20 49  1  0  0  0  0
 21 22  1  0  0  0  0
 21 24  1  0  0  0  0
 21 25  1  0  0  0  0
 21 51  1  0  0  0  0
 23 26  2  0  0  0  0
 24 27  1  0  0  0  0
 24 52  1  0  0  0  0
 24 53  1  0  0  0  0
 25 28  1  0  0  0  0
 25 54  1  0  0  0  0
 25 55  1  0  0  0  0
 26 29  1  0  0  0  0
 26 56  1  0  0  0  0
 27 57  1  0  0  0  0
 27 58  1  0  0  0  0
 27 59  1  0  0  0  0
 28 60  1  0  0  0  0
 28 61  1  0  0  0  0
 28 62  1  0  0  0  0
 29 31  2  0  0  0  0
 29 63  1  0  0  0  0
 30 31  1  0  0  0  0
 30 64  1  0  0  0  0
 31 65  1  0  0  0  0
M  END
> <PUBCHEM_COMPOUND_CID>
25390377

> <PUBCHEM_CONFORMER_RMSD>
1.4

> <PUBCHEM_CONFORMER_DIVERSEORDER>
7
26
49
63
132
58
27
94
10
75
116
64
119
38
77
80
86
53
129
4
23
60
112
79
36
69
102
70
103
109
105
117
123
57
118
101
78
6
124
25
30
71
98
115
65
37
11
46
91
5
125
29
54
113
83
110
3
52
41
108
59
51
47
96
95
87
61
97
28
99
111
35
18
39
24
48
89
43
74
8
84
106
76
126
15
55
114
50
73
82
100
9
127
92
93
32
90
107
130
62
31
81
1
21
56
120
68
128
13
133
17
85
14
88
42
20
2
122
67
72
12
104
34
121
22
131
45
134
66
33
19
40
44
16

> <PUBCHEM_MMFF94_PARTIAL_CHARGES>
34
1 -0.56
10 0.28
11 0.28
12 0.28
13 0.28
14 0.06
15 0.3
16 0.57
17 0.3
18 0.3
19 0.37
2 -0.68
20 0.37
21 0.06
22 0.57
23 0.41
26 -0.15
29 -0.15
3 -0.68
30 0.16
31 -0.15
4 -0.57
44 0.4
45 0.4
5 -0.57
50 0.37
56 0.15
6 -0.66
63 0.15
64 0.15
65 0.15
7 -0.73
8 -0.84
9 -0.62

> <PUBCHEM_EFFECTIVE_ROTOR_COUNT>
12.2

> <PUBCHEM_PHARMACOPHORE_FEATURES>
15
1 1 acceptor
1 2 acceptor
1 2 donor
1 27 hydrophobe
1 28 hydrophobe
1 3 acceptor
1 3 donor
1 4 acceptor
1 5 acceptor
1 7 donor
1 8 cation
1 9 acceptor
5 1 10 11 12 13 rings
6 6 8 17 18 19 20 rings
6 9 23 26 29 30 31 rings

> <PUBCHEM_HEAVY_ATOM_COUNT>
31

> <PUBCHEM_ATOM_DEF_STEREO_COUNT>
4

> <PUBCHEM_ATOM_UDEF_STEREO_COUNT>
0

> <PUBCHEM_BOND_DEF_STEREO_COUNT>
0

> <PUBCHEM_BOND_UDEF_STEREO_COUNT>
0

> <PUBCHEM_ISOTOPIC_ATOM_COUNT>
0

> <PUBCHEM_COMPONENT_COUNT>
1

> <PUBCHEM_CACTVS_TAUTO_COUNT>
2

> <PUBCHEM_CONFORMER_ID>
01836D2900000007

> <PUBCHEM_MMFF94_ENERGY>
81.0237

> <PUBCHEM_FEATURE_SELFOVERLAP>
76.144

> <PUBCHEM_SHAPE_FINGERPRINT>
10006869 2 18191574272833447871
10290309 65 18262236604228646635
10675989 125 16893685265318926381
11513181 2 18057878056974183439
11578080 2 13972866909388230641
11595378 159 17968642857795586010
11646440 116 18339653341976876963
12156800 1 16841398226425351561
12293681 4 18114190777736073986
12422481 6 18410300232615882584
12596602 18 17167855379369523170
13402501 40 18413106182084449514
13726171 33 18338517417753931616
13947920 24 18342734096580504680
14363568 33 18122911098997674985
14840074 17 18408892840510365992
14955137 171 18198631123286630603
15183329 4 17775004596590042658
15575132 122 18335979787881988468
16110190 28 18338240469645804773
18336668 15 18262519307217142861
19611394 137 18044104677025168947
21033648 29 18130216159726694562
25019877 29 17488752297132412143
392239 28 18334016094405726218
469060 322 17458067036561195380
50150288 127 16413804669690183977

> <PUBCHEM_SHAPE_MULTIPOLES>
588.69
13.05
4.26
1.65
15.5
2.18
0.08
-1.73
2.23
-2.83
-0.6
-0.78
0.93
0.8

> <PUBCHEM_SHAPE_SELFOVERLAP>
1214.265

> <PUBCHEM_SHAPE_VOLUME>
335.3

> <PUBCHEM_COORDINATE_TYPE>
2
5
10

$$$$
