11883065
  -OEChem-12032416413D

 59 62  0     1  0  0  0  0  0999 V2000
    0.4756    2.0715    0.1595 S   0  0  0  0  0  0  0  0  0  0  0  0
    9.0241    1.4350   -0.0432 F   0  0  0  0  0  0  0  0  0  0  0  0
   -7.1644    0.5141   -0.7519 O   0  0  0  0  0  0  0  0  0  0  0  0
   -6.6520    2.2937    0.7697 O   0  0  0  0  0  0  0  0  0  0  0  0
    0.7158   -3.7773    0.9021 O   0  0  0  0  0  0  0  0  0  0  0  0
    0.3621   -2.9925   -1.2050 O   0  0  0  0  0  0  0  0  0  0  0  0
    3.4921   -1.4613   -0.1456 O   0  0  0  0  0  0  0  0  0  0  0  0
    0.6973   -0.4971   -0.0552 N   0  0  0  0  0  0  0  0  0  0  0  0
    2.7473    0.7667    0.0451 N   0  0  0  0  0  0  0  0  0  0  0  0
   -3.1311   -0.7303    0.3401 C   0  0  2  0  0  0  0  0  0  0  0  0
   -3.3677    0.6844   -0.3514 C   0  0  1  0  0  0  0  0  0  0  0  0
   -4.8476    1.2294   -0.3786 C   0  0  1  0  0  0  0  0  0  0  0  0
   -1.7018   -1.2734   -0.1245 C   0  0  1  0  0  0  0  0  0  0  0  0
   -4.2143   -1.7288   -0.1446 C   0  0  0  0  0  0  0  0  0  0  0  0
   -5.8035    0.0931   -0.8400 C   0  0  1  0  0  0  0  0  0  0  0  0
   -2.3219    1.7332    0.1272 C   0  0  0  0  0  0  0  0  0  0  0  0
   -5.6359   -1.1947   -0.0412 C   0  0  0  0  0  0  0  0  0  0  0  0
   -3.1772   -0.6591    1.8863 C   0  0  0  0  0  0  0  0  0  0  0  0
   -0.6519   -0.1976   -0.0157 C   0  0  0  0  0  0  0  0  0  0  0  0
   -5.3277    1.8460    0.9538 C   0  0  0  0  0  0  0  0  0  0  0  0
   -4.9477    2.3725   -1.4281 C   0  0  0  0  0  0  0  0  0  0  0  0
   -0.9517    1.1462    0.0779 C   0  0  0  0  0  0  0  0  0  0  0  0
   -1.2546   -2.5670    0.5694 C   0  0  0  0  0  0  0  0  0  0  0  0
    0.0036   -3.1113   -0.0429 C   0  0  0  0  0  0  0  0  0  0  0  0
    1.3856    0.6201    0.0370 C   0  0  0  0  0  0  0  0  0  0  0  0
    3.7034   -0.2578   -0.0446 C   0  0  0  0  0  0  0  0  0  0  0  0
    5.1207    0.1923   -0.0428 C   0  0  0  0  0  0  0  0  0  0  0  0
    6.0677   -0.5914   -0.6671 C   0  0  0  0  0  0  0  0  0  0  0  0
    5.4406    1.3793    0.5816 C   0  0  0  0  0  0  0  0  0  0  0  0
    7.3970   -0.1686   -0.6669 C   0  0  0  0  0  0  0  0  0  0  0  0
    6.7699    1.8022    0.5818 C   0  0  0  0  0  0  0  0  0  0  0  0
    7.7480    1.0282   -0.0423 C   0  0  0  0  0  0  0  0  0  0  0  0
   -3.1309    0.5016   -1.4141 H   0  0  0  0  0  0  0  0  0  0  0  0
   -1.7795   -1.4857   -1.2020 H   0  0  0  0  0  0  0  0  0  0  0  0
   -4.1565   -2.6653    0.4224 H   0  0  0  0  0  0  0  0  0  0  0  0
   -4.0252   -1.9944   -1.1932 H   0  0  0  0  0  0  0  0  0  0  0  0
   -5.6112   -0.1410   -1.8958 H   0  0  0  0  0  0  0  0  0  0  0  0
   -2.5339    2.0565    1.1517 H   0  0  0  0  0  0  0  0  0  0  0  0
   -2.3563    2.6206   -0.5135 H   0  0  0  0  0  0  0  0  0  0  0  0
   -6.3353   -1.9485   -0.4250 H   0  0  0  0  0  0  0  0  0  0  0  0
   -5.9285   -1.0445    1.0039 H   0  0  0  0  0  0  0  0  0  0  0  0
   -2.3998   -0.0107    2.3003 H   0  0  0  0  0  0  0  0  0  0  0  0
   -4.1339   -0.3117    2.2687 H   0  0  0  0  0  0  0  0  0  0  0  0
   -3.0395   -1.6504    2.3320 H   0  0  0  0  0  0  0  0  0  0  0  0
   -4.7116    2.6912    1.2761 H   0  0  0  0  0  0  0  0  0  0  0  0
   -5.3599    1.1263    1.7669 H   0  0  0  0  0  0  0  0  0  0  0  0
   -4.3931    3.2619   -1.1105 H   0  0  0  0  0  0  0  0  0  0  0  0
   -4.5332    2.0533   -2.3916 H   0  0  0  0  0  0  0  0  0  0  0  0
   -5.9748    2.6955   -1.6234 H   0  0  0  0  0  0  0  0  0  0  0  0
   -1.0546   -2.3714    1.6298 H   0  0  0  0  0  0  0  0  0  0  0  0
   -2.0144   -3.3504    0.4961 H   0  0  0  0  0  0  0  0  0  0  0  0
   -7.3423    1.1142   -1.4948 H   0  0  0  0  0  0  0  0  0  0  0  0
   -6.6181    3.2018    0.4245 H   0  0  0  0  0  0  0  0  0  0  0  0
    3.0471    1.7359    0.0781 H   0  0  0  0  0  0  0  0  0  0  0  0
    1.5487   -4.1470    0.5390 H   0  0  0  0  0  0  0  0  0  0  0  0
    5.8118   -1.5224   -1.1637 H   0  0  0  0  0  0  0  0  0  0  0  0
    4.7209    1.9921    1.1136 H   0  0  0  0  0  0  0  0  0  0  0  0
    8.1588   -0.7699   -1.1543 H   0  0  0  0  0  0  0  0  0  0  0  0
    7.0456    2.7295    1.0752 H   0  0  0  0  0  0  0  0  0  0  0  0
  1 22  1  0  0  0  0
  1 25  1  0  0  0  0
  2 32  1  0  0  0  0
  3 15  1  0  0  0  0
  3 52  1  0  0  0  0
  4 20  1  0  0  0  0
  4 53  1  0  0  0  0
  5 24  1  0  0  0  0
  5 55  1  0  0  0  0
  6 24  2  0  0  0  0
  7 26  2  0  0  0  0
  8 19  1  0  0  0  0
  8 25  2  0  0  0  0
  9 25  1  0  0  0  0
  9 26  1  0  0  0  0
  9 54  1  0  0  0  0
 10 11  1  0  0  0  0
 10 13  1  0  0  0  0
 10 14  1  0  0  0  0
 10 18  1  0  0  0  0
 11 12  1  0  0  0  0
 11 16  1  0  0  0  0
 11 33  1  0  0  0  0
 12 15  1  0  0  0  0
 12 20  1  0  0  0  0
 12 21  1  0  0  0  0
 13 19  1  0  0  0  0
 13 23  1  0  0  0  0
 13 34  1  0  0  0  0
 14 17  1  0  0  0  0
 14 35  1  0  0  0  0
 14 36  1  0  0  0  0
 15 17  1  0  0  0  0
 15 37  1  0  0  0  0
 16 22  1  0  0  0  0
 16 38  1  0  0  0  0
 16 39  1  0  0  0  0
 17 40  1  0  0  0  0
 17 41  1  0  0  0  0
 18 42  1  0  0  0  0
 18 43  1  0  0  0  0
 18 44  1  0  0  0  0
 19 22  2  0  0  0  0
 20 45  1  0  0  0  0
 20 46  1  0  0  0  0
 21 47  1  0  0  0  0
 21 48  1  0  0  0  0
 21 49  1  0  0  0  0
 23 24  1  0  0  0  0
 23 50  1  0  0  0  0
 23 51  1  0  0  0  0
 26 27  1  0  0  0  0
 27 28  2  0  0  0  0
 27 29  1  0  0  0  0
 28 30  1  0  0  0  0
 28 56  1  0  0  0  0
 29 31  2  0  0  0  0
 29 57  1  0  0  0  0
 30 32  2  0  0  0  0
 30 58  1  0  0  0  0
 31 32  1  0  0  0  0
 31 59  1  0  0  0  0
M  END
> <PUBCHEM_COMPOUND_CID>
11883065

> <PUBCHEM_CONFORMER_RMSD>
1

> <PUBCHEM_CONFORMER_DIVERSEORDER>
1
3
4
5
2

> <PUBCHEM_MMFF94_PARTIAL_CHARGES>
33
1 -0.08
13 0.18
15 0.28
16 0.18
19 0.05
2 -0.19
20 0.28
22 -0.14
23 0.06
24 0.66
25 0.44
26 0.54
27 0.09
28 -0.15
29 -0.15
3 -0.68
30 -0.15
31 -0.15
32 0.19
4 -0.68
5 -0.65
52 0.4
53 0.4
54 0.37
55 0.5
56 0.15
57 0.15
58 0.15
59 0.15
6 -0.57
7 -0.57
8 -0.57
9 -0.49

> <PUBCHEM_EFFECTIVE_ROTOR_COUNT>
7.2

> <PUBCHEM_PHARMACOPHORE_FEATURES>
13
1 3 acceptor
1 3 donor
1 4 acceptor
1 4 donor
1 5 acceptor
1 6 acceptor
1 7 acceptor
1 9 donor
3 5 6 24 anion
5 1 8 19 22 25 rings
6 10 11 12 14 15 17 rings
6 10 11 13 16 19 22 rings
6 27 28 29 30 31 32 rings

> <PUBCHEM_HEAVY_ATOM_COUNT>
32

> <PUBCHEM_ATOM_DEF_STEREO_COUNT>
5

> <PUBCHEM_ATOM_UDEF_STEREO_COUNT>
0

> <PUBCHEM_BOND_DEF_STEREO_COUNT>
0

> <PUBCHEM_BOND_UDEF_STEREO_COUNT>
0

> <PUBCHEM_ISOTOPIC_ATOM_COUNT>
0

> <PUBCHEM_COMPONENT_COUNT>
1

> <PUBCHEM_CACTVS_TAUTO_COUNT>
3

> <PUBCHEM_CONFORMER_ID>
00B5523900000001

> <PUBCHEM_MMFF94_ENERGY>
104.5154

> <PUBCHEM_FEATURE_SELFOVERLAP>
66.174

> <PUBCHEM_SHAPE_FINGERPRINT>
10 15 18040999522980272729
10165383 225 18410855435435037649
10369192 42 18408037403473673429
10411042 1 17833270101426933643
10835480 77 18270958055325233152
10906281 52 18337688441699050689
11007060 377 18341333395807363834
11135609 187 18337952290525968513
11135926 11 18337388249850982805
11315181 36 18412546526756449273
11578080 2 17170378625659235727
12236239 1 17894346683869042944
12516196 113 18202281416286919328
12838862 33 18337655491226972460
13402501 40 18342176683008686942
14117953 113 18335423470049175852
14394314 77 18410296886799922945
14790565 3 18409168822292515645
14856354 85 15936413368113431979
15021287 119 17022905682968339933
15183329 4 18334290959375215712
15849732 13 18260265269899531164
15927050 60 18410289233532704858
17093844 174 18334857246512879993
18608769 82 18337956809064023275
18681886 176 18337946891462050545
21033648 29 18271514390596125632
21236236 1 18411699902760395885
21267235 1 18410013282441832731
21360443 120 18259703385409696466
23559900 14 18272081746948829928
249057 3 18334859450664974876
283562 15 18270685259675503192
3004659 81 18260546745145578380
335352 9 18410853295591537885
3383291 50 18263083373736052282
3633792 109 18343584027342588337
4017518 198 18060707208579198662
4073 2 18188775071739158970
4258327 124 17968956304767895796
5265222 85 18336830917641132892
5385378 56 18264213517344304915
5758199 1 18412266108167444825
59755656 215 18342177739222917750
6138700 20 18411419496787709710
6669772 16 18131356284581318918
7226269 152 18343867709985152392

> <PUBCHEM_SHAPE_MULTIPOLES>
615.81
20.89
3.1
1
31.02
2.17
-0.11
-11.76
1.93
-1.74
-0.17
-0.89
-0.01
0.77

> <PUBCHEM_SHAPE_SELFOVERLAP>
1318.533

> <PUBCHEM_SHAPE_VOLUME>
344.5

> <PUBCHEM_COORDINATE_TYPE>
2
5
10

$$$$
