11866303
  -OEChem-12032416153D

 64 66  0     1  0  0  0  0  0999 V2000
   -6.4325   -3.2893    0.4317 S   0  0  0  0  0  0  0  0  0  0  0  0
   -0.3499    2.4112    1.8209 O   0  0  0  0  0  0  0  0  0  0  0  0
    0.8878    4.8484   -0.6103 O   0  0  0  0  0  0  0  0  0  0  0  0
    3.9756    1.4184   -1.6580 O   0  0  0  0  0  0  0  0  0  0  0  0
   -3.1350    2.2810   -1.3889 O   0  0  0  0  0  0  0  0  0  0  0  0
    5.7867    0.7443    1.8257 O   0  0  0  0  0  0  0  0  0  0  0  0
   -5.4851    1.6928   -0.3611 O   0  0  0  0  0  0  0  0  0  0  0  0
   -1.3980    1.1155   -0.3875 N   0  0  0  0  0  0  0  0  0  0  0  0
    3.5949    0.1662    0.2711 N   0  0  0  0  0  0  0  0  0  0  0  0
    7.1227   -0.2687    0.2556 N   0  0  0  0  0  0  0  0  0  0  0  0
   -0.3331    3.1212    0.5806 C   0  0  2  0  0  0  0  0  0  0  0  0
   -0.3823    2.1197   -0.5891 C   0  0  1  0  0  0  0  0  0  0  0  0
    0.9311    3.9879    0.5261 C   0  0  1  0  0  0  0  0  0  0  0  0
    2.2139    3.1393    0.4968 C   0  0  0  0  0  0  0  0  0  0  0  0
    2.0894    1.8994   -0.3423 C   0  0  0  0  0  0  0  0  0  0  0  0
    0.9341    1.4360   -0.8425 C   0  0  0  0  0  0  0  0  0  0  0  0
    3.3111    1.1529   -0.6568 C   0  0  0  0  0  0  0  0  0  0  0  0
    4.7461   -0.7022    0.1731 C   0  0  2  0  0  0  0  0  0  0  0  0
   -2.7081    1.2846   -0.8114 C   0  0  0  0  0  0  0  0  0  0  0  0
    4.5073   -2.0630    0.8390 C   0  0  0  0  0  0  0  0  0  0  0  0
   -3.6395    0.1685   -0.5049 C   0  0  0  0  0  0  0  0  0  0  0  0
    5.9078    0.0188    0.8414 C   0  0  0  0  0  0  0  0  0  0  0  0
    3.3430   -2.8052    0.2265 C   0  0  0  0  0  0  0  0  0  0  0  0
   -4.9783    0.4294   -0.2949 C   0  0  0  0  0  0  0  0  0  0  0  0
   -3.1218   -1.1098   -0.4389 C   0  0  0  0  0  0  0  0  0  0  0  0
    3.5682   -3.6581   -0.8418 C   0  0  0  0  0  0  0  0  0  0  0  0
    2.0717   -2.6192    0.7448 C   0  0  0  0  0  0  0  0  0  0  0  0
   -5.8361   -0.6322   -0.0070 C   0  0  0  0  0  0  0  0  0  0  0  0
   -3.9796   -2.1714   -0.1510 C   0  0  0  0  0  0  0  0  0  0  0  0
   -5.3367   -1.9325    0.0648 C   0  0  0  0  0  0  0  0  0  0  0  0
    2.4929   -4.3435   -1.4072 C   0  0  0  0  0  0  0  0  0  0  0  0
    0.9964   -3.3046    0.1794 C   0  0  0  0  0  0  0  0  0  0  0  0
    1.2070   -4.1668   -0.8966 C   0  0  0  0  0  0  0  0  0  0  0  0
   -5.5011    2.4482    0.8483 C   0  0  0  0  0  0  0  0  0  0  0  0
   -7.0705   -2.8175    2.0642 C   0  0  0  0  0  0  0  0  0  0  0  0
   -1.2328    3.7477    0.5492 H   0  0  0  0  0  0  0  0  0  0  0  0
   -0.6314    2.6707   -1.5057 H   0  0  0  0  0  0  0  0  0  0  0  0
    0.9799    4.6346    1.4107 H   0  0  0  0  0  0  0  0  0  0  0  0
    3.0453    3.7491    0.1229 H   0  0  0  0  0  0  0  0  0  0  0  0
    2.4622    2.8294    1.5197 H   0  0  0  0  0  0  0  0  0  0  0  0
    0.9299    0.5480   -1.4712 H   0  0  0  0  0  0  0  0  0  0  0  0
   -1.1438    0.3090    0.1741 H   0  0  0  0  0  0  0  0  0  0  0  0
   -0.3474    3.0707    2.5354 H   0  0  0  0  0  0  0  0  0  0  0  0
    0.0761    5.3796   -0.5445 H   0  0  0  0  0  0  0  0  0  0  0  0
    4.9737   -0.8401   -0.8917 H   0  0  0  0  0  0  0  0  0  0  0  0
    3.0116    0.0905    1.1000 H   0  0  0  0  0  0  0  0  0  0  0  0
    5.4133   -2.6798    0.7718 H   0  0  0  0  0  0  0  0  0  0  0  0
    4.3284   -1.9347    1.9157 H   0  0  0  0  0  0  0  0  0  0  0  0
   -2.0793   -1.3404   -0.6337 H   0  0  0  0  0  0  0  0  0  0  0  0
    4.5658   -3.8002   -1.2474 H   0  0  0  0  0  0  0  0  0  0  0  0
    1.8949   -1.9553    1.5860 H   0  0  0  0  0  0  0  0  0  0  0  0
   -6.8932   -0.4307    0.1510 H   0  0  0  0  0  0  0  0  0  0  0  0
    7.2100   -0.8881   -0.5437 H   0  0  0  0  0  0  0  0  0  0  0  0
    7.9816    0.1363    0.6129 H   0  0  0  0  0  0  0  0  0  0  0  0
   -3.5735   -3.1790   -0.1060 H   0  0  0  0  0  0  0  0  0  0  0  0
    2.6568   -5.0142   -2.2455 H   0  0  0  0  0  0  0  0  0  0  0  0
   -0.0050   -3.1667    0.5769 H   0  0  0  0  0  0  0  0  0  0  0  0
    0.3695   -4.6999   -1.3371 H   0  0  0  0  0  0  0  0  0  0  0  0
   -6.1647    1.9787    1.5813 H   0  0  0  0  0  0  0  0  0  0  0  0
   -5.8816    3.4481    0.6224 H   0  0  0  0  0  0  0  0  0  0  0  0
   -4.4927    2.5438    1.2636 H   0  0  0  0  0  0  0  0  0  0  0  0
   -6.2450   -2.6502    2.7613 H   0  0  0  0  0  0  0  0  0  0  0  0
   -7.6784   -1.9118    1.9959 H   0  0  0  0  0  0  0  0  0  0  0  0
   -7.6962   -3.6262    2.4511 H   0  0  0  0  0  0  0  0  0  0  0  0
  1 30  1  0  0  0  0
  1 35  1  0  0  0  0
  2 11  1  0  0  0  0
  2 43  1  0  0  0  0
  3 13  1  0  0  0  0
  3 44  1  0  0  0  0
  4 17  2  0  0  0  0
  5 19  2  0  0  0  0
  6 22  2  0  0  0  0
  7 24  1  0  0  0  0
  7 34  1  0  0  0  0
  8 12  1  0  0  0  0
  8 19  1  0  0  0  0
  8 42  1  0  0  0  0
  9 17  1  0  0  0  0
  9 18  1  0  0  0  0
  9 46  1  0  0  0  0
 10 22  1  0  0  0  0
 10 53  1  0  0  0  0
 10 54  1  0  0  0  0
 11 12  1  0  0  0  0
 11 13  1  0  0  0  0
 11 36  1  0  0  0  0
 12 16  1  0  0  0  0
 12 37  1  0  0  0  0
 13 14  1  0  0  0  0
 13 38  1  0  0  0  0
 14 15  1  0  0  0  0
 14 39  1  0  0  0  0
 14 40  1  0  0  0  0
 15 16  2  0  0  0  0
 15 17  1  0  0  0  0
 16 41  1  0  0  0  0
 18 20  1  0  0  0  0
 18 22  1  0  0  0  0
 18 45  1  0  0  0  0
 19 21  1  0  0  0  0
 20 23  1  0  0  0  0
 20 47  1  0  0  0  0
 20 48  1  0  0  0  0
 21 24  2  0  0  0  0
 21 25  1  0  0  0  0
 23 26  2  0  0  0  0
 23 27  1  0  0  0  0
 24 28  1  0  0  0  0
 25 29  2  0  0  0  0
 25 49  1  0  0  0  0
 26 31  1  0  0  0  0
 26 50  1  0  0  0  0
 27 32  2  0  0  0  0
 27 51  1  0  0  0  0
 28 30  2  0  0  0  0
 28 52  1  0  0  0  0
 29 30  1  0  0  0  0
 29 55  1  0  0  0  0
 31 33  2  0  0  0  0
 31 56  1  0  0  0  0
 32 33  1  0  0  0  0
 32 57  1  0  0  0  0
 33 58  1  0  0  0  0
 34 59  1  0  0  0  0
 34 60  1  0  0  0  0
 34 61  1  0  0  0  0
 35 62  1  0  0  0  0
 35 63  1  0  0  0  0
 35 64  1  0  0  0  0
M  END
> <PUBCHEM_COMPOUND_CID>
11866303

> <PUBCHEM_CONFORMER_RMSD>
1.2

> <PUBCHEM_CONFORMER_DIVERSEORDER>
1
104
41
83
87
15
94
35
115
110
122
73
101
89
22
91
84
67
72
11
66
43
17
51
120
28
54
78
69
80
42
65
52
37
50
124
21
13
102
48
53
117
121
55
59
26
82
127
111
44
98
49
76
112
95
77
126
96
34
46
14
100
38
68
119
8
75
86
10
85
114
70
81
16
105
33
93
56
3
25
32
6
12
118
36
106
108
99
123
23
19
27
57
90
31
61
64
40
30
113
97
107
29
39
92
58
45
9
7
88
103
5
62
20
60
71
2
47
18
125
79
116
4
74
109
24
63

> <PUBCHEM_MMFF94_PARTIAL_CHARGES>
50
1 -0.33
10 -0.8
11 0.28
12 0.44
13 0.28
14 0.14
15 -0.12
16 -0.29
17 0.62
18 0.36
19 0.54
2 -0.68
20 0.14
21 0.09
22 0.57
23 -0.14
24 0.08
25 -0.15
26 -0.15
27 -0.15
28 -0.15
29 -0.15
3 -0.68
30 0.1
31 -0.15
32 -0.15
33 -0.15
34 0.28
35 0.23
4 -0.57
41 0.15
42 0.37
43 0.4
44 0.4
46 0.37
49 0.15
5 -0.57
50 0.15
51 0.15
52 0.15
53 0.37
54 0.37
55 0.15
56 0.15
57 0.15
58 0.15
6 -0.57
7 -0.36
8 -0.73
9 -0.73

> <PUBCHEM_EFFECTIVE_ROTOR_COUNT>
11.8

> <PUBCHEM_PHARMACOPHORE_FEATURES>
15
1 10 donor
1 2 acceptor
1 2 donor
1 3 acceptor
1 3 donor
1 35 hydrophobe
1 4 acceptor
1 5 acceptor
1 6 acceptor
1 7 acceptor
1 8 donor
1 9 donor
6 11 12 13 14 15 16 rings
6 21 24 25 28 29 30 rings
6 23 26 27 31 32 33 rings

> <PUBCHEM_HEAVY_ATOM_COUNT>
35

> <PUBCHEM_ATOM_DEF_STEREO_COUNT>
4

> <PUBCHEM_ATOM_UDEF_STEREO_COUNT>
0

> <PUBCHEM_BOND_DEF_STEREO_COUNT>
0

> <PUBCHEM_BOND_UDEF_STEREO_COUNT>
0

> <PUBCHEM_ISOTOPIC_ATOM_COUNT>
0

> <PUBCHEM_COMPONENT_COUNT>
1

> <PUBCHEM_CACTVS_TAUTO_COUNT>
8

> <PUBCHEM_CONFORMER_ID>
00B510BF00000001

> <PUBCHEM_MMFF94_ENERGY>
99.6999

> <PUBCHEM_FEATURE_SELFOVERLAP>
76.14

> <PUBCHEM_SHAPE_FINGERPRINT>
10290309 65 18049435152815290997
10439779 11 18339632447346207642
10939801 23 18191581059730750896
12107183 9 18340775841161645385
12925494 130 18340201900470588345
13402501 40 18335416868046345554
14068700 686 18268700633499609908
14394314 77 18411982429530081232
14863182 85 18410291368641900478
15001296 14 18336548222392478792
15320467 1 18338796844210660927
15347590 135 17843963882213287705
15927050 60 17764022867762098892
19611394 137 18188497985370790475
20028762 73 18200591522522775566
21197605 99 18336265755664055242
23559900 14 18336814360837735773
3178227 256 18266184009373631195
354706 132 17386014914132930079
4435113 14 17751094702710978387
4461854 278 18271813492035002150
463206 1 18408323267674948690
5104073 3 18201444739704896481
5309563 4 18410855460154581062
5776283 40 17903935687847277692

> <PUBCHEM_SHAPE_MULTIPOLES>
673.97
16.27
6.54
1.3
11.79
0.8
0.27
9.36
5.2
-1.32
-0.51
-0.02
0.15
1.76

> <PUBCHEM_SHAPE_SELFOVERLAP>
1415.124

> <PUBCHEM_SHAPE_VOLUME>
381.3

> <PUBCHEM_COORDINATE_TYPE>
2
5
10

$$$$
