38026726
  -OEChem-12032416143D

 58 60  0     1  0  0  0  0  0999 V2000
    0.0427    3.2579    0.5092 S   0  0  0  0  0  0  0  0  0  0  0  0
   -3.4069    1.0587    0.9715 O   0  0  0  0  0  0  0  0  0  0  0  0
   -3.1363   -0.2875   -1.6899 O   0  0  0  0  0  0  0  0  0  0  0  0
   -6.1266    0.8232   -1.4494 O   0  0  0  0  0  0  0  0  0  0  0  0
    0.3467    4.3071    1.4635 O   0  0  0  0  0  0  0  0  0  0  0  0
   -0.6636    3.5707   -0.7184 O   0  0  0  0  0  0  0  0  0  0  0  0
    5.1358    0.6711   -1.0391 O   0  0  0  0  0  0  0  0  0  0  0  0
   -1.7598   -2.0938    0.0607 N   0  0  1  0  0  0  0  0  0  0  0  0
   -0.7642    1.9885    1.3063 N   0  0  0  0  0  0  0  0  0  0  0  0
   -2.8021   -1.2027    0.5393 C   0  0  1  0  0  0  0  0  0  0  0  0
   -2.3315    0.1142    1.1701 C   0  0  1  0  0  0  0  0  0  0  0  0
   -3.7963   -0.7416   -0.5154 C   0  0  1  0  0  0  0  0  0  0  0  0
   -4.4537    0.4267    0.2097 C   0  0  2  0  0  0  0  0  0  0  0  0
   -1.0685    0.7384    0.5873 C   0  0  0  0  0  0  0  0  0  0  0  0
   -5.1169    1.4597   -0.6829 C   0  0  0  0  0  0  0  0  0  0  0  0
   -0.8245   -2.4297    1.1389 C   0  0  0  0  0  0  0  0  0  0  0  0
   -2.3377   -3.3181   -0.5024 C   0  0  0  0  0  0  0  0  0  0  0  0
    0.4917   -2.9283    0.6043 C   0  0  0  0  0  0  0  0  0  0  0  0
    1.5636    2.4846    0.0469 C   0  0  0  0  0  0  0  0  0  0  0  0
    1.2418   -3.8442    1.3419 C   0  0  0  0  0  0  0  0  0  0  0  0
    0.9610   -2.4745   -0.6282 C   0  0  0  0  0  0  0  0  0  0  0  0
    2.4613   -4.3064    0.8469 C   0  0  0  0  0  0  0  0  0  0  0  0
    2.1804   -2.9367   -1.1233 C   0  0  0  0  0  0  0  0  0  0  0  0
    2.6571    2.5239    0.9122 C   0  0  0  0  0  0  0  0  0  0  0  0
    1.6705    1.8357   -1.1832 C   0  0  0  0  0  0  0  0  0  0  0  0
    2.9306   -3.8526   -0.3857 C   0  0  0  0  0  0  0  0  0  0  0  0
    3.8573    1.9141    0.5472 C   0  0  0  0  0  0  0  0  0  0  0  0
    2.8707    1.2260   -1.5481 C   0  0  0  0  0  0  0  0  0  0  0  0
    3.9641    1.2651   -0.6830 C   0  0  0  0  0  0  0  0  0  0  0  0
    6.2133    0.7504   -0.1070 C   0  0  0  0  0  0  0  0  0  0  0  0
   -3.3872   -1.7222    1.3156 H   0  0  0  0  0  0  0  0  0  0  0  0
   -2.2089   -0.0086    2.2535 H   0  0  0  0  0  0  0  0  0  0  0  0
   -4.5213   -1.5121   -0.7968 H   0  0  0  0  0  0  0  0  0  0  0  0
   -5.1852    0.0353    0.9287 H   0  0  0  0  0  0  0  0  0  0  0  0
   -1.2281    0.9691   -0.4704 H   0  0  0  0  0  0  0  0  0  0  0  0
   -0.1911    0.0978    0.6697 H   0  0  0  0  0  0  0  0  0  0  0  0
   -4.3978    1.9471   -1.3501 H   0  0  0  0  0  0  0  0  0  0  0  0
   -5.5740    2.2471   -0.0736 H   0  0  0  0  0  0  0  0  0  0  0  0
   -1.2731   -3.1899    1.7945 H   0  0  0  0  0  0  0  0  0  0  0  0
   -0.5814   -1.5937    1.8007 H   0  0  0  0  0  0  0  0  0  0  0  0
   -1.5625   -4.0179   -0.8334 H   0  0  0  0  0  0  0  0  0  0  0  0
   -2.9306   -3.1012   -1.3969 H   0  0  0  0  0  0  0  0  0  0  0  0
   -2.9778   -3.8433    0.2165 H   0  0  0  0  0  0  0  0  0  0  0  0
   -3.8185   -0.1049   -2.3581 H   0  0  0  0  0  0  0  0  0  0  0  0
   -0.6370    1.8978    2.3222 H   0  0  0  0  0  0  0  0  0  0  0  0
   -6.5390    1.5079   -2.0031 H   0  0  0  0  0  0  0  0  0  0  0  0
    0.8877   -4.2037    2.3043 H   0  0  0  0  0  0  0  0  0  0  0  0
    0.4138   -1.7466   -1.2207 H   0  0  0  0  0  0  0  0  0  0  0  0
    3.0458   -5.0189    1.4216 H   0  0  0  0  0  0  0  0  0  0  0  0
    2.5489   -2.5788   -2.0802 H   0  0  0  0  0  0  0  0  0  0  0  0
    2.5916    3.0185    1.8772 H   0  0  0  0  0  0  0  0  0  0  0  0
    0.8313    1.7880   -1.8712 H   0  0  0  0  0  0  0  0  0  0  0  0
    3.8809   -4.2109   -0.7704 H   0  0  0  0  0  0  0  0  0  0  0  0
    4.6658    1.9809    1.2671 H   0  0  0  0  0  0  0  0  0  0  0  0
    2.9474    0.7200   -2.5066 H   0  0  0  0  0  0  0  0  0  0  0  0
    7.0652    0.2265   -0.5527 H   0  0  0  0  0  0  0  0  0  0  0  0
    5.9745    0.2338    0.8288 H   0  0  0  0  0  0  0  0  0  0  0  0
    6.5267    1.7868    0.0589 H   0  0  0  0  0  0  0  0  0  0  0  0
  1  5  2  0  0  0  0
  1  6  2  0  0  0  0
  1  9  1  0  0  0  0
  1 19  1  0  0  0  0
  2 11  1  0  0  0  0
  2 13  1  0  0  0  0
  3 12  1  0  0  0  0
  3 44  1  0  0  0  0
  4 15  1  0  0  0  0
  4 46  1  0  0  0  0
  7 29  1  0  0  0  0
  7 30  1  0  0  0  0
  8 10  1  0  0  0  0
  8 16  1  0  0  0  0
  8 17  1  0  0  0  0
  9 14  1  0  0  0  0
  9 45  1  0  0  0  0
 10 11  1  0  0  0  0
 10 12  1  0  0  0  0
 10 31  1  0  0  0  0
 11 14  1  0  0  0  0
 11 32  1  0  0  0  0
 12 13  1  0  0  0  0
 12 33  1  0  0  0  0
 13 15  1  0  0  0  0
 13 34  1  0  0  0  0
 14 35  1  0  0  0  0
 14 36  1  0  0  0  0
 15 37  1  0  0  0  0
 15 38  1  0  0  0  0
 16 18  1  0  0  0  0
 16 39  1  0  0  0  0
 16 40  1  0  0  0  0
 17 41  1  0  0  0  0
 17 42  1  0  0  0  0
 17 43  1  0  0  0  0
 18 20  2  0  0  0  0
 18 21  1  0  0  0  0
 19 24  2  0  0  0  0
 19 25  1  0  0  0  0
 20 22  1  0  0  0  0
 20 47  1  0  0  0  0
 21 23  2  0  0  0  0
 21 48  1  0  0  0  0
 22 26  2  0  0  0  0
 22 49  1  0  0  0  0
 23 26  1  0  0  0  0
 23 50  1  0  0  0  0
 24 27  1  0  0  0  0
 24 51  1  0  0  0  0
 25 28  2  0  0  0  0
 25 52  1  0  0  0  0
 26 53  1  0  0  0  0
 27 29  2  0  0  0  0
 27 54  1  0  0  0  0
 28 29  1  0  0  0  0
 28 55  1  0  0  0  0
 30 56  1  0  0  0  0
 30 57  1  0  0  0  0
 30 58  1  0  0  0  0
M  END
> <PUBCHEM_COMPOUND_CID>
38026726

> <PUBCHEM_CONFORMER_RMSD>
1

> <PUBCHEM_CONFORMER_DIVERSEORDER>
8
52
78
95
72
145
57
89
126
42
99
110
142
90
100
49
134
119
31
102
73
101
28
23
109
136
128
53
98
147
94
46
13
64
41
144
114
3
24
141
139
19
91
121
129
45
123
124
54
87
148
104
93
71
62
43
132
38
150
66
56
30
107
155
97
58
2
34
88
138
116
125
130
14
9
135
115
113
108
25
51
79
5
112
151
82
86
81
105
137
131
10
55
18
146
143
17
4
33
59
96
133
76
11
44
92
63
7
103
68
70
122
75
61
80
153
118
60
22
35
6
111
47
149
140
84
106
36
37
48
27
74
152
120
29
77
83
15
127
12
20
40
21
69
85
154
117
1
32
26
50
65
67
39
16

> <PUBCHEM_MMFF94_PARTIAL_CHARGES>
42
1 1.45
10 0.27
11 0.28
12 0.28
13 0.28
14 0.36
15 0.28
16 0.41
17 0.27
18 -0.14
19 -0.01
2 -0.56
20 -0.15
21 -0.15
22 -0.15
23 -0.15
24 -0.15
25 -0.15
26 -0.15
27 -0.15
28 -0.15
29 0.08
3 -0.68
30 0.28
4 -0.68
44 0.4
45 0.42
46 0.4
47 0.15
48 0.15
49 0.15
5 -0.65
50 0.15
51 0.15
52 0.15
53 0.15
54 0.15
55 0.15
6 -0.65
7 -0.36
8 -0.81
9 -0.91

> <PUBCHEM_EFFECTIVE_ROTOR_COUNT>
10

> <PUBCHEM_PHARMACOPHORE_FEATURES>
13
1 2 acceptor
1 3 acceptor
1 3 donor
1 4 acceptor
1 4 donor
1 5 acceptor
1 6 acceptor
1 7 acceptor
1 8 cation
1 9 donor
5 2 10 11 12 13 rings
6 18 20 21 22 23 26 rings
6 19 24 25 27 28 29 rings

> <PUBCHEM_HEAVY_ATOM_COUNT>
30

> <PUBCHEM_ATOM_DEF_STEREO_COUNT>
4

> <PUBCHEM_ATOM_UDEF_STEREO_COUNT>
0

> <PUBCHEM_BOND_DEF_STEREO_COUNT>
0

> <PUBCHEM_BOND_UDEF_STEREO_COUNT>
0

> <PUBCHEM_ISOTOPIC_ATOM_COUNT>
0

> <PUBCHEM_COMPONENT_COUNT>
1

> <PUBCHEM_CACTVS_TAUTO_COUNT>
1

> <PUBCHEM_CONFORMER_ID>
02443DE600000008

> <PUBCHEM_MMFF94_ENERGY>
80.4106

> <PUBCHEM_FEATURE_SELFOVERLAP>
65.993

> <PUBCHEM_SHAPE_FINGERPRINT>
10675989 125 18411419505431106473
10871710 139 17690012132523807339
11513181 2 17697327213622512502
11578080 2 17749935684226738271
12156800 1 13826140582458261420
13122387 1 17401216568909238842
14114207 22 18188198815360090526
14251757 5 17903658598284870500
14466204 15 18339080514162806534
14725015 67 17906452486721152098
15351339 4 18338230449798547809
15927050 60 17693952795273017264
16719943 64 18336830909383501266
17093844 170 18410860971309973316
17627616 140 18335981982779270274
19026451 147 18267578018546371167
20642791 35 18266751173012184454
21344244 246 18411129239278229063
23559900 14 18129663152680884328
3027735 51 18338520742121772192
3298306 158 18409729607814268451
463206 1 18412550911611674626
5265222 85 18116726307605898396
532947 4 18410012109414724507
59755656 215 18410013200320639316
9709674 26 17621042387906202656

> <PUBCHEM_SHAPE_MULTIPOLES>
576.06
9.77
6.29
1.41
1.96
3.49
-0.11
-3.78
-3.39
-4.12
1.54
0.16
-0.16
0.03

> <PUBCHEM_SHAPE_SELFOVERLAP>
1198.512

> <PUBCHEM_SHAPE_VOLUME>
329.1

> <PUBCHEM_COORDINATE_TYPE>
2
5
10

$$$$
