45360601
  -OEChem-12032416173D

 73 76  0     1  0  0  0  0  0999 V2000
   -4.2888    0.8369    0.8854 O   0  0  0  0  0  0  0  0  0  0  0  0
   -6.2145    2.1888   -1.0429 O   0  0  0  0  0  0  0  0  0  0  0  0
   -6.4979   -0.4864   -1.6183 O   0  0  0  0  0  0  0  0  0  0  0  0
   -2.1169    2.8503    1.3147 O   0  0  0  0  0  0  0  0  0  0  0  0
    4.0300    0.3613    1.7475 O   0  0  0  0  0  0  0  0  0  0  0  0
   -2.4281   -1.0172    2.3293 O   0  0  0  0  0  0  0  0  0  0  0  0
   -0.2819    2.1079    0.0975 N   0  0  0  0  0  0  0  0  0  0  0  0
    2.5700    1.7258   -0.2196 N   0  0  0  0  0  0  0  0  0  0  0  0
   -3.6104   -1.8971    0.5373 N   0  0  0  0  0  0  0  0  0  0  0  0
    2.4358   -3.3789   -1.0498 N   0  0  0  0  0  0  0  0  0  0  0  0
   -4.0218    1.7622   -0.1933 C   0  0  2  0  0  0  0  0  0  0  0  0
   -5.0262    1.4396   -1.2943 C   0  0  1  0  0  0  0  0  0  0  0  0
   -5.2780   -0.0368   -1.0685 C   0  0  1  0  0  0  0  0  0  0  0  0
   -5.2716   -0.1184    0.4488 C   0  0  1  0  0  0  0  0  0  0  0  0
   -2.5761    1.5656   -0.6288 C   0  0  0  0  0  0  0  0  0  0  0  0
   -4.9145   -1.4966    0.9761 C   0  0  0  0  0  0  0  0  0  0  0  0
   -1.6475    2.2344    0.3549 C   0  0  0  0  0  0  0  0  0  0  0  0
    0.2738    1.3760   -1.0430 C   0  0  0  0  0  0  0  0  0  0  0  0
    0.6819    2.7219    1.0071 C   0  0  0  0  0  0  0  0  0  0  0  0
    1.6960    1.8150   -1.3919 C   0  0  0  0  0  0  0  0  0  0  0  0
    1.9717    1.9101    1.1056 C   0  0  0  0  0  0  0  0  0  0  0  0
    3.9387    1.5080   -0.3578 C   0  0  0  0  0  0  0  0  0  0  0  0
   -2.4528   -1.6213    1.2602 C   0  0  0  0  0  0  0  0  0  0  0  0
    4.6525    0.8269    0.6282 C   0  0  0  0  0  0  0  0  0  0  0  0
    4.5949    1.9765   -1.4960 C   0  0  0  0  0  0  0  0  0  0  0  0
   -1.1757   -2.0813    0.6567 C   0  0  0  0  0  0  0  0  0  0  0  0
    6.0227    0.6144    0.4759 C   0  0  0  0  0  0  0  0  0  0  0  0
    5.9652    1.7640   -1.6480 C   0  0  0  0  0  0  0  0  0  0  0  0
    6.6791    1.0830   -0.6623 C   0  0  0  0  0  0  0  0  0  0  0  0
   -0.0838   -2.3736    1.4740 C   0  0  0  0  0  0  0  0  0  0  0  0
   -1.0680   -2.2201   -0.7271 C   0  0  0  0  0  0  0  0  0  0  0  0
    1.1158   -2.8044    0.9076 C   0  0  0  0  0  0  0  0  0  0  0  0
    0.1316   -2.6509   -1.2936 C   0  0  0  0  0  0  0  0  0  0  0  0
    1.2235   -2.9431   -0.4763 C   0  0  0  0  0  0  0  0  0  0  0  0
    4.8398   -0.3233    2.7012 C   0  0  0  0  0  0  0  0  0  0  0  0
    2.5547   -3.5333   -2.4863 C   0  0  0  0  0  0  0  0  0  0  0  0
    3.5767   -3.6858   -0.2102 C   0  0  0  0  0  0  0  0  0  0  0  0
   -4.1963    2.7742    0.1901 H   0  0  0  0  0  0  0  0  0  0  0  0
   -4.6920    1.6736   -2.3090 H   0  0  0  0  0  0  0  0  0  0  0  0
   -4.4609   -0.6139   -1.5153 H   0  0  0  0  0  0  0  0  0  0  0  0
   -6.2433    0.1785    0.8629 H   0  0  0  0  0  0  0  0  0  0  0  0
   -2.3202    0.5074   -0.7055 H   0  0  0  0  0  0  0  0  0  0  0  0
   -2.4295    2.0479   -1.6014 H   0  0  0  0  0  0  0  0  0  0  0  0
   -4.9260   -1.4905    2.0716 H   0  0  0  0  0  0  0  0  0  0  0  0
   -5.6318   -2.2466    0.6276 H   0  0  0  0  0  0  0  0  0  0  0  0
   -0.3673    1.4861   -1.9211 H   0  0  0  0  0  0  0  0  0  0  0  0
    0.2746    0.3203   -0.7599 H   0  0  0  0  0  0  0  0  0  0  0  0
    0.2371    2.8428    2.0007 H   0  0  0  0  0  0  0  0  0  0  0  0
    0.8900    3.7261    0.6178 H   0  0  0  0  0  0  0  0  0  0  0  0
    2.0556    1.1680   -2.2016 H   0  0  0  0  0  0  0  0  0  0  0  0
    1.6870    2.8483   -1.7596 H   0  0  0  0  0  0  0  0  0  0  0  0
    2.6496    2.4506    1.7772 H   0  0  0  0  0  0  0  0  0  0  0  0
    1.7284    0.9338    1.5419 H   0  0  0  0  0  0  0  0  0  0  0  0
   -5.9996    3.1280   -1.1754 H   0  0  0  0  0  0  0  0  0  0  0  0
   -6.4799   -0.2880   -2.5700 H   0  0  0  0  0  0  0  0  0  0  0  0
   -3.5636   -2.4489   -0.3126 H   0  0  0  0  0  0  0  0  0  0  0  0
    4.0734    2.5247   -2.2757 H   0  0  0  0  0  0  0  0  0  0  0  0
    6.6428    0.0947    1.1979 H   0  0  0  0  0  0  0  0  0  0  0  0
    6.4772    2.1320   -2.5324 H   0  0  0  0  0  0  0  0  0  0  0  0
    7.7461    0.9188   -0.7816 H   0  0  0  0  0  0  0  0  0  0  0  0
   -0.1501   -2.2741    2.5542 H   0  0  0  0  0  0  0  0  0  0  0  0
   -1.8843   -1.9746   -1.3999 H   0  0  0  0  0  0  0  0  0  0  0  0
    1.9363   -3.0181    1.5854 H   0  0  0  0  0  0  0  0  0  0  0  0
    0.1675   -2.7354   -2.3752 H   0  0  0  0  0  0  0  0  0  0  0  0
    5.2650   -1.2427    2.2846 H   0  0  0  0  0  0  0  0  0  0  0  0
    5.6031    0.3348    3.1301 H   0  0  0  0  0  0  0  0  0  0  0  0
    4.1820   -0.6237    3.5236 H   0  0  0  0  0  0  0  0  0  0  0  0
    1.8440   -4.2763   -2.8651 H   0  0  0  0  0  0  0  0  0  0  0  0
    2.3981   -2.5786   -3.0008 H   0  0  0  0  0  0  0  0  0  0  0  0
    3.5527   -3.8818   -2.7747 H   0  0  0  0  0  0  0  0  0  0  0  0
    3.8993   -2.8046    0.3558 H   0  0  0  0  0  0  0  0  0  0  0  0
    3.3506   -4.5046    0.4818 H   0  0  0  0  0  0  0  0  0  0  0  0
    4.4406   -4.0076   -0.8024 H   0  0  0  0  0  0  0  0  0  0  0  0
  1 11  1  0  0  0  0
  1 14  1  0  0  0  0
  2 12  1  0  0  0  0
  2 54  1  0  0  0  0
  3 13  1  0  0  0  0
  3 55  1  0  0  0  0
  4 17  2  0  0  0  0
  5 24  1  0  0  0  0
  5 35  1  0  0  0  0
  6 23  2  0  0  0  0
  7 17  1  0  0  0  0
  7 18  1  0  0  0  0
  7 19  1  0  0  0  0
  8 20  1  0  0  0  0
  8 21  1  0  0  0  0
  8 22  1  0  0  0  0
  9 16  1  0  0  0  0
  9 23  1  0  0  0  0
  9 56  1  0  0  0  0
 10 34  1  0  0  0  0
 10 36  1  0  0  0  0
 10 37  1  0  0  0  0
 11 12  1  0  0  0  0
 11 15  1  0  0  0  0
 11 38  1  0  0  0  0
 12 13  1  0  0  0  0
 12 39  1  0  0  0  0
 13 14  1  0  0  0  0
 13 40  1  0  0  0  0
 14 16  1  0  0  0  0
 14 41  1  0  0  0  0
 15 17  1  0  0  0  0
 15 42  1  0  0  0  0
 15 43  1  0  0  0  0
 16 44  1  0  0  0  0
 16 45  1  0  0  0  0
 18 20  1  0  0  0  0
 18 46  1  0  0  0  0
 18 47  1  0  0  0  0
 19 21  1  0  0  0  0
 19 48  1  0  0  0  0
 19 49  1  0  0  0  0
 20 50  1  0  0  0  0
 20 51  1  0  0  0  0
 21 52  1  0  0  0  0
 21 53  1  0  0  0  0
 22 24  1  0  0  0  0
 22 25  2  0  0  0  0
 23 26  1  0  0  0  0
 24 27  2  0  0  0  0
 25 28  1  0  0  0  0
 25 57  1  0  0  0  0
 26 30  2  0  0  0  0
 26 31  1  0  0  0  0
 27 29  1  0  0  0  0
 27 58  1  0  0  0  0
 28 29  2  0  0  0  0
 28 59  1  0  0  0  0
 29 60  1  0  0  0  0
 30 32  1  0  0  0  0
 30 61  1  0  0  0  0
 31 33  2  0  0  0  0
 31 62  1  0  0  0  0
 32 34  2  0  0  0  0
 32 63  1  0  0  0  0
 33 34  1  0  0  0  0
 33 64  1  0  0  0  0
 35 65  1  0  0  0  0
 35 66  1  0  0  0  0
 35 67  1  0  0  0  0
 36 68  1  0  0  0  0
 36 69  1  0  0  0  0
 36 70  1  0  0  0  0
 37 71  1  0  0  0  0
 37 72  1  0  0  0  0
 37 73  1  0  0  0  0
M  END
> <PUBCHEM_COMPOUND_CID>
45360601

> <PUBCHEM_CONFORMER_RMSD>
1.4

> <PUBCHEM_CONFORMER_DIVERSEORDER>
1
15
46
106
51
6
119
27
98
135
61
68
112
75
69
115
58
96
57
11
50
116
142
79
39
44
82
137
139
5
132
124
73
138
80
4
121
113
95
19
32
13
26
35
90
22
93
14
64
36
128
89
126
43
110
118
100
99
66
92
47
67
102
60
103
53
107
101
34
23
48
141
94
122
3
49
91
52
24
71
109
54
105
65
12
38
134
70
84
131
17
37
59
85
88
136
97
130
25
10
40
127
111
81
41
140
86
20
55
125
123
62
77
120
72
133
31
129
56
29
16
104
87
30
74
76
42
117
2
18
9
28
63
45
114
33
108
83
8
78
7
21

> <PUBCHEM_MMFF94_PARTIAL_CHARGES>
48
1 -0.56
10 -0.84
11 0.28
12 0.28
13 0.28
14 0.28
15 0.06
16 0.3
17 0.57
18 0.3
19 0.3
2 -0.68
20 0.37
21 0.37
22 0.1
23 0.54
24 0.08
25 -0.15
26 0.09
27 -0.15
28 -0.15
29 -0.15
3 -0.68
30 -0.15
31 -0.15
32 -0.15
33 -0.15
34 0.1
35 0.28
36 0.37
37 0.37
4 -0.57
5 -0.36
54 0.4
55 0.4
56 0.37
57 0.15
58 0.15
59 0.15
6 -0.57
60 0.15
61 0.15
62 0.15
63 0.15
64 0.15
7 -0.66
8 -0.84
9 -0.73

> <PUBCHEM_EFFECTIVE_ROTOR_COUNT>
12.2

> <PUBCHEM_PHARMACOPHORE_FEATURES>
15
1 1 acceptor
1 10 cation
1 2 acceptor
1 2 donor
1 3 acceptor
1 3 donor
1 4 acceptor
1 5 acceptor
1 6 acceptor
1 8 cation
1 9 donor
5 1 11 12 13 14 rings
6 22 24 25 27 28 29 rings
6 26 30 31 32 33 34 rings
6 7 8 18 19 20 21 rings

> <PUBCHEM_HEAVY_ATOM_COUNT>
37

> <PUBCHEM_ATOM_DEF_STEREO_COUNT>
4

> <PUBCHEM_ATOM_UDEF_STEREO_COUNT>
0

> <PUBCHEM_BOND_DEF_STEREO_COUNT>
0

> <PUBCHEM_BOND_UDEF_STEREO_COUNT>
0

> <PUBCHEM_ISOTOPIC_ATOM_COUNT>
0

> <PUBCHEM_COMPONENT_COUNT>
1

> <PUBCHEM_CACTVS_TAUTO_COUNT>
2

> <PUBCHEM_CONFORMER_ID>
02B425D900000001

> <PUBCHEM_MMFF94_ENERGY>
137.3245

> <PUBCHEM_FEATURE_SELFOVERLAP>
76.137

> <PUBCHEM_SHAPE_FINGERPRINT>
11513181 2 17987524701563931870
12156800 1 16228622872978340010
12422481 6 18335125484727529466
12788726 201 18339090388277302880
13402501 40 18408606976034503834
15001296 14 17902796593715888232
15183329 4 17458054984730494689
15264996 44 18129948867386292110
15968369 153 18130214974874512542
20511986 3 17968652847995673848
20721686 56 18409731733559777627
20764821 26 18266757795951585474
21344244 246 18412541012034246343
3298306 158 18411980282003494382
3383291 50 18272369827526933278
373842 8 18337673014799444538
4093350 32 17417543406275434279
5085150 59 18410569617786915762
513532 50 17561080294169097670
5265222 85 18119822549635073220
59755656 215 18412262847960057262
6287921 2 17913767211083570675

> <PUBCHEM_SHAPE_MULTIPOLES>
706.3
14.45
4.6
2
1.52
3.31
0.27
-6.6
-2.67
-1.92
-1.06
-1.13
0.61
0.81

> <PUBCHEM_SHAPE_SELFOVERLAP>
1499.109

> <PUBCHEM_SHAPE_VOLUME>
393.1

> <PUBCHEM_COORDINATE_TYPE>
2
5
10

$$$$
