75536919
  -OEChem-12032416413D

 58 61  0     1  0  0  0  0  0999 V2000
   -2.9027    3.0283   -0.0100 S   0  0  0  0  0  0  0  0  0  0  0  0
    5.4396    0.0218   -1.4182 O   0  0  0  0  0  0  0  0  0  0  0  0
    2.9313    2.1562    0.2214 O   0  0  0  0  0  0  0  0  0  0  0  0
   -3.4111    2.4870   -1.2630 O   0  0  0  0  0  0  0  0  0  0  0  0
   -3.4727    2.5832    1.2537 O   0  0  0  0  0  0  0  0  0  0  0  0
    3.5560   -1.4742    0.1627 N   0  0  1  0  0  0  0  0  0  0  0  0
    3.3517   -0.1455    0.7386 C   0  0  0  0  0  0  0  0  0  0  0  0
    3.4165    0.9385   -0.3453 C   0  0  2  0  0  0  0  0  0  0  0  0
    4.9620   -1.8758    0.0430 C   0  0  0  0  0  0  0  0  0  0  0  0
    4.8008    1.1972   -0.9345 C   0  0  0  0  0  0  0  0  0  0  0  0
    2.8040   -2.4958    0.8924 C   0  0  0  0  0  0  0  0  0  0  0  0
    5.9509   -0.7864   -0.3652 C   0  0  0  0  0  0  0  0  0  0  0  0
    1.3241   -2.3927    0.6359 C   0  0  0  0  0  0  0  0  0  0  0  0
    1.5798    2.3592    0.1681 C   0  0  0  0  0  0  0  0  0  0  0  0
    0.8329   -2.4968   -0.6656 C   0  0  0  0  0  0  0  0  0  0  0  0
    0.4440   -2.1927    1.6996 C   0  0  0  0  0  0  0  0  0  0  0  0
   -1.4182   -2.2007    0.1602 C   0  0  0  0  0  0  0  0  0  0  0  0
   -0.5381   -2.4007   -0.9034 C   0  0  0  0  0  0  0  0  0  0  0  0
   -0.9270   -2.0967    1.4617 C   0  0  0  0  0  0  0  0  0  0  0  0
    0.8510    2.5185    1.3467 C   0  0  0  0  0  0  0  0  0  0  0  0
    0.9300    2.4058   -1.0654 C   0  0  0  0  0  0  0  0  0  0  0  0
   -1.1772    2.7711    0.0586 C   0  0  0  0  0  0  0  0  0  0  0  0
   -0.5274    2.7244    1.2920 C   0  0  0  0  0  0  0  0  0  0  0  0
   -0.4484    2.6117   -1.1202 C   0  0  0  0  0  0  0  0  0  0  0  0
   -2.8403   -2.1019   -0.0863 C   0  0  0  0  0  0  0  0  0  0  0  0
   -3.4105   -2.7834   -1.1614 C   0  0  0  0  0  0  0  0  0  0  0  0
   -3.6411   -1.3252    0.7509 C   0  0  0  0  0  0  0  0  0  0  0  0
   -3.0832    4.7956   -0.0987 C   0  0  0  0  0  0  0  0  0  0  0  0
   -4.7818   -2.6884   -1.3993 C   0  0  0  0  0  0  0  0  0  0  0  0
   -5.0122   -1.2301    0.5131 C   0  0  0  0  0  0  0  0  0  0  0  0
   -5.5826   -1.9116   -0.5620 C   0  0  0  0  0  0  0  0  0  0  0  0
    4.0592    0.0640    1.5523 H   0  0  0  0  0  0  0  0  0  0  0  0
    2.3683   -0.0714    1.2163 H   0  0  0  0  0  0  0  0  0  0  0  0
    2.7784    0.6084   -1.1769 H   0  0  0  0  0  0  0  0  0  0  0  0
    5.0051   -2.6673   -0.7162 H   0  0  0  0  0  0  0  0  0  0  0  0
    5.3274   -2.3161    0.9803 H   0  0  0  0  0  0  0  0  0  0  0  0
    3.0268   -2.4519    1.9670 H   0  0  0  0  0  0  0  0  0  0  0  0
    3.1024   -3.5008    0.5621 H   0  0  0  0  0  0  0  0  0  0  0  0
    4.6947    1.8825   -1.7841 H   0  0  0  0  0  0  0  0  0  0  0  0
    5.4476    1.7243   -0.2211 H   0  0  0  0  0  0  0  0  0  0  0  0
    6.2534   -0.1781    0.4962 H   0  0  0  0  0  0  0  0  0  0  0  0
    6.8619   -1.2661   -0.7401 H   0  0  0  0  0  0  0  0  0  0  0  0
    1.5068   -2.6508   -1.5043 H   0  0  0  0  0  0  0  0  0  0  0  0
    0.8124   -2.1149    2.7190 H   0  0  0  0  0  0  0  0  0  0  0  0
   -0.8709   -2.4575   -1.9361 H   0  0  0  0  0  0  0  0  0  0  0  0
   -1.5759   -1.9706    2.3240 H   0  0  0  0  0  0  0  0  0  0  0  0
    1.3522    2.4831    2.3101 H   0  0  0  0  0  0  0  0  0  0  0  0
    1.4846    2.3046   -1.9943 H   0  0  0  0  0  0  0  0  0  0  0  0
   -1.0737    2.8520    2.2222 H   0  0  0  0  0  0  0  0  0  0  0  0
   -0.9329    2.6546   -2.0916 H   0  0  0  0  0  0  0  0  0  0  0  0
   -2.8326   -3.4243   -1.8215 H   0  0  0  0  0  0  0  0  0  0  0  0
   -3.2371   -0.7509    1.5801 H   0  0  0  0  0  0  0  0  0  0  0  0
   -4.1501    5.0255   -0.1398 H   0  0  0  0  0  0  0  0  0  0  0  0
   -2.6404    5.2429    0.7932 H   0  0  0  0  0  0  0  0  0  0  0  0
   -2.5890    5.1585   -1.0019 H   0  0  0  0  0  0  0  0  0  0  0  0
   -5.2275   -3.2241   -2.2324 H   0  0  0  0  0  0  0  0  0  0  0  0
   -5.6349   -0.6190    1.1600 H   0  0  0  0  0  0  0  0  0  0  0  0
   -6.6501   -1.8371   -0.7475 H   0  0  0  0  0  0  0  0  0  0  0  0
  1  4  2  0  0  0  0
  1  5  2  0  0  0  0
  1 22  1  0  0  0  0
  1 28  1  0  0  0  0
  2 10  1  0  0  0  0
  2 12  1  0  0  0  0
  3  8  1  0  0  0  0
  3 14  1  0  0  0  0
  6  7  1  0  0  0  0
  6  9  1  0  0  0  0
  6 11  1  0  0  0  0
  7  8  1  0  0  0  0
  7 32  1  0  0  0  0
  7 33  1  0  0  0  0
  8 10  1  0  0  0  0
  8 34  1  0  0  0  0
  9 12  1  0  0  0  0
  9 35  1  0  0  0  0
  9 36  1  0  0  0  0
 10 39  1  0  0  0  0
 10 40  1  0  0  0  0
 11 13  1  0  0  0  0
 11 37  1  0  0  0  0
 11 38  1  0  0  0  0
 12 41  1  0  0  0  0
 12 42  1  0  0  0  0
 13 15  2  0  0  0  0
 13 16  1  0  0  0  0
 14 20  2  0  0  0  0
 14 21  1  0  0  0  0
 15 18  1  0  0  0  0
 15 43  1  0  0  0  0
 16 19  2  0  0  0  0
 16 44  1  0  0  0  0
 17 18  2  0  0  0  0
 17 19  1  0  0  0  0
 17 25  1  0  0  0  0
 18 45  1  0  0  0  0
 19 46  1  0  0  0  0
 20 23  1  0  0  0  0
 20 47  1  0  0  0  0
 21 24  2  0  0  0  0
 21 48  1  0  0  0  0
 22 23  2  0  0  0  0
 22 24  1  0  0  0  0
 23 49  1  0  0  0  0
 24 50  1  0  0  0  0
 25 26  2  0  0  0  0
 25 27  1  0  0  0  0
 26 29  1  0  0  0  0
 26 51  1  0  0  0  0
 27 30  2  0  0  0  0
 27 52  1  0  0  0  0
 28 53  1  0  0  0  0
 28 54  1  0  0  0  0
 28 55  1  0  0  0  0
 29 31  2  0  0  0  0
 29 56  1  0  0  0  0
 30 31  1  0  0  0  0
 30 57  1  0  0  0  0
 31 58  1  0  0  0  0
M  END
> <PUBCHEM_COMPOUND_CID>
75536919

> <PUBCHEM_CONFORMER_RMSD>
1

> <PUBCHEM_CONFORMER_DIVERSEORDER>
4
8
129
122
91
81
34
22
92
25
119
38
46
37
64
10
44
45
20
29
16
111
103
72
104
48
55
60
125
130
108
121
1
41
73
23
93
51
113
53
90
105
65
110
77
94
68
117
138
98
140
147
135
28
3
109
36
40
102
2
101
87
32
95
114
134
18
14
67
118
145
88
107
141
54
100
85
9
144
124
70
59
128
132
30
136
133
56
50
97
13
75
143
49
58
35
39
96
52
142
126
26
112
6
76
80
137
139
21
79
82
7
146
116
33
63
61
120
131
31
12
69
42
15
74
5
106
71
123
43
89
127
84
86
115
19
47
57
24
66
27
17
11
78
99
62
83

> <PUBCHEM_MMFF94_PARTIAL_CHARGES>
42
1 1.2
10 0.28
11 0.41
12 0.28
13 -0.14
14 0.08
15 -0.15
16 -0.15
18 -0.15
19 -0.15
2 -0.56
20 -0.15
21 -0.15
22 -0.01
23 -0.15
24 -0.15
26 -0.15
27 -0.15
28 0.11
29 -0.15
3 -0.36
30 -0.15
31 -0.15
4 -0.65
43 0.15
44 0.15
45 0.15
46 0.15
47 0.15
48 0.15
49 0.15
5 -0.65
50 0.15
51 0.15
52 0.15
56 0.15
57 0.15
58 0.15
6 -0.81
7 0.27
8 0.28
9 0.27

> <PUBCHEM_EFFECTIVE_ROTOR_COUNT>
7.4

> <PUBCHEM_PHARMACOPHORE_FEATURES>
9
1 2 acceptor
1 3 acceptor
1 4 acceptor
1 5 acceptor
1 6 cation
6 13 15 16 17 18 19 rings
6 14 20 21 22 23 24 rings
6 25 26 27 29 30 31 rings
7 2 6 7 8 9 10 12 rings

> <PUBCHEM_HEAVY_ATOM_COUNT>
31

> <PUBCHEM_ATOM_DEF_STEREO_COUNT>
1

> <PUBCHEM_ATOM_UDEF_STEREO_COUNT>
0

> <PUBCHEM_BOND_DEF_STEREO_COUNT>
0

> <PUBCHEM_BOND_UDEF_STEREO_COUNT>
0

> <PUBCHEM_ISOTOPIC_ATOM_COUNT>
0

> <PUBCHEM_COMPONENT_COUNT>
1

> <PUBCHEM_CACTVS_TAUTO_COUNT>
1

> <PUBCHEM_CONFORMER_ID>
04809A1700000004

> <PUBCHEM_MMFF94_ENERGY>
99.848

> <PUBCHEM_FEATURE_SELFOVERLAP>
45.691

> <PUBCHEM_SHAPE_FINGERPRINT>
10190206 1 17756459267309071716
10670039 82 18409735058375843038
10675989 125 18119526797707035188
10871710 139 18336551530013311915
1100329 8 18048311142034220826
11513181 2 18271531892287527374
12107698 1 18411416233145529286
12156800 1 18120905405094235000
12422481 6 18267048110287503177
12788726 201 18335137643811502048
14117953 113 17112120842393424701
14681490 219 18339076111404720295
14931854 50 18334860549785946558
15210252 30 17824823584308191084
15274700 232 17044024789384838398
15297060 5 17771341976658639723
15968369 153 18200290200744620389
161222 619 17329732929037932201
17093844 170 18048308135520593248
17138139 8 18055325020923161613
20737093 15 17688560812458821757
20764821 26 18336257929984910097
21133410 90 17418078902175596529
221357 26 18411133679615069030
3014063 31 18338231669146824526
3052486 1 18262224544096688114
338550 245 18261403225526619004
38695281 34 17832707872589856473
463206 1 18194120948427956275
469060 322 17168147793205976214
5171179 24 18201430432841396064
6287921 2 17048517406130297152
653340 110 18341321258346044120

> <PUBCHEM_SHAPE_MULTIPOLES>
613.36
11.04
5.92
1.39
4.08
4.85
0.11
-5.1
-3.12
-5.25
-0.01
-0.23
-0.14
-1.22

> <PUBCHEM_SHAPE_SELFOVERLAP>
1305.817

> <PUBCHEM_SHAPE_VOLUME>
341.9

> <PUBCHEM_COORDINATE_TYPE>
2
5
10

$$$$
