44716346
  -OEChem-12032416163D

 66 70  0     1  0  0  0  0  0999 V2000
    3.6621    2.9301    0.4180 O   0  0  0  0  0  0  0  0  0  0  0  0
   -3.9770   -0.3737    0.8118 N   0  0  2  0  0  0  0  0  0  0  0  0
   -0.1150   -3.1556    0.7921 N   0  0  0  0  0  0  0  0  0  0  0  0
   -2.6042    2.8625   -0.5731 N   0  0  0  0  0  0  0  0  0  0  0  0
    1.2229   -3.1233    0.6687 N   0  0  0  0  0  0  0  0  0  0  0  0
   -2.9446   -1.5429   -1.2739 C   0  0  2  0  0  0  0  0  0  0  0  0
   -2.2746   -2.0626    0.0282 C   0  0  2  0  0  0  0  0  0  0  0  0
   -3.5891    0.6432   -0.2010 C   0  0  2  0  0  0  0  0  0  0  0  0
   -2.7904   -0.0093   -1.3498 C   0  0  0  0  0  0  0  0  0  0  0  0
   -2.7939   -1.1815    1.2001 C   0  0  0  0  0  0  0  0  0  0  0  0
   -4.4540   -1.8414   -1.1475 C   0  0  0  0  0  0  0  0  0  0  0  0
   -4.9714   -1.2795    0.1883 C   0  0  0  0  0  0  0  0  0  0  0  0
   -0.7602   -2.2133    0.0463 C   0  0  0  0  0  0  0  0  0  0  0  0
   -2.8375    1.8242    0.4171 C   0  0  0  0  0  0  0  0  0  0  0  0
    0.2241   -1.5158   -0.6104 C   0  0  0  0  0  0  0  0  0  0  0  0
    2.8328   -1.7536   -0.5999 C   0  0  0  0  0  0  0  0  0  0  0  0
    1.4240   -2.1196   -0.1894 C   0  0  0  0  0  0  0  0  0  0  0  0
    3.7007   -1.3186    0.5945 C   0  0  0  0  0  0  0  0  0  0  0  0
    3.6136   -2.8907   -1.2908 C   0  0  0  0  0  0  0  0  0  0  0  0
    5.0918   -1.8433    0.2730 C   0  0  0  0  0  0  0  0  0  0  0  0
    4.8090   -3.1797   -0.3901 C   0  0  0  0  0  0  0  0  0  0  0  0
   -0.7194   -4.1369    1.6630 C   0  0  0  0  0  0  0  0  0  0  0  0
   -1.8794    3.9862    0.0073 C   0  0  0  0  0  0  0  0  0  0  0  0
   -0.4043    3.7055    0.1170 C   0  0  0  0  0  0  0  0  0  0  0  0
    0.2242    3.7508    1.3615 C   0  0  0  0  0  0  0  0  0  0  0  0
    0.3338    3.3996   -1.0264 C   0  0  0  0  0  0  0  0  0  0  0  0
    1.5907    3.4906    1.4626 C   0  0  0  0  0  0  0  0  0  0  0  0
    1.7005    3.1394   -0.9253 C   0  0  0  0  0  0  0  0  0  0  0  0
    2.3288    3.1848    0.3191 C   0  0  0  0  0  0  0  0  0  0  0  0
    4.3559    2.6242   -0.7909 C   0  0  0  0  0  0  0  0  0  0  0  0
   -2.5235   -2.0225   -2.1638 H   0  0  0  0  0  0  0  0  0  0  0  0
   -2.6774   -3.0757    0.1769 H   0  0  0  0  0  0  0  0  0  0  0  0
   -4.5192    1.0561   -0.6201 H   0  0  0  0  0  0  0  0  0  0  0  0
   -1.7400    0.2839   -1.3228 H   0  0  0  0  0  0  0  0  0  0  0  0
   -3.1876    0.3454   -2.3096 H   0  0  0  0  0  0  0  0  0  0  0  0
   -2.0039   -0.5370    1.6020 H   0  0  0  0  0  0  0  0  0  0  0  0
   -3.0737   -1.8316    2.0397 H   0  0  0  0  0  0  0  0  0  0  0  0
   -4.6364   -2.9214   -1.1928 H   0  0  0  0  0  0  0  0  0  0  0  0
   -4.9955   -1.3856   -1.9853 H   0  0  0  0  0  0  0  0  0  0  0  0
   -5.9160   -0.7456    0.0271 H   0  0  0  0  0  0  0  0  0  0  0  0
   -5.2116   -2.0988    0.8779 H   0  0  0  0  0  0  0  0  0  0  0  0
   -3.4306    2.2282    1.2479 H   0  0  0  0  0  0  0  0  0  0  0  0
   -1.8834    1.4832    0.8331 H   0  0  0  0  0  0  0  0  0  0  0  0
    0.1181   -0.6969   -1.3039 H   0  0  0  0  0  0  0  0  0  0  0  0
    2.7690   -0.9142   -1.3064 H   0  0  0  0  0  0  0  0  0  0  0  0
   -3.5036    3.1924   -0.9235 H   0  0  0  0  0  0  0  0  0  0  0  0
    3.6973   -0.2313    0.7240 H   0  0  0  0  0  0  0  0  0  0  0  0
    3.3544   -1.7575    1.5380 H   0  0  0  0  0  0  0  0  0  0  0  0
    3.0187   -3.7919   -1.4717 H   0  0  0  0  0  0  0  0  0  0  0  0
    3.9729   -2.5383   -2.2659 H   0  0  0  0  0  0  0  0  0  0  0  0
    5.5995   -1.1692   -0.4270 H   0  0  0  0  0  0  0  0  0  0  0  0
    5.7144   -1.9441    1.1664 H   0  0  0  0  0  0  0  0  0  0  0  0
    5.6686   -3.5582   -0.9506 H   0  0  0  0  0  0  0  0  0  0  0  0
    4.5374   -3.9265    0.3654 H   0  0  0  0  0  0  0  0  0  0  0  0
   -1.3650   -3.6233    2.3786 H   0  0  0  0  0  0  0  0  0  0  0  0
    0.0642   -4.6757    2.2028 H   0  0  0  0  0  0  0  0  0  0  0  0
   -1.2919   -4.8370    1.0499 H   0  0  0  0  0  0  0  0  0  0  0  0
   -1.9959    4.8550   -0.6535 H   0  0  0  0  0  0  0  0  0  0  0  0
   -2.3113    4.2886    0.9697 H   0  0  0  0  0  0  0  0  0  0  0  0
   -0.3388    3.9862    2.2606 H   0  0  0  0  0  0  0  0  0  0  0  0
   -0.1416    3.3652   -2.0032 H   0  0  0  0  0  0  0  0  0  0  0  0
    2.0748    3.5265    2.4347 H   0  0  0  0  0  0  0  0  0  0  0  0
    2.2133    2.9088   -1.8528 H   0  0  0  0  0  0  0  0  0  0  0  0
    3.9817    1.7017   -1.2476 H   0  0  0  0  0  0  0  0  0  0  0  0
    4.3406    3.4687   -1.4882 H   0  0  0  0  0  0  0  0  0  0  0  0
    5.4034    2.4465   -0.5260 H   0  0  0  0  0  0  0  0  0  0  0  0
  1 29  1  0  0  0  0
  1 30  1  0  0  0  0
  2  8  1  0  0  0  0
  2 10  1  0  0  0  0
  2 12  1  0  0  0  0
  3  5  1  0  0  0  0
  3 13  1  0  0  0  0
  3 22  1  0  0  0  0
  4 14  1  0  0  0  0
  4 23  1  0  0  0  0
  4 46  1  0  0  0  0
  5 17  2  0  0  0  0
  6  7  1  0  0  0  0
  6  9  1  0  0  0  0
  6 11  1  0  0  0  0
  6 31  1  0  0  0  0
  7 10  1  0  0  0  0
  7 13  1  0  0  0  0
  7 32  1  0  0  0  0
  8  9  1  0  0  0  0
  8 14  1  0  0  0  0
  8 33  1  0  0  0  0
  9 34  1  0  0  0  0
  9 35  1  0  0  0  0
 10 36  1  0  0  0  0
 10 37  1  0  0  0  0
 11 12  1  0  0  0  0
 11 38  1  0  0  0  0
 11 39  1  0  0  0  0
 12 40  1  0  0  0  0
 12 41  1  0  0  0  0
 13 15  2  0  0  0  0
 14 42  1  0  0  0  0
 14 43  1  0  0  0  0
 15 17  1  0  0  0  0
 15 44  1  0  0  0  0
 16 17  1  0  0  0  0
 16 18  1  0  0  0  0
 16 19  1  0  0  0  0
 16 45  1  0  0  0  0
 18 20  1  0  0  0  0
 18 47  1  0  0  0  0
 18 48  1  0  0  0  0
 19 21  1  0  0  0  0
 19 49  1  0  0  0  0
 19 50  1  0  0  0  0
 20 21  1  0  0  0  0
 20 51  1  0  0  0  0
 20 52  1  0  0  0  0
 21 53  1  0  0  0  0
 21 54  1  0  0  0  0
 22 55  1  0  0  0  0
 22 56  1  0  0  0  0
 22 57  1  0  0  0  0
 23 24  1  0  0  0  0
 23 58  1  0  0  0  0
 23 59  1  0  0  0  0
 24 25  2  0  0  0  0
 24 26  1  0  0  0  0
 25 27  1  0  0  0  0
 25 60  1  0  0  0  0
 26 28  2  0  0  0  0
 26 61  1  0  0  0  0
 27 29  2  0  0  0  0
 27 62  1  0  0  0  0
 28 29  1  0  0  0  0
 28 63  1  0  0  0  0
 30 64  1  0  0  0  0
 30 65  1  0  0  0  0
 30 66  1  0  0  0  0
M  END
> <PUBCHEM_COMPOUND_CID>
44716346

> <PUBCHEM_CONFORMER_RMSD>
1

> <PUBCHEM_CONFORMER_DIVERSEORDER>
2
38
7
19
50
11
21
61
6
60
18
3
36
48
59
31
32
34
53
24
9
47
42
39
16
62
28
46
30
4
26
55
15
33
43
25
29
51
56
35
8
37
13
23
10
5
17
1
40
20
58
57
45
49
14
44
41
12
22
52
54
27

> <PUBCHEM_MMFF94_PARTIAL_CHARGES>
29
1 -0.36
10 0.27
12 0.27
13 -0.33
14 0.27
15 -0.15
16 0.18
17 0.11
2 -0.81
22 0.26
23 0.41
24 -0.14
25 -0.15
26 -0.15
27 -0.15
28 -0.15
29 0.08
3 0.31
30 0.28
4 -0.9
44 0.15
46 0.36
5 -0.71
60 0.15
61 0.15
62 0.15
63 0.15
7 0.18
8 0.27

> <PUBCHEM_EFFECTIVE_ROTOR_COUNT>
9.2

> <PUBCHEM_PHARMACOPHORE_FEATURES>
9
1 1 acceptor
1 2 cation
1 4 cation
1 4 donor
1 5 acceptor
5 16 18 19 20 21 rings
5 3 5 13 15 17 rings
6 24 25 26 27 28 29 rings
8 2 6 7 8 9 10 11 12 rings

> <PUBCHEM_HEAVY_ATOM_COUNT>
30

> <PUBCHEM_ATOM_DEF_STEREO_COUNT>
3

> <PUBCHEM_ATOM_UDEF_STEREO_COUNT>
0

> <PUBCHEM_BOND_DEF_STEREO_COUNT>
0

> <PUBCHEM_BOND_UDEF_STEREO_COUNT>
0

> <PUBCHEM_ISOTOPIC_ATOM_COUNT>
0

> <PUBCHEM_COMPONENT_COUNT>
1

> <PUBCHEM_CACTVS_TAUTO_COUNT>
1

> <PUBCHEM_CONFORMER_ID>
02AA513A00000002

> <PUBCHEM_MMFF94_ENERGY>
73.5038

> <PUBCHEM_FEATURE_SELFOVERLAP>
45.672

> <PUBCHEM_SHAPE_FINGERPRINT>
1100329 8 18195812864320298324
11513181 2 18272933812978716086
12156800 1 16155923073486167869
12788726 201 18265343815783344910
13122387 1 18411136930989643012
13140716 1 18338242565753628801
13402501 40 18051979409050994812
14466204 15 18192143798883128546
14647877 51 18341327813067290360
150020 26 17904769134729601032
15351339 4 18408886235625975216
17627616 140 18336271240426534380
17818456 19 17399225357520463570
17977149 70 17765154973838531890
19930381 70 18194398020936477355
20721686 56 18336827597594359986
20764821 26 18337954489369986288
21033650 10 17906484068011533366
21344244 246 18052521456131920335
21860390 5 18271529805471153782
238918 7 18127963321058333248
3027735 51 18268141140889223957
3298306 158 18048865592547953045
373842 8 18337383946615557672
469060 322 17609525750913903113
5047190 69 18124301724374054194
532947 4 18265607857540015943
9981440 41 17476908520901779051

> <PUBCHEM_SHAPE_MULTIPOLES>
591.59
9.07
7.35
1.32
2.71
4.97
0.1
-5.08
-1.39
3.98
1.27
-0.23
-0.16
0.38

> <PUBCHEM_SHAPE_SELFOVERLAP>
1262.241

> <PUBCHEM_SHAPE_VOLUME>
329.1

> <PUBCHEM_COORDINATE_TYPE>
2
5
10

$$$$
