11883407
  -OEChem-12032416193D

 55 58  0     1  0  0  0  0  0999 V2000
    8.8770    0.4817    0.0619 F   0  0  0  0  0  0  0  0  0  0  0  0
    9.2103   -1.5125    0.8469 F   0  0  0  0  0  0  0  0  0  0  0  0
    8.2084   -0.0194    2.0696 F   0  0  0  0  0  0  0  0  0  0  0  0
   -0.3975    1.9299    0.9881 O   0  0  0  0  0  0  0  0  0  0  0  0
   -1.6075    2.7635   -1.7036 O   0  0  0  0  0  0  0  0  0  0  0  0
    1.6259    1.4746   -0.8571 O   0  0  0  0  0  0  0  0  0  0  0  0
   -5.4958    1.8832    0.1038 O   0  0  0  0  0  0  0  0  0  0  0  0
    1.8632   -0.7504   -1.3294 O   0  0  0  0  0  0  0  0  0  0  0  0
   -3.4755    1.3954    1.1398 N   0  0  0  0  0  0  0  0  0  0  0  0
   -5.3716    0.2318    1.7290 N   0  0  0  0  0  0  0  0  0  0  0  0
    3.6260    0.5146   -0.4506 N   0  0  0  0  0  0  0  0  0  0  0  0
   -1.9875    1.7393   -0.7609 C   0  0  1  0  0  0  0  0  0  0  0  0
   -0.7043    1.1683   -0.1917 C   0  0  1  0  0  0  0  0  0  0  0  0
   -2.6690    2.3619    0.4353 C   0  0  2  0  0  0  0  0  0  0  0  0
    0.2882    1.4283   -1.2994 C   0  0  1  0  0  0  0  0  0  0  0  0
   -1.4894    2.8165    1.2775 C   0  0  0  0  0  0  0  0  0  0  0  0
   -0.1789    2.7609   -1.8400 C   0  0  0  0  0  0  0  0  0  0  0  0
   -4.8415    1.2306    0.9160 C   0  0  0  0  0  0  0  0  0  0  0  0
    2.3436    0.2979   -0.9162 C   0  0  0  0  0  0  0  0  0  0  0  0
   -6.7658   -0.1432    1.6997 C   0  0  0  0  0  0  0  0  0  0  0  0
    4.6816   -0.4190   -0.3413 C   0  0  0  0  0  0  0  0  0  0  0  0
   -7.0329   -1.2356    0.7050 C   0  0  0  0  0  0  0  0  0  0  0  0
    5.9208   -0.0157    0.1564 C   0  0  0  0  0  0  0  0  0  0  0  0
    4.4842   -1.7437   -0.7309 C   0  0  0  0  0  0  0  0  0  0  0  0
   -7.3615   -0.9145   -0.6121 C   0  0  0  0  0  0  0  0  0  0  0  0
   -6.9522   -2.5717    1.0976 C   0  0  0  0  0  0  0  0  0  0  0  0
    6.9624   -0.9374    0.2646 C   0  0  0  0  0  0  0  0  0  0  0  0
    5.5259   -2.6652   -0.6228 C   0  0  0  0  0  0  0  0  0  0  0  0
    6.7649   -2.2621   -0.1252 C   0  0  0  0  0  0  0  0  0  0  0  0
   -7.6095   -1.9292   -1.5365 C   0  0  0  0  0  0  0  0  0  0  0  0
   -7.2001   -3.5865    0.1732 C   0  0  0  0  0  0  0  0  0  0  0  0
    8.2870   -0.5069    0.7971 C   0  0  0  0  0  0  0  0  0  0  0  0
   -7.5288   -3.2652   -1.1438 C   0  0  0  0  0  0  0  0  0  0  0  0
   -2.5902    1.0003   -1.2983 H   0  0  0  0  0  0  0  0  0  0  0  0
   -0.7728    0.1163    0.1002 H   0  0  0  0  0  0  0  0  0  0  0  0
   -3.3001    3.2157    0.1661 H   0  0  0  0  0  0  0  0  0  0  0  0
    0.1470    0.6861   -2.0972 H   0  0  0  0  0  0  0  0  0  0  0  0
   -1.6859    2.8106    2.3540 H   0  0  0  0  0  0  0  0  0  0  0  0
   -1.1702    3.8247    0.9913 H   0  0  0  0  0  0  0  0  0  0  0  0
    0.2320    3.6060   -1.2763 H   0  0  0  0  0  0  0  0  0  0  0  0
    0.0898    2.9009   -2.8915 H   0  0  0  0  0  0  0  0  0  0  0  0
   -3.0160    0.7602    1.7855 H   0  0  0  0  0  0  0  0  0  0  0  0
   -4.7494   -0.2702    2.3550 H   0  0  0  0  0  0  0  0  0  0  0  0
    3.8404    1.4617   -0.1483 H   0  0  0  0  0  0  0  0  0  0  0  0
   -7.0402   -0.4678    2.7098 H   0  0  0  0  0  0  0  0  0  0  0  0
   -7.3776    0.7379    1.4724 H   0  0  0  0  0  0  0  0  0  0  0  0
    6.0786    1.0164    0.4613 H   0  0  0  0  0  0  0  0  0  0  0  0
    3.5538   -2.1286   -1.1247 H   0  0  0  0  0  0  0  0  0  0  0  0
   -7.4317    0.1215   -0.9318 H   0  0  0  0  0  0  0  0  0  0  0  0
   -6.6953   -2.8349    2.1203 H   0  0  0  0  0  0  0  0  0  0  0  0
    5.3731   -3.6970   -0.9259 H   0  0  0  0  0  0  0  0  0  0  0  0
    7.5637   -2.9945   -0.0485 H   0  0  0  0  0  0  0  0  0  0  0  0
   -7.8661   -1.6792   -2.5617 H   0  0  0  0  0  0  0  0  0  0  0  0
   -7.1368   -4.6268    0.4786 H   0  0  0  0  0  0  0  0  0  0  0  0
   -7.7218   -4.0553   -1.8635 H   0  0  0  0  0  0  0  0  0  0  0  0
  1 32  1  0  0  0  0
  2 32  1  0  0  0  0
  3 32  1  0  0  0  0
  4 13  1  0  0  0  0
  4 16  1  0  0  0  0
  5 12  1  0  0  0  0
  5 17  1  0  0  0  0
  6 15  1  0  0  0  0
  6 19  1  0  0  0  0
  7 18  2  0  0  0  0
  8 19  2  0  0  0  0
  9 14  1  0  0  0  0
  9 18  1  0  0  0  0
  9 42  1  0  0  0  0
 10 18  1  0  0  0  0
 10 20  1  0  0  0  0
 10 43  1  0  0  0  0
 11 19  1  0  0  0  0
 11 21  1  0  0  0  0
 11 44  1  0  0  0  0
 12 13  1  0  0  0  0
 12 14  1  0  0  0  0
 12 34  1  0  0  0  0
 13 15  1  0  0  0  0
 13 35  1  0  0  0  0
 14 16  1  0  0  0  0
 14 36  1  0  0  0  0
 15 17  1  0  0  0  0
 15 37  1  0  0  0  0
 16 38  1  0  0  0  0
 16 39  1  0  0  0  0
 17 40  1  0  0  0  0
 17 41  1  0  0  0  0
 20 22  1  0  0  0  0
 20 45  1  0  0  0  0
 20 46  1  0  0  0  0
 21 23  1  0  0  0  0
 21 24  2  0  0  0  0
 22 25  2  0  0  0  0
 22 26  1  0  0  0  0
 23 27  2  0  0  0  0
 23 47  1  0  0  0  0
 24 28  1  0  0  0  0
 24 48  1  0  0  0  0
 25 30  1  0  0  0  0
 25 49  1  0  0  0  0
 26 31  2  0  0  0  0
 26 50  1  0  0  0  0
 27 29  1  0  0  0  0
 27 32  1  0  0  0  0
 28 29  2  0  0  0  0
 28 51  1  0  0  0  0
 29 52  1  0  0  0  0
 30 33  2  0  0  0  0
 30 53  1  0  0  0  0
 31 33  1  0  0  0  0
 31 54  1  0  0  0  0
 33 55  1  0  0  0  0
M  END
> <PUBCHEM_COMPOUND_CID>
11883407

> <PUBCHEM_CONFORMER_RMSD>
1.4

> <PUBCHEM_CONFORMER_DIVERSEORDER>
1
36
43
116
34
69
27
125
72
109
82
54
95
123
92
102
89
47
83
113
74
91
23
73
60
110
117
29
28
68
9
55
57
94
25
48
108
93
14
126
65
118
76
88
96
19
37
66
79
2
81
24
41
112
80
120
115
49
85
124
38
39
4
51
53
58
16
11
33
70
18
111
50
56
104
71
3
101
98
86
122
30
119
44
40
17
105
62
35
121
63
64
100
26
59
107
52
21
13
75
31
114
7
84
15
103
99
5
22
67
97
87
20
45
106
6
77
10
42
46
32
78
61
12
90
8

> <PUBCHEM_MMFF94_PARTIAL_CHARGES>
45
1 -0.34
10 -0.73
11 -0.55
12 0.28
13 0.28
14 0.3
15 0.28
16 0.28
17 0.28
18 0.69
19 0.78
2 -0.34
20 0.44
21 0.12
22 -0.14
23 -0.15
24 -0.15
25 -0.15
26 -0.15
27 -0.14
28 -0.15
29 -0.15
3 -0.34
30 -0.15
31 -0.15
32 1.16
33 -0.15
4 -0.56
42 0.37
43 0.37
44 0.37
47 0.15
48 0.15
49 0.15
5 -0.56
50 0.15
51 0.15
52 0.15
53 0.15
54 0.15
55 0.15
6 -0.43
7 -0.57
8 -0.57
9 -0.73

> <PUBCHEM_EFFECTIVE_ROTOR_COUNT>
11.2

> <PUBCHEM_PHARMACOPHORE_FEATURES>
11
1 10 donor
1 11 donor
1 4 acceptor
1 5 acceptor
1 7 acceptor
1 8 acceptor
1 9 donor
5 4 12 13 14 16 rings
5 5 12 13 15 17 rings
6 21 23 24 27 28 29 rings
6 22 25 26 30 31 33 rings

> <PUBCHEM_HEAVY_ATOM_COUNT>
33

> <PUBCHEM_ATOM_DEF_STEREO_COUNT>
4

> <PUBCHEM_ATOM_UDEF_STEREO_COUNT>
0

> <PUBCHEM_BOND_DEF_STEREO_COUNT>
0

> <PUBCHEM_BOND_UDEF_STEREO_COUNT>
0

> <PUBCHEM_ISOTOPIC_ATOM_COUNT>
0

> <PUBCHEM_COMPONENT_COUNT>
1

> <PUBCHEM_CACTVS_TAUTO_COUNT>
6

> <PUBCHEM_CONFORMER_ID>
00B5538F00000001

> <PUBCHEM_MMFF94_ENERGY>
79.2948

> <PUBCHEM_FEATURE_SELFOVERLAP>
56.59

> <PUBCHEM_SHAPE_FINGERPRINT>
10100884 174 18409448128348341163
10190206 1 12901536923983162183
10391435 84 18339920425076938383
10674148 151 8502371105884248902
10917259 69 8214157247776298726
11103572 95 18127981819477098383
11135926 11 16443351940506188081
11273773 118 10953744383455657741
11410812 94 15647322022880881238
11497681 19 18409456877485990116
11621639 183 15696616372582336449
11973864 118 17910953866325555463
12013929 27 17896605188528435703
12013929 29 10735289049425816866
12120059 9 18188756250691508926
12218070 45 18131073753591051855
12522641 126 18263367060784573788
12539747 91 15791727546973225524
13512321 179 12679172860950686306
1361 4 18341334375271397058
13782708 43 18409733936920029665
14168556 18 18344144804438125346
14400156 413 13695885748654964270
14918687 75 18334858325747189070
15064981 113 13479135666320592362
15183329 4 11819279962030460236
15350500 16 17967248710693924899
15357212 105 14188423015749933674
15519825 34 18342455950029472474
15728490 51 18341895194931140950
16992727 255 8142085364276506559
190975 80 18411420601243021288
19303781 99 18188215420326213755
19304152 47 13038919807121511547
20105231 36 17988933233096681654
21130935 74 18197501727867038098
21424621 283 10303814268046614637
21585482 111 10591779657802064531
21585483 132 18334570291918347587
22864921 47 17676760981900635594
23389318 12 17895202129785496852
23559900 14 14852761096489600604
24983565 74 18045495322979748026
25025965 108 17605546653278556578
2747138 104 17346328072061418536
3383291 50 18260835907781778115
3633792 109 12757146858185179480
3711267 37 12103841272101756002
397830 11 17917435276600462860
3986486 107 8718825401850865314
4173938 188 18411694397271875178
42767 23 17240474840934597203
4516262 110 10951782829068469873
508180 173 11530773616939167319
5718773 13 18410577310126057739
57303763 176 7925372722775904262
57634706 229 11815894578761296005
5937810 71 8358258151086106039
59682541 35 17989201547617973808
6201320 221 15647876147409485794
6691757 9 15267330826102761197
6703917 75 11671769490780911629
6712543 237 17631466596384206903
9511036 111 18341047518880045335
96874 4 18341053012612409983
9689198 14 10015868691191864709
9953998 17 17775574113832627587
9962374 69 18186524319781618164

> <PUBCHEM_SHAPE_MULTIPOLES>
613.01
30.61
3.86
1.62
23.22
0.84
-0.04
30.21
-8.34
-6.06
0.76
-1.25
-0.46
-1.27

> <PUBCHEM_SHAPE_SELFOVERLAP>
1322.462

> <PUBCHEM_SHAPE_VOLUME>
337.1

> <PUBCHEM_COORDINATE_TYPE>
2
5
10

$$$$
