26743034
  -OEChem-12032416183D

 65 68  0     1  0  0  0  0  0999 V2000
   -0.5639   -3.3887   -0.9167 O   0  0  0  0  0  0  0  0  0  0  0  0
    4.9219    2.4853   -0.5226 O   0  0  0  0  0  0  0  0  0  0  0  0
   -5.4169    3.3858    0.3965 O   0  0  0  0  0  0  0  0  0  0  0  0
   -7.4791    1.5243    0.3786 O   0  0  0  0  0  0  0  0  0  0  0  0
    7.8684    2.2616   -1.0807 O   0  0  0  0  0  0  0  0  0  0  0  0
    4.0042   -3.0882    1.4797 N   0  0  0  0  0  0  0  0  0  0  0  0
   -1.9463   -1.5169   -0.9266 N   0  0  0  0  0  0  0  0  0  0  0  0
    3.7468    1.7614   -0.3606 N   0  0  0  0  0  0  0  0  0  0  0  0
    1.6535   -2.2161   -0.0332 C   0  0  1  0  0  0  0  0  0  0  0  0
    2.9827   -1.4240   -0.0717 C   0  0  2  0  0  0  0  0  0  0  0  0
    1.5369   -3.0338    1.2619 C   0  0  0  0  0  0  0  0  0  0  0  0
    4.1565   -2.3811    0.2068 C   0  0  0  0  0  0  0  0  0  0  0  0
    0.4183   -1.3400   -0.2363 C   0  0  0  0  0  0  0  0  0  0  0  0
    2.7810   -3.8899    1.4961 C   0  0  0  0  0  0  0  0  0  0  0  0
    3.0186   -0.2261    0.8868 C   0  0  0  0  0  0  0  0  0  0  0  0
   -0.7343   -2.1821   -0.7259 C   0  0  0  0  0  0  0  0  0  0  0  0
    4.0641    0.7706    0.4777 C   0  0  0  0  0  0  0  0  0  0  0  0
   -3.0623   -2.2246   -1.5531 C   0  0  0  0  0  0  0  0  0  0  0  0
   -2.1418   -0.0780   -0.6969 C   0  0  0  0  0  0  0  0  0  0  0  0
   -4.3323   -2.0620   -0.7273 C   0  0  0  0  0  0  0  0  0  0  0  0
   -3.5703    0.3259   -0.4224 C   0  0  0  0  0  0  0  0  0  0  0  0
   -4.6184   -0.6105   -0.4497 C   0  0  0  0  0  0  0  0  0  0  0  0
    5.4119    0.8178    0.8740 C   0  0  0  0  0  0  0  0  0  0  0  0
   -3.8570    1.6697   -0.1417 C   0  0  0  0  0  0  0  0  0  0  0  0
   -5.9271   -0.1962   -0.1672 C   0  0  0  0  0  0  0  0  0  0  0  0
    5.9061    1.9138    0.2174 C   0  0  0  0  0  0  0  0  0  0  0  0
   -5.1648    2.0751    0.1241 C   0  0  0  0  0  0  0  0  0  0  0  0
   -6.1986    1.1422    0.1140 C   0  0  0  0  0  0  0  0  0  0  0  0
    7.2246    2.5563    0.1620 C   0  0  0  0  0  0  0  0  0  0  0  0
   -5.3491    3.7880    1.7633 C   0  0  0  0  0  0  0  0  0  0  0  0
   -8.4782    0.5067    0.3482 C   0  0  0  0  0  0  0  0  0  0  0  0
    9.1451    2.8738   -1.1545 C   0  0  0  0  0  0  0  0  0  0  0  0
    1.7271   -2.9322   -0.8651 H   0  0  0  0  0  0  0  0  0  0  0  0
    3.1004   -1.0504   -1.0992 H   0  0  0  0  0  0  0  0  0  0  0  0
    0.6608   -3.6905    1.2415 H   0  0  0  0  0  0  0  0  0  0  0  0
    1.3983   -2.3606    2.1180 H   0  0  0  0  0  0  0  0  0  0  0  0
    4.2302   -3.1168   -0.6049 H   0  0  0  0  0  0  0  0  0  0  0  0
    5.1143   -1.8536    0.2059 H   0  0  0  0  0  0  0  0  0  0  0  0
    0.6158   -0.5700   -0.9907 H   0  0  0  0  0  0  0  0  0  0  0  0
    0.1409   -0.8608    0.7075 H   0  0  0  0  0  0  0  0  0  0  0  0
    2.7003   -4.3928    2.4661 H   0  0  0  0  0  0  0  0  0  0  0  0
    2.8450   -4.6810    0.7392 H   0  0  0  0  0  0  0  0  0  0  0  0
    3.1846   -0.5246    1.9271 H   0  0  0  0  0  0  0  0  0  0  0  0
    2.0587    0.3026    0.8867 H   0  0  0  0  0  0  0  0  0  0  0  0
    3.9856   -2.4224    2.2499 H   0  0  0  0  0  0  0  0  0  0  0  0
   -2.8331   -3.2881   -1.6755 H   0  0  0  0  0  0  0  0  0  0  0  0
   -3.1906   -1.8010   -2.5572 H   0  0  0  0  0  0  0  0  0  0  0  0
   -1.7932    0.4307   -1.6037 H   0  0  0  0  0  0  0  0  0  0  0  0
   -1.5238    0.2535    0.1410 H   0  0  0  0  0  0  0  0  0  0  0  0
   -4.2243   -2.5811    0.2330 H   0  0  0  0  0  0  0  0  0  0  0  0
   -5.1685   -2.5197   -1.2685 H   0  0  0  0  0  0  0  0  0  0  0  0
    5.9466    0.1576    1.5408 H   0  0  0  0  0  0  0  0  0  0  0  0
   -3.0532    2.4025   -0.1277 H   0  0  0  0  0  0  0  0  0  0  0  0
   -6.6897   -0.9681   -0.1836 H   0  0  0  0  0  0  0  0  0  0  0  0
    7.1130    3.6423    0.2652 H   0  0  0  0  0  0  0  0  0  0  0  0
    7.8512    2.1967    0.9868 H   0  0  0  0  0  0  0  0  0  0  0  0
   -5.5824    4.8549    1.8184 H   0  0  0  0  0  0  0  0  0  0  0  0
   -4.3414    3.6289    2.1602 H   0  0  0  0  0  0  0  0  0  0  0  0
   -6.0809    3.2383    2.3639 H   0  0  0  0  0  0  0  0  0  0  0  0
   -9.4344    0.9879    0.5791 H   0  0  0  0  0  0  0  0  0  0  0  0
   -8.3087   -0.2490    1.1228 H   0  0  0  0  0  0  0  0  0  0  0  0
   -8.5775    0.0675   -0.6503 H   0  0  0  0  0  0  0  0  0  0  0  0
    9.5941    2.6203   -2.1187 H   0  0  0  0  0  0  0  0  0  0  0  0
    9.7977    2.5013   -0.3588 H   0  0  0  0  0  0  0  0  0  0  0  0
    9.0550    3.9624   -1.0888 H   0  0  0  0  0  0  0  0  0  0  0  0
  1 16  2  0  0  0  0
  2  8  1  0  0  0  0
  2 26  1  0  0  0  0
  3 27  1  0  0  0  0
  3 30  1  0  0  0  0
  4 28  1  0  0  0  0
  4 31  1  0  0  0  0
  5 29  1  0  0  0  0
  5 32  1  0  0  0  0
  6 12  1  0  0  0  0
  6 14  1  0  0  0  0
  6 45  1  0  0  0  0
  7 16  1  0  0  0  0
  7 18  1  0  0  0  0
  7 19  1  0  0  0  0
  8 17  2  0  0  0  0
  9 10  1  0  0  0  0
  9 11  1  0  0  0  0
  9 13  1  0  0  0  0
  9 33  1  0  0  0  0
 10 12  1  0  0  0  0
 10 15  1  0  0  0  0
 10 34  1  0  0  0  0
 11 14  1  0  0  0  0
 11 35  1  0  0  0  0
 11 36  1  0  0  0  0
 12 37  1  0  0  0  0
 12 38  1  0  0  0  0
 13 16  1  0  0  0  0
 13 39  1  0  0  0  0
 13 40  1  0  0  0  0
 14 41  1  0  0  0  0
 14 42  1  0  0  0  0
 15 17  1  0  0  0  0
 15 43  1  0  0  0  0
 15 44  1  0  0  0  0
 17 23  1  0  0  0  0
 18 20  1  0  0  0  0
 18 46  1  0  0  0  0
 18 47  1  0  0  0  0
 19 21  1  0  0  0  0
 19 48  1  0  0  0  0
 19 49  1  0  0  0  0
 20 22  1  0  0  0  0
 20 50  1  0  0  0  0
 20 51  1  0  0  0  0
 21 22  1  0  0  0  0
 21 24  2  0  0  0  0
 22 25  2  0  0  0  0
 23 26  2  0  0  0  0
 23 52  1  0  0  0  0
 24 27  1  0  0  0  0
 24 53  1  0  0  0  0
 25 28  1  0  0  0  0
 25 54  1  0  0  0  0
 26 29  1  0  0  0  0
 27 28  2  0  0  0  0
 29 55  1  0  0  0  0
 29 56  1  0  0  0  0
 30 57  1  0  0  0  0
 30 58  1  0  0  0  0
 30 59  1  0  0  0  0
 31 60  1  0  0  0  0
 31 61  1  0  0  0  0
 31 62  1  0  0  0  0
 32 63  1  0  0  0  0
 32 64  1  0  0  0  0
 32 65  1  0  0  0  0
M  END
> <PUBCHEM_COMPOUND_CID>
26743034

> <PUBCHEM_CONFORMER_RMSD>
1

> <PUBCHEM_CONFORMER_DIVERSEORDER>
8
131
10
12
139
59
204
203
37
88
115
171
38
104
156
30
89
70
68
48
39
72
114
188
77
206
195
65
169
85
143
197
174
180
75
102
46
187
49
111
26
108
35
194
97
186
40
153
58
20
150
21
129
36
179
80
126
100
201
183
78
5
106
196
117
154
161
165
50
98
81
164
133
13
166
141
11
124
99
61
51
67
105
157
94
73
193
146
95
66
178
57
28
151
42
53
79
16
96
175
17
177
71
19
33
167
92
86
138
55
190
145
2
54
149
41
148
120
45
162
134
127
82
44
142
76
130
160
60
199
155
90
191
152
184
113
23
63
136
168
185
176
116
4
107
163
170
118
84
112
173
52
144
3
15
205
140
119
32
128
34
27
200
1
125
6
31
62
91
93
202
69
83
158
147
18
43
47
172
9
56
137
7
64
103
135
109
14
192
181
123
24
87
25
110
182
122
198
101
159
189
121
132
22
29
74

> <PUBCHEM_MMFF94_PARTIAL_CHARGES>
33
1 -0.57
12 0.27
13 0.06
14 0.27
15 0.18
16 0.57
17 0.11
18 0.3
19 0.44
2 -0.02
20 0.14
21 -0.14
22 -0.14
23 -0.15
24 -0.15
25 -0.15
26 -0.04
27 0.08
28 0.08
29 0.46
3 -0.36
30 0.28
31 0.28
32 0.28
4 -0.36
45 0.36
5 -0.56
52 0.15
53 0.15
54 0.15
6 -0.9
7 -0.66
8 -0.41

> <PUBCHEM_EFFECTIVE_ROTOR_COUNT>
11

> <PUBCHEM_PHARMACOPHORE_FEATURES>
11
1 1 acceptor
1 3 acceptor
1 4 acceptor
1 5 acceptor
1 6 cation
1 6 donor
1 8 acceptor
5 2 8 17 23 26 rings
6 21 22 24 25 27 28 rings
6 6 9 10 11 12 14 rings
6 7 18 19 20 21 22 rings

> <PUBCHEM_HEAVY_ATOM_COUNT>
32

> <PUBCHEM_ATOM_DEF_STEREO_COUNT>
2

> <PUBCHEM_ATOM_UDEF_STEREO_COUNT>
0

> <PUBCHEM_BOND_DEF_STEREO_COUNT>
0

> <PUBCHEM_BOND_UDEF_STEREO_COUNT>
0

> <PUBCHEM_ISOTOPIC_ATOM_COUNT>
0

> <PUBCHEM_COMPONENT_COUNT>
1

> <PUBCHEM_CACTVS_TAUTO_COUNT>
1

> <PUBCHEM_CONFORMER_ID>
019810FA00000008

> <PUBCHEM_MMFF94_ENERGY>
86.0348

> <PUBCHEM_FEATURE_SELFOVERLAP>
55.85

> <PUBCHEM_SHAPE_FINGERPRINT>
10 15 18333732433786540617
10917259 69 18342462513784349388
10920273 25 18114759238802520652
10939801 23 18412545405764593201
10985338 8 18130780123693401550
1200032 147 18114180861426097130
12107183 9 18196078950466468090
12788726 201 17561367244696393705
12975358 362 17556875616014030313
13785724 45 17621315741274778022
14251764 75 18410852187621876418
14394314 77 18412546526878275149
14664723 55 18336839675328006292
14790565 3 18342173362825296607
14849402 71 18187922838448213210
15064981 194 17900826255815034414
15198563 99 17482536886681249591
15289351 153 18339633538953228578
15350500 16 11240008828437562316
15439362 3 18411419527987007222
1577012 14 18338791312560919036
16992610 120 18189066429752363212
17899979 129 18341619196639353534
19304671 126 16773508979937174192
21033648 144 18187635908462051943
21585482 111 18334854978876526533
22122407 14 18338804412079680379
23559900 14 17488459663825436655
3411729 13 18410009927566388278
38570 142 18408327705167716262
397830 11 18041006146310583771
4073 2 18259988192742900507
4197921 191 18341046342301144801
4516262 110 18261383464339561270
508180 173 18058452174538711616
5104073 3 18187925041318049867
5758199 1 18334574685537255668
57634706 229 17969513765763181402
57724786 102 18339071575824621886
5776283 40 18270399533145692296
5911458 16 18262241122518210276
6058803 2 18268122332436845807
7808743 9 18271517672003990583

> <PUBCHEM_SHAPE_MULTIPOLES>
614.26
23.92
5.06
1.23
8.3
0.46
-0.19
-28.31
1.03
3.78
-1.18
0.4
0.29
-5.06

> <PUBCHEM_SHAPE_SELFOVERLAP>
1293.908

> <PUBCHEM_SHAPE_VOLUME>
345.3

> <PUBCHEM_COORDINATE_TYPE>
2
5
10

$$$$
