26743127
  -OEChem-12032416193D

 57 60  0     1  0  0  0  0  0999 V2000
    4.3687    1.2466    1.5011 S   0  0  0  0  0  0  0  0  0  0  0  0
   -2.0109    2.5420   -1.8937 S   0  0  0  0  0  0  0  0  0  0  0  0
   -3.4202    0.2746    2.0923 O   0  0  0  0  0  0  0  0  0  0  0  0
    1.5054    0.1665    2.8381 O   0  0  0  0  0  0  0  0  0  0  0  0
   -0.3629   -3.3076   -1.6738 N   0  0  0  0  0  0  0  0  0  0  0  0
   -3.9634    0.7048   -0.1259 N   0  0  0  0  0  0  0  0  0  0  0  0
    0.2361   -0.2994    2.5172 N   0  0  0  0  0  0  0  0  0  0  0  0
   -2.6579   -1.8697   -0.5600 C   0  0  1  0  0  0  0  0  0  0  0  0
   -1.2043   -1.4887   -0.1894 C   0  0  2  0  0  0  0  0  0  0  0  0
   -2.7470   -3.3385   -1.0007 C   0  0  0  0  0  0  0  0  0  0  0  0
   -0.2622   -1.8853   -1.3413 C   0  0  0  0  0  0  0  0  0  0  0  0
   -1.7211   -3.6590   -2.0872 C   0  0  0  0  0  0  0  0  0  0  0  0
   -0.7244   -2.0914    1.1377 C   0  0  0  0  0  0  0  0  0  0  0  0
   -3.6653   -1.5728    0.5498 C   0  0  0  0  0  0  0  0  0  0  0  0
    0.4444   -1.3304    1.6933 C   0  0  0  0  0  0  0  0  0  0  0  0
   -3.6610   -0.1136    0.9524 C   0  0  0  0  0  0  0  0  0  0  0  0
    1.8115   -1.5595    1.4602 C   0  0  0  0  0  0  0  0  0  0  0  0
    2.4350   -0.5917    2.2026 C   0  0  0  0  0  0  0  0  0  0  0  0
   -4.0312    2.1449   -0.0289 C   0  0  0  0  0  0  0  0  0  0  0  0
    3.8401   -0.2348    2.4324 C   0  0  0  0  0  0  0  0  0  0  0  0
   -2.7161    2.7924   -0.3535 C   0  0  0  0  0  0  0  0  0  0  0  0
   -1.9410    3.6057    0.4439 C   0  0  0  0  0  0  0  0  0  0  0  0
   -0.7528    4.0289   -0.2186 C   0  0  0  0  0  0  0  0  0  0  0  0
    3.9618    0.7627   -0.1704 C   0  0  0  0  0  0  0  0  0  0  0  0
   -0.6647    3.5230   -1.4968 C   0  0  0  0  0  0  0  0  0  0  0  0
    4.5530   -0.3686   -0.7328 C   0  0  0  0  0  0  0  0  0  0  0  0
    3.0530    1.5168   -0.9127 C   0  0  0  0  0  0  0  0  0  0  0  0
    4.2354   -0.7458   -2.0377 C   0  0  0  0  0  0  0  0  0  0  0  0
    2.7354    1.1396   -2.2175 C   0  0  0  0  0  0  0  0  0  0  0  0
    3.3266    0.0083   -2.7800 C   0  0  0  0  0  0  0  0  0  0  0  0
   -2.9206   -1.2764   -1.4464 H   0  0  0  0  0  0  0  0  0  0  0  0
   -1.1603   -0.3937   -0.1092 H   0  0  0  0  0  0  0  0  0  0  0  0
   -3.7528   -3.5544   -1.3807 H   0  0  0  0  0  0  0  0  0  0  0  0
   -2.5864   -3.9997   -0.1395 H   0  0  0  0  0  0  0  0  0  0  0  0
   -0.5017   -1.2904   -2.2324 H   0  0  0  0  0  0  0  0  0  0  0  0
    0.7794   -1.6486   -1.1076 H   0  0  0  0  0  0  0  0  0  0  0  0
   -1.7564   -4.7295   -2.3174 H   0  0  0  0  0  0  0  0  0  0  0  0
   -1.9743   -3.1322   -3.0153 H   0  0  0  0  0  0  0  0  0  0  0  0
   -0.4603   -3.1501    1.0459 H   0  0  0  0  0  0  0  0  0  0  0  0
   -1.5053   -2.0546    1.9027 H   0  0  0  0  0  0  0  0  0  0  0  0
   -3.5142   -2.1943    1.4375 H   0  0  0  0  0  0  0  0  0  0  0  0
   -4.6781   -1.8074    0.1952 H   0  0  0  0  0  0  0  0  0  0  0  0
   -0.0933   -3.8745   -0.8721 H   0  0  0  0  0  0  0  0  0  0  0  0
    2.2772   -2.3176    0.8481 H   0  0  0  0  0  0  0  0  0  0  0  0
   -4.1940    0.2931   -1.0245 H   0  0  0  0  0  0  0  0  0  0  0  0
   -4.3505    2.4207    0.9824 H   0  0  0  0  0  0  0  0  0  0  0  0
   -4.8033    2.4872   -0.7269 H   0  0  0  0  0  0  0  0  0  0  0  0
    4.0020   -0.0281    3.4959 H   0  0  0  0  0  0  0  0  0  0  0  0
    4.4985   -1.0707    2.1741 H   0  0  0  0  0  0  0  0  0  0  0  0
   -2.2090    3.8853    1.4549 H   0  0  0  0  0  0  0  0  0  0  0  0
   -0.0001    4.6708    0.2202 H   0  0  0  0  0  0  0  0  0  0  0  0
    0.1259    3.6823   -2.2163 H   0  0  0  0  0  0  0  0  0  0  0  0
    5.2693   -0.9674   -0.1762 H   0  0  0  0  0  0  0  0  0  0  0  0
    2.5808    2.4004   -0.4905 H   0  0  0  0  0  0  0  0  0  0  0  0
    4.6962   -1.6261   -2.4762 H   0  0  0  0  0  0  0  0  0  0  0  0
    2.0270    1.7254   -2.7956 H   0  0  0  0  0  0  0  0  0  0  0  0
    3.0785   -0.2859   -3.7956 H   0  0  0  0  0  0  0  0  0  0  0  0
  1 20  1  0  0  0  0
  1 24  1  0  0  0  0
  2 21  1  0  0  0  0
  2 25  1  0  0  0  0
  3 16  2  0  0  0  0
  4  7  1  0  0  0  0
  4 18  1  0  0  0  0
  5 11  1  0  0  0  0
  5 12  1  0  0  0  0
  5 43  1  0  0  0  0
  6 16  1  0  0  0  0
  6 19  1  0  0  0  0
  6 45  1  0  0  0  0
  7 15  2  0  0  0  0
  8  9  1  0  0  0  0
  8 10  1  0  0  0  0
  8 14  1  0  0  0  0
  8 31  1  0  0  0  0
  9 11  1  0  0  0  0
  9 13  1  0  0  0  0
  9 32  1  0  0  0  0
 10 12  1  0  0  0  0
 10 33  1  0  0  0  0
 10 34  1  0  0  0  0
 11 35  1  0  0  0  0
 11 36  1  0  0  0  0
 12 37  1  0  0  0  0
 12 38  1  0  0  0  0
 13 15  1  0  0  0  0
 13 39  1  0  0  0  0
 13 40  1  0  0  0  0
 14 16  1  0  0  0  0
 14 41  1  0  0  0  0
 14 42  1  0  0  0  0
 15 17  1  0  0  0  0
 17 18  2  0  0  0  0
 17 44  1  0  0  0  0
 18 20  1  0  0  0  0
 19 21  1  0  0  0  0
 19 46  1  0  0  0  0
 19 47  1  0  0  0  0
 20 48  1  0  0  0  0
 20 49  1  0  0  0  0
 21 22  2  0  0  0  0
 22 23  1  0  0  0  0
 22 50  1  0  0  0  0
 23 25  2  0  0  0  0
 23 51  1  0  0  0  0
 24 26  2  0  0  0  0
 24 27  1  0  0  0  0
 25 52  1  0  0  0  0
 26 28  1  0  0  0  0
 26 53  1  0  0  0  0
 27 29  2  0  0  0  0
 27 54  1  0  0  0  0
 28 30  2  0  0  0  0
 28 55  1  0  0  0  0
 29 30  1  0  0  0  0
 29 56  1  0  0  0  0
 30 57  1  0  0  0  0
M  END
> <PUBCHEM_COMPOUND_CID>
26743127

> <PUBCHEM_CONFORMER_RMSD>
1.4

> <PUBCHEM_CONFORMER_DIVERSEORDER>
2
109
102
79
28
141
111
44
53
4
115
42
138
6
99
41
135
105
116
106
94
125
61
145
3
149
87
122
9
143
76
22
89
136
52
68
131
27
85
59
69
92
5
101
66
88
126
55
49
15
147
24
77
132
127
108
35
74
134
39
72
30
83
23
11
58
140
26
112
97
20
110
86
142
118
107
90
73
43
36
18
38
29
95
139
32
21
120
123
50
47
93
96
48
65
12
144
54
1
75
62
124
17
45
137
37
148
7
14
81
104
57
13
80
133
128
113
46
33
31
121
98
70
19
100
51
67
64
119
63
117
16
130
8
71
129
60
146
84
114
78
34
103
40
10
91
82
25
56

> <PUBCHEM_MMFF94_PARTIAL_CHARGES>
38
1 -0.33
11 0.27
12 0.27
13 0.18
14 0.06
15 0.11
16 0.57
17 -0.15
18 -0.04
19 0.48
2 -0.08
20 0.41
21 -0.14
22 -0.15
23 -0.15
24 0.1
25 -0.11
26 -0.15
27 -0.15
28 -0.15
29 -0.15
3 -0.57
30 -0.15
4 -0.02
43 0.36
44 0.15
45 0.37
5 -0.9
50 0.15
51 0.15
52 0.15
53 0.15
54 0.15
55 0.15
56 0.15
57 0.15
6 -0.73
7 -0.41

> <PUBCHEM_EFFECTIVE_ROTOR_COUNT>
11.2

> <PUBCHEM_PHARMACOPHORE_FEATURES>
9
1 3 acceptor
1 5 cation
1 5 donor
1 6 donor
1 7 acceptor
5 2 21 22 23 25 rings
5 4 7 15 17 18 rings
6 24 26 27 28 29 30 rings
6 5 8 9 10 11 12 rings

> <PUBCHEM_HEAVY_ATOM_COUNT>
30

> <PUBCHEM_ATOM_DEF_STEREO_COUNT>
2

> <PUBCHEM_ATOM_UDEF_STEREO_COUNT>
0

> <PUBCHEM_BOND_DEF_STEREO_COUNT>
0

> <PUBCHEM_BOND_UDEF_STEREO_COUNT>
0

> <PUBCHEM_ISOTOPIC_ATOM_COUNT>
0

> <PUBCHEM_COMPONENT_COUNT>
1

> <PUBCHEM_CACTVS_TAUTO_COUNT>
2

> <PUBCHEM_CONFORMER_ID>
0198115700000002

> <PUBCHEM_MMFF94_ENERGY>
41.3475

> <PUBCHEM_FEATURE_SELFOVERLAP>
45.672

> <PUBCHEM_SHAPE_FINGERPRINT>
10165383 225 17916044386096771323
10670039 82 18259989236735859874
11578080 2 17917714638833039392
11595378 159 18259702302481286546
12788726 201 18188781663986814500
13617811 41 18125711538303796127
14114207 22 15735648252851542257
14251751 93 18262529091152558724
14251757 17 17988087677703660356
14279260 333 17677066659550788958
14910302 57 17917989516138850070
15297060 5 18127421046497297721
15403338 16 17240482486139420265
16067690 210 17898041076934450596
19026451 147 17403442469790847102
19930381 70 16681488910140562279
20764821 26 17912068457308264657
21987440 362 17546712765455197808
35225 105 18119780600325346876
445580 8 18333454227032243049
469060 322 16660367016703226757
6287921 2 17619345403710475045

> <PUBCHEM_SHAPE_MULTIPOLES>
598.4
8.54
4.82
2.99
4.42
2.09
0.31
1.29
0.13
-5.56
-2.42
2.71
-0.89
-0.77

> <PUBCHEM_SHAPE_SELFOVERLAP>
1237.926

> <PUBCHEM_SHAPE_VOLUME>
342.6

> <PUBCHEM_COORDINATE_TYPE>
2
5
10

$$$$
