11885174
  -OEChem-12032416113D

 51 55  0     1  0  0  0  0  0999 V2000
   -8.6673   -1.9573   -0.3564 Cl  0  0  0  0  0  0  0  0  0  0  0  0
    2.6203   -1.2970   -0.6789 S   0  0  0  0  0  0  0  0  0  0  0  0
    8.2526   -0.4809    0.7795 F   0  0  0  0  0  0  0  0  0  0  0  0
    2.6384   -1.5259   -2.1090 O   0  0  0  0  0  0  0  0  0  0  0  0
    2.1626   -2.3065    0.2528 O   0  0  0  0  0  0  0  0  0  0  0  0
   -2.9306    1.0025   -1.7330 O   0  0  0  0  0  0  0  0  0  0  0  0
    1.7917    0.1682   -0.3721 N   0  0  2  0  0  0  0  0  0  0  0  0
   -1.1223    1.3876   -0.3113 N   0  0  0  0  0  0  0  0  0  0  0  0
    1.0691    2.4380   -1.1202 C   0  0  1  0  0  0  0  0  0  0  0  0
    0.8218    1.7964    1.2373 C   0  0  2  0  0  0  0  0  0  0  0  0
    1.1864    2.9514    0.3087 C   0  0  0  0  0  0  0  0  0  0  0  0
    2.0339    1.2638   -1.3537 C   0  0  0  0  0  0  0  0  0  0  0  0
    1.8238    0.6439    1.0433 C   0  0  0  0  0  0  0  0  0  0  0  0
   -0.3915    2.0594   -1.3948 C   0  0  0  0  0  0  0  0  0  0  0  0
   -0.5936    1.3142    0.9794 C   0  0  0  0  0  0  0  0  0  0  0  0
   -1.3274    0.8002    1.9794 C   0  0  0  0  0  0  0  0  0  0  0  0
   -2.4171    0.9225   -0.6156 C   0  0  0  0  0  0  0  0  0  0  0  0
   -3.2015    0.3185    0.5180 C   0  0  0  0  0  0  0  0  0  0  0  0
   -2.6477    0.2906    1.7395 C   0  0  0  0  0  0  0  0  0  0  0  0
    4.3359   -1.0480   -0.2346 C   0  0  0  0  0  0  0  0  0  0  0  0
   -4.5470   -0.2415    0.3023 C   0  0  0  0  0  0  0  0  0  0  0  0
    4.7248   -1.3271    1.0527 C   0  0  0  0  0  0  0  0  0  0  0  0
    5.2002   -0.5873   -1.1975 C   0  0  0  0  0  0  0  0  0  0  0  0
   -5.6728    0.5704    0.4458 C   0  0  0  0  0  0  0  0  0  0  0  0
   -4.6971   -1.5846   -0.0451 C   0  0  0  0  0  0  0  0  0  0  0  0
    6.0620   -1.1332    1.3991 C   0  0  0  0  0  0  0  0  0  0  0  0
    6.5375   -0.3935   -0.8512 C   0  0  0  0  0  0  0  0  0  0  0  0
    6.9683   -0.6665    0.4471 C   0  0  0  0  0  0  0  0  0  0  0  0
   -6.9467    0.0397    0.2423 C   0  0  0  0  0  0  0  0  0  0  0  0
   -5.9710   -2.1151   -0.2487 C   0  0  0  0  0  0  0  0  0  0  0  0
   -7.0957   -1.3029   -0.1050 C   0  0  0  0  0  0  0  0  0  0  0  0
    1.3509    3.2366   -1.8180 H   0  0  0  0  0  0  0  0  0  0  0  0
    0.9054    2.1539    2.2721 H   0  0  0  0  0  0  0  0  0  0  0  0
    0.5180    3.8068    0.4689 H   0  0  0  0  0  0  0  0  0  0  0  0
    2.2071    3.2993    0.5093 H   0  0  0  0  0  0  0  0  0  0  0  0
    1.8944    0.8905   -2.3737 H   0  0  0  0  0  0  0  0  0  0  0  0
    3.0676    1.6156   -1.2572 H   0  0  0  0  0  0  0  0  0  0  0  0
    1.5689   -0.1815    1.7176 H   0  0  0  0  0  0  0  0  0  0  0  0
    2.8331    0.9905    1.2935 H   0  0  0  0  0  0  0  0  0  0  0  0
   -0.9567    2.9777   -1.6062 H   0  0  0  0  0  0  0  0  0  0  0  0
   -0.4668    1.4449   -2.3007 H   0  0  0  0  0  0  0  0  0  0  0  0
   -0.9382    0.7250    2.9893 H   0  0  0  0  0  0  0  0  0  0  0  0
   -3.1700   -0.1351    2.5914 H   0  0  0  0  0  0  0  0  0  0  0  0
    4.0341   -1.6813    1.8105 H   0  0  0  0  0  0  0  0  0  0  0  0
    4.8821   -0.3605   -2.2094 H   0  0  0  0  0  0  0  0  0  0  0  0
   -5.5728    1.6191    0.7152 H   0  0  0  0  0  0  0  0  0  0  0  0
   -3.8298   -2.2301   -0.1616 H   0  0  0  0  0  0  0  0  0  0  0  0
    6.3975   -1.3434    2.4104 H   0  0  0  0  0  0  0  0  0  0  0  0
    7.2432   -0.0281   -1.5915 H   0  0  0  0  0  0  0  0  0  0  0  0
   -7.8142    0.6845    0.3574 H   0  0  0  0  0  0  0  0  0  0  0  0
   -6.0720   -3.1630   -0.5192 H   0  0  0  0  0  0  0  0  0  0  0  0
  1 31  1  0  0  0  0
  2  4  2  0  0  0  0
  2  5  2  0  0  0  0
  2  7  1  0  0  0  0
  2 20  1  0  0  0  0
  3 28  1  0  0  0  0
  6 17  2  0  0  0  0
  7 12  1  0  0  0  0
  7 13  1  0  0  0  0
  8 14  1  0  0  0  0
  8 15  1  0  0  0  0
  8 17  1  0  0  0  0
  9 11  1  0  0  0  0
  9 12  1  0  0  0  0
  9 14  1  0  0  0  0
  9 32  1  0  0  0  0
 10 11  1  0  0  0  0
 10 13  1  0  0  0  0
 10 15  1  0  0  0  0
 10 33  1  0  0  0  0
 11 34  1  0  0  0  0
 11 35  1  0  0  0  0
 12 36  1  0  0  0  0
 12 37  1  0  0  0  0
 13 38  1  0  0  0  0
 13 39  1  0  0  0  0
 14 40  1  0  0  0  0
 14 41  1  0  0  0  0
 15 16  2  0  0  0  0
 16 19  1  0  0  0  0
 16 42  1  0  0  0  0
 17 18  1  0  0  0  0
 18 19  2  0  0  0  0
 18 21  1  0  0  0  0
 19 43  1  0  0  0  0
 20 22  2  0  0  0  0
 20 23  1  0  0  0  0
 21 24  2  0  0  0  0
 21 25  1  0  0  0  0
 22 26  1  0  0  0  0
 22 44  1  0  0  0  0
 23 27  2  0  0  0  0
 23 45  1  0  0  0  0
 24 29  1  0  0  0  0
 24 46  1  0  0  0  0
 25 30  2  0  0  0  0
 25 47  1  0  0  0  0
 26 28  2  0  0  0  0
 26 48  1  0  0  0  0
 27 28  1  0  0  0  0
 27 49  1  0  0  0  0
 29 31  2  0  0  0  0
 29 50  1  0  0  0  0
 30 31  1  0  0  0  0
 30 51  1  0  0  0  0
M  END
> <PUBCHEM_COMPOUND_CID>
11885174

> <PUBCHEM_CONFORMER_RMSD>
0.8

> <PUBCHEM_CONFORMER_DIVERSEORDER>
1
5
7
4
6
3
2

> <PUBCHEM_MMFF94_PARTIAL_CHARGES>
39
1 -0.18
10 0.14
12 0.36
13 0.36
14 0.3
15 -0.03
16 -0.15
17 0.62
18 -0.01
19 -0.15
2 1.45
20 -0.01
21 0.03
22 -0.15
23 -0.15
24 -0.15
25 -0.15
26 -0.15
27 -0.15
28 0.19
29 -0.15
3 -0.19
30 -0.15
31 0.18
4 -0.65
42 0.15
43 0.15
44 0.15
45 0.15
46 0.15
47 0.15
48 0.15
49 0.15
5 -0.65
50 0.15
51 0.15
6 -0.57
7 -0.85
8 -0.47

> <PUBCHEM_EFFECTIVE_ROTOR_COUNT>
4

> <PUBCHEM_PHARMACOPHORE_FEATURES>
8
1 4 acceptor
1 5 acceptor
1 6 acceptor
6 20 22 23 26 27 28 rings
6 21 24 25 29 30 31 rings
6 7 9 10 11 12 13 rings
6 8 15 16 17 18 19 rings
6 8 9 10 11 14 15 rings

> <PUBCHEM_HEAVY_ATOM_COUNT>
31

> <PUBCHEM_ATOM_DEF_STEREO_COUNT>
2

> <PUBCHEM_ATOM_UDEF_STEREO_COUNT>
0

> <PUBCHEM_BOND_DEF_STEREO_COUNT>
0

> <PUBCHEM_BOND_UDEF_STEREO_COUNT>
0

> <PUBCHEM_ISOTOPIC_ATOM_COUNT>
0

> <PUBCHEM_COMPONENT_COUNT>
1

> <PUBCHEM_CACTVS_TAUTO_COUNT>
1

> <PUBCHEM_CONFORMER_ID>
00B55A7600000001

> <PUBCHEM_MMFF94_ENERGY>
73.6004

> <PUBCHEM_FEATURE_SELFOVERLAP>
42.199

> <PUBCHEM_SHAPE_FINGERPRINT>
10 15 14549020987529647043
106641 1 16630524050700756586
10670039 82 15140952942721100463
10930396 42 17896298360465181304
11135609 99 18059292183820495415
11456790 92 17417827179846152211
11578080 2 9221783771899993990
11828532 37 14418718998794180179
12107698 1 17894631452532087461
12516196 113 18272090474448572856
12522641 33 17970632011944123676
12623949 98 16987735489062489574
12633257 1 13542456549585677907
13533116 47 18271810189916138457
13540713 4 16300376001132927785
13673619 4 18409447003577929921
13690498 29 17676196962653026469
14068700 675 18411139134255365505
14251751 18 18412545410075092575
14341114 176 15339119014063556634
1454969 45 18336273396879606750
15183329 4 14273735140333887328
15301273 46 16773520984117388868
15357212 105 13181581526471904802
15510800 12 18270133404271778219
15721738 202 17275102834506679490
15728490 51 17632292402230093294
15849732 13 17775847912785155175
15927050 60 17624973121202506036
18335252 114 12612744744439221547
18393751 57 17845636133074192202
19784866 240 18343309171427211681
19958102 18 15430317980154437330
20028762 73 18272374182946025470
20567600 254 10879991337833684833
20567600 70 18342176691108374986
21223535 225 14851877003109362007
21344244 78 17489871552714077129
21756936 100 8214133019839148321
23522609 53 17972349302313125693
23559900 14 16805895103312279293
23569943 247 17968372352265960187
23576562 1 14635724163235776647
249057 3 18410573977632544553
2747138 104 17846500331553447346
2838139 119 7997963553360839571
3004659 81 18411418436500324619
3009799 131 16515688844872983376
3383291 50 17988928903411548319
4066623 53 16225765228966706068
4098825 35 17240479183066951093
4149490 64 18266181823989814347
439807 62 17967252009846214183
4461854 278 17203334454713526239
463206 1 18338518659400035835
59682541 35 17917704721885383250
5969126 39 17967811613619386932
59755656 520 10159689171096416369
613672 6 18114763550358627410
6438161 24 18410290346271131987
6669772 16 17751083716247820852
9962374 69 18270958076915860879

> <PUBCHEM_SHAPE_MULTIPOLES>
608.84
20.65
2.48
1.58
9.22
0.66
0
-16.46
-0.72
0.43
0.37
-1
0.32
-0.68

> <PUBCHEM_SHAPE_SELFOVERLAP>
1321.731

> <PUBCHEM_SHAPE_VOLUME>
337.5

> <PUBCHEM_COORDINATE_TYPE>
2
5
10

$$$$
