11883361
  -OEChem-12032416383D

 60 64  0     1  0  0  0  0  0999 V2000
    2.7740   -2.6532    0.4838 S   0  0  0  0  0  0  0  0  0  0  0  0
   -1.6003   -1.1295   -0.5673 O   0  0  0  0  0  0  0  0  0  0  0  0
    0.3688    0.9339   -1.7190 O   0  0  0  0  0  0  0  0  0  0  0  0
   -3.0819    1.2041   -0.7947 O   0  0  0  0  0  0  0  0  0  0  0  0
    2.8558   -3.6162   -0.5978 O   0  0  0  0  0  0  0  0  0  0  0  0
    3.0784   -3.0555    1.8436 O   0  0  0  0  0  0  0  0  0  0  0  0
   -3.3430    1.0437    1.4815 O   0  0  0  0  0  0  0  0  0  0  0  0
    1.2487   -1.9077    0.4629 N   0  0  0  0  0  0  0  0  0  0  0  0
   -5.1699    0.9825    0.0528 N   0  0  0  0  0  0  0  0  0  0  0  0
    0.3808    0.1746   -0.4922 C   0  0  1  0  0  0  0  0  0  0  0  0
   -1.0560    0.0819   -0.0180 C   0  0  1  0  0  0  0  0  0  0  0  0
    0.7635   -1.2565   -0.7772 C   0  0  2  0  0  0  0  0  0  0  0  0
   -1.6852    1.3079   -0.6352 C   0  0  1  0  0  0  0  0  0  0  0  0
   -0.5525   -1.8788   -1.2016 C   0  0  0  0  0  0  0  0  0  0  0  0
   -0.9662    1.4008   -1.9619 C   0  0  0  0  0  0  0  0  0  0  0  0
   -6.2087    0.8372    1.0482 C   0  0  0  0  0  0  0  0  0  0  0  0
   -7.5022    1.5253    0.5990 C   0  0  0  0  0  0  0  0  0  0  0  0
   -6.4512   -0.6391    1.3801 C   0  0  0  0  0  0  0  0  0  0  0  0
   -8.2007    0.7744   -0.5346 C   0  0  0  0  0  0  0  0  0  0  0  0
   -7.1515   -1.3863    0.2451 C   0  0  0  0  0  0  0  0  0  0  0  0
   -8.4411   -0.6889   -0.1766 C   0  0  0  0  0  0  0  0  0  0  0  0
   -3.8274    1.0732    0.3550 C   0  0  0  0  0  0  0  0  0  0  0  0
    3.8458   -1.3028    0.0937 C   0  0  0  0  0  0  0  0  0  0  0  0
    4.3634   -0.5324    1.1209 C   0  0  0  0  0  0  0  0  0  0  0  0
    4.1465   -1.0416   -1.2286 C   0  0  0  0  0  0  0  0  0  0  0  0
    5.2159    0.5444    0.8275 C   0  0  0  0  0  0  0  0  0  0  0  0
    4.9921    0.0240   -1.5384 C   0  0  0  0  0  0  0  0  0  0  0  0
    5.5351    0.8267   -0.5219 C   0  0  0  0  0  0  0  0  0  0  0  0
    5.7591    1.3469    1.8441 C   0  0  0  0  0  0  0  0  0  0  0  0
    6.3877    1.9036   -0.8153 C   0  0  0  0  0  0  0  0  0  0  0  0
    6.6044    2.4128    1.5346 C   0  0  0  0  0  0  0  0  0  0  0  0
    6.9179    2.6907    0.2075 C   0  0  0  0  0  0  0  0  0  0  0  0
    1.0389    0.6929    0.2123 H   0  0  0  0  0  0  0  0  0  0  0  0
   -1.1381    0.0207    1.0704 H   0  0  0  0  0  0  0  0  0  0  0  0
    1.4817   -1.3618   -1.5916 H   0  0  0  0  0  0  0  0  0  0  0  0
   -1.4387    2.1981   -0.0408 H   0  0  0  0  0  0  0  0  0  0  0  0
   -0.6996   -1.7851   -2.2831 H   0  0  0  0  0  0  0  0  0  0  0  0
   -0.6496   -2.9349   -0.9317 H   0  0  0  0  0  0  0  0  0  0  0  0
   -1.4277    0.7712   -2.7309 H   0  0  0  0  0  0  0  0  0  0  0  0
   -0.9329    2.4248   -2.3461 H   0  0  0  0  0  0  0  0  0  0  0  0
    0.7648   -1.6836    1.3405 H   0  0  0  0  0  0  0  0  0  0  0  0
   -5.8540    1.3360    1.9588 H   0  0  0  0  0  0  0  0  0  0  0  0
   -7.2953    2.5539    0.2800 H   0  0  0  0  0  0  0  0  0  0  0  0
   -8.1873    1.5891    1.4539 H   0  0  0  0  0  0  0  0  0  0  0  0
   -7.0754   -0.7030    2.2806 H   0  0  0  0  0  0  0  0  0  0  0  0
   -5.5052   -1.1415    1.6152 H   0  0  0  0  0  0  0  0  0  0  0  0
   -7.6024    0.8347   -1.4513 H   0  0  0  0  0  0  0  0  0  0  0  0
   -9.1593    1.2582   -0.7548 H   0  0  0  0  0  0  0  0  0  0  0  0
   -7.3758   -2.4104    0.5646 H   0  0  0  0  0  0  0  0  0  0  0  0
   -6.4783   -1.4642   -0.6172 H   0  0  0  0  0  0  0  0  0  0  0  0
   -9.1709   -0.7486    0.6403 H   0  0  0  0  0  0  0  0  0  0  0  0
   -8.8797   -1.2113   -1.0342 H   0  0  0  0  0  0  0  0  0  0  0  0
   -5.4281    0.9748   -0.9291 H   0  0  0  0  0  0  0  0  0  0  0  0
    4.1104   -0.7451    2.1568 H   0  0  0  0  0  0  0  0  0  0  0  0
    3.7522   -1.6456   -2.0397 H   0  0  0  0  0  0  0  0  0  0  0  0
    5.2251    0.2217   -2.5826 H   0  0  0  0  0  0  0  0  0  0  0  0
    5.5277    1.1484    2.8885 H   0  0  0  0  0  0  0  0  0  0  0  0
    6.6465    2.1391   -1.8455 H   0  0  0  0  0  0  0  0  0  0  0  0
    7.0176    3.0259    2.3302 H   0  0  0  0  0  0  0  0  0  0  0  0
    7.5759    3.5206   -0.0328 H   0  0  0  0  0  0  0  0  0  0  0  0
  1  5  2  0  0  0  0
  1  6  2  0  0  0  0
  1  8  1  0  0  0  0
  1 23  1  0  0  0  0
  2 11  1  0  0  0  0
  2 14  1  0  0  0  0
  3 10  1  0  0  0  0
  3 15  1  0  0  0  0
  4 13  1  0  0  0  0
  4 22  1  0  0  0  0
  7 22  2  0  0  0  0
  8 12  1  0  0  0  0
  8 41  1  0  0  0  0
  9 16  1  0  0  0  0
  9 22  1  0  0  0  0
  9 53  1  0  0  0  0
 10 11  1  0  0  0  0
 10 12  1  0  0  0  0
 10 33  1  0  0  0  0
 11 13  1  0  0  0  0
 11 34  1  0  0  0  0
 12 14  1  0  0  0  0
 12 35  1  0  0  0  0
 13 15  1  0  0  0  0
 13 36  1  0  0  0  0
 14 37  1  0  0  0  0
 14 38  1  0  0  0  0
 15 39  1  0  0  0  0
 15 40  1  0  0  0  0
 16 17  1  0  0  0  0
 16 18  1  0  0  0  0
 16 42  1  0  0  0  0
 17 19  1  0  0  0  0
 17 43  1  0  0  0  0
 17 44  1  0  0  0  0
 18 20  1  0  0  0  0
 18 45  1  0  0  0  0
 18 46  1  0  0  0  0
 19 21  1  0  0  0  0
 19 47  1  0  0  0  0
 19 48  1  0  0  0  0
 20 21  1  0  0  0  0
 20 49  1  0  0  0  0
 20 50  1  0  0  0  0
 21 51  1  0  0  0  0
 21 52  1  0  0  0  0
 23 24  2  0  0  0  0
 23 25  1  0  0  0  0
 24 26  1  0  0  0  0
 24 54  1  0  0  0  0
 25 27  2  0  0  0  0
 25 55  1  0  0  0  0
 26 28  1  0  0  0  0
 26 29  2  0  0  0  0
 27 28  1  0  0  0  0
 27 56  1  0  0  0  0
 28 30  2  0  0  0  0
 29 31  1  0  0  0  0
 29 57  1  0  0  0  0
 30 32  1  0  0  0  0
 30 58  1  0  0  0  0
 31 32  2  0  0  0  0
 31 59  1  0  0  0  0
 32 60  1  0  0  0  0
M  END
> <PUBCHEM_COMPOUND_CID>
11883361

> <PUBCHEM_CONFORMER_RMSD>
1

> <PUBCHEM_CONFORMER_DIVERSEORDER>
2
119
282
172
23
54
62
317
259
55
191
181
205
61
163
89
322
9
107
296
95
30
48
186
182
144
115
8
74
268
98
33
79
249
177
15
99
267
320
158
225
78
258
252
261
116
173
184
256
315
28
11
266
302
6
298
244
117
37
255
96
1
135
327
260
112
262
294
49
285
194
47
321
80
25
27
138
272
157
68
127
269
32
243
293
161
162
324
253
16
121
153
140
108
211
19
242
210
314
5
185
309
326
93
17
212
155
274
101
145
148
219
204
34
328
126
188
231
35
4
22
305
276
228
300
318
156
73
44
247
13
171
303
137
38
275
190
221
109
240
42
198
165
235
330
120
57
306
238
312
70
208
81
46
91
56
142
289
75
29
307
67
58
103
213
24
139
254
85
50
248
154
246
270
10
88
214
43
329
271
128
87
31
124
12
136
263
147
110
131
169
59
316
143
150
160
310
195
304
283
279
149
230
129
167
94
236
41
18
286
224
308
130
21
233
36
123
118
51
183
97
114
215
106
319
111
232
196
53
264
3
151
250
133
292
102
104
323
206
313
311
207
237
168
273
100
84
176
234
72
226
146
14
45
223
134
220
132
209
291
287
200
83
278
166
301
295
203
7
125
52
77
39
175
277
193
60
192
239
82
201
76
170
189
216
179
159
174
217
20
92
280
245
265
251
141
229
86
297
227
325
113
178
241
290
152
40
71
288
281
202
69
299
65
180
164
197
222
63
26
90
218
199
122
66
105
257
64
284
187

> <PUBCHEM_MMFF94_PARTIAL_CHARGES>
34
1 1.45
10 0.28
11 0.28
12 0.36
13 0.28
14 0.28
15 0.28
16 0.3
2 -0.56
22 0.78
23 -0.01
24 -0.15
25 -0.15
27 -0.15
29 -0.15
3 -0.56
30 -0.15
31 -0.15
32 -0.15
4 -0.43
41 0.42
5 -0.65
53 0.37
54 0.15
55 0.15
56 0.15
57 0.15
58 0.15
59 0.15
6 -0.65
60 0.15
7 -0.57
8 -0.91
9 -0.73

> <PUBCHEM_EFFECTIVE_ROTOR_COUNT>
9.4

> <PUBCHEM_PHARMACOPHORE_FEATURES>
12
1 2 acceptor
1 3 acceptor
1 5 acceptor
1 6 acceptor
1 7 acceptor
1 8 donor
1 9 donor
5 2 10 11 12 14 rings
5 3 10 11 13 15 rings
6 16 17 18 19 20 21 rings
6 23 24 25 26 27 28 rings
6 26 28 29 30 31 32 rings

> <PUBCHEM_HEAVY_ATOM_COUNT>
32

> <PUBCHEM_ATOM_DEF_STEREO_COUNT>
4

> <PUBCHEM_ATOM_UDEF_STEREO_COUNT>
0

> <PUBCHEM_BOND_DEF_STEREO_COUNT>
0

> <PUBCHEM_BOND_UDEF_STEREO_COUNT>
0

> <PUBCHEM_ISOTOPIC_ATOM_COUNT>
0

> <PUBCHEM_COMPONENT_COUNT>
1

> <PUBCHEM_CACTVS_TAUTO_COUNT>
2

> <PUBCHEM_CONFORMER_ID>
00B5536100000002

> <PUBCHEM_MMFF94_ENERGY>
62.1074

> <PUBCHEM_FEATURE_SELFOVERLAP>
61.656

> <PUBCHEM_SHAPE_FINGERPRINT>
10 15 18334856134158639137
10165383 225 18410015442952866172
10391435 84 18187366558795046619
10794284 68 17700692028541204047
10838868 160 17986658476013022504
10917259 69 9005967243932206631
10939801 23 18341330072252158799
11135609 201 18339918320801712296
11315181 36 18131073728474966153
11991303 11 15195277664597449733
12539765 74 17417822690924235007
12596602 18 18272938180907571763
13914758 101 11602812493794344621
13947947 140 13046758199583151752
14461889 52 18187651318340271811
14537116 161 16343699902681975849
1454969 45 18342175570839088775
14565420 104 18408038520671780250
14675020 138 15936692588163565651
14849402 71 17917430969086434377
14856354 85 14045738236768139813
15183329 4 11384116336578720371
15188451 53 13407067098910332468
15328829 1 18272934951335102965
15475509 8 10735882767906994451
15728490 51 18342457093007964967
16664035 1 9151178641089993214
1979834 28 18113620063077399500
20567600 234 18333730217135204724
20609170 85 17532067498365069733
21130935 74 18337677404551537339
21792934 111 17822283531721661797
21987483 16 18113336414721280243
22149856 69 18187940426064749673
22224240 67 18335138704525940569
23559900 14 16952537866904739182
24771293 8 18187369835106143557
3459 83 8646768911187112975
34797466 226 17632301150640391708
4093350 32 17561370569169625716
4340502 62 17967814929471152786
437795 163 18341610477929679895
437795 51 17988924500140752209
4403749 210 18410852179870679591
44317340 157 17989204828851759726
4625314 4 18269838627669893727
5104073 3 18044652010096900785
5109719 28 18338526329816293064
54076057 255 16487251088837668064
57307002 182 16877943893189431812
6004065 56 17967541203089983177
8988823 20 14562824256752855614
9689198 14 17131838680920218401
9849439 229 18337110176873576652
9962374 69 18267574724422993486

> <PUBCHEM_SHAPE_MULTIPOLES>
617.22
24.13
2.93
1.61
33.63
1.68
0.06
-11.8
6
-4.46
0.49
-1.32
-0.19
0.48

> <PUBCHEM_SHAPE_SELFOVERLAP>
1323.003

> <PUBCHEM_SHAPE_VOLUME>
341.8

> <PUBCHEM_COORDINATE_TYPE>
2
5
10

$$$$
