45361530
  -OEChem-12032416383D

 77 80  0     1  0  0  0  0  0999 V2000
   -0.8721   -0.6574   -0.7736 O   0  0  0  0  0  0  0  0  0  0  0  0
   -5.0505    2.5123   -0.4246 O   0  0  0  0  0  0  0  0  0  0  0  0
    5.4334    0.5400    1.6833 O   0  0  0  0  0  0  0  0  0  0  0  0
    4.2906    0.9131   -0.3022 N   0  0  0  0  0  0  0  0  0  0  0  0
   -5.2378    0.4650    0.6374 N   0  0  0  0  0  0  0  0  0  0  0  0
   -7.3650   -3.6947    1.1311 N   0  0  0  0  0  0  0  0  0  0  0  0
    0.4482    2.7798    0.2353 C   0  0  1  0  0  0  0  0  0  0  0  0
    0.4594    1.2325    0.0014 C   0  0  2  0  0  0  0  0  0  0  0  0
    1.8284    0.7701   -0.6148 C   0  0  1  0  0  0  0  0  0  0  0  0
   -0.8107    0.7696   -0.7690 C   0  0  2  0  0  0  0  0  0  0  0  0
   -0.8652    3.1849    0.9452 C   0  0  0  0  0  0  0  0  0  0  0  0
   -2.1192    1.2662   -0.1111 C   0  0  1  0  0  0  0  0  0  0  0  0
    1.6226    3.1573    1.1675 C   0  0  0  0  0  0  0  0  0  0  0  0
    3.0072    1.2208    0.2931 C   0  0  2  0  0  0  0  0  0  0  0  0
   -2.1106    2.7679    0.1740 C   0  0  0  0  0  0  0  0  0  0  0  0
    2.9763    2.7104    0.6342 C   0  0  0  0  0  0  0  0  0  0  0  0
    0.5675    3.5811   -1.0858 C   0  0  0  0  0  0  0  0  0  0  0  0
   -3.3501    0.9119   -0.9545 C   0  0  2  0  0  0  0  0  0  0  0  0
    1.9189   -0.7480   -0.8446 C   0  0  0  0  0  0  0  0  0  0  0  0
   -3.2319    1.5697   -2.3303 C   0  0  0  0  0  0  0  0  0  0  0  0
   -4.6210    1.3690   -0.2340 C   0  0  0  0  0  0  0  0  0  0  0  0
    5.4058    0.5955    0.4565 C   0  0  0  0  0  0  0  0  0  0  0  0
    6.6098    0.3132   -0.4213 C   0  0  0  0  0  0  0  0  0  0  0  0
   -4.8166   -0.9112    0.8917 C   0  0  0  0  0  0  0  0  0  0  0  0
   -6.4385    0.8771    1.3565 C   0  0  0  0  0  0  0  0  0  0  0  0
    7.1609   -1.0776   -0.2490 C   0  0  0  0  0  0  0  0  0  0  0  0
   -5.8708   -1.9039    0.4947 C   0  0  0  0  0  0  0  0  0  0  0  0
    8.1474   -1.3233    0.7059 C   0  0  0  0  0  0  0  0  0  0  0  0
    6.6850   -2.1201   -1.0442 C   0  0  0  0  0  0  0  0  0  0  0  0
   -6.3297   -1.9768   -0.8158 C   0  0  0  0  0  0  0  0  0  0  0  0
   -6.4157   -2.7772    1.4221 C   0  0  0  0  0  0  0  0  0  0  0  0
    8.6582   -2.6115    0.8658 C   0  0  0  0  0  0  0  0  0  0  0  0
    7.1955   -3.4082   -0.8845 C   0  0  0  0  0  0  0  0  0  0  0  0
    8.1822   -3.6539    0.0706 C   0  0  0  0  0  0  0  0  0  0  0  0
   -7.3057   -2.9076   -1.1540 C   0  0  0  0  0  0  0  0  0  0  0  0
   -7.7863   -3.7361   -0.1528 C   0  0  0  0  0  0  0  0  0  0  0  0
    0.4065    0.7496    0.9905 H   0  0  0  0  0  0  0  0  0  0  0  0
    1.9484    1.2357   -1.6012 H   0  0  0  0  0  0  0  0  0  0  0  0
   -0.7094    1.0935   -1.8062 H   0  0  0  0  0  0  0  0  0  0  0  0
   -0.8902    4.2701    1.1084 H   0  0  0  0  0  0  0  0  0  0  0  0
   -0.9022    2.7254    1.9423 H   0  0  0  0  0  0  0  0  0  0  0  0
   -2.2236    0.7512    0.8552 H   0  0  0  0  0  0  0  0  0  0  0  0
    1.6435    4.2421    1.3324 H   0  0  0  0  0  0  0  0  0  0  0  0
    1.4715    2.7002    2.1547 H   0  0  0  0  0  0  0  0  0  0  0  0
    2.9373    0.6624    1.2370 H   0  0  0  0  0  0  0  0  0  0  0  0
   -2.9669    3.0483    0.7974 H   0  0  0  0  0  0  0  0  0  0  0  0
   -2.1724    3.3798   -0.7273 H   0  0  0  0  0  0  0  0  0  0  0  0
    3.2497    3.3056   -0.2456 H   0  0  0  0  0  0  0  0  0  0  0  0
    3.7436    2.9353    1.3863 H   0  0  0  0  0  0  0  0  0  0  0  0
    1.5118    3.4031   -1.6066 H   0  0  0  0  0  0  0  0  0  0  0  0
    0.5104    4.6582   -0.8892 H   0  0  0  0  0  0  0  0  0  0  0  0
   -0.2279    3.3385   -1.7959 H   0  0  0  0  0  0  0  0  0  0  0  0
   -3.3975   -0.1594   -1.1575 H   0  0  0  0  0  0  0  0  0  0  0  0
    1.2723   -1.0617   -1.6689 H   0  0  0  0  0  0  0  0  0  0  0  0
    1.6458   -1.3037    0.0583 H   0  0  0  0  0  0  0  0  0  0  0  0
    2.9286   -1.0590   -1.1319 H   0  0  0  0  0  0  0  0  0  0  0  0
    4.3747    0.9987   -1.3108 H   0  0  0  0  0  0  0  0  0  0  0  0
   -0.9142   -0.9611    0.1492 H   0  0  0  0  0  0  0  0  0  0  0  0
   -2.4111    1.1662   -2.9280 H   0  0  0  0  0  0  0  0  0  0  0  0
   -4.1443    1.3535   -2.9022 H   0  0  0  0  0  0  0  0  0  0  0  0
   -3.1572    2.6588   -2.3143 H   0  0  0  0  0  0  0  0  0  0  0  0
    7.3781    1.0551   -0.1678 H   0  0  0  0  0  0  0  0  0  0  0  0
    6.3847    0.4839   -1.4812 H   0  0  0  0  0  0  0  0  0  0  0  0
   -3.8758   -1.1761    0.4093 H   0  0  0  0  0  0  0  0  0  0  0  0
   -4.6160   -0.9785    1.9688 H   0  0  0  0  0  0  0  0  0  0  0  0
   -7.3148    0.3980    0.9111 H   0  0  0  0  0  0  0  0  0  0  0  0
   -6.5815    1.9600    1.3067 H   0  0  0  0  0  0  0  0  0  0  0  0
   -6.3507    0.5904    2.4088 H   0  0  0  0  0  0  0  0  0  0  0  0
    8.5253   -0.5199    1.3327 H   0  0  0  0  0  0  0  0  0  0  0  0
    5.9147   -1.9411   -1.7898 H   0  0  0  0  0  0  0  0  0  0  0  0
   -5.9325   -1.3182   -1.5832 H   0  0  0  0  0  0  0  0  0  0  0  0
   -6.1000   -2.7703    2.4608 H   0  0  0  0  0  0  0  0  0  0  0  0
    9.4260   -2.8029    1.6097 H   0  0  0  0  0  0  0  0  0  0  0  0
    6.8245   -4.2201   -1.5031 H   0  0  0  0  0  0  0  0  0  0  0  0
    8.5795   -4.6570    0.1951 H   0  0  0  0  0  0  0  0  0  0  0  0
   -7.6776   -2.9830   -2.1694 H   0  0  0  0  0  0  0  0  0  0  0  0
   -8.5479   -4.4793   -0.3650 H   0  0  0  0  0  0  0  0  0  0  0  0
  1 10  1  0  0  0  0
  1 58  1  0  0  0  0
  2 21  2  0  0  0  0
  3 22  2  0  0  0  0
  4 14  1  0  0  0  0
  4 22  1  0  0  0  0
  4 57  1  0  0  0  0
  5 21  1  0  0  0  0
  5 24  1  0  0  0  0
  5 25  1  0  0  0  0
  6 31  1  0  0  0  0
  6 36  2  0  0  0  0
  7  8  1  0  0  0  0
  7 11  1  0  0  0  0
  7 13  1  0  0  0  0
  7 17  1  0  0  0  0
  8  9  1  0  0  0  0
  8 10  1  0  0  0  0
  8 37  1  0  0  0  0
  9 14  1  0  0  0  0
  9 19  1  0  0  0  0
  9 38  1  0  0  0  0
 10 12  1  0  0  0  0
 10 39  1  0  0  0  0
 11 15  1  0  0  0  0
 11 40  1  0  0  0  0
 11 41  1  0  0  0  0
 12 15  1  0  0  0  0
 12 18  1  0  0  0  0
 12 42  1  0  0  0  0
 13 16  1  0  0  0  0
 13 43  1  0  0  0  0
 13 44  1  0  0  0  0
 14 16  1  0  0  0  0
 14 45  1  0  0  0  0
 15 46  1  0  0  0  0
 15 47  1  0  0  0  0
 16 48  1  0  0  0  0
 16 49  1  0  0  0  0
 17 50  1  0  0  0  0
 17 51  1  0  0  0  0
 17 52  1  0  0  0  0
 18 20  1  0  0  0  0
 18 21  1  0  0  0  0
 18 53  1  0  0  0  0
 19 54  1  0  0  0  0
 19 55  1  0  0  0  0
 19 56  1  0  0  0  0
 20 59  1  0  0  0  0
 20 60  1  0  0  0  0
 20 61  1  0  0  0  0
 22 23  1  0  0  0  0
 23 26  1  0  0  0  0
 23 62  1  0  0  0  0
 23 63  1  0  0  0  0
 24 27  1  0  0  0  0
 24 64  1  0  0  0  0
 24 65  1  0  0  0  0
 25 66  1  0  0  0  0
 25 67  1  0  0  0  0
 25 68  1  0  0  0  0
 26 28  2  0  0  0  0
 26 29  1  0  0  0  0
 27 30  1  0  0  0  0
 27 31  2  0  0  0  0
 28 32  1  0  0  0  0
 28 69  1  0  0  0  0
 29 33  2  0  0  0  0
 29 70  1  0  0  0  0
 30 35  2  0  0  0  0
 30 71  1  0  0  0  0
 31 72  1  0  0  0  0
 32 34  2  0  0  0  0
 32 73  1  0  0  0  0
 33 34  1  0  0  0  0
 33 74  1  0  0  0  0
 34 75  1  0  0  0  0
 35 36  1  0  0  0  0
 35 76  1  0  0  0  0
 36 77  1  0  0  0  0
M  END
> <PUBCHEM_COMPOUND_CID>
45361530

> <PUBCHEM_CONFORMER_RMSD>
1.4

> <PUBCHEM_CONFORMER_DIVERSEORDER>
1
55
57
97
60
115
43
83
125
81
82
136
118
67
90
140
102
46
65
117
23
89
91
126
114
101
146
73
131
137
87
20
96
98
134
143
88
129
106
148
2
93
68
149
14
28
107
79
138
52
74
127
147
62
135
61
121
92
37
133
122
10
77
103
48
40
15
35
139
72
8
50
42
104
34
145
119
113
132
29
70
141
109
49
39
13
142
53
144
9
51
38
41
112
116
120
33
108
130
7
123
31
24
22
18
56
3
32
99
85
111
128
95
110
16
69
124
80
78
47
76
63
59
6
36
58
27
30
64
75
17
21
11
86
100
105
54
19
25
66
84
71
5
12
4
45
94
44
26

> <PUBCHEM_MMFF94_PARTIAL_CHARGES>
36
1 -0.68
10 0.28
14 0.3
18 0.06
2 -0.57
21 0.57
22 0.57
23 0.2
24 0.44
25 0.3
26 -0.14
27 -0.14
28 -0.15
29 -0.15
3 -0.57
30 -0.15
31 0.16
32 -0.15
33 -0.15
34 -0.15
35 -0.15
36 0.16
4 -0.73
5 -0.66
57 0.37
58 0.4
6 -0.62
69 0.15
70 0.15
71 0.15
72 0.15
73 0.15
74 0.15
75 0.15
76 0.15
77 0.15

> <PUBCHEM_EFFECTIVE_ROTOR_COUNT>
10.6

> <PUBCHEM_PHARMACOPHORE_FEATURES>
11
1 1 acceptor
1 1 donor
1 2 acceptor
1 20 hydrophobe
1 3 acceptor
1 4 donor
1 6 acceptor
6 26 28 29 32 33 34 rings
6 6 27 30 31 35 36 rings
6 7 8 10 11 12 15 rings
6 7 8 9 13 14 16 rings

> <PUBCHEM_HEAVY_ATOM_COUNT>
36

> <PUBCHEM_ATOM_DEF_STEREO_COUNT>
6

> <PUBCHEM_ATOM_UDEF_STEREO_COUNT>
1

> <PUBCHEM_BOND_DEF_STEREO_COUNT>
0

> <PUBCHEM_BOND_UDEF_STEREO_COUNT>
0

> <PUBCHEM_ISOTOPIC_ATOM_COUNT>
0

> <PUBCHEM_COMPONENT_COUNT>
1

> <PUBCHEM_CACTVS_TAUTO_COUNT>
2

> <PUBCHEM_CONFORMER_ID>
02B4297A00000001

> <PUBCHEM_MMFF94_ENERGY>
111.2187

> <PUBCHEM_FEATURE_SELFOVERLAP>
55.836

> <PUBCHEM_SHAPE_FINGERPRINT>
10740516 88 18116161133049555691
11411753 3 18337933658731874848
11456790 92 16845570899318320874
11578821 258 9655275052903128130
117089 54 18408890663009406843
11963148 33 18336540543455904762
12013929 27 18187087226674662182
12120059 9 18265310898800014656
125118 31 10015859882562314726
12522641 126 18041850643864880340
12539765 74 10953732297032623992
12895837 130 8142089741485958521
13165053 103 18271237210328527551
13383668 362 18341882031837645616
13782708 43 18260827124351519837
14344974 204 18412547612919152863
15064986 96 17560811996210002311
15152005 304 18339092565494081266
15347591 1 18410855481641136305
15510800 12 18187372090343840795
16990366 60 18411699898497083896
16993089 31 18335697256311954359
16994733 274 10663815265738256838
18608769 82 18337391531126920898
19841028 212 18336265644679928586
2026 5 18409728465158614179
20691028 202 9583226237624345906
21130935 74 18343302595436811776
21682296 61 18411420643981730137
24771750 20 17900266600914750436
25025965 108 18130776902779647359
2747138 104 18130509614100156382
3383291 50 18411134693839534194
3504750 166 18201719596457899415
393628 194 9871458816409030955
406291 66 18410855485972383978
4616759 239 17703514277500369177
4625314 4 18334293158847169813
474113 269 18200023084518755503
49967989 163 16298669494877868235
5718773 13 18410856585409723402
58083652 198 16415183590241535552
5937810 71 7925915894015108911
6201320 82 8862664663478979818
636775 72 9943804491578982435
636775 8 18340778036195226198
6691757 9 15554157134326399997
9896288 288 18057608663830074985

> <PUBCHEM_SHAPE_MULTIPOLES>
708.31
27.35
5.32
1.37
19.38
2.09
0.15
40.41
-3.67
-2.34
-0.36
-0.98
-0.06
1.46

> <PUBCHEM_SHAPE_SELFOVERLAP>
1490.887

> <PUBCHEM_SHAPE_VOLUME>
392.8

> <PUBCHEM_COORDINATE_TYPE>
2
5
10

$$$$
