26743622
  -OEChem-12032416293D

 47 50  0     1  0  0  0  0  0999 V2000
    6.3358   -0.7547    0.3660 F   0  0  0  0  0  0  0  0  0  0  0  0
    5.9492    0.8257    1.8085 F   0  0  0  0  0  0  0  0  0  0  0  0
    6.5663    1.3216   -0.2167 F   0  0  0  0  0  0  0  0  0  0  0  0
   -5.1317    3.4945    1.3857 O   0  0  0  0  0  0  0  0  0  0  0  0
   -1.5183    0.5244   -2.2260 O   0  0  0  0  0  0  0  0  0  0  0  0
   -2.1996   -2.1566    0.9189 O   0  0  0  0  0  0  0  0  0  0  0  0
    0.7037   -2.3674    1.6639 O   0  0  0  0  0  0  0  0  0  0  0  0
   -3.6990    0.3361    0.5236 N   0  0  1  0  0  0  0  0  0  0  0  0
   -0.7121    1.0034   -0.1920 N   0  0  0  0  0  0  0  0  0  0  0  0
   -0.1312    0.3478   -2.3054 N   0  0  0  0  0  0  0  0  0  0  0  0
   -3.2272    1.1684   -0.6017 C   0  0  1  0  0  0  0  0  0  0  0  0
   -3.4835    2.6191   -0.1530 C   0  0  0  0  0  0  0  0  0  0  0  0
   -4.1424    2.4982    1.2154 C   0  0  2  0  0  0  0  0  0  0  0  0
   -4.7428    1.1054    1.1982 C   0  0  0  0  0  0  0  0  0  0  0  0
   -4.1691   -0.9789    0.1078 C   0  0  0  0  0  0  0  0  0  0  0  0
   -1.7761    0.9106   -0.9490 C   0  0  0  0  0  0  0  0  0  0  0  0
   -3.0283   -1.9314   -0.1341 C   0  0  0  0  0  0  0  0  0  0  0  0
   -2.6226   -2.6544   -1.2318 C   0  0  0  0  0  0  0  0  0  0  0  0
    0.2726    0.6487   -1.0676 C   0  0  0  0  0  0  0  0  0  0  0  0
   -1.2540   -3.0330    0.4888 C   0  0  0  0  0  0  0  0  0  0  0  0
   -1.4703   -3.3698   -0.8272 C   0  0  0  0  0  0  0  0  0  0  0  0
    1.6513    0.6065   -0.6740 C   0  0  0  0  0  0  0  0  0  0  0  0
   -0.2367   -3.4272    1.4736 C   0  0  0  0  0  0  0  0  0  0  0  0
    2.0139    0.9330    0.6328 C   0  0  0  0  0  0  0  0  0  0  0  0
    2.6294    0.2384   -1.5978 C   0  0  0  0  0  0  0  0  0  0  0  0
    3.3544    0.8916    1.0156 C   0  0  0  0  0  0  0  0  0  0  0  0
    3.9700    0.1969   -1.2151 C   0  0  0  0  0  0  0  0  0  0  0  0
    4.3325    0.5236    0.0917 C   0  0  0  0  0  0  0  0  0  0  0  0
    5.7658    0.4792    0.5011 C   0  0  0  0  0  0  0  0  0  0  0  0
   -3.8401    0.9931   -1.4972 H   0  0  0  0  0  0  0  0  0  0  0  0
   -2.5716    3.2234   -0.0836 H   0  0  0  0  0  0  0  0  0  0  0  0
   -4.1508    3.1230   -0.8636 H   0  0  0  0  0  0  0  0  0  0  0  0
   -3.3967    2.5908    2.0146 H   0  0  0  0  0  0  0  0  0  0  0  0
   -4.9349    0.7431    2.2136 H   0  0  0  0  0  0  0  0  0  0  0  0
   -5.6937    1.0964    0.6490 H   0  0  0  0  0  0  0  0  0  0  0  0
   -4.8206   -0.9274   -0.7736 H   0  0  0  0  0  0  0  0  0  0  0  0
   -4.7709   -1.4265    0.9106 H   0  0  0  0  0  0  0  0  0  0  0  0
   -4.6920    4.3586    1.3109 H   0  0  0  0  0  0  0  0  0  0  0  0
   -3.0956   -2.6643   -2.2033 H   0  0  0  0  0  0  0  0  0  0  0  0
   -0.8732   -4.0451   -1.4232 H   0  0  0  0  0  0  0  0  0  0  0  0
   -0.7001   -3.6538    2.4391 H   0  0  0  0  0  0  0  0  0  0  0  0
    0.3110   -4.3127    1.1359 H   0  0  0  0  0  0  0  0  0  0  0  0
    1.2749    1.2225    1.3758 H   0  0  0  0  0  0  0  0  0  0  0  0
    2.3848   -0.0230   -2.6243 H   0  0  0  0  0  0  0  0  0  0  0  0
    3.6160    1.1491    2.0382 H   0  0  0  0  0  0  0  0  0  0  0  0
    4.7253   -0.0910   -1.9415 H   0  0  0  0  0  0  0  0  0  0  0  0
    1.3517   -2.6777    2.3192 H   0  0  0  0  0  0  0  0  0  0  0  0
  1 29  1  0  0  0  0
  2 29  1  0  0  0  0
  3 29  1  0  0  0  0
  4 13  1  0  0  0  0
  4 38  1  0  0  0  0
  5 10  1  0  0  0  0
  5 16  1  0  0  0  0
  6 17  1  0  0  0  0
  6 20  1  0  0  0  0
  7 23  1  0  0  0  0
  7 47  1  0  0  0  0
  8 11  1  0  0  0  0
  8 14  1  0  0  0  0
  8 15  1  0  0  0  0
  9 16  2  0  0  0  0
  9 19  1  0  0  0  0
 10 19  2  0  0  0  0
 11 12  1  0  0  0  0
 11 16  1  0  0  0  0
 11 30  1  0  0  0  0
 12 13  1  0  0  0  0
 12 31  1  0  0  0  0
 12 32  1  0  0  0  0
 13 14  1  0  0  0  0
 13 33  1  0  0  0  0
 14 34  1  0  0  0  0
 14 35  1  0  0  0  0
 15 17  1  0  0  0  0
 15 36  1  0  0  0  0
 15 37  1  0  0  0  0
 17 18  2  0  0  0  0
 18 21  1  0  0  0  0
 18 39  1  0  0  0  0
 19 22  1  0  0  0  0
 20 21  2  0  0  0  0
 20 23  1  0  0  0  0
 21 40  1  0  0  0  0
 22 24  2  0  0  0  0
 22 25  1  0  0  0  0
 23 41  1  0  0  0  0
 23 42  1  0  0  0  0
 24 26  1  0  0  0  0
 24 43  1  0  0  0  0
 25 27  2  0  0  0  0
 25 44  1  0  0  0  0
 26 28  2  0  0  0  0
 26 45  1  0  0  0  0
 27 28  1  0  0  0  0
 27 46  1  0  0  0  0
 28 29  1  0  0  0  0
M  END
> <PUBCHEM_COMPOUND_CID>
26743622

> <PUBCHEM_CONFORMER_RMSD>
0.8

> <PUBCHEM_CONFORMER_DIVERSEORDER>
1
168
150
190
64
145
16
182
75
8
163
3
116
87
29
26
141
138
89
155
175
37
152
112
60
134
180
49
122
172
41
90
67
96
181
130
30
153
144
187
71
164
5
79
58
108
47
126
117
136
20
106
148
42
143
124
36
43
191
105
177
31
140
128
33
146
186
110
156
174
44
183
99
170
95
139
189
6
98
80
86
50
158
54
178
24
167
113
179
165
65
2
162
40
28
25
13
104
142
22
78
85
169
133
137
151
23
45
9
159
68
166
147
91
77
15
84
101
17
173
14
176
10
97
111
118
35
161
88
114
51
62
94
135
39
69
61
72
27
184
76
55
66
103
19
32
131
38
59
100
46
129
154
149
4
81
93
83
107
92
119
123
12
185
132
7
109
56
160
63
157
127
53
73
115
125
21
11
188
121
18
48
74
102
171
120
82
70
52
34
57

> <PUBCHEM_MMFF94_PARTIAL_CHARGES>
36
1 -0.34
10 -0.41
11 0.45
13 0.28
14 0.27
15 0.45
16 0.3
17 -0.04
18 -0.15
19 0.46
2 -0.34
20 -0.04
21 -0.15
22 0.05
23 0.46
24 -0.15
25 -0.15
26 -0.15
27 -0.15
28 -0.14
29 1.16
3 -0.34
38 0.4
39 0.15
4 -0.68
40 0.15
43 0.15
44 0.15
45 0.15
46 0.15
47 0.4
5 -0.02
6 -0.28
7 -0.68
8 -0.81
9 -0.57

> <PUBCHEM_EFFECTIVE_ROTOR_COUNT>
7

> <PUBCHEM_PHARMACOPHORE_FEATURES>
11
1 4 acceptor
1 4 donor
1 6 acceptor
1 7 acceptor
1 7 donor
1 8 cation
3 9 10 19 cation
5 5 9 10 16 19 rings
5 6 17 18 20 21 rings
5 8 11 12 13 14 rings
6 22 24 25 26 27 28 rings

> <PUBCHEM_HEAVY_ATOM_COUNT>
29

> <PUBCHEM_ATOM_DEF_STEREO_COUNT>
2

> <PUBCHEM_ATOM_UDEF_STEREO_COUNT>
0

> <PUBCHEM_BOND_DEF_STEREO_COUNT>
0

> <PUBCHEM_BOND_UDEF_STEREO_COUNT>
0

> <PUBCHEM_ISOTOPIC_ATOM_COUNT>
0

> <PUBCHEM_COMPONENT_COUNT>
1

> <PUBCHEM_CACTVS_TAUTO_COUNT>
1

> <PUBCHEM_CONFORMER_ID>
0198134600000001

> <PUBCHEM_MMFF94_ENERGY>
41.1038

> <PUBCHEM_FEATURE_SELFOVERLAP>
55.823

> <PUBCHEM_SHAPE_FINGERPRINT>
11370993 144 18343301461950261982
11552529 35 18196363943205321870
12156800 1 15580689462233027611
12293681 4 18131919260393857088
12422481 6 17677606467523990042
12616971 3 17240204352737079916
12633257 1 18335988648278363236
12788726 201 18048897461168339927
13004483 165 17839462529386282911
131258 38 16454626650528689923
13583140 156 17274823614044965510
13994607 96 13254528624967855215
14020679 6 18343866627716872960
14068700 675 18194677301464637543
14363568 33 17685774623079254219
14840074 17 17240482520198523638
14856354 85 18337394937136318036
15021287 119 17095520700022613596
15420108 30 18267864987423933263
16120349 306 18113890555063176754
19438510 23 17345485777888623361
20554085 129 18199454481913859153
20775438 99 15744983239869028510
21033648 29 18199767864002326649
21756936 100 18201430359399547193
23728640 28 18263651813142701147
3411729 13 18046920277585371209
5265222 85 18267043789597914918
5364581 5 17984128538417698328
59755656 520 18412261696956352892
602551 16 18335420214173483062
7064713 232 18333734606575762092

> <PUBCHEM_SHAPE_MULTIPOLES>
536.56
12.35
3.75
1.74
18.15
2.55
0.32
-7.62
-4.37
-5.81
-1.3
0.11
0.05
-1.16

> <PUBCHEM_SHAPE_SELFOVERLAP>
1170.139

> <PUBCHEM_SHAPE_VOLUME>
296

> <PUBCHEM_COORDINATE_TYPE>
2
5
10

$$$$
