45783832
  -OEChem-12032416343D

 60 64  0     1  0  0  0  0  0999 V2000
    0.9883    3.0939    1.4083 O   0  0  0  0  0  0  0  0  0  0  0  0
    2.9027   -4.8556    0.3011 O   0  0  0  0  0  0  0  0  0  0  0  0
    2.8733    1.1387   -1.0676 N   0  0  1  0  0  0  0  0  0  0  0  0
    3.1430   -2.6132    0.8590 N   0  0  0  0  0  0  0  0  0  0  0  0
    0.1017    1.7233   -0.1254 N   0  0  0  0  0  0  0  0  0  0  0  0
   -4.1417   -1.0263   -0.6739 N   0  0  0  0  0  0  0  0  0  0  0  0
   -0.3547    2.9238    1.7678 N   0  0  0  0  0  0  0  0  0  0  0  0
   -4.8167    0.7535    0.7024 N   0  0  0  0  0  0  0  0  0  0  0  0
    3.3852    0.0601   -0.2257 C   0  0  0  0  0  0  0  0  0  0  0  0
    2.5651    2.3699   -0.3129 C   0  0  1  0  0  0  0  0  0  0  0  0
    3.8244    1.5209   -2.1115 C   0  0  0  0  0  0  0  0  0  0  0  0
    2.7637    3.5108   -1.3279 C   0  0  0  0  0  0  0  0  0  0  0  0
    2.3745   -0.2693    0.8805 C   0  0  0  0  0  0  0  0  0  0  0  0
    3.6710   -1.1828   -1.0783 C   0  0  0  0  0  0  0  0  0  0  0  0
    3.2413    2.8303   -2.6029 C   0  0  0  0  0  0  0  0  0  0  0  0
    2.8455   -1.4592    1.7167 C   0  0  0  0  0  0  0  0  0  0  0  0
    4.1166   -2.3533   -0.2035 C   0  0  0  0  0  0  0  0  0  0  0  0
    1.1734    2.3539    0.2837 C   0  0  0  0  0  0  0  0  0  0  0  0
    2.6093   -3.8922    1.0136 C   0  0  0  0  0  0  0  0  0  0  0  0
   -0.8097    2.1033    0.8162 C   0  0  0  0  0  0  0  0  0  0  0  0
   -3.9310   -3.0929   -1.7763 C   0  0  0  0  0  0  0  0  0  0  0  0
   -5.3670   -2.6146   -1.9012 C   0  0  0  0  0  0  0  0  0  0  0  0
   -3.1694   -1.8170   -1.4247 C   0  0  0  0  0  0  0  0  0  0  0  0
   -5.4880   -1.5831   -0.7819 C   0  0  0  0  0  0  0  0  0  0  0  0
    1.6114   -4.0776    2.1287 C   0  0  0  0  0  0  0  0  0  0  0  0
   -2.1688    1.6461    0.7767 C   0  0  0  0  0  0  0  0  0  0  0  0
   -3.8273    0.1047    0.0483 C   0  0  0  0  0  0  0  0  0  0  0  0
   -2.5010    0.5058    0.0536 C   0  0  0  0  0  0  0  0  0  0  0  0
   -3.1591    2.3407    1.4626 C   0  0  0  0  0  0  0  0  0  0  0  0
   -4.4559    1.8574    1.3943 C   0  0  0  0  0  0  0  0  0  0  0  0
    4.3254    0.3719    0.2522 H   0  0  0  0  0  0  0  0  0  0  0  0
    3.2929    2.5200    0.4974 H   0  0  0  0  0  0  0  0  0  0  0  0
    3.8706    0.8024   -2.9352 H   0  0  0  0  0  0  0  0  0  0  0  0
    4.8342    1.6817   -1.7129 H   0  0  0  0  0  0  0  0  0  0  0  0
    1.8585    4.0982   -1.5161 H   0  0  0  0  0  0  0  0  0  0  0  0
    3.5397    4.1959   -0.9652 H   0  0  0  0  0  0  0  0  0  0  0  0
    2.2532    0.5551    1.5877 H   0  0  0  0  0  0  0  0  0  0  0  0
    1.3978   -0.5190    0.4476 H   0  0  0  0  0  0  0  0  0  0  0  0
    2.7691   -1.4728   -1.6339 H   0  0  0  0  0  0  0  0  0  0  0  0
    4.4636   -0.9986   -1.8115 H   0  0  0  0  0  0  0  0  0  0  0  0
    2.3884    2.6448   -3.2677 H   0  0  0  0  0  0  0  0  0  0  0  0
    3.9710    3.4372   -3.1469 H   0  0  0  0  0  0  0  0  0  0  0  0
    2.0917   -1.6931    2.4705 H   0  0  0  0  0  0  0  0  0  0  0  0
    3.7697   -1.2086    2.2514 H   0  0  0  0  0  0  0  0  0  0  0  0
    5.0756   -2.1296    0.2788 H   0  0  0  0  0  0  0  0  0  0  0  0
    4.2625   -3.2428   -0.8245 H   0  0  0  0  0  0  0  0  0  0  0  0
   -3.5576   -3.5651   -2.6892 H   0  0  0  0  0  0  0  0  0  0  0  0
   -3.8500   -3.8176   -0.9570 H   0  0  0  0  0  0  0  0  0  0  0  0
   -6.0965   -3.4236   -1.8054 H   0  0  0  0  0  0  0  0  0  0  0  0
   -5.5157   -2.1314   -2.8745 H   0  0  0  0  0  0  0  0  0  0  0  0
   -2.2831   -2.0841   -0.8392 H   0  0  0  0  0  0  0  0  0  0  0  0
   -2.8665   -1.2850   -2.3338 H   0  0  0  0  0  0  0  0  0  0  0  0
   -5.7696   -2.0635    0.1619 H   0  0  0  0  0  0  0  0  0  0  0  0
   -6.2355   -0.8242   -1.0360 H   0  0  0  0  0  0  0  0  0  0  0  0
    1.2644   -5.1155    2.1377 H   0  0  0  0  0  0  0  0  0  0  0  0
    2.0791   -3.8665    3.0940 H   0  0  0  0  0  0  0  0  0  0  0  0
    0.7443   -3.4304    1.9715 H   0  0  0  0  0  0  0  0  0  0  0  0
   -1.7242   -0.0267   -0.4834 H   0  0  0  0  0  0  0  0  0  0  0  0
   -2.9565    3.2387    2.0371 H   0  0  0  0  0  0  0  0  0  0  0  0
   -5.2653    2.3633    1.9103 H   0  0  0  0  0  0  0  0  0  0  0  0
  1  7  1  0  0  0  0
  1 18  1  0  0  0  0
  2 19  2  0  0  0  0
  3  9  1  0  0  0  0
  3 10  1  0  0  0  0
  3 11  1  0  0  0  0
  4 16  1  0  0  0  0
  4 17  1  0  0  0  0
  4 19  1  0  0  0  0
  5 18  2  0  0  0  0
  5 20  1  0  0  0  0
  6 23  1  0  0  0  0
  6 24  1  0  0  0  0
  6 27  1  0  0  0  0
  7 20  2  0  0  0  0
  8 27  2  0  0  0  0
  8 30  1  0  0  0  0
  9 13  1  0  0  0  0
  9 14  1  0  0  0  0
  9 31  1  0  0  0  0
 10 12  1  0  0  0  0
 10 18  1  0  0  0  0
 10 32  1  0  0  0  0
 11 15  1  0  0  0  0
 11 33  1  0  0  0  0
 11 34  1  0  0  0  0
 12 15  1  0  0  0  0
 12 35  1  0  0  0  0
 12 36  1  0  0  0  0
 13 16  1  0  0  0  0
 13 37  1  0  0  0  0
 13 38  1  0  0  0  0
 14 17  1  0  0  0  0
 14 39  1  0  0  0  0
 14 40  1  0  0  0  0
 15 41  1  0  0  0  0
 15 42  1  0  0  0  0
 16 43  1  0  0  0  0
 16 44  1  0  0  0  0
 17 45  1  0  0  0  0
 17 46  1  0  0  0  0
 19 25  1  0  0  0  0
 20 26  1  0  0  0  0
 21 22  1  0  0  0  0
 21 23  1  0  0  0  0
 21 47  1  0  0  0  0
 21 48  1  0  0  0  0
 22 24  1  0  0  0  0
 22 49  1  0  0  0  0
 22 50  1  0  0  0  0
 23 51  1  0  0  0  0
 23 52  1  0  0  0  0
 24 53  1  0  0  0  0
 24 54  1  0  0  0  0
 25 55  1  0  0  0  0
 25 56  1  0  0  0  0
 25 57  1  0  0  0  0
 26 28  2  0  0  0  0
 26 29  1  0  0  0  0
 27 28  1  0  0  0  0
 28 58  1  0  0  0  0
 29 30  2  0  0  0  0
 29 59  1  0  0  0  0
 30 60  1  0  0  0  0
M  END
> <PUBCHEM_COMPOUND_CID>
45783832

> <PUBCHEM_CONFORMER_RMSD>
1

> <PUBCHEM_CONFORMER_DIVERSEORDER>
1
52
42
51
32
43
41
21
49
33
25
50
55
46
35
57
30
34
24
23
26
15
17
39
12
38
10
18
56
22
54
37
16
53
45
28
36
27
7
3
13
44
20
5
9
6
19
14
40
29
48
31
2
4
8
11
47

> <PUBCHEM_MMFF94_PARTIAL_CHARGES>
27
1 -0.02
10 0.45
11 0.27
16 0.3
17 0.3
18 0.3
19 0.57
2 -0.57
20 0.46
23 0.37
24 0.37
25 0.06
26 0.05
27 0.41
28 -0.15
29 -0.15
3 -0.81
30 0.16
4 -0.66
5 -0.57
58 0.15
59 0.15
6 -0.84
60 0.15
7 -0.41
8 -0.62
9 0.27

> <PUBCHEM_EFFECTIVE_ROTOR_COUNT>
8.2

> <PUBCHEM_PHARMACOPHORE_FEATURES>
9
1 2 acceptor
1 3 cation
3 5 7 20 cation
3 6 8 27 cation
5 1 5 7 18 20 rings
5 3 10 11 12 15 rings
5 6 21 22 23 24 rings
6 4 9 13 14 16 17 rings
6 8 26 27 28 29 30 rings

> <PUBCHEM_HEAVY_ATOM_COUNT>
30

> <PUBCHEM_ATOM_DEF_STEREO_COUNT>
1

> <PUBCHEM_ATOM_UDEF_STEREO_COUNT>
0

> <PUBCHEM_BOND_DEF_STEREO_COUNT>
0

> <PUBCHEM_BOND_UDEF_STEREO_COUNT>
0

> <PUBCHEM_ISOTOPIC_ATOM_COUNT>
0

> <PUBCHEM_COMPONENT_COUNT>
1

> <PUBCHEM_CACTVS_TAUTO_COUNT>
1

> <PUBCHEM_CONFORMER_ID>
02BA9B1800000001

> <PUBCHEM_MMFF94_ENERGY>
66.6913

> <PUBCHEM_FEATURE_SELFOVERLAP>
45.674

> <PUBCHEM_SHAPE_FINGERPRINT>
10074138 170 15755658329363606361
10622 236 18340478976947503383
10928967 22 18272379702120795267
11069576 57 18408876352273426198
11186622 123 18128816541822518167
114674 6 17624686152571987065
11796584 16 17917445219460906805
12218070 45 18198037232753370962
12788726 201 18130515235943165447
13383661 66 17184478054036523403
13726171 33 17487645088912711009
14040222 75 15315445849712299543
14068700 675 18340763750775296762
14117953 113 17476077926251311949
14480069 147 18334867147146045235
14674994 50 17470425354010496372
14705955 166 15767239012838930850
15003188 105 18054492862424641575
15250474 111 18342176687250906949
15403338 16 17391363905574590795
15537594 2 18338812108418156555
16989713 51 17397820186604395186
17138139 8 18198914784575436964
17809404 112 17903600078743298594
19319366 153 18194114355268295350
20764821 26 17977087286990407155
20775530 9 17899131607791073106
21054139 6 18268998759668849756
21703447 108 17629748231445628617
235170 7 17241038933359270949
23559900 14 17702401558299557421
25222932 49 17773585212281494076
4017518 198 16756623414322242222
437795 96 15384429510172260179
4394409 98 17979063887306981069
444735 86 17914609716505992453
463206 1 18411704270309808074
474144 1 18410854360796337135
4756261 7 17979315907561630170
5223283 242 17171208786971218775
6422251 121 17835515304249954103
66674814 147 18187359969681990898
6823239 73 17131563828698714508
86090 222 17403730542280643811

> <PUBCHEM_SHAPE_MULTIPOLES>
575.76
11.23
6.06
2.18
12.54
4.76
-0.51
5.01
-4.65
-4.58
1.21
-0.26
-0.08
-6.17

> <PUBCHEM_SHAPE_SELFOVERLAP>
1235.512

> <PUBCHEM_SHAPE_VOLUME>
319.4

> <PUBCHEM_COORDINATE_TYPE>
2
5
10

$$$$
