75536313
  -OEChem-12032416303D

 54 57  0     1  0  0  0  0  0999 V2000
    2.9047   -0.3909    0.8337 O   0  0  0  0  0  0  0  0  0  0  0  0
    5.6651    0.2220    1.6657 O   0  0  0  0  0  0  0  0  0  0  0  0
   -0.9937   -2.4124   -1.3449 O   0  0  0  0  0  0  0  0  0  0  0  0
    1.4080    1.9074    0.0614 N   0  0  0  0  0  0  0  0  0  0  0  0
    0.3713   -2.6301   -1.4873 N   0  0  0  0  0  0  0  0  0  0  0  0
    3.5330    0.8958    0.7643 C   0  0  1  0  0  0  0  0  0  0  0  0
    5.0391    0.7682    0.5017 C   0  0  2  0  0  0  0  0  0  0  0  0
    3.1055   -1.2281   -0.3076 C   0  0  1  0  0  0  0  0  0  0  0  0
    5.3482   -0.1583   -0.6712 C   0  0  0  0  0  0  0  0  0  0  0  0
    4.5951   -1.4787   -0.5367 C   0  0  0  0  0  0  0  0  0  0  0  0
    2.8263    1.7997   -0.2436 C   0  0  0  0  0  0  0  0  0  0  0  0
    2.3683   -2.5369   -0.0514 C   0  0  0  0  0  0  0  0  0  0  0  0
    0.8868   -2.3959   -0.2771 C   0  0  0  0  0  0  0  0  0  0  0  0
    0.7327    2.7777   -0.8925 C   0  0  0  0  0  0  0  0  0  0  0  0
   -0.0953   -2.0304    0.6597 C   0  0  0  0  0  0  0  0  0  0  0  0
   -0.7351    2.9135   -0.5861 C   0  0  0  0  0  0  0  0  0  0  0  0
   -1.2592   -2.0558   -0.0621 C   0  0  0  0  0  0  0  0  0  0  0  0
   -2.6373   -1.7986    0.2397 C   0  0  0  0  0  0  0  0  0  0  0  0
   -1.6503    2.0231   -1.1474 C   0  0  0  0  0  0  0  0  0  0  0  0
   -1.1796    3.9300    0.2594 C   0  0  0  0  0  0  0  0  0  0  0  0
   -3.0103    2.1492   -0.8634 C   0  0  0  0  0  0  0  0  0  0  0  0
   -2.5393    4.0561    0.5434 C   0  0  0  0  0  0  0  0  0  0  0  0
   -3.0110   -1.4284    1.5315 C   0  0  0  0  0  0  0  0  0  0  0  0
   -3.6040   -1.9188   -0.7585 C   0  0  0  0  0  0  0  0  0  0  0  0
   -3.4547    3.1658   -0.0180 C   0  0  0  0  0  0  0  0  0  0  0  0
   -4.3516   -1.1783    1.8252 C   0  0  0  0  0  0  0  0  0  0  0  0
   -4.9445   -1.6687   -0.4650 C   0  0  0  0  0  0  0  0  0  0  0  0
   -5.3183   -1.2985    0.8270 C   0  0  0  0  0  0  0  0  0  0  0  0
    3.4018    1.3311    1.7638 H   0  0  0  0  0  0  0  0  0  0  0  0
    5.4825    1.7562    0.3352 H   0  0  0  0  0  0  0  0  0  0  0  0
    2.6816   -0.7434   -1.1953 H   0  0  0  0  0  0  0  0  0  0  0  0
    6.4233   -0.3662   -0.7249 H   0  0  0  0  0  0  0  0  0  0  0  0
    5.0637    0.3266   -1.6122 H   0  0  0  0  0  0  0  0  0  0  0  0
    4.7505   -2.0871   -1.4349 H   0  0  0  0  0  0  0  0  0  0  0  0
    5.0112   -2.0373    0.3114 H   0  0  0  0  0  0  0  0  0  0  0  0
    2.9538    1.4216   -1.2637 H   0  0  0  0  0  0  0  0  0  0  0  0
    3.2895    2.7935   -0.2074 H   0  0  0  0  0  0  0  0  0  0  0  0
    2.5377   -2.8805    0.9771 H   0  0  0  0  0  0  0  0  0  0  0  0
    2.7419   -3.3230   -0.7202 H   0  0  0  0  0  0  0  0  0  0  0  0
    0.9866    0.9788    0.0386 H   0  0  0  0  0  0  0  0  0  0  0  0
    6.6226    0.1931    1.4983 H   0  0  0  0  0  0  0  0  0  0  0  0
    0.8495    2.3938   -1.9146 H   0  0  0  0  0  0  0  0  0  0  0  0
    1.1882    3.7766   -0.8867 H   0  0  0  0  0  0  0  0  0  0  0  0
    0.0359   -1.7855    1.7036 H   0  0  0  0  0  0  0  0  0  0  0  0
   -1.3164    1.2248   -1.8051 H   0  0  0  0  0  0  0  0  0  0  0  0
   -0.4765    4.6290    0.7044 H   0  0  0  0  0  0  0  0  0  0  0  0
   -3.7231    1.4564   -1.3005 H   0  0  0  0  0  0  0  0  0  0  0  0
   -2.8855    4.8471    1.2022 H   0  0  0  0  0  0  0  0  0  0  0  0
   -2.2808   -1.3256    2.3300 H   0  0  0  0  0  0  0  0  0  0  0  0
   -3.3525   -2.2038   -1.7769 H   0  0  0  0  0  0  0  0  0  0  0  0
   -4.5135    3.2634    0.2036 H   0  0  0  0  0  0  0  0  0  0  0  0
   -4.6428   -0.8893    2.8309 H   0  0  0  0  0  0  0  0  0  0  0  0
   -5.6976   -1.7612   -1.2421 H   0  0  0  0  0  0  0  0  0  0  0  0
   -6.3619   -1.1031    1.0554 H   0  0  0  0  0  0  0  0  0  0  0  0
  1  6  1  0  0  0  0
  1  8  1  0  0  0  0
  2  7  1  0  0  0  0
  2 41  1  0  0  0  0
  3  5  1  0  0  0  0
  3 17  1  0  0  0  0
  4 11  1  0  0  0  0
  4 14  1  0  0  0  0
  4 40  1  0  0  0  0
  5 13  2  0  0  0  0
  6  7  1  0  0  0  0
  6 11  1  0  0  0  0
  6 29  1  0  0  0  0
  7  9  1  0  0  0  0
  7 30  1  0  0  0  0
  8 10  1  0  0  0  0
  8 12  1  0  0  0  0
  8 31  1  0  0  0  0
  9 10  1  0  0  0  0
  9 32  1  0  0  0  0
  9 33  1  0  0  0  0
 10 34  1  0  0  0  0
 10 35  1  0  0  0  0
 11 36  1  0  0  0  0
 11 37  1  0  0  0  0
 12 13  1  0  0  0  0
 12 38  1  0  0  0  0
 12 39  1  0  0  0  0
 13 15  1  0  0  0  0
 14 16  1  0  0  0  0
 14 42  1  0  0  0  0
 14 43  1  0  0  0  0
 15 17  2  0  0  0  0
 15 44  1  0  0  0  0
 16 19  2  0  0  0  0
 16 20  1  0  0  0  0
 17 18  1  0  0  0  0
 18 23  2  0  0  0  0
 18 24  1  0  0  0  0
 19 21  1  0  0  0  0
 19 45  1  0  0  0  0
 20 22  2  0  0  0  0
 20 46  1  0  0  0  0
 21 25  2  0  0  0  0
 21 47  1  0  0  0  0
 22 25  1  0  0  0  0
 22 48  1  0  0  0  0
 23 26  1  0  0  0  0
 23 49  1  0  0  0  0
 24 27  2  0  0  0  0
 24 50  1  0  0  0  0
 25 51  1  0  0  0  0
 26 28  2  0  0  0  0
 26 52  1  0  0  0  0
 27 28  1  0  0  0  0
 27 53  1  0  0  0  0
 28 54  1  0  0  0  0
M  END
> <PUBCHEM_COMPOUND_CID>
75536313

> <PUBCHEM_CONFORMER_RMSD>
1

> <PUBCHEM_CONFORMER_DIVERSEORDER>
1
45
80
136
155
101
112
51
43
115
46
104
119
141
147
151
2
116
148
12
145
113
90
128
39
54
150
69
108
100
41
48
121
142
37
105
74
57
124
135
102
85
95
16
88
127
140
83
4
134
76
68
53
96
97
62
111
19
21
50
103
23
86
30
40
153
36
144
55
84
35
138
131
14
34
98
10
152
24
79
52
89
157
114
44
110
75
125
78
162
25
13
137
94
107
143
58
117
158
154
156
11
120
59
29
118
38
81
31
126
33
73
82
77
70
91
161
20
71
9
28
18
5
129
133
160
87
22
67
106
159
27
26
15
139
123
63
132
66
7
65
32
130
93
56
92
47
109
61
6
8
146
42
3
72
49
60
122
149
99
17
64

> <PUBCHEM_MMFF94_PARTIAL_CHARGES>
39
1 -0.56
11 0.27
12 0.18
13 0.11
14 0.41
15 -0.15
16 -0.14
17 0.09
18 0.05
19 -0.15
2 -0.68
20 -0.15
21 -0.15
22 -0.15
23 -0.15
24 -0.15
25 -0.15
26 -0.15
27 -0.15
28 -0.15
3 -0.02
4 -0.9
40 0.36
41 0.4
44 0.15
45 0.15
46 0.15
47 0.15
48 0.15
49 0.15
5 -0.41
50 0.15
51 0.15
52 0.15
53 0.15
54 0.15
6 0.28
7 0.28
8 0.28

> <PUBCHEM_EFFECTIVE_ROTOR_COUNT>
8.2

> <PUBCHEM_PHARMACOPHORE_FEATURES>
10
1 1 acceptor
1 2 acceptor
1 2 donor
1 4 cation
1 4 donor
1 5 acceptor
5 3 5 13 15 17 rings
6 1 6 7 8 9 10 rings
6 16 19 20 21 22 25 rings
6 18 23 24 26 27 28 rings

> <PUBCHEM_HEAVY_ATOM_COUNT>
28

> <PUBCHEM_ATOM_DEF_STEREO_COUNT>
3

> <PUBCHEM_ATOM_UDEF_STEREO_COUNT>
0

> <PUBCHEM_BOND_DEF_STEREO_COUNT>
0

> <PUBCHEM_BOND_UDEF_STEREO_COUNT>
0

> <PUBCHEM_ISOTOPIC_ATOM_COUNT>
0

> <PUBCHEM_COMPONENT_COUNT>
1

> <PUBCHEM_CACTVS_TAUTO_COUNT>
1

> <PUBCHEM_CONFORMER_ID>
048097B900000001

> <PUBCHEM_MMFF94_ENERGY>
54.7672

> <PUBCHEM_FEATURE_SELFOVERLAP>
50.748

> <PUBCHEM_SHAPE_FINGERPRINT>
10006869 2 18192140509112051355
10670039 82 18261972781872711902
10688039 33 18040996266988588140
1100329 8 17615685137986113370
11014199 57 17979637063066116390
11513181 2 18058442106571042823
12156800 1 18050041863325003973
12293681 4 18114470079680736162
12422481 6 18266203689610205249
12788726 201 18264785418094305028
13075007 39 17680447816081680763
13140716 1 18048034365736174058
13402501 40 18409728452504917733
14363568 33 17830475112286631305
14790565 3 17038389259188501164
14840074 17 18267876149184014419
14955137 171 18120948449589232403
150020 26 17612045067656302993
15276724 80 18339647854084865044
15968369 153 18201140084050658332
17852330 162 18194713452979653734
20764821 26 18336836277359424077
21033648 144 18130784598843700006
21360443 126 18115021897137045805
21796203 349 17901983985439957001
22113638 7 18053100915221663055
3014063 31 18409729598997474341
3052486 1 18261117344482785244
338550 245 18334303066898845788
463206 1 18193556903010064927
469060 322 16877663431043988943
474 4 18268151027186761627
508706 21 18335987497290171411
5283268 108 18335712670928012426
653340 110 18341047432811465600

> <PUBCHEM_SHAPE_MULTIPOLES>
548.66
11.01
5.21
1.29
6.57
4.59
0.21
-2.99
2.73
-4.4
-0.63
-0.37
-0.35
0.85

> <PUBCHEM_SHAPE_SELFOVERLAP>
1174.996

> <PUBCHEM_SHAPE_VOLUME>
303.3

> <PUBCHEM_COORDINATE_TYPE>
2
5
10

$$$$
