40475061
  -OEChem-12032416393D

 65 70  0     1  0  0  0  0  0999 V2000
   -2.4948    2.3457   -0.9506 S   0  0  0  0  0  0  0  0  0  0  0  0
    0.2437    3.8245   -0.8996 O   0  0  0  0  0  0  0  0  0  0  0  0
    3.0900   -0.1644   -2.5847 O   0  0  0  0  0  0  0  0  0  0  0  0
   -3.0954    3.4940   -1.6029 O   0  0  0  0  0  0  0  0  0  0  0  0
   -1.4927    1.5551   -1.6401 O   0  0  0  0  0  0  0  0  0  0  0  0
   -6.8884   -1.3191    0.5674 O   0  0  0  0  0  0  0  0  0  0  0  0
    3.8189    0.3650   -0.4252 N   0  0  0  0  0  0  0  0  0  0  0  0
    1.8211    2.6847    0.4051 N   0  0  0  0  0  0  0  0  0  0  0  0
   -1.9159    2.7957    0.5749 N   0  0  0  0  0  0  0  0  0  0  0  0
    4.3383    2.7711   -0.0558 C   0  0  1  0  0  0  0  0  0  0  0  0
    3.4808    1.4045    1.8046 C   0  0  2  0  0  0  0  0  0  0  0  0
    4.4776    2.5034    1.4390 C   0  0  0  0  0  0  0  0  0  0  0  0
    4.6404    1.4940   -0.8609 C   0  0  0  0  0  0  0  0  0  0  0  0
    2.9284    3.3080   -0.3321 C   0  0  0  0  0  0  0  0  0  0  0  0
    3.8221    0.1182    1.0259 C   0  0  0  0  0  0  0  0  0  0  0  0
    2.0586    1.8299    1.4903 C   0  0  0  0  0  0  0  0  0  0  0  0
    1.0341    1.3588    2.2246 C   0  0  0  0  0  0  0  0  0  0  0  0
    0.5157    3.0674    0.0313 C   0  0  0  0  0  0  0  0  0  0  0  0
    3.0967   -0.3658   -1.3716 C   0  0  0  0  0  0  0  0  0  0  0  0
   -0.5730    2.4964    0.8636 C   0  0  0  0  0  0  0  0  0  0  0  0
   -0.3254    1.6996    1.9036 C   0  0  0  0  0  0  0  0  0  0  0  0
    2.2501   -1.4632   -0.8921 C   0  0  0  0  0  0  0  0  0  0  0  0
    2.7753   -2.7510   -0.7810 C   0  0  0  0  0  0  0  0  0  0  0  0
    0.9235   -1.2198   -0.5489 C   0  0  0  0  0  0  0  0  0  0  0  0
    1.9780   -3.8131   -0.3241 C   0  0  0  0  0  0  0  0  0  0  0  0
    0.1170   -2.2629   -0.0932 C   0  0  0  0  0  0  0  0  0  0  0  0
    0.6289   -3.5654    0.0249 C   0  0  0  0  0  0  0  0  0  0  0  0
   -3.8072    1.2514   -0.4945 C   0  0  0  0  0  0  0  0  0  0  0  0
    2.4899   -5.1155   -0.2061 C   0  0  0  0  0  0  0  0  0  0  0  0
   -0.1683   -4.6275    0.4815 C   0  0  0  0  0  0  0  0  0  0  0  0
   -3.5545   -0.1108   -0.3323 C   0  0  0  0  0  0  0  0  0  0  0  0
   -5.0955    1.7498   -0.2999 C   0  0  0  0  0  0  0  0  0  0  0  0
    1.6834   -6.1588    0.2493 C   0  0  0  0  0  0  0  0  0  0  0  0
    0.3568   -5.9153    0.5926 C   0  0  0  0  0  0  0  0  0  0  0  0
   -4.5898   -0.9745    0.0245 C   0  0  0  0  0  0  0  0  0  0  0  0
   -6.1308    0.8859    0.0568 C   0  0  0  0  0  0  0  0  0  0  0  0
   -5.8780   -0.4762    0.2192 C   0  0  0  0  0  0  0  0  0  0  0  0
   -6.5597   -2.6996    0.7165 C   0  0  0  0  0  0  0  0  0  0  0  0
    5.0640    3.5347   -0.3618 H   0  0  0  0  0  0  0  0  0  0  0  0
    3.5780    1.1968    2.8781 H   0  0  0  0  0  0  0  0  0  0  0  0
    4.2800    3.4159    2.0152 H   0  0  0  0  0  0  0  0  0  0  0  0
    5.5005    2.1877    1.6776 H   0  0  0  0  0  0  0  0  0  0  0  0
    4.5059    1.6809   -1.9316 H   0  0  0  0  0  0  0  0  0  0  0  0
    5.6868    1.1998   -0.7141 H   0  0  0  0  0  0  0  0  0  0  0  0
    2.8994    4.3726   -0.0624 H   0  0  0  0  0  0  0  0  0  0  0  0
    2.7031    3.2633   -1.4051 H   0  0  0  0  0  0  0  0  0  0  0  0
    4.8321   -0.2218    1.2865 H   0  0  0  0  0  0  0  0  0  0  0  0
    3.1371   -0.6868    1.3030 H   0  0  0  0  0  0  0  0  0  0  0  0
    1.1960    0.6848    3.0593 H   0  0  0  0  0  0  0  0  0  0  0  0
   -1.1103    1.2751    2.5205 H   0  0  0  0  0  0  0  0  0  0  0  0
   -2.5510    2.5792    1.3562 H   0  0  0  0  0  0  0  0  0  0  0  0
    3.8147   -2.9294   -1.0522 H   0  0  0  0  0  0  0  0  0  0  0  0
    0.5041   -0.2224   -0.6378 H   0  0  0  0  0  0  0  0  0  0  0  0
   -0.9149   -2.0527    0.1752 H   0  0  0  0  0  0  0  0  0  0  0  0
    3.5240   -5.3291   -0.4687 H   0  0  0  0  0  0  0  0  0  0  0  0
   -1.2081   -4.4602    0.7553 H   0  0  0  0  0  0  0  0  0  0  0  0
   -2.5586   -0.5149   -0.4790 H   0  0  0  0  0  0  0  0  0  0  0  0
   -5.3129    2.8078   -0.4147 H   0  0  0  0  0  0  0  0  0  0  0  0
    2.0915   -7.1615    0.3359 H   0  0  0  0  0  0  0  0  0  0  0  0
   -0.2705   -6.7280    0.9470 H   0  0  0  0  0  0  0  0  0  0  0  0
   -4.3234   -2.0203    0.1342 H   0  0  0  0  0  0  0  0  0  0  0  0
   -7.1321    1.2799    0.2085 H   0  0  0  0  0  0  0  0  0  0  0  0
   -7.4803   -3.2229    0.9949 H   0  0  0  0  0  0  0  0  0  0  0  0
   -5.8438   -2.8572    1.5304 H   0  0  0  0  0  0  0  0  0  0  0  0
   -6.2171   -3.1360   -0.2280 H   0  0  0  0  0  0  0  0  0  0  0  0
  1  4  2  0  0  0  0
  1  5  2  0  0  0  0
  1  9  1  0  0  0  0
  1 28  1  0  0  0  0
  2 18  2  0  0  0  0
  3 19  2  0  0  0  0
  6 37  1  0  0  0  0
  6 38  1  0  0  0  0
  7 13  1  0  0  0  0
  7 15  1  0  0  0  0
  7 19  1  0  0  0  0
  8 14  1  0  0  0  0
  8 16  1  0  0  0  0
  8 18  1  0  0  0  0
  9 20  1  0  0  0  0
  9 51  1  0  0  0  0
 10 12  1  0  0  0  0
 10 13  1  0  0  0  0
 10 14  1  0  0  0  0
 10 39  1  0  0  0  0
 11 12  1  0  0  0  0
 11 15  1  0  0  0  0
 11 16  1  0  0  0  0
 11 40  1  0  0  0  0
 12 41  1  0  0  0  0
 12 42  1  0  0  0  0
 13 43  1  0  0  0  0
 13 44  1  0  0  0  0
 14 45  1  0  0  0  0
 14 46  1  0  0  0  0
 15 47  1  0  0  0  0
 15 48  1  0  0  0  0
 16 17  2  0  0  0  0
 17 21  1  0  0  0  0
 17 49  1  0  0  0  0
 18 20  1  0  0  0  0
 19 22  1  0  0  0  0
 20 21  2  0  0  0  0
 21 50  1  0  0  0  0
 22 23  2  0  0  0  0
 22 24  1  0  0  0  0
 23 25  1  0  0  0  0
 23 52  1  0  0  0  0
 24 26  2  0  0  0  0
 24 53  1  0  0  0  0
 25 27  1  0  0  0  0
 25 29  2  0  0  0  0
 26 27  1  0  0  0  0
 26 54  1  0  0  0  0
 27 30  2  0  0  0  0
 28 31  2  0  0  0  0
 28 32  1  0  0  0  0
 29 33  1  0  0  0  0
 29 55  1  0  0  0  0
 30 34  1  0  0  0  0
 30 56  1  0  0  0  0
 31 35  1  0  0  0  0
 31 57  1  0  0  0  0
 32 36  2  0  0  0  0
 32 58  1  0  0  0  0
 33 34  2  0  0  0  0
 33 59  1  0  0  0  0
 34 60  1  0  0  0  0
 35 37  2  0  0  0  0
 35 61  1  0  0  0  0
 36 37  1  0  0  0  0
 36 62  1  0  0  0  0
 38 63  1  0  0  0  0
 38 64  1  0  0  0  0
 38 65  1  0  0  0  0
M  END
> <PUBCHEM_COMPOUND_CID>
40475061

> <PUBCHEM_CONFORMER_RMSD>
1

> <PUBCHEM_CONFORMER_DIVERSEORDER>
1
41
64
72
55
81
40
38
22
11
50
52
56
63
86
77
79
66
43
80
76
70
83
73
59
42
19
84
24
67
68
44
13
7
33
29
18
20
57
48
65
49
58
23
39
51
82
78
85
61
54
3
62
15
69
30
74
5
17
32
4
75
47
45
16
71
87
34
25
31
26
10
28
53
36
27
8
21
6
35
46
60
14
12
2
37
9

> <PUBCHEM_MMFF94_PARTIAL_CHARGES>
48
1 1.45
11 0.14
13 0.3
14 0.3
15 0.3
16 -0.03
17 -0.15
18 0.62
19 0.54
2 -0.57
20 0.21
21 -0.15
22 0.09
23 -0.15
24 -0.15
26 -0.15
28 -0.01
29 -0.15
3 -0.57
30 -0.15
31 -0.15
32 -0.15
33 -0.15
34 -0.15
35 -0.15
36 -0.15
37 0.08
38 0.28
4 -0.65
49 0.15
5 -0.65
50 0.15
51 0.42
52 0.15
53 0.15
54 0.15
55 0.15
56 0.15
57 0.15
58 0.15
59 0.15
6 -0.36
60 0.15
61 0.15
62 0.15
7 -0.66
8 -0.47
9 -0.75

> <PUBCHEM_EFFECTIVE_ROTOR_COUNT>
7

> <PUBCHEM_PHARMACOPHORE_FEATURES>
12
1 2 acceptor
1 3 acceptor
1 4 acceptor
1 5 acceptor
1 6 acceptor
1 9 donor
6 22 23 24 25 26 27 rings
6 25 27 29 30 33 34 rings
6 28 31 32 35 36 37 rings
6 7 10 11 12 13 15 rings
6 8 10 11 12 14 16 rings
6 8 16 17 18 20 21 rings

> <PUBCHEM_HEAVY_ATOM_COUNT>
38

> <PUBCHEM_ATOM_DEF_STEREO_COUNT>
2

> <PUBCHEM_ATOM_UDEF_STEREO_COUNT>
0

> <PUBCHEM_BOND_DEF_STEREO_COUNT>
0

> <PUBCHEM_BOND_UDEF_STEREO_COUNT>
0

> <PUBCHEM_ISOTOPIC_ATOM_COUNT>
0

> <PUBCHEM_COMPONENT_COUNT>
1

> <PUBCHEM_CACTVS_TAUTO_COUNT>
3

> <PUBCHEM_CONFORMER_ID>
026999B500000001

> <PUBCHEM_MMFF94_ENERGY>
112.0257

> <PUBCHEM_FEATURE_SELFOVERLAP>
62.528

> <PUBCHEM_SHAPE_FINGERPRINT>
10074138 170 17765675356444774080
10316853 100 18267590293821021615
11014199 57 17474393473958128078
11204353 107 18340482266739829023
11488393 25 18336830775569550867
13347071 3 17406559581515181407
13402501 40 18341049726286922337
1361 2 18338800130018111995
14659021 117 16751268797438606090
15264996 163 16892593446240216579
15320467 1 18410014377279256799
15968369 26 18191281833163472081
17909252 39 18267870467000915011
19319366 153 18342729724008430679
20764821 26 18194953261080984143
20775438 99 17614240461464667021
20775530 9 17838613357931310598
23559900 14 17976529521288845397
3737641 26 18343023255491201065
4461854 278 18048611605504920459
4616759 239 16825562810976319122
484989 97 18339655498530520070
50080093 196 18055053613951608407
508706 21 17981327012279720055
5265222 85 18194965364241399404
66674814 147 17835775858202757999
86090 222 18271251632981103147

> <PUBCHEM_SHAPE_MULTIPOLES>
741.58
11.72
8.12
1.57
22.02
13.9
0.09
-2.35
0.44
-5.15
0.58
-1.13
-1
2.1

> <PUBCHEM_SHAPE_SELFOVERLAP>
1633.483

> <PUBCHEM_SHAPE_VOLUME>
398.5

> <PUBCHEM_COORDINATE_TYPE>
2
5
10

$$$$
