26742941
  -OEChem-12032416193D

 53 56  0     1  0  0  0  0  0999 V2000
   -1.1118   -2.3805   -1.7789 S   0  0  0  0  0  0  0  0  0  0  0  0
   -6.2908    0.5341    0.2974 F   0  0  0  0  0  0  0  0  0  0  0  0
    2.9353   -2.9736    1.5493 O   0  0  0  0  0  0  0  0  0  0  0  0
   -0.6214    3.0489   -0.6331 O   0  0  0  0  0  0  0  0  0  0  0  0
    5.7309    0.7002   -0.8898 N   0  0  0  0  0  0  0  0  0  0  0  0
    1.0251   -2.0554    0.5960 N   0  0  0  0  0  0  0  0  0  0  0  0
    0.7420    3.3064   -0.5559 N   0  0  0  0  0  0  0  0  0  0  0  0
    2.9336    0.0139   -0.2489 C   0  0  1  0  0  0  0  0  0  0  0  0
    3.4524    1.4714   -0.2736 C   0  0  2  0  0  0  0  0  0  0  0  0
    3.8275   -0.8524   -1.1520 C   0  0  0  0  0  0  0  0  0  0  0  0
    4.9595    1.5431    0.0244 C   0  0  0  0  0  0  0  0  0  0  0  0
    5.3120   -0.6983   -0.8238 C   0  0  0  0  0  0  0  0  0  0  0  0
    2.6753    2.4000    0.6605 C   0  0  0  0  0  0  0  0  0  0  0  0
    2.8323   -0.5885    1.1576 C   0  0  0  0  0  0  0  0  0  0  0  0
    1.2126    2.4166    0.3227 C   0  0  0  0  0  0  0  0  0  0  0  0
    2.3014   -2.0060    1.1371 C   0  0  0  0  0  0  0  0  0  0  0  0
    0.2025    1.5799    0.8279 C   0  0  0  0  0  0  0  0  0  0  0  0
   -0.9305    2.0187    0.1954 C   0  0  0  0  0  0  0  0  0  0  0  0
    0.2761   -3.2827    0.4518 C   0  0  0  0  0  0  0  0  0  0  0  0
   -2.3124    1.6366    0.2226 C   0  0  0  0  0  0  0  0  0  0  0  0
   -1.0542   -3.0551   -0.2060 C   0  0  0  0  0  0  0  0  0  0  0  0
   -2.7303    0.5884    1.0426 C   0  0  0  0  0  0  0  0  0  0  0  0
   -3.2385    2.3124   -0.5718 C   0  0  0  0  0  0  0  0  0  0  0  0
   -2.3121   -3.3199    0.2893 C   0  0  0  0  0  0  0  0  0  0  0  0
   -4.0742    0.2159    1.0681 C   0  0  0  0  0  0  0  0  0  0  0  0
   -4.5825    1.9400   -0.5465 C   0  0  0  0  0  0  0  0  0  0  0  0
   -3.3367   -2.9646   -0.6349 C   0  0  0  0  0  0  0  0  0  0  0  0
   -2.8228   -2.4416   -1.8011 C   0  0  0  0  0  0  0  0  0  0  0  0
   -5.0003    0.8918    0.2735 C   0  0  0  0  0  0  0  0  0  0  0  0
    1.9427    0.0023   -0.7175 H   0  0  0  0  0  0  0  0  0  0  0  0
    3.3115    1.8418   -1.3012 H   0  0  0  0  0  0  0  0  0  0  0  0
    3.6688   -0.5435   -2.1947 H   0  0  0  0  0  0  0  0  0  0  0  0
    3.5482   -1.9106   -1.1141 H   0  0  0  0  0  0  0  0  0  0  0  0
    5.3034    2.5772   -0.0946 H   0  0  0  0  0  0  0  0  0  0  0  0
    5.1690    1.2607    1.0632 H   0  0  0  0  0  0  0  0  0  0  0  0
    5.5409   -1.1189    0.1620 H   0  0  0  0  0  0  0  0  0  0  0  0
    5.8962   -1.2712   -1.5524 H   0  0  0  0  0  0  0  0  0  0  0  0
    3.0700    3.4211    0.5710 H   0  0  0  0  0  0  0  0  0  0  0  0
    2.8132    2.1223    1.7119 H   0  0  0  0  0  0  0  0  0  0  0  0
    2.1968   -0.0148    1.8323 H   0  0  0  0  0  0  0  0  0  0  0  0
    3.8166   -0.6187    1.6388 H   0  0  0  0  0  0  0  0  0  0  0  0
    6.7210    0.7675   -0.6561 H   0  0  0  0  0  0  0  0  0  0  0  0
    0.2657    0.7946    1.5635 H   0  0  0  0  0  0  0  0  0  0  0  0
    0.5635   -1.1906    0.3333 H   0  0  0  0  0  0  0  0  0  0  0  0
    0.1453   -3.7109    1.4523 H   0  0  0  0  0  0  0  0  0  0  0  0
    0.8794   -3.9898   -0.1291 H   0  0  0  0  0  0  0  0  0  0  0  0
   -2.0323    0.0415    1.6712 H   0  0  0  0  0  0  0  0  0  0  0  0
   -2.9522    3.1337   -1.2239 H   0  0  0  0  0  0  0  0  0  0  0  0
   -2.4937   -3.7465    1.2675 H   0  0  0  0  0  0  0  0  0  0  0  0
   -4.4002   -0.6003    1.7060 H   0  0  0  0  0  0  0  0  0  0  0  0
   -5.3043    2.4654   -1.1649 H   0  0  0  0  0  0  0  0  0  0  0  0
   -4.3966   -3.0847   -0.4529 H   0  0  0  0  0  0  0  0  0  0  0  0
   -3.3707   -2.0910   -2.6643 H   0  0  0  0  0  0  0  0  0  0  0  0
  1 21  1  0  0  0  0
  1 28  1  0  0  0  0
  2 29  1  0  0  0  0
  3 16  2  0  0  0  0
  4  7  1  0  0  0  0
  4 18  1  0  0  0  0
  5 11  1  0  0  0  0
  5 12  1  0  0  0  0
  5 42  1  0  0  0  0
  6 16  1  0  0  0  0
  6 19  1  0  0  0  0
  6 44  1  0  0  0  0
  7 15  2  0  0  0  0
  8  9  1  0  0  0  0
  8 10  1  0  0  0  0
  8 14  1  0  0  0  0
  8 30  1  0  0  0  0
  9 11  1  0  0  0  0
  9 13  1  0  0  0  0
  9 31  1  0  0  0  0
 10 12  1  0  0  0  0
 10 32  1  0  0  0  0
 10 33  1  0  0  0  0
 11 34  1  0  0  0  0
 11 35  1  0  0  0  0
 12 36  1  0  0  0  0
 12 37  1  0  0  0  0
 13 15  1  0  0  0  0
 13 38  1  0  0  0  0
 13 39  1  0  0  0  0
 14 16  1  0  0  0  0
 14 40  1  0  0  0  0
 14 41  1  0  0  0  0
 15 17  1  0  0  0  0
 17 18  2  0  0  0  0
 17 43  1  0  0  0  0
 18 20  1  0  0  0  0
 19 21  1  0  0  0  0
 19 45  1  0  0  0  0
 19 46  1  0  0  0  0
 20 22  2  0  0  0  0
 20 23  1  0  0  0  0
 21 24  2  0  0  0  0
 22 25  1  0  0  0  0
 22 47  1  0  0  0  0
 23 26  2  0  0  0  0
 23 48  1  0  0  0  0
 24 27  1  0  0  0  0
 24 49  1  0  0  0  0
 25 29  2  0  0  0  0
 25 50  1  0  0  0  0
 26 29  1  0  0  0  0
 26 51  1  0  0  0  0
 27 28  2  0  0  0  0
 27 52  1  0  0  0  0
 28 53  1  0  0  0  0
M  END
> <PUBCHEM_COMPOUND_CID>
26742941

> <PUBCHEM_CONFORMER_RMSD>
1.2

> <PUBCHEM_CONFORMER_DIVERSEORDER>
1
3
102
67
99
98
55
90
19
81
106
25
70
26
58
73
108
84
57
68
76
79
78
13
75
60
11
66
17
88
89
95
85
96
93
21
31
16
49
94
33
100
105
54
107
92
37
42
63
29
4
52
53
65
7
97
2
40
12
5
83
28
10
62
56
71
69
34
74
91
35
45
20
47
59
86
23
51
64
22
104
50
46
9
44
103
6
72
30
32
24
80
39
18
43
15
14
27
36
82
87
48
38
101
77
41
61
8

> <PUBCHEM_MMFF94_PARTIAL_CHARGES>
36
1 -0.08
11 0.27
12 0.27
13 0.18
14 0.06
15 0.11
16 0.57
17 -0.15
18 0.09
19 0.48
2 -0.19
20 0.05
21 -0.14
22 -0.15
23 -0.15
24 -0.15
25 -0.15
26 -0.15
27 -0.15
28 -0.11
29 0.19
3 -0.57
4 -0.02
42 0.36
43 0.15
44 0.37
47 0.15
48 0.15
49 0.15
5 -0.9
50 0.15
51 0.15
52 0.15
53 0.15
6 -0.73
7 -0.41

> <PUBCHEM_EFFECTIVE_ROTOR_COUNT>
9.2

> <PUBCHEM_PHARMACOPHORE_FEATURES>
9
1 3 acceptor
1 5 cation
1 5 donor
1 6 donor
1 7 acceptor
5 1 21 24 27 28 rings
5 4 7 15 17 18 rings
6 20 22 23 25 26 29 rings
6 5 8 9 10 11 12 rings

> <PUBCHEM_HEAVY_ATOM_COUNT>
29

> <PUBCHEM_ATOM_DEF_STEREO_COUNT>
2

> <PUBCHEM_ATOM_UDEF_STEREO_COUNT>
0

> <PUBCHEM_BOND_DEF_STEREO_COUNT>
0

> <PUBCHEM_BOND_UDEF_STEREO_COUNT>
0

> <PUBCHEM_ISOTOPIC_ATOM_COUNT>
0

> <PUBCHEM_COMPONENT_COUNT>
1

> <PUBCHEM_CACTVS_TAUTO_COUNT>
2

> <PUBCHEM_CONFORMER_ID>
0198109D00000001

> <PUBCHEM_MMFF94_ENERGY>
41.1844

> <PUBCHEM_FEATURE_SELFOVERLAP>
45.672

> <PUBCHEM_SHAPE_FINGERPRINT>
10190206 1 17035588777708940972
10871710 139 18339359785637158767
1100329 8 18412266176507171729
11014199 57 17690281929273696851
11513181 2 17842841023353806207
11578080 2 16486114262834853858
12107698 1 18128253600064016390
12422481 6 18053693501193732659
12553582 1 18339068320196927597
13122387 1 18339919316674890335
13402501 40 18411145718413382013
1361 2 18409729530910967921
14117953 113 17836074577362028383
14289585 56 17458341906163256420
14617045 38 18335146375517139321
14681490 219 17765984387652548303
14790565 3 18268437845197675545
14840074 17 18411426081547476909
15001296 14 18264761237369964241
15297060 5 17704081685186958715
15968369 153 17986941050691011099
17492 54 18335707091892069603
17627616 140 18335699373688840427
19319366 153 18041000609617834106
22393880 68 18411416237139575688
23227448 37 18411983585245197951
23558518 356 17976822313108612025
24941158 1 14924763646299710586
3052486 1 18337099189972628920
3298306 158 18337387120269503981
338550 245 18263369259823042861
463206 1 18338519741320383153
469060 322 17458619081397746375
508706 21 18265052607661343618
5171179 24 17842554325992379272
6287921 2 17341825422149224155
6438718 38 18059567039930849566
9896288 288 17262992564741597106

> <PUBCHEM_SHAPE_MULTIPOLES>
566.7
10.84
4.92
1.32
1.39
2.02
0.15
-2.81
1.27
-2.1
0.28
0.07
0.79
-0.98

> <PUBCHEM_SHAPE_SELFOVERLAP>
1201.504

> <PUBCHEM_SHAPE_VOLUME>
318.7

> <PUBCHEM_COORDINATE_TYPE>
2
5
10

$$$$
