7685286
  -OEChem-12032416153D

 35 38  0     1  0  0  0  0  0999 V2000
    3.0579    0.2820   -1.4125 S   0  0  0  0  0  0  0  0  0  0  0  0
   -2.7765    2.7117    0.1236 O   0  0  0  0  0  0  0  0  0  0  0  0
   -1.5021    0.7695   -0.1778 N   0  0  0  0  0  0  0  0  0  0  0  0
   -1.6353   -1.9561    1.4735 N   0  0  0  0  0  0  0  0  0  0  0  0
   -2.5944   -1.4724   -0.7851 C   0  0  2  0  0  0  0  0  0  0  0  0
   -0.1715   -1.3425   -0.4623 C   0  0  1  0  0  0  0  0  0  0  0  0
   -1.2586   -1.7692   -1.4463 C   0  0  0  0  0  0  0  0  0  0  0  0
   -2.7111    0.0405   -0.5874 C   0  0  0  0  0  0  0  0  0  0  0  0
   -0.2275    0.1655   -0.1895 C   0  0  0  0  0  0  0  0  0  0  0  0
   -2.7196   -2.2490    0.5384 C   0  0  0  0  0  0  0  0  0  0  0  0
   -0.3246   -2.1446    0.8497 C   0  0  0  0  0  0  0  0  0  0  0  0
    0.8795    0.9177    0.0527 C   0  0  0  0  0  0  0  0  0  0  0  0
   -1.6900    2.1326    0.1123 C   0  0  0  0  0  0  0  0  0  0  0  0
    0.7212    2.3278    0.3615 C   0  0  0  0  0  0  0  0  0  0  0  0
   -0.4722    2.9192    0.4092 C   0  0  0  0  0  0  0  0  0  0  0  0
    2.1539    0.3106    0.0414 C   0  0  0  0  0  0  0  0  0  0  0  0
    2.8239   -0.2992    1.0791 C   0  0  0  0  0  0  0  0  0  0  0  0
    4.0964   -0.7964    0.6751 C   0  0  0  0  0  0  0  0  0  0  0  0
    4.3505   -0.5477   -0.6557 C   0  0  0  0  0  0  0  0  0  0  0  0
   -3.4105   -1.8011   -1.4404 H   0  0  0  0  0  0  0  0  0  0  0  0
    0.7821   -1.6253   -0.9193 H   0  0  0  0  0  0  0  0  0  0  0  0
   -1.1620   -1.2307   -2.3973 H   0  0  0  0  0  0  0  0  0  0  0  0
   -1.1728   -2.8392   -1.6723 H   0  0  0  0  0  0  0  0  0  0  0  0
   -3.0155    0.4917   -1.5423 H   0  0  0  0  0  0  0  0  0  0  0  0
   -3.5163    0.2721    0.1215 H   0  0  0  0  0  0  0  0  0  0  0  0
   -3.6736   -2.0046    1.0192 H   0  0  0  0  0  0  0  0  0  0  0  0
   -2.7400   -3.3263    0.3298 H   0  0  0  0  0  0  0  0  0  0  0  0
   -0.1683   -3.2119    0.6463 H   0  0  0  0  0  0  0  0  0  0  0  0
    0.4435   -1.8519    1.5721 H   0  0  0  0  0  0  0  0  0  0  0  0
   -1.7156   -2.5584    2.2919 H   0  0  0  0  0  0  0  0  0  0  0  0
    1.6143    2.9090    0.5724 H   0  0  0  0  0  0  0  0  0  0  0  0
   -0.5788    3.9710    0.6461 H   0  0  0  0  0  0  0  0  0  0  0  0
    2.4306   -0.3853    2.0844 H   0  0  0  0  0  0  0  0  0  0  0  0
    4.7907   -1.3095    1.3277 H   0  0  0  0  0  0  0  0  0  0  0  0
    5.2335   -0.8135   -1.2197 H   0  0  0  0  0  0  0  0  0  0  0  0
  1 16  1  0  0  0  0
  1 19  1  0  0  0  0
  2 13  2  0  0  0  0
  3  8  1  0  0  0  0
  3  9  1  0  0  0  0
  3 13  1  0  0  0  0
  4 10  1  0  0  0  0
  4 11  1  0  0  0  0
  4 30  1  0  0  0  0
  5  7  1  0  0  0  0
  5  8  1  0  0  0  0
  5 10  1  0  0  0  0
  5 20  1  0  0  0  0
  6  7  1  0  0  0  0
  6  9  1  0  0  0  0
  6 11  1  0  0  0  0
  6 21  1  0  0  0  0
  7 22  1  0  0  0  0
  7 23  1  0  0  0  0
  8 24  1  0  0  0  0
  8 25  1  0  0  0  0
  9 12  2  0  0  0  0
 10 26  1  0  0  0  0
 10 27  1  0  0  0  0
 11 28  1  0  0  0  0
 11 29  1  0  0  0  0
 12 14  1  0  0  0  0
 12 16  1  0  0  0  0
 13 15  1  0  0  0  0
 14 15  2  0  0  0  0
 14 31  1  0  0  0  0
 15 32  1  0  0  0  0
 16 17  2  0  0  0  0
 17 18  1  0  0  0  0
 17 33  1  0  0  0  0
 18 19  2  0  0  0  0
 18 34  1  0  0  0  0
 19 35  1  0  0  0  0
M  END
> <PUBCHEM_COMPOUND_CID>
7685286

> <PUBCHEM_CONFORMER_RMSD>
0.6

> <PUBCHEM_CONFORMER_DIVERSEORDER>
1
2

> <PUBCHEM_MMFF94_PARTIAL_CHARGES>
23
1 -0.08
10 0.27
11 0.27
12 0.05
13 0.62
14 -0.15
15 -0.14
16 -0.01
17 -0.15
18 -0.15
19 -0.11
2 -0.57
3 -0.47
30 0.36
31 0.15
32 0.15
33 0.15
34 0.15
35 0.15
4 -0.9
6 0.14
8 0.3
9 -0.03

> <PUBCHEM_EFFECTIVE_ROTOR_COUNT>
2

> <PUBCHEM_PHARMACOPHORE_FEATURES>
7
1 2 acceptor
1 4 cation
1 4 donor
5 1 16 17 18 19 rings
6 3 5 6 7 8 9 rings
6 3 9 12 13 14 15 rings
6 4 5 6 7 10 11 rings

> <PUBCHEM_HEAVY_ATOM_COUNT>
19

> <PUBCHEM_ATOM_DEF_STEREO_COUNT>
2

> <PUBCHEM_ATOM_UDEF_STEREO_COUNT>
0

> <PUBCHEM_BOND_DEF_STEREO_COUNT>
0

> <PUBCHEM_BOND_UDEF_STEREO_COUNT>
0

> <PUBCHEM_ISOTOPIC_ATOM_COUNT>
0

> <PUBCHEM_COMPONENT_COUNT>
1

> <PUBCHEM_CACTVS_TAUTO_COUNT>
1

> <PUBCHEM_CONFORMER_ID>
007544A600000001

> <PUBCHEM_MMFF94_ENERGY>
44.645

> <PUBCHEM_FEATURE_SELFOVERLAP>
37.068

> <PUBCHEM_SHAPE_FINGERPRINT>
104564 63 18410859853916810810
10616163 171 18339925922709449918
10967382 1 17980477862832425164
11578080 2 16987699372450115729
11680986 33 18195236939471018913
12363563 72 18270114742142355734
12553582 1 18197500834081382494
12788726 201 18336839653156083600
13140716 1 18341332279385073905
13538477 17 18261114032994531852
14115302 16 17894908580980782214
14790565 3 18125454011627131032
15042514 8 18338802204060086888
15906896 17 18337678507444963361
16752209 62 18410284800771955638
16945 1 18342452651599973463
19049666 15 17900529387733192747
19591789 44 17692255136059412255
20361792 2 18199188571497436006
20510252 161 18342457049720370128
20645476 183 17969515822298310836
20871999 31 18411144632293058652
20905425 154 18055351336203374318
21041028 32 18267311005008713667
21296965 67 18268991053964153199
21524375 3 18051692140036560681
21731516 1 18198064879108734038
23184049 29 18339634659164434028
2334 1 18123745615401370317
23402539 116 18129926915227530525
23419403 2 17546389813504666692
23557571 272 18272655662702538388
23558518 356 18410570729719851693
23559900 14 18129095629414596942
23728640 28 18339354150529160482
2748010 2 18196076975049894061
31174 14 17543078230510621859
576247 118 17979949259911701270
598444 67 17970343926621944667
6992083 37 17773603912748422751
7364860 26 17766557228672727304
77492 1 17967534537110777324
81228 2 18412545388357922920
8809292 202 18409165523641204464
9709674 26 18271528577226512374

> <PUBCHEM_SHAPE_MULTIPOLES>
379.03
5.83
3.1
1.19
5.35
1.79
-0.1
-1.94
-0.45
-2.64
0.61
0.24
-0.55
-0.06

> <PUBCHEM_SHAPE_SELFOVERLAP>
824.549

> <PUBCHEM_SHAPE_VOLUME>
206.5

> <PUBCHEM_COORDINATE_TYPE>
2
5
10

$$$$
