11882508
  -OEChem-12032416133D

 51 54  0     1  0  0  0  0  0999 V2000
    2.6293   -2.9344    1.1342 O   0  0  0  0  0  0  0  0  0  0  0  0
    0.7184    1.9056    0.0014 O   0  0  0  0  0  0  0  0  0  0  0  0
   -3.9877    1.2567    2.3664 O   0  0  0  0  0  0  0  0  0  0  0  0
   -6.7529    1.5743    0.2904 O   0  0  0  0  0  0  0  0  0  0  0  0
    0.9688   -1.5942    0.1999 N   0  0  0  0  0  0  0  0  0  0  0  0
   -3.1212   -0.5114   -0.2630 N   0  0  0  0  0  0  0  0  0  0  0  0
    2.4319    0.5651    0.7373 N   0  0  0  0  0  0  0  0  0  0  0  0
   -3.6177   -1.3729   -1.1586 N   0  0  0  0  0  0  0  0  0  0  0  0
   -4.9006   -1.0674   -1.3197 N   0  0  0  0  0  0  0  0  0  0  0  0
   -3.4617    2.6665    0.6541 N   0  0  0  0  0  0  0  0  0  0  0  0
   -7.4971    0.0441   -1.2262 N   0  0  0  0  0  0  0  0  0  0  0  0
    0.7108   -0.4307   -0.6527 C   0  0  1  0  0  0  0  0  0  0  0  0
   -1.7077   -0.5967    0.1296 C   0  0  2  0  0  0  0  0  0  0  0  0
   -0.7653   -0.3051   -1.0536 C   0  0  0  0  0  0  0  0  0  0  0  0
   -1.3731   -1.9211    0.8527 C   0  0  0  0  0  0  0  0  0  0  0  0
   -0.0986   -2.5791    0.3297 C   0  0  0  0  0  0  0  0  0  0  0  0
    3.1968   -0.6651    0.6099 C   0  0  1  0  0  0  0  0  0  0  0  0
    2.2437   -1.8468    0.7057 C   0  0  0  0  0  0  0  0  0  0  0  0
    1.2362    0.7941    0.0799 C   0  0  0  0  0  0  0  0  0  0  0  0
    4.0579   -0.7087   -0.6424 C   0  0  0  0  0  0  0  0  0  0  0  0
   -4.0550    0.3673    0.1767 C   0  0  0  0  0  0  0  0  0  0  0  0
    5.3028    0.1273   -0.4936 C   0  0  0  0  0  0  0  0  0  0  0  0
   -5.1843   -0.0038   -0.5089 C   0  0  0  0  0  0  0  0  0  0  0  0
   -3.8535    1.4098    1.1299 C   0  0  0  0  0  0  0  0  0  0  0  0
    5.2754    1.4636   -0.8653 C   0  0  0  0  0  0  0  0  0  0  0  0
    6.4570   -0.4521    0.0132 C   0  0  0  0  0  0  0  0  0  0  0  0
   -6.4838    0.5884   -0.4315 C   0  0  0  0  0  0  0  0  0  0  0  0
    6.4277    2.2375   -0.7275 C   0  0  0  0  0  0  0  0  0  0  0  0
    7.6092    0.3221    0.1511 C   0  0  0  0  0  0  0  0  0  0  0  0
    7.5944    1.6669   -0.2193 C   0  0  0  0  0  0  0  0  0  0  0  0
    1.3057   -0.5445   -1.5661 H   0  0  0  0  0  0  0  0  0  0  0  0
   -1.5577    0.2074    0.8618 H   0  0  0  0  0  0  0  0  0  0  0  0
   -0.9782    0.6860   -1.4731 H   0  0  0  0  0  0  0  0  0  0  0  0
   -0.9690   -1.0212   -1.8614 H   0  0  0  0  0  0  0  0  0  0  0  0
   -2.1972   -2.6420    0.7963 H   0  0  0  0  0  0  0  0  0  0  0  0
   -1.2424   -1.6996    1.9205 H   0  0  0  0  0  0  0  0  0  0  0  0
    0.2054   -3.3858    1.0049 H   0  0  0  0  0  0  0  0  0  0  0  0
   -0.2633   -3.0262   -0.6576 H   0  0  0  0  0  0  0  0  0  0  0  0
    3.8237   -0.7096    1.5102 H   0  0  0  0  0  0  0  0  0  0  0  0
    2.8649    1.3478    1.2180 H   0  0  0  0  0  0  0  0  0  0  0  0
    3.5087   -0.3768   -1.5314 H   0  0  0  0  0  0  0  0  0  0  0  0
    4.3539   -1.7434   -0.8620 H   0  0  0  0  0  0  0  0  0  0  0  0
    4.3724    1.9181   -1.2630 H   0  0  0  0  0  0  0  0  0  0  0  0
    6.4782   -1.4977    0.3068 H   0  0  0  0  0  0  0  0  0  0  0  0
    6.4163    3.2845   -1.0158 H   0  0  0  0  0  0  0  0  0  0  0  0
    8.5176   -0.1219    0.5475 H   0  0  0  0  0  0  0  0  0  0  0  0
   -3.3261    2.8489   -0.3352 H   0  0  0  0  0  0  0  0  0  0  0  0
   -3.2983    3.4378    1.2925 H   0  0  0  0  0  0  0  0  0  0  0  0
    8.4915    2.2696   -0.1118 H   0  0  0  0  0  0  0  0  0  0  0  0
   -7.3343   -0.7495   -1.8378 H   0  0  0  0  0  0  0  0  0  0  0  0
   -8.4344    0.4322   -1.2140 H   0  0  0  0  0  0  0  0  0  0  0  0
  1 18  2  0  0  0  0
  2 19  2  0  0  0  0
  3 24  2  0  0  0  0
  4 27  2  0  0  0  0
  5 12  1  0  0  0  0
  5 16  1  0  0  0  0
  5 18  1  0  0  0  0
  6  8  1  0  0  0  0
  6 13  1  0  0  0  0
  6 21  1  0  0  0  0
  7 17  1  0  0  0  0
  7 19  1  0  0  0  0
  7 40  1  0  0  0  0
  8  9  2  0  0  0  0
  9 23  1  0  0  0  0
 10 24  1  0  0  0  0
 10 47  1  0  0  0  0
 10 48  1  0  0  0  0
 11 27  1  0  0  0  0
 11 50  1  0  0  0  0
 11 51  1  0  0  0  0
 12 14  1  0  0  0  0
 12 19  1  0  0  0  0
 12 31  1  0  0  0  0
 13 14  1  0  0  0  0
 13 15  1  0  0  0  0
 13 32  1  0  0  0  0
 14 33  1  0  0  0  0
 14 34  1  0  0  0  0
 15 16  1  0  0  0  0
 15 35  1  0  0  0  0
 15 36  1  0  0  0  0
 16 37  1  0  0  0  0
 16 38  1  0  0  0  0
 17 18  1  0  0  0  0
 17 20  1  0  0  0  0
 17 39  1  0  0  0  0
 20 22  1  0  0  0  0
 20 41  1  0  0  0  0
 20 42  1  0  0  0  0
 21 23  2  0  0  0  0
 21 24  1  0  0  0  0
 22 25  2  0  0  0  0
 22 26  1  0  0  0  0
 23 27  1  0  0  0  0
 25 28  1  0  0  0  0
 25 43  1  0  0  0  0
 26 29  2  0  0  0  0
 26 44  1  0  0  0  0
 28 30  2  0  0  0  0
 28 45  1  0  0  0  0
 29 30  1  0  0  0  0
 29 46  1  0  0  0  0
 30 49  1  0  0  0  0
M  END
> <PUBCHEM_COMPOUND_CID>
11882508

> <PUBCHEM_CONFORMER_RMSD>
0.8

> <PUBCHEM_CONFORMER_DIVERSEORDER>
1
64
124
88
12
107
55
76
147
5
92
77
36
126
136
49
45
65
150
29
60
28
139
132
27
20
152
70
114
40
89
67
134
15
104
140
142
61
129
93
85
144
80
151
59
30
116
57
101
118
131
72
135
138
71
99
23
130
108
44
21
33
22
128
97
51
38
86
133
111
41
113
119
105
149
75
32
46
34
39
137
35
8
53
117
47
42
141
121
4
143
123
81
78
94
11
148
26
56
145
96
25
50
7
62
83
91
10
112
63
82
95
153
69
90
115
102
17
48
31
125
24
18
58
84
54
3
122
109
68
52
98
6
110
146
120
43
103
13
74
73
66
106
87
2
9
100
127
14
79
16
19
37

> <PUBCHEM_MMFF94_PARTIAL_CHARGES>
38
1 -0.57
10 -0.8
11 -0.8
12 0.36
13 0.26
16 0.3
17 0.36
18 0.57
19 0.57
2 -0.57
20 0.14
21 -0.24
22 -0.14
23 0.14
24 0.71
25 -0.15
26 -0.15
27 0.72
28 -0.15
29 -0.15
3 -0.57
30 -0.15
4 -0.57
40 0.37
43 0.15
44 0.15
45 0.15
46 0.15
47 0.37
48 0.37
49 0.15
5 -0.66
50 0.37
51 0.37
6 0.31
7 -0.73
8 -0.42
9 -0.23

> <PUBCHEM_EFFECTIVE_ROTOR_COUNT>
6.2

> <PUBCHEM_PHARMACOPHORE_FEATURES>
11
1 1 acceptor
1 10 donor
1 11 donor
1 2 acceptor
1 3 acceptor
1 4 acceptor
1 7 donor
5 6 8 9 21 23 rings
6 22 25 26 28 29 30 rings
6 5 12 13 14 15 16 rings
6 5 7 12 17 18 19 rings

> <PUBCHEM_HEAVY_ATOM_COUNT>
30

> <PUBCHEM_ATOM_DEF_STEREO_COUNT>
3

> <PUBCHEM_ATOM_UDEF_STEREO_COUNT>
0

> <PUBCHEM_BOND_DEF_STEREO_COUNT>
0

> <PUBCHEM_BOND_UDEF_STEREO_COUNT>
0

> <PUBCHEM_ISOTOPIC_ATOM_COUNT>
0

> <PUBCHEM_COMPONENT_COUNT>
1

> <PUBCHEM_CACTVS_TAUTO_COUNT>
8

> <PUBCHEM_CONFORMER_ID>
00B5500C00000001

> <PUBCHEM_MMFF94_ENERGY>
85.0274

> <PUBCHEM_FEATURE_SELFOVERLAP>
55.872

> <PUBCHEM_SHAPE_FINGERPRINT>
10 15 16371009637523372428
106641 1 17385729119046132731
10670039 82 17203613648882578505
10906281 52 18411429405335381206
11315181 36 18273216421937620265
11524674 6 14418134036553482665
11578080 2 12758303639196498574
12236239 1 18342455911817988495
12422481 6 16660365917803268766
12838862 33 18263064622124673420
13668630 136 13183019631212853501
13685833 64 11384116353827258950
13782708 43 14189564257047608437
14251764 18 18272933825541967636
14394314 77 18339085891684414297
14790565 3 18409454695938145176
14849402 71 18409168835562708281
15183329 4 17417817244631415856
15348495 7 14779838212496076132
15419008 47 14764344925107803123
1577012 14 18272367521909840401
15840311 113 18259707800487844996
18608769 82 18262524813887858819
18681886 176 17632285817960656835
20715895 44 18261677069284908844
21150785 3 17418093230349882508
21298829 104 18408606929233657501
22224240 67 17603584140322012218
23559900 14 18129934706319629193
335352 9 18408045109562997294
34797466 226 15913323628689112488
397830 11 15358557383310885564
4073 2 18187086195349994626
4093350 32 15791999053083155808
4340502 62 16153423944186811242
5104073 3 17894352194281007666
54039377 194 10231754509049796097
5758199 1 18333731329869260054
58260988 393 14924212795021300894
59755656 215 17060340712641457079
6328613 192 18412266159691357840
9831232 110 11170729683340720896
9961470 85 18050002491577020236

> <PUBCHEM_SHAPE_MULTIPOLES>
559.04
20.24
2.44
1.18
5.88
0.41
-0.24
-10.99
3.69
0.87
-0.61
-1.3
-0.08
-1.84

> <PUBCHEM_SHAPE_SELFOVERLAP>
1211.319

> <PUBCHEM_SHAPE_VOLUME>
302.1

> <PUBCHEM_COORDINATE_TYPE>
2
5
10

$$$$
