38028596
  -OEChem-12032416253D

 62 63  0     1  0  0  0  0  0999 V2000
    0.4040    3.3083    1.2040 S   0  0  0  0  0  0  0  0  0  0  0  0
   -1.8416   -3.7589    0.1389 O   0  0  0  0  0  0  0  0  0  0  0  0
    0.3913    3.4464    2.6478 O   0  0  0  0  0  0  0  0  0  0  0  0
    0.6626    4.4614    0.3632 O   0  0  0  0  0  0  0  0  0  0  0  0
    4.4269   -0.7977   -0.2050 O   0  0  0  0  0  0  0  0  0  0  0  0
   -1.0415    2.5617    0.6981 N   0  0  0  0  0  0  0  0  0  0  0  0
   -0.2657   -2.9278    1.6311 N   0  0  0  0  0  0  0  0  0  0  0  0
   -1.3804    0.2833   -1.2186 C   0  0  1  0  0  0  0  0  0  0  0  0
   -2.3141    1.5148   -1.1111 C   0  0  1  0  0  0  0  0  0  0  0  0
   -2.2034   -1.0138   -1.2355 C   0  0  0  0  0  0  0  0  0  0  0  0
   -3.0724   -1.1689    0.0268 C   0  0  2  0  0  0  0  0  0  0  0  0
   -0.4919    0.3501   -2.4647 C   0  0  0  0  0  0  0  0  0  0  0  0
   -3.8245    0.1055    0.3527 C   0  0  0  0  0  0  0  0  0  0  0  0
   -3.4795    1.2932   -0.1757 C   0  0  0  0  0  0  0  0  0  0  0  0
   -1.5372    2.7614   -0.6726 C   0  0  0  0  0  0  0  0  0  0  0  0
   -2.2323   -1.6312    1.2224 C   0  0  0  0  0  0  0  0  0  0  0  0
    0.4870   -0.8195   -2.4837 C   0  0  0  0  0  0  0  0  0  0  0  0
   -1.3471    0.3605   -3.7277 C   0  0  0  0  0  0  0  0  0  0  0  0
   -5.0122   -0.0237    1.2654 C   0  0  0  0  0  0  0  0  0  0  0  0
   -1.4547   -2.8917    0.9175 C   0  0  0  0  0  0  0  0  0  0  0  0
    1.6074    2.0834    0.7845 C   0  0  0  0  0  0  0  0  0  0  0  0
    0.6779   -4.0180    1.5376 C   0  0  0  0  0  0  0  0  0  0  0  0
    2.2075    2.0984   -0.4747 C   0  0  0  0  0  0  0  0  0  0  0  0
    1.9547    1.1002    1.7110 C   0  0  0  0  0  0  0  0  0  0  0  0
    3.1549    1.1302   -0.8072 C   0  0  0  0  0  0  0  0  0  0  0  0
    2.9021    0.1320    1.3785 C   0  0  0  0  0  0  0  0  0  0  0  0
    3.5023    0.1470    0.1195 C   0  0  0  0  0  0  0  0  0  0  0  0
    1.6569   -3.7781    0.4779 C   0  0  0  0  0  0  0  0  0  0  0  0
    2.4623   -3.5851   -0.3913 C   0  0  0  0  0  0  0  0  0  0  0  0
    5.0008   -0.7232   -1.5093 C   0  0  0  0  0  0  0  0  0  0  0  0
   -0.7224    0.2442   -0.3417 H   0  0  0  0  0  0  0  0  0  0  0  0
   -2.7792    1.7455   -2.0727 H   0  0  0  0  0  0  0  0  0  0  0  0
   -1.5774   -1.8925   -1.3901 H   0  0  0  0  0  0  0  0  0  0  0  0
   -2.9034   -1.0001   -2.0806 H   0  0  0  0  0  0  0  0  0  0  0  0
   -3.8106   -1.9516   -0.1985 H   0  0  0  0  0  0  0  0  0  0  0  0
    0.1017    1.2695   -2.4464 H   0  0  0  0  0  0  0  0  0  0  0  0
   -4.0843    2.1675    0.0574 H   0  0  0  0  0  0  0  0  0  0  0  0
   -2.1948    3.6390   -0.6721 H   0  0  0  0  0  0  0  0  0  0  0  0
   -0.7170    2.9716   -1.3632 H   0  0  0  0  0  0  0  0  0  0  0  0
   -2.8763   -1.8596    2.0805 H   0  0  0  0  0  0  0  0  0  0  0  0
   -1.5514   -0.8324    1.5411 H   0  0  0  0  0  0  0  0  0  0  0  0
    1.2840   -0.6243   -3.2106 H   0  0  0  0  0  0  0  0  0  0  0  0
    0.0188   -1.7617   -2.7848 H   0  0  0  0  0  0  0  0  0  0  0  0
    0.9623   -0.9634   -1.5089 H   0  0  0  0  0  0  0  0  0  0  0  0
   -1.9500   -0.5413   -3.8598 H   0  0  0  0  0  0  0  0  0  0  0  0
   -0.6835    0.4005   -4.6015 H   0  0  0  0  0  0  0  0  0  0  0  0
   -1.9906    1.2373   -3.8175 H   0  0  0  0  0  0  0  0  0  0  0  0
   -5.7234   -0.7522    0.8627 H   0  0  0  0  0  0  0  0  0  0  0  0
   -5.5455    0.9254    1.3852 H   0  0  0  0  0  0  0  0  0  0  0  0
   -4.7007   -0.3536    2.2611 H   0  0  0  0  0  0  0  0  0  0  0  0
   -1.7415    2.3407    1.4166 H   0  0  0  0  0  0  0  0  0  0  0  0
   -0.0267   -2.1557    2.2465 H   0  0  0  0  0  0  0  0  0  0  0  0
    1.1746   -4.1007    2.5093 H   0  0  0  0  0  0  0  0  0  0  0  0
    0.1333   -4.9499    1.3532 H   0  0  0  0  0  0  0  0  0  0  0  0
    1.9473    2.8509   -1.2136 H   0  0  0  0  0  0  0  0  0  0  0  0
    1.4928    1.0655    2.6936 H   0  0  0  0  0  0  0  0  0  0  0  0
    3.5794    1.1986   -1.8029 H   0  0  0  0  0  0  0  0  0  0  0  0
    3.1660   -0.6337    2.1029 H   0  0  0  0  0  0  0  0  0  0  0  0
    3.1736   -3.4165   -1.1656 H   0  0  0  0  0  0  0  0  0  0  0  0
    5.7131   -1.5502   -1.5964 H   0  0  0  0  0  0  0  0  0  0  0  0
    5.5677    0.2037   -1.6473 H   0  0  0  0  0  0  0  0  0  0  0  0
    4.2456   -0.8684   -2.2895 H   0  0  0  0  0  0  0  0  0  0  0  0
  1  3  2  0  0  0  0
  1  4  2  0  0  0  0
  1  6  1  0  0  0  0
  1 21  1  0  0  0  0
  2 20  2  0  0  0  0
  5 27  1  0  0  0  0
  5 30  1  0  0  0  0
  6 15  1  0  0  0  0
  6 51  1  0  0  0  0
  7 20  1  0  0  0  0
  7 22  1  0  0  0  0
  7 52  1  0  0  0  0
  8  9  1  0  0  0  0
  8 10  1  0  0  0  0
  8 12  1  0  0  0  0
  8 31  1  0  0  0  0
  9 14  1  0  0  0  0
  9 15  1  0  0  0  0
  9 32  1  0  0  0  0
 10 11  1  0  0  0  0
 10 33  1  0  0  0  0
 10 34  1  0  0  0  0
 11 13  1  0  0  0  0
 11 16  1  0  0  0  0
 11 35  1  0  0  0  0
 12 17  1  0  0  0  0
 12 18  1  0  0  0  0
 12 36  1  0  0  0  0
 13 14  2  0  0  0  0
 13 19  1  0  0  0  0
 14 37  1  0  0  0  0
 15 38  1  0  0  0  0
 15 39  1  0  0  0  0
 16 20  1  0  0  0  0
 16 40  1  0  0  0  0
 16 41  1  0  0  0  0
 17 42  1  0  0  0  0
 17 43  1  0  0  0  0
 17 44  1  0  0  0  0
 18 45  1  0  0  0  0
 18 46  1  0  0  0  0
 18 47  1  0  0  0  0
 19 48  1  0  0  0  0
 19 49  1  0  0  0  0
 19 50  1  0  0  0  0
 21 23  2  0  0  0  0
 21 24  1  0  0  0  0
 22 28  1  0  0  0  0
 22 53  1  0  0  0  0
 22 54  1  0  0  0  0
 23 25  1  0  0  0  0
 23 55  1  0  0  0  0
 24 26  2  0  0  0  0
 24 56  1  0  0  0  0
 25 27  2  0  0  0  0
 25 57  1  0  0  0  0
 26 27  1  0  0  0  0
 26 58  1  0  0  0  0
 28 29  3  0  0  0  0
 29 59  1  0  0  0  0
 30 60  1  0  0  0  0
 30 61  1  0  0  0  0
 30 62  1  0  0  0  0
M  END
> <PUBCHEM_COMPOUND_CID>
38028596

> <PUBCHEM_CONFORMER_RMSD>
1.4

> <PUBCHEM_CONFORMER_DIVERSEORDER>
2
72
34
90
57
91
68
30
61
26
56
24
51
59
87
54
79
45
69
49
81
23
96
75
86
43
16
52
63
27
37
17
77
99
22
32
12
15
100
44
92
85
9
71
14
98
4
47
42
93
41
84
88
76
83
11
10
25
70
65
18
80
64
31
19
102
50
39
82
13
101
97
5
58
67
40
28
53
8
46
1
7
62
33
103
66
3
36
95
20
74
38
48
6
55
73
29
94
21
89
35
60
78

> <PUBCHEM_MMFF94_PARTIAL_CHARGES>
33
1 1.45
11 0.14
13 -0.28
14 -0.29
15 0.36
16 0.06
19 0.14
2 -0.57
20 0.57
21 -0.01
22 0.5
23 -0.15
24 -0.15
25 -0.15
26 -0.15
27 0.08
28 -0.2
29 -0.18
3 -0.65
30 0.28
37 0.15
4 -0.65
5 -0.36
51 0.42
52 0.37
55 0.15
56 0.15
57 0.15
58 0.15
59 0.18
6 -0.91
7 -0.73
9 0.14

> <PUBCHEM_EFFECTIVE_ROTOR_COUNT>
10.8

> <PUBCHEM_PHARMACOPHORE_FEATURES>
10
1 2 acceptor
1 29 hydrophobe
1 3 acceptor
1 4 acceptor
1 5 acceptor
1 6 donor
1 7 donor
3 12 17 18 hydrophobe
6 21 23 24 25 26 27 rings
6 8 9 10 11 13 14 rings

> <PUBCHEM_HEAVY_ATOM_COUNT>
30

> <PUBCHEM_ATOM_DEF_STEREO_COUNT>
3

> <PUBCHEM_ATOM_UDEF_STEREO_COUNT>
0

> <PUBCHEM_BOND_DEF_STEREO_COUNT>
0

> <PUBCHEM_BOND_UDEF_STEREO_COUNT>
0

> <PUBCHEM_ISOTOPIC_ATOM_COUNT>
0

> <PUBCHEM_COMPONENT_COUNT>
1

> <PUBCHEM_CACTVS_TAUTO_COUNT>
2

> <PUBCHEM_CONFORMER_ID>
0244453400000002

> <PUBCHEM_MMFF94_ENERGY>
56.184

> <PUBCHEM_FEATURE_SELFOVERLAP>
50.764

> <PUBCHEM_SHAPE_FINGERPRINT>
11244481 83 17693963068612580708
11578080 2 17462847575769749589
12156800 1 17113327255841392978
12422481 6 17057261942375731033
12539773 59 16400524604851255976
12633257 1 18337388352434325811
12788726 201 18199193884593442880
13122387 1 17400915302422820962
1361 2 17115786073153656971
13615921 28 17835788703938152838
14114206 34 18267286669714017716
14117953 113 16034083325522693398
14251757 5 18117860973899297862
14279260 333 18053953858122639278
17974551 9 17984428704901683017
19930381 70 18337387137301868763
20600515 1 18264796370160598781
20764821 26 18409162238461241258
20905425 154 17984139258228111916
238 59 17611415927260756895
35225 105 18334577940484234271
3524813 1 18114464440135831874
394222 165 15451503159576287717

> <PUBCHEM_SHAPE_MULTIPOLES>
587.8
6.88
5.46
2.54
1.37
1.91
1.74
1.12
0.15
1.44
-3.21
-0.31
-0.53
0.84

> <PUBCHEM_SHAPE_SELFOVERLAP>
1191.161

> <PUBCHEM_SHAPE_VOLUME>
343.8

> <PUBCHEM_COORDINATE_TYPE>
2
5
10

$$$$
