45784201
  -OEChem-12032416363D

 45 49  0     1  0  0  0  0  0999 V2000
    3.5601   -1.5075    0.3846 O   0  0  0  0  0  0  0  0  0  0  0  0
   -3.9454    1.1051   -0.3008 O   0  0  0  0  0  0  0  0  0  0  0  0
   -0.9928   -0.4374   -0.2759 N   0  0  1  0  0  0  0  0  0  0  0  0
    3.1059    0.6848    0.0320 N   0  0  0  0  0  0  0  0  0  0  0  0
    1.1888   -0.9461    0.4177 C   0  0  1  0  0  0  0  0  0  0  0  0
    0.4297   -0.2612    1.5675 C   0  0  0  0  0  0  0  0  0  0  0  0
    0.3442   -0.6588   -0.8309 C   0  0  0  0  0  0  0  0  0  0  0  0
   -0.7766    0.3945    0.9079 C   0  0  0  0  0  0  0  0  0  0  0  0
   -1.8953    0.1851   -1.2332 C   0  0  0  0  0  0  0  0  0  0  0  0
    2.6303   -0.5188    0.2651 C   0  0  0  0  0  0  0  0  0  0  0  0
   -3.3377    0.0146   -0.8366 C   0  0  0  0  0  0  0  0  0  0  0  0
    4.4647    0.4857   -0.0080 C   0  0  0  0  0  0  0  0  0  0  0  0
    4.7466   -0.8552    0.2076 C   0  0  0  0  0  0  0  0  0  0  0  0
   -4.2102   -1.0471   -0.9011 C   0  0  0  0  0  0  0  0  0  0  0  0
   -5.4429   -0.5850   -0.3692 C   0  0  0  0  0  0  0  0  0  0  0  0
   -5.2278    0.7429   -0.0152 C   0  0  0  0  0  0  0  0  0  0  0  0
    5.5272    1.3761   -0.2194 C   0  0  0  0  0  0  0  0  0  0  0  0
    6.0236   -1.4018    0.2319 C   0  0  0  0  0  0  0  0  0  0  0  0
    6.8316    0.8613   -0.2020 C   0  0  0  0  0  0  0  0  0  0  0  0
    7.0722   -0.5002    0.0193 C   0  0  0  0  0  0  0  0  0  0  0  0
   -6.7148   -1.1416   -0.1480 C   0  0  0  0  0  0  0  0  0  0  0  0
   -6.1985    1.5681    0.5500 C   0  0  0  0  0  0  0  0  0  0  0  0
   -7.7118   -0.3362    0.4195 C   0  0  0  0  0  0  0  0  0  0  0  0
   -7.4558    0.9942    0.7610 C   0  0  0  0  0  0  0  0  0  0  0  0
    7.9847    1.7844   -0.4239 C   0  0  0  0  0  0  0  0  0  0  0  0
    1.1724   -2.0286    0.6090 H   0  0  0  0  0  0  0  0  0  0  0  0
    0.0989   -1.0198    2.2878 H   0  0  0  0  0  0  0  0  0  0  0  0
    1.0343    0.4723    2.1114 H   0  0  0  0  0  0  0  0  0  0  0  0
    0.3607   -1.5062   -1.5250 H   0  0  0  0  0  0  0  0  0  0  0  0
    0.7087    0.2294   -1.3641 H   0  0  0  0  0  0  0  0  0  0  0  0
   -1.6404    0.4008    1.5802 H   0  0  0  0  0  0  0  0  0  0  0  0
   -0.5320    1.4309    0.6416 H   0  0  0  0  0  0  0  0  0  0  0  0
   -1.6636    1.2457   -1.3948 H   0  0  0  0  0  0  0  0  0  0  0  0
   -1.7865   -0.3043   -2.2108 H   0  0  0  0  0  0  0  0  0  0  0  0
   -3.9877   -2.0335   -1.2834 H   0  0  0  0  0  0  0  0  0  0  0  0
    5.3383    2.4308   -0.3925 H   0  0  0  0  0  0  0  0  0  0  0  0
    6.1989   -2.4564    0.4035 H   0  0  0  0  0  0  0  0  0  0  0  0
    8.0925   -0.8784    0.0267 H   0  0  0  0  0  0  0  0  0  0  0  0
   -6.9285   -2.1738   -0.4085 H   0  0  0  0  0  0  0  0  0  0  0  0
   -5.9923    2.5989    0.8125 H   0  0  0  0  0  0  0  0  0  0  0  0
   -8.6995   -0.7544    0.5960 H   0  0  0  0  0  0  0  0  0  0  0  0
   -8.2487    1.5951    1.1995 H   0  0  0  0  0  0  0  0  0  0  0  0
    8.8577    1.4699    0.1580 H   0  0  0  0  0  0  0  0  0  0  0  0
    7.7423    2.8055   -0.1104 H   0  0  0  0  0  0  0  0  0  0  0  0
    8.2545    1.7990   -1.4845 H   0  0  0  0  0  0  0  0  0  0  0  0
  1 10  1  0  0  0  0
  1 13  1  0  0  0  0
  2 11  1  0  0  0  0
  2 16  1  0  0  0  0
  3  7  1  0  0  0  0
  3  8  1  0  0  0  0
  3  9  1  0  0  0  0
  4 10  2  0  0  0  0
  4 12  1  0  0  0  0
  5  6  1  0  0  0  0
  5  7  1  0  0  0  0
  5 10  1  0  0  0  0
  5 26  1  0  0  0  0
  6  8  1  0  0  0  0
  6 27  1  0  0  0  0
  6 28  1  0  0  0  0
  7 29  1  0  0  0  0
  7 30  1  0  0  0  0
  8 31  1  0  0  0  0
  8 32  1  0  0  0  0
  9 11  1  0  0  0  0
  9 33  1  0  0  0  0
  9 34  1  0  0  0  0
 11 14  2  0  0  0  0
 12 13  2  0  0  0  0
 12 17  1  0  0  0  0
 13 18  1  0  0  0  0
 14 15  1  0  0  0  0
 14 35  1  0  0  0  0
 15 16  1  0  0  0  0
 15 21  2  0  0  0  0
 16 22  2  0  0  0  0
 17 19  2  0  0  0  0
 17 36  1  0  0  0  0
 18 20  2  0  0  0  0
 18 37  1  0  0  0  0
 19 20  1  0  0  0  0
 19 25  1  0  0  0  0
 20 38  1  0  0  0  0
 21 23  1  0  0  0  0
 21 39  1  0  0  0  0
 22 24  1  0  0  0  0
 22 40  1  0  0  0  0
 23 24  2  0  0  0  0
 23 41  1  0  0  0  0
 24 42  1  0  0  0  0
 25 43  1  0  0  0  0
 25 44  1  0  0  0  0
 25 45  1  0  0  0  0
M  END
> <PUBCHEM_COMPOUND_CID>
45784201

> <PUBCHEM_CONFORMER_RMSD>
0.8

> <PUBCHEM_CONFORMER_DIVERSEORDER>
1
103
49
95
92
78
96
12
60
47
27
105
71
94
61
15
104
32
74
30
97
2
23
63
102
19
18
100
3
77
91
26
11
90
29
68
84
36
85
56
98
82
80
107
79
4
40
17
83
62
76
6
25
42
87
46
50
21
101
58
67
55
51
69
13
106
93
44
64
99
53
48
86
8
9
43
59
89
57
75
70
66
45
22
72
20
108
34
5
81
10
52
24
33
41
28
7
31
65
35
39
16
14
38
88
54
73
37

> <PUBCHEM_MMFF94_PARTIAL_CHARGES>
31
1 -0.28
10 0.3
11 -0.04
12 0.23
13 0.14
14 -0.15
16 0.14
17 -0.15
18 -0.15
19 -0.14
2 -0.28
20 -0.15
21 -0.15
22 -0.15
23 -0.15
24 -0.15
25 0.14
3 -0.81
35 0.15
36 0.15
37 0.15
38 0.15
39 0.15
4 -0.57
40 0.15
41 0.15
42 0.15
5 0.18
7 0.27
8 0.27
9 0.45

> <PUBCHEM_EFFECTIVE_ROTOR_COUNT>
4

> <PUBCHEM_PHARMACOPHORE_FEATURES>
7
1 2 acceptor
1 3 cation
5 1 4 10 12 13 rings
5 2 11 14 15 16 rings
5 3 5 6 7 8 rings
6 12 13 17 18 19 20 rings
6 15 16 21 22 23 24 rings

> <PUBCHEM_HEAVY_ATOM_COUNT>
25

> <PUBCHEM_ATOM_DEF_STEREO_COUNT>
1

> <PUBCHEM_ATOM_UDEF_STEREO_COUNT>
0

> <PUBCHEM_BOND_DEF_STEREO_COUNT>
0

> <PUBCHEM_BOND_UDEF_STEREO_COUNT>
0

> <PUBCHEM_ISOTOPIC_ATOM_COUNT>
0

> <PUBCHEM_COMPONENT_COUNT>
1

> <PUBCHEM_CACTVS_TAUTO_COUNT>
1

> <PUBCHEM_CONFORMER_ID>
02BA9C8900000001

> <PUBCHEM_MMFF94_ENERGY>
44.7775

> <PUBCHEM_FEATURE_SELFOVERLAP>
35.744

> <PUBCHEM_SHAPE_FINGERPRINT>
10 15 18343304765101859239
102385 1 15433732169568730851
10299344 5 18342457045436120967
10595046 47 18410008801846697602
106641 1 14273739577504661292
10670039 82 15123519077597768731
11315181 36 18409448095026650085
11524674 6 15213024856158926993
11638347 137 15936402330880866280
11646440 116 16877946031629477580
11719270 70 17346598539379971534
11724838 91 17676487280582238206
12166972 35 18114183029905235124
12236239 1 18343300357922036158
12516196 113 14779266401729594239
12643181 29 13973962117131825980
12730499 353 17676486117073726410
12838862 33 15647044989717875435
13073987 5 16371276727974139332
13533116 47 17023456444490267090
13835254 42 17023737911014316868
14123256 10 16153707618054719747
14170010 4 17894351090547907828
14251752 14 17561081393068561600
14251764 18 18343300375122952463
14251764 46 16515404066834267955
14849402 71 18261960755274043716
14856354 85 17917429861163531255
14933364 13 18413107259989462773
15183329 4 12607407676242713853
15419008 47 15430029976584590983
15690457 1 10953740023346531320
15716309 27 18408039602834759207
1577012 14 18272927237220300590
16989713 51 16844715578277880967
18006028 8 11887956553349165962
18335252 98 18335706060994839211
19489759 90 7853574626087523431
20157964 124 18261110773515248402
20735858 18 15140679185019904912
21033648 29 17968936535180871856
21150785 3 18272371992622752880
21521721 280 18259985985319257034
21792961 116 17203049582105550446
220451 1 17846210059782594630
22224240 67 16877943845111088250
22956985 138 13408729470424006920
23035841 295 18413668007046777827
23081809 10 18201425978548781807
23516275 137 18128556898097430355
23536379 177 18413106147598227354
23569943 247 17098325407708186394
23576562 1 16772932848829736809
2747138 104 16877952619914149901
28498 318 11671789260387962120
3004659 81 16845289471390960648
335352 9 17275099532040876697
34797466 226 18411984655018920822
3663271 9 18335701611793465859
397830 11 16082231751172079577
4073 2 18187650236219944914
4258327 124 16733848491948423614
4325135 7 18334575754714814277
445580 37 17131560465865779761
5265222 85 17916582179804618239
5283156 175 17346601851268806190
5758199 1 18186802486821010650
59682541 35 17095528426199273905
59755656 215 14405190547069072044
59755656 520 18187359947880652227
9953998 17 17967538965702094657

> <PUBCHEM_SHAPE_MULTIPOLES>
492.79
25.46
1.47
0.98
0.46
0.21
-0.06
5.75
-0.46
-0.86
-0.01
0.51
-0.02
-1.24

> <PUBCHEM_SHAPE_SELFOVERLAP>
1100.342

> <PUBCHEM_SHAPE_VOLUME>
266.2

> <PUBCHEM_COORDINATE_TYPE>
2
5
10

$$$$
