7051255
  -OEChem-12032416113D

 59 63  0     1  0  0  0  0  0999 V2000
   -7.2640   -1.3858    0.7756 Cl  0  0  0  0  0  0  0  0  0  0  0  0
   -2.3517    2.0794   -0.9583 S   0  0  0  0  0  0  0  0  0  0  0  0
    0.5040    3.3368   -0.9489 O   0  0  0  0  0  0  0  0  0  0  0  0
    3.0010   -0.9011   -2.5778 O   0  0  0  0  0  0  0  0  0  0  0  0
   -2.8689    3.2565   -1.6304 O   0  0  0  0  0  0  0  0  0  0  0  0
   -1.4201    1.1997   -1.6385 O   0  0  0  0  0  0  0  0  0  0  0  0
   -0.5691   -4.9680    0.5562 O   0  0  0  0  0  0  0  0  0  0  0  0
    3.7838   -0.3976   -0.4310 N   0  0  0  0  0  0  0  0  0  0  0  0
    1.9893    2.0926    0.3683 N   0  0  0  0  0  0  0  0  0  0  0  0
   -1.7247    2.5145    0.5524 N   0  0  0  0  0  0  0  0  0  0  0  0
    4.5023    1.9631   -0.1049 C   0  0  1  0  0  0  0  0  0  0  0  0
    3.5457    0.7031    1.7822 C   0  0  2  0  0  0  0  0  0  0  0  0
    4.6276    1.7096    1.3937 C   0  0  0  0  0  0  0  0  0  0  0  0
    4.6930    0.6524   -0.8895 C   0  0  0  0  0  0  0  0  0  0  0  0
    3.1400    2.6103   -0.3839 C   0  0  0  0  0  0  0  0  0  0  0  0
    3.7750   -0.6197    1.0241 C   0  0  0  0  0  0  0  0  0  0  0  0
    2.1617    1.2393    1.4669 C   0  0  0  0  0  0  0  0  0  0  0  0
    1.1060    0.8666    2.2135 C   0  0  0  0  0  0  0  0  0  0  0  0
    0.7178    2.5754   -0.0064 C   0  0  0  0  0  0  0  0  0  0  0  0
    2.9982   -1.0820   -1.3614 C   0  0  0  0  0  0  0  0  0  0  0  0
   -0.4095    2.1100    0.8401 C   0  0  0  0  0  0  0  0  0  0  0  0
   -0.2225    1.3129    1.8926 C   0  0  0  0  0  0  0  0  0  0  0  0
    2.0668   -2.0975   -0.8595 C   0  0  0  0  0  0  0  0  0  0  0  0
    0.7670   -1.7350   -0.5155 C   0  0  0  0  0  0  0  0  0  0  0  0
    2.4858   -3.4193   -0.7296 C   0  0  0  0  0  0  0  0  0  0  0  0
   -0.1196   -2.7005   -0.0385 C   0  0  0  0  0  0  0  0  0  0  0  0
    1.5990   -4.3848   -0.2528 C   0  0  0  0  0  0  0  0  0  0  0  0
   -3.7404    1.0999   -0.4681 C   0  0  0  0  0  0  0  0  0  0  0  0
    0.2964   -4.0254    0.0927 C   0  0  0  0  0  0  0  0  0  0  0  0
   -4.9654    1.7140   -0.2771 C   0  0  0  0  0  0  0  0  0  0  0  0
   -3.5748   -0.2616   -0.2852 C   0  0  0  0  0  0  0  0  0  0  0  0
   -6.0606    0.9414    0.1096 C   0  0  0  0  0  0  0  0  0  0  0  0
   -4.6700   -1.0342    0.1013 C   0  0  0  0  0  0  0  0  0  0  0  0
   -5.9129   -0.4327    0.2987 C   0  0  0  0  0  0  0  0  0  0  0  0
   -1.8864   -4.5323    0.8893 C   0  0  0  0  0  0  0  0  0  0  0  0
    5.2868    2.6590   -0.4268 H   0  0  0  0  0  0  0  0  0  0  0  0
    3.6315    0.5060    2.8587 H   0  0  0  0  0  0  0  0  0  0  0  0
    4.5095    2.6448    1.9552 H   0  0  0  0  0  0  0  0  0  0  0  0
    5.6224    1.3145    1.6330 H   0  0  0  0  0  0  0  0  0  0  0  0
    4.5682    0.8320   -1.9626 H   0  0  0  0  0  0  0  0  0  0  0  0
    5.7125    0.2752   -0.7425 H   0  0  0  0  0  0  0  0  0  0  0  0
    3.2005    3.6779   -0.1317 H   0  0  0  0  0  0  0  0  0  0  0  0
    2.9057    2.5671   -1.4551 H   0  0  0  0  0  0  0  0  0  0  0  0
    4.7550   -1.0376    1.2860 H   0  0  0  0  0  0  0  0  0  0  0  0
    3.0276   -1.3605    1.3181 H   0  0  0  0  0  0  0  0  0  0  0  0
    1.2165    0.1955    3.0589 H   0  0  0  0  0  0  0  0  0  0  0  0
   -1.0363    0.9650    2.5199 H   0  0  0  0  0  0  0  0  0  0  0  0
   -2.3694    2.3686    1.3422 H   0  0  0  0  0  0  0  0  0  0  0  0
    0.4333   -0.7073   -0.6202 H   0  0  0  0  0  0  0  0  0  0  0  0
    3.4988   -3.7093   -0.9958 H   0  0  0  0  0  0  0  0  0  0  0  0
   -1.1135   -2.3561    0.2189 H   0  0  0  0  0  0  0  0  0  0  0  0
    1.9288   -5.4153   -0.1528 H   0  0  0  0  0  0  0  0  0  0  0  0
   -5.0985    2.7829   -0.4119 H   0  0  0  0  0  0  0  0  0  0  0  0
   -2.6157   -0.7432   -0.4339 H   0  0  0  0  0  0  0  0  0  0  0  0
   -7.0227    1.4238    0.2615 H   0  0  0  0  0  0  0  0  0  0  0  0
   -4.5395   -2.1037    0.2455 H   0  0  0  0  0  0  0  0  0  0  0  0
   -1.8756   -3.8123    1.7147 H   0  0  0  0  0  0  0  0  0  0  0  0
   -2.4389   -5.4106    1.2386 H   0  0  0  0  0  0  0  0  0  0  0  0
   -2.4176   -4.1487    0.0115 H   0  0  0  0  0  0  0  0  0  0  0  0
  1 34  1  0  0  0  0
  2  5  2  0  0  0  0
  2  6  2  0  0  0  0
  2 10  1  0  0  0  0
  2 28  1  0  0  0  0
  3 19  2  0  0  0  0
  4 20  2  0  0  0  0
  7 29  1  0  0  0  0
  7 35  1  0  0  0  0
  8 14  1  0  0  0  0
  8 16  1  0  0  0  0
  8 20  1  0  0  0  0
  9 15  1  0  0  0  0
  9 17  1  0  0  0  0
  9 19  1  0  0  0  0
 10 21  1  0  0  0  0
 10 48  1  0  0  0  0
 11 13  1  0  0  0  0
 11 14  1  0  0  0  0
 11 15  1  0  0  0  0
 11 36  1  0  0  0  0
 12 13  1  0  0  0  0
 12 16  1  0  0  0  0
 12 17  1  0  0  0  0
 12 37  1  0  0  0  0
 13 38  1  0  0  0  0
 13 39  1  0  0  0  0
 14 40  1  0  0  0  0
 14 41  1  0  0  0  0
 15 42  1  0  0  0  0
 15 43  1  0  0  0  0
 16 44  1  0  0  0  0
 16 45  1  0  0  0  0
 17 18  2  0  0  0  0
 18 22  1  0  0  0  0
 18 46  1  0  0  0  0
 19 21  1  0  0  0  0
 20 23  1  0  0  0  0
 21 22  2  0  0  0  0
 22 47  1  0  0  0  0
 23 24  2  0  0  0  0
 23 25  1  0  0  0  0
 24 26  1  0  0  0  0
 24 49  1  0  0  0  0
 25 27  2  0  0  0  0
 25 50  1  0  0  0  0
 26 29  2  0  0  0  0
 26 51  1  0  0  0  0
 27 29  1  0  0  0  0
 27 52  1  0  0  0  0
 28 30  2  0  0  0  0
 28 31  1  0  0  0  0
 30 32  1  0  0  0  0
 30 53  1  0  0  0  0
 31 33  2  0  0  0  0
 31 54  1  0  0  0  0
 32 34  2  0  0  0  0
 32 55  1  0  0  0  0
 33 34  1  0  0  0  0
 33 56  1  0  0  0  0
 35 57  1  0  0  0  0
 35 58  1  0  0  0  0
 35 59  1  0  0  0  0
M  END
> <PUBCHEM_COMPOUND_CID>
7051255

> <PUBCHEM_CONFORMER_RMSD>
1

> <PUBCHEM_CONFORMER_DIVERSEORDER>
1
26
22
32
28
17
2
8
24
25
3
15
30
16
19
11
10
13
7
27
5
31
9
4
14
12
21
6
29
23
18
20

> <PUBCHEM_MMFF94_PARTIAL_CHARGES>
44
1 -0.18
10 -0.75
12 0.14
14 0.3
15 0.3
16 0.3
17 -0.03
18 -0.15
19 0.62
2 1.45
20 0.54
21 0.21
22 -0.15
23 0.09
24 -0.15
25 -0.15
26 -0.15
27 -0.15
28 -0.01
29 0.08
3 -0.57
30 -0.15
31 -0.15
32 -0.15
33 -0.15
34 0.18
35 0.28
4 -0.57
46 0.15
47 0.15
48 0.42
49 0.15
5 -0.65
50 0.15
51 0.15
52 0.15
53 0.15
54 0.15
55 0.15
56 0.15
6 -0.65
7 -0.36
8 -0.66
9 -0.47

> <PUBCHEM_EFFECTIVE_ROTOR_COUNT>
7

> <PUBCHEM_PHARMACOPHORE_FEATURES>
11
1 10 donor
1 3 acceptor
1 4 acceptor
1 5 acceptor
1 6 acceptor
1 7 acceptor
6 23 24 25 26 27 29 rings
6 28 30 31 32 33 34 rings
6 8 11 12 13 14 16 rings
6 9 11 12 13 15 17 rings
6 9 17 18 19 21 22 rings

> <PUBCHEM_HEAVY_ATOM_COUNT>
35

> <PUBCHEM_ATOM_DEF_STEREO_COUNT>
2

> <PUBCHEM_ATOM_UDEF_STEREO_COUNT>
0

> <PUBCHEM_BOND_DEF_STEREO_COUNT>
0

> <PUBCHEM_BOND_UDEF_STEREO_COUNT>
0

> <PUBCHEM_ISOTOPIC_ATOM_COUNT>
0

> <PUBCHEM_COMPONENT_COUNT>
1

> <PUBCHEM_CACTVS_TAUTO_COUNT>
1

> <PUBCHEM_CONFORMER_ID>
006B97F700000001

> <PUBCHEM_MMFF94_ENERGY>
97.4097

> <PUBCHEM_FEATURE_SELFOVERLAP>
57.425

> <PUBCHEM_SHAPE_FINGERPRINT>
10316853 100 18337115665530940843
10864689 126 18338807693751549655
12156800 1 17831606510004541948
13347071 3 17695068095633440887
13402501 40 18412825815314932619
13561361 72 18263925604317378747
1361 2 18410014368462079281
13617811 41 18260548914483962653
13726171 33 17906461270251058456
15264996 163 16532869491256419739
15968369 153 17481980551351606623
15968369 26 18046323281114925483
17093844 170 18341894117041795904
17909252 39 17984708809404628406
19319366 153 18272078388162799390
20764821 26 18192715772346463423
20775438 99 17396941740673270949
20775530 9 17765429842469804294
23559900 14 17976250245256028685
238 59 18193005816077750408
3737641 26 18271527490388471265
392239 28 18341895139107102539
4340502 62 17988916821436150296
463206 1 18129936909822006879
484989 97 18339376205350002318
508706 21 18195809789567001315
5265222 85 18267024044969239836
86090 222 18341617035890709587

> <PUBCHEM_SHAPE_MULTIPOLES>
681.71
11.85
5.73
1.65
18.08
7.29
0.09
-2.68
0.78
-0.65
-0.21
-1.23
-0.51
2.15

> <PUBCHEM_SHAPE_SELFOVERLAP>
1473.345

> <PUBCHEM_SHAPE_VOLUME>
374.6

> <PUBCHEM_COORDINATE_TYPE>
2
5
10

$$$$
