26743344
  -OEChem-12032416183D

 75 79  0     1  0  0  0  0  0999 V2000
   -1.8108    2.1645   -1.9318 O   0  0  0  0  0  0  0  0  0  0  0  0
    5.5637    2.2269    0.8254 O   0  0  0  0  0  0  0  0  0  0  0  0
    9.6983   -1.9931   -0.1680 O   0  0  0  0  0  0  0  0  0  0  0  0
   -7.7970    1.2171    0.8902 O   0  0  0  0  0  0  0  0  0  0  0  0
    2.0725   -1.4143   -2.4649 N   0  0  0  0  0  0  0  0  0  0  0  0
   -2.9995    1.0510   -0.2775 N   0  0  0  0  0  0  0  0  0  0  0  0
   -5.4726   -0.2112    0.2264 N   0  0  0  0  0  0  0  0  0  0  0  0
    4.2498    2.4341    0.4231 N   0  0  0  0  0  0  0  0  0  0  0  0
    7.5704   -0.5770    1.0840 N   0  0  0  0  0  0  0  0  0  0  0  0
    0.5371    0.9528   -1.6013 C   0  0  1  0  0  0  0  0  0  0  0  0
    1.9390    0.6150   -1.0401 C   0  0  2  0  0  0  0  0  0  0  0  0
    0.3847    0.3109   -2.9905 C   0  0  0  0  0  0  0  0  0  0  0  0
    2.2288   -0.8939   -1.1061 C   0  0  0  0  0  0  0  0  0  0  0  0
   -0.6187    0.5425   -0.6809 C   0  0  0  0  0  0  0  0  0  0  0  0
    2.1599    1.1429    0.3780 C   0  0  0  0  0  0  0  0  0  0  0  0
    0.7279   -1.1781   -2.9860 C   0  0  0  0  0  0  0  0  0  0  0  0
   -1.8578    1.3295   -1.0250 C   0  0  0  0  0  0  0  0  0  0  0  0
    3.6222    1.2846    0.6874 C   0  0  0  0  0  0  0  0  0  0  0  0
   -3.0955    0.0695    0.8047 C   0  0  0  0  0  0  0  0  0  0  0  0
   -4.2394    1.7821   -0.5257 C   0  0  0  0  0  0  0  0  0  0  0  0
   -4.2253   -0.9241    0.5343 C   0  0  0  0  0  0  0  0  0  0  0  0
   -5.3856    0.8176   -0.8223 C   0  0  0  0  0  0  0  0  0  0  0  0
    4.4806    0.3252    1.2516 C   0  0  0  0  0  0  0  0  0  0  0  0
    5.6887    0.9677    1.3170 C   0  0  0  0  0  0  0  0  0  0  0  0
   -6.7006   -0.8599    0.3997 C   0  0  0  0  0  0  0  0  0  0  0  0
    7.0222    0.5787    1.7910 C   0  0  0  0  0  0  0  0  0  0  0  0
    8.0812   -0.1861   -0.2372 C   0  0  0  0  0  0  0  0  0  0  0  0
    8.6385   -1.2107    1.8695 C   0  0  0  0  0  0  0  0  0  0  0  0
   -7.8460   -0.1356    0.7295 C   0  0  0  0  0  0  0  0  0  0  0  0
   -6.7725   -2.2437    0.2397 C   0  0  0  0  0  0  0  0  0  0  0  0
    8.6582   -1.4055   -0.9504 C   0  0  0  0  0  0  0  0  0  0  0  0
    9.2034   -2.4054    1.1066 C   0  0  0  0  0  0  0  0  0  0  0  0
   -9.0634   -0.7949    0.8992 C   0  0  0  0  0  0  0  0  0  0  0  0
   -7.9899   -2.9032    0.4096 C   0  0  0  0  0  0  0  0  0  0  0  0
   -9.1354   -2.1788    0.7393 C   0  0  0  0  0  0  0  0  0  0  0  0
   -7.5169    1.7031    2.2013 C   0  0  0  0  0  0  0  0  0  0  0  0
    0.5221    2.0437   -1.7327 H   0  0  0  0  0  0  0  0  0  0  0  0
    2.6620    1.1112   -1.7068 H   0  0  0  0  0  0  0  0  0  0  0  0
    1.0572    0.8257   -3.6902 H   0  0  0  0  0  0  0  0  0  0  0  0
   -0.6266    0.4457   -3.3888 H   0  0  0  0  0  0  0  0  0  0  0  0
    3.2593   -1.0992   -0.8019 H   0  0  0  0  0  0  0  0  0  0  0  0
    1.5779   -1.4473   -0.4178 H   0  0  0  0  0  0  0  0  0  0  0  0
   -0.3868    0.7771    0.3620 H   0  0  0  0  0  0  0  0  0  0  0  0
   -0.8290   -0.5277   -0.7549 H   0  0  0  0  0  0  0  0  0  0  0  0
    1.7012    0.4833    1.1248 H   0  0  0  0  0  0  0  0  0  0  0  0
    1.6874    2.1274    0.4921 H   0  0  0  0  0  0  0  0  0  0  0  0
   -0.0084   -1.7545   -2.4151 H   0  0  0  0  0  0  0  0  0  0  0  0
    0.6844   -1.5521   -4.0151 H   0  0  0  0  0  0  0  0  0  0  0  0
    2.2639   -2.4158   -2.4667 H   0  0  0  0  0  0  0  0  0  0  0  0
   -2.1622   -0.4734    0.9617 H   0  0  0  0  0  0  0  0  0  0  0  0
   -3.3002    0.6312    1.7246 H   0  0  0  0  0  0  0  0  0  0  0  0
   -4.4573    2.3682    0.3754 H   0  0  0  0  0  0  0  0  0  0  0  0
   -4.1206    2.4855   -1.3558 H   0  0  0  0  0  0  0  0  0  0  0  0
   -3.9501   -1.5662   -0.3119 H   0  0  0  0  0  0  0  0  0  0  0  0
   -4.3423   -1.5557    1.4235 H   0  0  0  0  0  0  0  0  0  0  0  0
   -6.3051    1.3973   -0.9430 H   0  0  0  0  0  0  0  0  0  0  0  0
   -5.2033    0.3171   -1.7824 H   0  0  0  0  0  0  0  0  0  0  0  0
    4.2564   -0.6829    1.5680 H   0  0  0  0  0  0  0  0  0  0  0  0
    6.9045    0.3318    2.8554 H   0  0  0  0  0  0  0  0  0  0  0  0
    7.7166    1.4288    1.7618 H   0  0  0  0  0  0  0  0  0  0  0  0
    8.8650    0.5758   -0.1338 H   0  0  0  0  0  0  0  0  0  0  0  0
    7.2813    0.2329   -0.8581 H   0  0  0  0  0  0  0  0  0  0  0  0
    8.2496   -1.5610    2.8325 H   0  0  0  0  0  0  0  0  0  0  0  0
    9.4422   -0.4897    2.0681 H   0  0  0  0  0  0  0  0  0  0  0  0
   -5.9061   -2.8396   -0.0326 H   0  0  0  0  0  0  0  0  0  0  0  0
    7.8860   -2.1567   -1.1569 H   0  0  0  0  0  0  0  0  0  0  0  0
    9.0928   -1.1055   -1.9094 H   0  0  0  0  0  0  0  0  0  0  0  0
   10.0395   -2.8413    1.6628 H   0  0  0  0  0  0  0  0  0  0  0  0
    8.4503   -3.1912    0.9701 H   0  0  0  0  0  0  0  0  0  0  0  0
   -9.9603   -0.2371    1.1552 H   0  0  0  0  0  0  0  0  0  0  0  0
   -8.0471   -3.9802    0.2815 H   0  0  0  0  0  0  0  0  0  0  0  0
  -10.0835   -2.6921    0.8705 H   0  0  0  0  0  0  0  0  0  0  0  0
   -7.4949    2.7956    2.1636 H   0  0  0  0  0  0  0  0  0  0  0  0
   -6.5416    1.3462    2.5469 H   0  0  0  0  0  0  0  0  0  0  0  0
   -8.3000    1.3926    2.9003 H   0  0  0  0  0  0  0  0  0  0  0  0
  1 17  2  0  0  0  0
  2  8  1  0  0  0  0
  2 24  1  0  0  0  0
  3 31  1  0  0  0  0
  3 32  1  0  0  0  0
  4 29  1  0  0  0  0
  4 36  1  0  0  0  0
  5 13  1  0  0  0  0
  5 16  1  0  0  0  0
  5 49  1  0  0  0  0
  6 17  1  0  0  0  0
  6 19  1  0  0  0  0
  6 20  1  0  0  0  0
  7 21  1  0  0  0  0
  7 22  1  0  0  0  0
  7 25  1  0  0  0  0
  8 18  2  0  0  0  0
  9 26  1  0  0  0  0
  9 27  1  0  0  0  0
  9 28  1  0  0  0  0
 10 11  1  0  0  0  0
 10 12  1  0  0  0  0
 10 14  1  0  0  0  0
 10 37  1  0  0  0  0
 11 13  1  0  0  0  0
 11 15  1  0  0  0  0
 11 38  1  0  0  0  0
 12 16  1  0  0  0  0
 12 39  1  0  0  0  0
 12 40  1  0  0  0  0
 13 41  1  0  0  0  0
 13 42  1  0  0  0  0
 14 17  1  0  0  0  0
 14 43  1  0  0  0  0
 14 44  1  0  0  0  0
 15 18  1  0  0  0  0
 15 45  1  0  0  0  0
 15 46  1  0  0  0  0
 16 47  1  0  0  0  0
 16 48  1  0  0  0  0
 18 23  1  0  0  0  0
 19 21  1  0  0  0  0
 19 50  1  0  0  0  0
 19 51  1  0  0  0  0
 20 22  1  0  0  0  0
 20 52  1  0  0  0  0
 20 53  1  0  0  0  0
 21 54  1  0  0  0  0
 21 55  1  0  0  0  0
 22 56  1  0  0  0  0
 22 57  1  0  0  0  0
 23 24  2  0  0  0  0
 23 58  1  0  0  0  0
 24 26  1  0  0  0  0
 25 29  1  0  0  0  0
 25 30  2  0  0  0  0
 26 59  1  0  0  0  0
 26 60  1  0  0  0  0
 27 31  1  0  0  0  0
 27 61  1  0  0  0  0
 27 62  1  0  0  0  0
 28 32  1  0  0  0  0
 28 63  1  0  0  0  0
 28 64  1  0  0  0  0
 29 33  2  0  0  0  0
 30 34  1  0  0  0  0
 30 65  1  0  0  0  0
 31 66  1  0  0  0  0
 31 67  1  0  0  0  0
 32 68  1  0  0  0  0
 32 69  1  0  0  0  0
 33 35  1  0  0  0  0
 33 70  1  0  0  0  0
 34 35  2  0  0  0  0
 34 71  1  0  0  0  0
 35 72  1  0  0  0  0
 36 73  1  0  0  0  0
 36 74  1  0  0  0  0
 36 75  1  0  0  0  0
M  END
> <PUBCHEM_COMPOUND_CID>
26743344

> <PUBCHEM_CONFORMER_RMSD>
1.6

> <PUBCHEM_CONFORMER_DIVERSEORDER>
1
75
22
28
61
37
30
71
42
65
48
27
33
56
10
31
51
69
77
47
72
36
43
14
62
73
20
15
39
46
12
26
45
32
59
70
50
64
52
16
35
24
58
55
60
4
2
44
41
66
21
7
19
74
9
25
13
5
49
68
3
63
38
67
54
8
34
57
6
17
23
40
11
53
29
18
76

> <PUBCHEM_MMFF94_PARTIAL_CHARGES>
39
1 -0.57
13 0.27
14 0.06
15 0.18
16 0.27
17 0.57
18 0.11
19 0.3
2 -0.02
20 0.3
21 0.37
22 0.37
23 -0.15
24 -0.04
25 0.1
26 0.45
27 0.27
28 0.27
29 0.08
3 -0.56
30 -0.15
31 0.28
32 0.28
33 -0.15
34 -0.15
35 -0.15
36 0.28
4 -0.36
49 0.36
5 -0.9
58 0.15
6 -0.66
65 0.15
7 -0.84
70 0.15
71 0.15
72 0.15
8 -0.41
9 -0.81

> <PUBCHEM_EFFECTIVE_ROTOR_COUNT>
12.6

> <PUBCHEM_PHARMACOPHORE_FEATURES>
13
1 1 acceptor
1 3 acceptor
1 4 acceptor
1 5 cation
1 5 donor
1 7 cation
1 8 acceptor
1 9 cation
5 2 8 18 23 24 rings
6 25 29 30 33 34 35 rings
6 3 9 27 28 31 32 rings
6 5 10 11 12 13 16 rings
6 6 7 19 20 21 22 rings

> <PUBCHEM_HEAVY_ATOM_COUNT>
36

> <PUBCHEM_ATOM_DEF_STEREO_COUNT>
2

> <PUBCHEM_ATOM_UDEF_STEREO_COUNT>
0

> <PUBCHEM_BOND_DEF_STEREO_COUNT>
0

> <PUBCHEM_BOND_UDEF_STEREO_COUNT>
0

> <PUBCHEM_ISOTOPIC_ATOM_COUNT>
0

> <PUBCHEM_COMPONENT_COUNT>
1

> <PUBCHEM_CACTVS_TAUTO_COUNT>
1

> <PUBCHEM_CONFORMER_ID>
0198123000000001

> <PUBCHEM_MMFF94_ENERGY>
95.1699

> <PUBCHEM_FEATURE_SELFOVERLAP>
65.974

> <PUBCHEM_SHAPE_FINGERPRINT>
10029044 110 11959728291865787266
10190108 129 18186795894706120310
10258705 36 18336265635790482650
10429389 143 10231744605799554618
10533779 47 17703800193252041734
11135926 11 16916779669926041813
11443803 9 14117512138618567085
11456790 92 17418372497950864936
11497681 19 16733535015180946258
11534866 41 18412829054501911806
11607047 141 13469868982786238660
11638347 137 18410855485908586938
12098696 120 16056883502894374196
12539745 222 18410855435182148713
12717326 120 18116444810943620326
12838862 33 14189574113892200593
13383668 251 17918277545499327934
14150023 24 16200430247579506397
14344974 52 10231748994981480409
14415361 349 16660363671477682298
1454969 45 15213299691269099976
15064986 96 17775569698211089262
15183329 4 11891317756659388109
15198563 99 12973872664536050086
15461852 350 17530961371901366821
15979999 66 12468359059175800062
16991971 28 16081091476367899900
17899979 19 13190341253530866538
1818759 1 17385445423143984563
19302320 297 16200147746796838488
20105231 36 18409729535612474178
21304304 249 17968095356127689851
21403212 168 16773794780124909404
21591340 7 15985094215289393452
21781051 124 18413114974673782526
21792938 703 17604157029737365683
21867018 265 11819282165749526209
21895431 317 18187917353632909474
23389318 12 15068342302961173870
23576562 1 12757447084566962003
249057 3 14490470932952764729
3178227 256 17346316037742286680
397638 26 17346593097460987622
4339292 15 16153974782770171416
4516262 110 14117804596280437333
4874694 18 17989208128146213767
5028188 123 17530963541387463100
54039377 194 16298393457224141985
5470011 282 13262393354595520776
636775 72 10807943669634684979

> <PUBCHEM_SHAPE_MULTIPOLES>
692.48
35.37
2.51
2.24
11.53
0.71
1.39
23.43
-19.87
-0.99
-0.23
1.76
-0.16
0.51

> <PUBCHEM_SHAPE_SELFOVERLAP>
1457.649

> <PUBCHEM_SHAPE_VOLUME>
386.6

> <PUBCHEM_COORDINATE_TYPE>
2
5
10

$$$$
