38028999
  -OEChem-12032416253D

 74 77  0     1  0  0  0  0  0999 V2000
   -0.2864    3.9388   -0.5111 O   0  0  0  0  0  0  0  0  0  0  0  0
   -3.5449   -2.2163    2.0921 O   0  0  0  0  0  0  0  0  0  0  0  0
    1.3412    2.2814   -0.5761 N   0  0  0  0  0  0  0  0  0  0  0  0
   -3.8688   -1.4399   -0.0708 N   0  0  0  0  0  0  0  0  0  0  0  0
    4.0241    1.3347   -0.0417 N   0  0  0  0  0  0  0  0  0  0  0  0
    6.0237    0.2907   -0.7409 N   0  0  0  0  0  0  0  0  0  0  0  0
    2.1543   -5.9201   -1.1758 N   0  0  0  0  0  0  0  0  0  0  0  0
   -3.5593    1.4330    0.7623 C   0  0  1  0  0  0  0  0  0  0  0  0
   -4.6750    0.8607   -0.1473 C   0  0  1  0  0  0  0  0  0  0  0  0
   -2.9629    2.7061    0.1429 C   0  0  0  0  0  0  0  0  0  0  0  0
   -2.3695    2.4509   -1.2555 C   0  0  2  0  0  0  0  0  0  0  0  0
   -4.0745    1.7349    2.1730 C   0  0  0  0  0  0  0  0  0  0  0  0
   -3.3134    1.6509   -2.1302 C   0  0  0  0  0  0  0  0  0  0  0  0
   -4.3460    0.9575   -1.6186 C   0  0  0  0  0  0  0  0  0  0  0  0
   -1.0005    1.7687   -1.1585 C   0  0  0  0  0  0  0  0  0  0  0  0
   -4.9878   -0.5966    0.2112 C   0  0  0  0  0  0  0  0  0  0  0  0
   -4.7879    3.0828    2.2017 C   0  0  0  0  0  0  0  0  0  0  0  0
   -2.9255    1.7093    3.1760 C   0  0  0  0  0  0  0  0  0  0  0  0
   -3.0705    1.7030   -3.6129 C   0  0  0  0  0  0  0  0  0  0  0  0
    0.0411    2.7679   -0.7179 C   0  0  0  0  0  0  0  0  0  0  0  0
    1.7261    0.8880   -0.8118 C   0  0  0  0  0  0  0  0  0  0  0  0
    2.4073    3.1879   -0.1577 C   0  0  0  0  0  0  0  0  0  0  0  0
    3.2181    0.7274   -1.1037 C   0  0  0  0  0  0  0  0  0  0  0  0
    3.4634    2.4768    0.6857 C   0  0  0  0  0  0  0  0  0  0  0  0
   -3.2237   -2.1966    0.9068 C   0  0  0  0  0  0  0  0  0  0  0  0
    5.3032    0.8658    0.2479 C   0  0  0  0  0  0  0  0  0  0  0  0
   -2.0593   -3.0020    0.4569 C   0  0  0  0  0  0  0  0  0  0  0  0
    5.7568    1.0224    1.5478 C   0  0  0  0  0  0  0  0  0  0  0  0
   -1.7093   -4.1656    1.1419 C   0  0  0  0  0  0  0  0  0  0  0  0
   -1.3169   -2.5951   -0.6517 C   0  0  0  0  0  0  0  0  0  0  0  0
    7.0319    0.5589    1.8524 C   0  0  0  0  0  0  0  0  0  0  0  0
    7.2583   -0.1478   -0.4072 C   0  0  0  0  0  0  0  0  0  0  0  0
   -0.6169   -4.9223    0.7182 C   0  0  0  0  0  0  0  0  0  0  0  0
   -0.2244   -3.3518   -1.0753 C   0  0  0  0  0  0  0  0  0  0  0  0
    7.8033   -0.0387    0.8620 C   0  0  0  0  0  0  0  0  0  0  0  0
    0.1256   -4.5155   -0.3904 C   0  0  0  0  0  0  0  0  0  0  0  0
    1.2450   -5.2906   -0.8239 C   0  0  0  0  0  0  0  0  0  0  0  0
   -2.7573    0.6904    0.8447 H   0  0  0  0  0  0  0  0  0  0  0  0
   -5.5977    1.4366   -0.0024 H   0  0  0  0  0  0  0  0  0  0  0  0
   -2.2139    3.1476    0.8068 H   0  0  0  0  0  0  0  0  0  0  0  0
   -3.7410    3.4670   -0.0012 H   0  0  0  0  0  0  0  0  0  0  0  0
   -2.2606    3.4330   -1.7370 H   0  0  0  0  0  0  0  0  0  0  0  0
   -4.7876    0.9675    2.4914 H   0  0  0  0  0  0  0  0  0  0  0  0
   -5.0193    0.4394   -2.2988 H   0  0  0  0  0  0  0  0  0  0  0  0
   -0.6966    1.4030   -2.1447 H   0  0  0  0  0  0  0  0  0  0  0  0
   -1.0119    0.9186   -0.4699 H   0  0  0  0  0  0  0  0  0  0  0  0
   -5.8199   -0.9654   -0.4010 H   0  0  0  0  0  0  0  0  0  0  0  0
   -5.2993   -0.7028    1.2538 H   0  0  0  0  0  0  0  0  0  0  0  0
   -4.1025    3.9343    2.1345 H   0  0  0  0  0  0  0  0  0  0  0  0
   -5.3069    3.1943    3.1619 H   0  0  0  0  0  0  0  0  0  0  0  0
   -5.5533    3.1728    1.4254 H   0  0  0  0  0  0  0  0  0  0  0  0
   -2.1704    2.4727    2.9644 H   0  0  0  0  0  0  0  0  0  0  0  0
   -2.4294    0.7328    3.1780 H   0  0  0  0  0  0  0  0  0  0  0  0
   -3.2995    1.8893    4.1900 H   0  0  0  0  0  0  0  0  0  0  0  0
   -3.0465    2.7417   -3.9584 H   0  0  0  0  0  0  0  0  0  0  0  0
   -3.8576    1.1900   -4.1760 H   0  0  0  0  0  0  0  0  0  0  0  0
   -2.1206    1.2271   -3.8727 H   0  0  0  0  0  0  0  0  0  0  0  0
   -3.6037   -1.5468   -1.0445 H   0  0  0  0  0  0  0  0  0  0  0  0
    1.1517    0.4656   -1.6401 H   0  0  0  0  0  0  0  0  0  0  0  0
    1.4559    0.3312    0.0940 H   0  0  0  0  0  0  0  0  0  0  0  0
    1.9868    4.0316    0.3999 H   0  0  0  0  0  0  0  0  0  0  0  0
    2.8565    3.5925   -1.0730 H   0  0  0  0  0  0  0  0  0  0  0  0
    3.4384   -0.3432   -1.1945 H   0  0  0  0  0  0  0  0  0  0  0  0
    3.4699    1.2025   -2.0596 H   0  0  0  0  0  0  0  0  0  0  0  0
    4.2425    3.2092    0.9306 H   0  0  0  0  0  0  0  0  0  0  0  0
    3.0108    2.1266    1.6217 H   0  0  0  0  0  0  0  0  0  0  0  0
    5.1647    1.4673    2.3399 H   0  0  0  0  0  0  0  0  0  0  0  0
   -2.2784   -4.5009    2.0050 H   0  0  0  0  0  0  0  0  0  0  0  0
   -1.5391   -1.6805   -1.1937 H   0  0  0  0  0  0  0  0  0  0  0  0
    7.4222    0.6587    2.8608 H   0  0  0  0  0  0  0  0  0  0  0  0
    7.8191   -0.6062   -1.2150 H   0  0  0  0  0  0  0  0  0  0  0  0
   -0.3568   -5.8274    1.2619 H   0  0  0  0  0  0  0  0  0  0  0  0
    0.3493   -3.0178   -1.9366 H   0  0  0  0  0  0  0  0  0  0  0  0
    8.7993   -0.4084    1.0769 H   0  0  0  0  0  0  0  0  0  0  0  0
  1 20  2  0  0  0  0
  2 25  2  0  0  0  0
  3 20  1  0  0  0  0
  3 21  1  0  0  0  0
  3 22  1  0  0  0  0
  4 16  1  0  0  0  0
  4 25  1  0  0  0  0
  4 58  1  0  0  0  0
  5 23  1  0  0  0  0
  5 24  1  0  0  0  0
  5 26  1  0  0  0  0
  6 26  1  0  0  0  0
  6 32  2  0  0  0  0
  7 37  3  0  0  0  0
  8  9  1  0  0  0  0
  8 10  1  0  0  0  0
  8 12  1  0  0  0  0
  8 38  1  0  0  0  0
  9 14  1  0  0  0  0
  9 16  1  0  0  0  0
  9 39  1  0  0  0  0
 10 11  1  0  0  0  0
 10 40  1  0  0  0  0
 10 41  1  0  0  0  0
 11 13  1  0  0  0  0
 11 15  1  0  0  0  0
 11 42  1  0  0  0  0
 12 17  1  0  0  0  0
 12 18  1  0  0  0  0
 12 43  1  0  0  0  0
 13 14  2  0  0  0  0
 13 19  1  0  0  0  0
 14 44  1  0  0  0  0
 15 20  1  0  0  0  0
 15 45  1  0  0  0  0
 15 46  1  0  0  0  0
 16 47  1  0  0  0  0
 16 48  1  0  0  0  0
 17 49  1  0  0  0  0
 17 50  1  0  0  0  0
 17 51  1  0  0  0  0
 18 52  1  0  0  0  0
 18 53  1  0  0  0  0
 18 54  1  0  0  0  0
 19 55  1  0  0  0  0
 19 56  1  0  0  0  0
 19 57  1  0  0  0  0
 21 23  1  0  0  0  0
 21 59  1  0  0  0  0
 21 60  1  0  0  0  0
 22 24  1  0  0  0  0
 22 61  1  0  0  0  0
 22 62  1  0  0  0  0
 23 63  1  0  0  0  0
 23 64  1  0  0  0  0
 24 65  1  0  0  0  0
 24 66  1  0  0  0  0
 25 27  1  0  0  0  0
 26 28  2  0  0  0  0
 27 29  2  0  0  0  0
 27 30  1  0  0  0  0
 28 31  1  0  0  0  0
 28 67  1  0  0  0  0
 29 33  1  0  0  0  0
 29 68  1  0  0  0  0
 30 34  2  0  0  0  0
 30 69  1  0  0  0  0
 31 35  2  0  0  0  0
 31 70  1  0  0  0  0
 32 35  1  0  0  0  0
 32 71  1  0  0  0  0
 33 36  2  0  0  0  0
 33 72  1  0  0  0  0
 34 36  1  0  0  0  0
 34 73  1  0  0  0  0
 35 74  1  0  0  0  0
 36 37  1  0  0  0  0
M  END
> <PUBCHEM_COMPOUND_CID>
38028999

> <PUBCHEM_CONFORMER_RMSD>
1.2

> <PUBCHEM_CONFORMER_DIVERSEORDER>
1
63
29
74
101
4
111
66
116
83
30
70
56
77
9
20
53
105
7
109
13
18
67
115
98
43
68
93
48
103
108
19
58
17
24
92
44
107
89
102
27
22
21
80
85
45
64
26
82
112
16
41
114
54
60
50
11
94
117
36
32
100
106
96
72
5
87
35
15
104
75
31
84
69
88
62
6
47
39
25
49
81
8
99
57
14
90
86
91
38
76
37
59
28
95
73
110
34
78
42
97
46
51
33
79
71
113
12
52
40
61
23
10
3
2
65
55

> <PUBCHEM_MMFF94_PARTIAL_CHARGES>
42
1 -0.57
11 0.14
13 -0.28
14 -0.29
15 0.06
16 0.3
19 0.14
2 -0.57
20 0.57
21 0.3
22 0.3
23 0.37
24 0.37
25 0.54
26 0.41
27 0.09
28 -0.15
29 -0.15
3 -0.66
30 -0.15
31 -0.15
32 0.16
33 -0.15
34 -0.15
35 -0.15
36 0.07
37 0.48
4 -0.73
44 0.15
5 -0.84
58 0.37
6 -0.62
67 0.15
68 0.15
69 0.15
7 -0.56
70 0.15
71 0.15
72 0.15
73 0.15
74 0.15
9 0.14

> <PUBCHEM_EFFECTIVE_ROTOR_COUNT>
11

> <PUBCHEM_PHARMACOPHORE_FEATURES>
11
1 1 acceptor
1 2 acceptor
1 4 donor
1 5 cation
1 6 acceptor
1 7 acceptor
3 12 17 18 hydrophobe
6 27 29 30 33 34 36 rings
6 3 5 21 22 23 24 rings
6 6 26 28 31 32 35 rings
6 8 9 10 11 13 14 rings

> <PUBCHEM_HEAVY_ATOM_COUNT>
37

> <PUBCHEM_ATOM_DEF_STEREO_COUNT>
3

> <PUBCHEM_ATOM_UDEF_STEREO_COUNT>
0

> <PUBCHEM_BOND_DEF_STEREO_COUNT>
0

> <PUBCHEM_BOND_UDEF_STEREO_COUNT>
0

> <PUBCHEM_ISOTOPIC_ATOM_COUNT>
0

> <PUBCHEM_COMPONENT_COUNT>
1

> <PUBCHEM_CACTVS_TAUTO_COUNT>
2

> <PUBCHEM_CONFORMER_ID>
024446C700000001

> <PUBCHEM_MMFF94_ENERGY>
101.365

> <PUBCHEM_FEATURE_SELFOVERLAP>
55.822

> <PUBCHEM_SHAPE_FINGERPRINT>
10305334 12 18130517323313595737
10462385 53 18264480707096434132
10462674 296 17258773150157811342
11524674 6 18341604932414088575
11763389 116 18411415086595372870
14725015 67 18268989972534455191
14856354 85 15864070940661571556
15064986 96 18045236955401252673
15320294 125 17967800661959144910
15326923 133 18127700322962748318
15444296 8 16008757918239673981
15968369 26 17615949038468254678
16112460 7 18270402677034683730
16719943 64 18408317804777560062
17627616 140 18189882137302240062
20764821 26 18336839593021553007
20775438 99 16041927186136831607
20775530 9 17259639560539857847
229767 44 18338518646335734034
238918 7 18342183288463290590
3383291 50 18339350980785455511
3882209 13 17191478610052364646
45266715 3 18338499851411063447
5080951 261 18189317117570123776

> <PUBCHEM_SHAPE_MULTIPOLES>
724.8
14.91
7.38
2.4
32.03
13.66
-0.12
-7.92
-5.49
-1.88
0.65
-3.07
-1.56
1.15

> <PUBCHEM_SHAPE_SELFOVERLAP>
1531.263

> <PUBCHEM_SHAPE_VOLUME>
400.2

> <PUBCHEM_COORDINATE_TYPE>
2
5
10

$$$$
