45360396
  -OEChem-12032416173D

 71 74  0     1  0  0  0  0  0999 V2000
   -4.1526    3.2586   -1.6459 O   0  0  0  0  0  0  0  0  0  0  0  0
   -4.4251   -2.6452   -1.0745 O   0  0  0  0  0  0  0  0  0  0  0  0
   -2.0368    3.3117    1.3846 O   0  0  0  0  0  0  0  0  0  0  0  0
    3.8041    1.1442    0.2787 O   0  0  0  0  0  0  0  0  0  0  0  0
    0.4611   -1.8777    2.8049 O   0  0  0  0  0  0  0  0  0  0  0  0
   -1.2870   -0.4766    2.2760 O   0  0  0  0  0  0  0  0  0  0  0  0
    7.6859   -0.7857   -0.5570 O   0  0  0  0  0  0  0  0  0  0  0  0
   -4.9784   -0.6825    0.0142 N   0  0  0  0  0  0  0  0  0  0  0  0
   -2.5443    1.4468    0.1047 N   0  0  0  0  0  0  0  0  0  0  0  0
   -2.8647   -1.6845    0.3534 N   0  0  0  0  0  0  0  0  0  0  0  0
    7.9442    0.5413   -0.8783 N   0  0  0  0  0  0  0  0  0  0  0  0
   -3.9829    1.6293    0.1116 C   0  0  1  0  0  0  0  0  0  0  0  0
   -4.4602    1.8943   -1.3282 C   0  0  1  0  0  0  0  0  0  0  0  0
   -5.9591    1.7027   -1.5785 C   0  0  0  0  0  0  0  0  0  0  0  0
   -4.6694    0.4791    0.8590 C   0  0  0  0  0  0  0  0  0  0  0  0
   -6.3474    0.2463   -1.8438 C   0  0  0  0  0  0  0  0  0  0  0  0
   -6.3001   -0.6539   -0.6152 C   0  0  0  0  0  0  0  0  0  0  0  0
   -4.0990   -1.7486   -0.2928 C   0  0  0  0  0  0  0  0  0  0  0  0
   -1.6884    2.3182    0.7520 C   0  0  0  0  0  0  0  0  0  0  0  0
   -0.2410    2.0074    0.6281 C   0  0  0  0  0  0  0  0  0  0  0  0
   -1.6147   -2.1716   -0.1056 C   0  0  0  0  0  0  0  0  0  0  0  0
    0.6475    2.4146    1.6233 C   0  0  0  0  0  0  0  0  0  0  0  0
    0.2299    1.3100   -0.4844 C   0  0  0  0  0  0  0  0  0  0  0  0
   -0.4613   -2.0288    0.6655 C   0  0  0  0  0  0  0  0  0  0  0  0
   -1.5491   -2.8014   -1.3484 C   0  0  0  0  0  0  0  0  0  0  0  0
    2.0068    2.1249    1.5060 C   0  0  0  0  0  0  0  0  0  0  0  0
    1.5892    1.0202   -0.6019 C   0  0  0  0  0  0  0  0  0  0  0  0
    2.4776    1.4276    0.3934 C   0  0  0  0  0  0  0  0  0  0  0  0
    0.7579   -2.5157    0.1937 C   0  0  0  0  0  0  0  0  0  0  0  0
   -0.3302   -3.2885   -1.8203 C   0  0  0  0  0  0  0  0  0  0  0  0
    0.8232   -3.1456   -1.0491 C   0  0  0  0  0  0  0  0  0  0  0  0
   -0.4947   -1.3740    1.9674 C   0  0  0  0  0  0  0  0  0  0  0  0
    4.2165    0.4283   -0.8846 C   0  0  0  0  0  0  0  0  0  0  0  0
    5.6955    0.1862   -0.8124 C   0  0  0  0  0  0  0  0  0  0  0  0
    6.3435   -0.9849   -0.5207 C   0  0  0  0  0  0  0  0  0  0  0  0
    6.7404    1.1018   -1.0261 C   0  0  0  0  0  0  0  0  0  0  0  0
    5.8945   -2.3444   -0.1930 C   0  0  0  0  0  0  0  0  0  0  0  0
    6.6397    2.5291   -1.3744 C   0  0  0  0  0  0  0  0  0  0  0  0
    0.5285   -1.3129    4.1187 C   0  0  0  0  0  0  0  0  0  0  0  0
   -4.1860    2.5333    0.7006 H   0  0  0  0  0  0  0  0  0  0  0  0
   -3.8891    1.2770   -2.0336 H   0  0  0  0  0  0  0  0  0  0  0  0
   -6.5454    2.1191   -0.7501 H   0  0  0  0  0  0  0  0  0  0  0  0
   -6.2511    2.2855   -2.4622 H   0  0  0  0  0  0  0  0  0  0  0  0
   -5.6159    0.8424    1.2791 H   0  0  0  0  0  0  0  0  0  0  0  0
   -4.0775    0.1701    1.7254 H   0  0  0  0  0  0  0  0  0  0  0  0
   -7.3700    0.2266   -2.2402 H   0  0  0  0  0  0  0  0  0  0  0  0
   -5.7016   -0.1656   -2.6292 H   0  0  0  0  0  0  0  0  0  0  0  0
   -6.5870   -1.6685   -0.9135 H   0  0  0  0  0  0  0  0  0  0  0  0
   -7.0384   -0.3336    0.1291 H   0  0  0  0  0  0  0  0  0  0  0  0
   -2.1910    0.6193   -0.3625 H   0  0  0  0  0  0  0  0  0  0  0  0
   -4.3319    3.3882   -2.5929 H   0  0  0  0  0  0  0  0  0  0  0  0
   -2.8298   -1.1871    1.2347 H   0  0  0  0  0  0  0  0  0  0  0  0
    0.2986    2.9539    2.5000 H   0  0  0  0  0  0  0  0  0  0  0  0
   -0.4223    1.0034   -1.2969 H   0  0  0  0  0  0  0  0  0  0  0  0
   -2.3997   -2.9181   -2.0078 H   0  0  0  0  0  0  0  0  0  0  0  0
    2.6941    2.4429    2.2852 H   0  0  0  0  0  0  0  0  0  0  0  0
    1.8848    0.4840   -1.4970 H   0  0  0  0  0  0  0  0  0  0  0  0
    1.6789   -2.4052    0.7602 H   0  0  0  0  0  0  0  0  0  0  0  0
   -0.2765   -3.7718   -2.7915 H   0  0  0  0  0  0  0  0  0  0  0  0
    1.7737   -3.5187   -1.4194 H   0  0  0  0  0  0  0  0  0  0  0  0
    3.7100   -0.5437   -0.9400 H   0  0  0  0  0  0  0  0  0  0  0  0
    4.0120    1.0131   -1.7907 H   0  0  0  0  0  0  0  0  0  0  0  0
    5.0834   -2.3185    0.5416 H   0  0  0  0  0  0  0  0  0  0  0  0
    6.7075   -2.9444    0.2279 H   0  0  0  0  0  0  0  0  0  0  0  0
    5.5274   -2.8516   -1.0905 H   0  0  0  0  0  0  0  0  0  0  0  0
    6.1458    2.6532   -2.3436 H   0  0  0  0  0  0  0  0  0  0  0  0
    7.6240    3.0052   -1.4372 H   0  0  0  0  0  0  0  0  0  0  0  0
    6.0561    3.0687   -0.6215 H   0  0  0  0  0  0  0  0  0  0  0  0
    0.7562   -0.2445    4.0579 H   0  0  0  0  0  0  0  0  0  0  0  0
   -0.4142   -1.4776    4.6488 H   0  0  0  0  0  0  0  0  0  0  0  0
    1.3324   -1.8141    4.6641 H   0  0  0  0  0  0  0  0  0  0  0  0
  1 13  1  0  0  0  0
  1 51  1  0  0  0  0
  2 18  2  0  0  0  0
  3 19  2  0  0  0  0
  4 28  1  0  0  0  0
  4 33  1  0  0  0  0
  5 32  1  0  0  0  0
  5 39  1  0  0  0  0
  6 32  2  0  0  0  0
  7 11  1  0  0  0  0
  7 35  1  0  0  0  0
  8 15  1  0  0  0  0
  8 17  1  0  0  0  0
  8 18  1  0  0  0  0
  9 12  1  0  0  0  0
  9 19  1  0  0  0  0
  9 50  1  0  0  0  0
 10 18  1  0  0  0  0
 10 21  1  0  0  0  0
 10 52  1  0  0  0  0
 11 36  2  0  0  0  0
 12 13  1  0  0  0  0
 12 15  1  0  0  0  0
 12 40  1  0  0  0  0
 13 14  1  0  0  0  0
 13 41  1  0  0  0  0
 14 16  1  0  0  0  0
 14 42  1  0  0  0  0
 14 43  1  0  0  0  0
 15 44  1  0  0  0  0
 15 45  1  0  0  0  0
 16 17  1  0  0  0  0
 16 46  1  0  0  0  0
 16 47  1  0  0  0  0
 17 48  1  0  0  0  0
 17 49  1  0  0  0  0
 19 20  1  0  0  0  0
 20 22  2  0  0  0  0
 20 23  1  0  0  0  0
 21 24  1  0  0  0  0
 21 25  2  0  0  0  0
 22 26  1  0  0  0  0
 22 53  1  0  0  0  0
 23 27  2  0  0  0  0
 23 54  1  0  0  0  0
 24 29  2  0  0  0  0
 24 32  1  0  0  0  0
 25 30  1  0  0  0  0
 25 55  1  0  0  0  0
 26 28  2  0  0  0  0
 26 56  1  0  0  0  0
 27 28  1  0  0  0  0
 27 57  1  0  0  0  0
 29 31  1  0  0  0  0
 29 58  1  0  0  0  0
 30 31  2  0  0  0  0
 30 59  1  0  0  0  0
 31 60  1  0  0  0  0
 33 34  1  0  0  0  0
 33 61  1  0  0  0  0
 33 62  1  0  0  0  0
 34 35  2  0  0  0  0
 34 36  1  0  0  0  0
 35 37  1  0  0  0  0
 36 38  1  0  0  0  0
 37 63  1  0  0  0  0
 37 64  1  0  0  0  0
 37 65  1  0  0  0  0
 38 66  1  0  0  0  0
 38 67  1  0  0  0  0
 38 68  1  0  0  0  0
 39 69  1  0  0  0  0
 39 70  1  0  0  0  0
 39 71  1  0  0  0  0
M  END
> <PUBCHEM_COMPOUND_CID>
45360396

> <PUBCHEM_CONFORMER_RMSD>
1.2

> <PUBCHEM_CONFORMER_DIVERSEORDER>
1
136
40
125
43
70
6
122
101
57
61
62
64
50
123
137
38
86
29
27
97
42
142
143
146
133
24
37
49
55
85
130
11
93
41
39
112
65
108
91
76
81
150
138
72
60
31
13
104
124
67
75
109
63
4
71
120
83
129
36
10
92
102
119
134
22
90
117
87
56
103
33
2
77
95
144
84
94
32
74
145
34
82
151
149
105
79
46
15
28
132
89
141
148
96
54
66
44
118
69
98
59
8
80
52
106
51
20
126
73
23
139
47
110
111
88
152
21
68
121
16
30
26
135
78
113
18
147
100
107
127
99
115
58
19
48
45
114
17
131
9
116
25
53
35
12
140
5
3
7
128
14

> <PUBCHEM_MMFF94_PARTIAL_CHARGES>
48
1 -0.68
10 -0.55
11 -0.41
12 0.3
13 0.28
15 0.3
17 0.3
18 0.69
19 0.54
2 -0.57
20 0.09
21 0.12
22 -0.15
23 -0.15
24 0.09
25 -0.15
26 -0.15
27 -0.15
28 0.08
29 -0.15
3 -0.57
30 -0.15
31 -0.15
32 0.63
33 0.46
34 -0.18
35 -0.04
36 0.11
37 0.18
38 0.18
39 0.28
4 -0.36
5 -0.43
50 0.37
51 0.4
52 0.37
53 0.15
54 0.15
55 0.15
56 0.15
57 0.15
58 0.15
59 0.15
6 -0.57
60 0.15
7 -0.02
8 -0.66
9 -0.73

> <PUBCHEM_EFFECTIVE_ROTOR_COUNT>
12.4

> <PUBCHEM_PHARMACOPHORE_FEATURES>
13
1 1 acceptor
1 1 donor
1 10 donor
1 11 acceptor
1 2 acceptor
1 3 acceptor
1 4 acceptor
1 6 acceptor
1 9 donor
5 7 11 34 35 36 rings
6 20 22 23 26 27 28 rings
6 21 24 25 29 30 31 rings
7 8 12 13 14 15 16 17 rings

> <PUBCHEM_HEAVY_ATOM_COUNT>
39

> <PUBCHEM_ATOM_DEF_STEREO_COUNT>
2

> <PUBCHEM_ATOM_UDEF_STEREO_COUNT>
0

> <PUBCHEM_BOND_DEF_STEREO_COUNT>
0

> <PUBCHEM_BOND_UDEF_STEREO_COUNT>
0

> <PUBCHEM_ISOTOPIC_ATOM_COUNT>
0

> <PUBCHEM_COMPONENT_COUNT>
1

> <PUBCHEM_CACTVS_TAUTO_COUNT>
10

> <PUBCHEM_CONFORMER_ID>
02B4250C00000001

> <PUBCHEM_MMFF94_ENERGY>
106.832

> <PUBCHEM_FEATURE_SELFOVERLAP>
65.977

> <PUBCHEM_SHAPE_FINGERPRINT>
10190206 1 18341899567176439992
10483366 6 18272649043656522047
107951 10 17749115486758405138
11007060 377 18260553328961373304
11135926 11 18341333284639445189
13726171 33 18263928722949081873
13782708 43 16773788199750085268
14068700 675 17275109465719834778
14674994 50 16629962252157280646
14930077 153 18042411407363566772
14931854 50 18338219515228400853
15183329 4 18412545418538686374
15975801 100 17895740808372839565
19958102 18 18409164437331217476
20511986 3 18334011718736203092
23559900 14 18270677696296363920
3383291 50 18131068234236127966
5085150 59 18272083886343436790
5265222 85 18336549438021633468
59755656 215 18410851058356363479
6009941 240 17603874450890352666

> <PUBCHEM_SHAPE_MULTIPOLES>
741.59
16.93
4.14
2.31
21.23
0.77
-2.37
-4.22
11.47
-1.31
0.62
-0.59
0.55
-0.09

> <PUBCHEM_SHAPE_SELFOVERLAP>
1581.245

> <PUBCHEM_SHAPE_VOLUME>
409.7

> <PUBCHEM_COORDINATE_TYPE>
2
5
10

$$$$
