11885189
  -OEChem-12032416233D

 45 49  0     1  0  0  0  0  0999 V2000
   -3.4318   -0.5031    0.8573 S   0  0  0  0  0  0  0  0  0  0  0  0
   -1.2830   -2.4834    0.7621 S   0  0  0  0  0  0  0  0  0  0  0  0
    3.8177   -1.8994    0.6797 S   0  0  0  0  0  0  0  0  0  0  0  0
   -4.7564   -0.3564    0.2898 O   0  0  0  0  0  0  0  0  0  0  0  0
   -3.2229   -0.6806    2.2790 O   0  0  0  0  0  0  0  0  0  0  0  0
    2.3066    1.4138    1.6365 O   0  0  0  0  0  0  0  0  0  0  0  0
   -2.4553    0.7875    0.3023 N   0  0  2  0  0  0  0  0  0  0  0  0
    0.5674    1.6860    0.1067 N   0  0  0  0  0  0  0  0  0  0  0  0
   -1.5186    3.0796    0.6231 C   0  0  1  0  0  0  0  0  0  0  0  0
   -1.3027    1.9696   -1.5569 C   0  0  2  0  0  0  0  0  0  0  0  0
   -1.5625    3.3131   -0.8811 C   0  0  0  0  0  0  0  0  0  0  0  0
   -2.6001    2.0717    1.0455 C   0  0  0  0  0  0  0  0  0  0  0  0
   -2.4185    0.9787   -1.1786 C   0  0  0  0  0  0  0  0  0  0  0  0
   -0.1078    2.6234    1.0149 C   0  0  0  0  0  0  0  0  0  0  0  0
    0.0529    1.4133   -1.1629 C   0  0  0  0  0  0  0  0  0  0  0  0
    0.7457    0.6460   -2.0196 C   0  0  0  0  0  0  0  0  0  0  0  0
    1.8040    1.1670    0.5387 C   0  0  0  0  0  0  0  0  0  0  0  0
    2.5401    0.2810   -0.4300 C   0  0  0  0  0  0  0  0  0  0  0  0
    2.0043    0.0686   -1.6413 C   0  0  0  0  0  0  0  0  0  0  0  0
   -2.7910   -2.0109    0.1369 C   0  0  0  0  0  0  0  0  0  0  0  0
    3.8190   -0.3528   -0.0649 C   0  0  0  0  0  0  0  0  0  0  0  0
   -3.2802   -2.8465   -0.8127 C   0  0  0  0  0  0  0  0  0  0  0  0
   -2.3874   -3.9313   -1.0499 C   0  0  0  0  0  0  0  0  0  0  0  0
    5.1046    0.1272   -0.2352 C   0  0  0  0  0  0  0  0  0  0  0  0
   -1.2613   -3.8567   -0.2603 C   0  0  0  0  0  0  0  0  0  0  0  0
    6.0900   -0.7812    0.2486 C   0  0  0  0  0  0  0  0  0  0  0  0
    5.5273   -1.9243    0.7722 C   0  0  0  0  0  0  0  0  0  0  0  0
   -1.7287    4.0222    1.1441 H   0  0  0  0  0  0  0  0  0  0  0  0
   -1.3347    2.1248   -2.6434 H   0  0  0  0  0  0  0  0  0  0  0  0
   -0.8091    4.0526   -1.1803 H   0  0  0  0  0  0  0  0  0  0  0  0
   -2.5399    3.7115   -1.1796 H   0  0  0  0  0  0  0  0  0  0  0  0
   -2.5175    1.8857    2.1220 H   0  0  0  0  0  0  0  0  0  0  0  0
   -3.5955    2.4883    0.8488 H   0  0  0  0  0  0  0  0  0  0  0  0
   -3.3892    1.3581   -1.5202 H   0  0  0  0  0  0  0  0  0  0  0  0
   -2.2373    0.0209   -1.6772 H   0  0  0  0  0  0  0  0  0  0  0  0
    0.5441    3.5065    1.0649 H   0  0  0  0  0  0  0  0  0  0  0  0
   -0.1083    2.1926    2.0242 H   0  0  0  0  0  0  0  0  0  0  0  0
    0.3655    0.4126   -3.0086 H   0  0  0  0  0  0  0  0  0  0  0  0
    2.4936   -0.5629   -2.3770 H   0  0  0  0  0  0  0  0  0  0  0  0
   -4.2237   -2.7080   -1.3241 H   0  0  0  0  0  0  0  0  0  0  0  0
   -2.5620   -4.7256   -1.7640 H   0  0  0  0  0  0  0  0  0  0  0  0
    5.3300    1.0860   -0.6856 H   0  0  0  0  0  0  0  0  0  0  0  0
   -0.4263   -4.5426   -0.2353 H   0  0  0  0  0  0  0  0  0  0  0  0
    7.1572   -0.6051    0.2143 H   0  0  0  0  0  0  0  0  0  0  0  0
    6.0384   -2.7727    1.2048 H   0  0  0  0  0  0  0  0  0  0  0  0
  1  4  2  0  0  0  0
  1  5  2  0  0  0  0
  1  7  1  0  0  0  0
  1 20  1  0  0  0  0
  2 20  1  0  0  0  0
  2 25  1  0  0  0  0
  3 21  1  0  0  0  0
  3 27  1  0  0  0  0
  6 17  2  0  0  0  0
  7 12  1  0  0  0  0
  7 13  1  0  0  0  0
  8 14  1  0  0  0  0
  8 15  1  0  0  0  0
  8 17  1  0  0  0  0
  9 11  1  0  0  0  0
  9 12  1  0  0  0  0
  9 14  1  0  0  0  0
  9 28  1  0  0  0  0
 10 11  1  0  0  0  0
 10 13  1  0  0  0  0
 10 15  1  0  0  0  0
 10 29  1  0  0  0  0
 11 30  1  0  0  0  0
 11 31  1  0  0  0  0
 12 32  1  0  0  0  0
 12 33  1  0  0  0  0
 13 34  1  0  0  0  0
 13 35  1  0  0  0  0
 14 36  1  0  0  0  0
 14 37  1  0  0  0  0
 15 16  2  0  0  0  0
 16 19  1  0  0  0  0
 16 38  1  0  0  0  0
 17 18  1  0  0  0  0
 18 19  2  0  0  0  0
 18 21  1  0  0  0  0
 19 39  1  0  0  0  0
 20 22  2  0  0  0  0
 21 24  2  0  0  0  0
 22 23  1  0  0  0  0
 22 40  1  0  0  0  0
 23 25  2  0  0  0  0
 23 41  1  0  0  0  0
 24 26  1  0  0  0  0
 24 42  1  0  0  0  0
 25 43  1  0  0  0  0
 26 27  2  0  0  0  0
 26 44  1  0  0  0  0
 27 45  1  0  0  0  0
M  END
> <PUBCHEM_COMPOUND_CID>
11885189

> <PUBCHEM_CONFORMER_RMSD>
0.8

> <PUBCHEM_CONFORMER_DIVERSEORDER>
1
21
13
4
18
15
17
7
3
16
11
19
22
2
10
9
12
8
20
5
14
6

> <PUBCHEM_MMFF94_PARTIAL_CHARGES>
33
1 1.5
10 0.14
12 0.36
13 0.36
14 0.3
15 -0.03
16 -0.15
17 0.62
18 0.06
19 -0.15
2 -0.08
20 -0.02
21 -0.01
22 -0.15
23 -0.15
24 -0.15
25 -0.11
26 -0.15
27 -0.11
3 -0.08
38 0.15
39 0.15
4 -0.65
40 0.15
41 0.15
42 0.15
43 0.15
44 0.15
45 0.15
5 -0.65
6 -0.57
7 -0.85
8 -0.47

> <PUBCHEM_EFFECTIVE_ROTOR_COUNT>
4

> <PUBCHEM_PHARMACOPHORE_FEATURES>
8
1 4 acceptor
1 5 acceptor
1 6 acceptor
5 2 20 22 23 25 rings
5 3 21 24 26 27 rings
6 7 9 10 11 12 13 rings
6 8 15 16 17 18 19 rings
6 8 9 10 11 14 15 rings

> <PUBCHEM_HEAVY_ATOM_COUNT>
27

> <PUBCHEM_ATOM_DEF_STEREO_COUNT>
2

> <PUBCHEM_ATOM_UDEF_STEREO_COUNT>
0

> <PUBCHEM_BOND_DEF_STEREO_COUNT>
0

> <PUBCHEM_BOND_UDEF_STEREO_COUNT>
0

> <PUBCHEM_ISOTOPIC_ATOM_COUNT>
0

> <PUBCHEM_COMPONENT_COUNT>
1

> <PUBCHEM_CACTVS_TAUTO_COUNT>
1

> <PUBCHEM_CONFORMER_ID>
00B55A8500000001

> <PUBCHEM_MMFF94_ENERGY>
55.3673

> <PUBCHEM_FEATURE_SELFOVERLAP>
42.199

> <PUBCHEM_SHAPE_FINGERPRINT>
10483366 6 18266155315778626855
11014199 57 18049445047924510474
11552529 35 18412539903874212994
12156800 1 17687692352178802955
12422481 6 17901980472551594337
12523318 42 18338786828615257128
12553582 1 18194423275117532815
12633257 1 17988376934818122971
12788726 201 18265073416951855572
12969540 37 17691117553884040909
13004483 165 18334296487182930301
13103583 49 18060150854824533634
13583140 156 18270666577306172008
13631057 29 18410007780493917646
14020679 6 17630894802296857409
14081887 123 18339912797120192138
14114206 34 17531233006886579443
14251751 93 17896035456077205698
14251757 5 18335702762866306714
14844126 61 18409165485002317051
14863182 85 16680626901819801553
15927050 60 17765714616709528349
19319366 153 16817192731580199429
20600515 1 18200331986523901021
20681677 274 18270675480351344568
20775530 9 18122056765351572627
23559900 14 18336536179663519976
2818148 4 17246423331821275715
3459 110 18129364064490776368
35225 105 18192689203414571199
392239 28 18340200903879972416
463206 1 18263364861571271267
474 4 9043655757836340222
484985 159 18336530643123550310
56638632 33 18271245053002113481
602551 16 18341057337348616638
6700243 42 11316876660976376992

> <PUBCHEM_SHAPE_MULTIPOLES>
539.63
9.49
4.56
1.61
14.19
2.29
0.12
5.46
-2.2
-4.56
0.4
-0.58
-0.38
-0.69

> <PUBCHEM_SHAPE_SELFOVERLAP>
1147.579

> <PUBCHEM_SHAPE_VOLUME>
300.6

> <PUBCHEM_COORDINATE_TYPE>
2
5
10

$$$$
