7113396
  -OEChem-12032416133D

 62 65  0     1  0  0  0  0  0999 V2000
   -5.2653    0.8295   -0.6189 S   0  0  0  0  0  0  0  0  0  0  0  0
    4.4981   -1.0367    0.9931 F   0  0  0  0  0  0  0  0  0  0  0  0
    0.1302    0.8421    1.9518 O   0  0  0  0  0  0  0  0  0  0  0  0
   -3.8990    2.5358    1.4418 O   0  0  0  0  0  0  0  0  0  0  0  0
    2.7302    4.1003    1.2491 O   0  0  0  0  0  0  0  0  0  0  0  0
   -1.4370   -3.9818    2.4111 O   0  0  0  0  0  0  0  0  0  0  0  0
   -2.5928   -2.9330    0.7221 O   0  0  0  0  0  0  0  0  0  0  0  0
   -1.7964    2.3880    0.4686 N   0  0  0  0  0  0  0  0  0  0  0  0
    0.9274    3.1376    0.1134 N   0  0  0  0  0  0  0  0  0  0  0  0
   -0.8207   -0.8341    0.6458 N   0  0  0  0  0  0  0  0  0  0  0  0
    0.7931   -5.1119   -1.5436 N   0  0  0  0  0  0  0  0  0  0  0  0
   -0.8573    1.4288   -0.1437 C   0  0  1  0  0  0  0  0  0  0  0  0
    0.3668    2.1045   -0.7664 C   0  0  0  0  0  0  0  0  0  0  0  0
   -1.1964    3.4457    1.2934 C   0  0  0  0  0  0  0  0  0  0  0  0
   -0.0410    4.1275    0.5751 C   0  0  0  0  0  0  0  0  0  0  0  0
   -0.4615    0.4696    0.9420 C   0  0  0  0  0  0  0  0  0  0  0  0
   -3.2009    2.2458    0.4689 C   0  0  0  0  0  0  0  0  0  0  0  0
    2.2612    3.2324    0.5146 C   0  0  0  0  0  0  0  0  0  0  0  0
   -0.5332   -1.9505    1.5171 C   0  0  2  0  0  0  0  0  0  0  0  0
    0.8466   -2.5603    1.2289 C   0  0  0  0  0  0  0  0  0  0  0  0
   -3.8185    1.7304   -0.7459 C   0  0  0  0  0  0  0  0  0  0  0  0
    3.2027    2.2183    0.0251 C   0  0  0  0  0  0  0  0  0  0  0  0
   -1.6370   -2.9995    1.4882 C   0  0  0  0  0  0  0  0  0  0  0  0
    0.9907   -3.1763   -0.1444 C   0  0  0  0  0  0  0  0  0  0  0  0
   -3.3957    1.8638   -2.0456 C   0  0  0  0  0  0  0  0  0  0  0  0
    3.4056    1.0510    0.7570 C   0  0  0  0  0  0  0  0  0  0  0  0
    3.8877    2.4278   -1.1690 C   0  0  0  0  0  0  0  0  0  0  0  0
   -4.2759    1.2141   -2.9584 C   0  0  0  0  0  0  0  0  0  0  0  0
   -5.3349    0.6113   -2.3158 C   0  0  0  0  0  0  0  0  0  0  0  0
    1.4303   -2.4116   -1.2030 C   0  0  0  0  0  0  0  0  0  0  0  0
    4.2996    0.0868    0.2916 C   0  0  0  0  0  0  0  0  0  0  0  0
    4.7818    1.4636   -1.6343 C   0  0  0  0  0  0  0  0  0  0  0  0
    0.6854   -4.5001   -0.3429 C   0  0  0  0  0  0  0  0  0  0  0  0
    4.9878    0.2932   -0.9041 C   0  0  0  0  0  0  0  0  0  0  0  0
    1.5541   -3.0056   -2.4541 C   0  0  0  0  0  0  0  0  0  0  0  0
   -2.4416   -4.9998    2.4625 C   0  0  0  0  0  0  0  0  0  0  0  0
    1.2259   -4.3467   -2.5707 C   0  0  0  0  0  0  0  0  0  0  0  0
   -1.3598    0.8627   -0.9296 H   0  0  0  0  0  0  0  0  0  0  0  0
    0.0718    2.6201   -1.6886 H   0  0  0  0  0  0  0  0  0  0  0  0
    1.1132    1.3556   -1.0414 H   0  0  0  0  0  0  0  0  0  0  0  0
   -0.8717    3.0061    2.2413 H   0  0  0  0  0  0  0  0  0  0  0  0
   -1.9623    4.1904    1.5389 H   0  0  0  0  0  0  0  0  0  0  0  0
   -0.4028    4.6634   -0.3106 H   0  0  0  0  0  0  0  0  0  0  0  0
    0.4309    4.8609    1.2363 H   0  0  0  0  0  0  0  0  0  0  0  0
   -1.2960   -1.0394   -0.2279 H   0  0  0  0  0  0  0  0  0  0  0  0
   -0.5238   -1.5556    2.5417 H   0  0  0  0  0  0  0  0  0  0  0  0
    1.6205   -1.7905    1.3518 H   0  0  0  0  0  0  0  0  0  0  0  0
    1.0828   -3.3243    1.9817 H   0  0  0  0  0  0  0  0  0  0  0  0
   -2.5144    2.4136   -2.3505 H   0  0  0  0  0  0  0  0  0  0  0  0
    2.8798    0.8813    1.6922 H   0  0  0  0  0  0  0  0  0  0  0  0
    3.7335    3.3359   -1.7457 H   0  0  0  0  0  0  0  0  0  0  0  0
   -4.1419    1.1941   -4.0321 H   0  0  0  0  0  0  0  0  0  0  0  0
    1.6789   -1.3620   -1.0806 H   0  0  0  0  0  0  0  0  0  0  0  0
   -6.1466    0.0542   -2.7618 H   0  0  0  0  0  0  0  0  0  0  0  0
    5.3172    1.6238   -2.5655 H   0  0  0  0  0  0  0  0  0  0  0  0
    0.3422   -5.1413    0.4618 H   0  0  0  0  0  0  0  0  0  0  0  0
    5.6833   -0.4581   -1.2663 H   0  0  0  0  0  0  0  0  0  0  0  0
    1.8964   -2.4363   -3.3108 H   0  0  0  0  0  0  0  0  0  0  0  0
   -2.4986   -5.5238    1.5036 H   0  0  0  0  0  0  0  0  0  0  0  0
   -2.1592   -5.7169    3.2377 H   0  0  0  0  0  0  0  0  0  0  0  0
   -3.4103   -4.5632    2.7237 H   0  0  0  0  0  0  0  0  0  0  0  0
    1.3050   -4.8568   -3.5251 H   0  0  0  0  0  0  0  0  0  0  0  0
  1 21  1  0  0  0  0
  1 29  1  0  0  0  0
  2 31  1  0  0  0  0
  3 16  2  0  0  0  0
  4 17  2  0  0  0  0
  5 18  2  0  0  0  0
  6 23  1  0  0  0  0
  6 36  1  0  0  0  0
  7 23  2  0  0  0  0
  8 12  1  0  0  0  0
  8 14  1  0  0  0  0
  8 17  1  0  0  0  0
  9 13  1  0  0  0  0
  9 15  1  0  0  0  0
  9 18  1  0  0  0  0
 10 16  1  0  0  0  0
 10 19  1  0  0  0  0
 10 45  1  0  0  0  0
 11 33  1  0  0  0  0
 11 37  2  0  0  0  0
 12 13  1  0  0  0  0
 12 16  1  0  0  0  0
 12 38  1  0  0  0  0
 13 39  1  0  0  0  0
 13 40  1  0  0  0  0
 14 15  1  0  0  0  0
 14 41  1  0  0  0  0
 14 42  1  0  0  0  0
 15 43  1  0  0  0  0
 15 44  1  0  0  0  0
 17 21  1  0  0  0  0
 18 22  1  0  0  0  0
 19 20  1  0  0  0  0
 19 23  1  0  0  0  0
 19 46  1  0  0  0  0
 20 24  1  0  0  0  0
 20 47  1  0  0  0  0
 20 48  1  0  0  0  0
 21 25  2  0  0  0  0
 22 26  2  0  0  0  0
 22 27  1  0  0  0  0
 24 30  1  0  0  0  0
 24 33  2  0  0  0  0
 25 28  1  0  0  0  0
 25 49  1  0  0  0  0
 26 31  1  0  0  0  0
 26 50  1  0  0  0  0
 27 32  2  0  0  0  0
 27 51  1  0  0  0  0
 28 29  2  0  0  0  0
 28 52  1  0  0  0  0
 29 54  1  0  0  0  0
 30 35  2  0  0  0  0
 30 53  1  0  0  0  0
 31 34  2  0  0  0  0
 32 34  1  0  0  0  0
 32 55  1  0  0  0  0
 33 56  1  0  0  0  0
 34 57  1  0  0  0  0
 35 37  1  0  0  0  0
 35 58  1  0  0  0  0
 36 59  1  0  0  0  0
 36 60  1  0  0  0  0
 36 61  1  0  0  0  0
 37 62  1  0  0  0  0
M  END
> <PUBCHEM_COMPOUND_CID>
7113396

> <PUBCHEM_CONFORMER_RMSD>
1.2

> <PUBCHEM_CONFORMER_DIVERSEORDER>
1
318
48
115
116
193
194
329
220
99
290
207
363
218
316
127
60
136
330
73
245
301
238
328
52
224
226
270
124
336
185
261
63
268
354
262
154
45
287
178
258
101
332
197
248
42
265
347
361
308
327
333
341
280
95
324
300
276
24
25
122
271
299
2
168
264
225
212
134
326
335
232
28
142
108
297
138
307
92
309
18
291
217
150
342
55
84
111
113
281
47
146
105
100
211
337
269
229
223
196
91
345
322
365
93
195
356
166
114
14
231
362
79
117
174
23
82
164
320
323
344
131
355
273
334
274
339
126
311
260
98
237
167
191
8
88
192
351
350
343
298
58
83
352
22
209
13
286
230
312
251
198
89
315
70
179
170
177
277
163
346
76
360
102
305
253
296
349
259
294
147
41
366
246
86
186
128
175
216
40
29
295
71
234
149
119
152
247
139
165
5
233
340
319
171
189
125
96
184
228
304
110
173
27
331
255
169
222
109
90
118
219
249
180
94
204
39
285
283
54
208
11
214
206
155
325
74
159
215
172
12
257
130
313
293
64
272
359
275
57
292
6
72
50
156
250
199
310
135
20
278
75
303
317
263
353
32
35
68
7
306
17
302
364
121
87
252
338
38
242
358
43
129
321
144
59
190
85
158
235
161
288
33
103
34
51
77
37
140
348
120
123
181
36
69
266
104
44
244
202
153
160
30
357
162
289
183
314
236
133
9
107
15
80
254
106
97
282
256
239
240
188
10
205
227
137
46
200
143
65
221
157
187
19
61
145
16
141
241
53
203
176
49
213
210
81
132
151
31
243
182
279
21
62
112
78
148
284
66
26
4
67
201
3
56
267

> <PUBCHEM_MMFF94_PARTIAL_CHARGES>
49
1 -0.08
10 -0.73
11 -0.62
12 0.36
13 0.3
14 0.3
15 0.3
16 0.57
17 0.71
18 0.54
19 0.36
2 -0.19
20 0.14
21 -0.05
22 0.09
23 0.66
24 -0.14
25 -0.15
26 -0.15
27 -0.15
28 -0.15
29 -0.11
3 -0.57
30 -0.15
31 0.19
32 -0.15
33 0.16
34 -0.15
35 -0.15
36 0.28
37 0.16
4 -0.57
45 0.37
49 0.15
5 -0.57
50 0.15
51 0.15
52 0.15
53 0.15
54 0.15
55 0.15
56 0.15
57 0.15
58 0.15
6 -0.43
62 0.15
7 -0.57
8 -0.66
9 -0.66

> <PUBCHEM_EFFECTIVE_ROTOR_COUNT>
12.2

> <PUBCHEM_PHARMACOPHORE_FEATURES>
10
1 10 donor
1 11 acceptor
1 3 acceptor
1 4 acceptor
1 5 acceptor
1 7 acceptor
5 1 21 25 28 29 rings
6 11 24 30 33 35 37 rings
6 22 26 27 31 32 34 rings
6 8 9 12 13 14 15 rings

> <PUBCHEM_HEAVY_ATOM_COUNT>
37

> <PUBCHEM_ATOM_DEF_STEREO_COUNT>
2

> <PUBCHEM_ATOM_UDEF_STEREO_COUNT>
0

> <PUBCHEM_BOND_DEF_STEREO_COUNT>
0

> <PUBCHEM_BOND_UDEF_STEREO_COUNT>
0

> <PUBCHEM_ISOTOPIC_ATOM_COUNT>
0

> <PUBCHEM_COMPONENT_COUNT>
1

> <PUBCHEM_CACTVS_TAUTO_COUNT>
2

> <PUBCHEM_CONFORMER_ID>
006C8AB400000001

> <PUBCHEM_MMFF94_ENERGY>
100.0997

> <PUBCHEM_FEATURE_SELFOVERLAP>
50.75

> <PUBCHEM_SHAPE_FINGERPRINT>
11285246 1 18059291079876873853
11513181 2 17839462181171723894
12160290 23 17904177567351213545
12422481 6 17904511797500963867
1361 2 18272923908673380668
13642711 20 18116984495227634423
13692114 37 18341042025816651843
14114206 34 17033876838203719180
14918310 93 16814945286589058581
15448158 6 17335650955568280380
15484559 13 18191276378555266205
15775530 1 18192740919137686979
20028762 73 18273204296643713149
20764821 26 18123780606921690446
20775438 99 17627481038078660716
21344244 181 18199183078418796605
25019877 29 17627188387955949498
3493558 16 17097769342492414055
354706 35 18411145736252940236
44802255 64 17240492424757365316
463206 1 18270681940024232308
57527452 28 16894757508599142168
66674814 147 18264489494952832468

> <PUBCHEM_SHAPE_MULTIPOLES>
708.75
8.83
7.86
2.56
2.93
8.25
-0.9
-6.36
-4.88
-1.78
1.86
1.64
2.23
2.4

> <PUBCHEM_SHAPE_SELFOVERLAP>
1510.345

> <PUBCHEM_SHAPE_VOLUME>
395.7

> <PUBCHEM_COORDINATE_TYPE>
2
5
10

$$$$
