7674053
  -OEChem-12032416133D

 61 64  0     1  0  0  0  0  0999 V2000
   -2.9911   -0.6697    1.6091 S   0  0  0  0  0  0  0  0  0  0  0  0
   -5.3932   -4.2739   -2.3892 F   0  0  0  0  0  0  0  0  0  0  0  0
    0.1156    1.3954    1.6637 O   0  0  0  0  0  0  0  0  0  0  0  0
   -3.5044    0.6623    1.3686 O   0  0  0  0  0  0  0  0  0  0  0  0
   -3.1226   -1.2952    2.9080 O   0  0  0  0  0  0  0  0  0  0  0  0
    2.8181   -0.3110   -1.5750 O   0  0  0  0  0  0  0  0  0  0  0  0
   -2.7395    4.4020   -0.2580 O   0  0  0  0  0  0  0  0  0  0  0  0
   -1.3526   -0.7337    1.1241 N   0  0  2  0  0  0  0  0  0  0  0  0
    1.1963   -1.1274   -0.1393 N   0  0  0  0  0  0  0  0  0  0  0  0
   -0.7806    2.4974   -0.1806 N   0  0  0  0  0  0  0  0  0  0  0  0
   -1.1974    6.0611   -0.5535 N   0  0  0  0  0  0  0  0  0  0  0  0
    3.4691   -1.6416    0.2215 N   0  0  0  0  0  0  0  0  0  0  0  0
   -0.9633    0.1170   -0.0350 C   0  0  2  0  0  0  0  0  0  0  0  0
    0.1113   -0.5191   -0.9139 C   0  0  0  0  0  0  0  0  0  0  0  0
   -0.7138   -2.0742    1.1503 C   0  0  0  0  0  0  0  0  0  0  0  0
    0.7958   -1.9079    1.0377 C   0  0  0  0  0  0  0  0  0  0  0  0
   -0.4723    1.3863    0.5853 C   0  0  0  0  0  0  0  0  0  0  0  0
   -0.4381    3.8412    0.2073 C   0  0  1  0  0  0  0  0  0  0  0  0
    0.9405    4.2216   -0.3145 C   0  0  0  0  0  0  0  0  0  0  0  0
    1.2000    5.6945   -0.0430 C   0  0  0  0  0  0  0  0  0  0  0  0
    2.5341   -0.9787   -0.5783 C   0  0  0  0  0  0  0  0  0  0  0  0
   -3.7106   -1.7491    0.4114 C   0  0  0  0  0  0  0  0  0  0  0  0
   -1.5610    4.7637   -0.2542 C   0  0  0  0  0  0  0  0  0  0  0  0
    0.1604    6.5239   -0.7730 C   0  0  0  0  0  0  0  0  0  0  0  0
   -3.8131   -3.1148    0.6760 C   0  0  0  0  0  0  0  0  0  0  0  0
   -4.1762   -1.2361   -0.7993 C   0  0  0  0  0  0  0  0  0  0  0  0
   -4.3815   -3.9676   -0.2700 C   0  0  0  0  0  0  0  0  0  0  0  0
   -4.7447   -2.0891   -1.7454 C   0  0  0  0  0  0  0  0  0  0  0  0
    4.8760   -1.6894    0.0544 C   0  0  0  0  0  0  0  0  0  0  0  0
   -4.8474   -3.4548   -1.4808 C   0  0  0  0  0  0  0  0  0  0  0  0
    5.6615   -2.4062    0.9572 C   0  0  0  0  0  0  0  0  0  0  0  0
    5.4750   -1.0203   -1.0129 C   0  0  0  0  0  0  0  0  0  0  0  0
    7.0458   -2.4538    0.7929 C   0  0  0  0  0  0  0  0  0  0  0  0
    6.8594   -1.0680   -1.1773 C   0  0  0  0  0  0  0  0  0  0  0  0
    7.6447   -1.7847   -0.2744 C   0  0  0  0  0  0  0  0  0  0  0  0
   -1.8292    0.3270   -0.6691 H   0  0  0  0  0  0  0  0  0  0  0  0
   -0.3264   -1.3263   -1.5147 H   0  0  0  0  0  0  0  0  0  0  0  0
    0.5121    0.2164   -1.6199 H   0  0  0  0  0  0  0  0  0  0  0  0
   -1.0752   -2.6883    0.3193 H   0  0  0  0  0  0  0  0  0  0  0  0
   -0.9409   -2.5866    2.0905 H   0  0  0  0  0  0  0  0  0  0  0  0
    1.1938   -1.3924    1.9198 H   0  0  0  0  0  0  0  0  0  0  0  0
    1.2603   -2.8984    0.9818 H   0  0  0  0  0  0  0  0  0  0  0  0
   -0.4287    3.8941    1.3040 H   0  0  0  0  0  0  0  0  0  0  0  0
    1.7109    3.6105    0.1707 H   0  0  0  0  0  0  0  0  0  0  0  0
    1.0134    4.0234   -1.3920 H   0  0  0  0  0  0  0  0  0  0  0  0
   -1.2443    2.3675   -1.0755 H   0  0  0  0  0  0  0  0  0  0  0  0
    2.2051    5.9748   -0.3759 H   0  0  0  0  0  0  0  0  0  0  0  0
    1.1467    5.8881    1.0353 H   0  0  0  0  0  0  0  0  0  0  0  0
    0.2099    7.5718   -0.4611 H   0  0  0  0  0  0  0  0  0  0  0  0
    0.3334    6.4876   -1.8544 H   0  0  0  0  0  0  0  0  0  0  0  0
   -1.9451    6.7000   -0.8062 H   0  0  0  0  0  0  0  0  0  0  0  0
    3.1362   -2.1453    1.0365 H   0  0  0  0  0  0  0  0  0  0  0  0
   -3.4557   -3.5369    1.6109 H   0  0  0  0  0  0  0  0  0  0  0  0
   -4.1127   -0.1762   -1.0271 H   0  0  0  0  0  0  0  0  0  0  0  0
   -4.4611   -5.0310   -0.0648 H   0  0  0  0  0  0  0  0  0  0  0  0
   -5.1085   -1.6902   -2.6878 H   0  0  0  0  0  0  0  0  0  0  0  0
    5.2077   -2.9323    1.7932 H   0  0  0  0  0  0  0  0  0  0  0  0
    4.9432   -0.4448   -1.7561 H   0  0  0  0  0  0  0  0  0  0  0  0
    7.6575   -3.0119    1.4957 H   0  0  0  0  0  0  0  0  0  0  0  0
    7.3274   -0.5477   -2.0080 H   0  0  0  0  0  0  0  0  0  0  0  0
    8.7225   -1.8219   -0.4025 H   0  0  0  0  0  0  0  0  0  0  0  0
  1  4  2  0  0  0  0
  1  5  2  0  0  0  0
  1  8  1  0  0  0  0
  1 22  1  0  0  0  0
  2 30  1  0  0  0  0
  3 17  2  0  0  0  0
  6 21  2  0  0  0  0
  7 23  2  0  0  0  0
  8 13  1  0  0  0  0
  8 15  1  0  0  0  0
  9 14  1  0  0  0  0
  9 16  1  0  0  0  0
  9 21  1  0  0  0  0
 10 17  1  0  0  0  0
 10 18  1  0  0  0  0
 10 46  1  0  0  0  0
 11 23  1  0  0  0  0
 11 24  1  0  0  0  0
 11 51  1  0  0  0  0
 12 21  1  0  0  0  0
 12 29  1  0  0  0  0
 12 52  1  0  0  0  0
 13 14  1  0  0  0  0
 13 17  1  0  0  0  0
 13 36  1  0  0  0  0
 14 37  1  0  0  0  0
 14 38  1  0  0  0  0
 15 16  1  0  0  0  0
 15 39  1  0  0  0  0
 15 40  1  0  0  0  0
 16 41  1  0  0  0  0
 16 42  1  0  0  0  0
 18 19  1  0  0  0  0
 18 23  1  0  0  0  0
 18 43  1  0  0  0  0
 19 20  1  0  0  0  0
 19 44  1  0  0  0  0
 19 45  1  0  0  0  0
 20 24  1  0  0  0  0
 20 47  1  0  0  0  0
 20 48  1  0  0  0  0
 22 25  2  0  0  0  0
 22 26  1  0  0  0  0
 24 49  1  0  0  0  0
 24 50  1  0  0  0  0
 25 27  1  0  0  0  0
 25 53  1  0  0  0  0
 26 28  2  0  0  0  0
 26 54  1  0  0  0  0
 27 30  2  0  0  0  0
 27 55  1  0  0  0  0
 28 30  1  0  0  0  0
 28 56  1  0  0  0  0
 29 31  2  0  0  0  0
 29 32  1  0  0  0  0
 31 33  1  0  0  0  0
 31 57  1  0  0  0  0
 32 34  2  0  0  0  0
 32 58  1  0  0  0  0
 33 35  2  0  0  0  0
 33 59  1  0  0  0  0
 34 35  1  0  0  0  0
 34 60  1  0  0  0  0
 35 61  1  0  0  0  0
M  END
> <PUBCHEM_COMPOUND_CID>
7674053

> <PUBCHEM_CONFORMER_RMSD>
1

> <PUBCHEM_CONFORMER_DIVERSEORDER>
1
80
24
215
175
195
71
94
11
147
79
165
229
93
239
101
41
35
199
166
224
82
244
86
168
177
16
225
48
139
231
73
74
38
36
145
219
51
234
135
120
221
180
127
182
163
226
125
112
68
105
115
110
98
196
230
156
28
211
75
207
189
109
201
198
113
108
111
141
133
210
58
157
78
53
167
57
10
205
235
32
43
27
118
50
99
138
129
140
29
20
188
46
237
236
59
6
146
122
172
171
45
191
161
222
184
213
31
227
217
193
126
92
206
183
243
114
247
52
160
223
89
148
185
64
85
66
121
88
192
179
54
62
77
164
190
131
136
9
154
150
228
70
17
132
130
158
123
181
87
155
21
49
194
203
100
95
170
4
7
69
245
40
174
39
159
33
153
18
107
22
232
202
47
134
34
61
30
119
220
240
97
5
83
96
208
176
15
104
173
241
56
81
233
212
65
144
142
26
124
209
149
72
76
90
91
137
128
242
218
19
151
117
67
106
42
238
178
37
55
214
116
44
186
63
216
246
162
204
12
169
84
197
152
200
25
102
187
60
103
3
8
2
23
14
143
13

> <PUBCHEM_MMFF94_PARTIAL_CHARGES>
45
1 1.45
10 -0.73
11 -0.73
12 -0.55
13 0.42
14 0.3
15 0.36
16 0.3
17 0.57
18 0.36
2 -0.19
21 0.69
22 -0.01
23 0.57
24 0.3
25 -0.15
26 -0.15
27 -0.15
28 -0.15
29 0.12
3 -0.57
30 0.19
31 -0.15
32 -0.15
33 -0.15
34 -0.15
35 -0.15
4 -0.65
46 0.37
5 -0.65
51 0.37
52 0.37
53 0.15
54 0.15
55 0.15
56 0.15
57 0.15
58 0.15
59 0.15
6 -0.57
60 0.15
61 0.15
7 -0.57
8 -0.85
9 -0.66

> <PUBCHEM_EFFECTIVE_ROTOR_COUNT>
10.2

> <PUBCHEM_PHARMACOPHORE_FEATURES>
12
1 10 donor
1 11 donor
1 12 donor
1 3 acceptor
1 4 acceptor
1 5 acceptor
1 6 acceptor
1 7 acceptor
6 11 18 19 20 23 24 rings
6 22 25 26 27 28 30 rings
6 29 31 32 33 34 35 rings
6 8 9 13 14 15 16 rings

> <PUBCHEM_HEAVY_ATOM_COUNT>
35

> <PUBCHEM_ATOM_DEF_STEREO_COUNT>
2

> <PUBCHEM_ATOM_UDEF_STEREO_COUNT>
0

> <PUBCHEM_BOND_DEF_STEREO_COUNT>
0

> <PUBCHEM_BOND_UDEF_STEREO_COUNT>
0

> <PUBCHEM_ISOTOPIC_ATOM_COUNT>
0

> <PUBCHEM_COMPONENT_COUNT>
1

> <PUBCHEM_CACTVS_TAUTO_COUNT>
8

> <PUBCHEM_CONFORMER_ID>
007518C500000001

> <PUBCHEM_MMFF94_ENERGY>
79.5184

> <PUBCHEM_FEATURE_SELFOVERLAP>
60.917

> <PUBCHEM_SHAPE_FINGERPRINT>
10290309 65 17692543212443191546
10319688 77 18411697712005354159
11488393 25 18050566545420263405
11763715 3 18337688476628579982
12106331 60 18262257533831068450
12522641 68 17763457318904733332
12788726 201 18116708504739083321
133893 2 17981627157884838147
13540713 5 17771083854295077043
13782708 43 17775290444028519070
14068700 675 18335134293927025790
14556957 393 18261688012360575798
14844126 61 18263088708148191617
15198563 99 18411697651807234484
15444296 8 18341611499213466580
15684973 49 17974268942341150466
15876981 60 18334583412457062788
17686467 74 18200871877335870258
18470217 77 18267846334128104168
21304303 282 17904190439162399965
21344244 246 17980475990247854750
21927370 108 18338534004833141450
23559900 14 18192710270245554331
23929065 36 18265878191160512616
25019877 29 17762064242036653253
255183 313 18054526711573689289
3388396 114 18190761902146632236
3504750 166 18266736871161809942
4015057 19 18117004475283477226
4017518 198 16685399254563142359
4280585 95 18341888602172295687
5080951 261 17559657470177923966
5171179 24 18337383958904769725
550186 72 18410292485106647734
5969126 39 18412259519650721926
6058803 2 17840889669962254283
6673363 416 18338535114316383940
6700243 42 17914085077924492212
9981440 41 17396433710514369752

> <PUBCHEM_SHAPE_MULTIPOLES>
662.61
14.09
9.06
1.66
26.53
22.1
0.22
-23.53
-3.67
-6.95
-2.54
-1.77
-1.44
-2.18

> <PUBCHEM_SHAPE_SELFOVERLAP>
1400.213

> <PUBCHEM_SHAPE_VOLUME>
371.7

> <PUBCHEM_COORDINATE_TYPE>
2
5
10

$$$$
