44716689
  -OEChem-12032416123D

 74 76  0     1  0  0  0  0  0999 V2000
    3.1970    1.6289    1.4073 S   0  0  0  0  0  0  0  0  0  0  0  0
   -2.3734   -1.8042   -0.4208 O   0  0  0  0  0  0  0  0  0  0  0  0
   -6.1701    1.7989   -0.9015 O   0  0  0  0  0  0  0  0  0  0  0  0
    5.5184   -2.0855   -0.2538 O   0  0  0  0  0  0  0  0  0  0  0  0
    2.9162   -0.6057    0.1371 N   0  0  0  0  0  0  0  0  0  0  0  0
   -6.6488    0.0174    0.4953 N   0  0  0  0  0  0  0  0  0  0  0  0
    5.1507   -0.0202    0.8252 N   0  0  0  0  0  0  0  0  0  0  0  0
   -0.7158    1.6027    0.1403 C   0  0  1  0  0  0  0  0  0  0  0  0
   -0.8797    0.0318    0.1498 C   0  0  1  0  0  0  0  0  0  0  0  0
   -2.1516   -0.4099   -0.6283 C   0  0  2  0  0  0  0  0  0  0  0  0
   -3.4243    0.3302   -0.1623 C   0  0  1  0  0  0  0  0  0  0  0  0
   -2.0211    2.2656    0.6396 C   0  0  0  0  0  0  0  0  0  0  0  0
    0.4388   -0.7039   -0.3275 C   0  0  1  0  0  0  0  0  0  0  0  0
   -3.2482    1.8486   -0.1594 C   0  0  0  0  0  0  0  0  0  0  0  0
    0.4246    2.0207    1.1203 C   0  0  0  0  0  0  0  0  0  0  0  0
   -0.3854    2.1448   -1.2749 C   0  0  0  0  0  0  0  0  0  0  0  0
   -4.6444   -0.0431   -1.0131 C   0  0  2  0  0  0  0  0  0  0  0  0
    1.6600   -0.0388    0.2610 C   0  0  0  0  0  0  0  0  0  0  0  0
    1.6348    1.1849    0.8974 C   0  0  0  0  0  0  0  0  0  0  0  0
    0.4496   -2.2038    0.0027 C   0  0  0  0  0  0  0  0  0  0  0  0
   -4.3812    0.3301   -2.4729 C   0  0  0  0  0  0  0  0  0  0  0  0
   -5.8874    0.6724   -0.4784 C   0  0  0  0  0  0  0  0  0  0  0  0
    3.8002    0.1788    0.7142 C   0  0  0  0  0  0  0  0  0  0  0  0
   -6.4049   -1.3240    1.0220 C   0  0  0  0  0  0  0  0  0  0  0  0
   -7.8275    0.6811    1.0418 C   0  0  0  0  0  0  0  0  0  0  0  0
    5.9341   -1.1037    0.3556 C   0  0  0  0  0  0  0  0  0  0  0  0
    7.4187   -0.9618    0.6667 C   0  0  0  0  0  0  0  0  0  0  0  0
   -7.1446   -2.3170    0.1887 C   0  0  0  0  0  0  0  0  0  0  0  0
    8.2314   -0.1854   -0.3970 C   0  0  0  0  0  0  0  0  0  0  0  0
    8.1631   -0.8850   -1.7649 C   0  0  0  0  0  0  0  0  0  0  0  0
    7.7343    1.2623   -0.5423 C   0  0  0  0  0  0  0  0  0  0  0  0
    9.7033   -0.1507    0.0595 C   0  0  0  0  0  0  0  0  0  0  0  0
   -8.0669   -3.1567    0.6727 C   0  0  0  0  0  0  0  0  0  0  0  0
   -1.0310   -0.2659    1.2001 H   0  0  0  0  0  0  0  0  0  0  0  0
   -1.9555   -0.2690   -1.6928 H   0  0  0  0  0  0  0  0  0  0  0  0
   -3.6309    0.0229    0.8727 H   0  0  0  0  0  0  0  0  0  0  0  0
   -2.1879    2.0020    1.6928 H   0  0  0  0  0  0  0  0  0  0  0  0
   -1.9262    3.3588    0.6103 H   0  0  0  0  0  0  0  0  0  0  0  0
    0.5169   -0.6043   -1.4183 H   0  0  0  0  0  0  0  0  0  0  0  0
   -3.1604    2.2730   -1.1612 H   0  0  0  0  0  0  0  0  0  0  0  0
   -4.1047    2.3400    0.3145 H   0  0  0  0  0  0  0  0  0  0  0  0
    0.6563    3.0863    0.9997 H   0  0  0  0  0  0  0  0  0  0  0  0
    0.0990    1.8767    2.1589 H   0  0  0  0  0  0  0  0  0  0  0  0
   -1.1255    1.8413   -2.0206 H   0  0  0  0  0  0  0  0  0  0  0  0
    0.5888    1.8036   -1.6381 H   0  0  0  0  0  0  0  0  0  0  0  0
   -0.3569    3.2408   -1.2715 H   0  0  0  0  0  0  0  0  0  0  0  0
   -4.8062   -1.1236   -1.0010 H   0  0  0  0  0  0  0  0  0  0  0  0
   -0.2560   -2.7606   -0.6178 H   0  0  0  0  0  0  0  0  0  0  0  0
    1.4313   -2.6522   -0.1883 H   0  0  0  0  0  0  0  0  0  0  0  0
    0.2083   -2.3807    1.0565 H   0  0  0  0  0  0  0  0  0  0  0  0
   -2.5097   -1.9491    0.5311 H   0  0  0  0  0  0  0  0  0  0  0  0
   -4.1835    1.3897   -2.6472 H   0  0  0  0  0  0  0  0  0  0  0  0
   -5.2818    0.1059   -3.0600 H   0  0  0  0  0  0  0  0  0  0  0  0
   -3.5827   -0.2609   -2.9275 H   0  0  0  0  0  0  0  0  0  0  0  0
    5.6388    0.7234    1.3182 H   0  0  0  0  0  0  0  0  0  0  0  0
   -6.7110   -1.3536    2.0743 H   0  0  0  0  0  0  0  0  0  0  0  0
   -5.3380   -1.5577    1.0011 H   0  0  0  0  0  0  0  0  0  0  0  0
   -7.7092    0.7764    2.1253 H   0  0  0  0  0  0  0  0  0  0  0  0
   -7.9690    1.6788    0.6189 H   0  0  0  0  0  0  0  0  0  0  0  0
   -8.7143    0.0800    0.8210 H   0  0  0  0  0  0  0  0  0  0  0  0
    7.5215   -0.4776    1.6467 H   0  0  0  0  0  0  0  0  0  0  0  0
    7.8219   -1.9759    0.7871 H   0  0  0  0  0  0  0  0  0  0  0  0
   -6.9081   -2.3699   -0.8710 H   0  0  0  0  0  0  0  0  0  0  0  0
    8.8073   -0.3842   -2.4967 H   0  0  0  0  0  0  0  0  0  0  0  0
    8.4911   -1.9279   -1.6920 H   0  0  0  0  0  0  0  0  0  0  0  0
    7.1457   -0.8801   -2.1702 H   0  0  0  0  0  0  0  0  0  0  0  0
    6.7274    1.3060   -0.9698 H   0  0  0  0  0  0  0  0  0  0  0  0
    8.3886    1.8366   -1.2086 H   0  0  0  0  0  0  0  0  0  0  0  0
    7.7177    1.7752    0.4257 H   0  0  0  0  0  0  0  0  0  0  0  0
   10.1089   -1.1632    0.1656 H   0  0  0  0  0  0  0  0  0  0  0  0
   10.3314    0.3844   -0.6619 H   0  0  0  0  0  0  0  0  0  0  0  0
    9.8054    0.3536    1.0271 H   0  0  0  0  0  0  0  0  0  0  0  0
   -8.5658   -3.8619    0.0171 H   0  0  0  0  0  0  0  0  0  0  0  0
   -8.3399   -3.1556    1.7222 H   0  0  0  0  0  0  0  0  0  0  0  0
  1 19  1  0  0  0  0
  1 23  1  0  0  0  0
  2 10  1  0  0  0  0
  2 51  1  0  0  0  0
  3 22  2  0  0  0  0
  4 26  2  0  0  0  0
  5 18  1  0  0  0  0
  5 23  2  0  0  0  0
  6 22  1  0  0  0  0
  6 24  1  0  0  0  0
  6 25  1  0  0  0  0
  7 23  1  0  0  0  0
  7 26  1  0  0  0  0
  7 55  1  0  0  0  0
  8  9  1  0  0  0  0
  8 12  1  0  0  0  0
  8 15  1  0  0  0  0
  8 16  1  0  0  0  0
  9 10  1  0  0  0  0
  9 13  1  0  0  0  0
  9 34  1  0  0  0  0
 10 11  1  0  0  0  0
 10 35  1  0  0  0  0
 11 14  1  0  0  0  0
 11 17  1  0  0  0  0
 11 36  1  0  0  0  0
 12 14  1  0  0  0  0
 12 37  1  0  0  0  0
 12 38  1  0  0  0  0
 13 18  1  0  0  0  0
 13 20  1  0  0  0  0
 13 39  1  0  0  0  0
 14 40  1  0  0  0  0
 14 41  1  0  0  0  0
 15 19  1  0  0  0  0
 15 42  1  0  0  0  0
 15 43  1  0  0  0  0
 16 44  1  0  0  0  0
 16 45  1  0  0  0  0
 16 46  1  0  0  0  0
 17 21  1  0  0  0  0
 17 22  1  0  0  0  0
 17 47  1  0  0  0  0
 18 19  2  0  0  0  0
 20 48  1  0  0  0  0
 20 49  1  0  0  0  0
 20 50  1  0  0  0  0
 21 52  1  0  0  0  0
 21 53  1  0  0  0  0
 21 54  1  0  0  0  0
 24 28  1  0  0  0  0
 24 56  1  0  0  0  0
 24 57  1  0  0  0  0
 25 58  1  0  0  0  0
 25 59  1  0  0  0  0
 25 60  1  0  0  0  0
 26 27  1  0  0  0  0
 27 29  1  0  0  0  0
 27 61  1  0  0  0  0
 27 62  1  0  0  0  0
 28 33  2  0  0  0  0
 28 63  1  0  0  0  0
 29 30  1  0  0  0  0
 29 31  1  0  0  0  0
 29 32  1  0  0  0  0
 30 64  1  0  0  0  0
 30 65  1  0  0  0  0
 30 66  1  0  0  0  0
 31 67  1  0  0  0  0
 31 68  1  0  0  0  0
 31 69  1  0  0  0  0
 32 70  1  0  0  0  0
 32 71  1  0  0  0  0
 32 72  1  0  0  0  0
 33 73  1  0  0  0  0
 33 74  1  0  0  0  0
M  END
> <PUBCHEM_COMPOUND_CID>
44716689

> <PUBCHEM_CONFORMER_RMSD>
1

> <PUBCHEM_CONFORMER_DIVERSEORDER>
1
99
56
87
72
92
90
84
45
15
83
67
59
89
69
61
86
13
65
60
88
85
26
49
94
42
57
48
54
58
95
46
82
34
81
68
32
16
76
66
33
80
62
63
19
73
23
51
64
21
37
39
97
75
98
91
40
8
36
96
14
7
11
53
50
41
43
28
24
79
22
52
25
44
9
10
18
93
78
12
27
71
3
74
70
38
2
29
77
35
31
47
55
5
6
20
17
4
30

> <PUBCHEM_MMFF94_PARTIAL_CHARGES>
26
1 -0.08
10 0.28
13 0.18
15 0.18
17 0.06
18 0.05
19 -0.14
2 -0.68
22 0.57
23 0.44
24 0.44
25 0.3
26 0.57
27 0.06
28 -0.29
3 -0.57
33 -0.3
4 -0.57
5 -0.57
51 0.4
55 0.37
6 -0.66
63 0.15
7 -0.49
73 0.15
74 0.15

> <PUBCHEM_EFFECTIVE_ROTOR_COUNT>
10.2

> <PUBCHEM_PHARMACOPHORE_FEATURES>
11
1 2 acceptor
1 2 donor
1 21 hydrophobe
1 3 acceptor
1 33 hydrophobe
1 4 acceptor
1 7 donor
4 29 30 31 32 hydrophobe
5 1 5 18 19 23 rings
6 8 9 10 11 12 14 rings
6 8 9 13 15 18 19 rings

> <PUBCHEM_HEAVY_ATOM_COUNT>
33

> <PUBCHEM_ATOM_DEF_STEREO_COUNT>
5

> <PUBCHEM_ATOM_UDEF_STEREO_COUNT>
1

> <PUBCHEM_BOND_DEF_STEREO_COUNT>
0

> <PUBCHEM_BOND_UDEF_STEREO_COUNT>
0

> <PUBCHEM_ISOTOPIC_ATOM_COUNT>
0

> <PUBCHEM_COMPONENT_COUNT>
1

> <PUBCHEM_CACTVS_TAUTO_COUNT>
3

> <PUBCHEM_CONFORMER_ID>
02AA529100000001

> <PUBCHEM_MMFF94_ENERGY>
93.8831

> <PUBCHEM_FEATURE_SELFOVERLAP>
55.902

> <PUBCHEM_SHAPE_FINGERPRINT>
10076449 9 18409171029831554186
10299344 5 18273214179943683752
11963148 33 18334002887672546179
12104220 1 17917717885923151137
12166972 35 17967533484453828861
1361 4 18261952938586396506
14955137 171 18409447025142599633
15183329 4 18273209782028846498
15301273 46 14979956961108626852
1577012 14 14418121882170509237
15849732 13 18040154011623550268
18335252 98 18409169896651472730
18608769 82 18410012160596090667
20105231 36 18201725050449992614
21049683 271 18412545423303762984
21150785 3 17240203222960032152
21267235 1 18343021103274768544
21781051 124 18340778129888187622
23559900 14 18271232937526878256
24771750 20 18192720162288603236
3004659 81 18412257329919008104
3178227 256 18344148089708097434
335352 9 18272080591855470973
3383291 50 18341044194142867754
350125 39 18341045242515307432
3552219 110 18341905090283181417
4093350 32 16128650886862627920
4258327 124 16805904969337442174
4325135 7 18411699868859827556
444769 64 17918270970157442287
484989 97 18410576227203501489
54039377 194 18410013264739984111
54583773 228 18262525896356520404
59755656 215 18201153261701367174
636775 8 18408890654445969118
6691757 9 15267059268816765071
9896288 288 17559405660550701545
999808 66 18410857659753005627

> <PUBCHEM_SHAPE_MULTIPOLES>
650.42
27.51
2.52
1.34
26.19
0.6
0.51
12.58
0.69
-3.44
-0.34
-0.44
-0.27
1.55

> <PUBCHEM_SHAPE_SELFOVERLAP>
1329.738

> <PUBCHEM_SHAPE_VOLUME>
382.1

> <PUBCHEM_COORDINATE_TYPE>
2
5
10

$$$$
