11912767
  -OEChem-12032416373D

 56 61  0     1  0  0  0  0  0999 V2000
    2.1908   -0.2109    1.5727 O   0  0  0  0  0  0  0  0  0  0  0  0
    0.1798    1.9005    0.6182 O   0  0  0  0  0  0  0  0  0  0  0  0
    3.7356    1.6741    0.2456 O   0  0  0  0  0  0  0  0  0  0  0  0
    4.3023   -0.0433   -1.1541 O   0  0  0  0  0  0  0  0  0  0  0  0
   -8.4612    0.1836   -0.2575 O   0  0  0  0  0  0  0  0  0  0  0  0
   -7.7558    2.4631   -0.5953 O   0  0  0  0  0  0  0  0  0  0  0  0
   -0.5006   -1.6747    1.0435 N   0  0  0  0  0  0  0  0  0  0  0  0
   -2.6687   -1.0673    0.3826 N   0  0  0  0  0  0  0  0  0  0  0  0
   -1.8878   -3.3332    0.1316 N   0  0  0  0  0  0  0  0  0  0  0  0
    5.9090    1.0843    0.1217 N   0  0  0  0  0  0  0  0  0  0  0  0
    0.3084    0.4953    0.3154 C   0  0  1  0  0  0  0  0  0  0  0  0
    1.7925    0.1939    0.2528 C   0  0  1  0  0  0  0  0  0  0  0  0
   -0.1837   -0.3317    1.4798 C   0  0  2  0  0  0  0  0  0  0  0  0
    2.3826    1.5317   -0.1236 C   0  0  1  0  0  0  0  0  0  0  0  0
    1.0249   -0.3479    2.3996 C   0  0  0  0  0  0  0  0  0  0  0  0
    1.4855    2.4960    0.6193 C   0  0  0  0  0  0  0  0  0  0  0  0
   -1.7222   -2.0358    0.5028 C   0  0  0  0  0  0  0  0  0  0  0  0
    4.6373    0.8128   -0.3445 C   0  0  0  0  0  0  0  0  0  0  0  0
   -3.8474   -1.4541   -0.1479 C   0  0  0  0  0  0  0  0  0  0  0  0
   -3.0906   -3.6505   -0.3912 C   0  0  0  0  0  0  0  0  0  0  0  0
   -4.1177   -2.7441   -0.5567 C   0  0  0  0  0  0  0  0  0  0  0  0
   -4.8373   -0.4107   -0.2677 C   0  0  0  0  0  0  0  0  0  0  0  0
    7.1187    0.4397   -0.2237 C   0  0  0  0  0  0  0  0  0  0  0  0
   -6.1976   -0.7276   -0.1874 C   0  0  0  0  0  0  0  0  0  0  0  0
   -4.4287    0.9221   -0.4652 C   0  0  0  0  0  0  0  0  0  0  0  0
   -7.1065    0.3034   -0.3083 C   0  0  0  0  0  0  0  0  0  0  0  0
    8.3033    0.8618    0.3585 C   0  0  0  0  0  0  0  0  0  0  0  0
    7.0967   -0.6022   -1.1373 C   0  0  0  0  0  0  0  0  0  0  0  0
   -6.7038    1.6050   -0.5012 C   0  0  0  0  0  0  0  0  0  0  0  0
   -5.3699    1.9475   -0.5841 C   0  0  0  0  0  0  0  0  0  0  0  0
   -8.8660    1.5559   -0.4395 C   0  0  0  0  0  0  0  0  0  0  0  0
    9.4972    0.2257    0.0182 C   0  0  0  0  0  0  0  0  0  0  0  0
    8.2905   -1.2384   -1.4775 C   0  0  0  0  0  0  0  0  0  0  0  0
    9.4907   -0.8243   -0.8998 C   0  0  0  0  0  0  0  0  0  0  0  0
   -0.2071    0.3159   -0.6335 H   0  0  0  0  0  0  0  0  0  0  0  0
    2.0278   -0.6247   -0.4325 H   0  0  0  0  0  0  0  0  0  0  0  0
   -1.0324    0.1147    2.0108 H   0  0  0  0  0  0  0  0  0  0  0  0
    2.2659    1.7057   -1.2018 H   0  0  0  0  0  0  0  0  0  0  0  0
    1.1134   -1.2577    3.0014 H   0  0  0  0  0  0  0  0  0  0  0  0
    1.0099    0.5115    3.0790 H   0  0  0  0  0  0  0  0  0  0  0  0
    1.4414    3.4776    0.1381 H   0  0  0  0  0  0  0  0  0  0  0  0
    1.8050    2.6475    1.6564 H   0  0  0  0  0  0  0  0  0  0  0  0
    0.2147   -2.3921    1.0802 H   0  0  0  0  0  0  0  0  0  0  0  0
    5.9872    1.8408    0.7970 H   0  0  0  0  0  0  0  0  0  0  0  0
   -3.2072   -4.6872   -0.6886 H   0  0  0  0  0  0  0  0  0  0  0  0
   -5.0501   -3.0620   -1.0052 H   0  0  0  0  0  0  0  0  0  0  0  0
   -6.5622   -1.7344   -0.0135 H   0  0  0  0  0  0  0  0  0  0  0  0
   -3.3759    1.1867   -0.5413 H   0  0  0  0  0  0  0  0  0  0  0  0
    8.3197    1.6786    1.0748 H   0  0  0  0  0  0  0  0  0  0  0  0
    6.2090   -0.9781   -1.6249 H   0  0  0  0  0  0  0  0  0  0  0  0
   -5.0571    2.9739   -0.7388 H   0  0  0  0  0  0  0  0  0  0  0  0
   -9.4992    1.6195   -1.3320 H   0  0  0  0  0  0  0  0  0  0  0  0
   -9.4537    1.8669    0.4318 H   0  0  0  0  0  0  0  0  0  0  0  0
   10.4318    0.5479    0.4681 H   0  0  0  0  0  0  0  0  0  0  0  0
    8.2870   -2.0563   -2.1922 H   0  0  0  0  0  0  0  0  0  0  0  0
   10.4202   -1.3196   -1.1648 H   0  0  0  0  0  0  0  0  0  0  0  0
  1 12  1  0  0  0  0
  1 15  1  0  0  0  0
  2 11  1  0  0  0  0
  2 16  1  0  0  0  0
  3 14  1  0  0  0  0
  3 18  1  0  0  0  0
  4 18  2  0  0  0  0
  5 26  1  0  0  0  0
  5 31  1  0  0  0  0
  6 29  1  0  0  0  0
  6 31  1  0  0  0  0
  7 13  1  0  0  0  0
  7 17  1  0  0  0  0
  7 43  1  0  0  0  0
  8 17  1  0  0  0  0
  8 19  2  0  0  0  0
  9 17  2  0  0  0  0
  9 20  1  0  0  0  0
 10 18  1  0  0  0  0
 10 23  1  0  0  0  0
 10 44  1  0  0  0  0
 11 12  1  0  0  0  0
 11 13  1  0  0  0  0
 11 35  1  0  0  0  0
 12 14  1  0  0  0  0
 12 36  1  0  0  0  0
 13 15  1  0  0  0  0
 13 37  1  0  0  0  0
 14 16  1  0  0  0  0
 14 38  1  0  0  0  0
 15 39  1  0  0  0  0
 15 40  1  0  0  0  0
 16 41  1  0  0  0  0
 16 42  1  0  0  0  0
 19 21  1  0  0  0  0
 19 22  1  0  0  0  0
 20 21  2  0  0  0  0
 20 45  1  0  0  0  0
 21 46  1  0  0  0  0
 22 24  2  0  0  0  0
 22 25  1  0  0  0  0
 23 27  2  0  0  0  0
 23 28  1  0  0  0  0
 24 26  1  0  0  0  0
 24 47  1  0  0  0  0
 25 30  2  0  0  0  0
 25 48  1  0  0  0  0
 26 29  2  0  0  0  0
 27 32  1  0  0  0  0
 27 49  1  0  0  0  0
 28 33  2  0  0  0  0
 28 50  1  0  0  0  0
 29 30  1  0  0  0  0
 30 51  1  0  0  0  0
 31 52  1  0  0  0  0
 31 53  1  0  0  0  0
 32 34  2  0  0  0  0
 32 54  1  0  0  0  0
 33 34  1  0  0  0  0
 33 55  1  0  0  0  0
 34 56  1  0  0  0  0
M  END
> <PUBCHEM_COMPOUND_CID>
11912767

> <PUBCHEM_CONFORMER_RMSD>
1.2

> <PUBCHEM_CONFORMER_DIVERSEORDER>
1
152
71
45
22
138
184
143
49
213
99
168
37
162
108
104
185
199
227
85
224
164
136
13
128
113
203
131
115
69
245
86
234
156
50
80
217
100
181
211
239
208
241
153
133
218
11
204
240
95
219
161
210
123
242
186
92
78
188
88
89
46
58
170
98
190
97
192
195
182
19
81
84
96
44
193
132
10
176
178
65
114
223
34
124
127
151
222
248
53
191
68
230
15
38
205
110
105
243
187
32
74
233
206
57
154
200
121
117
33
5
231
35
67
146
165
6
101
250
94
158
26
122
179
232
198
79
24
87
118
201
76
3
175
106
229
103
215
102
107
220
63
225
135
47
51
20
160
169
216
155
171
145
56
126
244
111
42
166
25
116
139
247
91
142
177
235
157
36
125
246
14
212
52
60
183
40
119
66
147
137
214
207
8
62
180
236
134
82
93
144
64
159
163
196
150
75
90
7
189
172
130
72
194
226
55
77
28
112
12
141
129
167
221
109
41
17
228
39
23
148
140
48
4
173
31
197
202
61
120
209
73
2
238
174
59
27
249
149
70
30
54
29
18
83
43
237
16
21
9

> <PUBCHEM_MMFF94_PARTIAL_CHARGES>
45
1 -0.56
10 -0.55
11 0.28
12 0.28
13 0.37
14 0.28
15 0.28
16 0.28
17 0.72
18 0.78
19 0.31
2 -0.56
20 0.16
21 -0.15
23 0.12
24 -0.15
25 -0.15
26 0.08
27 -0.15
28 -0.15
29 0.08
3 -0.43
30 -0.15
31 0.56
32 -0.15
33 -0.15
34 -0.15
4 -0.57
43 0.4
44 0.37
45 0.15
46 0.15
47 0.15
48 0.15
49 0.15
5 -0.36
50 0.15
51 0.15
54 0.15
55 0.15
56 0.15
6 -0.36
7 -0.87
8 -0.62
9 -0.62

> <PUBCHEM_EFFECTIVE_ROTOR_COUNT>
8.8

> <PUBCHEM_PHARMACOPHORE_FEATURES>
15
1 1 acceptor
1 10 donor
1 2 acceptor
1 4 acceptor
1 5 acceptor
1 6 acceptor
1 7 donor
1 8 acceptor
4 7 8 9 17 cation
5 1 11 12 13 15 rings
5 2 11 12 14 16 rings
5 5 6 26 29 31 rings
6 22 24 25 26 29 30 rings
6 23 27 28 32 33 34 rings
6 8 9 17 19 20 21 rings

> <PUBCHEM_HEAVY_ATOM_COUNT>
34

> <PUBCHEM_ATOM_DEF_STEREO_COUNT>
4

> <PUBCHEM_ATOM_UDEF_STEREO_COUNT>
0

> <PUBCHEM_BOND_DEF_STEREO_COUNT>
0

> <PUBCHEM_BOND_UDEF_STEREO_COUNT>
0

> <PUBCHEM_ISOTOPIC_ATOM_COUNT>
0

> <PUBCHEM_COMPONENT_COUNT>
1

> <PUBCHEM_CACTVS_TAUTO_COUNT>
6

> <PUBCHEM_CONFORMER_ID>
00B5C63F00000001

> <PUBCHEM_MMFF94_ENERGY>
110.554

> <PUBCHEM_FEATURE_SELFOVERLAP>
76.996

> <PUBCHEM_SHAPE_FINGERPRINT>
10 15 7853856074967629244
10165383 225 18408319965831561277
10190206 1 18201726098617107473
10369192 42 13984659265431345586
10391435 84 18060134380205789602
10483366 6 18411139112948716906
106641 1 10447926166367048716
10670039 82 18335414678193020045
10674148 151 18261108587002420000
10842051 180 15267349544060385498
10864689 126 18411692176394799361
10917259 69 18339923706015974745
11135609 99 11455593422985192073
11135926 11 17561096799201428039
11200772 48 18333735740600726642
11211813 128 7997972379645506496
11211813 163 18413386549397889575
11408170 108 16343437107203487278
11411753 29 17678755654390064745
11621639 179 18115015291413826629
12098696 120 18334576820156964277
12120059 9 17346878958137534438
12373685 5 15553899783901499606
12539745 222 15936991724684620889
12539747 91 17060328631389246288
12559415 135 18341332211267055400
12758862 11 18201717383764090432
12857493 111 18131633387782780840
13914758 101 18260831510415059674
14068700 675 11383829390193905411
14117953 113 18272377469054208974
14150022 121 12252173053353460695
14168556 18 8934999270005721246
14279260 333 18060139790988843965
14294032 229 17749666273375818828
14856354 85 16226053335700156787
15183329 4 18410576184523022490
15230672 131 18409444786995464866
15274700 256 18410852158427933280
15326923 82 10159691387990111475
15347591 1 18194122056250080156
15350500 16 14261349150305069778
15419008 91 18200578307552074968
15444296 9 17967812722179846774
15475509 8 18040154037488676052
15890870 6 18409444774996136717
16087824 20 18335981970285206629
16628084 112 17605260788929339954
16992727 255 18333734623861477292
18335252 98 8142089767219228336
18603816 31 16988836211696586311
20505436 4 18040426690602918691
21133410 127 17682394755223428629
21365058 27 14996281431082757816
21756936 100 17749107820669263995
21781055 127 17846218792221130755
21792961 116 18202569488422996227
22224240 67 10735880569390297180
23559900 14 17987232403527877328
23576562 1 18188209939425737429
249057 3 18409167727086378836
2747138 104 9079116678273792046
335352 9 18410569591932715919
3418910 222 8286202786136932390
38570 142 17749107794477278659
3986486 107 15625938679034482345
4149490 64 13685716399673261623
444735 79 9151172047629358854
4461854 278 11025804167532002153
474113 269 16415203330760176702
508180 173 18337110163060637824
57676310 115 18188774924808677765
58083652 198 15554445245397062482
59682541 35 8502370027346187204
5969126 39 15482677857497689488
6009941 240 18413390959996921766
6698420 124 16732989751549766392
9511036 111 12613337403520707097
9689198 14 12468630639196167054

> <PUBCHEM_SHAPE_MULTIPOLES>
644.56
30.5
2.89
1.21
29.67
1.83
-0.47
-7.52
12.14
-4.75
0.23
1.14
0.19
1.68

> <PUBCHEM_SHAPE_SELFOVERLAP>
1438.386

> <PUBCHEM_SHAPE_VOLUME>
340.8

> <PUBCHEM_COORDINATE_TYPE>
2
5
10

$$$$
