75537136
  -OEChem-12032416333D

 41 43  0     1  0  0  0  0  0999 V2000
   -2.3663   -2.0370    0.3384 O   0  0  0  0  0  0  0  0  0  0  0  0
   -3.9739    0.6150    1.1555 O   0  0  0  0  0  0  0  0  0  0  0  0
    2.3170   -0.1297   -0.0589 N   0  0  2  0  0  0  0  0  0  0  0  0
   -0.3165   -1.0781   -0.2925 N   0  0  0  0  0  0  0  0  0  0  0  0
   -2.2109   -0.0977   -0.9957 N   0  0  0  0  0  0  0  0  0  0  0  0
    3.3853    0.6472    0.5525 C   0  0  0  0  0  0  0  0  0  0  0  0
    0.1283   -0.0160   -1.1714 C   0  0  2  0  0  0  0  0  0  0  0  0
    1.2500    0.7853   -0.5111 C   0  0  0  0  0  0  0  0  0  0  0  0
    4.2526    1.2813   -0.5565 C   0  0  0  0  0  0  0  0  0  0  0  0
    4.5814   -0.2814    0.8550 C   0  0  0  0  0  0  0  0  0  0  0  0
    5.4805    0.8298    0.2667 C   0  0  0  0  0  0  0  0  0  0  0  0
    1.7981   -1.0999    0.9258 C   0  0  0  0  0  0  0  0  0  0  0  0
    0.6654   -1.9412    0.3316 C   0  0  0  0  0  0  0  0  0  0  0  0
   -1.1458    0.7768   -1.4557 C   0  0  0  0  0  0  0  0  0  0  0  0
   -1.7131   -1.1823   -0.2458 C   0  0  0  0  0  0  0  0  0  0  0  0
   -3.6068    0.2298   -1.1844 C   0  0  0  0  0  0  0  0  0  0  0  0
   -4.0977    1.2065   -0.1314 C   0  0  0  0  0  0  0  0  0  0  0  0
   -4.4274    1.4916    2.1779 C   0  0  0  0  0  0  0  0  0  0  0  0
    3.1123    1.3210    1.3739 H   0  0  0  0  0  0  0  0  0  0  0  0
    0.4882   -0.4921   -2.0930 H   0  0  0  0  0  0  0  0  0  0  0  0
    1.6366    1.5066   -1.2407 H   0  0  0  0  0  0  0  0  0  0  0  0
    0.8580    1.3596    0.3398 H   0  0  0  0  0  0  0  0  0  0  0  0
    4.1478    2.3625   -0.6817 H   0  0  0  0  0  0  0  0  0  0  0  0
    4.2024    0.8040   -1.5434 H   0  0  0  0  0  0  0  0  0  0  0  0
    4.6419   -1.2118    0.2759 H   0  0  0  0  0  0  0  0  0  0  0  0
    4.7546   -0.5083    1.9107 H   0  0  0  0  0  0  0  0  0  0  0  0
    6.3430    0.4894   -0.3114 H   0  0  0  0  0  0  0  0  0  0  0  0
    5.8123    1.5677    1.0062 H   0  0  0  0  0  0  0  0  0  0  0  0
    1.4273   -0.5729    1.8158 H   0  0  0  0  0  0  0  0  0  0  0  0
    2.5764   -1.7936    1.2615 H   0  0  0  0  0  0  0  0  0  0  0  0
    1.0496   -2.6122   -0.4452 H   0  0  0  0  0  0  0  0  0  0  0  0
    0.1803   -2.5525    1.0991 H   0  0  0  0  0  0  0  0  0  0  0  0
   -1.1952    1.7123   -0.8896 H   0  0  0  0  0  0  0  0  0  0  0  0
   -1.2677    0.9877   -2.5223 H   0  0  0  0  0  0  0  0  0  0  0  0
   -4.1774   -0.7023   -1.1049 H   0  0  0  0  0  0  0  0  0  0  0  0
   -3.7389    0.6350   -2.1925 H   0  0  0  0  0  0  0  0  0  0  0  0
   -5.1501    1.4463   -0.3221 H   0  0  0  0  0  0  0  0  0  0  0  0
   -3.5156    2.1346   -0.1658 H   0  0  0  0  0  0  0  0  0  0  0  0
   -4.3111    0.9865    3.1405 H   0  0  0  0  0  0  0  0  0  0  0  0
   -5.4853    1.7327    2.0356 H   0  0  0  0  0  0  0  0  0  0  0  0
   -3.8295    2.4080    2.1904 H   0  0  0  0  0  0  0  0  0  0  0  0
  1 15  2  0  0  0  0
  2 17  1  0  0  0  0
  2 18  1  0  0  0  0
  3  6  1  0  0  0  0
  3  8  1  0  0  0  0
  3 12  1  0  0  0  0
  4  7  1  0  0  0  0
  4 13  1  0  0  0  0
  4 15  1  0  0  0  0
  5 14  1  0  0  0  0
  5 15  1  0  0  0  0
  5 16  1  0  0  0  0
  6  9  1  0  0  0  0
  6 10  1  0  0  0  0
  6 19  1  0  0  0  0
  7  8  1  0  0  0  0
  7 14  1  0  0  0  0
  7 20  1  0  0  0  0
  8 21  1  0  0  0  0
  8 22  1  0  0  0  0
  9 11  1  0  0  0  0
  9 23  1  0  0  0  0
  9 24  1  0  0  0  0
 10 11  1  0  0  0  0
 10 25  1  0  0  0  0
 10 26  1  0  0  0  0
 11 27  1  0  0  0  0
 11 28  1  0  0  0  0
 12 13  1  0  0  0  0
 12 29  1  0  0  0  0
 12 30  1  0  0  0  0
 13 31  1  0  0  0  0
 13 32  1  0  0  0  0
 14 33  1  0  0  0  0
 14 34  1  0  0  0  0
 16 17  1  0  0  0  0
 16 35  1  0  0  0  0
 16 36  1  0  0  0  0
 17 37  1  0  0  0  0
 17 38  1  0  0  0  0
 18 39  1  0  0  0  0
 18 40  1  0  0  0  0
 18 41  1  0  0  0  0
M  END
> <PUBCHEM_COMPOUND_CID>
75537136

> <PUBCHEM_CONFORMER_RMSD>
0.8

> <PUBCHEM_CONFORMER_DIVERSEORDER>
1
8
4
9
3
10
7
5
2
6

> <PUBCHEM_MMFF94_PARTIAL_CHARGES>
15
1 -0.57
12 0.27
13 0.3
14 0.3
15 0.69
16 0.3
17 0.28
18 0.28
2 -0.56
3 -0.75
4 -0.66
5 -0.66
6 0.21
7 0.3
8 0.27

> <PUBCHEM_EFFECTIVE_ROTOR_COUNT>
6

> <PUBCHEM_PHARMACOPHORE_FEATURES>
6
1 1 acceptor
1 2 acceptor
1 3 cation
4 6 9 10 11 rings
5 4 5 7 14 15 rings
6 3 4 7 8 12 13 rings

> <PUBCHEM_HEAVY_ATOM_COUNT>
18

> <PUBCHEM_ATOM_DEF_STEREO_COUNT>
1

> <PUBCHEM_ATOM_UDEF_STEREO_COUNT>
0

> <PUBCHEM_BOND_DEF_STEREO_COUNT>
0

> <PUBCHEM_BOND_UDEF_STEREO_COUNT>
0

> <PUBCHEM_ISOTOPIC_ATOM_COUNT>
0

> <PUBCHEM_COMPONENT_COUNT>
1

> <PUBCHEM_CACTVS_TAUTO_COUNT>
1

> <PUBCHEM_CONFORMER_ID>
04809AF000000001

> <PUBCHEM_MMFF94_ENERGY>
44.7009

> <PUBCHEM_FEATURE_SELFOVERLAP>
30.543

> <PUBCHEM_SHAPE_FINGERPRINT>
11045977 3 16008749121392413556
11132069 177 18040425607853804534
12186901 62 15697994146202890975
12251169 10 18040151829463626645
12390115 104 18265345065322987172
12403814 3 17168131339212372733
12644460 14 18041268860564040946
13140716 1 18041564770498545837
13675066 3 16877938317646375190
14123260 362 18060702779950307745
14251764 38 17274246378941076704
14445660 50 18333728035281145518
15163728 17 16629699344345438105
15196674 1 18041550443030763710
15209294 21 18411982459710175617
15309172 13 18113893862251271582
18186145 218 18334849537779709164
18769570 83 17274819125941252968
19784866 140 11239995646982236837
19784866 170 17676202433723773942
19784866 240 11602831211430742657
19862831 5 13470687035814877444
20261772 1 17894631465453665220
204376 136 18333447642567738567
21637258 2 13262685876244037905
21713013 43 12678875932570886677
221357 26 12463564055091814793
231179 274 16056882429242019700
23402539 116 16702017582747572552
23493267 7 16559026091207673783
23559900 14 18409725176167635510
26918003 58 15357690886005515453
270888 7 17344921724229139137
2838139 119 16845007888813643369
3009799 131 11671779321685959210
32948 21 16272211864678935440
4028521 119 14979955869559004417
4325135 7 13407090218581890102
5104073 3 18188198923192975400
602551 16 14418142811372076232
633830 44 18201999954289595148
76465 3 11097858509740570440
7808743 9 16916512428792801065

> <PUBCHEM_SHAPE_MULTIPOLES>
343.75
10.32
1.68
1.44
4.17
0.62
-0.42
-5.18
-3.57
-0.53
-0.32
-1.72
-0.51
-1.04

> <PUBCHEM_SHAPE_SELFOVERLAP>
705.671

> <PUBCHEM_SHAPE_VOLUME>
201.3

> <PUBCHEM_COORDINATE_TYPE>
2
5
10

$$$$
