75536931
  -OEChem-12032416333D

 43 45  0     1  0  0  0  0  0999 V2000
   -2.6780   -2.8205   -0.3892 F   0  0  0  0  0  0  0  0  0  0  0  0
   -4.0168   -2.4616    1.2790 F   0  0  0  0  0  0  0  0  0  0  0  0
   -4.7793   -2.3987   -0.7563 F   0  0  0  0  0  0  0  0  0  0  0  0
    2.8953    3.3708   -0.5264 O   0  0  0  0  0  0  0  0  0  0  0  0
    2.5287   -0.1478   -1.1909 O   0  0  0  0  0  0  0  0  0  0  0  0
    0.2048    2.2047    0.5354 N   0  0  2  0  0  0  0  0  0  0  0  0
    3.2079   -1.1045    0.8162 N   0  0  0  0  0  0  0  0  0  0  0  0
    3.7426   -3.5000   -0.5409 N   0  0  0  0  0  0  0  0  0  0  0  0
    0.8523    0.9519    0.1311 C   0  0  0  0  0  0  0  0  0  0  0  0
    2.2841    1.0308   -0.4219 C   0  0  2  0  0  0  0  0  0  0  0  0
    1.1039    3.1732    1.1644 C   0  0  0  0  0  0  0  0  0  0  0  0
   -0.9545    1.9211    1.3822 C   0  0  0  0  0  0  0  0  0  0  0  0
    2.5475    2.2367   -1.3136 C   0  0  0  0  0  0  0  0  0  0  0  0
    1.7924    4.0187    0.0922 C   0  0  0  0  0  0  0  0  0  0  0  0
   -2.0955    1.3362    0.5930 C   0  0  0  0  0  0  0  0  0  0  0  0
   -2.3681   -0.0298    0.6686 C   0  0  0  0  0  0  0  0  0  0  0  0
   -2.8801    2.1604   -0.2138 C   0  0  0  0  0  0  0  0  0  0  0  0
   -3.4253   -0.5716   -0.0626 C   0  0  0  0  0  0  0  0  0  0  0  0
    3.0076   -1.2331   -0.5104 C   0  0  0  0  0  0  0  0  0  0  0  0
   -3.9371    1.6185   -0.9452 C   0  0  0  0  0  0  0  0  0  0  0  0
   -4.2099    0.2526   -0.8694 C   0  0  0  0  0  0  0  0  0  0  0  0
   -3.7166   -2.0322    0.0176 C   0  0  0  0  0  0  0  0  0  0  0  0
    3.2702   -2.4097   -1.1770 C   0  0  0  0  0  0  0  0  0  0  0  0
    3.6804   -2.1948    1.4522 C   0  0  0  0  0  0  0  0  0  0  0  0
    3.9431   -3.3714    0.7857 C   0  0  0  0  0  0  0  0  0  0  0  0
    0.2273    0.4754   -0.6358 H   0  0  0  0  0  0  0  0  0  0  0  0
    0.8725    0.2452    0.9720 H   0  0  0  0  0  0  0  0  0  0  0  0
    2.9906    1.1221    0.4146 H   0  0  0  0  0  0  0  0  0  0  0  0
    1.8256    2.6862    1.8308 H   0  0  0  0  0  0  0  0  0  0  0  0
    0.5286    3.8779    1.7781 H   0  0  0  0  0  0  0  0  0  0  0  0
   -1.3418    2.8466    1.8310 H   0  0  0  0  0  0  0  0  0  0  0  0
   -0.6908    1.2810    2.2352 H   0  0  0  0  0  0  0  0  0  0  0  0
    3.4082    2.0316   -1.9607 H   0  0  0  0  0  0  0  0  0  0  0  0
    1.7071    2.4590   -1.9825 H   0  0  0  0  0  0  0  0  0  0  0  0
    1.0863    4.3671   -0.6720 H   0  0  0  0  0  0  0  0  0  0  0  0
    2.1976    4.9173    0.5711 H   0  0  0  0  0  0  0  0  0  0  0  0
   -1.7584   -0.6759    1.2958 H   0  0  0  0  0  0  0  0  0  0  0  0
   -2.6775    3.2260   -0.2815 H   0  0  0  0  0  0  0  0  0  0  0  0
   -4.5477    2.2603   -1.5736 H   0  0  0  0  0  0  0  0  0  0  0  0
   -5.0377   -0.1494   -1.4469 H   0  0  0  0  0  0  0  0  0  0  0  0
    3.1105   -2.5174   -2.2432 H   0  0  0  0  0  0  0  0  0  0  0  0
    3.8414   -2.0921    2.5182 H   0  0  0  0  0  0  0  0  0  0  0  0
    4.3226   -4.2470    1.2976 H   0  0  0  0  0  0  0  0  0  0  0  0
  1 22  1  0  0  0  0
  2 22  1  0  0  0  0
  3 22  1  0  0  0  0
  4 13  1  0  0  0  0
  4 14  1  0  0  0  0
  5 10  1  0  0  0  0
  5 19  1  0  0  0  0
  6  9  1  0  0  0  0
  6 11  1  0  0  0  0
  6 12  1  0  0  0  0
  7 19  2  0  0  0  0
  7 24  1  0  0  0  0
  8 23  2  0  0  0  0
  8 25  1  0  0  0  0
  9 10  1  0  0  0  0
  9 26  1  0  0  0  0
  9 27  1  0  0  0  0
 10 13  1  0  0  0  0
 10 28  1  0  0  0  0
 11 14  1  0  0  0  0
 11 29  1  0  0  0  0
 11 30  1  0  0  0  0
 12 15  1  0  0  0  0
 12 31  1  0  0  0  0
 12 32  1  0  0  0  0
 13 33  1  0  0  0  0
 13 34  1  0  0  0  0
 14 35  1  0  0  0  0
 14 36  1  0  0  0  0
 15 16  2  0  0  0  0
 15 17  1  0  0  0  0
 16 18  1  0  0  0  0
 16 37  1  0  0  0  0
 17 20  2  0  0  0  0
 17 38  1  0  0  0  0
 18 21  2  0  0  0  0
 18 22  1  0  0  0  0
 19 23  1  0  0  0  0
 20 21  1  0  0  0  0
 20 39  1  0  0  0  0
 21 40  1  0  0  0  0
 23 41  1  0  0  0  0
 24 25  2  0  0  0  0
 24 42  1  0  0  0  0
 25 43  1  0  0  0  0
M  END
> <PUBCHEM_COMPOUND_CID>
75536931

> <PUBCHEM_CONFORMER_RMSD>
1

> <PUBCHEM_CONFORMER_DIVERSEORDER>
1
84
9
77
136
110
121
85
74
51
137
115
72
148
166
107
100
102
171
24
130
34
118
73
178
158
143
144
59
162
63
71
109
122
169
80
14
4
168
164
133
124
181
125
108
52
55
83
104
141
2
182
174
40
95
81
163
89
57
113
18
29
43
48
8
16
103
60
142
151
45
167
177
139
160
36
135
117
7
146
187
154
156
79
38
131
106
75
86
170
53
140
6
138
149
76
165
94
173
33
50
25
128
116
32
22
185
35
49
159
61
105
111
134
3
150
10
82
70
11
65
179
41
58
26
62
147
101
126
15
56
96
119
31
153
67
46
87
175
23
64
88
12
37
132
66
92
39
42
97
27
145
19
176
17
93
183
21
184
91
114
172
28
127
180
13
47
112
120
90
186
68
69
54
78
157
44
20
30
161
5
99
155
129
98
152
123

> <PUBCHEM_MMFF94_PARTIAL_CHARGES>
32
1 -0.34
10 0.28
11 0.27
12 0.41
13 0.28
14 0.28
15 -0.14
16 -0.15
17 -0.15
18 -0.14
19 0.39
2 -0.34
20 -0.15
21 -0.15
22 1.16
23 0.16
24 0.16
25 0.16
3 -0.34
37 0.15
38 0.15
39 0.15
4 -0.56
40 0.15
41 0.15
42 0.15
43 0.15
5 -0.36
6 -0.81
7 -0.62
8 -0.62
9 0.27

> <PUBCHEM_EFFECTIVE_ROTOR_COUNT>
6.4

> <PUBCHEM_PHARMACOPHORE_FEATURES>
6
1 4 acceptor
1 6 cation
1 8 acceptor
6 15 16 17 18 20 21 rings
6 7 8 19 23 24 25 rings
7 4 6 9 10 11 13 14 rings

> <PUBCHEM_HEAVY_ATOM_COUNT>
25

> <PUBCHEM_ATOM_DEF_STEREO_COUNT>
1

> <PUBCHEM_ATOM_UDEF_STEREO_COUNT>
0

> <PUBCHEM_BOND_DEF_STEREO_COUNT>
0

> <PUBCHEM_BOND_UDEF_STEREO_COUNT>
0

> <PUBCHEM_ISOTOPIC_ATOM_COUNT>
0

> <PUBCHEM_COMPONENT_COUNT>
1

> <PUBCHEM_CACTVS_TAUTO_COUNT>
1

> <PUBCHEM_CONFORMER_ID>
04809A2300000001

> <PUBCHEM_MMFF94_ENERGY>
72.5754

> <PUBCHEM_FEATURE_SELFOVERLAP>
30.447

> <PUBCHEM_SHAPE_FINGERPRINT>
11056379 131 17548425808965921406
11991303 11 17326053348798387932
12553582 1 18124051039183963912
12633257 1 18270975539883120925
12839892 36 18052235578286262592
13004483 165 17756418271455229792
14251757 5 18048046168321712382
14863182 85 17759248787773083629
17134984 74 17407941646261792815
17492 89 18409450301696484615
20567600 347 18046904067956854912
20567600 70 18408317770686587234
20600515 1 18127691522268283728
20626108 58 18337943494321871200
20775530 9 18409456890128259551
21315759 227 18260543467563409107
21452121 199 18340484474521369240
21458453 9 18199160985544941658
22113638 7 18269264673620142967
221490 88 18409737295483961948
22393880 68 18339090379471207612
22440779 20 17028020577212718625
23559900 14 18412254047567163113
23572383 38 18198325278501860886
312425 83 17603584123432333245
339767 52 18265606598687771906
340366 18 18116434743750996245
345986 75 17631466703710813331
3737641 26 18122363516695707955
4280585 95 18191860137862496474
44062 13 18261955125024897407
463206 1 18116996576648683355
602551 16 17765434241286695330
613672 6 18268702806019566078
6433294 58 18267304407533089839
88748 71 18335989692287641115
9709674 26 18335702766965568875
9795274 37 18409733996964747147

> <PUBCHEM_SHAPE_MULTIPOLES>
465.99
9.57
5.34
1.28
2.7
1.01
-0.1
-9.16
1.14
-3.05
-0.31
-0.48
0
-0.53

> <PUBCHEM_SHAPE_SELFOVERLAP>
991.347

> <PUBCHEM_SHAPE_VOLUME>
258.5

> <PUBCHEM_COORDINATE_TYPE>
2
5
10

$$$$
