40533380
  -OEChem-12032416283D

 54 58  0     1  0  0  0  0  0999 V2000
   -1.2120   -1.4560   -1.7017 O   0  0  0  0  0  0  0  0  0  0  0  0
   -0.4383   -2.6941    1.0597 O   0  0  0  0  0  0  0  0  0  0  0  0
   -3.2183   -0.4049    0.4237 N   0  0  0  0  0  0  0  0  0  0  0  0
    2.0856   -0.9460   -0.0881 N   0  0  0  0  0  0  0  0  0  0  0  0
    2.0261   -0.4683    1.1656 N   0  0  0  0  0  0  0  0  0  0  0  0
    3.1458    0.2135    1.3814 N   0  0  0  0  0  0  0  0  0  0  0  0
    5.7673    0.5867   -1.1228 N   0  0  0  0  0  0  0  0  0  0  0  0
   -1.0249   -1.4421    0.6692 C   0  0  1  0  0  0  0  0  0  0  0  0
   -0.3628   -1.0154   -0.6264 C   0  0  1  0  0  0  0  0  0  0  0  0
   -2.4770   -1.6364    0.2966 C   0  0  2  0  0  0  0  0  0  0  0  0
    0.9500   -1.7786   -0.6541 C   0  0  2  0  0  0  0  0  0  0  0  0
   -2.3843   -2.0755   -1.1533 C   0  0  0  0  0  0  0  0  0  0  0  0
    0.6015   -3.0385    0.1334 C   0  0  0  0  0  0  0  0  0  0  0  0
   -5.4320    0.6574    0.4860 C   0  0  0  0  0  0  0  0  0  0  0  0
   -4.6508   -0.6494    0.3616 C   0  0  0  0  0  0  0  0  0  0  0  0
   -5.0810    1.6102   -0.6647 C   0  0  0  0  0  0  0  0  0  0  0  0
   -6.9415    0.3844    0.5281 C   0  0  0  0  0  0  0  0  0  0  0  0
   -5.8894    2.9036   -0.5921 C   0  0  0  0  0  0  0  0  0  0  0  0
   -7.7469    1.6799    0.5987 C   0  0  0  0  0  0  0  0  0  0  0  0
   -7.3889    2.6280   -0.5416 C   0  0  0  0  0  0  0  0  0  0  0  0
    3.2419   -0.5847   -0.7084 C   0  0  0  0  0  0  0  0  0  0  0  0
    3.9012    0.1518    0.2434 C   0  0  0  0  0  0  0  0  0  0  0  0
    5.1804    0.7648    0.0819 C   0  0  0  0  0  0  0  0  0  0  0  0
    5.7458    1.4862    1.1212 C   0  0  0  0  0  0  0  0  0  0  0  0
    6.9937    2.0618    0.9102 C   0  0  0  0  0  0  0  0  0  0  0  0
    6.9796    1.1607   -1.2910 C   0  0  0  0  0  0  0  0  0  0  0  0
    7.6292    1.9008   -0.3162 C   0  0  0  0  0  0  0  0  0  0  0  0
   -0.8593   -0.7417    1.4942 H   0  0  0  0  0  0  0  0  0  0  0  0
   -0.2579    0.0705   -0.7180 H   0  0  0  0  0  0  0  0  0  0  0  0
   -2.9302   -2.4252    0.9099 H   0  0  0  0  0  0  0  0  0  0  0  0
    1.2777   -2.0359   -1.6680 H   0  0  0  0  0  0  0  0  0  0  0  0
   -2.2420   -3.1605   -1.2183 H   0  0  0  0  0  0  0  0  0  0  0  0
   -3.2441   -1.8237   -1.7796 H   0  0  0  0  0  0  0  0  0  0  0  0
    0.2041   -3.8145   -0.5298 H   0  0  0  0  0  0  0  0  0  0  0  0
    1.4514   -3.4539    0.6828 H   0  0  0  0  0  0  0  0  0  0  0  0
   -5.1544    1.1441    1.4320 H   0  0  0  0  0  0  0  0  0  0  0  0
   -2.9989    0.0456    1.3120 H   0  0  0  0  0  0  0  0  0  0  0  0
   -4.9328   -1.1439   -0.5749 H   0  0  0  0  0  0  0  0  0  0  0  0
   -4.9482   -1.3164    1.1812 H   0  0  0  0  0  0  0  0  0  0  0  0
   -5.2728    1.1201   -1.6280 H   0  0  0  0  0  0  0  0  0  0  0  0
   -4.0161    1.8690   -0.6466 H   0  0  0  0  0  0  0  0  0  0  0  0
   -7.1856   -0.2392    1.3964 H   0  0  0  0  0  0  0  0  0  0  0  0
   -7.2445   -0.1795   -0.3634 H   0  0  0  0  0  0  0  0  0  0  0  0
   -5.6596    3.5309   -1.4608 H   0  0  0  0  0  0  0  0  0  0  0  0
   -5.5919    3.4702    0.2988 H   0  0  0  0  0  0  0  0  0  0  0  0
   -7.5574    2.1753    1.5588 H   0  0  0  0  0  0  0  0  0  0  0  0
   -8.8178    1.4500    0.5641 H   0  0  0  0  0  0  0  0  0  0  0  0
   -7.9336    3.5712   -0.4220 H   0  0  0  0  0  0  0  0  0  0  0  0
   -7.7117    2.1909   -1.4945 H   0  0  0  0  0  0  0  0  0  0  0  0
    3.4746   -0.8739   -1.7240 H   0  0  0  0  0  0  0  0  0  0  0  0
    5.2532    1.6141    2.0795 H   0  0  0  0  0  0  0  0  0  0  0  0
    7.4705    2.6349    1.6997 H   0  0  0  0  0  0  0  0  0  0  0  0
    7.4328    1.0055   -2.2645 H   0  0  0  0  0  0  0  0  0  0  0  0
    8.6022    2.3405   -0.5029 H   0  0  0  0  0  0  0  0  0  0  0  0
  1  9  1  0  0  0  0
  1 12  1  0  0  0  0
  2  8  1  0  0  0  0
  2 13  1  0  0  0  0
  3 10  1  0  0  0  0
  3 15  1  0  0  0  0
  3 37  1  0  0  0  0
  4  5  1  0  0  0  0
  4 11  1  0  0  0  0
  4 21  1  0  0  0  0
  5  6  2  0  0  0  0
  6 22  1  0  0  0  0
  7 23  1  0  0  0  0
  7 26  2  0  0  0  0
  8  9  1  0  0  0  0
  8 10  1  0  0  0  0
  8 28  1  0  0  0  0
  9 11  1  0  0  0  0
  9 29  1  0  0  0  0
 10 12  1  0  0  0  0
 10 30  1  0  0  0  0
 11 13  1  0  0  0  0
 11 31  1  0  0  0  0
 12 32  1  0  0  0  0
 12 33  1  0  0  0  0
 13 34  1  0  0  0  0
 13 35  1  0  0  0  0
 14 15  1  0  0  0  0
 14 16  1  0  0  0  0
 14 17  1  0  0  0  0
 14 36  1  0  0  0  0
 15 38  1  0  0  0  0
 15 39  1  0  0  0  0
 16 18  1  0  0  0  0
 16 40  1  0  0  0  0
 16 41  1  0  0  0  0
 17 19  1  0  0  0  0
 17 42  1  0  0  0  0
 17 43  1  0  0  0  0
 18 20  1  0  0  0  0
 18 44  1  0  0  0  0
 18 45  1  0  0  0  0
 19 20  1  0  0  0  0
 19 46  1  0  0  0  0
 19 47  1  0  0  0  0
 20 48  1  0  0  0  0
 20 49  1  0  0  0  0
 21 22  2  0  0  0  0
 21 50  1  0  0  0  0
 22 23  1  0  0  0  0
 23 24  2  0  0  0  0
 24 25  1  0  0  0  0
 24 51  1  0  0  0  0
 25 27  2  0  0  0  0
 25 52  1  0  0  0  0
 26 27  1  0  0  0  0
 26 53  1  0  0  0  0
 27 54  1  0  0  0  0
M  END
> <PUBCHEM_COMPOUND_CID>
40533380

> <PUBCHEM_CONFORMER_RMSD>
0.8

> <PUBCHEM_CONFORMER_DIVERSEORDER>
2
92
51
84
87
123
66
98
58
50
108
112
82
71
46
62
75
95
104
126
54
93
7
94
115
86
60
89
68
29
128
8
96
19
56
55
120
127
25
79
70
5
67
49
72
106
17
132
47
14
114
103
102
30
11
53
109
21
105
100
133
91
23
99
61
136
26
36
40
111
57
69
59
15
80
3
131
83
129
52
20
34
48
81
135
41
116
63
113
97
137
28
16
101
33
27
118
9
134
43
65
119
4
35
88
76
31
42
78
110
107
6
73
64
18
85
38
12
130
74
44
124
121
22
90
77
117
122
37
13
39
32
10
1
45
24
125

> <PUBCHEM_MMFF94_PARTIAL_CHARGES>
27
1 -0.56
10 0.27
11 0.26
12 0.28
13 0.28
15 0.27
2 -0.56
21 -0.3
22 0.17
23 0.36
24 -0.15
25 -0.15
26 0.16
27 -0.15
3 -0.9
37 0.36
4 0.31
5 -0.42
50 0.15
51 0.15
52 0.15
53 0.15
54 0.15
6 -0.23
7 -0.62
8 0.28
9 0.28

> <PUBCHEM_EFFECTIVE_ROTOR_COUNT>
7.4

> <PUBCHEM_PHARMACOPHORE_FEATURES>
10
1 1 acceptor
1 2 acceptor
1 3 cation
1 3 donor
1 7 acceptor
5 1 8 9 10 12 rings
5 2 8 9 11 13 rings
5 4 5 6 21 22 rings
6 14 16 17 18 19 20 rings
6 7 23 24 25 26 27 rings

> <PUBCHEM_HEAVY_ATOM_COUNT>
27

> <PUBCHEM_ATOM_DEF_STEREO_COUNT>
4

> <PUBCHEM_ATOM_UDEF_STEREO_COUNT>
0

> <PUBCHEM_BOND_DEF_STEREO_COUNT>
0

> <PUBCHEM_BOND_UDEF_STEREO_COUNT>
0

> <PUBCHEM_ISOTOPIC_ATOM_COUNT>
0

> <PUBCHEM_COMPONENT_COUNT>
1

> <PUBCHEM_CACTVS_TAUTO_COUNT>
1

> <PUBCHEM_CONFORMER_ID>
026A7D8400000002

> <PUBCHEM_MMFF94_ENERGY>
48.9552

> <PUBCHEM_FEATURE_SELFOVERLAP>
51.451

> <PUBCHEM_SHAPE_FINGERPRINT>
10 15 18187367623645859369
10006869 2 18266732498166781412
10369192 42 18202566168829618181
10554248 39 17845934026877516990
10674148 151 10879995749245451479
10740516 88 9150887330269994181
10753850 27 9511461117262113063
10939801 23 17967818271088149908
11135609 201 18333722520896435439
11761917 87 15575537069953040792
12760667 363 7925911478951739021
12895837 130 18269836569900394333
12988421 55 17458614627770198851
13668630 136 9799701389451199464
13782708 43 8358262535973058046
13911987 19 17632574912921487595
14068700 675 11815905556745255274
14123256 34 9007059071308907169
14211702 104 7997704120399320680
14251757 52 18334576845768688032
14359421 15 12247684850825520597
14617042 71 18341900629025509713
14904525 67 18192155013270033468
14931854 50 17489872609312662801
14951699 99 18260549987755793909
15183329 4 15985108500334581172
15188451 53 9151177545372153036
15238133 3 18114752619914499644
15350500 55 18187921738894290093
15510800 12 8142085394473295889
1577012 14 18411412921161234907
15803439 3 16773792597865195503
16126227 98 18410012156585758645
16994733 274 18407755945755998537
1768 4 18342749507683129937
190975 80 12179850523946011516
19427546 20 18059569256867418463
19784866 240 9439402445562349483
20281389 69 18409166610357614312
20691028 202 18263645233332106932
20775438 99 12173321598098981309
21033648 29 18114192887160764051
21095123 293 18041286560378021220
21307412 95 12103554304463052205
21424621 283 18335139795242145946
21585482 111 18189334580997320405
21756936 100 18336542823729851131
21781055 127 17967250932748634112
22122407 14 17822587108463427628
23522609 53 16879086307250484318
23559900 14 14835841859175191194
24771293 8 18333452028679089437
25269216 80 16988266661254306325
270888 7 18410008831995942603
2748736 6 18410003325879887781
2838139 119 18271795805289994453
3411729 13 18187644656877975411
3627633 1 17691124155302535751
3918712 181 18412820261812287433
392239 28 14996286945857441107
406291 66 9223223044978107781
439807 62 10592039168241630713
44249763 50 17988628744376520416
465052 167 8070018987114562099
5104073 3 14491009611792716836
5385378 56 18040992934975486842
5470011 282 13398623982974100664
563151 97 18341040891882846383
59682541 35 11458424678886136916
59682541 52 16343708703565401956
6327066 14 18413386532054022287
636775 72 18266737064292803200
636775 8 8430325666878296432
9689198 14 18409453587129486649
9896288 288 11675413233443708551
999808 66 10737282450609680881

> <PUBCHEM_SHAPE_MULTIPOLES>
519
23.52
3.15
1.21
0.02
0.22
-0.1
-27.46
-0.1
2.43
-0.23
-0.78
0.05
0.79

> <PUBCHEM_SHAPE_SELFOVERLAP>
1116.936

> <PUBCHEM_SHAPE_VOLUME>
283.9

> <PUBCHEM_COORDINATE_TYPE>
2
5
10

$$$$
