75536517
  -OEChem-12032416303D

 54 55  0     1  0  0  0  0  0999 V2000
   -6.6650   -0.2008    0.2404 F   0  0  0  0  0  0  0  0  0  0  0  0
   -6.8218    1.9648    0.3580 F   0  0  0  0  0  0  0  0  0  0  0  0
    1.2673   -0.0289   -0.3580 O   0  0  0  0  0  0  0  0  0  0  0  0
   -0.3652   -2.7666    1.2990 O   0  0  0  0  0  0  0  0  0  0  0  0
    3.8880   -0.3514   -1.8597 O   0  0  0  0  0  0  0  0  0  0  0  0
   -2.2233   -1.0339   -0.5507 N   0  0  0  0  0  0  0  0  0  0  0  0
    3.7465   -1.3868    0.2161 N   0  0  0  0  0  0  0  0  0  0  0  0
   -0.9574   -0.7270    0.0951 C   0  0  1  0  0  0  0  0  0  0  0  0
   -3.1947    0.0380   -0.3401 C   0  0  0  0  0  0  0  0  0  0  0  0
   -0.0297   -1.9218    0.2153 C   0  0  1  0  0  0  0  0  0  0  0  0
   -3.8327   -0.1029    1.0474 C   0  0  0  0  0  0  0  0  0  0  0  0
   -4.2568    0.0021   -1.4459 C   0  0  0  0  0  0  0  0  0  0  0  0
    1.3111   -1.2319    0.4274 C   0  0  1  0  0  0  0  0  0  0  0  0
   -0.1019    0.2384   -0.7089 C   0  0  0  0  0  0  0  0  0  0  0  0
   -4.9061    0.9598    1.2754 C   0  0  0  0  0  0  0  0  0  0  0  0
   -5.3307    1.0646   -1.2191 C   0  0  0  0  0  0  0  0  0  0  0  0
   -5.9445    0.9486    0.1661 C   0  0  0  0  0  0  0  0  0  0  0  0
    2.4966   -2.0798    0.0019 C   0  0  0  0  0  0  0  0  0  0  0  0
    5.5220    1.4240    0.3857 C   0  0  0  0  0  0  0  0  0  0  0  0
    5.6519    0.0294   -0.2718 C   0  0  0  0  0  0  0  0  0  0  0  0
    4.3387   -0.5775   -0.7384 C   0  0  0  0  0  0  0  0  0  0  0  0
    4.9212    2.3884   -0.6556 C   0  0  0  0  0  0  0  0  0  0  0  0
    6.8969    1.9651    0.8128 C   0  0  0  0  0  0  0  0  0  0  0  0
    4.5897    1.3861    1.6076 C   0  0  0  0  0  0  0  0  0  0  0  0
   -1.1108   -0.3297    1.1061 H   0  0  0  0  0  0  0  0  0  0  0  0
   -2.7046    1.0184   -0.4067 H   0  0  0  0  0  0  0  0  0  0  0  0
   -0.0281   -2.5146   -0.7079 H   0  0  0  0  0  0  0  0  0  0  0  0
    1.4366   -0.9326    1.4764 H   0  0  0  0  0  0  0  0  0  0  0  0
   -2.5950   -1.9146   -0.1965 H   0  0  0  0  0  0  0  0  0  0  0  0
   -3.0889   -0.0126    1.8461 H   0  0  0  0  0  0  0  0  0  0  0  0
   -4.2901   -1.0957    1.1544 H   0  0  0  0  0  0  0  0  0  0  0  0
   -4.7328   -0.9869   -1.4804 H   0  0  0  0  0  0  0  0  0  0  0  0
   -3.7894    0.1635   -2.4251 H   0  0  0  0  0  0  0  0  0  0  0  0
   -0.1949    0.0773   -1.7891 H   0  0  0  0  0  0  0  0  0  0  0  0
   -0.3293    1.2871   -0.4960 H   0  0  0  0  0  0  0  0  0  0  0  0
   -5.3973    0.7803    2.2385 H   0  0  0  0  0  0  0  0  0  0  0  0
   -4.4437    1.9522    1.3375 H   0  0  0  0  0  0  0  0  0  0  0  0
   -4.9011    2.0652   -1.3490 H   0  0  0  0  0  0  0  0  0  0  0  0
   -6.1141    0.9576   -1.9778 H   0  0  0  0  0  0  0  0  0  0  0  0
    2.4262   -2.3319   -1.0623 H   0  0  0  0  0  0  0  0  0  0  0  0
    2.5359   -3.0099    0.5778 H   0  0  0  0  0  0  0  0  0  0  0  0
   -0.3674   -2.2343    2.1125 H   0  0  0  0  0  0  0  0  0  0  0  0
    4.1964   -1.5014    1.1194 H   0  0  0  0  0  0  0  0  0  0  0  0
    6.1352   -0.6646    0.4283 H   0  0  0  0  0  0  0  0  0  0  0  0
    6.3148    0.0806   -1.1455 H   0  0  0  0  0  0  0  0  0  0  0  0
    3.8922    2.1230   -0.9202 H   0  0  0  0  0  0  0  0  0  0  0  0
    5.5163    2.4022   -1.5756 H   0  0  0  0  0  0  0  0  0  0  0  0
    4.8940    3.4134   -0.2670 H   0  0  0  0  0  0  0  0  0  0  0  0
    7.3599    1.3087    1.5579 H   0  0  0  0  0  0  0  0  0  0  0  0
    7.5779    2.0303   -0.0431 H   0  0  0  0  0  0  0  0  0  0  0  0
    6.8154    2.9654    1.2525 H   0  0  0  0  0  0  0  0  0  0  0  0
    3.5601    1.1346    1.3340 H   0  0  0  0  0  0  0  0  0  0  0  0
    4.5574    2.3619    2.1061 H   0  0  0  0  0  0  0  0  0  0  0  0
    4.9363    0.6513    2.3426 H   0  0  0  0  0  0  0  0  0  0  0  0
  1 17  1  0  0  0  0
  2 17  1  0  0  0  0
  3 13  1  0  0  0  0
  3 14  1  0  0  0  0
  4 10  1  0  0  0  0
  4 42  1  0  0  0  0
  5 21  2  0  0  0  0
  6  8  1  0  0  0  0
  6  9  1  0  0  0  0
  6 29  1  0  0  0  0
  7 18  1  0  0  0  0
  7 21  1  0  0  0  0
  7 43  1  0  0  0  0
  8 10  1  0  0  0  0
  8 14  1  0  0  0  0
  8 25  1  0  0  0  0
  9 11  1  0  0  0  0
  9 12  1  0  0  0  0
  9 26  1  0  0  0  0
 10 13  1  0  0  0  0
 10 27  1  0  0  0  0
 11 15  1  0  0  0  0
 11 30  1  0  0  0  0
 11 31  1  0  0  0  0
 12 16  1  0  0  0  0
 12 32  1  0  0  0  0
 12 33  1  0  0  0  0
 13 18  1  0  0  0  0
 13 28  1  0  0  0  0
 14 34  1  0  0  0  0
 14 35  1  0  0  0  0
 15 17  1  0  0  0  0
 15 36  1  0  0  0  0
 15 37  1  0  0  0  0
 16 17  1  0  0  0  0
 16 38  1  0  0  0  0
 16 39  1  0  0  0  0
 18 40  1  0  0  0  0
 18 41  1  0  0  0  0
 19 20  1  0  0  0  0
 19 22  1  0  0  0  0
 19 23  1  0  0  0  0
 19 24  1  0  0  0  0
 20 21  1  0  0  0  0
 20 44  1  0  0  0  0
 20 45  1  0  0  0  0
 22 46  1  0  0  0  0
 22 47  1  0  0  0  0
 22 48  1  0  0  0  0
 23 49  1  0  0  0  0
 23 50  1  0  0  0  0
 23 51  1  0  0  0  0
 24 52  1  0  0  0  0
 24 53  1  0  0  0  0
 24 54  1  0  0  0  0
M  END
> <PUBCHEM_COMPOUND_CID>
75536517

> <PUBCHEM_CONFORMER_RMSD>
1

> <PUBCHEM_CONFORMER_DIVERSEORDER>
1
101
149
177
48
165
166
144
150
148
54
39
91
90
179
182
188
161
82
28
146
121
92
175
70
164
2
119
81
129
120
84
122
17
160
194
44
85
112
53
116
64
135
151
131
15
184
49
41
133
157
145
154
100
60
168
45
186
33
191
93
124
67
107
170
10
56
25
46
195
83
7
42
75
109
163
26
111
162
98
69
103
190
140
106
6
16
59
99
34
115
136
20
152
43
32
114
172
187
137
102
117
183
134
13
108
74
51
72
62
141
180
130
37
9
52
87
97
4
36
78
88
50
96
185
153
156
68
192
113
158
35
73
19
104
79
167
86
110
12
139
80
181
38
8
125
5
173
127
126
66
18
71
118
123
128
40
55
138
132
30
57
155
89
47
189
58
171
178
94
11
63
142
159
193
61
77
31
143
3
23
174
21
176
14
22
147
27
29
169
105
65
95
76
24

> <PUBCHEM_MMFF94_PARTIAL_CHARGES>
19
1 -0.34
10 0.28
13 0.28
14 0.28
17 0.68
18 0.3
2 -0.34
20 0.06
21 0.57
29 0.36
3 -0.56
4 -0.68
42 0.4
43 0.37
5 -0.57
6 -0.9
7 -0.73
8 0.27
9 0.27

> <PUBCHEM_EFFECTIVE_ROTOR_COUNT>
9.2

> <PUBCHEM_PHARMACOPHORE_FEATURES>
10
1 3 acceptor
1 4 acceptor
1 4 donor
1 5 acceptor
1 6 cation
1 6 donor
1 7 donor
4 19 22 23 24 hydrophobe
5 3 8 10 13 14 rings
6 9 11 12 15 16 17 rings

> <PUBCHEM_HEAVY_ATOM_COUNT>
24

> <PUBCHEM_ATOM_DEF_STEREO_COUNT>
3

> <PUBCHEM_ATOM_UDEF_STEREO_COUNT>
0

> <PUBCHEM_BOND_DEF_STEREO_COUNT>
0

> <PUBCHEM_BOND_UDEF_STEREO_COUNT>
0

> <PUBCHEM_ISOTOPIC_ATOM_COUNT>
0

> <PUBCHEM_COMPONENT_COUNT>
1

> <PUBCHEM_CACTVS_TAUTO_COUNT>
2

> <PUBCHEM_CONFORMER_ID>
0480988500000001

> <PUBCHEM_MMFF94_ENERGY>
41.9721

> <PUBCHEM_FEATURE_SELFOVERLAP>
50.746

> <PUBCHEM_SHAPE_FINGERPRINT>
10 15 17458349666646835253
10319926 262 14996555136521703199
10638233 991 17989485217048932457
10692045 39 17677038059004850034
11796584 16 13110953219633336951
12236239 1 18201156564515295919
12403259 118 16660644059415859239
12596602 18 18341896264836829747
13533116 47 18261954034245953930
13631057 29 18267578186894309519
13685833 64 9439403536051142668
13690498 29 16055175003595694551
13782708 43 8213877972265662636
13955234 65 18115583717398407034
14123256 34 10015585029733999996
14211702 104 8141784115560846585
14251740 57 12613022856815190640
14251757 52 18130509635263880081
14251764 18 13118003301534408804
14251764 30 9655580707758731008
14251764 75 17826522355728259388
14461889 52 18113905995713627803
14528608 73 17775562052810196398
14681490 219 17775565338339638928
146900 427 18261672584331775683
15183329 4 16415481553550092232
15348495 7 17313108600402860536
16079462 125 17894624821445246277
17349148 13 8070025601126703902
17913733 40 17822290154519229315
1813 80 10879993575311706018
18222031 100 10735876162300151390
20281389 69 18261110747001561669
20397935 70 12684809992356583120
20715895 44 18411136970287868592
21033648 29 17894916212995092822
21150785 3 16773793723030301957
21424621 283 18411702067112767937
2215653 11 11887670684583812892
22224240 67 18040155115646715315
23559900 14 12966832547090316191
25122255 55 9871459946212042261
2748736 6 18410851092489781000
2916195 48 18408322194112498699
3004659 81 12751235909095561754
3014063 24 8070022255653252425
3472631 163 18272934946802582990
34797466 226 17632583738187685767
3680242 22 18114173147501491296
4093350 32 17704078369403329260
4340502 62 16370443337068335394
465052 167 7925912591168927512
5104073 3 18113335323372143586
5364581 5 17459483323676435117
543368 44 18273494576962607329
59682541 52 16487256538871753468
960060 61 15410898453160984390

> <PUBCHEM_SHAPE_MULTIPOLES>
451.79
18.75
2.28
1.31
5.71
0.3
-0.06
-13.76
1.06
-2.05
0.52
0.07
-0.15
0.56

> <PUBCHEM_SHAPE_SELFOVERLAP>
913.716

> <PUBCHEM_SHAPE_VOLUME>
267.3

> <PUBCHEM_COORDINATE_TYPE>
2
5
10

$$$$
