45361621
  -OEChem-12032416203D

 79 82  0     1  0  0  0  0  0999 V2000
    1.2844   -2.8417    1.7204 O   0  0  0  0  0  0  0  0  0  0  0  0
    3.7463   -1.0308    2.3544 O   0  0  0  0  0  0  0  0  0  0  0  0
   -4.9657   -2.0679   -1.0134 O   0  0  0  0  0  0  0  0  0  0  0  0
    1.2372    3.6850    1.6994 O   0  0  0  0  0  0  0  0  0  0  0  0
    0.9919    4.3370   -0.9914 O   0  0  0  0  0  0  0  0  0  0  0  0
   -3.3159   -0.6830   -0.1555 N   0  0  0  0  0  0  0  0  0  0  0  0
    4.8629   -0.4849    0.3961 N   0  0  0  0  0  0  0  0  0  0  0  0
   -5.2158    0.9067    0.8496 N   0  0  0  0  0  0  0  0  0  0  0  0
    0.5963   -1.4660   -1.7738 C   0  0  1  0  0  0  0  0  0  0  0  0
    0.2821   -2.0561   -0.3588 C   0  0  2  0  0  0  0  0  0  0  0  0
   -0.9581   -1.3373    0.2838 C   0  0  1  0  0  0  0  0  0  0  0  0
    1.5596   -2.1054    0.5278 C   0  0  2  0  0  0  0  0  0  0  0  0
    1.7474   -2.2694   -2.4239 C   0  0  0  0  0  0  0  0  0  0  0  0
   -0.6519   -1.6207   -2.6731 C   0  0  0  0  0  0  0  0  0  0  0  0
    2.7406   -2.8197   -0.1699 C   0  0  1  0  0  0  0  0  0  0  0  0
   -2.1872   -1.4344   -0.6632 C   0  0  2  0  0  0  0  0  0  0  0  0
    3.0127   -2.2866   -1.5765 C   0  0  0  0  0  0  0  0  0  0  0  0
   -1.8948   -0.9652   -2.0882 C   0  0  0  0  0  0  0  0  0  0  0  0
    1.0024    0.0285   -1.7173 C   0  0  0  0  0  0  0  0  0  0  0  0
    4.0250   -2.7430    0.6644 C   0  0  2  0  0  0  0  0  0  0  0  0
   -1.3411   -1.8891    1.6675 C   0  0  0  0  0  0  0  0  0  0  0  0
    4.0032   -3.8031    1.7601 C   0  0  0  0  0  0  0  0  0  0  0  0
    4.1831   -1.3427    1.2485 C   0  0  0  0  0  0  0  0  0  0  0  0
   -4.6254   -1.0726   -0.3793 C   0  0  0  0  0  0  0  0  0  0  0  0
   -5.6699   -0.1799    0.1857 C   0  0  0  0  0  0  0  0  0  0  0  0
    5.1335    0.8945    0.7284 C   0  0  0  0  0  0  0  0  0  0  0  0
   -7.0117   -0.4813    0.0169 C   0  0  0  0  0  0  0  0  0  0  0  0
    4.0320    1.8083    0.2747 C   0  0  0  0  0  0  0  0  0  0  0  0
   -7.9478    0.3887    0.5646 C   0  0  0  0  0  0  0  0  0  0  0  0
   -6.1550    1.7292    1.3683 C   0  0  0  0  0  0  0  0  0  0  0  0
    3.1316    2.3301    1.2036 C   0  0  0  0  0  0  0  0  0  0  0  0
    3.9096    2.1362   -1.0756 C   0  0  0  0  0  0  0  0  0  0  0  0
   -7.5196    1.5173    1.2547 C   0  0  0  0  0  0  0  0  0  0  0  0
    2.1088    3.1799    0.7821 C   0  0  0  0  0  0  0  0  0  0  0  0
    2.8867    2.9859   -1.4969 C   0  0  0  0  0  0  0  0  0  0  0  0
    1.9863    3.5078   -0.5680 C   0  0  0  0  0  0  0  0  0  0  0  0
    0.0597    2.9238    1.9616 C   0  0  0  0  0  0  0  0  0  0  0  0
    0.9365    4.6219   -2.3879 C   0  0  0  0  0  0  0  0  0  0  0  0
   -0.0289   -3.1037   -0.5009 H   0  0  0  0  0  0  0  0  0  0  0  0
   -0.7145   -0.2776    0.4337 H   0  0  0  0  0  0  0  0  0  0  0  0
    1.7930   -1.0787    0.8188 H   0  0  0  0  0  0  0  0  0  0  0  0
    1.4259   -3.3062   -2.5913 H   0  0  0  0  0  0  0  0  0  0  0  0
    1.9852   -1.8598   -3.4140 H   0  0  0  0  0  0  0  0  0  0  0  0
   -0.4585   -1.1974   -3.6671 H   0  0  0  0  0  0  0  0  0  0  0  0
   -0.8640   -2.6869   -2.8298 H   0  0  0  0  0  0  0  0  0  0  0  0
    2.4729   -3.8800   -0.2885 H   0  0  0  0  0  0  0  0  0  0  0  0
   -2.4877   -2.4900   -0.7162 H   0  0  0  0  0  0  0  0  0  0  0  0
    3.7598   -2.9187   -2.0729 H   0  0  0  0  0  0  0  0  0  0  0  0
    3.4317   -1.2787   -1.5594 H   0  0  0  0  0  0  0  0  0  0  0  0
   -1.7930    0.1266   -2.1135 H   0  0  0  0  0  0  0  0  0  0  0  0
   -2.7511   -1.1913   -2.7368 H   0  0  0  0  0  0  0  0  0  0  0  0
    0.1985    0.6758   -1.3579 H   0  0  0  0  0  0  0  0  0  0  0  0
    1.2885    0.3914   -2.7111 H   0  0  0  0  0  0  0  0  0  0  0  0
    1.8485    0.1848   -1.0486 H   0  0  0  0  0  0  0  0  0  0  0  0
    4.8938   -2.9669    0.0312 H   0  0  0  0  0  0  0  0  0  0  0  0
   -1.4410   -2.9792    1.6472 H   0  0  0  0  0  0  0  0  0  0  0  0
   -2.2900   -1.4760    2.0244 H   0  0  0  0  0  0  0  0  0  0  0  0
   -0.6003   -1.6100    2.4221 H   0  0  0  0  0  0  0  0  0  0  0  0
   -3.1343    0.1899    0.3322 H   0  0  0  0  0  0  0  0  0  0  0  0
    1.0027   -3.7365    1.4643 H   0  0  0  0  0  0  0  0  0  0  0  0
    3.3346   -3.5700    2.5922 H   0  0  0  0  0  0  0  0  0  0  0  0
    5.0039   -3.8858    2.2021 H   0  0  0  0  0  0  0  0  0  0  0  0
    3.7440   -4.7909    1.3656 H   0  0  0  0  0  0  0  0  0  0  0  0
    5.2223   -0.8331   -0.4873 H   0  0  0  0  0  0  0  0  0  0  0  0
    5.2939    0.9808    1.8094 H   0  0  0  0  0  0  0  0  0  0  0  0
    6.0753    1.1746    0.2428 H   0  0  0  0  0  0  0  0  0  0  0  0
   -7.3467   -1.3614   -0.5212 H   0  0  0  0  0  0  0  0  0  0  0  0
   -9.0092    0.1878    0.4541 H   0  0  0  0  0  0  0  0  0  0  0  0
   -5.7693    2.5947    1.8969 H   0  0  0  0  0  0  0  0  0  0  0  0
    3.2206    2.0778    2.2574 H   0  0  0  0  0  0  0  0  0  0  0  0
    4.6046    1.7334   -1.8077 H   0  0  0  0  0  0  0  0  0  0  0  0
   -8.2315    2.2092    1.6899 H   0  0  0  0  0  0  0  0  0  0  0  0
    2.8516    3.1952   -2.5604 H   0  0  0  0  0  0  0  0  0  0  0  0
    0.3211    1.9387    2.3612 H   0  0  0  0  0  0  0  0  0  0  0  0
   -0.5352    3.4579    2.7075 H   0  0  0  0  0  0  0  0  0  0  0  0
   -0.5378    2.8117    1.0512 H   0  0  0  0  0  0  0  0  0  0  0  0
    0.0870    5.2946   -2.5460 H   0  0  0  0  0  0  0  0  0  0  0  0
    0.7404    3.7187   -2.9759 H   0  0  0  0  0  0  0  0  0  0  0  0
    1.8314    5.1545   -2.7271 H   0  0  0  0  0  0  0  0  0  0  0  0
  1 12  1  0  0  0  0
  1 60  1  0  0  0  0
  2 23  2  0  0  0  0
  3 24  2  0  0  0  0
  4 34  1  0  0  0  0
  4 37  1  0  0  0  0
  5 36  1  0  0  0  0
  5 38  1  0  0  0  0
  6 16  1  0  0  0  0
  6 24  1  0  0  0  0
  6 59  1  0  0  0  0
  7 23  1  0  0  0  0
  7 26  1  0  0  0  0
  7 64  1  0  0  0  0
  8 25  1  0  0  0  0
  8 30  2  0  0  0  0
  9 10  1  0  0  0  0
  9 13  1  0  0  0  0
  9 14  1  0  0  0  0
  9 19  1  0  0  0  0
 10 11  1  0  0  0  0
 10 12  1  0  0  0  0
 10 39  1  0  0  0  0
 11 16  1  0  0  0  0
 11 21  1  0  0  0  0
 11 40  1  0  0  0  0
 12 15  1  0  0  0  0
 12 41  1  0  0  0  0
 13 17  1  0  0  0  0
 13 42  1  0  0  0  0
 13 43  1  0  0  0  0
 14 18  1  0  0  0  0
 14 44  1  0  0  0  0
 14 45  1  0  0  0  0
 15 17  1  0  0  0  0
 15 20  1  0  0  0  0
 15 46  1  0  0  0  0
 16 18  1  0  0  0  0
 16 47  1  0  0  0  0
 17 48  1  0  0  0  0
 17 49  1  0  0  0  0
 18 50  1  0  0  0  0
 18 51  1  0  0  0  0
 19 52  1  0  0  0  0
 19 53  1  0  0  0  0
 19 54  1  0  0  0  0
 20 22  1  0  0  0  0
 20 23  1  0  0  0  0
 20 55  1  0  0  0  0
 21 56  1  0  0  0  0
 21 57  1  0  0  0  0
 21 58  1  0  0  0  0
 22 61  1  0  0  0  0
 22 62  1  0  0  0  0
 22 63  1  0  0  0  0
 24 25  1  0  0  0  0
 25 27  2  0  0  0  0
 26 28  1  0  0  0  0
 26 65  1  0  0  0  0
 26 66  1  0  0  0  0
 27 29  1  0  0  0  0
 27 67  1  0  0  0  0
 28 31  2  0  0  0  0
 28 32  1  0  0  0  0
 29 33  2  0  0  0  0
 29 68  1  0  0  0  0
 30 33  1  0  0  0  0
 30 69  1  0  0  0  0
 31 34  1  0  0  0  0
 31 70  1  0  0  0  0
 32 35  2  0  0  0  0
 32 71  1  0  0  0  0
 33 72  1  0  0  0  0
 34 36  2  0  0  0  0
 35 36  1  0  0  0  0
 35 73  1  0  0  0  0
 37 74  1  0  0  0  0
 37 75  1  0  0  0  0
 37 76  1  0  0  0  0
 38 77  1  0  0  0  0
 38 78  1  0  0  0  0
 38 79  1  0  0  0  0
M  END
> <PUBCHEM_COMPOUND_CID>
45361621

> <PUBCHEM_CONFORMER_RMSD>
1.2

> <PUBCHEM_CONFORMER_DIVERSEORDER>
1
47
50
66
44
104
121
24
95
111
83
55
28
71
72
73
102
65
16
124
125
64
40
41
106
75
48
117
8
115
67
84
63
59
118
89
52
98
43
85
30
109
12
13
42
37
27
74
18
82
103
26
123
51
9
112
23
81
105
5
36
20
91
11
58
39
110
108
25
32
14
100
122
57
68
88
4
120
15
56
53
77
34
54
90
60
101
33
62
76
2
119
6
17
116
69
79
114
80
113
10
7
97
38
29
99
21
22
46
78
96
107
35
61
31
94
49
19
3
87
86
92
45
70
93

> <PUBCHEM_MMFF94_PARTIAL_CHARGES>
37
1 -0.68
12 0.28
16 0.3
2 -0.57
20 0.06
23 0.57
24 0.54
25 0.4
26 0.44
27 -0.15
28 -0.14
29 -0.15
3 -0.57
30 0.16
31 -0.15
32 -0.15
33 -0.15
34 0.08
35 -0.15
36 0.08
37 0.28
38 0.28
4 -0.36
5 -0.36
59 0.37
6 -0.73
60 0.4
64 0.37
67 0.15
68 0.15
69 0.15
7 -0.73
70 0.15
71 0.15
72 0.15
73 0.15
8 -0.62

> <PUBCHEM_EFFECTIVE_ROTOR_COUNT>
11.6

> <PUBCHEM_PHARMACOPHORE_FEATURES>
14
1 1 acceptor
1 1 donor
1 2 acceptor
1 22 hydrophobe
1 3 acceptor
1 4 acceptor
1 5 acceptor
1 6 donor
1 7 donor
1 8 acceptor
6 28 31 32 34 35 36 rings
6 8 25 27 29 30 33 rings
6 9 10 11 14 16 18 rings
6 9 10 12 13 15 17 rings

> <PUBCHEM_HEAVY_ATOM_COUNT>
38

> <PUBCHEM_ATOM_DEF_STEREO_COUNT>
6

> <PUBCHEM_ATOM_UDEF_STEREO_COUNT>
1

> <PUBCHEM_BOND_DEF_STEREO_COUNT>
0

> <PUBCHEM_BOND_UDEF_STEREO_COUNT>
0

> <PUBCHEM_ISOTOPIC_ATOM_COUNT>
0

> <PUBCHEM_COMPONENT_COUNT>
1

> <PUBCHEM_CACTVS_TAUTO_COUNT>
4

> <PUBCHEM_CONFORMER_ID>
02B429D500000001

> <PUBCHEM_MMFF94_ENERGY>
127.0596

> <PUBCHEM_FEATURE_SELFOVERLAP>
71.068

> <PUBCHEM_SHAPE_FINGERPRINT>
10190108 129 18336537232715867994
10439779 11 17988648480453613217
10673678 19 17846500365591821627
10674148 151 18200319939837013948
10675989 125 18268994348574185752
11578080 2 17896336872360601707
12156800 1 17841176376346099748
12422481 6 18341886356009868853
13165054 235 18059286557724853477
14114211 80 17899422171350715708
14849402 71 18333737935486743893
15082195 135 17631468803712547775
151778 21 17754169005740905348
15264996 154 18340221733754329631
15475509 84 17973715875280873926
19315092 285 16807275905433626818
21860390 5 18412549829443738694
21927370 108 17972024848500380786
22122407 14 18342182206394788947
22223350 30 17459208398830813211
3298306 158 18129106800086755993
3411729 13 18340492252326872959
3493558 16 18343308080447249497
35225 105 16968309691432523446
5109719 28 18271820021049339339
513532 50 17418103117523061468
57527306 92 18413110576664155510
5951187 136 17346037895808104824
60111433 81 17202186598612061440
6609424 69 18198343953082961916

> <PUBCHEM_SHAPE_MULTIPOLES>
737.73
14.77
5.62
2.41
36.96
5.09
0.71
1.38
-6.38
-7.02
0.4
-1.28
-0.09
-2.55

> <PUBCHEM_SHAPE_SELFOVERLAP>
1559.218

> <PUBCHEM_SHAPE_VOLUME>
408.9

> <PUBCHEM_COORDINATE_TYPE>
2
5
10

$$$$
