40779523
  -OEChem-12032416163D

 70 74  0     1  0  0  0  0  0999 V2000
    1.7251   -0.2665    1.3690 O   0  0  0  0  0  0  0  0  0  0  0  0
   -1.6848   -4.1675    0.3495 O   0  0  0  0  0  0  0  0  0  0  0  0
   -4.2469   -5.1068   -0.1768 O   0  0  0  0  0  0  0  0  0  0  0  0
    6.9678   -2.9302   -0.9687 O   0  0  0  0  0  0  0  0  0  0  0  0
    0.6172    4.6014    0.7188 N   0  0  2  0  0  0  0  0  0  0  0  0
   -3.5940    2.4439    0.2110 N   0  0  0  0  0  0  0  0  0  0  0  0
    2.9414    1.6523    0.8954 N   0  0  0  0  0  0  0  0  0  0  0  0
   -4.1991    1.2479    0.3092 N   0  0  0  0  0  0  0  0  0  0  0  0
   -0.3087    3.5528   -1.4781 C   0  0  2  0  0  0  0  0  0  0  0  0
   -1.4161    3.6002   -0.3893 C   0  0  2  0  0  0  0  0  0  0  0  0
    1.5337    3.5333    0.2398 C   0  0  2  0  0  0  0  0  0  0  0  0
    0.9025    2.7624   -0.9396 C   0  0  0  0  0  0  0  0  0  0  0  0
    0.1606    5.0068   -1.6994 C   0  0  0  0  0  0  0  0  0  0  0  0
   -0.7408    4.0448    0.9396 C   0  0  0  0  0  0  0  0  0  0  0  0
    0.5276    5.6328   -0.3426 C   0  0  0  0  0  0  0  0  0  0  0  0
   -2.2974    2.3729   -0.2066 C   0  0  0  0  0  0  0  0  0  0  0  0
    1.9727    2.5941    1.3652 C   0  0  0  0  0  0  0  0  0  0  0  0
   -2.0361    1.0376   -0.3943 C   0  0  0  0  0  0  0  0  0  0  0  0
   -3.2425    0.3928   -0.0619 C   0  0  0  0  0  0  0  0  0  0  0  0
   -4.3348    3.6389    0.5428 C   0  0  0  0  0  0  0  0  0  0  0  0
    2.7390    0.2738    0.9345 C   0  0  0  0  0  0  0  0  0  0  0  0
   -3.4980   -1.0238   -0.0905 C   0  0  0  0  0  0  0  0  0  0  0  0
    3.8531   -0.5709    0.4325 C   0  0  0  0  0  0  0  0  0  0  0  0
   -2.4596   -1.9246    0.1456 C   0  0  0  0  0  0  0  0  0  0  0  0
   -4.7839   -1.4954   -0.3548 C   0  0  0  0  0  0  0  0  0  0  0  0
    4.0166   -1.8692    0.9157 C   0  0  0  0  0  0  0  0  0  0  0  0
    4.7362   -0.0656   -0.5216 C   0  0  0  0  0  0  0  0  0  0  0  0
   -2.7069   -3.2972    0.1175 C   0  0  0  0  0  0  0  0  0  0  0  0
   -5.0311   -2.8679   -0.3832 C   0  0  0  0  0  0  0  0  0  0  0  0
   -3.9927   -3.7688   -0.1471 C   0  0  0  0  0  0  0  0  0  0  0  0
    5.0631   -2.6621    0.4446 C   0  0  0  0  0  0  0  0  0  0  0  0
    5.7829   -0.8584   -0.9925 C   0  0  0  0  0  0  0  0  0  0  0  0
    5.9464   -2.1566   -0.5094 C   0  0  0  0  0  0  0  0  0  0  0  0
   -0.4011   -3.6039    0.6118 C   0  0  0  0  0  0  0  0  0  0  0  0
   -5.5880   -5.5055   -0.4544 C   0  0  0  0  0  0  0  0  0  0  0  0
    7.0764   -4.2476   -0.4317 C   0  0  0  0  0  0  0  0  0  0  0  0
   -0.6782    3.1139   -2.4109 H   0  0  0  0  0  0  0  0  0  0  0  0
   -2.0929    4.4105   -0.6995 H   0  0  0  0  0  0  0  0  0  0  0  0
    2.4511    4.0188   -0.1261 H   0  0  0  0  0  0  0  0  0  0  0  0
    0.6139    1.7524   -0.6474 H   0  0  0  0  0  0  0  0  0  0  0  0
    1.6477    2.6546   -1.7382 H   0  0  0  0  0  0  0  0  0  0  0  0
   -0.6294    5.5957   -2.1797 H   0  0  0  0  0  0  0  0  0  0  0  0
    1.0284    5.0203   -2.3700 H   0  0  0  0  0  0  0  0  0  0  0  0
   -1.3620    4.8141    1.4172 H   0  0  0  0  0  0  0  0  0  0  0  0
   -0.7060    3.2264    1.6677 H   0  0  0  0  0  0  0  0  0  0  0  0
    1.4809    6.1691   -0.4255 H   0  0  0  0  0  0  0  0  0  0  0  0
   -0.2130    6.3923   -0.0613 H   0  0  0  0  0  0  0  0  0  0  0  0
    1.1249    2.0627    1.8077 H   0  0  0  0  0  0  0  0  0  0  0  0
    2.4526    3.1682    2.1662 H   0  0  0  0  0  0  0  0  0  0  0  0
   -1.1191    0.5867   -0.7396 H   0  0  0  0  0  0  0  0  0  0  0  0
    3.8375    2.0280    0.6040 H   0  0  0  0  0  0  0  0  0  0  0  0
   -4.4656    4.2283   -0.3679 H   0  0  0  0  0  0  0  0  0  0  0  0
   -5.3130    3.3604    0.9446 H   0  0  0  0  0  0  0  0  0  0  0  0
   -3.7793    4.2000    1.2972 H   0  0  0  0  0  0  0  0  0  0  0  0
   -1.4781   -1.5173    0.3621 H   0  0  0  0  0  0  0  0  0  0  0  0
   -5.6111   -0.8173   -0.5511 H   0  0  0  0  0  0  0  0  0  0  0  0
    3.3406   -2.2787    1.6620 H   0  0  0  0  0  0  0  0  0  0  0  0
    4.6258    0.9283   -0.9453 H   0  0  0  0  0  0  0  0  0  0  0  0
   -6.0530   -3.1619   -0.5968 H   0  0  0  0  0  0  0  0  0  0  0  0
    5.1323   -3.6605    0.8627 H   0  0  0  0  0  0  0  0  0  0  0  0
    6.4641   -0.4619   -1.7406 H   0  0  0  0  0  0  0  0  0  0  0  0
    0.2905   -4.4385    0.7688 H   0  0  0  0  0  0  0  0  0  0  0  0
   -0.3990   -3.0142    1.5351 H   0  0  0  0  0  0  0  0  0  0  0  0
   -0.0234   -3.0383   -0.2470 H   0  0  0  0  0  0  0  0  0  0  0  0
   -5.6084   -6.6002   -0.4387 H   0  0  0  0  0  0  0  0  0  0  0  0
   -5.9017   -5.1963   -1.4572 H   0  0  0  0  0  0  0  0  0  0  0  0
   -6.2798   -5.1637    0.3230 H   0  0  0  0  0  0  0  0  0  0  0  0
    7.9417   -4.7203   -0.9077 H   0  0  0  0  0  0  0  0  0  0  0  0
    6.2015   -4.8575   -0.6817 H   0  0  0  0  0  0  0  0  0  0  0  0
    7.2750   -4.2282    0.6452 H   0  0  0  0  0  0  0  0  0  0  0  0
  1 21  2  0  0  0  0
  2 28  1  0  0  0  0
  2 34  1  0  0  0  0
  3 30  1  0  0  0  0
  3 35  1  0  0  0  0
  4 33  1  0  0  0  0
  4 36  1  0  0  0  0
  5 11  1  0  0  0  0
  5 14  1  0  0  0  0
  5 15  1  0  0  0  0
  6  8  1  0  0  0  0
  6 16  1  0  0  0  0
  6 20  1  0  0  0  0
  7 17  1  0  0  0  0
  7 21  1  0  0  0  0
  7 51  1  0  0  0  0
  8 19  2  0  0  0  0
  9 10  1  0  0  0  0
  9 12  1  0  0  0  0
  9 13  1  0  0  0  0
  9 37  1  0  0  0  0
 10 14  1  0  0  0  0
 10 16  1  0  0  0  0
 10 38  1  0  0  0  0
 11 12  1  0  0  0  0
 11 17  1  0  0  0  0
 11 39  1  0  0  0  0
 12 40  1  0  0  0  0
 12 41  1  0  0  0  0
 13 15  1  0  0  0  0
 13 42  1  0  0  0  0
 13 43  1  0  0  0  0
 14 44  1  0  0  0  0
 14 45  1  0  0  0  0
 15 46  1  0  0  0  0
 15 47  1  0  0  0  0
 16 18  2  0  0  0  0
 17 48  1  0  0  0  0
 17 49  1  0  0  0  0
 18 19  1  0  0  0  0
 18 50  1  0  0  0  0
 19 22  1  0  0  0  0
 20 52  1  0  0  0  0
 20 53  1  0  0  0  0
 20 54  1  0  0  0  0
 21 23  1  0  0  0  0
 22 24  2  0  0  0  0
 22 25  1  0  0  0  0
 23 26  2  0  0  0  0
 23 27  1  0  0  0  0
 24 28  1  0  0  0  0
 24 55  1  0  0  0  0
 25 29  2  0  0  0  0
 25 56  1  0  0  0  0
 26 31  1  0  0  0  0
 26 57  1  0  0  0  0
 27 32  2  0  0  0  0
 27 58  1  0  0  0  0
 28 30  2  0  0  0  0
 29 30  1  0  0  0  0
 29 59  1  0  0  0  0
 31 33  2  0  0  0  0
 31 60  1  0  0  0  0
 32 33  1  0  0  0  0
 32 61  1  0  0  0  0
 34 62  1  0  0  0  0
 34 63  1  0  0  0  0
 34 64  1  0  0  0  0
 35 65  1  0  0  0  0
 35 66  1  0  0  0  0
 35 67  1  0  0  0  0
 36 68  1  0  0  0  0
 36 69  1  0  0  0  0
 36 70  1  0  0  0  0
M  END
> <PUBCHEM_COMPOUND_CID>
40779523

> <PUBCHEM_CONFORMER_RMSD>
1

> <PUBCHEM_CONFORMER_DIVERSEORDER>
1
104
108
64
68
109
20
95
97
66
89
6
106
90
44
83
40
96
93
26
73
100
4
21
11
76
110
60
91
81
55
9
58
33
85
99
53
77
69
61
5
18
103
29
43
45
3
47
36
75
27
10
87
50
92
23
15
17
56
70
79
32
105
54
101
46
80
39
49
12
42
35
34
13
107
62
63
41
74
30
38
37
24
86
57
14
82
72
102
65
84
52
51
59
22
25
98
67
48
8
78
71
28
88
31
19
94
2
16
7

> <PUBCHEM_MMFF94_PARTIAL_CHARGES>
42
1 -0.57
10 0.18
11 0.27
14 0.27
15 0.27
16 -0.33
17 0.3
18 -0.15
19 0.23
2 -0.36
20 0.26
21 0.54
22 0.05
23 0.09
24 -0.15
25 -0.15
26 -0.15
27 -0.15
28 0.08
29 -0.15
3 -0.36
30 0.08
31 -0.15
32 -0.15
33 0.08
34 0.28
35 0.28
36 0.28
4 -0.36
5 -0.81
50 0.15
51 0.37
55 0.15
56 0.15
57 0.15
58 0.15
59 0.15
6 0.31
60 0.15
61 0.15
7 -0.73
8 -0.71

> <PUBCHEM_EFFECTIVE_ROTOR_COUNT>
10.2

> <PUBCHEM_PHARMACOPHORE_FEATURES>
11
1 1 acceptor
1 2 acceptor
1 3 acceptor
1 4 acceptor
1 5 cation
1 7 donor
1 8 acceptor
5 6 8 16 18 19 rings
6 22 24 25 28 29 30 rings
6 23 26 27 31 32 33 rings
8 5 9 10 11 12 13 14 15 rings

> <PUBCHEM_HEAVY_ATOM_COUNT>
36

> <PUBCHEM_ATOM_DEF_STEREO_COUNT>
3

> <PUBCHEM_ATOM_UDEF_STEREO_COUNT>
0

> <PUBCHEM_BOND_DEF_STEREO_COUNT>
0

> <PUBCHEM_BOND_UDEF_STEREO_COUNT>
0

> <PUBCHEM_ISOTOPIC_ATOM_COUNT>
0

> <PUBCHEM_COMPONENT_COUNT>
1

> <PUBCHEM_CACTVS_TAUTO_COUNT>
2

> <PUBCHEM_CONFORMER_ID>
026E3F0300000001

> <PUBCHEM_MMFF94_ENERGY>
122.9282

> <PUBCHEM_FEATURE_SELFOVERLAP>
55.828

> <PUBCHEM_SHAPE_FINGERPRINT>
10290309 65 17545037100437326069
10677394 353 18339090281472657715
11014199 57 18410570729603346208
11069576 57 17833823151200370965
11285246 1 18260264196110228387
11409948 41 17408225320589320095
11455722 242 18409162213598629774
117089 54 18340491165932970286
11756154 67 18410295770339858799
11763389 116 17832703470501377845
12677640 9 18341895169889337505
1361 2 17329704839466298203
13761468 95 17607806097690279742
13989917 61 17616813679219235075
14040221 299 17983300326977870838
14251757 5 18265053527274623928
14400156 147 18198639885531461132
14444916 359 17548711685467179608
14856354 85 18198909094070811180
15264996 154 17903363950174367614
15320294 125 17610325057666375586
15320295 44 18189632574881877948
15320467 1 17977944914517825970
15400415 2 17401765225755499936
15803439 3 17103098322996218900
15890870 6 17976820887496240925
15927050 60 17188400574437250789
16067689 302 17326608611098550175
16988056 13 18120935268434652166
17492 89 18267583696729935093
17909252 39 18050572042683256944
19301676 85 18338507561294363583
19311894 1 18410855425800539987
20771845 38 17620759384027013617
20775530 9 18410285943233379953
21360442 43 17979642234955768742
21796203 349 17901711208267256441
23559900 14 18267577091149549931
3383291 50 18268142055585370129
3534868 343 17760088815290045349
3886686 26 18342178839230566921
404807 14 18411985801670323835
4435113 14 17558560102012947526
4756261 7 17616494757007954936
5265222 85 18047751490753865916
6441014 3 18411980243777174094
70251023 43 18121222236310226091

> <PUBCHEM_SHAPE_MULTIPOLES>
697.46
14.08
10.18
1.11
16.99
1.36
-0.07
-24.29
-2.49
-6.96
-1.44
0.73
0.82
0.07

> <PUBCHEM_SHAPE_SELFOVERLAP>
1509.853

> <PUBCHEM_SHAPE_VOLUME>
380.3

> <PUBCHEM_COORDINATE_TYPE>
2
5
10

$$$$
