11886052
  -OEChem-12032416363D

 40 44  0     1  0  0  0  0  0999 V2000
    4.0075   -0.0035    0.6167 O   0  0  0  0  0  0  0  0  0  0  0  0
    1.7001    2.0286    0.2973 O   0  0  0  0  0  0  0  0  0  0  0  0
    5.2218    2.3139   -0.2917 O   0  0  0  0  0  0  0  0  0  0  0  0
   -3.3961    1.2639   -1.5231 O   0  0  0  0  0  0  0  0  0  0  0  0
   -4.6710    0.9478    1.0431 O   0  0  0  0  0  0  0  0  0  0  0  0
    1.1836   -1.5880    0.0313 N   0  0  0  0  0  0  0  0  0  0  0  0
    2.0611   -2.5086   -0.3818 N   0  0  0  0  0  0  0  0  0  0  0  0
   -0.0220   -3.1587   -0.8384 N   0  0  0  0  0  0  0  0  0  0  0  0
    1.3167   -3.4702   -0.9141 N   0  0  0  0  0  0  0  0  0  0  0  0
    1.9523    0.7436   -0.3129 C   0  0  1  0  0  0  0  0  0  0  0  0
    3.4490    0.6501   -0.5338 C   0  0  1  0  0  0  0  0  0  0  0  0
    1.6449   -0.3592    0.6814 C   0  0  2  0  0  0  0  0  0  0  0  0
    3.8653    2.0998   -0.6092 C   0  0  1  0  0  0  0  0  0  0  0  0
    2.9504   -0.4826    1.4605 C   0  0  0  0  0  0  0  0  0  0  0  0
    2.9370    2.7487    0.3909 C   0  0  0  0  0  0  0  0  0  0  0  0
   -0.0802   -1.9872   -0.2480 C   0  0  0  0  0  0  0  0  0  0  0  0
   -1.2677   -1.2307    0.0628 C   0  0  0  0  0  0  0  0  0  0  0  0
   -1.7781   -0.3224   -0.8648 C   0  0  0  0  0  0  0  0  0  0  0  0
   -1.9069   -1.4117    1.2897 C   0  0  0  0  0  0  0  0  0  0  0  0
   -2.9313    0.4027   -0.5637 C   0  0  0  0  0  0  0  0  0  0  0  0
   -3.5557    0.2414    0.6757 C   0  0  0  0  0  0  0  0  0  0  0  0
   -3.0523   -0.6769    1.5973 C   0  0  0  0  0  0  0  0  0  0  0  0
   -4.7387    1.6808   -1.2602 C   0  0  0  0  0  0  0  0  0  0  0  0
   -4.8896    2.0786    0.1952 C   0  0  0  0  0  0  0  0  0  0  0  0
    1.3759    0.7025   -1.2423 H   0  0  0  0  0  0  0  0  0  0  0  0
    3.7338    0.0678   -1.4148 H   0  0  0  0  0  0  0  0  0  0  0  0
    0.8504   -0.0770    1.3818 H   0  0  0  0  0  0  0  0  0  0  0  0
    3.6619    2.4873   -1.6148 H   0  0  0  0  0  0  0  0  0  0  0  0
    2.9307    0.1685    2.3418 H   0  0  0  0  0  0  0  0  0  0  0  0
    3.1830   -1.4960    1.8007 H   0  0  0  0  0  0  0  0  0  0  0  0
    3.3131    2.6774    1.4176 H   0  0  0  0  0  0  0  0  0  0  0  0
    2.7636    3.8066    0.1721 H   0  0  0  0  0  0  0  0  0  0  0  0
    5.3710    3.2746   -0.2762 H   0  0  0  0  0  0  0  0  0  0  0  0
   -1.2894   -0.1822   -1.8267 H   0  0  0  0  0  0  0  0  0  0  0  0
   -1.5210   -2.1191    2.0200 H   0  0  0  0  0  0  0  0  0  0  0  0
   -3.5387   -0.8176    2.5587 H   0  0  0  0  0  0  0  0  0  0  0  0
   -5.4185    0.8626   -1.5282 H   0  0  0  0  0  0  0  0  0  0  0  0
   -4.9561    2.5330   -1.9117 H   0  0  0  0  0  0  0  0  0  0  0  0
   -4.1805    2.8678    0.4741 H   0  0  0  0  0  0  0  0  0  0  0  0
   -5.9026    2.4466    0.3856 H   0  0  0  0  0  0  0  0  0  0  0  0
  1 11  1  0  0  0  0
  1 14  1  0  0  0  0
  2 10  1  0  0  0  0
  2 15  1  0  0  0  0
  3 13  1  0  0  0  0
  3 33  1  0  0  0  0
  4 20  1  0  0  0  0
  4 23  1  0  0  0  0
  5 21  1  0  0  0  0
  5 24  1  0  0  0  0
  6  7  1  0  0  0  0
  6 12  1  0  0  0  0
  6 16  1  0  0  0  0
  7  9  2  0  0  0  0
  8  9  1  0  0  0  0
  8 16  2  0  0  0  0
 10 11  1  0  0  0  0
 10 12  1  0  0  0  0
 10 25  1  0  0  0  0
 11 13  1  0  0  0  0
 11 26  1  0  0  0  0
 12 14  1  0  0  0  0
 12 27  1  0  0  0  0
 13 15  1  0  0  0  0
 13 28  1  0  0  0  0
 14 29  1  0  0  0  0
 14 30  1  0  0  0  0
 15 31  1  0  0  0  0
 15 32  1  0  0  0  0
 16 17  1  0  0  0  0
 17 18  2  0  0  0  0
 17 19  1  0  0  0  0
 18 20  1  0  0  0  0
 18 34  1  0  0  0  0
 19 22  2  0  0  0  0
 19 35  1  0  0  0  0
 20 21  2  0  0  0  0
 21 22  1  0  0  0  0
 22 36  1  0  0  0  0
 23 24  1  0  0  0  0
 23 37  1  0  0  0  0
 23 38  1  0  0  0  0
 24 39  1  0  0  0  0
 24 40  1  0  0  0  0
M  END
> <PUBCHEM_COMPOUND_CID>
11886052

> <PUBCHEM_CONFORMER_RMSD>
0.8

> <PUBCHEM_CONFORMER_DIVERSEORDER>
1
16
19
17
29
12
21
27
13
5
15
3
28
14
26
23
7
20
30
11
9
18
10
6
2
24
4
22
8
25

> <PUBCHEM_MMFF94_PARTIAL_CHARGES>
27
1 -0.56
10 0.28
11 0.28
12 0.26
13 0.28
14 0.28
15 0.28
16 0.13
17 0.05
18 -0.15
19 -0.15
2 -0.56
20 0.08
21 0.08
22 -0.15
23 0.28
24 0.28
3 -0.68
33 0.4
34 0.15
35 0.15
36 0.15
4 -0.36
5 -0.36
6 0.31
7 -0.42
8 -0.34

> <PUBCHEM_EFFECTIVE_ROTOR_COUNT>
4

> <PUBCHEM_PHARMACOPHORE_FEATURES>
12
1 1 acceptor
1 2 acceptor
1 3 acceptor
1 3 donor
1 4 acceptor
1 5 acceptor
3 6 8 16 cation
5 1 10 11 12 14 rings
5 2 10 11 13 15 rings
5 6 7 8 9 16 rings
6 17 18 19 20 21 22 rings
6 4 5 20 21 23 24 rings

> <PUBCHEM_HEAVY_ATOM_COUNT>
24

> <PUBCHEM_ATOM_DEF_STEREO_COUNT>
4

> <PUBCHEM_ATOM_UDEF_STEREO_COUNT>
0

> <PUBCHEM_BOND_DEF_STEREO_COUNT>
0

> <PUBCHEM_BOND_UDEF_STEREO_COUNT>
0

> <PUBCHEM_ISOTOPIC_ATOM_COUNT>
0

> <PUBCHEM_COMPONENT_COUNT>
1

> <PUBCHEM_CACTVS_TAUTO_COUNT>
1

> <PUBCHEM_CONFORMER_ID>
00B55DE400000001

> <PUBCHEM_MMFF94_ENERGY>
72.6295

> <PUBCHEM_FEATURE_SELFOVERLAP>
61.647

> <PUBCHEM_SHAPE_FINGERPRINT>
10165383 225 18126868189737575667
10498660 4 18343302604000346313
11640471 11 17560795507550918911
11725454 13 17387944540429052527
12173636 292 18054224603215281494
12403259 118 18261663869916783864
12403259 327 17458621160130256131
12422481 6 17969478512603375456
12633257 1 17894898599355279003
12788726 201 17839441625205739359
13134695 92 17978229353117183071
13402501 40 18115020810410099357
13583140 156 17168407312214956115
14251764 38 18119523237680436717
14251764 75 18337964496549360097
14341114 328 16371016259835753292
14957384 54 18335412517386373464
151778 21 18409453604452034068
15342168 16 18412830162154054501
1601671 61 18335422344561787788
17134986 127 18341615936241931630
17834072 32 18410011065357999820
1813 80 17126782920160585902
18219364 16 18339931501486397433
20281475 54 10015587233057621019
21033648 144 18115292462579995157
21033648 29 18269833280135430312
21033650 10 15410621341960788979
21475661 188 17972027051417429749
21524375 3 18337673147447675466
21860390 5 18127127472512812079
21864079 5 18339077202300078572
22907989 373 17838889687505909695
23559900 14 18192998119112072107
238 59 17758069853425318069
26353 1 16909777786290500486
27216 239 18188493604793038147
3459 39 18197761405784859192
350125 39 18197500842381192539
474 4 18340199696672193907
4921388 177 14979957008331915045
5048184 11 18341612663149577085
5081480 168 17840328634720117917
5104073 3 17967810569810361624
633830 44 17917448513410048709
7808743 9 18192998351229943676
7970288 3 8286208248844586336

> <PUBCHEM_SHAPE_MULTIPOLES>
444.64
9.76
3.39
1.28
2.78
1.23
0.16
-9.02
0.16
-1.99
-0.91
0.82
0.16
0.66

> <PUBCHEM_SHAPE_SELFOVERLAP>
989.169

> <PUBCHEM_SHAPE_VOLUME>
238.9

> <PUBCHEM_COORDINATE_TYPE>
2
5
10

$$$$
