45360831
  -OEChem-12032416233D

 47 49  0     1  0  0  0  0  0999 V2000
   -3.6770   -2.6249    1.0196 O   0  0  0  0  0  0  0  0  0  0  0  0
    2.2922    1.0279    1.3496 O   0  0  0  0  0  0  0  0  0  0  0  0
    5.8235   -0.2778    1.0943 O   0  0  0  0  0  0  0  0  0  0  0  0
   -2.7136    1.0697    0.2226 N   0  0  1  0  0  0  0  0  0  0  0  0
   -5.6476   -1.0987    0.0159 N   0  0  0  0  0  0  0  0  0  0  0  0
   -2.0286   -1.6995   -0.2708 N   0  0  0  0  0  0  0  0  0  0  0  0
    3.3480    1.3305   -0.6956 N   0  0  0  0  0  0  0  0  0  0  0  0
   -4.0161    0.6622   -0.3480 C   0  0  1  0  0  0  0  0  0  0  0  0
   -4.3018   -0.8536   -0.5227 C   0  0  1  0  0  0  0  0  0  0  0  0
   -5.2309    1.1214    0.4793 C   0  0  0  0  0  0  0  0  0  0  0  0
   -1.5337    0.7043   -0.6094 C   0  0  2  0  0  0  0  0  0  0  0  0
   -6.3334    0.1842    0.0389 C   0  0  0  0  0  0  0  0  0  0  0  0
   -1.5852   -0.7058   -1.2283 C   0  0  0  0  0  0  0  0  0  0  0  0
   -3.3340   -1.8044    0.1695 C   0  0  0  0  0  0  0  0  0  0  0  0
   -0.2392    0.8002    0.2245 C   0  0  0  0  0  0  0  0  0  0  0  0
   -2.7008    2.5128    0.5176 C   0  0  0  0  0  0  0  0  0  0  0  0
    0.9627    1.0269   -0.6738 C   0  0  0  0  0  0  0  0  0  0  0  0
    2.2495    1.1232    0.1259 C   0  0  0  0  0  0  0  0  0  0  0  0
    4.6880    1.4578   -0.1735 C   0  0  0  0  0  0  0  0  0  0  0  0
    5.4014    0.1375   -0.1290 C   0  0  0  0  0  0  0  0  0  0  0  0
    5.7360   -0.7840   -1.0941 C   0  0  0  0  0  0  0  0  0  0  0  0
    6.4065   -1.8327   -0.4205 C   0  0  0  0  0  0  0  0  0  0  0  0
    6.4340   -1.4773    0.9082 C   0  0  0  0  0  0  0  0  0  0  0  0
   -4.1190    1.1274   -1.3406 H   0  0  0  0  0  0  0  0  0  0  0  0
   -4.3200   -1.1116   -1.5886 H   0  0  0  0  0  0  0  0  0  0  0  0
   -5.0441    1.0010    1.5548 H   0  0  0  0  0  0  0  0  0  0  0  0
   -5.4960    2.1664    0.2883 H   0  0  0  0  0  0  0  0  0  0  0  0
   -1.4722    1.4143   -1.4463 H   0  0  0  0  0  0  0  0  0  0  0  0
   -6.7020    0.4396   -0.9609 H   0  0  0  0  0  0  0  0  0  0  0  0
   -7.1802    0.1830    0.7310 H   0  0  0  0  0  0  0  0  0  0  0  0
   -5.5683   -1.4297    0.9787 H   0  0  0  0  0  0  0  0  0  0  0  0
   -0.6137   -1.0400   -1.6021 H   0  0  0  0  0  0  0  0  0  0  0  0
   -2.2576   -0.7170   -2.0925 H   0  0  0  0  0  0  0  0  0  0  0  0
   -0.2596    1.6146    0.9530 H   0  0  0  0  0  0  0  0  0  0  0  0
   -0.1003   -0.1074    0.8270 H   0  0  0  0  0  0  0  0  0  0  0  0
   -1.3351   -2.3207    0.1346 H   0  0  0  0  0  0  0  0  0  0  0  0
   -2.9037    3.1056   -0.3822 H   0  0  0  0  0  0  0  0  0  0  0  0
   -3.4504    2.7678    1.2738 H   0  0  0  0  0  0  0  0  0  0  0  0
   -1.7600    2.8701    0.9403 H   0  0  0  0  0  0  0  0  0  0  0  0
    1.0882    0.2164   -1.3985 H   0  0  0  0  0  0  0  0  0  0  0  0
    0.8445    1.9628   -1.2335 H   0  0  0  0  0  0  0  0  0  0  0  0
    3.2189    1.3795   -1.7022 H   0  0  0  0  0  0  0  0  0  0  0  0
    4.6500    1.9070    0.8249 H   0  0  0  0  0  0  0  0  0  0  0  0
    5.2315    2.1425   -0.8328 H   0  0  0  0  0  0  0  0  0  0  0  0
    5.5241   -0.7111   -2.1512 H   0  0  0  0  0  0  0  0  0  0  0  0
    6.8181   -2.7347   -0.8496 H   0  0  0  0  0  0  0  0  0  0  0  0
    6.8290   -1.9439    1.7988 H   0  0  0  0  0  0  0  0  0  0  0  0
  1 14  2  0  0  0  0
  2 18  2  0  0  0  0
  3 20  1  0  0  0  0
  3 23  1  0  0  0  0
  4  8  1  0  0  0  0
  4 11  1  0  0  0  0
  4 16  1  0  0  0  0
  5  9  1  0  0  0  0
  5 12  1  0  0  0  0
  5 31  1  0  0  0  0
  6 13  1  0  0  0  0
  6 14  1  0  0  0  0
  6 36  1  0  0  0  0
  7 18  1  0  0  0  0
  7 19  1  0  0  0  0
  7 42  1  0  0  0  0
  8  9  1  0  0  0  0
  8 10  1  0  0  0  0
  8 24  1  0  0  0  0
  9 14  1  0  0  0  0
  9 25  1  0  0  0  0
 10 12  1  0  0  0  0
 10 26  1  0  0  0  0
 10 27  1  0  0  0  0
 11 13  1  0  0  0  0
 11 15  1  0  0  0  0
 11 28  1  0  0  0  0
 12 29  1  0  0  0  0
 12 30  1  0  0  0  0
 13 32  1  0  0  0  0
 13 33  1  0  0  0  0
 15 17  1  0  0  0  0
 15 34  1  0  0  0  0
 15 35  1  0  0  0  0
 16 37  1  0  0  0  0
 16 38  1  0  0  0  0
 16 39  1  0  0  0  0
 17 18  1  0  0  0  0
 17 40  1  0  0  0  0
 17 41  1  0  0  0  0
 19 20  1  0  0  0  0
 19 43  1  0  0  0  0
 19 44  1  0  0  0  0
 20 21  2  0  0  0  0
 21 22  1  0  0  0  0
 21 45  1  0  0  0  0
 22 23  2  0  0  0  0
 22 46  1  0  0  0  0
 23 47  1  0  0  0  0
M  END
> <PUBCHEM_COMPOUND_CID>
45360831

> <PUBCHEM_CONFORMER_RMSD>
1

> <PUBCHEM_CONFORMER_DIVERSEORDER>
1
41
93
147
70
22
196
14
58
52
36
183
145
56
71
146
195
148
19
76
169
152
43
34
114
81
115
90
85
136
4
39
30
24
31
12
193
64
168
139
185
155
75
142
98
3
61
101
137
99
141
66
161
54
72
51
171
23
144
121
166
26
163
2
197
125
153
55
10
9
150
65
112
178
181
165
35
50
176
15
129
103
44
159
45
172
7
94
134
199
29
188
100
86
11
69
118
6
131
122
187
84
88
49
186
102
80
140
87
79
20
89
111
106
182
53
110
177
5
82
132
33
92
63
62
91
13
105
149
180
189
83
151
157
27
119
164
25
116
154
156
32
138
47
191
17
124
28
123
174
128
170
135
173
126
8
160
194
113
42
37
78
108
184
130
109
40
127
74
95
175
120
167
18
179
162
46
198
117
68
77
67
16
104
73
190
133
192
96
60
48
59
143
38
21
107
97
158
57

> <PUBCHEM_MMFF94_PARTIAL_CHARGES>
27
1 -0.57
11 0.27
12 0.27
13 0.3
14 0.57
16 0.27
17 0.06
18 0.57
19 0.48
2 -0.57
20 -0.04
21 -0.15
22 -0.15
23 -0.01
3 -0.28
31 0.36
36 0.37
4 -0.81
42 0.37
45 0.15
46 0.15
47 0.15
5 -0.9
6 -0.73
7 -0.73
8 0.27
9 0.33

> <PUBCHEM_EFFECTIVE_ROTOR_COUNT>
7.4

> <PUBCHEM_PHARMACOPHORE_FEATURES>
11
1 1 acceptor
1 2 acceptor
1 3 acceptor
1 4 cation
1 5 cation
1 5 donor
1 6 donor
1 7 donor
5 3 20 21 22 23 rings
5 5 8 9 10 12 rings
7 4 6 8 9 11 13 14 rings

> <PUBCHEM_HEAVY_ATOM_COUNT>
23

> <PUBCHEM_ATOM_DEF_STEREO_COUNT>
3

> <PUBCHEM_ATOM_UDEF_STEREO_COUNT>
0

> <PUBCHEM_BOND_DEF_STEREO_COUNT>
0

> <PUBCHEM_BOND_UDEF_STEREO_COUNT>
0

> <PUBCHEM_ISOTOPIC_ATOM_COUNT>
0

> <PUBCHEM_COMPONENT_COUNT>
1

> <PUBCHEM_CACTVS_TAUTO_COUNT>
6

> <PUBCHEM_CONFORMER_ID>
02B426BF00000001

> <PUBCHEM_MMFF94_ENERGY>
43.4588

> <PUBCHEM_FEATURE_SELFOVERLAP>
55.858

> <PUBCHEM_SHAPE_FINGERPRINT>
10299344 5 18261115158428775486
10319926 262 18272645753463777281
10591671 39 11314316026780002888
11524674 6 17632576054670977023
11796584 16 18412829109908484310
12166972 35 18113623395387192980
12236239 1 18186803599476321381
12596602 18 13973959909391768798
12633257 1 16630247021305497300
13167823 11 18409165528627274780
13533116 47 18413387657694468064
13914758 101 16271933684063343699
14251752 14 18187922846378426981
14251764 18 18342455954968050140
14341114 176 18409169939042093380
14347332 77 18040989593084527428
14420673 8 18408888412488871342
14528608 73 8358254852693277228
14840074 17 15791731905700664362
15183329 4 18335141981849776994
15348495 7 17632286926162387810
15419008 42 17840584799745074244
15537594 2 17022613187026244371
15799311 1 18188220818583055866
17844677 252 18410578383794743280
17857418 61 18410011031420027254
1979834 28 17131836435411783518
20567600 234 12823289118146012410
22061861 79 14923940120770098362
23035841 295 18259984872869810649
23402539 116 18201716276079447437
23522609 53 17971786335707317012
23559900 14 18339636858166941633
25122255 55 18341903982639937406
3004659 81 18410016533684707332
4073 2 18042690679596475880
5104073 3 18272375316511098896
531348 171 17604139307958171573
543368 44 9871742490376691869
559249 180 18410853218202849141
59755656 215 18409446947125942975
59755656 520 17385723608450384427
9965369 4 18412263917580948049

> <PUBCHEM_SHAPE_MULTIPOLES>
435.8
18.39
2.25
1.01
16.69
0.45
-0.03
6.38
-1.49
-0.79
-0.37
0.65
0.12
-0.12

> <PUBCHEM_SHAPE_SELFOVERLAP>
907.553

> <PUBCHEM_SHAPE_VOLUME>
247.4

> <PUBCHEM_COORDINATE_TYPE>
2
5
10

$$$$
