45784358
  -OEChem-12032416203D

 48 51  0     1  0  0  0  0  0999 V2000
    1.8039   -0.2730    0.1968 O   0  0  0  0  0  0  0  0  0  0  0  0
    5.0075    2.6235   -0.2734 O   0  0  0  0  0  0  0  0  0  0  0  0
    2.7351    2.3820    0.0037 O   0  0  0  0  0  0  0  0  0  0  0  0
   -2.2199   -0.5106   -0.0330 N   0  0  1  0  0  0  0  0  0  0  0  0
    2.1541   -2.5122    0.2244 N   0  0  0  0  0  0  0  0  0  0  0  0
   -0.2134   -1.6105    0.4804 C   0  0  1  0  0  0  0  0  0  0  0  0
   -0.7507   -0.9061    1.7384 C   0  0  0  0  0  0  0  0  0  0  0  0
   -0.9933   -0.9798   -0.6810 C   0  0  0  0  0  0  0  0  0  0  0  0
   -1.7752    0.0958    1.2218 C   0  0  0  0  0  0  0  0  0  0  0  0
   -2.9659    0.4217   -0.8652 C   0  0  0  0  0  0  0  0  0  0  0  0
    1.2845   -1.5285    0.2976 C   0  0  0  0  0  0  0  0  0  0  0  0
   -4.3952    0.5580   -0.4118 C   0  0  0  0  0  0  0  0  0  0  0  0
    3.1431   -0.4915    0.0439 C   0  0  0  0  0  0  0  0  0  0  0  0
    3.3535   -1.8625    0.0613 C   0  0  0  0  0  0  0  0  0  0  0  0
   -5.3344   -0.4346   -0.6910 C   0  0  0  0  0  0  0  0  0  0  0  0
   -4.7748    1.6977    0.2970 C   0  0  0  0  0  0  0  0  0  0  0  0
    4.1435    0.4613   -0.1048 C   0  0  0  0  0  0  0  0  0  0  0  0
    4.6609   -2.3492   -0.0794 C   0  0  0  0  0  0  0  0  0  0  0  0
   -6.6532   -0.2876   -0.2613 C   0  0  0  0  0  0  0  0  0  0  0  0
   -4.9518   -1.6636   -1.4482 C   0  0  0  0  0  0  0  0  0  0  0  0
   -6.0937    1.8450    0.7268 C   0  0  0  0  0  0  0  0  0  0  0  0
   -7.0328    0.8522    0.4477 C   0  0  0  0  0  0  0  0  0  0  0  0
    5.4421   -0.0410   -0.2438 C   0  0  0  0  0  0  0  0  0  0  0  0
    5.6981   -1.4176   -0.2318 C   0  0  0  0  0  0  0  0  0  0  0  0
    3.8654    1.8833   -0.1153 C   0  0  0  0  0  0  0  0  0  0  0  0
    4.8625    4.0476   -0.2995 C   0  0  0  0  0  0  0  0  0  0  0  0
   -0.4790   -2.6745    0.5507 H   0  0  0  0  0  0  0  0  0  0  0  0
   -1.2409   -1.6443    2.3854 H   0  0  0  0  0  0  0  0  0  0  0  0
    0.0280   -0.4126    2.3295 H   0  0  0  0  0  0  0  0  0  0  0  0
   -0.4396   -0.1487   -1.1375 H   0  0  0  0  0  0  0  0  0  0  0  0
   -1.2060   -1.7180   -1.4621 H   0  0  0  0  0  0  0  0  0  0  0  0
   -1.2895    1.0668    1.0597 H   0  0  0  0  0  0  0  0  0  0  0  0
   -2.5911    0.2271    1.9394 H   0  0  0  0  0  0  0  0  0  0  0  0
   -2.4779    1.4058   -0.9053 H   0  0  0  0  0  0  0  0  0  0  0  0
   -2.9722    0.0837   -1.9098 H   0  0  0  0  0  0  0  0  0  0  0  0
   -4.0540    2.4790    0.5237 H   0  0  0  0  0  0  0  0  0  0  0  0
    4.8710   -3.4136   -0.0715 H   0  0  0  0  0  0  0  0  0  0  0  0
   -7.3980   -1.0511   -0.4698 H   0  0  0  0  0  0  0  0  0  0  0  0
   -5.8108   -2.3294   -1.5905 H   0  0  0  0  0  0  0  0  0  0  0  0
   -4.1940   -2.2394   -0.9086 H   0  0  0  0  0  0  0  0  0  0  0  0
   -4.5832   -1.4101   -2.4471 H   0  0  0  0  0  0  0  0  0  0  0  0
   -6.3891    2.7322    1.2792 H   0  0  0  0  0  0  0  0  0  0  0  0
   -8.0596    0.9668    0.7826 H   0  0  0  0  0  0  0  0  0  0  0  0
    6.2959    0.6217   -0.3659 H   0  0  0  0  0  0  0  0  0  0  0  0
    6.7199   -1.7724   -0.3425 H   0  0  0  0  0  0  0  0  0  0  0  0
    4.2291    4.3462   -1.1400 H   0  0  0  0  0  0  0  0  0  0  0  0
    4.4412    4.4006    0.6464 H   0  0  0  0  0  0  0  0  0  0  0  0
    5.8540    4.4887   -0.4307 H   0  0  0  0  0  0  0  0  0  0  0  0
  1 11  1  0  0  0  0
  1 13  1  0  0  0  0
  2 25  1  0  0  0  0
  2 26  1  0  0  0  0
  3 25  2  0  0  0  0
  4  8  1  0  0  0  0
  4  9  1  0  0  0  0
  4 10  1  0  0  0  0
  5 11  2  0  0  0  0
  5 14  1  0  0  0  0
  6  7  1  0  0  0  0
  6  8  1  0  0  0  0
  6 11  1  0  0  0  0
  6 27  1  0  0  0  0
  7  9  1  0  0  0  0
  7 28  1  0  0  0  0
  7 29  1  0  0  0  0
  8 30  1  0  0  0  0
  8 31  1  0  0  0  0
  9 32  1  0  0  0  0
  9 33  1  0  0  0  0
 10 12  1  0  0  0  0
 10 34  1  0  0  0  0
 10 35  1  0  0  0  0
 12 15  1  0  0  0  0
 12 16  2  0  0  0  0
 13 14  1  0  0  0  0
 13 17  2  0  0  0  0
 14 18  2  0  0  0  0
 15 19  2  0  0  0  0
 15 20  1  0  0  0  0
 16 21  1  0  0  0  0
 16 36  1  0  0  0  0
 17 23  1  0  0  0  0
 17 25  1  0  0  0  0
 18 24  1  0  0  0  0
 18 37  1  0  0  0  0
 19 22  1  0  0  0  0
 19 38  1  0  0  0  0
 20 39  1  0  0  0  0
 20 40  1  0  0  0  0
 20 41  1  0  0  0  0
 21 22  2  0  0  0  0
 21 42  1  0  0  0  0
 22 43  1  0  0  0  0
 23 24  2  0  0  0  0
 23 44  1  0  0  0  0
 24 45  1  0  0  0  0
 26 46  1  0  0  0  0
 26 47  1  0  0  0  0
 26 48  1  0  0  0  0
M  END
> <PUBCHEM_COMPOUND_CID>
45784358

> <PUBCHEM_CONFORMER_RMSD>
0.8

> <PUBCHEM_CONFORMER_DIVERSEORDER>
1
183
130
49
127
63
186
84
197
221
246
108
228
119
252
56
10
226
232
101
242
243
86
216
204
43
198
194
50
193
61
163
104
164
248
230
171
80
187
42
14
251
236
200
144
111
214
253
12
68
227
158
231
219
60
92
121
202
237
133
215
190
35
13
129
195
67
3
115
153
173
189
24
182
147
192
123
102
208
72
185
66
135
48
58
88
139
174
152
140
239
234
201
47
77
238
191
156
247
137
109
120
225
224
98
150
33
52
94
205
168
126
235
7
103
18
159
134
11
51
44
65
32
249
206
244
69
138
184
36
175
170
96
250
8
116
209
176
83
188
91
207
181
70
220
4
38
149
21
229
74
178
131
113
79
105
25
2
27
196
151
99
128
114
233
157
5
210
145
62
107
211
179
64
81
90
40
59
223
136
20
132
15
154
143
45
160
26
166
37
162
76
41
203
85
167
93
28
23
141
180
218
29
73
71
165
241
172
146
148
199
82
54
125
124
122
161
213
118
31
142
89
177
46
78
16
22
100
222
19
106
17
169
95
6
112
34
53
212
87
97
117
57
217
9
110
245
30
55
240
39
155
75

> <PUBCHEM_MMFF94_PARTIAL_CHARGES>
32
1 -0.28
10 0.41
11 0.3
12 -0.14
13 0.14
14 0.23
15 -0.14
16 -0.15
17 0.09
18 -0.15
19 -0.15
2 -0.43
20 0.14
21 -0.15
22 -0.15
23 -0.15
24 -0.15
25 0.63
26 0.28
3 -0.57
36 0.15
37 0.15
38 0.15
4 -0.81
42 0.15
43 0.15
44 0.15
45 0.15
5 -0.57
6 0.18
8 0.27
9 0.27

> <PUBCHEM_EFFECTIVE_ROTOR_COUNT>
6

> <PUBCHEM_PHARMACOPHORE_FEATURES>
6
1 3 acceptor
1 4 cation
5 1 5 11 13 14 rings
5 4 6 7 8 9 rings
6 12 15 16 19 21 22 rings
6 13 14 17 18 23 24 rings

> <PUBCHEM_HEAVY_ATOM_COUNT>
26

> <PUBCHEM_ATOM_DEF_STEREO_COUNT>
1

> <PUBCHEM_ATOM_UDEF_STEREO_COUNT>
0

> <PUBCHEM_BOND_DEF_STEREO_COUNT>
0

> <PUBCHEM_BOND_UDEF_STEREO_COUNT>
0

> <PUBCHEM_ISOTOPIC_ATOM_COUNT>
0

> <PUBCHEM_COMPONENT_COUNT>
1

> <PUBCHEM_CACTVS_TAUTO_COUNT>
1

> <PUBCHEM_CONFORMER_ID>
02BA9D2600000001

> <PUBCHEM_MMFF94_ENERGY>
62.8433

> <PUBCHEM_FEATURE_SELFOVERLAP>
30.566

> <PUBCHEM_SHAPE_FINGERPRINT>
10 15 14634880755516282574
10299344 5 18130786751217952671
10411042 1 18049441436563766226
10595046 47 18341890831544866783
10638233 991 18412544306247599821
10673678 19 18271811245486400908
11089746 13 18333449829133529090
11456790 92 17969223348079167432
11796584 16 13614229391412743215
12166972 35 18272648996570105338
12236239 1 18060134310674013879
12403259 415 17749382638145634653
12516196 113 8358250445656359719
12616971 3 18342731897657735535
12730499 353 18113623347952440650
12788726 201 17346608447726838697
12821665 9 18267865163459641703
13167372 99 18342459184203194985
13533116 47 18341895203558219492
13540713 4 18117015462358667474
13782708 43 16879347796901237570
14464042 87 18060141994365349184
14528608 73 18411136943816392887
14681490 219 18410854339153104665
14790565 3 18412265004635032703
14849402 71 18335143098573325468
14856354 85 17489869341738978607
14933364 13 18410577254207132359
15003188 100 18334016103217187350
15183329 4 18343584023274181853
15320295 44 18272930565898985615
15840311 113 18408608033546427709
17844677 252 18340210687540944693
18335252 114 18339916005392430925
19427546 62 18409450314818730858
19489759 90 11458433414723191535
20157964 124 18411138043623289730
20554085 129 15936401239801073297
21033648 144 18187356670936117791
21033648 29 17385726927858509200
21033650 10 15338303197794954946
21298829 104 18341331184495662248
21641784 216 16415208840749725889
22122407 14 18340502062375686033
221357 26 18336263444955124252
23522609 53 17845673511868757529
23536379 177 18271805675341430203
23559900 14 18410570669695824482
23569914 152 11091990227875171425
23569914 2 17392146933805718069
2747138 104 17458357338339641033
2838139 119 18333728013795792037
29717793 49 17775007856280069710
3004659 81 18059855030684119274
335352 9 18409171005180303222
34797466 226 18201445766101171175
397830 11 17968672626287650987
4073 2 18187088390014959963
4093350 32 17561084709754193620
4325135 7 18341611495641211023
44317340 157 18202002148558921497
44555599 121 18271815566809687337
5104073 3 18040996275631628010
513532 50 18271257083758969068
53794403 172 18114752658485309644
54446538 1 18412543172281229585
58902169 19 18201715133127296238
59755656 520 17603869983713486779

> <PUBCHEM_SHAPE_MULTIPOLES>
507.5
18.22
3.14
1.01
14.76
2.76
-0.14
6.16
2.07
-5.75
0.23
0.99
-0.22
-1.43

> <PUBCHEM_SHAPE_SELFOVERLAP>
1108.934

> <PUBCHEM_SHAPE_VOLUME>
278.4

> <PUBCHEM_COORDINATE_TYPE>
2
5
10

$$$$
