45783297
  -OEChem-12032416273D

 53 57  0     1  0  0  0  0  0999 V2000
   -2.6057    2.3614    0.0673 O   0  0  0  0  0  0  0  0  0  0  0  0
    5.5011   -2.4363    0.9889 O   0  0  0  0  0  0  0  0  0  0  0  0
   -3.5156   -1.0820    0.9732 N   0  0  1  0  0  0  0  0  0  0  0  0
   -1.1702    0.7266    0.5996 N   0  0  0  0  0  0  0  0  0  0  0  0
    3.7951   -0.2720    0.4368 N   0  0  0  0  0  0  0  0  0  0  0  0
   -1.3339    2.8293   -0.2867 N   0  0  0  0  0  0  0  0  0  0  0  0
   -0.3900   -1.8765   -1.8825 N   0  0  0  0  0  0  0  0  0  0  0  0
    3.6521    1.9031   -0.4850 N   0  0  0  0  0  0  0  0  0  0  0  0
   -3.6616    0.3856    1.0445 C   0  0  1  0  0  0  0  0  0  0  0  0
   -4.0065    0.6733    2.5173 C   0  0  0  0  0  0  0  0  0  0  0  0
   -4.0925   -0.6941    3.1801 C   0  0  0  0  0  0  0  0  0  0  0  0
   -4.3704   -1.6339    2.0244 C   0  0  0  0  0  0  0  0  0  0  0  0
   -3.8378   -1.6283   -0.3388 C   0  0  0  0  0  0  0  0  0  0  0  0
   -2.4194    1.1174    0.5813 C   0  0  0  0  0  0  0  0  0  0  0  0
   -2.7016   -1.4572   -1.3118 C   0  0  0  0  0  0  0  0  0  0  0  0
   -0.5417    1.8097    0.0575 C   0  0  0  0  0  0  0  0  0  0  0  0
    3.5512   -1.5825   -0.1756 C   0  0  0  0  0  0  0  0  0  0  0  0
    5.1764   -0.0351    0.8785 C   0  0  0  0  0  0  0  0  0  0  0  0
   -2.8745   -0.7527   -2.4980 C   0  0  0  0  0  0  0  0  0  0  0  0
   -1.4510   -1.9948   -1.0531 C   0  0  0  0  0  0  0  0  0  0  0  0
    0.8806    1.8417   -0.1254 C   0  0  0  0  0  0  0  0  0  0  0  0
    3.0266    0.8315    0.0520 C   0  0  0  0  0  0  0  0  0  0  0  0
    4.1221   -2.6812    0.7143 C   0  0  0  0  0  0  0  0  0  0  0  0
    5.6599   -1.2161    1.7125 C   0  0  0  0  0  0  0  0  0  0  0  0
    1.6577    0.7517    0.2509 C   0  0  0  0  0  0  0  0  0  0  0  0
   -1.8065   -0.6094   -3.3769 C   0  0  0  0  0  0  0  0  0  0  0  0
    1.4878    2.9625   -0.6812 C   0  0  0  0  0  0  0  0  0  0  0  0
    2.8642    2.9434   -0.8384 C   0  0  0  0  0  0  0  0  0  0  0  0
   -0.5960   -1.1849   -3.0258 C   0  0  0  0  0  0  0  0  0  0  0  0
   -4.5105    0.7224    0.4329 H   0  0  0  0  0  0  0  0  0  0  0  0
   -3.2737    1.3077    3.0278 H   0  0  0  0  0  0  0  0  0  0  0  0
   -4.9819    1.1715    2.5768 H   0  0  0  0  0  0  0  0  0  0  0  0
   -4.8696   -0.7331    3.9491 H   0  0  0  0  0  0  0  0  0  0  0  0
   -3.1331   -0.9407    3.6517 H   0  0  0  0  0  0  0  0  0  0  0  0
   -5.4319   -1.5944    1.7486 H   0  0  0  0  0  0  0  0  0  0  0  0
   -4.1047   -2.6661    2.2727 H   0  0  0  0  0  0  0  0  0  0  0  0
   -4.7720   -1.2104   -0.7363 H   0  0  0  0  0  0  0  0  0  0  0  0
   -4.0086   -2.7112   -0.2603 H   0  0  0  0  0  0  0  0  0  0  0  0
    2.4848   -1.7749   -0.3343 H   0  0  0  0  0  0  0  0  0  0  0  0
    4.0440   -1.6051   -1.1554 H   0  0  0  0  0  0  0  0  0  0  0  0
    5.8165    0.0834   -0.0044 H   0  0  0  0  0  0  0  0  0  0  0  0
    5.2475    0.8772    1.4826 H   0  0  0  0  0  0  0  0  0  0  0  0
   -3.8341   -0.3091   -2.7479 H   0  0  0  0  0  0  0  0  0  0  0  0
   -1.2523   -2.5584   -0.1466 H   0  0  0  0  0  0  0  0  0  0  0  0
    4.0470   -3.6484    0.2073 H   0  0  0  0  0  0  0  0  0  0  0  0
    3.5698   -2.7574    1.6588 H   0  0  0  0  0  0  0  0  0  0  0  0
    5.1167   -1.2831    2.6630 H   0  0  0  0  0  0  0  0  0  0  0  0
    6.7228   -1.0985    1.9456 H   0  0  0  0  0  0  0  0  0  0  0  0
    1.2124   -0.1303    0.7019 H   0  0  0  0  0  0  0  0  0  0  0  0
   -1.9176   -0.0631   -4.3064 H   0  0  0  0  0  0  0  0  0  0  0  0
    0.9334    3.8413   -0.9936 H   0  0  0  0  0  0  0  0  0  0  0  0
    3.3865    3.7924   -1.2671 H   0  0  0  0  0  0  0  0  0  0  0  0
    0.2686   -1.1004   -3.6759 H   0  0  0  0  0  0  0  0  0  0  0  0
  1  6  1  0  0  0  0
  1 14  1  0  0  0  0
  2 23  1  0  0  0  0
  2 24  1  0  0  0  0
  3  9  1  0  0  0  0
  3 12  1  0  0  0  0
  3 13  1  0  0  0  0
  4 14  2  0  0  0  0
  4 16  1  0  0  0  0
  5 17  1  0  0  0  0
  5 18  1  0  0  0  0
  5 22  1  0  0  0  0
  6 16  2  0  0  0  0
  7 20  1  0  0  0  0
  7 29  2  0  0  0  0
  8 22  2  0  0  0  0
  8 28  1  0  0  0  0
  9 10  1  0  0  0  0
  9 14  1  0  0  0  0
  9 30  1  0  0  0  0
 10 11  1  0  0  0  0
 10 31  1  0  0  0  0
 10 32  1  0  0  0  0
 11 12  1  0  0  0  0
 11 33  1  0  0  0  0
 11 34  1  0  0  0  0
 12 35  1  0  0  0  0
 12 36  1  0  0  0  0
 13 15  1  0  0  0  0
 13 37  1  0  0  0  0
 13 38  1  0  0  0  0
 15 19  1  0  0  0  0
 15 20  2  0  0  0  0
 16 21  1  0  0  0  0
 17 23  1  0  0  0  0
 17 39  1  0  0  0  0
 17 40  1  0  0  0  0
 18 24  1  0  0  0  0
 18 41  1  0  0  0  0
 18 42  1  0  0  0  0
 19 26  2  0  0  0  0
 19 43  1  0  0  0  0
 20 44  1  0  0  0  0
 21 25  2  0  0  0  0
 21 27  1  0  0  0  0
 22 25  1  0  0  0  0
 23 45  1  0  0  0  0
 23 46  1  0  0  0  0
 24 47  1  0  0  0  0
 24 48  1  0  0  0  0
 25 49  1  0  0  0  0
 26 29  1  0  0  0  0
 26 50  1  0  0  0  0
 27 28  2  0  0  0  0
 27 51  1  0  0  0  0
 28 52  1  0  0  0  0
 29 53  1  0  0  0  0
M  END
> <PUBCHEM_COMPOUND_CID>
45783297

> <PUBCHEM_CONFORMER_RMSD>
1

> <PUBCHEM_CONFORMER_DIVERSEORDER>
1
24
64
107
126
75
117
144
88
134
31
83
104
8
81
85
108
116
70
74
143
34
11
120
62
6
2
71
124
123
95
20
35
92
56
141
33
80
16
84
30
72
66
21
60
110
112
103
46
139
140
102
51
115
146
7
53
40
55
145
44
129
4
100
38
28
125
130
45
138
132
142
5
3
42
99
37
54
114
133
13
131
48
91
23
41
43
76
65
105
106
118
96
68
29
98
78
94
26
97
58
15
47
87
59
137
128
39
14
77
136
109
69
9
32
67
82
89
61
90
111
18
12
27
122
36
50
52
19
135
101
10
113
57
73
79
86
49
63
93
25
119
121
22
127
17

> <PUBCHEM_MMFF94_PARTIAL_CHARGES>
34
1 -0.02
12 0.27
13 0.41
14 0.3
15 -0.14
16 0.46
17 0.37
18 0.37
19 -0.15
2 -0.56
20 0.16
21 0.05
22 0.41
23 0.28
24 0.28
25 -0.15
26 -0.15
27 -0.15
28 0.16
29 0.16
3 -0.81
4 -0.57
43 0.15
44 0.15
49 0.15
5 -0.84
50 0.15
51 0.15
52 0.15
53 0.15
6 -0.41
7 -0.62
8 -0.62
9 0.45

> <PUBCHEM_EFFECTIVE_ROTOR_COUNT>
7.2

> <PUBCHEM_PHARMACOPHORE_FEATURES>
10
1 2 acceptor
1 3 cation
1 7 acceptor
3 4 6 16 cation
3 5 8 22 cation
5 1 4 6 14 16 rings
5 3 9 10 11 12 rings
6 2 5 17 18 23 24 rings
6 7 15 19 20 26 29 rings
6 8 21 22 25 27 28 rings

> <PUBCHEM_HEAVY_ATOM_COUNT>
29

> <PUBCHEM_ATOM_DEF_STEREO_COUNT>
1

> <PUBCHEM_ATOM_UDEF_STEREO_COUNT>
0

> <PUBCHEM_BOND_DEF_STEREO_COUNT>
0

> <PUBCHEM_BOND_UDEF_STEREO_COUNT>
0

> <PUBCHEM_ISOTOPIC_ATOM_COUNT>
0

> <PUBCHEM_COMPONENT_COUNT>
1

> <PUBCHEM_CACTVS_TAUTO_COUNT>
1

> <PUBCHEM_CONFORMER_ID>
02BA990100000001

> <PUBCHEM_MMFF94_ENERGY>
74.0996

> <PUBCHEM_FEATURE_SELFOVERLAP>
50.749

> <PUBCHEM_SHAPE_FINGERPRINT>
10369192 42 16881619676283046604
10764073 3 18043544824138052501
11135926 11 18116715308664021412
11552529 35 16342552094452664142
11582403 64 13901351356869916513
11607047 141 15360271509660342281
12422481 6 18059306348232175663
12553582 1 18410292506660521230
12655387 17 18043839545126052033
12788726 201 16699769231824125501
13004483 165 15623669505333428509
14910302 57 16443336611213864137
15419009 47 13843038736743553146
15475509 8 15719665555305724555
15537594 2 18341621412662454228
17809404 112 17681794610282602034
19319366 153 17617959357560953001
20554085 129 16414927331787537163
212916 134 16271386148636706281
21315759 227 17749105587011911690
21796203 349 18267611103185484888
484985 159 18261938670815607119
581034 39 17131826603931196566
7064713 232 17417820516942996707
9862522 239 17775011150577773861

> <PUBCHEM_SHAPE_MULTIPOLES>
555.18
10.91
3.32
2.89
10.19
1.24
-0.81
-5.62
8.09
2.29
-0.59
-3.96
-1.53
-2.15

> <PUBCHEM_SHAPE_SELFOVERLAP>
1207.069

> <PUBCHEM_SHAPE_VOLUME>
301.9

> <PUBCHEM_COORDINATE_TYPE>
2
5
10

$$$$
