45783407
  -OEChem-12032416273D

 52 55  0     1  0  0  0  0  0999 V2000
   -0.8127    2.8631    1.1250 O   0  0  0  0  0  0  0  0  0  0  0  0
   -1.9114   -1.4042   -0.3217 O   0  0  0  0  0  0  0  0  0  0  0  0
   -0.0543   -2.2692   -2.2285 O   0  0  0  0  0  0  0  0  0  0  0  0
    2.0463    1.5011   -0.3981 N   0  0  1  0  0  0  0  0  0  0  0  0
   -1.0763    1.1626   -0.3088 N   0  0  0  0  0  0  0  0  0  0  0  0
   -2.0476    2.2797    1.4355 N   0  0  0  0  0  0  0  0  0  0  0  0
   -4.1658   -1.7879   -0.0095 N   0  0  0  0  0  0  0  0  0  0  0  0
    1.0421    2.5826   -0.4418 C   0  0  1  0  0  0  0  0  0  0  0  0
    0.9910    3.0095   -1.9205 C   0  0  0  0  0  0  0  0  0  0  0  0
    2.0419    2.1569   -2.6170 C   0  0  0  0  0  0  0  0  0  0  0  0
    2.9794    1.7588   -1.4950 C   0  0  0  0  0  0  0  0  0  0  0  0
    2.7255    1.3994    0.8872 C   0  0  0  0  0  0  0  0  0  0  0  0
   -0.3078    2.1456    0.0875 C   0  0  0  0  0  0  0  0  0  0  0  0
    3.3530    0.0451    1.0841 C   0  0  0  0  0  0  0  0  0  0  0  0
    2.6231   -0.9814    1.6835 C   0  0  0  0  0  0  0  0  0  0  0  0
    4.6643   -0.1831    0.6674 C   0  0  0  0  0  0  0  0  0  0  0  0
   -2.1316    1.2846    0.5475 C   0  0  0  0  0  0  0  0  0  0  0  0
   -3.2561    0.3960    0.4885 C   0  0  0  0  0  0  0  0  0  0  0  0
    3.2046   -2.2362    1.8661 C   0  0  0  0  0  0  0  0  0  0  0  0
    5.2459   -1.4376    0.8499 C   0  0  0  0  0  0  0  0  0  0  0  0
    4.5161   -2.4642    1.4494 C   0  0  0  0  0  0  0  0  0  0  0  0
   -3.1345   -0.9166    0.0617 C   0  0  0  0  0  0  0  0  0  0  0  0
   -4.5172    0.8433    0.8667 C   0  0  0  0  0  0  0  0  0  0  0  0
   -5.6028   -0.0235    0.8073 C   0  0  0  0  0  0  0  0  0  0  0  0
   -5.3763   -1.3174    0.3662 C   0  0  0  0  0  0  0  0  0  0  0  0
   -1.8694   -2.7607   -0.7468 C   0  0  0  0  0  0  0  0  0  0  0  0
   -0.4496   -3.1090   -1.1506 C   0  0  0  0  0  0  0  0  0  0  0  0
    1.2803   -2.5373   -2.6349 C   0  0  0  0  0  0  0  0  0  0  0  0
    1.3884    3.4481    0.1411 H   0  0  0  0  0  0  0  0  0  0  0  0
    0.0097    2.8775   -2.3889 H   0  0  0  0  0  0  0  0  0  0  0  0
    1.2632    4.0686   -2.0069 H   0  0  0  0  0  0  0  0  0  0  0  0
    2.5518    2.7007   -3.4176 H   0  0  0  0  0  0  0  0  0  0  0  0
    1.5700    1.2682   -3.0548 H   0  0  0  0  0  0  0  0  0  0  0  0
    3.6673    2.5835   -1.2694 H   0  0  0  0  0  0  0  0  0  0  0  0
    3.5592    0.8746   -1.7753 H   0  0  0  0  0  0  0  0  0  0  0  0
    2.0079    1.5449    1.7066 H   0  0  0  0  0  0  0  0  0  0  0  0
    3.4727    2.1930    1.0246 H   0  0  0  0  0  0  0  0  0  0  0  0
    1.5990   -0.8182    2.0090 H   0  0  0  0  0  0  0  0  0  0  0  0
    5.2470    0.6088    0.2045 H   0  0  0  0  0  0  0  0  0  0  0  0
    2.6356   -3.0359    2.3312 H   0  0  0  0  0  0  0  0  0  0  0  0
    6.2674   -1.6150    0.5264 H   0  0  0  0  0  0  0  0  0  0  0  0
    4.9689   -3.4412    1.5913 H   0  0  0  0  0  0  0  0  0  0  0  0
   -4.6855    1.8627    1.2047 H   0  0  0  0  0  0  0  0  0  0  0  0
   -6.5953    0.3034    1.0954 H   0  0  0  0  0  0  0  0  0  0  0  0
   -6.1898   -2.0324    0.3010 H   0  0  0  0  0  0  0  0  0  0  0  0
   -2.5275   -2.8919   -1.6149 H   0  0  0  0  0  0  0  0  0  0  0  0
   -2.1851   -3.4245    0.0668 H   0  0  0  0  0  0  0  0  0  0  0  0
    0.2270   -2.9415   -0.3044 H   0  0  0  0  0  0  0  0  0  0  0  0
   -0.3942   -4.1591   -1.4579 H   0  0  0  0  0  0  0  0  0  0  0  0
    1.9773   -2.3443   -1.8134 H   0  0  0  0  0  0  0  0  0  0  0  0
    1.3775   -3.5719   -2.9777 H   0  0  0  0  0  0  0  0  0  0  0  0
    1.5280   -1.8694   -3.4644 H   0  0  0  0  0  0  0  0  0  0  0  0
  1  6  1  0  0  0  0
  1 13  1  0  0  0  0
  2 22  1  0  0  0  0
  2 26  1  0  0  0  0
  3 27  1  0  0  0  0
  3 28  1  0  0  0  0
  4  8  1  0  0  0  0
  4 11  1  0  0  0  0
  4 12  1  0  0  0  0
  5 13  2  0  0  0  0
  5 17  1  0  0  0  0
  6 17  2  0  0  0  0
  7 22  1  0  0  0  0
  7 25  2  0  0  0  0
  8  9  1  0  0  0  0
  8 13  1  0  0  0  0
  8 29  1  0  0  0  0
  9 10  1  0  0  0  0
  9 30  1  0  0  0  0
  9 31  1  0  0  0  0
 10 11  1  0  0  0  0
 10 32  1  0  0  0  0
 10 33  1  0  0  0  0
 11 34  1  0  0  0  0
 11 35  1  0  0  0  0
 12 14  1  0  0  0  0
 12 36  1  0  0  0  0
 12 37  1  0  0  0  0
 14 15  2  0  0  0  0
 14 16  1  0  0  0  0
 15 19  1  0  0  0  0
 15 38  1  0  0  0  0
 16 20  2  0  0  0  0
 16 39  1  0  0  0  0
 17 18  1  0  0  0  0
 18 22  2  0  0  0  0
 18 23  1  0  0  0  0
 19 21  2  0  0  0  0
 19 40  1  0  0  0  0
 20 21  1  0  0  0  0
 20 41  1  0  0  0  0
 21 42  1  0  0  0  0
 23 24  2  0  0  0  0
 23 43  1  0  0  0  0
 24 25  1  0  0  0  0
 24 44  1  0  0  0  0
 25 45  1  0  0  0  0
 26 27  1  0  0  0  0
 26 46  1  0  0  0  0
 26 47  1  0  0  0  0
 27 48  1  0  0  0  0
 27 49  1  0  0  0  0
 28 50  1  0  0  0  0
 28 51  1  0  0  0  0
 28 52  1  0  0  0  0
M  END
> <PUBCHEM_COMPOUND_CID>
45783407

> <PUBCHEM_CONFORMER_RMSD>
1

> <PUBCHEM_CONFORMER_DIVERSEORDER>
1
126
72
109
58
13
18
118
33
79
117
98
64
69
36
113
65
116
27
41
32
115
20
68
61
17
96
40
100
77
78
107
63
54
24
23
125
101
31
105
9
45
111
103
93
128
92
82
29
26
124
30
87
99
44
28
67
85
70
122
22
57
10
89
102
76
48
97
90
88
108
73
83
120
86
62
34
129
39
110
121
35
127
46
37
81
74
16
2
52
119
60
7
42
104
55
14
51
59
43
53
114
84
56
106
66
12
19
3
71
123
112
91
4
8
47
49
5
11
94
6
75
80
50
15
21
38
95
25

> <PUBCHEM_MMFF94_PARTIAL_CHARGES>
34
1 -0.02
11 0.27
12 0.41
13 0.3
14 -0.14
15 -0.15
16 -0.15
17 0.46
18 0.05
19 -0.15
2 -0.36
20 -0.15
21 -0.15
22 0.39
23 -0.15
24 -0.15
25 0.16
26 0.28
27 0.28
28 0.28
3 -0.56
38 0.15
39 0.15
4 -0.81
40 0.15
41 0.15
42 0.15
43 0.15
44 0.15
45 0.15
5 -0.57
6 -0.41
7 -0.62
8 0.45

> <PUBCHEM_EFFECTIVE_ROTOR_COUNT>
9

> <PUBCHEM_PHARMACOPHORE_FEATURES>
9
1 2 acceptor
1 3 acceptor
1 4 cation
1 7 acceptor
3 5 6 17 cation
5 1 5 6 13 17 rings
5 4 8 9 10 11 rings
6 14 15 16 19 20 21 rings
6 7 18 22 23 24 25 rings

> <PUBCHEM_HEAVY_ATOM_COUNT>
28

> <PUBCHEM_ATOM_DEF_STEREO_COUNT>
1

> <PUBCHEM_ATOM_UDEF_STEREO_COUNT>
0

> <PUBCHEM_BOND_DEF_STEREO_COUNT>
0

> <PUBCHEM_BOND_UDEF_STEREO_COUNT>
0

> <PUBCHEM_ISOTOPIC_ATOM_COUNT>
0

> <PUBCHEM_COMPONENT_COUNT>
1

> <PUBCHEM_CACTVS_TAUTO_COUNT>
1

> <PUBCHEM_CONFORMER_ID>
02BA996F00000001

> <PUBCHEM_MMFF94_ENERGY>
63.9314

> <PUBCHEM_FEATURE_SELFOVERLAP>
45.725

> <PUBCHEM_SHAPE_FINGERPRINT>
10759866 29 18044385056425736437
12403259 327 17561072644494662120
12422481 6 18271525273937608835
12633257 1 16916773119884286592
12788726 201 18130243630485342601
13726171 33 17695662875051039449
14117953 113 18266457603597024389
14178342 30 17986404303700358905
15264996 154 18335717068996785694
15403338 16 18040424469809414059
16110190 28 18342164592881691826
17349148 13 18272367594597321461
1813 80 17822001000256959824
19319366 153 17614289187419668253
1979834 28 17917439713386302903
20775530 9 18261376824578558322
23559900 14 18129683927537369805
23845131 108 13398621758260611037
35225 105 17203030972471231918
3680242 22 18410584998117758387
46194498 28 16588306137046757692
463206 1 18262236754129573946
474144 1 18261682574578492150
484985 159 16449787201506674890
5081480 168 14129639721866070565
7064713 232 18131348566445141275

> <PUBCHEM_SHAPE_MULTIPOLES>
538.69
10.34
4.15
2.18
5.11
0.13
1.45
-5.17
-5.34
-1.61
1.66
-1.77
-0.41
-2.68

> <PUBCHEM_SHAPE_SELFOVERLAP>
1154.333

> <PUBCHEM_SHAPE_VOLUME>
299.2

> <PUBCHEM_COORDINATE_TYPE>
2
5
10

$$$$
