75536714
  -OEChem-12032416313D

 49 51  0     1  0  0  0  0  0999 V2000
    4.1789   -1.7713   -0.0002 S   0  0  0  0  0  0  0  0  0  0  0  0
   -0.1653   -1.4459    1.3745 O   0  0  0  0  0  0  0  0  0  0  0  0
   -0.9924   -1.2047   -2.1131 O   0  0  0  0  0  0  0  0  0  0  0  0
    4.1771   -2.2594   -1.3662 O   0  0  0  0  0  0  0  0  0  0  0  0
    4.9864   -2.4300    1.0085 O   0  0  0  0  0  0  0  0  0  0  0  0
   -3.2450   -0.2446   -0.1433 N   0  0  0  0  0  0  0  0  0  0  0  0
    2.5766   -1.6589    0.5602 N   0  0  0  0  0  0  0  0  0  0  0  0
   -7.6748    0.6486   -0.9866 N   0  0  0  0  0  0  0  0  0  0  0  0
   -2.1153   -1.1383    0.0536 C   0  0  1  0  0  0  0  0  0  0  0  0
   -0.8960   -0.7694   -0.7708 C   0  0  1  0  0  0  0  0  0  0  0  0
    0.2029   -1.5029   -0.0137 C   0  0  1  0  0  0  0  0  0  0  0  0
   -1.5533   -1.0795    1.4646 C   0  0  0  0  0  0  0  0  0  0  0  0
    1.5777   -0.8880   -0.2058 C   0  0  0  0  0  0  0  0  0  0  0  0
   -4.4713   -0.8219    0.3940 C   0  0  0  0  0  0  0  0  0  0  0  0
   -5.6497    0.0976    0.2137 C   0  0  0  0  0  0  0  0  0  0  0  0
    4.6721   -0.0740   -0.0289 C   0  0  0  0  0  0  0  0  0  0  0  0
   -5.8224    1.2097    1.0303 C   0  0  0  0  0  0  0  0  0  0  0  0
   -6.5958   -0.1369   -0.7712 C   0  0  0  0  0  0  0  0  0  0  0  0
    5.2582    0.5006    1.0989 C   0  0  0  0  0  0  0  0  0  0  0  0
    4.4725    0.6912   -1.1779 C   0  0  0  0  0  0  0  0  0  0  0  0
    5.6449    1.8405    1.0776 C   0  0  0  0  0  0  0  0  0  0  0  0
    4.8591    2.0312   -1.1991 C   0  0  0  0  0  0  0  0  0  0  0  0
    5.4455    2.6059   -0.0714 C   0  0  0  0  0  0  0  0  0  0  0  0
   -6.9201    2.0416    0.8396 C   0  0  0  0  0  0  0  0  0  0  0  0
   -7.8092    1.7202   -0.1733 C   0  0  0  0  0  0  0  0  0  0  0  0
    5.8589    4.0387   -0.0940 C   0  0  0  0  0  0  0  0  0  0  0  0
   -2.3982   -2.1695   -0.2013 H   0  0  0  0  0  0  0  0  0  0  0  0
   -0.7267    0.3146   -0.7620 H   0  0  0  0  0  0  0  0  0  0  0  0
    0.2349   -2.5623   -0.3007 H   0  0  0  0  0  0  0  0  0  0  0  0
   -1.5934   -0.0690    1.8874 H   0  0  0  0  0  0  0  0  0  0  0  0
   -2.0638   -1.7611    2.1517 H   0  0  0  0  0  0  0  0  0  0  0  0
    1.5898    0.1404    0.1722 H   0  0  0  0  0  0  0  0  0  0  0  0
    1.8299   -0.8816   -1.2705 H   0  0  0  0  0  0  0  0  0  0  0  0
   -3.3684   -0.0792   -1.1427 H   0  0  0  0  0  0  0  0  0  0  0  0
    2.4059   -1.7297    1.5711 H   0  0  0  0  0  0  0  0  0  0  0  0
   -4.3678   -1.0306    1.4664 H   0  0  0  0  0  0  0  0  0  0  0  0
   -4.6864   -1.7835   -0.0901 H   0  0  0  0  0  0  0  0  0  0  0  0
   -1.1431   -2.1651   -2.1130 H   0  0  0  0  0  0  0  0  0  0  0  0
   -5.1086    1.4371    1.8174 H   0  0  0  0  0  0  0  0  0  0  0  0
   -6.5160   -0.9870   -1.4417 H   0  0  0  0  0  0  0  0  0  0  0  0
    5.4162   -0.0746    2.0068 H   0  0  0  0  0  0  0  0  0  0  0  0
    4.0158    0.2649   -2.0665 H   0  0  0  0  0  0  0  0  0  0  0  0
    6.1006    2.2770    1.9625 H   0  0  0  0  0  0  0  0  0  0  0  0
    4.6994    2.6170   -2.1005 H   0  0  0  0  0  0  0  0  0  0  0  0
   -7.0749    2.9139    1.4641 H   0  0  0  0  0  0  0  0  0  0  0  0
   -8.6815    2.3371   -0.3630 H   0  0  0  0  0  0  0  0  0  0  0  0
    6.8926    4.1259   -0.4432 H   0  0  0  0  0  0  0  0  0  0  0  0
    5.2138    4.6257   -0.7566 H   0  0  0  0  0  0  0  0  0  0  0  0
    5.7861    4.4868    0.9028 H   0  0  0  0  0  0  0  0  0  0  0  0
  1  4  2  0  0  0  0
  1  5  2  0  0  0  0
  1  7  1  0  0  0  0
  1 16  1  0  0  0  0
  2 11  1  0  0  0  0
  2 12  1  0  0  0  0
  3 10  1  0  0  0  0
  3 38  1  0  0  0  0
  6  9  1  0  0  0  0
  6 14  1  0  0  0  0
  6 34  1  0  0  0  0
  7 13  1  0  0  0  0
  7 35  1  0  0  0  0
  8 18  1  0  0  0  0
  8 25  2  0  0  0  0
  9 10  1  0  0  0  0
  9 12  1  0  0  0  0
  9 27  1  0  0  0  0
 10 11  1  0  0  0  0
 10 28  1  0  0  0  0
 11 13  1  0  0  0  0
 11 29  1  0  0  0  0
 12 30  1  0  0  0  0
 12 31  1  0  0  0  0
 13 32  1  0  0  0  0
 13 33  1  0  0  0  0
 14 15  1  0  0  0  0
 14 36  1  0  0  0  0
 14 37  1  0  0  0  0
 15 17  1  0  0  0  0
 15 18  2  0  0  0  0
 16 19  2  0  0  0  0
 16 20  1  0  0  0  0
 17 24  2  0  0  0  0
 17 39  1  0  0  0  0
 18 40  1  0  0  0  0
 19 21  1  0  0  0  0
 19 41  1  0  0  0  0
 20 22  2  0  0  0  0
 20 42  1  0  0  0  0
 21 23  2  0  0  0  0
 21 43  1  0  0  0  0
 22 23  1  0  0  0  0
 22 44  1  0  0  0  0
 23 26  1  0  0  0  0
 24 25  1  0  0  0  0
 24 45  1  0  0  0  0
 25 46  1  0  0  0  0
 26 47  1  0  0  0  0
 26 48  1  0  0  0  0
 26 49  1  0  0  0  0
M  END
> <PUBCHEM_COMPOUND_CID>
75536714

> <PUBCHEM_CONFORMER_RMSD>
1.2

> <PUBCHEM_CONFORMER_DIVERSEORDER>
1
95
51
148
124
2
141
18
83
142
54
37
76
89
122
71
41
4
29
48
94
110
104
101
119
102
11
57
126
17
146
82
123
103
38
114
116
80
28
113
60
106
49
22
118
125
105
149
75
97
30
73
77
26
133
129
45
93
90
138
91
10
27
59
85
144
5
7
65
99
44
66
151
53
100
140
56
20
92
68
115
35
46
52
79
150
120
145
39
137
63
25
143
31
69
14
84
40
88
3
139
74
72
33
135
15
111
107
96
87
121
55
64
86
32
130
42
108
12
21
131
34
6
147
98
81
70
8
62
67
128
134
132
61
19
43
112
16
50
13
127
36
136
109
9
47
24
23
78
117
58

> <PUBCHEM_MMFF94_PARTIAL_CHARGES>
37
1 1.45
10 0.28
11 0.28
12 0.28
13 0.36
14 0.41
15 -0.14
16 -0.01
17 -0.15
18 0.16
19 -0.15
2 -0.56
20 -0.15
21 -0.15
22 -0.15
23 -0.14
24 -0.15
25 0.16
26 0.14
3 -0.68
34 0.36
35 0.42
38 0.4
39 0.15
4 -0.65
40 0.15
41 0.15
42 0.15
43 0.15
44 0.15
45 0.15
46 0.15
5 -0.65
6 -0.9
7 -0.91
8 -0.62
9 0.27

> <PUBCHEM_EFFECTIVE_ROTOR_COUNT>
8

> <PUBCHEM_PHARMACOPHORE_FEATURES>
12
1 2 acceptor
1 3 acceptor
1 3 donor
1 4 acceptor
1 5 acceptor
1 6 cation
1 6 donor
1 7 donor
1 8 acceptor
5 2 9 10 11 12 rings
6 16 19 20 21 22 23 rings
6 8 15 17 18 24 25 rings

> <PUBCHEM_HEAVY_ATOM_COUNT>
26

> <PUBCHEM_ATOM_DEF_STEREO_COUNT>
3

> <PUBCHEM_ATOM_UDEF_STEREO_COUNT>
0

> <PUBCHEM_BOND_DEF_STEREO_COUNT>
0

> <PUBCHEM_BOND_UDEF_STEREO_COUNT>
0

> <PUBCHEM_ISOTOPIC_ATOM_COUNT>
0

> <PUBCHEM_COMPONENT_COUNT>
1

> <PUBCHEM_CACTVS_TAUTO_COUNT>
1

> <PUBCHEM_CONFORMER_ID>
0480994A00000001

> <PUBCHEM_MMFF94_ENERGY>
48.1199

> <PUBCHEM_FEATURE_SELFOVERLAP>
60.916

> <PUBCHEM_SHAPE_FINGERPRINT>
10 15 16298392361817453991
10280341 67 17771336767898454120
10554248 39 17916861318703923863
10638233 991 18410857625403732201
10673678 19 18272374191282180494
11135609 127 18341887507050171520
11386260 185 18201447943818460500
11408170 132 14117250387006989641
11991303 11 16559022823064343741
125118 31 18336265656963852569
12539765 74 17988088790664978863
13533116 47 17895193234460580778
13668630 136 12463277104401209405
13782708 43 9367348115746597675
13878862 14 18409157806086224636
13944108 23 18410298042990449452
14251757 52 18411979152859963185
14347332 77 10375601377676084059
14565420 104 18113613491160602802
15131766 46 18198333160241700220
15183329 4 17561085800174759425
15475509 35 11025796531015897788
155225 6 18044944712741349612
15840311 113 18335706005750686029
18335252 114 18202006530222187316
1979834 28 14996277007714666586
20058555 10 18411702084641543729
20157964 124 18412265021408934394
20281389 69 18261110734596655629
20715895 44 18335985350318220168
20771845 171 17561086856663095495
21130935 74 18113338605096585163
21150785 3 17060052670992059575
21298829 104 18338237171269742252
21344244 181 11672061956388762869
21521239 73 11887951038858869965
21585482 111 18334858333330471516
21641784 216 16271936969423143027
21792934 111 16081355320778355487
22122407 14 18411711984039598881
2303208 19 10952053321186005179
23081809 10 18202276992612879791
23559900 14 17458355143553635586
249057 25 17702672042402223139
27425 322 18412261752902464622
2748736 6 18409445912323901457
2838139 119 18410854322500184509
328310 630 18202008707686314481
33382 64 8862942770952501095
33532 11 9295283946388396777
3472631 163 18130228258896986716
34797466 226 18272093768883914727
3711267 37 18129952153342423569
397830 11 18114474452157767051
4169191 19 18409449223939131965
44555599 121 18271812263916266889
465052 167 8142095256002440000
5104073 3 17822009851984318298
5718773 13 10087378702712119628
6328613 192 18413670210623418209
6898599 12 18129099098962767215

> <PUBCHEM_SHAPE_MULTIPOLES>
500.5
23.08
3.19
1.34
29.75
2.23
0.16
18.09
0.08
-6.12
-0.1
-0.28
-0.22
-0.64

> <PUBCHEM_SHAPE_SELFOVERLAP>
1040.428

> <PUBCHEM_SHAPE_VOLUME>
286.1

> <PUBCHEM_COORDINATE_TYPE>
2
5
10

$$$$
