75536723
  -OEChem-12032416393D

 48 49  0     1  0  0  0  0  0999 V2000
    0.3577    0.4341   -1.1899 O   0  0  0  0  0  0  0  0  0  0  0  0
   -0.5783   -1.9411    1.3376 O   0  0  0  0  0  0  0  0  0  0  0  0
   -6.6270    0.8653    0.6950 O   0  0  0  0  0  0  0  0  0  0  0  0
    3.9244   -0.7267    1.2654 O   0  0  0  0  0  0  0  0  0  0  0  0
   -2.9547   -0.8471   -0.4038 N   0  0  0  0  0  0  0  0  0  0  0  0
    3.0384   -0.5593   -0.8755 N   0  0  0  0  0  0  0  0  0  0  0  0
    5.0118    0.5210   -0.3607 N   0  0  0  0  0  0  0  0  0  0  0  0
   -1.6361   -0.3001   -0.1281 C   0  0  1  0  0  0  0  0  0  0  0  0
   -0.5628   -1.3580    0.0490 C   0  0  1  0  0  0  0  0  0  0  0  0
    0.6986   -0.5386   -0.1881 C   0  0  1  0  0  0  0  0  0  0  0  0
   -3.9915    0.1671   -0.2299 C   0  0  0  0  0  0  0  0  0  0  0  0
   -1.0755    0.5058   -1.2885 C   0  0  0  0  0  0  0  0  0  0  0  0
   -5.2604   -0.2330   -0.9881 C   0  0  0  0  0  0  0  0  0  0  0  0
   -4.3120    0.3794    1.2530 C   0  0  0  0  0  0  0  0  0  0  0  0
    1.8759   -1.3722   -0.6617 C   0  0  0  0  0  0  0  0  0  0  0  0
   -6.3816    0.7615   -0.7075 C   0  0  0  0  0  0  0  0  0  0  0  0
   -5.4857    1.3400    1.4093 C   0  0  0  0  0  0  0  0  0  0  0  0
    3.9876   -0.2935    0.1157 C   0  0  0  0  0  0  0  0  0  0  0  0
    6.1203    0.9458    0.4614 C   0  0  0  0  0  0  0  0  0  0  0  0
    7.2496   -0.0753    0.4056 C   0  0  0  0  0  0  0  0  0  0  0  0
    6.6013    2.3250    0.0297 C   0  0  0  0  0  0  0  0  0  0  0  0
   -1.6404    0.3141    0.7806 H   0  0  0  0  0  0  0  0  0  0  0  0
   -0.6645   -2.1531   -0.7002 H   0  0  0  0  0  0  0  0  0  0  0  0
    0.9805    0.0119    0.7191 H   0  0  0  0  0  0  0  0  0  0  0  0
   -3.6613    1.1230   -0.6582 H   0  0  0  0  0  0  0  0  0  0  0  0
   -1.3533    0.0839   -2.2613 H   0  0  0  0  0  0  0  0  0  0  0  0
   -1.3856    1.5548   -1.2666 H   0  0  0  0  0  0  0  0  0  0  0  0
   -3.1407   -1.6393    0.2105 H   0  0  0  0  0  0  0  0  0  0  0  0
   -5.5830   -1.2299   -0.6595 H   0  0  0  0  0  0  0  0  0  0  0  0
   -5.0686   -0.2868   -2.0660 H   0  0  0  0  0  0  0  0  0  0  0  0
   -3.4558    0.7753    1.8078 H   0  0  0  0  0  0  0  0  0  0  0  0
   -4.5841   -0.5815    1.7095 H   0  0  0  0  0  0  0  0  0  0  0  0
    1.6511   -1.8454   -1.6238 H   0  0  0  0  0  0  0  0  0  0  0  0
    2.1117   -2.1562    0.0657 H   0  0  0  0  0  0  0  0  0  0  0  0
   -6.1463    1.7533   -1.1112 H   0  0  0  0  0  0  0  0  0  0  0  0
   -7.3071    0.4222   -1.1834 H   0  0  0  0  0  0  0  0  0  0  0  0
   -5.7635    1.4192    2.4651 H   0  0  0  0  0  0  0  0  0  0  0  0
   -5.2279    2.3462    1.0584 H   0  0  0  0  0  0  0  0  0  0  0  0
   -0.4903   -1.2310    1.9958 H   0  0  0  0  0  0  0  0  0  0  0  0
    3.1708   -0.1433   -1.7923 H   0  0  0  0  0  0  0  0  0  0  0  0
    5.0152    0.7651   -1.3465 H   0  0  0  0  0  0  0  0  0  0  0  0
    5.7696    1.0125    1.4984 H   0  0  0  0  0  0  0  0  0  0  0  0
    7.6248   -0.1962   -0.6168 H   0  0  0  0  0  0  0  0  0  0  0  0
    6.9071   -1.0579    0.7480 H   0  0  0  0  0  0  0  0  0  0  0  0
    8.0861    0.2308    1.0423 H   0  0  0  0  0  0  0  0  0  0  0  0
    6.9586    2.3164   -1.0061 H   0  0  0  0  0  0  0  0  0  0  0  0
    5.7880    3.0565    0.0914 H   0  0  0  0  0  0  0  0  0  0  0  0
    7.4189    2.6729    0.6695 H   0  0  0  0  0  0  0  0  0  0  0  0
  1 10  1  0  0  0  0
  1 12  1  0  0  0  0
  2  9  1  0  0  0  0
  2 39  1  0  0  0  0
  3 16  1  0  0  0  0
  3 17  1  0  0  0  0
  4 18  2  0  0  0  0
  5  8  1  0  0  0  0
  5 11  1  0  0  0  0
  5 28  1  0  0  0  0
  6 15  1  0  0  0  0
  6 18  1  0  0  0  0
  6 40  1  0  0  0  0
  7 18  1  0  0  0  0
  7 19  1  0  0  0  0
  7 41  1  0  0  0  0
  8  9  1  0  0  0  0
  8 12  1  0  0  0  0
  8 22  1  0  0  0  0
  9 10  1  0  0  0  0
  9 23  1  0  0  0  0
 10 15  1  0  0  0  0
 10 24  1  0  0  0  0
 11 13  1  0  0  0  0
 11 14  1  0  0  0  0
 11 25  1  0  0  0  0
 12 26  1  0  0  0  0
 12 27  1  0  0  0  0
 13 16  1  0  0  0  0
 13 29  1  0  0  0  0
 13 30  1  0  0  0  0
 14 17  1  0  0  0  0
 14 31  1  0  0  0  0
 14 32  1  0  0  0  0
 15 33  1  0  0  0  0
 15 34  1  0  0  0  0
 16 35  1  0  0  0  0
 16 36  1  0  0  0  0
 17 37  1  0  0  0  0
 17 38  1  0  0  0  0
 19 20  1  0  0  0  0
 19 21  1  0  0  0  0
 19 42  1  0  0  0  0
 20 43  1  0  0  0  0
 20 44  1  0  0  0  0
 20 45  1  0  0  0  0
 21 46  1  0  0  0  0
 21 47  1  0  0  0  0
 21 48  1  0  0  0  0
M  END
> <PUBCHEM_COMPOUND_CID>
75536723

> <PUBCHEM_CONFORMER_RMSD>
0.8

> <PUBCHEM_CONFORMER_DIVERSEORDER>
1
136
11
44
225
234
100
12
138
109
160
218
243
287
223
253
281
241
249
74
291
157
126
56
265
284
235
211
139
135
277
203
260
258
263
91
92
163
217
273
215
188
185
131
152
271
248
288
250
45
242
134
212
150
230
75
81
32
176
168
146
141
98
122
77
88
84
204
229
133
41
193
226
125
189
255
31
18
39
267
153
206
51
72
7
283
181
172
103
290
197
63
236
101
228
78
165
90
178
95
94
199
276
170
137
118
4
169
289
8
252
99
9
184
210
177
29
274
70
292
238
86
76
13
142
154
207
61
64
35
270
73
266
49
275
216
20
22
47
82
245
89
162
285
262
58
213
123
52
48
201
282
27
194
164
221
30
33
205
69
156
37
171
286
114
57
46
233
192
251
246
127
268
183
151
244
21
145
66
15
102
257
227
256
161
191
87
159
67
148
232
128
129
40
149
264
195
130
23
175
220
261
107
180
93
16
50
80
173
83
219
158
79
179
111
43
143
132
24
279
60
120
240
222
196
6
224
144
239
147
254
119
117
182
187
198
280
54
214
38
68
3
115
19
186
121
231
278
112
10
202
269
155
96
116
5
53
55
104
17
200
174
71
124
106
167
110
26
85
65
2
105
97
237
59
140
28
208
209
259
108
25
36
247
62
190
166
34
42
14
272
113

> <PUBCHEM_MMFF94_PARTIAL_CHARGES>
21
1 -0.56
10 0.28
11 0.27
12 0.28
15 0.3
16 0.28
17 0.28
18 0.69
19 0.3
2 -0.68
28 0.36
3 -0.56
39 0.4
4 -0.57
40 0.37
41 0.37
5 -0.9
6 -0.73
7 -0.73
8 0.27
9 0.28

> <PUBCHEM_EFFECTIVE_ROTOR_COUNT>
9.2

> <PUBCHEM_PHARMACOPHORE_FEATURES>
12
1 1 acceptor
1 2 acceptor
1 2 donor
1 3 acceptor
1 4 acceptor
1 5 cation
1 5 donor
1 6 donor
1 7 donor
3 19 20 21 hydrophobe
5 1 8 9 10 12 rings
6 3 11 13 14 16 17 rings

> <PUBCHEM_HEAVY_ATOM_COUNT>
21

> <PUBCHEM_ATOM_DEF_STEREO_COUNT>
3

> <PUBCHEM_ATOM_UDEF_STEREO_COUNT>
0

> <PUBCHEM_BOND_DEF_STEREO_COUNT>
0

> <PUBCHEM_BOND_UDEF_STEREO_COUNT>
0

> <PUBCHEM_ISOTOPIC_ATOM_COUNT>
0

> <PUBCHEM_COMPONENT_COUNT>
1

> <PUBCHEM_CACTVS_TAUTO_COUNT>
3

> <PUBCHEM_CONFORMER_ID>
0480995300000001

> <PUBCHEM_MMFF94_ENERGY>
27.9417

> <PUBCHEM_FEATURE_SELFOVERLAP>
60.946

> <PUBCHEM_SHAPE_FINGERPRINT>
10 15 16950568800260703596
10087517 78 18130790023556147905
106641 1 18113623417341141747
10670039 82 14404913461612449714
10906281 52 18338250339770652180
11315181 36 18343017818547751783
11524674 6 15864073182649760249
117890 112 18344148094303562854
12236239 1 18272088258788825591
12596602 18 18333454244037844923
12616971 3 16226052236040913766
12670543 26 12679469663805383899
13167372 99 18202285775842021312
13288520 33 11530484433023536959
13533116 47 18041836213096564218
13540713 5 17098076097493472454
13631057 29 18340481296831554847
13668630 136 11600003262775649413
13685833 64 11458422436480502916
13862211 1 8142087558967507420
14123256 10 14908180850146499897
14251752 14 14979958047450308476
14251764 18 18261113014754778607
14341114 176 17748824134148139004
14528608 73 16774074072514519286
15048467 5 18131632274773131797
15183329 4 14476968878381253378
15348495 7 16660655105961143000
15716309 27 12612753518708916185
17834072 8 14261630633940221624
17980427 23 18188491405727942622
20281389 69 18408884023206179780
20526848 3 18130793360281142824
20567600 247 11097853016609852344
21150785 3 15051729798165886141
21637258 2 12468639464652119659
22224240 67 18113337514105767539
23035841 295 11169913879497284797
23081809 10 17632290147198196159
23402539 116 18040428923315693887
2838139 119 17775565346797476905
2916195 48 18408323285155420253
3004659 81 12535627172389223646
4340502 62 15791448219105375376
445580 37 17060626602649583137
465052 167 10953464015947168888
5104073 3 17241904270121429768
543368 44 18201721743714862897
559249 180 12324239473654071921
59682541 35 16950569916883921192
59682541 52 15697734636132434132
59755656 215 12823302290573709452

> <PUBCHEM_SHAPE_MULTIPOLES>
393.75
19.72
1.54
1.22
10.75
0.33
0.16
11.05
1.99
1.09
0.24
-0.91
0
-0.85

> <PUBCHEM_SHAPE_SELFOVERLAP>
785.271

> <PUBCHEM_SHAPE_VOLUME>
233.6

> <PUBCHEM_COORDINATE_TYPE>
2
5
10

$$$$
