7135392
  -OEChem-12032416153D

 55 57  0     1  0  0  0  0  0999 V2000
   -2.8454   -0.9133   -1.7814 O   0  0  0  0  0  0  0  0  0  0  0  0
    3.4790    2.4423   -0.6953 O   0  0  0  0  0  0  0  0  0  0  0  0
   -3.0820    0.3165    0.1756 N   0  0  0  0  0  0  0  0  0  0  0  0
   -0.6088   -2.2150   -0.9090 C   0  0  2  0  0  0  0  0  0  0  0  0
   -1.6276   -1.6789    0.1012 C   0  0  1  0  0  0  0  0  0  0  0  0
    0.3645   -3.2168   -0.2794 C   0  0  0  0  0  0  0  0  0  0  0  0
    0.1779   -1.0796   -1.5816 C   0  0  0  0  0  0  0  0  0  0  0  0
    1.2652   -2.5715    0.7730 C   0  0  0  0  0  0  0  0  0  0  0  0
    1.3064   -0.5282   -0.7443 C   0  0  0  0  0  0  0  0  0  0  0  0
    1.8442   -1.2495    0.3371 C   0  0  0  0  0  0  0  0  0  0  0  0
   -2.5720   -0.7299   -0.5924 C   0  0  0  0  0  0  0  0  0  0  0  0
   -2.4258   -2.8070    0.7348 C   0  0  0  0  0  0  0  0  0  0  0  0
   -4.0035    1.2816   -0.4277 C   0  0  0  0  0  0  0  0  0  0  0  0
   -2.8105    0.5343    1.6020 C   0  0  0  0  0  0  0  0  0  0  0  0
    1.8691    0.7091   -1.0941 C   0  0  0  0  0  0  0  0  0  0  0  0
    2.9100   -0.7020    1.0678 C   0  0  0  0  0  0  0  0  0  0  0  0
   -3.5071    2.7105   -0.2248 C   0  0  0  0  0  0  0  0  0  0  0  0
   -2.2918    1.9500    1.8447 C   0  0  0  0  0  0  0  0  0  0  0  0
   -3.2340    2.9963    1.2510 C   0  0  0  0  0  0  0  0  0  0  0  0
    2.9339    1.2378   -0.3655 C   0  0  0  0  0  0  0  0  0  0  0  0
    3.4528    0.5335    0.7167 C   0  0  0  0  0  0  0  0  0  0  0  0
    1.3333    1.4965   -2.2510 C   0  0  0  0  0  0  0  0  0  0  0  0
    3.5074   -1.4200    2.2366 C   0  0  0  0  0  0  0  0  0  0  0  0
    4.5648    2.9033    0.1061 C   0  0  0  0  0  0  0  0  0  0  0  0
   -1.1515   -2.7478   -1.7030 H   0  0  0  0  0  0  0  0  0  0  0  0
   -1.0600   -1.1522    0.8665 H   0  0  0  0  0  0  0  0  0  0  0  0
    1.0016   -3.6200   -1.0796 H   0  0  0  0  0  0  0  0  0  0  0  0
   -0.1506   -4.0847    0.1446 H   0  0  0  0  0  0  0  0  0  0  0  0
   -0.4895   -0.2764   -1.9011 H   0  0  0  0  0  0  0  0  0  0  0  0
    0.6336   -1.4845   -2.4961 H   0  0  0  0  0  0  0  0  0  0  0  0
    2.0683   -3.2848    0.9923 H   0  0  0  0  0  0  0  0  0  0  0  0
    0.6984   -2.4198    1.6994 H   0  0  0  0  0  0  0  0  0  0  0  0
   -2.8365   -3.4838   -0.0229 H   0  0  0  0  0  0  0  0  0  0  0  0
   -3.2741   -2.4187    1.3095 H   0  0  0  0  0  0  0  0  0  0  0  0
   -1.8175   -3.3947    1.4287 H   0  0  0  0  0  0  0  0  0  0  0  0
   -4.9810    1.1432    0.0495 H   0  0  0  0  0  0  0  0  0  0  0  0
   -4.1305    1.0839   -1.4968 H   0  0  0  0  0  0  0  0  0  0  0  0
   -2.1331   -0.1870    2.0529 H   0  0  0  0  0  0  0  0  0  0  0  0
   -3.7691    0.4035    2.1205 H   0  0  0  0  0  0  0  0  0  0  0  0
   -4.2454    3.4209   -0.6122 H   0  0  0  0  0  0  0  0  0  0  0  0
   -2.5819    2.8585   -0.7959 H   0  0  0  0  0  0  0  0  0  0  0  0
   -1.3000    2.0562    1.3878 H   0  0  0  0  0  0  0  0  0  0  0  0
   -2.1752    2.1249    2.9199 H   0  0  0  0  0  0  0  0  0  0  0  0
   -2.7979    3.9952    1.3620 H   0  0  0  0  0  0  0  0  0  0  0  0
   -4.1804    2.9939    1.8056 H   0  0  0  0  0  0  0  0  0  0  0  0
    4.2786    0.8961    1.3189 H   0  0  0  0  0  0  0  0  0  0  0  0
    0.3603    1.9283   -1.9940 H   0  0  0  0  0  0  0  0  0  0  0  0
    1.9893    2.3203   -2.5493 H   0  0  0  0  0  0  0  0  0  0  0  0
    1.2284    0.8647   -3.1395 H   0  0  0  0  0  0  0  0  0  0  0  0
    4.2254   -0.7960    2.7802 H   0  0  0  0  0  0  0  0  0  0  0  0
    2.7334   -1.7041    2.9570 H   0  0  0  0  0  0  0  0  0  0  0  0
    4.0407   -2.3153    1.9013 H   0  0  0  0  0  0  0  0  0  0  0  0
    5.4333    2.2399    0.0318 H   0  0  0  0  0  0  0  0  0  0  0  0
    4.2571    3.0783    1.1428 H   0  0  0  0  0  0  0  0  0  0  0  0
    4.8732    3.8729   -0.2991 H   0  0  0  0  0  0  0  0  0  0  0  0
  1 11  2  0  0  0  0
  2 20  1  0  0  0  0
  2 24  1  0  0  0  0
  3 11  1  0  0  0  0
  3 13  1  0  0  0  0
  3 14  1  0  0  0  0
  4  5  1  0  0  0  0
  4  6  1  0  0  0  0
  4  7  1  0  0  0  0
  4 25  1  0  0  0  0
  5 11  1  0  0  0  0
  5 12  1  0  0  0  0
  5 26  1  0  0  0  0
  6  8  1  0  0  0  0
  6 27  1  0  0  0  0
  6 28  1  0  0  0  0
  7  9  1  0  0  0  0
  7 29  1  0  0  0  0
  7 30  1  0  0  0  0
  8 10  1  0  0  0  0
  8 31  1  0  0  0  0
  8 32  1  0  0  0  0
  9 10  2  0  0  0  0
  9 15  1  0  0  0  0
 10 16  1  0  0  0  0
 12 33  1  0  0  0  0
 12 34  1  0  0  0  0
 12 35  1  0  0  0  0
 13 17  1  0  0  0  0
 13 36  1  0  0  0  0
 13 37  1  0  0  0  0
 14 18  1  0  0  0  0
 14 38  1  0  0  0  0
 14 39  1  0  0  0  0
 15 20  2  0  0  0  0
 15 22  1  0  0  0  0
 16 21  2  0  0  0  0
 16 23  1  0  0  0  0
 17 19  1  0  0  0  0
 17 40  1  0  0  0  0
 17 41  1  0  0  0  0
 18 19  1  0  0  0  0
 18 42  1  0  0  0  0
 18 43  1  0  0  0  0
 19 44  1  0  0  0  0
 19 45  1  0  0  0  0
 20 21  1  0  0  0  0
 21 46  1  0  0  0  0
 22 47  1  0  0  0  0
 22 48  1  0  0  0  0
 22 49  1  0  0  0  0
 23 50  1  0  0  0  0
 23 51  1  0  0  0  0
 23 52  1  0  0  0  0
 24 53  1  0  0  0  0
 24 54  1  0  0  0  0
 24 55  1  0  0  0  0
M  END
> <PUBCHEM_COMPOUND_CID>
7135392

> <PUBCHEM_CONFORMER_RMSD>
0.8

> <PUBCHEM_CONFORMER_DIVERSEORDER>
1
10
2
11
9
3
8
5
6
4
7
12

> <PUBCHEM_MMFF94_PARTIAL_CHARGES>
19
1 -0.57
10 -0.14
11 0.57
13 0.3
14 0.3
15 -0.14
16 -0.14
2 -0.36
20 0.08
21 -0.15
22 0.14
23 0.14
24 0.28
3 -0.66
46 0.15
5 0.06
7 0.14
8 0.14
9 -0.14

> <PUBCHEM_EFFECTIVE_ROTOR_COUNT>
6

> <PUBCHEM_PHARMACOPHORE_FEATURES>
6
1 1 acceptor
1 12 hydrophobe
1 2 acceptor
6 3 13 14 17 18 19 rings
6 4 6 7 8 9 10 rings
6 9 10 15 16 20 21 rings

> <PUBCHEM_HEAVY_ATOM_COUNT>
24

> <PUBCHEM_ATOM_DEF_STEREO_COUNT>
2

> <PUBCHEM_ATOM_UDEF_STEREO_COUNT>
0

> <PUBCHEM_BOND_DEF_STEREO_COUNT>
0

> <PUBCHEM_BOND_UDEF_STEREO_COUNT>
0

> <PUBCHEM_ISOTOPIC_ATOM_COUNT>
0

> <PUBCHEM_COMPONENT_COUNT>
1

> <PUBCHEM_CACTVS_TAUTO_COUNT>
1

> <PUBCHEM_CONFORMER_ID>
006CE0A000000001

> <PUBCHEM_MMFF94_ENERGY>
70.1963

> <PUBCHEM_FEATURE_SELFOVERLAP>
30.467

> <PUBCHEM_SHAPE_FINGERPRINT>
10382601 240 17894624868932524752
10498660 4 17917430955821236393
10708813 3 18262234538122166828
10764073 3 16837399101130694314
11370993 70 18339635621263553713
11640471 11 18341610387006814063
11725454 13 15983663768232163162
12156800 1 14460735795814140801
12633257 1 17896589605452993490
12655364 131 17463087488864635496
12788726 201 18197487648479276503
128993 33 17700444419260029505
13134695 92 17473276374792332519
13140716 1 18187072962676912170
13583140 156 17676496033699324449
13965767 371 18188216402940035100
14251757 17 17343261517204734492
14251764 38 18193556658508607089
14713325 29 17255459101293019534
14739800 52 17984960834534032520
14787075 74 17398954267705582862
14790565 3 17460313489784721444
15475509 8 18269280072027282878
1601671 61 18192999218997940926
18981168 100 18127438711876991123
192875 21 18268125665662542663
20510252 161 18196097869886557855
20715895 44 17832695787132173261
20739085 24 17894909612347731980
21427221 339 18334852801680463024
21475661 188 17682400243985299509
21731516 1 8574418795389903867
21864079 5 18411704287431583116
22149856 69 17773605915411042929
22749437 52 18340769222120513697
235170 7 14260766387778639225
35225 105 18129651010623111093
3797600 57 17538324929931626035
392239 28 17686348971948855378
469060 322 17975435807866601307
474 4 18194961847126667115
5048184 11 18412833464456910729
550186 7 17768270246757305796
6328613 192 18268996389210450626
9981440 41 18412538834116562267

> <PUBCHEM_SHAPE_MULTIPOLES>
477.19
7.66
3.99
1.86
0.09
0.23
0.08
6.29
2.02
-0.27
0.4
0.22
0.2
-1.78

> <PUBCHEM_SHAPE_SELFOVERLAP>
1002.825

> <PUBCHEM_SHAPE_VOLUME>
269.3

> <PUBCHEM_COORDINATE_TYPE>
2
5
10

$$$$
