51137085
  -OEChem-12032416213D

 38 41  0     1  0  0  0  0  0999 V2000
    3.0739   -1.8988    0.1784 S   0  0  0  0  0  0  0  0  0  0  0  0
   -1.7308   -0.3298   -0.1350 N   0  0  1  0  0  0  0  0  0  0  0  0
    2.3457    0.5745    0.1119 N   0  0  0  0  0  0  0  0  0  0  0  0
   -4.5982    1.3445    0.1398 N   0  0  0  0  0  0  0  0  0  0  0  0
    0.4451   -1.0226    0.3987 C   0  0  1  0  0  0  0  0  0  0  0  0
   -0.2282   -0.4315    1.6495 C   0  0  0  0  0  0  0  0  0  0  0  0
   -0.4315   -0.5562   -0.7714 C   0  0  0  0  0  0  0  0  0  0  0  0
   -1.4215    0.3537    1.1209 C   0  0  0  0  0  0  0  0  0  0  0  0
    1.9009   -0.6550    0.2274 C   0  0  0  0  0  0  0  0  0  0  0  0
   -2.6348    0.4400   -0.9767 C   0  0  0  0  0  0  0  0  0  0  0  0
   -4.0675    0.3004   -0.5353 C   0  0  0  0  0  0  0  0  0  0  0  0
    4.3097   -0.7122   -0.0159 C   0  0  0  0  0  0  0  0  0  0  0  0
    3.7257    0.5581   -0.0285 C   0  0  0  0  0  0  0  0  0  0  0  0
   -4.7593   -0.8623   -0.8345 C   0  0  0  0  0  0  0  0  0  0  0  0
    5.6960   -0.8925   -0.1479 C   0  0  0  0  0  0  0  0  0  0  0  0
    4.5612    1.6863   -0.1784 C   0  0  0  0  0  0  0  0  0  0  0  0
    6.5000    0.2406   -0.2949 C   0  0  0  0  0  0  0  0  0  0  0  0
    5.9421    1.5142   -0.3103 C   0  0  0  0  0  0  0  0  0  0  0  0
   -6.0810   -0.9594   -0.4138 C   0  0  0  0  0  0  0  0  0  0  0  0
   -5.8852    1.2138    0.5326 C   0  0  0  0  0  0  0  0  0  0  0  0
   -6.6622    0.0941    0.2832 C   0  0  0  0  0  0  0  0  0  0  0  0
    0.3522   -2.1161    0.4734 H   0  0  0  0  0  0  0  0  0  0  0  0
   -0.5712   -1.2471    2.2986 H   0  0  0  0  0  0  0  0  0  0  0  0
    0.4369    0.2057    2.2421 H   0  0  0  0  0  0  0  0  0  0  0  0
   -0.0416    0.3661   -1.2225 H   0  0  0  0  0  0  0  0  0  0  0  0
   -0.4903   -1.3211   -1.5534 H   0  0  0  0  0  0  0  0  0  0  0  0
   -1.1302    1.3995    0.9583 H   0  0  0  0  0  0  0  0  0  0  0  0
   -2.2553    0.3288    1.8296 H   0  0  0  0  0  0  0  0  0  0  0  0
   -2.3526    1.5005   -1.0197 H   0  0  0  0  0  0  0  0  0  0  0  0
   -2.5818    0.0798   -2.0136 H   0  0  0  0  0  0  0  0  0  0  0  0
   -4.2975   -1.6789   -1.3792 H   0  0  0  0  0  0  0  0  0  0  0  0
    6.1386   -1.8838   -0.1367 H   0  0  0  0  0  0  0  0  0  0  0  0
    4.1358    2.6858   -0.1918 H   0  0  0  0  0  0  0  0  0  0  0  0
    7.5756    0.1232   -0.3985 H   0  0  0  0  0  0  0  0  0  0  0  0
    6.5832    2.3838   -0.4257 H   0  0  0  0  0  0  0  0  0  0  0  0
   -6.6572   -1.8543   -0.6287 H   0  0  0  0  0  0  0  0  0  0  0  0
   -6.2913    2.0627    1.0727 H   0  0  0  0  0  0  0  0  0  0  0  0
   -7.6909    0.0403    0.6208 H   0  0  0  0  0  0  0  0  0  0  0  0
  1  9  1  0  0  0  0
  1 12  1  0  0  0  0
  2  7  1  0  0  0  0
  2  8  1  0  0  0  0
  2 10  1  0  0  0  0
  3  9  2  0  0  0  0
  3 13  1  0  0  0  0
  4 11  1  0  0  0  0
  4 20  2  0  0  0  0
  5  6  1  0  0  0  0
  5  7  1  0  0  0  0
  5  9  1  0  0  0  0
  5 22  1  0  0  0  0
  6  8  1  0  0  0  0
  6 23  1  0  0  0  0
  6 24  1  0  0  0  0
  7 25  1  0  0  0  0
  7 26  1  0  0  0  0
  8 27  1  0  0  0  0
  8 28  1  0  0  0  0
 10 11  1  0  0  0  0
 10 29  1  0  0  0  0
 10 30  1  0  0  0  0
 11 14  2  0  0  0  0
 12 13  1  0  0  0  0
 12 15  2  0  0  0  0
 13 16  2  0  0  0  0
 14 19  1  0  0  0  0
 14 31  1  0  0  0  0
 15 17  1  0  0  0  0
 15 32  1  0  0  0  0
 16 18  1  0  0  0  0
 16 33  1  0  0  0  0
 17 18  2  0  0  0  0
 17 34  1  0  0  0  0
 18 35  1  0  0  0  0
 19 21  2  0  0  0  0
 19 36  1  0  0  0  0
 20 21  1  0  0  0  0
 20 37  1  0  0  0  0
 21 38  1  0  0  0  0
M  END
> <PUBCHEM_COMPOUND_CID>
51137085

> <PUBCHEM_CONFORMER_RMSD>
0.6

> <PUBCHEM_CONFORMER_DIVERSEORDER>
1
107
110
76
167
178
161
155
157
65
164
98
43
177
83
137
149
13
111
36
140
32
58
38
136
77
108
96
127
162
52
112
97
24
90
106
135
95
86
80
173
170
75
144
119
109
163
93
85
28
87
151
118
134
113
66
55
130
34
89
67
104
99
114
101
56
19
116
69
158
37
145
91
16
73
128
143
148
146
20
159
150
165
132
156
172
33
68
63
27
64
81
175
176
23
153
122
25
147
88
171
14
12
125
30
126
92
60
105
47
168
142
141
51
94
138
26
100
123
50
5
31
8
84
57
9
71
11
129
21
2
115
17
10
41
160
102
70
4
103
117
18
79
3
61
48
78
44
22
74
49
166
35
39
15
6
154
72
152
124
133
54
59
29
121
7
174
53
120
45
42
46
40
131
169
62
139
82

> <PUBCHEM_MMFF94_PARTIAL_CHARGES>
28
1 -0.08
10 0.41
11 0.17
12 0.04
13 0.23
14 -0.15
15 -0.15
16 -0.15
17 -0.15
18 -0.15
19 -0.15
2 -0.81
20 0.16
21 -0.15
3 -0.57
31 0.15
32 0.15
33 0.15
34 0.15
35 0.15
36 0.15
37 0.15
38 0.15
4 -0.62
5 0.18
7 0.27
8 0.27
9 0.2

> <PUBCHEM_EFFECTIVE_ROTOR_COUNT>
4

> <PUBCHEM_PHARMACOPHORE_FEATURES>
7
1 2 cation
1 3 acceptor
1 4 acceptor
5 1 3 9 12 13 rings
5 2 5 6 7 8 rings
6 12 13 15 16 17 18 rings
6 4 11 14 19 20 21 rings

> <PUBCHEM_HEAVY_ATOM_COUNT>
21

> <PUBCHEM_ATOM_DEF_STEREO_COUNT>
1

> <PUBCHEM_ATOM_UDEF_STEREO_COUNT>
0

> <PUBCHEM_BOND_DEF_STEREO_COUNT>
0

> <PUBCHEM_BOND_UDEF_STEREO_COUNT>
0

> <PUBCHEM_ISOTOPIC_ATOM_COUNT>
0

> <PUBCHEM_COMPONENT_COUNT>
1

> <PUBCHEM_CACTVS_TAUTO_COUNT>
1

> <PUBCHEM_CONFORMER_ID>
030C4A3D00000001

> <PUBCHEM_MMFF94_ENERGY>
45.9087

> <PUBCHEM_FEATURE_SELFOVERLAP>
35.594

> <PUBCHEM_SHAPE_FINGERPRINT>
10 15 15068623825135292788
10299344 5 18202565090539813751
10411042 1 17976819788939947218
10595046 47 18412543193713744675
106641 1 13912612683921504116
11287383 113 18409166614742473083
11315181 36 18410293623742291173
11646440 116 17240489099751136180
11796584 16 14045734941863131580
12107183 9 17548419206868049139
12166972 35 18335141998924729404
12236239 1 18131069324925302982
12516196 113 8934999269731759046
12730499 353 18113339691627994834
12788726 201 17131838612227037867
12916748 109 17095240298412946444
13167372 99 18340206293526046640
13533116 47 17168416065959562946
1420 363 17313106341392260003
14251732 16 18335140929530145851
14251752 14 17418375774604573113
14251764 18 18113614587125790208
14464042 87 18202289086929880568
14528608 73 18412262852465916934
14849402 71 18263088867015288133
14856354 85 17560804364306110207
14933364 13 18412265030003929421
15048467 5 18342458128036781437
15183329 4 18060420200887576441
15537594 2 15841548561562645247
17834072 33 18413386535932374902
17834072 8 14476958987134822293
17844677 252 18337394829466709973
18006028 8 11167942458984850442
18335252 98 18336271219031027123
19489759 90 11530481125903955071
200 152 18131349704743394986
20157964 124 18409168814377456954
20281389 69 17894345579614399348
20645477 70 18338797819700727254
220451 1 17703789215262664799
22079108 93 17530963600604310378
221357 26 18410009927698354532
22224240 67 16515684463531490609
23035841 295 17704353273412385943
23081809 10 18131061624212653647
23198884 109 18411983563843818403
23402539 116 17846493729613765117
23536379 177 18343301452975185755
23559900 14 18336261352941989409
23569943 247 17460867393898935130
23622692 88 14417855856022272610
2916195 48 17748823007848719293
29717793 49 17704078378689290556
3004659 81 18060421283789099302
335352 9 18335425665273329222
347723 3 17060338521976059330
34797466 226 18273221901746041790
3545911 37 18186802482794990534
4073 2 18114186375378784146
4325135 7 18410573994363839231
4340502 62 16877942728794358714
5104073 3 16154539862516083825
5283156 175 17060062515125855726
53794403 172 17677903529048314332
542803 24 18343862212389810695
59682541 35 16950290637173484489
59755656 520 17749104517270038818
9996256 80 18408319986372578263

> <PUBCHEM_SHAPE_MULTIPOLES>
421.08
18.45
1.5
0.98
6.45
0.06
-0.19
3.76
2.1
-1.17
0.01
0.57
-0.05
-0.7

> <PUBCHEM_SHAPE_SELFOVERLAP>
907.557

> <PUBCHEM_SHAPE_VOLUME>
234.3

> <PUBCHEM_COORDINATE_TYPE>
2
5
10

$$$$
