26743424
  -OEChem-12032416183D

 55 57  0     1  0  0  0  0  0999 V2000
   -7.9253    2.4300    0.6360 F   0  0  0  0  0  0  0  0  0  0  0  0
   -8.7778    0.4694    0.2399 F   0  0  0  0  0  0  0  0  0  0  0  0
   -8.2660    1.7917   -1.4085 F   0  0  0  0  0  0  0  0  0  0  0  0
    4.7436    1.8018    0.3126 O   0  0  0  0  0  0  0  0  0  0  0  0
   10.8816    0.1895   -1.1561 O   0  0  0  0  0  0  0  0  0  0  0  0
    9.6277    2.0829   -1.1809 O   0  0  0  0  0  0  0  0  0  0  0  0
    3.9233   -0.2316    1.0721 N   0  0  0  0  0  0  0  0  0  0  0  0
   -2.6383   -0.9452   -0.3486 N   0  0  0  0  0  0  0  0  0  0  0  0
   -2.4078   -2.0155   -1.1281 N   0  0  0  0  0  0  0  0  0  0  0  0
    0.9102   -1.3445    0.4692 C   0  0  2  0  0  0  0  0  0  0  0  0
    1.6288   -0.0127    0.1693 C   0  0  0  0  0  0  0  0  0  0  0  0
    2.5854    0.2215    1.3450 C   0  0  1  0  0  0  0  0  0  0  0  0
   -0.5229   -1.3714   -0.0102 C   0  0  0  0  0  0  0  0  0  0  0  0
    1.0775   -1.4733    1.9555 C   0  0  0  0  0  0  0  0  0  0  0  0
    1.9936   -0.6208    2.4268 C   0  0  0  0  0  0  0  0  0  0  0  0
   -1.5414   -0.5199    0.3418 C   0  0  0  0  0  0  0  0  0  0  0  0
   -1.1140   -2.2712   -0.9173 C   0  0  0  0  0  0  0  0  0  0  0  0
   -1.5591    0.6387    1.2578 C   0  0  0  0  0  0  0  0  0  0  0  0
    4.9039    0.6120    0.5709 C   0  0  0  0  0  0  0  0  0  0  0  0
   -0.4758   -3.4013   -1.6152 C   0  0  0  0  0  0  0  0  0  0  0  0
   -3.9137   -0.3810   -0.3072 C   0  0  0  0  0  0  0  0  0  0  0  0
    6.2148   -0.1227    0.3465 C   0  0  0  0  0  0  0  0  0  0  0  0
    7.3292    0.7639   -0.2059 C   0  0  0  0  0  0  0  0  0  0  0  0
   -5.0020   -1.1452    0.1136 C   0  0  0  0  0  0  0  0  0  0  0  0
   -4.1006    0.9471   -0.6907 C   0  0  0  0  0  0  0  0  0  0  0  0
    8.6372   -0.0033   -0.4096 C   0  0  0  0  0  0  0  0  0  0  0  0
   -6.2772   -0.5814    0.1509 C   0  0  0  0  0  0  0  0  0  0  0  0
   -5.3758    1.5109   -0.6534 C   0  0  0  0  0  0  0  0  0  0  0  0
   -6.4642    0.7467   -0.2325 C   0  0  0  0  0  0  0  0  0  0  0  0
    9.7331    0.8863   -0.9508 C   0  0  0  0  0  0  0  0  0  0  0  0
   -7.8279    1.3488   -0.1929 C   0  0  0  0  0  0  0  0  0  0  0  0
    1.4644   -2.1675   -0.0008 H   0  0  0  0  0  0  0  0  0  0  0  0
    2.1477   -0.0555   -0.7961 H   0  0  0  0  0  0  0  0  0  0  0  0
    0.9281    0.8279    0.1031 H   0  0  0  0  0  0  0  0  0  0  0  0
    2.5986    1.2805    1.6235 H   0  0  0  0  0  0  0  0  0  0  0  0
    0.5493   -2.1918    2.5666 H   0  0  0  0  0  0  0  0  0  0  0  0
    2.2856   -0.5603    3.4657 H   0  0  0  0  0  0  0  0  0  0  0  0
    4.1456   -1.2138    1.2130 H   0  0  0  0  0  0  0  0  0  0  0  0
   -1.4617    1.5746    0.6985 H   0  0  0  0  0  0  0  0  0  0  0  0
   -2.4836    0.6791    1.8434 H   0  0  0  0  0  0  0  0  0  0  0  0
   -0.7431    0.6051    1.9831 H   0  0  0  0  0  0  0  0  0  0  0  0
   -0.0833   -4.1256   -0.8941 H   0  0  0  0  0  0  0  0  0  0  0  0
   -1.1798   -3.9286   -2.2677 H   0  0  0  0  0  0  0  0  0  0  0  0
    0.3547   -3.0498   -2.2360 H   0  0  0  0  0  0  0  0  0  0  0  0
    6.5282   -0.5550    1.3045 H   0  0  0  0  0  0  0  0  0  0  0  0
    6.0249   -0.9509   -0.3469 H   0  0  0  0  0  0  0  0  0  0  0  0
    7.0085    1.2053   -1.1583 H   0  0  0  0  0  0  0  0  0  0  0  0
    7.4986    1.6063    0.4772 H   0  0  0  0  0  0  0  0  0  0  0  0
   -4.8737   -2.1808    0.4194 H   0  0  0  0  0  0  0  0  0  0  0  0
   -3.2690    1.5559   -1.0368 H   0  0  0  0  0  0  0  0  0  0  0  0
    8.9761   -0.4192    0.5455 H   0  0  0  0  0  0  0  0  0  0  0  0
    8.4784   -0.8214   -1.1207 H   0  0  0  0  0  0  0  0  0  0  0  0
   -7.1114   -1.1934    0.4825 H   0  0  0  0  0  0  0  0  0  0  0  0
   -5.5123    2.5453   -0.9573 H   0  0  0  0  0  0  0  0  0  0  0  0
   11.5979    0.7610   -1.5062 H   0  0  0  0  0  0  0  0  0  0  0  0
  1 31  1  0  0  0  0
  2 31  1  0  0  0  0
  3 31  1  0  0  0  0
  4 19  2  0  0  0  0
  5 30  1  0  0  0  0
  5 55  1  0  0  0  0
  6 30  2  0  0  0  0
  7 12  1  0  0  0  0
  7 19  1  0  0  0  0
  7 38  1  0  0  0  0
  8  9  1  0  0  0  0
  8 16  1  0  0  0  0
  8 21  1  0  0  0  0
  9 17  2  0  0  0  0
 10 11  1  0  0  0  0
 10 13  1  0  0  0  0
 10 14  1  0  0  0  0
 10 32  1  0  0  0  0
 11 12  1  0  0  0  0
 11 33  1  0  0  0  0
 11 34  1  0  0  0  0
 12 15  1  0  0  0  0
 12 35  1  0  0  0  0
 13 16  2  0  0  0  0
 13 17  1  0  0  0  0
 14 15  2  0  0  0  0
 14 36  1  0  0  0  0
 15 37  1  0  0  0  0
 16 18  1  0  0  0  0
 17 20  1  0  0  0  0
 18 39  1  0  0  0  0
 18 40  1  0  0  0  0
 18 41  1  0  0  0  0
 19 22  1  0  0  0  0
 20 42  1  0  0  0  0
 20 43  1  0  0  0  0
 20 44  1  0  0  0  0
 21 24  2  0  0  0  0
 21 25  1  0  0  0  0
 22 23  1  0  0  0  0
 22 45  1  0  0  0  0
 22 46  1  0  0  0  0
 23 26  1  0  0  0  0
 23 47  1  0  0  0  0
 23 48  1  0  0  0  0
 24 27  1  0  0  0  0
 24 49  1  0  0  0  0
 25 28  2  0  0  0  0
 25 50  1  0  0  0  0
 26 30  1  0  0  0  0
 26 51  1  0  0  0  0
 26 52  1  0  0  0  0
 27 29  2  0  0  0  0
 27 53  1  0  0  0  0
 28 29  1  0  0  0  0
 28 54  1  0  0  0  0
 29 31  1  0  0  0  0
M  END
> <PUBCHEM_COMPOUND_CID>
26743424

> <PUBCHEM_CONFORMER_RMSD>
1

> <PUBCHEM_CONFORMER_DIVERSEORDER>
1
45
38
25
10
24
41
3
36
35
27
9
46
42
29
23
8
21
43
37
2
11
22
6
13
33
7
44
26
48
15
14
20
39
28
19
47
18
34
5
40
31
4
12
16
32
17
30

> <PUBCHEM_MMFF94_PARTIAL_CHARGES>
37
1 -0.34
10 0.32
12 0.44
13 -0.18
14 -0.29
15 -0.29
16 -0.33
17 0.11
18 0.18
19 0.57
2 -0.34
20 0.18
21 -0.02
22 0.06
24 -0.15
25 -0.15
26 0.06
27 -0.15
28 -0.15
29 -0.14
3 -0.34
30 0.66
31 1.16
36 0.15
37 0.15
38 0.37
4 -0.57
49 0.15
5 -0.65
50 0.15
53 0.15
54 0.15
55 0.5
6 -0.57
7 -0.73
8 0.59
9 -0.71

> <PUBCHEM_EFFECTIVE_ROTOR_COUNT>
9.6

> <PUBCHEM_PHARMACOPHORE_FEATURES>
9
1 4 acceptor
1 5 acceptor
1 6 acceptor
1 7 donor
1 9 acceptor
3 5 6 30 anion
5 10 11 12 14 15 rings
5 8 9 13 16 17 rings
6 21 24 25 27 28 29 rings

> <PUBCHEM_HEAVY_ATOM_COUNT>
31

> <PUBCHEM_ATOM_DEF_STEREO_COUNT>
2

> <PUBCHEM_ATOM_UDEF_STEREO_COUNT>
0

> <PUBCHEM_BOND_DEF_STEREO_COUNT>
0

> <PUBCHEM_BOND_UDEF_STEREO_COUNT>
0

> <PUBCHEM_ISOTOPIC_ATOM_COUNT>
0

> <PUBCHEM_COMPONENT_COUNT>
1

> <PUBCHEM_CACTVS_TAUTO_COUNT>
2

> <PUBCHEM_CONFORMER_ID>
0198128000000001

> <PUBCHEM_MMFF94_ENERGY>
63.8361

> <PUBCHEM_FEATURE_SELFOVERLAP>
45.73

> <PUBCHEM_SHAPE_FINGERPRINT>
10 15 13045938024126997088
10165383 225 18202282494481608823
10190206 1 17704080551220491641
10369192 42 18412538800136274845
10483366 6 17988926661115827096
106641 1 14490193812487251505
10670039 82 17561366154270546761
10674148 151 15985108500303218954
10883706 17 12535047768305965485
10930396 42 12612752445241437932
11135609 99 9799397941152933160
11408170 108 12823029620606984004
11408170 132 18342459301275698436
11411753 3 17201340004897335642
12758862 11 17489583507054094922
14040221 97 18265330596143611509
14068700 675 11167943575908923930
14117953 113 17775573048723261044
14150022 121 14418121890512661487
14849402 71 17240485840250714852
15183329 4 17847062177563363754
15326923 82 10879988056626507058
15347590 135 13334729116374954436
15350500 16 12607404382398410368
15392192 104 15864072078727250608
15690457 1 11743841357363707828
15706992 2 17749399151873121569
15728490 51 10953460743245847768
1577012 14 18187917391996755914
15961568 22 18334853875691949189
16992610 120 18343022194112039878
18603816 31 10375858667977261793
20505436 4 18187356636661457538
20721686 146 18187920617833707013
21033648 29 17987778822415914051
21095123 293 17894630353384846444
21130935 74 8645956364174587028
212700 22 11815897851679752668
21360443 89 10663821854856294692
21585482 111 18188767224639659397
21781055 127 17632014131104210034
21792961 116 17632864139444203899
21895431 317 13757810162174583404
22224240 67 15357696387953431194
23559900 14 17202474680128680730
23576562 1 18057306491970402229
249057 3 18130787897768297576
335352 9 18131066047685888541
3711267 37 18040725740048000604
4149490 64 11887371656091529263
4516262 110 17967802830215918535
474113 269 15913055266864696438
4760202 170 18059571456392230368
5104073 3 13841083847465164905
54076057 127 15357970141475976688
5758199 1 17022900155730291786
59682541 35 13190340180142139164
5969126 39 14405194954386130330
6201320 82 18194119621674621669
9663363 56 17060618898891640792
9689198 14 18113901563480970306
9953998 17 15357700803237950505

> <PUBCHEM_SHAPE_MULTIPOLES>
583.59
30.88
2.28
1.47
45.84
0.99
-0.52
-23.27
12.7
-2.22
0.97
1.18
0.4
-0.86

> <PUBCHEM_SHAPE_SELFOVERLAP>
1243.592

> <PUBCHEM_SHAPE_VOLUME>
326.7

> <PUBCHEM_COORDINATE_TYPE>
2
5
10

$$$$
