40777339
  -OEChem-12032416173D

 64 66  0     1  0  0  0  0  0999 V2000
   -2.7865   -2.0558   -1.0148 O   0  0  0  0  0  0  0  0  0  0  0  0
    4.8518    0.1003   -1.7183 O   0  0  0  0  0  0  0  0  0  0  0  0
    0.5579    2.8369    0.0570 N   0  0  0  0  0  0  0  0  0  0  0  0
    5.6562   -0.4177    0.3945 N   0  0  0  0  0  0  0  0  0  0  0  0
   -1.4302   -1.8758   -1.2575 N   0  0  0  0  0  0  0  0  0  0  0  0
    0.7879    0.4353   -0.5309 C   0  0  2  0  0  0  0  0  0  0  0  0
    2.2579    0.6513   -0.9628 C   0  0  1  0  0  0  0  0  0  0  0  0
    2.4537    2.1248   -1.3576 C   0  0  0  0  0  0  0  0  0  0  0  0
    0.3482    1.4657    0.5229 C   0  0  0  0  0  0  0  0  0  0  0  0
    0.5101   -0.9864   -0.0407 C   0  0  0  0  0  0  0  0  0  0  0  0
   -5.3855   -0.6566    0.0449 C   0  0  0  0  0  0  0  0  0  0  0  0
    3.2868    0.2280    0.0924 C   0  0  0  0  0  0  0  0  0  0  0  0
    1.9575    3.0882   -0.2803 C   0  0  0  0  0  0  0  0  0  0  0  0
   -6.8401   -0.8559    0.4915 C   0  0  0  0  0  0  0  0  0  0  0  0
   -4.8883    0.7477    0.4131 C   0  0  0  0  0  0  0  0  0  0  0  0
   -4.4823   -1.7262    0.6562 C   0  0  0  0  0  0  0  0  0  0  0  0
   -7.7547    0.2333   -0.0643 C   0  0  0  0  0  0  0  0  0  0  0  0
   -5.8062    1.8343   -0.1424 C   0  0  0  0  0  0  0  0  0  0  0  0
   -7.2526    1.6280    0.2964 C   0  0  0  0  0  0  0  0  0  0  0  0
   -0.9494   -1.3238   -0.1399 C   0  0  0  0  0  0  0  0  0  0  0  0
   -3.0816   -1.6101    0.2330 C   0  0  0  0  0  0  0  0  0  0  0  0
    4.6588   -0.0308   -0.5068 C   0  0  0  0  0  0  0  0  0  0  0  0
   -1.9460   -1.1337    0.8330 C   0  0  0  0  0  0  0  0  0  0  0  0
    7.0226   -0.7018   -0.0266 C   0  0  0  0  0  0  0  0  0  0  0  0
    5.4037   -0.5665    1.8259 C   0  0  0  0  0  0  0  0  0  0  0  0
    7.1994   -2.1621   -0.3878 C   0  0  0  0  0  0  0  0  0  0  0  0
    5.6508    0.7294    2.5701 C   0  0  0  0  0  0  0  0  0  0  0  0
    0.1771    0.6130   -1.4301 H   0  0  0  0  0  0  0  0  0  0  0  0
    2.4127    0.0423   -1.8641 H   0  0  0  0  0  0  0  0  0  0  0  0
    1.8990    2.3166   -2.2862 H   0  0  0  0  0  0  0  0  0  0  0  0
    3.5042    2.3404   -1.5809 H   0  0  0  0  0  0  0  0  0  0  0  0
   -0.7193    1.3612    0.7375 H   0  0  0  0  0  0  0  0  0  0  0  0
    0.8795    1.3079    1.4696 H   0  0  0  0  0  0  0  0  0  0  0  0
    0.8347   -1.1207    0.9984 H   0  0  0  0  0  0  0  0  0  0  0  0
    1.0718   -1.7107   -0.6451 H   0  0  0  0  0  0  0  0  0  0  0  0
   -5.3505   -0.7514   -1.0499 H   0  0  0  0  0  0  0  0  0  0  0  0
    2.9735   -0.7241    0.5284 H   0  0  0  0  0  0  0  0  0  0  0  0
    3.3532    0.9645    0.8940 H   0  0  0  0  0  0  0  0  0  0  0  0
    2.5814    3.0344    0.6187 H   0  0  0  0  0  0  0  0  0  0  0  0
    2.0446    4.1131   -0.6579 H   0  0  0  0  0  0  0  0  0  0  0  0
    0.2638    3.4889    0.7836 H   0  0  0  0  0  0  0  0  0  0  0  0
   -6.8990   -0.8504    1.5875 H   0  0  0  0  0  0  0  0  0  0  0  0
   -7.2030   -1.8358    0.1590 H   0  0  0  0  0  0  0  0  0  0  0  0
   -3.8827    0.9270    0.0170 H   0  0  0  0  0  0  0  0  0  0  0  0
   -4.8272    0.8507    1.5042 H   0  0  0  0  0  0  0  0  0  0  0  0
   -4.8562   -2.7207    0.3809 H   0  0  0  0  0  0  0  0  0  0  0  0
   -4.5350   -1.6765    1.7516 H   0  0  0  0  0  0  0  0  0  0  0  0
   -8.7700    0.0954    0.3242 H   0  0  0  0  0  0  0  0  0  0  0  0
   -7.8144    0.1376   -1.1554 H   0  0  0  0  0  0  0  0  0  0  0  0
   -5.7532    1.8318   -1.2381 H   0  0  0  0  0  0  0  0  0  0  0  0
   -5.4570    2.8179    0.1917 H   0  0  0  0  0  0  0  0  0  0  0  0
   -7.8921    2.3835   -0.1738 H   0  0  0  0  0  0  0  0  0  0  0  0
   -7.3291    1.7741    1.3809 H   0  0  0  0  0  0  0  0  0  0  0  0
   -1.8553   -0.7153    1.8245 H   0  0  0  0  0  0  0  0  0  0  0  0
    7.2474   -0.0915   -0.9087 H   0  0  0  0  0  0  0  0  0  0  0  0
    7.7224   -0.4053    0.7619 H   0  0  0  0  0  0  0  0  0  0  0  0
    4.3838   -0.9074    2.0154 H   0  0  0  0  0  0  0  0  0  0  0  0
    6.0586   -1.3521    2.2211 H   0  0  0  0  0  0  0  0  0  0  0  0
    6.9953   -2.8116    0.4694 H   0  0  0  0  0  0  0  0  0  0  0  0
    6.5191   -2.4542   -1.1947 H   0  0  0  0  0  0  0  0  0  0  0  0
    8.2245   -2.3508   -0.7212 H   0  0  0  0  0  0  0  0  0  0  0  0
    6.6958    1.0432    2.4760 H   0  0  0  0  0  0  0  0  0  0  0  0
    5.0314    1.5484    2.1947 H   0  0  0  0  0  0  0  0  0  0  0  0
    5.4348    0.6012    3.6354 H   0  0  0  0  0  0  0  0  0  0  0  0
  1  5  1  0  0  0  0
  1 21  1  0  0  0  0
  2 22  2  0  0  0  0
  3  9  1  0  0  0  0
  3 13  1  0  0  0  0
  3 41  1  0  0  0  0
  4 22  1  0  0  0  0
  4 24  1  0  0  0  0
  4 25  1  0  0  0  0
  5 20  2  0  0  0  0
  6  7  1  0  0  0  0
  6  9  1  0  0  0  0
  6 10  1  0  0  0  0
  6 28  1  0  0  0  0
  7  8  1  0  0  0  0
  7 12  1  0  0  0  0
  7 29  1  0  0  0  0
  8 13  1  0  0  0  0
  8 30  1  0  0  0  0
  8 31  1  0  0  0  0
  9 32  1  0  0  0  0
  9 33  1  0  0  0  0
 10 20  1  0  0  0  0
 10 34  1  0  0  0  0
 10 35  1  0  0  0  0
 11 14  1  0  0  0  0
 11 15  1  0  0  0  0
 11 16  1  0  0  0  0
 11 36  1  0  0  0  0
 12 22  1  0  0  0  0
 12 37  1  0  0  0  0
 12 38  1  0  0  0  0
 13 39  1  0  0  0  0
 13 40  1  0  0  0  0
 14 17  1  0  0  0  0
 14 42  1  0  0  0  0
 14 43  1  0  0  0  0
 15 18  1  0  0  0  0
 15 44  1  0  0  0  0
 15 45  1  0  0  0  0
 16 21  1  0  0  0  0
 16 46  1  0  0  0  0
 16 47  1  0  0  0  0
 17 19  1  0  0  0  0
 17 48  1  0  0  0  0
 17 49  1  0  0  0  0
 18 19  1  0  0  0  0
 18 50  1  0  0  0  0
 18 51  1  0  0  0  0
 19 52  1  0  0  0  0
 19 53  1  0  0  0  0
 20 23  1  0  0  0  0
 21 23  2  0  0  0  0
 23 54  1  0  0  0  0
 24 26  1  0  0  0  0
 24 55  1  0  0  0  0
 24 56  1  0  0  0  0
 25 27  1  0  0  0  0
 25 57  1  0  0  0  0
 25 58  1  0  0  0  0
 26 59  1  0  0  0  0
 26 60  1  0  0  0  0
 26 61  1  0  0  0  0
 27 62  1  0  0  0  0
 27 63  1  0  0  0  0
 27 64  1  0  0  0  0
M  END
> <PUBCHEM_COMPOUND_CID>
40777339

> <PUBCHEM_CONFORMER_RMSD>
1.4

> <PUBCHEM_CONFORMER_DIVERSEORDER>
1
21
32
44
89
31
70
4
82
15
27
85
23
41
81
76
52
19
83
34
5
26
20
71
35
47
48
87
17
46
86
62
69
16
51
67
91
10
59
36
92
43
93
63
68
7
58
55
38
66
57
84
50
37
33
78
88
24
72
80
79
64
39
74
73
2
12
8
45
65
30
29
18
22
90
3
75
54
56
28
49
13
11
61
14
53
9
6
60
42
40
25
77

> <PUBCHEM_MMFF94_PARTIAL_CHARGES>
18
1 -0.02
10 0.18
12 0.06
13 0.27
16 0.18
2 -0.57
20 0.11
21 -0.04
22 0.57
23 -0.15
24 0.3
25 0.3
3 -0.9
4 -0.66
41 0.36
5 -0.41
54 0.15
9 0.27

> <PUBCHEM_EFFECTIVE_ROTOR_COUNT>
11.4

> <PUBCHEM_PHARMACOPHORE_FEATURES>
7
1 2 acceptor
1 3 cation
1 3 donor
1 5 acceptor
5 1 5 20 21 23 rings
6 11 14 15 17 18 19 rings
6 3 6 7 8 9 13 rings

> <PUBCHEM_HEAVY_ATOM_COUNT>
27

> <PUBCHEM_ATOM_DEF_STEREO_COUNT>
2

> <PUBCHEM_ATOM_UDEF_STEREO_COUNT>
0

> <PUBCHEM_BOND_DEF_STEREO_COUNT>
0

> <PUBCHEM_BOND_UDEF_STEREO_COUNT>
0

> <PUBCHEM_ISOTOPIC_ATOM_COUNT>
0

> <PUBCHEM_COMPONENT_COUNT>
1

> <PUBCHEM_CACTVS_TAUTO_COUNT>
1

> <PUBCHEM_CONFORMER_ID>
026E367B00000001

> <PUBCHEM_MMFF94_ENERGY>
28.5734

> <PUBCHEM_FEATURE_SELFOVERLAP>
35.522

> <PUBCHEM_SHAPE_FINGERPRINT>
10299344 5 17022904553355121162
10319926 262 18334856177667546659
10674148 151 18113900451564605866
11089746 13 18408884070941300775
11646440 116 17989214750321315113
12107183 9 18408039619645285323
12592606 108 18334859432720337783
14117953 113 18272378542559033126
14123256 10 10519983764251732931
14223995 32 18267859485297482033
14251764 18 18186522128567348007
14347424 109 18341607136376071352
14466204 15 18410293597170855113
14675019 173 17530969081209941053
15131766 46 16412917605142733120
15142383 8 17894343371927154868
15183329 4 17967251996570681667
15238133 3 18334299776953416031
15352257 5 14490192713102264017
15461852 350 17203607133533033623
15537594 2 11386363790307833409
15849732 13 18272931613496653823
20511986 3 17131541829976412446
20567600 234 15913325827543569480
20832881 197 18261677055772311394
21033648 29 17774139315087394178
21223535 225 16414927344926101713
21365058 27 14418139508552756097
21774942 28 16701751428014276561
21792934 111 18411974763814901856
21859007 373 18272927202871436321
22224240 67 11024106538483245254
23522609 53 17241350030356118565
24893992 56 18333452067660309947
2838139 119 18411136953355769981
3004659 81 17967254204785277990
3009799 131 17275105024776294019
335352 9 18409732867588802189
4258327 124 11671195576218880954
5104073 3 18042968855711132369
513202 73 16226317119774887197
5207 217 10015863180374375134
57724786 102 17823421680769933013
58260988 647 14924494235923427992
59755656 520 17313104185767486675
6081469 158 17846222129542360254
6138700 20 18409170987493739241
6328613 192 18115037410221308805
8988823 20 16200158677388106406

> <PUBCHEM_SHAPE_MULTIPOLES>
528.97
21.59
2.63
1.36
8.73
1.29
-0.52
-3.14
-3.88
0.25
0.41
-2.55
0.07
-0.04

> <PUBCHEM_SHAPE_SELFOVERLAP>
1073.729

> <PUBCHEM_SHAPE_VOLUME>
304.3

> <PUBCHEM_COORDINATE_TYPE>
2
5
10

$$$$
