44716889
  -OEChem-12032416313D

 77 79  0     1  0  0  0  0  0999 V2000
   -4.1627   -0.0611   -0.0584 O   0  0  0  0  0  0  0  0  0  0  0  0
    1.7545    4.1007    0.2932 O   0  0  0  0  0  0  0  0  0  0  0  0
   -4.5593    2.4102   -1.1866 O   0  0  0  0  0  0  0  0  0  0  0  0
    4.4554    1.7777    1.4153 O   0  0  0  0  0  0  0  0  0  0  0  0
   -3.8100   -2.3258    0.0873 O   0  0  0  0  0  0  0  0  0  0  0  0
    3.1862   -3.1733    0.4406 O   0  0  0  0  0  0  0  0  0  0  0  0
    3.4730   -0.2863    1.8346 N   0  0  0  0  0  0  0  0  0  0  0  0
   -5.9462   -1.4206    0.1068 N   0  0  0  0  0  0  0  0  0  0  0  0
   -0.2660    1.7194    0.6379 C   0  0  2  0  0  0  0  0  0  0  0  0
   -0.8538    1.7039   -0.8262 C   0  0  1  0  0  0  0  0  0  0  0  0
   -2.3978    1.4165   -0.9657 C   0  0  1  0  0  0  0  0  0  0  0  0
    1.3132    1.7020    0.5025 C   0  0  1  0  0  0  0  0  0  0  0  0
   -0.7298    0.4299    1.3673 C   0  0  0  0  0  0  0  0  0  0  0  0
   -0.3485    2.9182   -1.6361 C   0  0  0  0  0  0  0  0  0  0  0  0
   -2.7528    0.1507   -0.1283 C   0  0  1  0  0  0  0  0  0  0  0  0
    1.8681    2.8482   -0.3747 C   0  0  1  0  0  0  0  0  0  0  0  0
   -2.2348    0.1954    1.3050 C   0  0  0  0  0  0  0  0  0  0  0  0
    1.1775    2.9240   -1.7334 C   0  0  0  0  0  0  0  0  0  0  0  0
   -0.7261    2.9360    1.4775 C   0  0  0  0  0  0  0  0  0  0  0  0
   -3.2975    2.6111   -0.5885 C   0  0  0  0  0  0  0  0  0  0  0  0
   -2.7235    1.0966   -2.4536 C   0  0  0  0  0  0  0  0  0  0  0  0
    2.0760    1.6496    1.8361 C   0  0  0  0  0  0  0  0  0  0  0  0
    3.4693    1.0908    1.6677 C   0  0  0  0  0  0  0  0  0  0  0  0
   -4.5696   -1.3633    0.0492 C   0  0  0  0  0  0  0  0  0  0  0  0
    4.6685   -1.0909    1.7277 C   0  0  0  0  0  0  0  0  0  0  0  0
   -6.6936   -2.6515    0.2227 C   0  0  0  0  0  0  0  0  0  0  0  0
    4.9263   -1.5291    0.3150 C   0  0  0  0  0  0  0  0  0  0  0  0
   -6.8770   -3.0299    1.6872 C   0  0  0  0  0  0  0  0  0  0  0  0
   -8.0354   -2.5249   -0.4869 C   0  0  0  0  0  0  0  0  0  0  0  0
    4.1728   -2.5505   -0.2633 C   0  0  0  0  0  0  0  0  0  0  0  0
    5.9330   -0.9032   -0.4202 C   0  0  0  0  0  0  0  0  0  0  0  0
    4.4258   -2.9459   -1.5768 C   0  0  0  0  0  0  0  0  0  0  0  0
    6.1861   -1.2986   -1.7337 C   0  0  0  0  0  0  0  0  0  0  0  0
    5.4324   -2.3200   -2.3121 C   0  0  0  0  0  0  0  0  0  0  0  0
    2.4662   -4.2063   -0.2291 C   0  0  0  0  0  0  0  0  0  0  0  0
   -0.3819    0.8288   -1.3046 H   0  0  0  0  0  0  0  0  0  0  0  0
    1.5569    0.7736   -0.0377 H   0  0  0  0  0  0  0  0  0  0  0  0
   -0.2254   -0.4421    0.9302 H   0  0  0  0  0  0  0  0  0  0  0  0
   -0.4452    0.4544    2.4250 H   0  0  0  0  0  0  0  0  0  0  0  0
   -0.6920    3.8611   -1.2001 H   0  0  0  0  0  0  0  0  0  0  0  0
   -0.7398    2.8928   -2.6579 H   0  0  0  0  0  0  0  0  0  0  0  0
   -2.2745   -0.7018   -0.6326 H   0  0  0  0  0  0  0  0  0  0  0  0
    2.9375    2.6878   -0.5527 H   0  0  0  0  0  0  0  0  0  0  0  0
   -2.4589   -0.7523    1.8109 H   0  0  0  0  0  0  0  0  0  0  0  0
   -2.7773    0.9489    1.8865 H   0  0  0  0  0  0  0  0  0  0  0  0
    1.4934    2.0671   -2.3420 H   0  0  0  0  0  0  0  0  0  0  0  0
    1.4905    3.8295   -2.2667 H   0  0  0  0  0  0  0  0  0  0  0  0
   -1.7826    2.8909    1.7421 H   0  0  0  0  0  0  0  0  0  0  0  0
   -0.1869    2.9856    2.4295 H   0  0  0  0  0  0  0  0  0  0  0  0
   -0.5753    3.8894    0.9684 H   0  0  0  0  0  0  0  0  0  0  0  0
   -2.9019    3.5562   -0.9692 H   0  0  0  0  0  0  0  0  0  0  0  0
   -3.4468    2.7050    0.4879 H   0  0  0  0  0  0  0  0  0  0  0  0
   -3.7099    0.6351   -2.5785 H   0  0  0  0  0  0  0  0  0  0  0  0
   -2.0001    0.3824   -2.8647 H   0  0  0  0  0  0  0  0  0  0  0  0
   -2.6952    1.9915   -3.0846 H   0  0  0  0  0  0  0  0  0  0  0  0
    2.1704    2.6423    2.2911 H   0  0  0  0  0  0  0  0  0  0  0  0
    1.5578    1.0384    2.5803 H   0  0  0  0  0  0  0  0  0  0  0  0
    2.1454    4.7797   -0.2825 H   0  0  0  0  0  0  0  0  0  0  0  0
   -5.1173    3.1697   -0.9475 H   0  0  0  0  0  0  0  0  0  0  0  0
    2.5978   -0.7719    2.0091 H   0  0  0  0  0  0  0  0  0  0  0  0
   -6.4555   -0.5417    0.1125 H   0  0  0  0  0  0  0  0  0  0  0  0
    4.5470   -1.9616    2.3818 H   0  0  0  0  0  0  0  0  0  0  0  0
    5.5174   -0.5183    2.1199 H   0  0  0  0  0  0  0  0  0  0  0  0
   -6.1159   -3.4450   -0.2666 H   0  0  0  0  0  0  0  0  0  0  0  0
   -7.4248   -3.9731    1.7823 H   0  0  0  0  0  0  0  0  0  0  0  0
   -5.9084   -3.1505    2.1847 H   0  0  0  0  0  0  0  0  0  0  0  0
   -7.4311   -2.2563    2.2304 H   0  0  0  0  0  0  0  0  0  0  0  0
   -8.5953   -3.4644   -0.4366 H   0  0  0  0  0  0  0  0  0  0  0  0
   -7.8934   -2.2711   -1.5431 H   0  0  0  0  0  0  0  0  0  0  0  0
   -8.6505   -1.7366   -0.0386 H   0  0  0  0  0  0  0  0  0  0  0  0
    6.5277   -0.1048    0.0158 H   0  0  0  0  0  0  0  0  0  0  0  0
    3.8823   -3.7303   -2.0919 H   0  0  0  0  0  0  0  0  0  0  0  0
    6.9695   -0.8109   -2.3064 H   0  0  0  0  0  0  0  0  0  0  0  0
    5.6303   -2.6268   -3.3350 H   0  0  0  0  0  0  0  0  0  0  0  0
    1.7223   -4.5895    0.4772 H   0  0  0  0  0  0  0  0  0  0  0  0
    3.1167   -5.0475   -0.4918 H   0  0  0  0  0  0  0  0  0  0  0  0
    1.9137   -3.8193   -1.0921 H   0  0  0  0  0  0  0  0  0  0  0  0
  1 15  1  0  0  0  0
  1 24  1  0  0  0  0
  2 16  1  0  0  0  0
  2 58  1  0  0  0  0
  3 20  1  0  0  0  0
  3 59  1  0  0  0  0
  4 23  2  0  0  0  0
  5 24  2  0  0  0  0
  6 30  1  0  0  0  0
  6 35  1  0  0  0  0
  7 23  1  0  0  0  0
  7 25  1  0  0  0  0
  7 60  1  0  0  0  0
  8 24  1  0  0  0  0
  8 26  1  0  0  0  0
  8 61  1  0  0  0  0
  9 10  1  0  0  0  0
  9 12  1  0  0  0  0
  9 13  1  0  0  0  0
  9 19  1  0  0  0  0
 10 11  1  0  0  0  0
 10 14  1  0  0  0  0
 10 36  1  0  0  0  0
 11 15  1  0  0  0  0
 11 20  1  0  0  0  0
 11 21  1  0  0  0  0
 12 16  1  0  0  0  0
 12 22  1  0  0  0  0
 12 37  1  0  0  0  0
 13 17  1  0  0  0  0
 13 38  1  0  0  0  0
 13 39  1  0  0  0  0
 14 18  1  0  0  0  0
 14 40  1  0  0  0  0
 14 41  1  0  0  0  0
 15 17  1  0  0  0  0
 15 42  1  0  0  0  0
 16 18  1  0  0  0  0
 16 43  1  0  0  0  0
 17 44  1  0  0  0  0
 17 45  1  0  0  0  0
 18 46  1  0  0  0  0
 18 47  1  0  0  0  0
 19 48  1  0  0  0  0
 19 49  1  0  0  0  0
 19 50  1  0  0  0  0
 20 51  1  0  0  0  0
 20 52  1  0  0  0  0
 21 53  1  0  0  0  0
 21 54  1  0  0  0  0
 21 55  1  0  0  0  0
 22 23  1  0  0  0  0
 22 56  1  0  0  0  0
 22 57  1  0  0  0  0
 25 27  1  0  0  0  0
 25 62  1  0  0  0  0
 25 63  1  0  0  0  0
 26 28  1  0  0  0  0
 26 29  1  0  0  0  0
 26 64  1  0  0  0  0
 27 30  1  0  0  0  0
 27 31  2  0  0  0  0
 28 65  1  0  0  0  0
 28 66  1  0  0  0  0
 28 67  1  0  0  0  0
 29 68  1  0  0  0  0
 29 69  1  0  0  0  0
 29 70  1  0  0  0  0
 30 32  2  0  0  0  0
 31 33  1  0  0  0  0
 31 71  1  0  0  0  0
 32 34  1  0  0  0  0
 32 72  1  0  0  0  0
 33 34  2  0  0  0  0
 33 73  1  0  0  0  0
 34 74  1  0  0  0  0
 35 75  1  0  0  0  0
 35 76  1  0  0  0  0
 35 77  1  0  0  0  0
M  END
> <PUBCHEM_COMPOUND_CID>
44716889

> <PUBCHEM_CONFORMER_RMSD>
1.2

> <PUBCHEM_CONFORMER_DIVERSEORDER>
1
56
13
35
62
67
53
27
16
31
50
54
34
29
59
64
24
37
15
18
48
43
14
20
66
40
51
30
68
45
47
12
23
39
55
44
3
42
17
63
38
36
60
19
26
58
7
32
49
57
28
33
4
46
65
9
8
52
6
61
21
11
41
25
22
2
10
5

> <PUBCHEM_MMFF94_PARTIAL_CHARGES>
31
1 -0.43
15 0.28
16 0.28
2 -0.68
20 0.28
22 0.06
23 0.57
24 0.78
25 0.44
26 0.3
27 -0.14
3 -0.68
30 0.08
31 -0.15
32 -0.15
33 -0.15
34 -0.15
35 0.28
4 -0.57
5 -0.57
58 0.4
59 0.4
6 -0.36
60 0.37
61 0.37
7 -0.73
71 0.15
72 0.15
73 0.15
74 0.15
8 -0.73

> <PUBCHEM_EFFECTIVE_ROTOR_COUNT>
12.6

> <PUBCHEM_PHARMACOPHORE_FEATURES>
13
1 2 acceptor
1 2 donor
1 3 acceptor
1 3 donor
1 4 acceptor
1 5 acceptor
1 6 acceptor
1 7 donor
1 8 donor
3 26 28 29 hydrophobe
6 27 30 31 32 33 34 rings
6 9 10 11 13 15 17 rings
6 9 10 12 14 16 18 rings

> <PUBCHEM_HEAVY_ATOM_COUNT>
35

> <PUBCHEM_ATOM_DEF_STEREO_COUNT>
5

> <PUBCHEM_ATOM_UDEF_STEREO_COUNT>
1

> <PUBCHEM_BOND_DEF_STEREO_COUNT>
0

> <PUBCHEM_BOND_UDEF_STEREO_COUNT>
0

> <PUBCHEM_ISOTOPIC_ATOM_COUNT>
0

> <PUBCHEM_COMPONENT_COUNT>
1

> <PUBCHEM_CACTVS_TAUTO_COUNT>
4

> <PUBCHEM_CONFORMER_ID>
02AA535900000001

> <PUBCHEM_MMFF94_ENERGY>
113.2669

> <PUBCHEM_FEATURE_SELFOVERLAP>
65.987

> <PUBCHEM_SHAPE_FINGERPRINT>
10169797 241 17774709863482085482
10981352 41 18272082855356399127
11607047 141 18198921360666083665
12047536 79 16845580798664056681
12422481 6 14620517766292339440
12623949 98 18337389464852220501
12633257 1 14907889488271449792
131258 43 18130520677888912556
13383661 66 18341902887096645546
13782708 43 18411979204784354719
14556957 393 15213287604877987751
14739800 52 9799424295050909181
15082195 135 12324777117369976307
15510800 12 18342446011718157886
15669420 48 18335147535695957340
16989378 47 17458349684348996119
20587220 46 17758128377325121027
20715895 44 11097857406488253078
20775530 9 18341323444420970575
21796203 349 16271353095249540570
23559900 14 18340198601382317112
24893989 43 17682395098388217739
25269216 80 17676494951488878143
3388396 114 14418138375109015198
3886686 26 17198286390723956699
4394409 98 16096824065942985602
46194498 28 18114455781365250980
5309563 4 18341614789485442594
57816373 69 18130505353128641031
86090 222 18413385458328822098
9831232 110 18408037429708167903

> <PUBCHEM_SHAPE_MULTIPOLES>
675.11
16.7
5.37
2.09
16.15
0.82
-0.27
22.06
-1.47
0.24
-0.83
-1.61
-0.46
3.56

> <PUBCHEM_SHAPE_SELFOVERLAP>
1396.568

> <PUBCHEM_SHAPE_VOLUME>
382.1

> <PUBCHEM_COORDINATE_TYPE>
2
5
10

$$$$
