56775488
  -OEChem-12032416383D

 48 51  0     0  0  0  0  0  0999 V2000
    6.7554    2.4426    0.6749 F   0  0  0  0  0  0  0  0  0  0  0  0
   -2.7174   -3.8963    1.0971 O   0  0  0  0  0  0  0  0  0  0  0  0
    2.6229   -2.2238   -0.0967 O   0  0  0  0  0  0  0  0  0  0  0  0
   -1.6966    2.4814   -0.6545 O   0  0  0  0  0  0  0  0  0  0  0  0
   -2.0360   -1.0281    0.4171 N   0  0  0  0  0  0  0  0  0  0  0  0
    1.4648   -2.9307   -0.3965 N   0  0  0  0  0  0  0  0  0  0  0  0
   -1.7291   -2.3789   -0.0327 C   0  0  0  0  0  0  0  0  0  0  0  0
   -3.0266   -3.1748   -0.1170 C   0  0  0  0  0  0  0  0  0  0  0  0
   -1.4292   -3.2457    1.1849 C   0  0  0  0  0  0  0  0  0  0  0  0
   -0.7614   -2.4071   -1.2233 C   0  0  0  0  0  0  0  0  0  0  0  0
   -2.5694   -0.2459   -0.6957 C   0  0  0  0  0  0  0  0  0  0  0  0
    0.5948   -2.0072   -0.8153 C   0  0  0  0  0  0  0  0  0  0  0  0
   -3.4352    0.8896   -0.2185 C   0  0  0  0  0  0  0  0  0  0  0  0
    1.1424   -0.7128   -0.8011 C   0  0  0  0  0  0  0  0  0  0  0  0
    2.4186   -0.9041   -0.3417 C   0  0  0  0  0  0  0  0  0  0  0  0
   -2.9572    2.2000   -0.2203 C   0  0  0  0  0  0  0  0  0  0  0  0
   -4.7286    0.6197    0.2285 C   0  0  0  0  0  0  0  0  0  0  0  0
    3.5410   -0.0374   -0.0775 C   0  0  0  0  0  0  0  0  0  0  0  0
   -3.7725    3.2404    0.2250 C   0  0  0  0  0  0  0  0  0  0  0  0
   -5.5439    1.6602    0.6741 C   0  0  0  0  0  0  0  0  0  0  0  0
   -5.0659    2.9705    0.6723 C   0  0  0  0  0  0  0  0  0  0  0  0
    3.4302    1.3351   -0.3007 C   0  0  0  0  0  0  0  0  0  0  0  0
    4.7375   -0.5719    0.4003 C   0  0  0  0  0  0  0  0  0  0  0  0
    4.5159    2.1729   -0.0465 C   0  0  0  0  0  0  0  0  0  0  0  0
    5.8233    0.2659    0.6545 C   0  0  0  0  0  0  0  0  0  0  0  0
   -1.2904    3.8481   -0.6218 C   0  0  0  0  0  0  0  0  0  0  0  0
    5.7125    1.6382    0.4311 C   0  0  0  0  0  0  0  0  0  0  0  0
   -3.1008   -3.8641   -0.9651 H   0  0  0  0  0  0  0  0  0  0  0  0
   -3.9767   -2.6403   -0.0208 H   0  0  0  0  0  0  0  0  0  0  0  0
   -1.3006   -2.7392    2.1475 H   0  0  0  0  0  0  0  0  0  0  0  0
   -0.6314   -3.9861    1.0707 H   0  0  0  0  0  0  0  0  0  0  0  0
   -1.1086   -1.8129   -2.0750 H   0  0  0  0  0  0  0  0  0  0  0  0
   -0.7171   -3.4346   -1.6125 H   0  0  0  0  0  0  0  0  0  0  0  0
   -1.2592   -0.5282    0.8478 H   0  0  0  0  0  0  0  0  0  0  0  0
   -3.1920   -0.8471   -1.3726 H   0  0  0  0  0  0  0  0  0  0  0  0
   -1.7575    0.1429   -1.3194 H   0  0  0  0  0  0  0  0  0  0  0  0
    0.6753    0.2180   -1.0869 H   0  0  0  0  0  0  0  0  0  0  0  0
   -5.1154   -0.3957    0.2345 H   0  0  0  0  0  0  0  0  0  0  0  0
   -3.4703    4.2816    0.2525 H   0  0  0  0  0  0  0  0  0  0  0  0
   -6.5511    1.4501    1.0220 H   0  0  0  0  0  0  0  0  0  0  0  0
   -5.7018    3.7799    1.0193 H   0  0  0  0  0  0  0  0  0  0  0  0
    2.5108    1.7804   -0.6721 H   0  0  0  0  0  0  0  0  0  0  0  0
    4.8621   -1.6355    0.5865 H   0  0  0  0  0  0  0  0  0  0  0  0
    4.4304    3.2415   -0.2202 H   0  0  0  0  0  0  0  0  0  0  0  0
    6.7553   -0.1495    1.0263 H   0  0  0  0  0  0  0  0  0  0  0  0
   -0.2634    3.8870   -0.9999 H   0  0  0  0  0  0  0  0  0  0  0  0
   -1.2661    4.2381    0.4015 H   0  0  0  0  0  0  0  0  0  0  0  0
   -1.8985    4.4666   -1.2908 H   0  0  0  0  0  0  0  0  0  0  0  0
  1 27  1  0  0  0  0
  2  8  1  0  0  0  0
  2  9  1  0  0  0  0
  3  6  1  0  0  0  0
  3 15  1  0  0  0  0
  4 16  1  0  0  0  0
  4 26  1  0  0  0  0
  5  7  1  0  0  0  0
  5 11  1  0  0  0  0
  5 34  1  0  0  0  0
  6 12  2  0  0  0  0
  7  8  1  0  0  0  0
  7  9  1  0  0  0  0
  7 10  1  0  0  0  0
  8 28  1  0  0  0  0
  8 29  1  0  0  0  0
  9 30  1  0  0  0  0
  9 31  1  0  0  0  0
 10 12  1  0  0  0  0
 10 32  1  0  0  0  0
 10 33  1  0  0  0  0
 11 13  1  0  0  0  0
 11 35  1  0  0  0  0
 11 36  1  0  0  0  0
 12 14  1  0  0  0  0
 13 16  1  0  0  0  0
 13 17  2  0  0  0  0
 14 15  2  0  0  0  0
 14 37  1  0  0  0  0
 15 18  1  0  0  0  0
 16 19  2  0  0  0  0
 17 20  1  0  0  0  0
 17 38  1  0  0  0  0
 18 22  2  0  0  0  0
 18 23  1  0  0  0  0
 19 21  1  0  0  0  0
 19 39  1  0  0  0  0
 20 21  2  0  0  0  0
 20 40  1  0  0  0  0
 21 41  1  0  0  0  0
 22 24  1  0  0  0  0
 22 42  1  0  0  0  0
 23 25  2  0  0  0  0
 23 43  1  0  0  0  0
 24 27  2  0  0  0  0
 24 44  1  0  0  0  0
 25 27  1  0  0  0  0
 25 45  1  0  0  0  0
 26 46  1  0  0  0  0
 26 47  1  0  0  0  0
 26 48  1  0  0  0  0
M  END
> <PUBCHEM_COMPOUND_CID>
56775488

> <PUBCHEM_CONFORMER_RMSD>
1

> <PUBCHEM_CONFORMER_DIVERSEORDER>
1
10
112
61
71
65
128
105
130
150
145
96
47
68
70
136
69
101
144
81
123
100
89
49
122
26
74
126
14
84
79
43
104
107
24
94
45
32
137
120
109
129
119
92
91
31
125
98
34
132
133
35
66
41
141
93
152
140
147
17
97
50
106
15
28
139
114
143
138
63
36
80
75
56
151
95
58
73
102
16
44
127
103
23
38
142
46
82
9
113
90
85
64
62
12
59
13
76
72
8
25
53
39
134
20
118
37
124
57
149
86
83
60
108
40
33
11
131
146
148
88
22
54
77
52
115
111
99
30
21
27
116
110
6
135
5
117
78
67
2
51
7
55
48
3
19
42
18
121
87
4
29

> <PUBCHEM_MMFF94_PARTIAL_CHARGES>
37
1 -0.19
10 0.18
11 0.41
12 0.11
13 -0.14
14 -0.15
15 0.09
16 0.08
17 -0.15
18 0.05
19 -0.15
2 -0.52
20 -0.15
21 -0.15
22 -0.15
23 -0.15
24 -0.15
25 -0.15
26 0.28
27 0.19
3 -0.02
34 0.36
37 0.15
38 0.15
39 0.15
4 -0.36
40 0.15
41 0.15
42 0.15
43 0.15
44 0.15
45 0.15
5 -0.84
6 -0.41
7 0.21
8 0.26
9 0.26

> <PUBCHEM_EFFECTIVE_ROTOR_COUNT>
7.8

> <PUBCHEM_PHARMACOPHORE_FEATURES>
9
1 2 acceptor
1 4 acceptor
1 5 cation
1 5 donor
1 6 acceptor
4 2 7 8 9 rings
5 3 6 12 14 15 rings
6 13 16 17 19 20 21 rings
6 18 22 23 24 25 27 rings

> <PUBCHEM_HEAVY_ATOM_COUNT>
27

> <PUBCHEM_ATOM_DEF_STEREO_COUNT>
0

> <PUBCHEM_ATOM_UDEF_STEREO_COUNT>
0

> <PUBCHEM_BOND_DEF_STEREO_COUNT>
0

> <PUBCHEM_BOND_UDEF_STEREO_COUNT>
0

> <PUBCHEM_ISOTOPIC_ATOM_COUNT>
0

> <PUBCHEM_COMPONENT_COUNT>
1

> <PUBCHEM_CACTVS_TAUTO_COUNT>
1

> <PUBCHEM_CONFORMER_ID>
0362534000000001

> <PUBCHEM_MMFF94_ENERGY>
74.9051

> <PUBCHEM_FEATURE_SELFOVERLAP>
45.672

> <PUBCHEM_SHAPE_FINGERPRINT>
10670039 82 18191317164055371988
11135609 187 18339065018264435037
12107183 9 18263351505045757890
12788726 201 18264475347478805027
12978246 48 18409167671331314824
13402501 40 18341331106574301576
14251764 75 17985275075600167553
14347329 18 18271799142843535360
14395042 24 18189622812489453907
14790565 3 18196376910123467401
14849402 71 18050009883078164530
15320467 1 18411419488362019912
15338160 23 18338236097606604372
15776043 110 17679290885373780666
18393751 57 18335148544855035955
19246450 95 17467035603007082984
21302155 148 18410300245801705108
21401589 2 18412268307364572611
23227448 37 18412546513628454207
23559900 14 18270683044095123718
24771293 8 18200328727245045483
2838139 119 18342735174422311670
3117164 225 18190165803487777538
3246875 12 18412266108763348945
392239 28 18336557040735648355
469060 322 18121799471024681059
5104073 3 18189600787833908850
5171179 24 17414418795560261441
5776283 40 18122927347260239870
5969126 39 18055907934554825423
6700243 42 17552675790226364030
7288768 16 18260550004809276987
7808743 9 18411976966352058690
9981440 41 18411418418814728939

> <PUBCHEM_SHAPE_MULTIPOLES>
520.8
13.41
5.33
0.95
13.11
1.06
-0.01
-12.61
-3.93
-4.59
-0.45
-0.19
0.33
0.61

> <PUBCHEM_SHAPE_SELFOVERLAP>
1133.22

> <PUBCHEM_SHAPE_VOLUME>
286.8

> <PUBCHEM_COORDINATE_TYPE>
2
5
10

$$$$
