11879572
  -OEChem-12032416253D

 59 63  0     1  0  0  0  0  0999 V2000
   -0.0363   -2.2309    0.7059 O   0  0  0  0  0  0  0  0  0  0  0  0
   -0.4574   -0.2288   -1.6828 O   0  0  0  0  0  0  0  0  0  0  0  0
    4.1131    0.7445   -0.7394 O   0  0  0  0  0  0  0  0  0  0  0  0
   -4.8789   -1.4648   -0.4437 O   0  0  0  0  0  0  0  0  0  0  0  0
    2.3328    0.0363    0.6589 N   0  0  0  0  0  0  0  0  0  0  0  0
   -3.0088   -0.2045    0.0659 N   0  0  0  0  0  0  0  0  0  0  0  0
    1.9949    0.1340    1.9480 N   0  0  0  0  0  0  0  0  0  0  0  0
    3.9355    1.1641    1.5695 N   0  0  0  0  0  0  0  0  0  0  0  0
    2.9818    0.8267    2.5031 N   0  0  0  0  0  0  0  0  0  0  0  0
   -5.0829    0.7589    0.2802 N   0  0  0  0  0  0  0  0  0  0  0  0
    8.4999   -0.7967    0.5151 N   0  0  0  0  0  0  0  0  0  0  0  0
  -10.2971   -1.7718   -0.8199 N   0  0  0  0  0  0  0  0  0  0  0  0
    0.0709   -0.0964   -0.3506 C   0  0  1  0  0  0  0  0  0  0  0  0
   -0.7531   -0.9962    0.5497 C   0  0  1  0  0  0  0  0  0  0  0  0
    1.4729   -0.6727   -0.2924 C   0  0  2  0  0  0  0  0  0  0  0  0
   -2.0325   -1.2271   -0.2227 C   0  0  2  0  0  0  0  0  0  0  0  0
    1.2262   -2.1421    0.0313 C   0  0  0  0  0  0  0  0  0  0  0  0
   -1.5605   -1.1456   -1.6625 C   0  0  0  0  0  0  0  0  0  0  0  0
    3.5112    0.6624    0.4325 C   0  0  0  0  0  0  0  0  0  0  0  0
   -4.3882   -0.4027   -0.0684 C   0  0  0  0  0  0  0  0  0  0  0  0
    5.4930    0.8234   -0.8672 C   0  0  0  0  0  0  0  0  0  0  0  0
   -6.4819    0.9671    0.2790 C   0  0  0  0  0  0  0  0  0  0  0  0
    6.2852   -0.0227   -0.1155 C   0  0  0  0  0  0  0  0  0  0  0  0
    6.0338    1.7458   -1.7422 C   0  0  0  0  0  0  0  0  0  0  0  0
   -7.3216   -0.0658   -0.1048 C   0  0  0  0  0  0  0  0  0  0  0  0
   -6.9838    2.2009    0.6600 C   0  0  0  0  0  0  0  0  0  0  0  0
    7.6719    0.0568   -0.2436 C   0  0  0  0  0  0  0  0  0  0  0  0
    7.4205    1.8251   -1.8703 C   0  0  0  0  0  0  0  0  0  0  0  0
    8.2396    0.9807   -1.1210 C   0  0  0  0  0  0  0  0  0  0  0  0
   -8.7011    0.1408   -0.1077 C   0  0  0  0  0  0  0  0  0  0  0  0
   -8.3633    2.4074    0.6571 C   0  0  0  0  0  0  0  0  0  0  0  0
   -9.2220    1.3775    0.2732 C   0  0  0  0  0  0  0  0  0  0  0  0
    8.0786   -1.2545    1.8241 C   0  0  0  0  0  0  0  0  0  0  0  0
    9.7889   -1.2155    0.0017 C   0  0  0  0  0  0  0  0  0  0  0  0
   -9.5812   -0.9139   -0.5005 C   0  0  0  0  0  0  0  0  0  0  0  0
    0.0018    0.9621   -0.0797 H   0  0  0  0  0  0  0  0  0  0  0  0
   -0.9056   -0.5781    1.5499 H   0  0  0  0  0  0  0  0  0  0  0  0
    1.9801   -0.6006   -1.2619 H   0  0  0  0  0  0  0  0  0  0  0  0
   -2.4803   -2.2065   -0.0232 H   0  0  0  0  0  0  0  0  0  0  0  0
    2.0036   -2.5907    0.6571 H   0  0  0  0  0  0  0  0  0  0  0  0
    1.1425   -2.7319   -0.8881 H   0  0  0  0  0  0  0  0  0  0  0  0
   -2.3281   -0.8041   -2.3635 H   0  0  0  0  0  0  0  0  0  0  0  0
   -1.1848   -2.1151   -2.0075 H   0  0  0  0  0  0  0  0  0  0  0  0
   -2.6794    0.7235    0.3144 H   0  0  0  0  0  0  0  0  0  0  0  0
   -4.5215    1.5549    0.5722 H   0  0  0  0  0  0  0  0  0  0  0  0
    5.8288   -0.7568    0.5418 H   0  0  0  0  0  0  0  0  0  0  0  0
    5.3969    2.4040   -2.3251 H   0  0  0  0  0  0  0  0  0  0  0  0
   -6.9805   -1.0445   -0.4101 H   0  0  0  0  0  0  0  0  0  0  0  0
   -6.3239    3.0100    0.9605 H   0  0  0  0  0  0  0  0  0  0  0  0
    7.8620    2.5466   -2.5515 H   0  0  0  0  0  0  0  0  0  0  0  0
    9.3156    1.0766   -1.2353 H   0  0  0  0  0  0  0  0  0  0  0  0
   -8.7687    3.3704    0.9536 H   0  0  0  0  0  0  0  0  0  0  0  0
  -10.2949    1.5540    0.2761 H   0  0  0  0  0  0  0  0  0  0  0  0
    7.3752   -2.0891    1.7353 H   0  0  0  0  0  0  0  0  0  0  0  0
    8.9329   -1.6054    2.4139 H   0  0  0  0  0  0  0  0  0  0  0  0
    7.6087   -0.4487    2.3994 H   0  0  0  0  0  0  0  0  0  0  0  0
   10.1489   -2.1104    0.5216 H   0  0  0  0  0  0  0  0  0  0  0  0
    9.7334   -1.4711   -1.0625 H   0  0  0  0  0  0  0  0  0  0  0  0
   10.5374   -0.4288    0.1433 H   0  0  0  0  0  0  0  0  0  0  0  0
  1 14  1  0  0  0  0
  1 17  1  0  0  0  0
  2 13  1  0  0  0  0
  2 18  1  0  0  0  0
  3 19  1  0  0  0  0
  3 21  1  0  0  0  0
  4 20  2  0  0  0  0
  5  7  1  0  0  0  0
  5 15  1  0  0  0  0
  5 19  1  0  0  0  0
  6 16  1  0  0  0  0
  6 20  1  0  0  0  0
  6 44  1  0  0  0  0
  7  9  2  0  0  0  0
  8  9  1  0  0  0  0
  8 19  2  0  0  0  0
 10 20  1  0  0  0  0
 10 22  1  0  0  0  0
 10 45  1  0  0  0  0
 11 27  1  0  0  0  0
 11 33  1  0  0  0  0
 11 34  1  0  0  0  0
 12 35  3  0  0  0  0
 13 14  1  0  0  0  0
 13 15  1  0  0  0  0
 13 36  1  0  0  0  0
 14 16  1  0  0  0  0
 14 37  1  0  0  0  0
 15 17  1  0  0  0  0
 15 38  1  0  0  0  0
 16 18  1  0  0  0  0
 16 39  1  0  0  0  0
 17 40  1  0  0  0  0
 17 41  1  0  0  0  0
 18 42  1  0  0  0  0
 18 43  1  0  0  0  0
 21 23  1  0  0  0  0
 21 24  2  0  0  0  0
 22 25  1  0  0  0  0
 22 26  2  0  0  0  0
 23 27  2  0  0  0  0
 23 46  1  0  0  0  0
 24 28  1  0  0  0  0
 24 47  1  0  0  0  0
 25 30  2  0  0  0  0
 25 48  1  0  0  0  0
 26 31  1  0  0  0  0
 26 49  1  0  0  0  0
 27 29  1  0  0  0  0
 28 29  2  0  0  0  0
 28 50  1  0  0  0  0
 29 51  1  0  0  0  0
 30 32  1  0  0  0  0
 30 35  1  0  0  0  0
 31 32  2  0  0  0  0
 31 52  1  0  0  0  0
 32 53  1  0  0  0  0
 33 54  1  0  0  0  0
 33 55  1  0  0  0  0
 33 56  1  0  0  0  0
 34 57  1  0  0  0  0
 34 58  1  0  0  0  0
 34 59  1  0  0  0  0
M  END
> <PUBCHEM_COMPOUND_CID>
11879572

> <PUBCHEM_CONFORMER_RMSD>
1.2

> <PUBCHEM_CONFORMER_DIVERSEORDER>
4
190
96
160
63
139
231
245
202
218
100
170
29
82
168
12
103
66
109
254
144
86
200
206
81
11
154
251
232
226
94
224
67
173
186
209
76
137
259
136
167
172
40
242
155
50
256
135
237
179
54
10
149
148
264
110
244
203
234
28
130
78
146
65
36
60
134
99
19
150
84
158
213
69
46
258
153
138
265
196
132
112
125
182
191
117
199
58
229
106
223
5
164
75
201
217
41
77
214
145
175
31
189
174
249
120
122
8
239
70
193
141
30
18
121
89
83
93
151
87
266
255
127
180
152
140
210
59
181
13
17
91
53
119
43
248
123
208
143
205
44
230
171
204
177
23
241
56
9
124
101
253
221
195
212
39
118
57
105
7
198
64
233
107
129
163
207
247
14
225
102
216
235
131
45
197
183
37
55
115
114
62
34
236
32
169
35
80
228
133
185
24
71
156
98
47
165
49
262
157
104
159
73
192
176
21
95
250
263
68
252
128
108
6
16
92
33
227
79
211
240
126
116
178
261
97
215
111
51
257
113
61
88
26
85
42
147
188
222
72
246
142
219
74
90
25
161
52
20
48
166
2
184
260
194
3
238
27
162
22
243
38
1
187
15
220

> <PUBCHEM_MMFF94_PARTIAL_CHARGES>
44
1 -0.56
10 -0.55
11 -0.84
12 -0.56
13 0.28
14 0.28
15 0.26
16 0.3
17 0.28
18 0.28
19 0.25
2 -0.56
20 0.69
21 0.08
22 0.12
23 -0.15
24 -0.15
25 -0.15
26 -0.15
27 0.1
28 -0.15
29 -0.15
3 -0.15
30 0.07
31 -0.15
32 -0.15
33 0.37
34 0.37
35 0.48
4 -0.57
44 0.37
45 0.37
46 0.15
47 0.15
48 0.15
49 0.15
5 0.31
50 0.15
51 0.15
52 0.15
53 0.15
6 -0.73
7 -0.42
8 -0.34

> <PUBCHEM_EFFECTIVE_ROTOR_COUNT>
9.2

> <PUBCHEM_PHARMACOPHORE_FEATURES>
13
1 1 acceptor
1 10 donor
1 11 cation
1 12 acceptor
1 2 acceptor
1 4 acceptor
1 6 donor
3 5 8 19 cation
5 1 13 14 15 17 rings
5 2 13 14 16 18 rings
5 5 7 8 9 19 rings
6 21 23 24 27 28 29 rings
6 22 25 26 30 31 32 rings

> <PUBCHEM_HEAVY_ATOM_COUNT>
35

> <PUBCHEM_ATOM_DEF_STEREO_COUNT>
4

> <PUBCHEM_ATOM_UDEF_STEREO_COUNT>
0

> <PUBCHEM_BOND_DEF_STEREO_COUNT>
0

> <PUBCHEM_BOND_UDEF_STEREO_COUNT>
0

> <PUBCHEM_ISOTOPIC_ATOM_COUNT>
0

> <PUBCHEM_COMPONENT_COUNT>
1

> <PUBCHEM_CACTVS_TAUTO_COUNT>
3

> <PUBCHEM_CONFORMER_ID>
00B5449400000004

> <PUBCHEM_MMFF94_ENERGY>
106.9317

> <PUBCHEM_FEATURE_SELFOVERLAP>
66.716

> <PUBCHEM_SHAPE_FINGERPRINT>
10 15 17313104151349251269
10165383 225 18408324384894050886
10670039 82 16271933671394674593
10674148 151 18409727370695373072
10883706 17 11095297735103728173
12089408 11 18334014995305736957
12120059 9 15841832236169344790
12664476 115 18272931622804266377
12838862 33 15913322473612032782
15183329 4 17275113825185356328
15392192 104 17603585244672063491
15399244 5 18342450435661281777
15461852 350 18272372006088020575
15840311 113 17023189366006484388
16728433 110 13614517472619185315
19315958 150 14706926241883160873
21585482 111 18262799546056500229
21591340 7 18407759252844061759
21781055 127 18340769243389583642
21792961 116 17060344024578563511
22224240 67 17095525106453122915
24771293 8 18334299743675456965
24893992 56 18272930561746702459
249057 3 16487253291892282621
2747138 104 14418137318235375260
3092352 35 18334857225439418123
3178227 256 14996286946464304404
3986486 107 17846513512513309492
4073 2 18259992574464370571
44575985 352 17749100081159113123
5381727 24 18410573989810993499
54039377 194 9799683793371257121
59682541 35 13623532376285573964
6126387 218 12540692622922533621
6523845 18 18131626777268006789
9663363 56 16988563503745105872

> <PUBCHEM_SHAPE_MULTIPOLES>
656.96
37.39
2
1.53
27.64
0.21
-0.33
6.44
2.37
1.09
0.11
-2.44
0.3
-3.96

> <PUBCHEM_SHAPE_SELFOVERLAP>
1427.889

> <PUBCHEM_SHAPE_VOLUME>
356.6

> <PUBCHEM_COORDINATE_TYPE>
2
5
10

$$$$
