45784059
  -OEChem-12032416283D

 35 37  0     1  0  0  0  0  0999 V2000
    5.5446   -1.3319   -0.2465 F   0  0  0  0  0  0  0  0  0  0  0  0
    5.3406    0.6320   -1.1573 F   0  0  0  0  0  0  0  0  0  0  0  0
    5.4716    0.4484    0.9997 F   0  0  0  0  0  0  0  0  0  0  0  0
   -5.2960   -1.4733    1.1767 O   0  0  0  0  0  0  0  0  0  0  0  0
   -4.0823    0.0565   -0.0585 N   0  0  0  0  0  0  0  0  0  0  0  0
    0.2223    1.5764    0.3257 N   0  0  0  0  0  0  0  0  0  0  0  0
   -0.7081   -0.4387    0.2112 N   0  0  0  0  0  0  0  0  0  0  0  0
   -2.2895    1.5236    0.4757 C   0  0  1  0  0  0  0  0  0  0  0  0
   -2.8760    1.9060   -0.8923 C   0  0  0  0  0  0  0  0  0  0  0  0
   -3.4175    0.6782    1.0802 C   0  0  0  0  0  0  0  0  0  0  0  0
   -3.6656    0.6722   -1.3133 C   0  0  0  0  0  0  0  0  0  0  0  0
   -0.9355    0.8496    0.3348 C   0  0  0  0  0  0  0  0  0  0  0  0
   -4.9767   -0.9880    0.0901 C   0  0  0  0  0  0  0  0  0  0  0  0
    1.2666    0.6984    0.1872 C   0  0  0  0  0  0  0  0  0  0  0  0
    0.6600   -0.5526    0.1178 C   0  0  0  0  0  0  0  0  0  0  0  0
    2.6475    0.8855    0.1188 C   0  0  0  0  0  0  0  0  0  0  0  0
   -5.5709   -1.5218   -1.1886 C   0  0  0  0  0  0  0  0  0  0  0  0
    1.4633   -1.6961   -0.0287 C   0  0  0  0  0  0  0  0  0  0  0  0
    3.4319   -0.2634   -0.0271 C   0  0  0  0  0  0  0  0  0  0  0  0
    2.8523   -1.5323   -0.0997 C   0  0  0  0  0  0  0  0  0  0  0  0
    4.9174   -0.1288   -0.1060 C   0  0  0  0  0  0  0  0  0  0  0  0
   -2.1431    2.4208    1.0908 H   0  0  0  0  0  0  0  0  0  0  0  0
   -2.1299    2.1946   -1.6392 H   0  0  0  0  0  0  0  0  0  0  0  0
   -3.5675    2.7486   -0.7640 H   0  0  0  0  0  0  0  0  0  0  0  0
   -3.0749   -0.0819    1.7894 H   0  0  0  0  0  0  0  0  0  0  0  0
   -4.1613    1.3117    1.5774 H   0  0  0  0  0  0  0  0  0  0  0  0
   -4.5301    0.9197   -1.9353 H   0  0  0  0  0  0  0  0  0  0  0  0
   -3.0345   -0.0457   -1.8480 H   0  0  0  0  0  0  0  0  0  0  0  0
    0.2981    2.5819    0.4053 H   0  0  0  0  0  0  0  0  0  0  0  0
    3.0873    1.8753    0.1762 H   0  0  0  0  0  0  0  0  0  0  0  0
   -4.7802   -1.8192   -1.8823 H   0  0  0  0  0  0  0  0  0  0  0  0
   -6.2076   -0.7621   -1.6495 H   0  0  0  0  0  0  0  0  0  0  0  0
   -6.1824   -2.4017   -0.9672 H   0  0  0  0  0  0  0  0  0  0  0  0
    1.0222   -2.6861   -0.0860 H   0  0  0  0  0  0  0  0  0  0  0  0
    3.4689   -2.4207   -0.2130 H   0  0  0  0  0  0  0  0  0  0  0  0
  1 21  1  0  0  0  0
  2 21  1  0  0  0  0
  3 21  1  0  0  0  0
  4 13  2  0  0  0  0
  5 10  1  0  0  0  0
  5 11  1  0  0  0  0
  5 13  1  0  0  0  0
  6 12  1  0  0  0  0
  6 14  1  0  0  0  0
  6 29  1  0  0  0  0
  7 12  2  0  0  0  0
  7 15  1  0  0  0  0
  8  9  1  0  0  0  0
  8 10  1  0  0  0  0
  8 12  1  0  0  0  0
  8 22  1  0  0  0  0
  9 11  1  0  0  0  0
  9 23  1  0  0  0  0
  9 24  1  0  0  0  0
 10 25  1  0  0  0  0
 10 26  1  0  0  0  0
 11 27  1  0  0  0  0
 11 28  1  0  0  0  0
 13 17  1  0  0  0  0
 14 15  2  0  0  0  0
 14 16  1  0  0  0  0
 15 18  1  0  0  0  0
 16 19  2  0  0  0  0
 16 30  1  0  0  0  0
 17 31  1  0  0  0  0
 17 32  1  0  0  0  0
 17 33  1  0  0  0  0
 18 20  2  0  0  0  0
 18 34  1  0  0  0  0
 19 20  1  0  0  0  0
 19 21  1  0  0  0  0
 20 35  1  0  0  0  0
M  END
> <PUBCHEM_COMPOUND_CID>
45784059

> <PUBCHEM_CONFORMER_RMSD>
0.6

> <PUBCHEM_CONFORMER_DIVERSEORDER>
1
7
4
22
11
16
20
12
14
9
6
19
17
15
8
10
3
5
18
21
2
13

> <PUBCHEM_MMFF94_PARTIAL_CHARGES>
24
1 -0.34
10 0.3
11 0.3
12 0.01
13 0.57
14 -0.15
15 0.23
16 -0.15
17 0.06
18 -0.15
19 -0.14
2 -0.34
20 -0.15
21 1.16
29 0.27
3 -0.34
30 0.15
34 0.15
35 0.15
4 -0.57
5 -0.66
6 0.03
7 -0.57
8 0.18

> <PUBCHEM_EFFECTIVE_ROTOR_COUNT>
4

> <PUBCHEM_PHARMACOPHORE_FEATURES>
6
1 4 acceptor
1 6 donor
3 6 7 12 cation
5 5 8 9 10 11 rings
5 6 7 12 14 15 rings
6 14 15 16 18 19 20 rings

> <PUBCHEM_HEAVY_ATOM_COUNT>
21

> <PUBCHEM_ATOM_DEF_STEREO_COUNT>
1

> <PUBCHEM_ATOM_UDEF_STEREO_COUNT>
0

> <PUBCHEM_BOND_DEF_STEREO_COUNT>
0

> <PUBCHEM_BOND_UDEF_STEREO_COUNT>
0

> <PUBCHEM_ISOTOPIC_ATOM_COUNT>
0

> <PUBCHEM_COMPONENT_COUNT>
1

> <PUBCHEM_CACTVS_TAUTO_COUNT>
2

> <PUBCHEM_CONFORMER_ID>
02BA9BFB00000001

> <PUBCHEM_MMFF94_ENERGY>
35.2542

> <PUBCHEM_FEATURE_SELFOVERLAP>
30.553

> <PUBCHEM_SHAPE_FINGERPRINT>
11089746 13 13045942438525384318
11405975 8 11023815176222806927
11806522 49 18411419496718904025
121448 382 17168147828061365971
12166972 35 18186527592425404620
12236239 1 17632578244940442105
12403259 415 18413100671467920193
12596602 18 16343705469302508395
12670546 56 15430311413223326644
128620 24 18343863290447714004
13103583 49 17131846412610346531
13288520 33 18272370871736554277
13675066 3 8213844999337247796
13862211 1 18411697669419859938
1420 363 18342741822899732467
14251718 22 18113901576059813012
14251758 9 8502659211847144726
14251764 18 9943802296808067431
14350574 20 18411139164609747433
14466204 15 8862950458928396879
14576447 43 18413383246061389679
14787075 74 18410295826053023592
15196674 1 18339643334839980034
15238133 3 10663826333737252523
15788980 27 17603869961995218632
15880784 105 17202762730484173019
17093844 174 9079106740030666644
17349148 13 18259707778833672832
17834072 33 18410856572846548916
17844677 252 16989127534922906720
17980427 23 16950575350164887053
18222031 100 17822010908957410724
19433438 38 18113897139622372893
19489759 90 16805321080653347057
200 152 18343018891714673209
20028762 73 17845930844291374743
20281389 69 11095887055633476955
20621476 66 8358264765219866335
20645477 70 18270687455136981766
20871999 31 17967809436582352069
21054139 6 18408036325500724062
21150785 3 18261403264987913924
21267235 1 18341902895538347254
21315759 148 15841560703414325607
21618674 57 11671781559253073020
21709351 56 18187081732694007181
221490 88 18409168839767576129
22393880 68 18116430328149809374
23402539 116 17530680992067541469
23402655 69 18267862791978571045
23522609 53 18126598740659679673
23557571 272 17822289055281914677
23559900 14 17979062787421033810
2838139 119 8142093035837300131
2871803 45 18333443253754681787
3268164 11 17022897922526665373
4325135 7 18408888442431920782
474229 33 18409167722775678130
5104073 3 18270961220161619370
6913067 236 17821719529553792630
7495541 125 18060134358171628256
9862886 166 17676492804047714651

> <PUBCHEM_SHAPE_MULTIPOLES>
389.54
13.31
1.79
1.01
3.2
0.13
0.1
4.42
1.32
-1.11
0.11
-0.89
-0.06
0.15

> <PUBCHEM_SHAPE_SELFOVERLAP>
848.021

> <PUBCHEM_SHAPE_VOLUME>
216.6

> <PUBCHEM_COORDINATE_TYPE>
2
5
10

$$$$
