40777872
  -OEChem-12032416193D

 53 56  0     1  0  0  0  0  0999 V2000
   -3.7767   -1.5813   -1.1996 Cl  0  0  0  0  0  0  0  0  0  0  0  0
   -3.5815   -3.2145    1.2668 F   0  0  0  0  0  0  0  0  0  0  0  0
    2.9049    0.5289   -0.9284 O   0  0  0  0  0  0  0  0  0  0  0  0
    5.0057    2.4850    0.0791 O   0  0  0  0  0  0  0  0  0  0  0  0
    5.7793    0.0851    1.1791 O   0  0  0  0  0  0  0  0  0  0  0  0
    0.4416    2.1789   -1.2613 O   0  0  0  0  0  0  0  0  0  0  0  0
    1.4585   -1.8059   -2.2599 O   0  0  0  0  0  0  0  0  0  0  0  0
   -0.9403    1.6389    0.5403 N   0  0  0  0  0  0  0  0  0  0  0  0
    2.4821   -1.9995   -0.1866 N   0  0  0  0  0  0  0  0  0  0  0  0
    2.7597    1.6813   -0.0670 C   0  0  2  0  0  0  0  0  0  0  0  0
    4.0194    1.7381    0.7903 C   0  0  1  0  0  0  0  0  0  0  0  0
    4.4170    0.2784    0.8635 C   0  0  1  0  0  0  0  0  0  0  0  0
    4.0834   -0.1989   -0.5400 C   0  0  1  0  0  0  0  0  0  0  0  0
    1.4895    1.4942    0.7514 C   0  0  0  0  0  0  0  0  0  0  0  0
    3.8126   -1.6906   -0.6202 C   0  0  0  0  0  0  0  0  0  0  0  0
    0.2806    1.8076   -0.0985 C   0  0  0  0  0  0  0  0  0  0  0  0
   -1.1306    1.1929    1.9366 C   0  0  0  0  0  0  0  0  0  0  0  0
   -2.2102    1.8643   -0.0305 C   0  0  0  0  0  0  0  0  0  0  0  0
   -2.6377    1.1438    2.2103 C   0  0  0  0  0  0  0  0  0  0  0  0
   -3.2100    1.5897    0.9048 C   0  0  0  0  0  0  0  0  0  0  0  0
   -2.5375    2.2916   -1.3091 C   0  0  0  0  0  0  0  0  0  0  0  0
   -4.5525    1.7338    0.5886 C   0  0  0  0  0  0  0  0  0  0  0  0
    1.3939   -2.0331   -1.0546 C   0  0  0  0  0  0  0  0  0  0  0  0
   -3.8892    2.4403   -1.6361 C   0  0  0  0  0  0  0  0  0  0  0  0
   -4.8900    2.1633   -0.6946 C   0  0  0  0  0  0  0  0  0  0  0  0
    0.0756   -2.3439   -0.4444 C   0  0  0  0  0  0  0  0  0  0  0  0
   -1.0960   -1.8731   -1.0370 C   0  0  0  0  0  0  0  0  0  0  0  0
    0.0095   -3.1061    0.7221 C   0  0  0  0  0  0  0  0  0  0  0  0
   -2.3337   -2.1646   -0.4637 C   0  0  0  0  0  0  0  0  0  0  0  0
   -1.2280   -3.3975    1.2956 C   0  0  0  0  0  0  0  0  0  0  0  0
   -2.3996   -2.9269    0.7027 C   0  0  0  0  0  0  0  0  0  0  0  0
    2.7025    2.5678   -0.7091 H   0  0  0  0  0  0  0  0  0  0  0  0
    3.8907    2.2033    1.7717 H   0  0  0  0  0  0  0  0  0  0  0  0
    3.8039   -0.2382    1.6116 H   0  0  0  0  0  0  0  0  0  0  0  0
    4.8970    0.0535   -1.2319 H   0  0  0  0  0  0  0  0  0  0  0  0
    1.4888    2.1861    1.6007 H   0  0  0  0  0  0  0  0  0  0  0  0
    1.4095    0.4665    1.1190 H   0  0  0  0  0  0  0  0  0  0  0  0
    4.5243   -2.2673   -0.0211 H   0  0  0  0  0  0  0  0  0  0  0  0
    3.9120   -2.0181   -1.6614 H   0  0  0  0  0  0  0  0  0  0  0  0
   -0.6244    1.8946    2.6086 H   0  0  0  0  0  0  0  0  0  0  0  0
   -0.6716    0.2065    2.0645 H   0  0  0  0  0  0  0  0  0  0  0  0
    4.6977    3.4064    0.0361 H   0  0  0  0  0  0  0  0  0  0  0  0
    5.9445    0.5177    2.0341 H   0  0  0  0  0  0  0  0  0  0  0  0
   -2.9140    1.8256    3.0205 H   0  0  0  0  0  0  0  0  0  0  0  0
   -2.9599    0.1277    2.4583 H   0  0  0  0  0  0  0  0  0  0  0  0
    2.3484   -2.1311    0.8101 H   0  0  0  0  0  0  0  0  0  0  0  0
   -1.7911    2.5133   -2.0617 H   0  0  0  0  0  0  0  0  0  0  0  0
   -5.3260    1.5179    1.3179 H   0  0  0  0  0  0  0  0  0  0  0  0
   -4.1678    2.7733   -2.6324 H   0  0  0  0  0  0  0  0  0  0  0  0
   -5.9346    2.2835   -0.9678 H   0  0  0  0  0  0  0  0  0  0  0  0
   -1.0495   -1.2723   -1.9425 H   0  0  0  0  0  0  0  0  0  0  0  0
    0.8946   -3.5167    1.1986 H   0  0  0  0  0  0  0  0  0  0  0  0
   -1.2806   -3.9958    2.2003 H   0  0  0  0  0  0  0  0  0  0  0  0
  1 29  1  0  0  0  0
  2 31  1  0  0  0  0
  3 10  1  0  0  0  0
  3 13  1  0  0  0  0
  4 11  1  0  0  0  0
  4 42  1  0  0  0  0
  5 12  1  0  0  0  0
  5 43  1  0  0  0  0
  6 16  2  0  0  0  0
  7 23  2  0  0  0  0
  8 16  1  0  0  0  0
  8 17  1  0  0  0  0
  8 18  1  0  0  0  0
  9 15  1  0  0  0  0
  9 23  1  0  0  0  0
  9 46  1  0  0  0  0
 10 11  1  0  0  0  0
 10 14  1  0  0  0  0
 10 32  1  0  0  0  0
 11 12  1  0  0  0  0
 11 33  1  0  0  0  0
 12 13  1  0  0  0  0
 12 34  1  0  0  0  0
 13 15  1  0  0  0  0
 13 35  1  0  0  0  0
 14 16  1  0  0  0  0
 14 36  1  0  0  0  0
 14 37  1  0  0  0  0
 15 38  1  0  0  0  0
 15 39  1  0  0  0  0
 17 19  1  0  0  0  0
 17 40  1  0  0  0  0
 17 41  1  0  0  0  0
 18 20  1  0  0  0  0
 18 21  2  0  0  0  0
 19 20  1  0  0  0  0
 19 44  1  0  0  0  0
 19 45  1  0  0  0  0
 20 22  2  0  0  0  0
 21 24  1  0  0  0  0
 21 47  1  0  0  0  0
 22 25  1  0  0  0  0
 22 48  1  0  0  0  0
 23 26  1  0  0  0  0
 24 25  2  0  0  0  0
 24 49  1  0  0  0  0
 25 50  1  0  0  0  0
 26 27  2  0  0  0  0
 26 28  1  0  0  0  0
 27 29  1  0  0  0  0
 27 51  1  0  0  0  0
 28 30  2  0  0  0  0
 28 52  1  0  0  0  0
 29 31  2  0  0  0  0
 30 31  1  0  0  0  0
 30 53  1  0  0  0  0
M  END
> <PUBCHEM_COMPOUND_CID>
40777872

> <PUBCHEM_CONFORMER_RMSD>
1.4

> <PUBCHEM_CONFORMER_DIVERSEORDER>
1
102
40
129
45
120
39
2
130
86
108
114
73
83
11
70
135
126
43
67
62
4
104
33
82
85
18
81
77
113
66
106
10
137
116
74
57
131
71
54
94
53
27
30
42
98
26
72
38
122
75
69
111
17
46
89
95
92
6
96
100
101
64
132
61
34
5
76
121
48
134
93
103
50
35
12
87
97
3
23
37
127
21
8
58
105
78
118
65
29
14
44
41
49
128
47
20
32
117
124
136
52
90
60
84
68
109
22
13
80
88
107
133
79
99
123
25
63
112
19
91
16
125
9
36
51
24
15
55
28
119
59
110
115
56
7
31

> <PUBCHEM_MMFF94_PARTIAL_CHARGES>
41
1 -0.18
10 0.28
11 0.28
12 0.28
13 0.28
14 0.06
15 0.3
16 0.57
17 0.3
18 0.12
19 0.14
2 -0.19
20 -0.14
21 -0.15
22 -0.15
23 0.54
24 -0.15
25 -0.15
26 0.09
27 -0.15
28 -0.15
29 0.18
3 -0.56
30 -0.15
31 0.19
4 -0.68
42 0.4
43 0.4
46 0.37
47 0.15
48 0.15
49 0.15
5 -0.68
50 0.15
51 0.15
52 0.15
53 0.15
6 -0.57
7 -0.57
8 -0.48
9 -0.73

> <PUBCHEM_EFFECTIVE_ROTOR_COUNT>
8.6

> <PUBCHEM_PHARMACOPHORE_FEATURES>
12
1 3 acceptor
1 4 acceptor
1 4 donor
1 5 acceptor
1 5 donor
1 6 acceptor
1 7 acceptor
1 9 donor
5 3 10 11 12 13 rings
5 8 17 18 19 20 rings
6 18 20 21 22 24 25 rings
6 26 27 28 29 30 31 rings

> <PUBCHEM_HEAVY_ATOM_COUNT>
31

> <PUBCHEM_ATOM_DEF_STEREO_COUNT>
4

> <PUBCHEM_ATOM_UDEF_STEREO_COUNT>
0

> <PUBCHEM_BOND_DEF_STEREO_COUNT>
0

> <PUBCHEM_BOND_UDEF_STEREO_COUNT>
0

> <PUBCHEM_ISOTOPIC_ATOM_COUNT>
0

> <PUBCHEM_COMPONENT_COUNT>
1

> <PUBCHEM_CACTVS_TAUTO_COUNT>
2

> <PUBCHEM_CONFORMER_ID>
026E389000000001

> <PUBCHEM_MMFF94_ENERGY>
86.1404

> <PUBCHEM_FEATURE_SELFOVERLAP>
60.997

> <PUBCHEM_SHAPE_FINGERPRINT>
104564 63 18126860506173048866
10688039 33 18045505480502620555
1100329 8 18193833735016631730
11112241 14 17202460334078172897
11370993 70 18340201903795137421
12422481 6 18124344763798092691
12633257 1 18338793412868570098
12788726 201 18122071067745116512
13140716 1 18340211799753208826
13402501 40 18341894112762646215
13726171 33 18194142904370092172
14725015 67 18193829573314765051
17138139 8 17700095994512457405
20511986 3 17415545520454830657
21033648 29 18044095657292556084
21197605 99 18343304803493165319
21304304 249 18121208789290270858
23227448 37 18410857629466753351
23559900 14 18202001010994260224
238 59 18123748647463457169
27425 322 17385443254012030397
3027735 51 18341047527511781539
3052486 1 18263378008945452182
3298306 158 18116993278451279705
338550 245 18335424586017933845
4340502 62 18270966748096148173
463206 1 18341612573319591869
469060 322 18045238260648797219
508706 21 18408045117071685471
6287921 2 16626590896013810343
6669772 16 18264481797875696067

> <PUBCHEM_SHAPE_MULTIPOLES>
593.25
9.64
4.55
1.7
6.13
3.01
-0.14
-5.4
-0.18
-2.53
-0.24
-0.94
0.01
1.32

> <PUBCHEM_SHAPE_SELFOVERLAP>
1279.671

> <PUBCHEM_SHAPE_VOLUME>
327.5

> <PUBCHEM_COORDINATE_TYPE>
2
5
10

$$$$
