45783496
  -OEChem-12032416273D

 60 63  0     1  0  0  0  0  0999 V2000
   -2.7350   -1.7283    1.9094 O   0  0  0  0  0  0  0  0  0  0  0  0
    1.7935    3.0602   -1.1814 O   0  0  0  0  0  0  0  0  0  0  0  0
    7.2088   -0.3240   -0.3669 O   0  0  0  0  0  0  0  0  0  0  0  0
   -4.4344   -0.2844   -1.0116 N   0  0  1  0  0  0  0  0  0  0  0  0
   -1.7782   -1.2601   -0.0610 N   0  0  0  0  0  0  0  0  0  0  0  0
   -1.3529   -1.8259    2.1146 N   0  0  0  0  0  0  0  0  0  0  0  0
    0.5184    3.3111    0.7857 N   0  0  0  0  0  0  0  0  0  0  0  0
    2.8134   -1.7937    1.4410 N   0  0  0  0  0  0  0  0  0  0  0  0
    4.6373   -1.4769   -0.0584 N   0  0  0  0  0  0  0  0  0  0  0  0
   -4.3250   -1.2224    0.1235 C   0  0  1  0  0  0  0  0  0  0  0  0
   -4.9381   -2.5366   -0.3944 C   0  0  0  0  0  0  0  0  0  0  0  0
   -5.4185   -2.2228   -1.8043 C   0  0  0  0  0  0  0  0  0  0  0  0
   -5.5914   -0.7174   -1.7955 C   0  0  0  0  0  0  0  0  0  0  0  0
   -4.5431    1.1085   -0.5974 C   0  0  0  0  0  0  0  0  0  0  0  0
   -2.8986   -1.3919    0.6031 C   0  0  0  0  0  0  0  0  0  0  0  0
   -3.2037    1.6907   -0.2315 C   0  0  0  0  0  0  0  0  0  0  0  0
   -2.9945    2.2087    1.0466 C   0  0  0  0  0  0  0  0  0  0  0  0
   -2.1722    1.7126   -1.1703 C   0  0  0  0  0  0  0  0  0  0  0  0
   -0.8576   -1.5359    0.9077 C   0  0  0  0  0  0  0  0  0  0  0  0
   -1.7540    2.7487    1.3858 C   0  0  0  0  0  0  0  0  0  0  0  0
   -0.9317    2.2527   -0.8312 C   0  0  0  0  0  0  0  0  0  0  0  0
   -0.7227    2.7708    0.4469 C   0  0  0  0  0  0  0  0  0  0  0  0
    0.5508   -1.5148    0.6364 C   0  0  0  0  0  0  0  0  0  0  0  0
    1.0316   -1.2102   -0.6323 C   0  0  0  0  0  0  0  0  0  0  0  0
    1.4747   -1.7966    1.6298 C   0  0  0  0  0  0  0  0  0  0  0  0
    2.4024   -1.1972   -0.8654 C   0  0  0  0  0  0  0  0  0  0  0  0
    3.2435   -1.4932    0.1951 C   0  0  0  0  0  0  0  0  0  0  0  0
    1.6625    3.4195   -0.0159 C   0  0  0  0  0  0  0  0  0  0  0  0
    5.1836   -1.1723   -1.3408 C   0  0  0  0  0  0  0  0  0  0  0  0
    2.8051    4.0673    0.7255 C   0  0  0  0  0  0  0  0  0  0  0  0
    6.6990   -1.2712   -1.2970 C   0  0  0  0  0  0  0  0  0  0  0  0
    8.6270   -0.3750   -0.2958 C   0  0  0  0  0  0  0  0  0  0  0  0
   -4.9372   -0.8817    0.9704 H   0  0  0  0  0  0  0  0  0  0  0  0
   -4.2383   -3.3793   -0.4004 H   0  0  0  0  0  0  0  0  0  0  0  0
   -5.7949   -2.8152    0.2312 H   0  0  0  0  0  0  0  0  0  0  0  0
   -6.3440   -2.7503   -2.0530 H   0  0  0  0  0  0  0  0  0  0  0  0
   -4.6523   -2.5158   -2.5329 H   0  0  0  0  0  0  0  0  0  0  0  0
   -5.5804   -0.3056   -2.8093 H   0  0  0  0  0  0  0  0  0  0  0  0
   -6.5372   -0.4459   -1.3095 H   0  0  0  0  0  0  0  0  0  0  0  0
   -5.2731    1.2361    0.2126 H   0  0  0  0  0  0  0  0  0  0  0  0
   -4.9204    1.7171   -1.4314 H   0  0  0  0  0  0  0  0  0  0  0  0
   -3.7882    2.1964    1.7886 H   0  0  0  0  0  0  0  0  0  0  0  0
   -2.3224    1.3163   -2.1713 H   0  0  0  0  0  0  0  0  0  0  0  0
   -1.6047    3.1480    2.3858 H   0  0  0  0  0  0  0  0  0  0  0  0
   -0.1826    2.2335   -1.6104 H   0  0  0  0  0  0  0  0  0  0  0  0
    0.3617   -0.9785   -1.4563 H   0  0  0  0  0  0  0  0  0  0  0  0
    0.5917    3.6678    1.7363 H   0  0  0  0  0  0  0  0  0  0  0  0
    1.1819   -2.0432    2.6460 H   0  0  0  0  0  0  0  0  0  0  0  0
    2.7430   -0.9534   -1.8648 H   0  0  0  0  0  0  0  0  0  0  0  0
    5.2418   -1.6915    0.7264 H   0  0  0  0  0  0  0  0  0  0  0  0
    4.8186   -1.8717   -2.1018 H   0  0  0  0  0  0  0  0  0  0  0  0
    4.9116   -0.1504   -1.6320 H   0  0  0  0  0  0  0  0  0  0  0  0
    3.6860    4.1160    0.0794 H   0  0  0  0  0  0  0  0  0  0  0  0
    2.5251    5.0819    1.0225 H   0  0  0  0  0  0  0  0  0  0  0  0
    3.0503    3.4800    1.6149 H   0  0  0  0  0  0  0  0  0  0  0  0
    7.0055   -2.2805   -0.9960 H   0  0  0  0  0  0  0  0  0  0  0  0
    7.1075   -1.0621   -2.2925 H   0  0  0  0  0  0  0  0  0  0  0  0
    8.9622    0.3709    0.4299 H   0  0  0  0  0  0  0  0  0  0  0  0
    9.0689   -0.1388   -1.2686 H   0  0  0  0  0  0  0  0  0  0  0  0
    8.9591   -1.3622    0.0400 H   0  0  0  0  0  0  0  0  0  0  0  0
  1  6  1  0  0  0  0
  1 15  1  0  0  0  0
  2 28  2  0  0  0  0
  3 31  1  0  0  0  0
  3 32  1  0  0  0  0
  4 10  1  0  0  0  0
  4 13  1  0  0  0  0
  4 14  1  0  0  0  0
  5 15  2  0  0  0  0
  5 19  1  0  0  0  0
  6 19  2  0  0  0  0
  7 22  1  0  0  0  0
  7 28  1  0  0  0  0
  7 47  1  0  0  0  0
  8 25  1  0  0  0  0
  8 27  2  0  0  0  0
  9 27  1  0  0  0  0
  9 29  1  0  0  0  0
  9 50  1  0  0  0  0
 10 11  1  0  0  0  0
 10 15  1  0  0  0  0
 10 33  1  0  0  0  0
 11 12  1  0  0  0  0
 11 34  1  0  0  0  0
 11 35  1  0  0  0  0
 12 13  1  0  0  0  0
 12 36  1  0  0  0  0
 12 37  1  0  0  0  0
 13 38  1  0  0  0  0
 13 39  1  0  0  0  0
 14 16  1  0  0  0  0
 14 40  1  0  0  0  0
 14 41  1  0  0  0  0
 16 17  2  0  0  0  0
 16 18  1  0  0  0  0
 17 20  1  0  0  0  0
 17 42  1  0  0  0  0
 18 21  2  0  0  0  0
 18 43  1  0  0  0  0
 19 23  1  0  0  0  0
 20 22  2  0  0  0  0
 20 44  1  0  0  0  0
 21 22  1  0  0  0  0
 21 45  1  0  0  0  0
 23 24  1  0  0  0  0
 23 25  2  0  0  0  0
 24 26  2  0  0  0  0
 24 46  1  0  0  0  0
 25 48  1  0  0  0  0
 26 27  1  0  0  0  0
 26 49  1  0  0  0  0
 28 30  1  0  0  0  0
 29 31  1  0  0  0  0
 29 51  1  0  0  0  0
 29 52  1  0  0  0  0
 30 53  1  0  0  0  0
 30 54  1  0  0  0  0
 30 55  1  0  0  0  0
 31 56  1  0  0  0  0
 31 57  1  0  0  0  0
 32 58  1  0  0  0  0
 32 59  1  0  0  0  0
 32 60  1  0  0  0  0
M  END
> <PUBCHEM_COMPOUND_CID>
45783496

> <PUBCHEM_CONFORMER_RMSD>
1

> <PUBCHEM_CONFORMER_DIVERSEORDER>
1
128
24
20
124
104
69
39
63
133
102
145
146
95
32
64
75
103
120
113
140
116
132
34
130
27
147
87
134
135
107
121
117
51
92
22
136
66
50
141
126
79
7
142
68
60
35
40
10
5
9
150
31
94
105
152
25
72
93
108
91
114
57
29
84
30
144
99
109
101
85
88
43
90
143
48
71
118
148
2
74
123
82
38
62
77
100
80
129
52
65
17
139
3
45
106
138
89
125
153
37
53
8
86
49
81
127
76
61
44
47
115
111
58
23
46
16
83
67
21
131
28
13
110
78
41
119
6
54
59
4
56
98
96
18
19
42
122
14
11
15
151
137
112
97
149
26
70
73
12
55
36
33

> <PUBCHEM_MMFF94_PARTIAL_CHARGES>
39
1 -0.02
10 0.45
13 0.27
14 0.41
15 0.3
16 -0.14
17 -0.15
18 -0.15
19 0.46
2 -0.57
20 -0.15
21 -0.15
22 0.12
23 0.05
24 -0.15
25 0.16
26 -0.15
27 0.41
28 0.57
29 0.37
3 -0.56
30 0.06
31 0.28
32 0.28
4 -0.81
42 0.15
43 0.15
44 0.15
45 0.15
46 0.15
47 0.37
48 0.15
49 0.15
5 -0.57
50 0.4
6 -0.41
7 -0.55
8 -0.62
9 -0.87

> <PUBCHEM_EFFECTIVE_ROTOR_COUNT>
11

> <PUBCHEM_PHARMACOPHORE_FEATURES>
11
1 2 acceptor
1 3 acceptor
1 4 cation
1 7 donor
1 9 donor
3 5 6 19 cation
3 8 9 27 cation
5 1 5 6 15 19 rings
5 4 10 11 12 13 rings
6 16 17 18 20 21 22 rings
6 8 23 24 25 26 27 rings

> <PUBCHEM_HEAVY_ATOM_COUNT>
32

> <PUBCHEM_ATOM_DEF_STEREO_COUNT>
1

> <PUBCHEM_ATOM_UDEF_STEREO_COUNT>
0

> <PUBCHEM_BOND_DEF_STEREO_COUNT>
0

> <PUBCHEM_BOND_UDEF_STEREO_COUNT>
0

> <PUBCHEM_ISOTOPIC_ATOM_COUNT>
0

> <PUBCHEM_COMPONENT_COUNT>
1

> <PUBCHEM_CACTVS_TAUTO_COUNT>
16

> <PUBCHEM_CONFORMER_ID>
02BA99C800000001

> <PUBCHEM_MMFF94_ENERGY>
77.9341

> <PUBCHEM_FEATURE_SELFOVERLAP>
55.822

> <PUBCHEM_SHAPE_FINGERPRINT>
1100329 8 18339359652983783177
11477941 20 18271798021424716692
12107698 1 18342457058220614494
12156800 1 14422581436581068813
13761468 95 17613446540637600470
14068700 675 18343298171567463228
14400156 147 16193943391153983415
14931854 50 18187359887708431799
15968369 153 18131059468820001296
16067689 302 18122914384700754487
17492 54 18115303350564800081
18336668 15 18041289798360953308
20028762 73 16320621536743395515
20609170 92 18188202230170873244
20642791 35 18335405856551681573
20691752 17 17604132793231216105
20721686 56 18338516460603445224
20775438 99 17550358062987035671
21344244 246 17981881149329223055
22899556 105 17840027678410595463
23559900 14 18411972568601186733
3298306 158 17976812417999990089
4017518 198 16976719825218749040
5171179 24 18342172306041893312

> <PUBCHEM_SHAPE_MULTIPOLES>
611.05
14.89
4.53
1.66
26.54
5.23
0.23
-9.38
-7.42
-0.27
0.74
-0.86
-0.64
-0.25

> <PUBCHEM_SHAPE_SELFOVERLAP>
1302.275

> <PUBCHEM_SHAPE_VOLUME>
340.7

> <PUBCHEM_COORDINATE_TYPE>
2
5
10

$$$$
