28960006
  -OEChem-12032416133D

 72 76  0     1  0  0  0  0  0999 V2000
   -6.1824    4.5536    0.7857 O   0  0  0  0  0  0  0  0  0  0  0  0
   -3.5763   -3.2137    1.3339 O   0  0  0  0  0  0  0  0  0  0  0  0
   -7.3816    2.6524    0.4273 O   0  0  0  0  0  0  0  0  0  0  0  0
    3.2181    2.9401    1.6858 O   0  0  0  0  0  0  0  0  0  0  0  0
   -0.1114    1.3490   -0.9320 N   0  0  0  0  0  0  0  0  0  0  0  0
   -4.1716   -1.5617   -0.1691 N   0  0  0  0  0  0  0  0  0  0  0  0
    3.9867    1.3121    0.1326 N   0  0  0  0  0  0  0  0  0  0  0  0
    5.4769    2.2523    1.5558 N   0  0  0  0  0  0  0  0  0  0  0  0
   -2.2469   -2.8745   -0.5367 N   0  0  0  0  0  0  0  0  0  0  0  0
   -3.8567    0.7078   -1.1159 C   0  0  1  0  0  0  0  0  0  0  0  0
   -5.0583    1.1917   -0.2614 C   0  0  1  0  0  0  0  0  0  0  0  0
   -2.4880    0.9945   -0.4877 C   0  0  0  0  0  0  0  0  0  0  0  0
   -4.0086   -0.7936   -1.4126 C   0  0  0  0  0  0  0  0  0  0  0  0
   -5.2637    0.3133    0.9862 C   0  0  0  0  0  0  0  0  0  0  0  0
   -1.4091    1.0930   -1.5569 C   0  0  0  0  0  0  0  0  0  0  0  0
   -5.3386   -1.1690    0.6221 C   0  0  0  0  0  0  0  0  0  0  0  0
    2.7670    0.9790   -0.5601 C   0  0  0  0  0  0  0  0  0  0  0  0
    0.8391    1.8782   -1.9198 C   0  0  0  0  0  0  0  0  0  0  0  0
    0.4047    0.1268   -0.3002 C   0  0  0  0  0  0  0  0  0  0  0  0
   -4.9626    2.6666    0.1276 C   0  0  0  0  0  0  0  0  0  0  0  0
    2.1859    2.2017   -1.2706 C   0  0  0  0  0  0  0  0  0  0  0  0
    1.7372    0.3897    0.4035 C   0  0  0  0  0  0  0  0  0  0  0  0
   -3.3440   -2.6114    0.2827 C   0  0  0  0  0  0  0  0  0  0  0  0
   -6.3128    3.2440    0.4514 C   0  0  0  0  0  0  0  0  0  0  0  0
    5.2448    0.7550   -0.1278 C   0  0  0  0  0  0  0  0  0  0  0  0
    4.1017    2.2572    1.1868 C   0  0  0  0  0  0  0  0  0  0  0  0
    6.1563    1.3376    0.7507 C   0  0  0  0  0  0  0  0  0  0  0  0
    5.6365   -0.1945   -1.0484 C   0  0  0  0  0  0  0  0  0  0  0  0
    7.4930    1.0057    0.7556 C   0  0  0  0  0  0  0  0  0  0  0  0
    6.9898   -0.5483   -1.0629 C   0  0  0  0  0  0  0  0  0  0  0  0
   -0.9830   -3.3811   -0.1448 C   0  0  0  0  0  0  0  0  0  0  0  0
    7.9079    0.0453   -0.1708 C   0  0  0  0  0  0  0  0  0  0  0  0
    0.0123   -3.5876   -1.1001 C   0  0  0  0  0  0  0  0  0  0  0  0
   -0.7341   -3.6735    1.1961 C   0  0  0  0  0  0  0  0  0  0  0  0
    1.2565   -4.0865   -0.7144 C   0  0  0  0  0  0  0  0  0  0  0  0
    0.5100   -4.1724    1.5818 C   0  0  0  0  0  0  0  0  0  0  0  0
    1.5053   -4.3790    0.6266 C   0  0  0  0  0  0  0  0  0  0  0  0
   -3.9160    1.2439   -2.0733 H   0  0  0  0  0  0  0  0  0  0  0  0
   -5.9482    1.0588   -0.8946 H   0  0  0  0  0  0  0  0  0  0  0  0
   -2.2645    0.2368    0.2678 H   0  0  0  0  0  0  0  0  0  0  0  0
   -2.4996    1.9509    0.0461 H   0  0  0  0  0  0  0  0  0  0  0  0
   -4.9144   -0.9642   -2.0084 H   0  0  0  0  0  0  0  0  0  0  0  0
   -3.1779   -1.1391   -2.0249 H   0  0  0  0  0  0  0  0  0  0  0  0
   -6.1792    0.5940    1.5178 H   0  0  0  0  0  0  0  0  0  0  0  0
   -4.4312    0.4667    1.6849 H   0  0  0  0  0  0  0  0  0  0  0  0
   -1.6730    1.9307   -2.2161 H   0  0  0  0  0  0  0  0  0  0  0  0
   -1.3719    0.1967   -2.1873 H   0  0  0  0  0  0  0  0  0  0  0  0
   -5.4180   -1.7672    1.5349 H   0  0  0  0  0  0  0  0  0  0  0  0
   -6.2316   -1.3728    0.0194 H   0  0  0  0  0  0  0  0  0  0  0  0
    2.9803    0.2215   -1.3227 H   0  0  0  0  0  0  0  0  0  0  0  0
    0.4463    2.8035   -2.3589 H   0  0  0  0  0  0  0  0  0  0  0  0
    0.9863    1.1646   -2.7413 H   0  0  0  0  0  0  0  0  0  0  0  0
    0.5421   -0.6631   -1.0487 H   0  0  0  0  0  0  0  0  0  0  0  0
   -0.2813   -0.2585    0.4593 H   0  0  0  0  0  0  0  0  0  0  0  0
   -4.3160    2.8051    1.0009 H   0  0  0  0  0  0  0  0  0  0  0  0
   -4.5604    3.2459   -0.7120 H   0  0  0  0  0  0  0  0  0  0  0  0
    2.8866    2.5556   -2.0371 H   0  0  0  0  0  0  0  0  0  0  0  0
    2.0467    3.0362   -0.5728 H   0  0  0  0  0  0  0  0  0  0  0  0
    1.5582    1.0603    1.2526 H   0  0  0  0  0  0  0  0  0  0  0  0
    2.1180   -0.5481    0.8271 H   0  0  0  0  0  0  0  0  0  0  0  0
    5.9045    2.8148    2.2811 H   0  0  0  0  0  0  0  0  0  0  0  0
   -2.3261   -2.6807   -1.5281 H   0  0  0  0  0  0  0  0  0  0  0  0
    4.9475   -0.6617   -1.7409 H   0  0  0  0  0  0  0  0  0  0  0  0
    8.1966    1.4624    1.4413 H   0  0  0  0  0  0  0  0  0  0  0  0
   -7.0468    4.9630    1.0039 H   0  0  0  0  0  0  0  0  0  0  0  0
    7.3426   -1.2928   -1.7721 H   0  0  0  0  0  0  0  0  0  0  0  0
    8.9531   -0.2509   -0.2068 H   0  0  0  0  0  0  0  0  0  0  0  0
   -0.1679   -3.3620   -2.1480 H   0  0  0  0  0  0  0  0  0  0  0  0
   -1.4526   -3.5092    1.9890 H   0  0  0  0  0  0  0  0  0  0  0  0
    2.0321   -4.2455   -1.4578 H   0  0  0  0  0  0  0  0  0  0  0  0
    0.7073   -4.3937    2.6267 H   0  0  0  0  0  0  0  0  0  0  0  0
    2.4749   -4.7652    0.9273 H   0  0  0  0  0  0  0  0  0  0  0  0
  1 24  1  0  0  0  0
  1 65  1  0  0  0  0
  2 23  2  0  0  0  0
  3 24  2  0  0  0  0
  4 26  2  0  0  0  0
  5 15  1  0  0  0  0
  5 18  1  0  0  0  0
  5 19  1  0  0  0  0
  6 13  1  0  0  0  0
  6 16  1  0  0  0  0
  6 23  1  0  0  0  0
  7 17  1  0  0  0  0
  7 25  1  0  0  0  0
  7 26  1  0  0  0  0
  8 26  1  0  0  0  0
  8 27  1  0  0  0  0
  8 61  1  0  0  0  0
  9 23  1  0  0  0  0
  9 31  1  0  0  0  0
  9 62  1  0  0  0  0
 10 11  1  0  0  0  0
 10 12  1  0  0  0  0
 10 13  1  0  0  0  0
 10 38  1  0  0  0  0
 11 14  1  0  0  0  0
 11 20  1  0  0  0  0
 11 39  1  0  0  0  0
 12 15  1  0  0  0  0
 12 40  1  0  0  0  0
 12 41  1  0  0  0  0
 13 42  1  0  0  0  0
 13 43  1  0  0  0  0
 14 16  1  0  0  0  0
 14 44  1  0  0  0  0
 14 45  1  0  0  0  0
 15 46  1  0  0  0  0
 15 47  1  0  0  0  0
 16 48  1  0  0  0  0
 16 49  1  0  0  0  0
 17 21  1  0  0  0  0
 17 22  1  0  0  0  0
 17 50  1  0  0  0  0
 18 21  1  0  0  0  0
 18 51  1  0  0  0  0
 18 52  1  0  0  0  0
 19 22  1  0  0  0  0
 19 53  1  0  0  0  0
 19 54  1  0  0  0  0
 20 24  1  0  0  0  0
 20 55  1  0  0  0  0
 20 56  1  0  0  0  0
 21 57  1  0  0  0  0
 21 58  1  0  0  0  0
 22 59  1  0  0  0  0
 22 60  1  0  0  0  0
 25 27  1  0  0  0  0
 25 28  2  0  0  0  0
 27 29  2  0  0  0  0
 28 30  1  0  0  0  0
 28 63  1  0  0  0  0
 29 32  1  0  0  0  0
 29 64  1  0  0  0  0
 30 32  2  0  0  0  0
 30 66  1  0  0  0  0
 31 33  2  0  0  0  0
 31 34  1  0  0  0  0
 32 67  1  0  0  0  0
 33 35  1  0  0  0  0
 33 68  1  0  0  0  0
 34 36  2  0  0  0  0
 34 69  1  0  0  0  0
 35 37  2  0  0  0  0
 35 70  1  0  0  0  0
 36 37  1  0  0  0  0
 36 71  1  0  0  0  0
 37 72  1  0  0  0  0
M  END
> <PUBCHEM_COMPOUND_CID>
28960006

> <PUBCHEM_CONFORMER_RMSD>
1.2

> <PUBCHEM_CONFORMER_DIVERSEORDER>
1
66
136
93
67
78
21
11
147
100
119
110
114
45
43
155
145
105
120
108
101
112
64
41
107
60
10
51
84
124
31
143
127
99
152
130
157
140
94
90
138
12
87
137
59
40
48
144
37
24
29
106
33
109
13
88
79
38
95
149
52
141
9
19
74
97
42
122
35
153
57
71
86
133
126
139
104
159
28
25
102
23
6
116
89
5
115
73
151
117
128
49
55
20
96
30
82
103
69
7
98
53
134
150
154
118
56
72
135
77
92
148
50
129
47
156
39
132
123
131
16
81
4
65
36
32
46
58
158
34
111
146
68
62
14
142
83
63
2
54
22
76
61
80
18
26
91
15
3
17
125
70
113
44
75
27
85
121
8

> <PUBCHEM_MMFF94_PARTIAL_CHARGES>
43
1 -0.65
13 0.3
15 0.27
16 0.3
17 0.3
18 0.27
19 0.27
2 -0.57
20 0.06
23 0.69
24 0.66
25 0.12
26 0.69
27 0.12
28 -0.15
29 -0.15
3 -0.57
30 -0.15
31 0.12
32 -0.15
33 -0.15
34 -0.15
35 -0.15
36 -0.15
37 -0.15
4 -0.57
5 -0.81
6 -0.66
61 0.37
62 0.37
63 0.15
64 0.15
65 0.5
66 0.15
67 0.15
68 0.15
69 0.15
7 -0.48
70 0.15
71 0.15
72 0.15
8 -0.55
9 -0.55

> <PUBCHEM_EFFECTIVE_ROTOR_COUNT>
11.4

> <PUBCHEM_PHARMACOPHORE_FEATURES>
13
1 1 acceptor
1 2 acceptor
1 3 acceptor
1 4 acceptor
1 5 cation
1 8 donor
1 9 donor
3 1 3 24 anion
5 7 8 25 26 27 rings
6 25 27 28 29 30 32 rings
6 31 33 34 35 36 37 rings
6 5 17 18 19 21 22 rings
6 6 10 11 13 14 16 rings

> <PUBCHEM_HEAVY_ATOM_COUNT>
37

> <PUBCHEM_ATOM_DEF_STEREO_COUNT>
2

> <PUBCHEM_ATOM_UDEF_STEREO_COUNT>
0

> <PUBCHEM_BOND_DEF_STEREO_COUNT>
0

> <PUBCHEM_BOND_UDEF_STEREO_COUNT>
0

> <PUBCHEM_ISOTOPIC_ATOM_COUNT>
0

> <PUBCHEM_COMPONENT_COUNT>
1

> <PUBCHEM_CACTVS_TAUTO_COUNT>
4

> <PUBCHEM_CONFORMER_ID>
01B9E50600000001

> <PUBCHEM_MMFF94_ENERGY>
97.4481

> <PUBCHEM_FEATURE_SELFOVERLAP>
66.13

> <PUBCHEM_SHAPE_FINGERPRINT>
10462385 53 18043511864485359629
10864689 126 18270973332418111622
11135926 11 18334851672025138157
11524674 6 18272649082163989974
12422481 6 18260270771431039278
14040222 383 18335709355355671565
14117953 113 18113887304400564567
14725015 67 18122065566346308243
14856354 85 16515406291490255473
15274700 242 17459724061420814562
15297060 5 18342458136236326721
15361156 5 18052821631437935534
15439362 3 18193557766715112369
15444296 121 17896328072352010990
15927050 60 18412540981980245487
16112460 7 18338517439518417898
21033648 29 18271793666534133096
21987440 362 18339084774380072247
22889206 1 18117278047810916611
229767 44 18190176974085647742
23516275 137 18043828493674208698
23522609 53 17605300482516586276
3383291 50 18117554252546445027
3411729 13 18268149760640258183
4073 2 18411980299843097332
4144715 1 18267865175944221264
4408954 64 16230303059557753171
5265222 85 18263656210999087604
6371380 46 18413669123922936536
9896288 288 18410017658924142171

> <PUBCHEM_SHAPE_MULTIPOLES>
713.06
18.9
6.02
1.49
11.98
5.55
0.05
-17.36
-3.67
-5.74
-1.85
0.52
-0.15
0.66

> <PUBCHEM_SHAPE_SELFOVERLAP>
1523.345

> <PUBCHEM_SHAPE_VOLUME>
389.4

> <PUBCHEM_COORDINATE_TYPE>
2
5
10

$$$$
