45783419
  -OEChem-12032416203D

 54 57  0     1  0  0  0  0  0999 V2000
   -0.8837    0.2036    2.6523 O   0  0  0  0  0  0  0  0  0  0  0  0
    1.4307   -1.4436   -1.0138 O   0  0  0  0  0  0  0  0  0  0  0  0
    1.8809    4.7470    0.0202 O   0  5  0  0  0  0  0  0  0  0  0  0
    2.3069    3.5162   -1.7469 O   0  0  0  0  0  0  0  0  0  0  0  0
   -0.3529   -2.6551   -2.7981 O   0  0  0  0  0  0  0  0  0  0  0  0
   -3.2219   -0.3204    0.0820 N   0  0  1  0  0  0  0  0  0  0  0  0
   -0.3521   -1.2117    0.9996 N   0  0  0  0  0  0  0  0  0  0  0  0
    0.5144    0.1199    2.6459 N   0  0  0  0  0  0  0  0  0  0  0  0
    1.5649    3.8414   -0.7888 N   0  3  0  0  0  0  0  0  0  0  0  0
    3.6297   -1.8495   -0.4423 N   0  0  0  0  0  0  0  0  0  0  0  0
   -2.8122   -0.6957    1.4500 C   0  0  1  0  0  0  0  0  0  0  0  0
   -3.3582   -2.1223    1.6444 C   0  0  0  0  0  0  0  0  0  0  0  0
   -4.1102   -2.4389    0.3594 C   0  0  0  0  0  0  0  0  0  0  0  0
   -4.4437   -1.0725   -0.2046 C   0  0  0  0  0  0  0  0  0  0  0  0
   -3.4089    1.1147   -0.0884 C   0  0  0  0  0  0  0  0  0  0  0  0
   -1.3140   -0.6105    1.6530 C   0  0  0  0  0  0  0  0  0  0  0  0
   -2.0985    1.8329   -0.2722 C   0  0  0  0  0  0  0  0  0  0  0  0
   -1.7255    2.8427    0.6149 C   0  0  0  0  0  0  0  0  0  0  0  0
   -1.2574    1.4883   -1.3303 C   0  0  0  0  0  0  0  0  0  0  0  0
    0.7510   -0.7327    1.6444 C   0  0  0  0  0  0  0  0  0  0  0  0
   -0.5116    3.5081    0.4438 C   0  0  0  0  0  0  0  0  0  0  0  0
   -0.0434    2.1537   -1.5014 C   0  0  0  0  0  0  0  0  0  0  0  0
    2.0766   -1.1274    1.2640 C   0  0  0  0  0  0  0  0  0  0  0  0
    0.3294    3.1636   -0.6145 C   0  0  0  0  0  0  0  0  0  0  0  0
    2.3955   -1.4723   -0.0396 C   0  0  0  0  0  0  0  0  0  0  0  0
    3.0894   -1.1724    2.2155 C   0  0  0  0  0  0  0  0  0  0  0  0
    4.3722   -1.5555    1.8396 C   0  0  0  0  0  0  0  0  0  0  0  0
    4.5884   -1.8813    0.5104 C   0  0  0  0  0  0  0  0  0  0  0  0
    1.8372   -1.8112   -2.3262 C   0  0  0  0  0  0  0  0  0  0  0  0
    0.6387   -1.7422   -3.2530 C   0  0  0  0  0  0  0  0  0  0  0  0
   -1.5116   -2.6168   -3.6194 C   0  0  0  0  0  0  0  0  0  0  0  0
   -3.3052   -0.0538    2.1938 H   0  0  0  0  0  0  0  0  0  0  0  0
   -2.5845   -2.8732    1.8376 H   0  0  0  0  0  0  0  0  0  0  0  0
   -4.0571   -2.1368    2.4898 H   0  0  0  0  0  0  0  0  0  0  0  0
   -3.4559   -2.9875   -0.3296 H   0  0  0  0  0  0  0  0  0  0  0  0
   -5.0011   -3.0475    0.5402 H   0  0  0  0  0  0  0  0  0  0  0  0
   -4.6556   -1.1215   -1.2772 H   0  0  0  0  0  0  0  0  0  0  0  0
   -5.3137   -0.6490    0.3131 H   0  0  0  0  0  0  0  0  0  0  0  0
   -3.9916    1.3091   -1.0000 H   0  0  0  0  0  0  0  0  0  0  0  0
   -3.9947    1.5486    0.7326 H   0  0  0  0  0  0  0  0  0  0  0  0
   -2.3701    3.1197    1.4448 H   0  0  0  0  0  0  0  0  0  0  0  0
   -1.5379    0.7073   -2.0318 H   0  0  0  0  0  0  0  0  0  0  0  0
   -0.2534    4.2886    1.1548 H   0  0  0  0  0  0  0  0  0  0  0  0
    0.5865    1.8584   -2.3366 H   0  0  0  0  0  0  0  0  0  0  0  0
    2.9075   -0.9215    3.2575 H   0  0  0  0  0  0  0  0  0  0  0  0
    5.1771   -1.5995    2.5644 H   0  0  0  0  0  0  0  0  0  0  0  0
    5.5710   -2.1869    0.1661 H   0  0  0  0  0  0  0  0  0  0  0  0
    2.2190   -2.8397   -2.3156 H   0  0  0  0  0  0  0  0  0  0  0  0
    2.6127   -1.1267   -2.6899 H   0  0  0  0  0  0  0  0  0  0  0  0
    0.2211   -0.7296   -3.2458 H   0  0  0  0  0  0  0  0  0  0  0  0
    0.9406   -2.0014   -4.2738 H   0  0  0  0  0  0  0  0  0  0  0  0
   -1.9653   -1.6211   -3.5960 H   0  0  0  0  0  0  0  0  0  0  0  0
   -1.2630   -2.8948   -4.6481 H   0  0  0  0  0  0  0  0  0  0  0  0
   -2.2347   -3.3372   -3.2276 H   0  0  0  0  0  0  0  0  0  0  0  0
  1  8  1  0  0  0  0
  1 16  1  0  0  0  0
  2 25  1  0  0  0  0
  2 29  1  0  0  0  0
  3  9  1  0  0  0  0
  4  9  2  0  0  0  0
  5 30  1  0  0  0  0
  5 31  1  0  0  0  0
  6 11  1  0  0  0  0
  6 14  1  0  0  0  0
  6 15  1  0  0  0  0
  7 16  2  0  0  0  0
  7 20  1  0  0  0  0
  8 20  2  0  0  0  0
  9 24  1  0  0  0  0
 10 25  1  0  0  0  0
 10 28  2  0  0  0  0
 11 12  1  0  0  0  0
 11 16  1  0  0  0  0
 11 32  1  0  0  0  0
 12 13  1  0  0  0  0
 12 33  1  0  0  0  0
 12 34  1  0  0  0  0
 13 14  1  0  0  0  0
 13 35  1  0  0  0  0
 13 36  1  0  0  0  0
 14 37  1  0  0  0  0
 14 38  1  0  0  0  0
 15 17  1  0  0  0  0
 15 39  1  0  0  0  0
 15 40  1  0  0  0  0
 17 18  2  0  0  0  0
 17 19  1  0  0  0  0
 18 21  1  0  0  0  0
 18 41  1  0  0  0  0
 19 22  2  0  0  0  0
 19 42  1  0  0  0  0
 20 23  1  0  0  0  0
 21 24  2  0  0  0  0
 21 43  1  0  0  0  0
 22 24  1  0  0  0  0
 22 44  1  0  0  0  0
 23 25  2  0  0  0  0
 23 26  1  0  0  0  0
 26 27  2  0  0  0  0
 26 45  1  0  0  0  0
 27 28  1  0  0  0  0
 27 46  1  0  0  0  0
 28 47  1  0  0  0  0
 29 30  1  0  0  0  0
 29 48  1  0  0  0  0
 29 49  1  0  0  0  0
 30 50  1  0  0  0  0
 30 51  1  0  0  0  0
 31 52  1  0  0  0  0
 31 53  1  0  0  0  0
 31 54  1  0  0  0  0
M  CHG  2   3  -1   9   1
M  END
> <PUBCHEM_COMPOUND_CID>
45783419

> <PUBCHEM_CONFORMER_RMSD>
1

> <PUBCHEM_CONFORMER_DIVERSEORDER>
1
103
94
68
67
78
51
105
85
110
46
79
76
43
114
96
45
88
31
80
55
108
59
15
75
122
22
133
3
93
124
81
129
38
95
100
63
131
118
123
115
109
121
41
42
48
53
104
62
32
107
117
57
71
83
60
2
89
87
92
125
52
86
12
113
39
84
73
20
72
127
17
54
28
112
61
56
29
44
14
35
21
91
132
37
24
30
136
34
128
69
64
74
13
116
130
82
19
58
101
16
33
50
135
102
47
66
137
119
106
49
5
65
77
25
4
126
27
7
11
6
120
26
36
18
111
70
8
10
23
40
9
98
97
99
134
90

> <PUBCHEM_MMFF94_PARTIAL_CHARGES>
36
1 -0.02
10 -0.62
11 0.45
14 0.27
15 0.41
16 0.3
17 -0.14
18 -0.15
19 -0.15
2 -0.36
20 0.46
21 -0.15
22 -0.15
23 0.05
24 0.13
25 0.39
26 -0.15
27 -0.15
28 0.16
29 0.28
3 -0.52
30 0.28
31 0.28
4 -0.52
41 0.15
42 0.15
43 0.15
44 0.15
45 0.15
46 0.15
47 0.15
5 -0.56
6 -0.81
7 -0.57
8 -0.41
9 0.91

> <PUBCHEM_EFFECTIVE_ROTOR_COUNT>
10

> <PUBCHEM_PHARMACOPHORE_FEATURES>
12
1 10 acceptor
1 2 acceptor
1 3 acceptor
1 3 anion
1 4 acceptor
1 5 acceptor
1 6 cation
3 7 8 20 cation
5 1 7 8 16 20 rings
5 6 11 12 13 14 rings
6 10 23 25 26 27 28 rings
6 17 18 19 21 22 24 rings

> <PUBCHEM_HEAVY_ATOM_COUNT>
31

> <PUBCHEM_ATOM_DEF_STEREO_COUNT>
1

> <PUBCHEM_ATOM_UDEF_STEREO_COUNT>
0

> <PUBCHEM_BOND_DEF_STEREO_COUNT>
0

> <PUBCHEM_BOND_UDEF_STEREO_COUNT>
0

> <PUBCHEM_ISOTOPIC_ATOM_COUNT>
0

> <PUBCHEM_COMPONENT_COUNT>
1

> <PUBCHEM_CACTVS_TAUTO_COUNT>
1

> <PUBCHEM_CONFORMER_ID>
02BA997B00000001

> <PUBCHEM_MMFF94_ENERGY>
74.1728

> <PUBCHEM_FEATURE_SELFOVERLAP>
61.033

> <PUBCHEM_SHAPE_FINGERPRINT>
1100329 8 18188772743566730297
11578080 2 17341559361208544280
12655364 131 15547479835204807868
133893 2 18046092563703094793
13583140 156 17981576340069935746
13615921 28 18113613456842555622
13761468 95 16595353715103411086
15664445 248 18267890340426360683
15876981 60 18041573416742433966
17818456 19 17320117746569923554
20028762 73 16462230903011166211
20600515 1 17971755471834288557
20905425 154 18117571823457294101
23557571 272 18267024955385729523
3298306 158 17901671784293369389
35225 105 17541337338315088391
469060 322 18054755538488214670
550186 7 17905319629510212518
59755656 215 17611471127082238947

> <PUBCHEM_SHAPE_MULTIPOLES>
583.71
6.71
4.98
3.23
2.47
6.97
-2.11
-5.3
2.78
-0.26
-2.49
0.73
-2.7
-0.31

> <PUBCHEM_SHAPE_SELFOVERLAP>
1255.23

> <PUBCHEM_SHAPE_VOLUME>
323.5

> <PUBCHEM_COORDINATE_TYPE>
2
5
10

$$$$
