11886265
  -OEChem-12032416373D

 67 73  0     1  0  0  0  0  0999 V2000
    0.2224   -2.6836    1.9843 O   0  0  0  0  0  0  0  0  0  0  0  0
    0.8447   -3.0483   -1.0770 O   0  0  0  0  0  0  0  0  0  0  0  0
    4.8851   -0.8641    0.1996 O   0  0  0  0  0  0  0  0  0  0  0  0
   -3.8674   -2.1265    0.7472 O   0  0  0  0  0  0  0  0  0  0  0  0
   -9.1801    0.9955   -1.3476 O   0  0  0  0  0  0  0  0  0  0  0  0
    2.6760   -0.7159    1.0551 N   0  0  0  0  0  0  0  0  0  0  0  0
   -2.1355   -2.2761   -0.7771 N   0  0  0  0  0  0  0  0  0  0  0  0
    1.9344    0.1947    1.7009 N   0  0  0  0  0  0  0  0  0  0  0  0
    3.9744    1.0027    1.3061 N   0  0  0  0  0  0  0  0  0  0  0  0
    2.7339    1.2435    1.8521 N   0  0  0  0  0  0  0  0  0  0  0  0
   -4.0645   -1.1950   -1.3985 N   0  0  0  0  0  0  0  0  0  0  0  0
    9.8104    1.6489   -0.5273 N   0  0  0  0  0  0  0  0  0  0  0  0
   10.7948    1.5500    0.3789 N   0  0  0  0  0  0  0  0  0  0  0  0
   11.4216    2.8342   -1.4073 N   0  0  0  0  0  0  0  0  0  0  0  0
    0.8952   -1.9282   -0.1745 C   0  0  1  0  0  0  0  0  0  0  0  0
   -0.2719   -2.0712    0.7828 C   0  0  1  0  0  0  0  0  0  0  0  0
    2.1283   -2.0286    0.7033 C   0  0  2  0  0  0  0  0  0  0  0  0
   -1.2255   -3.0054    0.0726 C   0  0  2  0  0  0  0  0  0  0  0  0
    1.6418   -2.8626    1.8834 C   0  0  0  0  0  0  0  0  0  0  0  0
   -0.2834   -3.8696   -0.7448 C   0  0  0  0  0  0  0  0  0  0  0  0
    3.9166   -0.2154    0.8191 C   0  0  0  0  0  0  0  0  0  0  0  0
   -3.4155   -1.8821   -0.3689 C   0  0  0  0  0  0  0  0  0  0  0  0
   -5.3642   -0.6369   -1.3851 C   0  0  0  0  0  0  0  0  0  0  0  0
    6.1253   -0.2310    0.0167 C   0  0  0  0  0  0  0  0  0  0  0  0
   -5.8532    0.0193   -2.5147 C   0  0  0  0  0  0  0  0  0  0  0  0
   -6.1574   -0.7440   -0.2427 C   0  0  0  0  0  0  0  0  0  0  0  0
    7.1224   -0.3580    0.9838 C   0  0  0  0  0  0  0  0  0  0  0  0
    6.3598    0.5245   -1.1321 C   0  0  0  0  0  0  0  0  0  0  0  0
    8.3542    0.2706    0.8020 C   0  0  0  0  0  0  0  0  0  0  0  0
    7.5916    1.1532   -1.3138 C   0  0  0  0  0  0  0  0  0  0  0  0
   -7.1352    0.5685   -2.5019 C   0  0  0  0  0  0  0  0  0  0  0  0
   -7.4395   -0.1947   -0.2298 C   0  0  0  0  0  0  0  0  0  0  0  0
    8.5889    1.0263   -0.3467 C   0  0  0  0  0  0  0  0  0  0  0  0
   -7.9284    0.4616   -1.3594 C   0  0  0  0  0  0  0  0  0  0  0  0
   10.1908    2.4139   -1.5856 C   0  0  0  0  0  0  0  0  0  0  0  0
   -9.5587    1.7242   -0.2325 C   0  0  0  0  0  0  0  0  0  0  0  0
   11.7468    2.2846   -0.2003 C   0  0  0  0  0  0  0  0  0  0  0  0
   -8.6842    2.6610    0.3184 C   0  0  0  0  0  0  0  0  0  0  0  0
  -10.8141    1.5209    0.3403 C   0  0  0  0  0  0  0  0  0  0  0  0
   -9.0651    3.3943    1.4423 C   0  0  0  0  0  0  0  0  0  0  0  0
  -11.1952    2.2542    1.4640 C   0  0  0  0  0  0  0  0  0  0  0  0
  -10.3206    3.1908    2.0149 C   0  0  0  0  0  0  0  0  0  0  0  0
    0.8422   -1.0200   -0.7837 H   0  0  0  0  0  0  0  0  0  0  0  0
   -0.7139   -1.1100    1.0642 H   0  0  0  0  0  0  0  0  0  0  0  0
    2.9419   -2.5631    0.1986 H   0  0  0  0  0  0  0  0  0  0  0  0
   -1.8090   -3.6220    0.7647 H   0  0  0  0  0  0  0  0  0  0  0  0
    2.1095   -2.5924    2.8350 H   0  0  0  0  0  0  0  0  0  0  0  0
    1.8201   -3.9285    1.7034 H   0  0  0  0  0  0  0  0  0  0  0  0
    0.0900   -4.7121   -0.1523 H   0  0  0  0  0  0  0  0  0  0  0  0
   -0.7289   -4.2641   -1.6631 H   0  0  0  0  0  0  0  0  0  0  0  0
   -1.8088   -1.9777   -1.6913 H   0  0  0  0  0  0  0  0  0  0  0  0
   -3.5474   -1.0782   -2.2663 H   0  0  0  0  0  0  0  0  0  0  0  0
   -5.2455    0.1095   -3.4113 H   0  0  0  0  0  0  0  0  0  0  0  0
   -5.8516   -1.2410    0.6669 H   0  0  0  0  0  0  0  0  0  0  0  0
    6.9455   -0.9461    1.8802 H   0  0  0  0  0  0  0  0  0  0  0  0
    5.5868    0.6258   -1.8891 H   0  0  0  0  0  0  0  0  0  0  0  0
    9.1044    0.1466    1.5787 H   0  0  0  0  0  0  0  0  0  0  0  0
    7.7182    1.7273   -2.2257 H   0  0  0  0  0  0  0  0  0  0  0  0
   -7.5109    1.0784   -3.3848 H   0  0  0  0  0  0  0  0  0  0  0  0
   -8.0448   -0.3132    0.6651 H   0  0  0  0  0  0  0  0  0  0  0  0
    9.5857    2.6495   -2.4496 H   0  0  0  0  0  0  0  0  0  0  0  0
   12.7079    2.4233    0.2718 H   0  0  0  0  0  0  0  0  0  0  0  0
   -7.7093    2.8553   -0.1205 H   0  0  0  0  0  0  0  0  0  0  0  0
  -11.4989    0.7921   -0.0845 H   0  0  0  0  0  0  0  0  0  0  0  0
   -8.3864    4.1272    1.8685 H   0  0  0  0  0  0  0  0  0  0  0  0
  -12.1727    2.0959    1.9098 H   0  0  0  0  0  0  0  0  0  0  0  0
  -10.6176    3.7627    2.8892 H   0  0  0  0  0  0  0  0  0  0  0  0
  1 16  1  0  0  0  0
  1 19  1  0  0  0  0
  2 15  1  0  0  0  0
  2 20  1  0  0  0  0
  3 21  1  0  0  0  0
  3 24  1  0  0  0  0
  4 22  2  0  0  0  0
  5 34  1  0  0  0  0
  5 36  1  0  0  0  0
  6  8  1  0  0  0  0
  6 17  1  0  0  0  0
  6 21  1  0  0  0  0
  7 18  1  0  0  0  0
  7 22  1  0  0  0  0
  7 51  1  0  0  0  0
  8 10  2  0  0  0  0
  9 10  1  0  0  0  0
  9 21  2  0  0  0  0
 11 22  1  0  0  0  0
 11 23  1  0  0  0  0
 11 52  1  0  0  0  0
 12 13  1  0  0  0  0
 12 33  1  0  0  0  0
 12 35  1  0  0  0  0
 13 37  2  0  0  0  0
 14 35  2  0  0  0  0
 14 37  1  0  0  0  0
 15 16  1  0  0  0  0
 15 17  1  0  0  0  0
 15 43  1  0  0  0  0
 16 18  1  0  0  0  0
 16 44  1  0  0  0  0
 17 19  1  0  0  0  0
 17 45  1  0  0  0  0
 18 20  1  0  0  0  0
 18 46  1  0  0  0  0
 19 47  1  0  0  0  0
 19 48  1  0  0  0  0
 20 49  1  0  0  0  0
 20 50  1  0  0  0  0
 23 25  2  0  0  0  0
 23 26  1  0  0  0  0
 24 27  2  0  0  0  0
 24 28  1  0  0  0  0
 25 31  1  0  0  0  0
 25 53  1  0  0  0  0
 26 32  2  0  0  0  0
 26 54  1  0  0  0  0
 27 29  1  0  0  0  0
 27 55  1  0  0  0  0
 28 30  2  0  0  0  0
 28 56  1  0  0  0  0
 29 33  2  0  0  0  0
 29 57  1  0  0  0  0
 30 33  1  0  0  0  0
 30 58  1  0  0  0  0
 31 34  2  0  0  0  0
 31 59  1  0  0  0  0
 32 34  1  0  0  0  0
 32 60  1  0  0  0  0
 35 61  1  0  0  0  0
 36 38  2  0  0  0  0
 36 39  1  0  0  0  0
 37 62  1  0  0  0  0
 38 40  1  0  0  0  0
 38 63  1  0  0  0  0
 39 41  2  0  0  0  0
 39 64  1  0  0  0  0
 40 42  2  0  0  0  0
 40 65  1  0  0  0  0
 41 42  1  0  0  0  0
 41 66  1  0  0  0  0
 42 67  1  0  0  0  0
M  END
> <PUBCHEM_COMPOUND_CID>
11886265

> <PUBCHEM_CONFORMER_RMSD>
1.2

> <PUBCHEM_CONFORMER_DIVERSEORDER>
1
58
173
162
157
185
63
148
127
181
186
24
207
18
66
4
72
172
15
51
21
192
167
103
149
95
130
79
48
22
163
31
126
47
6
124
83
201
59
84
202
73
147
38
189
76
153
144
44
107
41
91
29
166
13
177
122
142
175
203
204
50
156
209
82
170
146
116
140
199
109
20
17
89
87
52
3
131
174
45
53
139
81
125
101
94
176
184
117
152
97
57
69
115
19
49
35
113
123
77
92
159
40
64
198
33
194
120
68
106
155
136
55
150
190
205
100
164
158
105
32
112
70
121
195
10
34
200
85
208
36
111
8
114
128
143
178
46
132
62
169
56
96
210
134
7
138
102
71
78
161
74
135
43
16
25
42
129
67
154
187
110
99
2
11
145
39
108
118
88
65
183
119
37
171
14
133
23
165
206
80
196
86
26
90
54
60
168
160
193
197
141
27
151
98
180
137
182
188
12
75
5
30
93
104
28
61
9
179
191

> <PUBCHEM_MMFF94_PARTIAL_CHARGES>
58
1 -0.56
11 -0.55
12 0.59
13 -0.71
14 -0.57
15 0.28
16 0.28
17 0.26
18 0.3
19 0.28
2 -0.56
20 0.28
21 0.25
22 0.69
23 0.12
24 0.08
25 -0.15
26 -0.15
27 -0.15
28 -0.15
29 -0.15
3 -0.15
30 -0.15
31 -0.15
32 -0.15
33 -0.02
34 0.08
35 0.04
36 0.08
37 0.37
38 -0.15
39 -0.15
4 -0.57
40 -0.15
41 -0.15
42 -0.15
5 -0.17
51 0.37
52 0.37
53 0.15
54 0.15
55 0.15
56 0.15
57 0.15
58 0.15
59 0.15
6 0.31
60 0.15
61 0.15
62 0.15
63 0.15
64 0.15
65 0.15
66 0.15
67 0.15
7 -0.73
8 -0.42
9 -0.34

> <PUBCHEM_EFFECTIVE_ROTOR_COUNT>
11.2

> <PUBCHEM_PHARMACOPHORE_FEATURES>
16
1 1 acceptor
1 11 donor
1 2 acceptor
1 4 acceptor
1 5 acceptor
1 7 donor
3 12 14 35 cation
3 13 14 37 cation
3 6 9 21 cation
5 1 15 16 17 19 rings
5 12 13 14 35 37 rings
5 2 15 16 18 20 rings
5 6 8 9 10 21 rings
6 23 25 26 31 32 34 rings
6 24 27 28 29 30 33 rings
6 36 38 39 40 41 42 rings

> <PUBCHEM_HEAVY_ATOM_COUNT>
42

> <PUBCHEM_ATOM_DEF_STEREO_COUNT>
4

> <PUBCHEM_ATOM_UDEF_STEREO_COUNT>
0

> <PUBCHEM_BOND_DEF_STEREO_COUNT>
0

> <PUBCHEM_BOND_UDEF_STEREO_COUNT>
0

> <PUBCHEM_ISOTOPIC_ATOM_COUNT>
0

> <PUBCHEM_COMPONENT_COUNT>
1

> <PUBCHEM_CACTVS_TAUTO_COUNT>
3

> <PUBCHEM_CONFORMER_ID>
00B55EB900000001

> <PUBCHEM_MMFF94_ENERGY>
124.2517

> <PUBCHEM_FEATURE_SELFOVERLAP>
84.694

> <PUBCHEM_SHAPE_FINGERPRINT>
10029044 110 18411983550478946636
10100884 174 9007051370665102357
10190206 1 18273498970192042320
10533779 47 15647043829976570226
10625338 86 17458622277602182301
10920273 25 18341899580804822037
10952577 141 18413107277512503423
11181472 205 18411697665362464490
11478447 62 9151170940103361873
11973864 220 18201162074896021361
1200032 147 18410851028456019179
12013929 112 17132113520520181495
12125137 17 18335143085609393325
12559415 135 18272928328775347464
131240 88 17675925400234117492
13383665 225 17631737063290822155
13947947 74 18412822516843619424
14201967 126 18411136927286396385
14359421 15 8574130754522066745
14400156 260 18410000027772000656
14918687 75 7925622319877745794
15145343 15 18129389203378738585
15145343 16 18187936122175164645
15350500 16 9151167663132452863
15392192 104 13840274645836738658
15685185 35 18410858746901737275
19302320 297 17168142360805264878
20156587 128 17917714566002971518
212700 22 12247676076343529844
21792965 326 18201443528639793481
21792965 78 11383840354628447748
21792965 96 17060053797218367655
21867126 195 9151170944049604347
21895431 317 9871480807390932308
22002106 203 8214136353144972981
23528940 14 8862951563420917452
23729398 52 17981326695064986239
24203241 11 12035450558074904705
24771293 8 18335979797521690223
3986486 107 17775001310253713605
4339292 15 11600008747211282307
44280117 145 18339359799150425719
4760202 170 17702660120871228728
54039377 194 10952052264233640347
6201320 221 13686027436129390109
636783 76 18059850723402212672
9962374 69 8358246060816464867

> <PUBCHEM_SHAPE_MULTIPOLES>
790.16
49.18
4.13
2
14.54
1.03
0.27
-67.9
5.37
-2.26
-0.89
-2.44
-0.38
-6.36

> <PUBCHEM_SHAPE_SELFOVERLAP>
1752.93

> <PUBCHEM_SHAPE_VOLUME>
422.1

> <PUBCHEM_COORDINATE_TYPE>
2
5
10

$$$$
