75367094
  -OEChem-12032416403D

 44 46  0     1  0  0  0  0  0999 V2000
    3.2430    1.5841   -0.1663 S   0  0  0  0  0  0  0  0  0  0  0  0
   -1.1370    0.8344   -1.2252 O   0  0  0  0  0  0  0  0  0  0  0  0
   -1.7260    0.7683    2.3180 O   0  0  0  0  0  0  0  0  0  0  0  0
    3.2857    2.1624    1.1633 O   0  0  0  0  0  0  0  0  0  0  0  0
    3.9311    2.2325   -1.2661 O   0  0  0  0  0  0  0  0  0  0  0  0
   -4.0105   -0.4931    0.5670 N   0  0  0  0  0  0  0  0  0  0  0  0
    1.6235    1.3115   -0.6105 N   0  0  0  0  0  0  0  0  0  0  0  0
   -5.2739   -0.0618   -0.0131 C   0  0  0  0  0  0  0  0  0  0  0  0
   -2.9710    0.4690    0.2393 C   0  0  1  0  0  0  0  0  0  0  0  0
   -6.4343   -0.8027    0.6861 C   0  0  0  0  0  0  0  0  0  0  0  0
   -5.5787   -0.9165   -1.2626 C   0  0  0  0  0  0  0  0  0  0  0  0
   -1.6774    0.2514    1.0023 C   0  0  1  0  0  0  0  0  0  0  0  0
   -7.0234   -1.0304   -0.7246 C   0  0  0  0  0  0  0  0  0  0  0  0
   -0.6900    1.0137    0.1290 C   0  0  1  0  0  0  0  0  0  0  0  0
   -2.4939    0.3576   -1.1995 C   0  0  0  0  0  0  0  0  0  0  0  0
    0.7392    0.5203    0.2674 C   0  0  0  0  0  0  0  0  0  0  0  0
    3.8724   -0.0645   -0.0638 C   0  0  0  0  0  0  0  0  0  0  0  0
    4.4326   -0.6682   -1.1895 C   0  0  0  0  0  0  0  0  0  0  0  0
    3.8054   -0.7631    1.1416 C   0  0  0  0  0  0  0  0  0  0  0  0
    4.9259   -1.9706   -1.1099 C   0  0  0  0  0  0  0  0  0  0  0  0
    4.2985   -2.0653    1.2214 C   0  0  0  0  0  0  0  0  0  0  0  0
    4.8588   -2.6692    0.0956 C   0  0  0  0  0  0  0  0  0  0  0  0
   -5.4504    1.0152   -0.1182 H   0  0  0  0  0  0  0  0  0  0  0  0
   -3.3181    1.4910    0.4486 H   0  0  0  0  0  0  0  0  0  0  0  0
   -7.0486   -0.1959    1.3570 H   0  0  0  0  0  0  0  0  0  0  0  0
   -6.1731   -1.7384    1.1964 H   0  0  0  0  0  0  0  0  0  0  0  0
   -5.4788   -0.4049   -2.2237 H   0  0  0  0  0  0  0  0  0  0  0  0
   -5.0651   -1.8843   -1.3219 H   0  0  0  0  0  0  0  0  0  0  0  0
   -1.4220   -0.8145    1.0505 H   0  0  0  0  0  0  0  0  0  0  0  0
   -7.5173   -1.9917   -0.8854 H   0  0  0  0  0  0  0  0  0  0  0  0
   -7.6858   -0.2251   -1.0625 H   0  0  0  0  0  0  0  0  0  0  0  0
   -4.0508   -0.5859    1.5826 H   0  0  0  0  0  0  0  0  0  0  0  0
   -0.7261    2.0896    0.3459 H   0  0  0  0  0  0  0  0  0  0  0  0
   -2.4752   -0.6793   -1.5544 H   0  0  0  0  0  0  0  0  0  0  0  0
   -3.0990    0.9498   -1.8926 H   0  0  0  0  0  0  0  0  0  0  0  0
    0.8110   -0.5274   -0.0452 H   0  0  0  0  0  0  0  0  0  0  0  0
    1.0560    0.6057    1.3111 H   0  0  0  0  0  0  0  0  0  0  0  0
   -1.9525    1.7124    2.2675 H   0  0  0  0  0  0  0  0  0  0  0  0
    1.3859    1.3002   -1.6102 H   0  0  0  0  0  0  0  0  0  0  0  0
    4.4878   -0.1459   -2.1404 H   0  0  0  0  0  0  0  0  0  0  0  0
    3.3708   -0.3137    2.0299 H   0  0  0  0  0  0  0  0  0  0  0  0
    5.3603   -2.4416   -1.9868 H   0  0  0  0  0  0  0  0  0  0  0  0
    4.2456   -2.6097    2.1597 H   0  0  0  0  0  0  0  0  0  0  0  0
    5.2422   -3.6835    0.1576 H   0  0  0  0  0  0  0  0  0  0  0  0
  1  4  2  0  0  0  0
  1  5  2  0  0  0  0
  1  7  1  0  0  0  0
  1 17  1  0  0  0  0
  2 14  1  0  0  0  0
  2 15  1  0  0  0  0
  3 12  1  0  0  0  0
  3 38  1  0  0  0  0
  6  8  1  0  0  0  0
  6  9  1  0  0  0  0
  6 32  1  0  0  0  0
  7 16  1  0  0  0  0
  7 39  1  0  0  0  0
  8 10  1  0  0  0  0
  8 11  1  0  0  0  0
  8 23  1  0  0  0  0
  9 12  1  0  0  0  0
  9 15  1  0  0  0  0
  9 24  1  0  0  0  0
 10 13  1  0  0  0  0
 10 25  1  0  0  0  0
 10 26  1  0  0  0  0
 11 13  1  0  0  0  0
 11 27  1  0  0  0  0
 11 28  1  0  0  0  0
 12 14  1  0  0  0  0
 12 29  1  0  0  0  0
 13 30  1  0  0  0  0
 13 31  1  0  0  0  0
 14 16  1  0  0  0  0
 14 33  1  0  0  0  0
 15 34  1  0  0  0  0
 15 35  1  0  0  0  0
 16 36  1  0  0  0  0
 16 37  1  0  0  0  0
 17 18  2  0  0  0  0
 17 19  1  0  0  0  0
 18 20  1  0  0  0  0
 18 40  1  0  0  0  0
 19 21  2  0  0  0  0
 19 41  1  0  0  0  0
 20 22  2  0  0  0  0
 20 42  1  0  0  0  0
 21 22  1  0  0  0  0
 21 43  1  0  0  0  0
 22 44  1  0  0  0  0
M  END
> <PUBCHEM_COMPOUND_CID>
75367094

> <PUBCHEM_CONFORMER_RMSD>
0.8

> <PUBCHEM_CONFORMER_DIVERSEORDER>
1
61
129
23
76
63
121
175
178
149
96
78
25
97
72
187
86
134
118
148
109
67
143
171
77
24
154
183
82
168
13
120
41
182
188
38
176
19
100
55
8
35
170
81
131
110
139
167
173
190
124
106
103
95
191
12
172
90
156
165
181
5
147
194
111
2
163
150
126
184
157
80
101
113
51
37
27
54
180
137
155
85
59
93
58
116
151
10
161
68
152
40
146
11
127
52
195
105
162
114
62
6
192
138
22
132
84
3
83
48
123
87
71
46
185
88
169
45
189
141
36
104
31
39
125
133
42
47
66
79
69
179
122
44
98
94
70
92
130
57
186
74
164
108
33
15
128
89
117
112
107
166
60
140
34
20
158
159
193
64
50
142
26
135
16
30
153
56
174
18
9
160
29
91
75
145
144
17
73
65
32
115
21
43
99
102
49
53
177
119
196
197
28
4
136
14
7

> <PUBCHEM_MMFF94_PARTIAL_CHARGES>
27
1 1.45
12 0.28
14 0.28
15 0.28
16 0.36
17 -0.01
18 -0.15
19 -0.15
2 -0.56
20 -0.15
21 -0.15
22 -0.15
3 -0.68
32 0.36
38 0.4
39 0.42
4 -0.65
40 0.15
41 0.15
42 0.15
43 0.15
44 0.15
5 -0.65
6 -0.84
7 -0.91
8 0.21
9 0.27

> <PUBCHEM_EFFECTIVE_ROTOR_COUNT>
7.8

> <PUBCHEM_PHARMACOPHORE_FEATURES>
11
1 2 acceptor
1 3 acceptor
1 3 donor
1 4 acceptor
1 5 acceptor
1 6 cation
1 6 donor
1 7 donor
4 8 10 11 13 rings
5 2 9 12 14 15 rings
6 17 18 19 20 21 22 rings

> <PUBCHEM_HEAVY_ATOM_COUNT>
22

> <PUBCHEM_ATOM_DEF_STEREO_COUNT>
3

> <PUBCHEM_ATOM_UDEF_STEREO_COUNT>
0

> <PUBCHEM_BOND_DEF_STEREO_COUNT>
0

> <PUBCHEM_BOND_UDEF_STEREO_COUNT>
0

> <PUBCHEM_ISOTOPIC_ATOM_COUNT>
0

> <PUBCHEM_COMPONENT_COUNT>
1

> <PUBCHEM_CACTVS_TAUTO_COUNT>
1

> <PUBCHEM_CONFORMER_ID>
047E02B600000001

> <PUBCHEM_MMFF94_ENERGY>
42.7909

> <PUBCHEM_FEATURE_SELFOVERLAP>
55.84

> <PUBCHEM_SHAPE_FINGERPRINT>
10 15 13973958831502884143
10366900 7 17531256002384088610
10498660 4 14418430879392325168
10670039 82 14201672001430260630
10906281 52 13407067039197346749
11858739 19 18408037412332548271
11954058 11 17917155996774085998
12236239 1 18131636690484945241
125118 31 10087654701932672907
12616971 3 17917703609098307653
12670543 26 17095798850646826311
13533116 47 18343022207023217904
13782708 43 18411696608821511223
13914758 101 18271241630841176869
13955234 65 18339639057538389320
14211702 104 18338799052282838847
14251740 57 17703234988525297038
14251764 75 11166780310082219802
14347332 77 18335415721590524085
14528608 73 12757153476180883319
15183329 4 17967812726474306253
15188451 53 17846211112049451891
15348495 7 13182734870881502143
15475509 8 17167861920805292261
15575132 122 12180115459405280991
17349148 13 18131638867542786439
17844677 252 18186801370483331517
17857418 61 18343582940963574327
18222031 100 18412547578817351074
20028762 73 18130785637920090654
20281389 69 9223241745655676127
20567600 234 12031780397056400955
20645477 70 18333169462400500300
21150785 3 13262688058282460099
21344244 181 18113339726130509403
21344244 78 17703779311294836920
21521239 73 18186795911964870595
21637258 2 18272642451182532975
21641784 216 14707197791517440127
21792934 111 15123520160235306635
220451 1 18272377528956890853
22061861 79 18113614586709318839
22079108 93 11887953259451978749
2215653 11 17675926490992163323
22224240 67 18267295608142405584
22849339 104 15502956197983468459
2303208 19 17385732417612599907
23081809 10 18201443601638185073
23559900 14 17095252440021741692
270888 7 9222357738217721514
29717793 49 18335417963426159605
3004659 81 18342459244195522118
312423 11 18341060635641329072
3472631 163 12468652628853930690
34797466 226 16733271239395294821
3886686 26 16050156497318855175
397830 11 11311764134050028389
46194498 28 17749110006701915004
465052 167 18341616997077806926
5104073 3 17775003457753517777
5374978 207 15913329104329517424
59682541 52 17967806133510070591
6025842 7 18261959647836521900
7970288 3 18196936574416656606
8988823 20 18201432627263663928
960060 61 17603594010641979766

> <PUBCHEM_SHAPE_MULTIPOLES>
423.16
16.77
2.19
1.48
19.29
0.25
0.25
9.87
-2.35
-4.25
-0.07
-0.15
-0.05
-0.65

> <PUBCHEM_SHAPE_SELFOVERLAP>
869.407

> <PUBCHEM_SHAPE_VOLUME>
245.1

> <PUBCHEM_COORDINATE_TYPE>
2
5
10

$$$$
