45783290
  -OEChem-12032416273D

 55 59  0     1  0  0  0  0  0999 V2000
   -2.4340    0.4173    2.2142 O   0  0  0  0  0  0  0  0  0  0  0  0
   -2.5315    0.8066   -1.9568 O   0  0  0  0  0  0  0  0  0  0  0  0
    5.8512   -1.7117   -1.8368 O   0  0  0  0  0  0  0  0  0  0  0  0
    0.3446    1.6483   -2.1739 O   0  0  0  0  0  0  0  0  0  0  0  0
   -3.5352   -1.5326   -0.4940 N   0  0  1  0  0  0  0  0  0  0  0  0
   -0.9026   -0.6524    0.9783 N   0  0  0  0  0  0  0  0  0  0  0  0
    4.0348   -0.4065   -0.1348 N   0  0  0  0  0  0  0  0  0  0  0  0
   -1.2252    1.0942    2.4201 N   0  0  0  0  0  0  0  0  0  0  0  0
    3.7266    1.4076    1.3534 N   0  0  0  0  0  0  0  0  0  0  0  0
   -3.3150   -1.4901    0.9655 C   0  0  1  0  0  0  0  0  0  0  0  0
   -3.0950   -2.9592    1.3708 C   0  0  0  0  0  0  0  0  0  0  0  0
   -3.2706   -3.7568    0.0864 C   0  0  0  0  0  0  0  0  0  0  0  0
   -4.1092   -2.8459   -0.7874 C   0  0  0  0  0  0  0  0  0  0  0  0
   -4.3757   -0.4459   -0.9800 C   0  0  0  0  0  0  0  0  0  0  0  0
   -2.1555   -0.5967    1.3536 C   0  0  0  0  0  0  0  0  0  0  0  0
   -3.6040    0.8389   -1.1230 C   0  0  0  0  0  0  0  0  0  0  0  0
   -0.3711    0.4045    1.6583 C   0  0  0  0  0  0  0  0  0  0  0  0
   -3.7506    2.0912   -0.5726 C   0  0  0  0  0  0  0  0  0  0  0  0
    3.7564   -0.5166   -1.5710 C   0  0  0  0  0  0  0  0  0  0  0  0
    5.4513   -0.5216    0.2385 C   0  0  0  0  0  0  0  0  0  0  0  0
    1.0188    0.7439    1.5557 C   0  0  0  0  0  0  0  0  0  0  0  0
   -1.9874    2.0518   -1.9387 C   0  0  0  0  0  0  0  0  0  0  0  0
    3.1972    0.3610    0.6811 C   0  0  0  0  0  0  0  0  0  0  0  0
   -2.7009    2.8788   -1.1026 C   0  0  0  0  0  0  0  0  0  0  0  0
    4.4567   -1.7463   -2.1386 C   0  0  0  0  0  0  0  0  0  0  0  0
    6.0604   -1.7514   -0.4253 C   0  0  0  0  0  0  0  0  0  0  0  0
    1.8635   -0.0088    0.7474 C   0  0  0  0  0  0  0  0  0  0  0  0
    1.5265    1.8281    2.2631 C   0  0  0  0  0  0  0  0  0  0  0  0
   -0.7995    2.2546   -2.7799 C   0  0  0  0  0  0  0  0  0  0  0  0
    2.8752    2.1158    2.1289 C   0  0  0  0  0  0  0  0  0  0  0  0
   -4.2183   -1.1402    1.4852 H   0  0  0  0  0  0  0  0  0  0  0  0
   -2.1156   -3.1557    1.8202 H   0  0  0  0  0  0  0  0  0  0  0  0
   -3.8619   -3.2598    2.0953 H   0  0  0  0  0  0  0  0  0  0  0  0
   -3.7477   -4.7253    0.2626 H   0  0  0  0  0  0  0  0  0  0  0  0
   -2.2926   -3.9373   -0.3767 H   0  0  0  0  0  0  0  0  0  0  0  0
   -5.1651   -2.9034   -0.4939 H   0  0  0  0  0  0  0  0  0  0  0  0
   -4.0184   -3.1089   -1.8458 H   0  0  0  0  0  0  0  0  0  0  0  0
   -5.2623   -0.2941   -0.3518 H   0  0  0  0  0  0  0  0  0  0  0  0
   -4.7474   -0.6881   -1.9851 H   0  0  0  0  0  0  0  0  0  0  0  0
   -4.5164    2.3991    0.1247 H   0  0  0  0  0  0  0  0  0  0  0  0
    2.6843   -0.5916   -1.7819 H   0  0  0  0  0  0  0  0  0  0  0  0
    4.1319    0.3867   -2.0676 H   0  0  0  0  0  0  0  0  0  0  0  0
    5.9806    0.3803   -0.0928 H   0  0  0  0  0  0  0  0  0  0  0  0
    5.5678   -0.6118    1.3251 H   0  0  0  0  0  0  0  0  0  0  0  0
    4.3490   -1.7672   -3.2277 H   0  0  0  0  0  0  0  0  0  0  0  0
    4.0207   -2.6720   -1.7438 H   0  0  0  0  0  0  0  0  0  0  0  0
    5.6340   -2.6769   -0.0197 H   0  0  0  0  0  0  0  0  0  0  0  0
    7.1398   -1.7769   -0.2453 H   0  0  0  0  0  0  0  0  0  0  0  0
   -2.4920    3.9190   -0.8977 H   0  0  0  0  0  0  0  0  0  0  0  0
    1.4978   -0.8701    0.1960 H   0  0  0  0  0  0  0  0  0  0  0  0
    0.9159    2.4513    2.9081 H   0  0  0  0  0  0  0  0  0  0  0  0
   -0.5911    3.3212   -2.9109 H   0  0  0  0  0  0  0  0  0  0  0  0
   -0.9440    1.8060   -3.7680 H   0  0  0  0  0  0  0  0  0  0  0  0
    3.3208    2.9510    2.6592 H   0  0  0  0  0  0  0  0  0  0  0  0
    1.0983    1.8077   -2.7674 H   0  0  0  0  0  0  0  0  0  0  0  0
  1  8  1  0  0  0  0
  1 15  1  0  0  0  0
  2 16  1  0  0  0  0
  2 22  1  0  0  0  0
  3 25  1  0  0  0  0
  3 26  1  0  0  0  0
  4 29  1  0  0  0  0
  4 55  1  0  0  0  0
  5 10  1  0  0  0  0
  5 13  1  0  0  0  0
  5 14  1  0  0  0  0
  6 15  2  0  0  0  0
  6 17  1  0  0  0  0
  7 19  1  0  0  0  0
  7 20  1  0  0  0  0
  7 23  1  0  0  0  0
  8 17  2  0  0  0  0
  9 23  2  0  0  0  0
  9 30  1  0  0  0  0
 10 11  1  0  0  0  0
 10 15  1  0  0  0  0
 10 31  1  0  0  0  0
 11 12  1  0  0  0  0
 11 32  1  0  0  0  0
 11 33  1  0  0  0  0
 12 13  1  0  0  0  0
 12 34  1  0  0  0  0
 12 35  1  0  0  0  0
 13 36  1  0  0  0  0
 13 37  1  0  0  0  0
 14 16  1  0  0  0  0
 14 38  1  0  0  0  0
 14 39  1  0  0  0  0
 16 18  2  0  0  0  0
 17 21  1  0  0  0  0
 18 24  1  0  0  0  0
 18 40  1  0  0  0  0
 19 25  1  0  0  0  0
 19 41  1  0  0  0  0
 19 42  1  0  0  0  0
 20 26  1  0  0  0  0
 20 43  1  0  0  0  0
 20 44  1  0  0  0  0
 21 27  2  0  0  0  0
 21 28  1  0  0  0  0
 22 24  2  0  0  0  0
 22 29  1  0  0  0  0
 23 27  1  0  0  0  0
 24 49  1  0  0  0  0
 25 45  1  0  0  0  0
 25 46  1  0  0  0  0
 26 47  1  0  0  0  0
 26 48  1  0  0  0  0
 27 50  1  0  0  0  0
 28 30  2  0  0  0  0
 28 51  1  0  0  0  0
 29 52  1  0  0  0  0
 29 53  1  0  0  0  0
 30 54  1  0  0  0  0
M  END
> <PUBCHEM_COMPOUND_CID>
45783290

> <PUBCHEM_CONFORMER_RMSD>
1

> <PUBCHEM_CONFORMER_DIVERSEORDER>
1
109
38
54
104
103
100
46
18
122
85
40
52
55
80
117
107
108
105
116
39
8
36
91
32
111
112
98
69
62
67
60
47
119
75
6
51
77
76
93
96
110
82
94
73
50
74
71
4
17
61
84
2
92
57
13
65
90
29
99
43
95
89
48
123
101
68
44
3
45
63
79
81
87
114
25
102
64
9
88
106
26
31
10
49
42
53
23
35
22
16
56
41
34
115
19
27
78
83
28
86
121
24
72
33
120
20
59
7
14
37
11
12
70
21
97
30
66
15
58
118
5
113

> <PUBCHEM_MMFF94_PARTIAL_CHARGES>
34
1 -0.02
10 0.45
13 0.27
14 0.45
15 0.3
16 -0.04
17 0.46
18 -0.15
19 0.37
2 -0.28
20 0.37
21 0.05
22 -0.04
23 0.41
24 -0.15
25 0.28
26 0.28
27 -0.15
28 -0.15
29 0.46
3 -0.56
30 0.16
4 -0.68
40 0.15
49 0.15
5 -0.81
50 0.15
51 0.15
54 0.15
55 0.4
6 -0.57
7 -0.84
8 -0.41
9 -0.62

> <PUBCHEM_EFFECTIVE_ROTOR_COUNT>
8.2

> <PUBCHEM_PHARMACOPHORE_FEATURES>
12
1 2 acceptor
1 3 acceptor
1 4 acceptor
1 4 donor
1 5 cation
3 6 8 17 cation
3 7 9 23 cation
5 1 6 8 15 17 rings
5 2 16 18 22 24 rings
5 5 10 11 12 13 rings
6 3 7 19 20 25 26 rings
6 9 21 23 27 28 30 rings

> <PUBCHEM_HEAVY_ATOM_COUNT>
30

> <PUBCHEM_ATOM_DEF_STEREO_COUNT>
1

> <PUBCHEM_ATOM_UDEF_STEREO_COUNT>
0

> <PUBCHEM_BOND_DEF_STEREO_COUNT>
0

> <PUBCHEM_BOND_UDEF_STEREO_COUNT>
0

> <PUBCHEM_ISOTOPIC_ATOM_COUNT>
0

> <PUBCHEM_COMPONENT_COUNT>
1

> <PUBCHEM_CACTVS_TAUTO_COUNT>
1

> <PUBCHEM_CONFORMER_ID>
02BA98FA00000001

> <PUBCHEM_MMFF94_ENERGY>
59.5782

> <PUBCHEM_FEATURE_SELFOVERLAP>
60.899

> <PUBCHEM_SHAPE_FINGERPRINT>
10165383 225 18192994825378356841
10730089 88 18408036312636323539
11477941 20 17749405775414182908
11513181 2 18046905167167724493
11578080 2 18409447007857423992
12623949 98 17768537436140240647
12655387 17 17415313695954099083
12788726 201 16878495744129845237
131258 38 13535938872516407949
13761468 95 16880467065646665516
13782708 43 18200866370523281927
13947920 75 17458341923242553676
14251757 17 18272923917084155394
14295343 760 18339919433061280687
14910302 57 18339068376105271227
15021287 119 15214965365275118384
15183329 4 15357981115117592786
15475509 8 18263069068354964719
17492 54 16588012490792268901
21033650 10 17967812717589440872
21315759 227 18131636694653851198
21756936 100 16226054336179584112
22393880 68 18410283710098416586
22620623 9 18187364315751024696
23557571 272 18118665841937878521
23559900 14 18131629010856528562
3459 83 15936967411169773434
3610482 184 16951427428980136238
3729539 64 17980761532943878855
4394409 98 17614839613534310690
50150288 127 15294721760709711460
508706 21 18409442583439501711
531348 171 18041560213849799474
6431902 208 17489310759372087006

> <PUBCHEM_SHAPE_MULTIPOLES>
569
11.59
3.52
2.84
14.31
1.41
0.08
7.31
4.57
-3.99
0.95
0.92
-1.44
3.46

> <PUBCHEM_SHAPE_SELFOVERLAP>
1232.843

> <PUBCHEM_SHAPE_VOLUME>
312.9

> <PUBCHEM_COORDINATE_TYPE>
2
5
10

$$$$
