9424313
  -OEChem-12032416383D

 53 56  0     1  0  0  0  0  0999 V2000
   -7.3891   -1.9790    1.5837 S   0  0  0  0  0  0  0  0  0  0  0  0
    1.4947    2.3037   -0.9517 O   0  0  0  0  0  0  0  0  0  0  0  0
   -1.7219   -1.6737   -1.9678 O   0  0  0  0  0  0  0  0  0  0  0  0
    5.3289    1.1295   -0.1081 O   0  0  0  0  0  0  0  0  0  0  0  0
    0.1339   -0.6619   -1.0072 N   0  0  0  0  0  0  0  0  0  0  0  0
    4.2881   -0.9452   -0.0426 N   0  0  0  0  0  0  0  0  0  0  0  0
   -0.7688    2.1365   -0.6782 N   0  0  0  0  0  0  0  0  0  0  0  0
    6.4503   -0.7287    0.7125 N   0  0  0  0  0  0  0  0  0  0  0  0
    3.0224   -0.5337   -0.6019 C   0  0  2  0  0  0  0  0  0  0  0  0
    0.6539    0.2525    0.0014 C   0  0  1  0  0  0  0  0  0  0  0  0
    2.0655   -0.0793    0.4996 C   0  0  0  0  0  0  0  0  0  0  0  0
    2.3822   -1.6713   -1.3903 C   0  0  0  0  0  0  0  0  0  0  0  0
    1.0621   -1.2209   -1.9933 C   0  0  0  0  0  0  0  0  0  0  0  0
    0.5185    1.6375   -0.6055 C   0  0  0  0  0  0  0  0  0  0  0  0
   -1.2363   -0.8401   -1.2021 C   0  0  0  0  0  0  0  0  0  0  0  0
   -2.1801    0.0732   -0.5041 C   0  0  0  0  0  0  0  0  0  0  0  0
   -1.9754    1.4604   -0.3850 C   0  0  0  0  0  0  0  0  0  0  0  0
    5.3534   -0.0705    0.1620 C   0  0  0  0  0  0  0  0  0  0  0  0
   -3.4199   -0.4792   -0.1395 C   0  0  0  0  0  0  0  0  0  0  0  0
   -3.0435    2.2702    0.0346 C   0  0  0  0  0  0  0  0  0  0  0  0
   -4.4524    0.3352    0.3232 C   0  0  0  0  0  0  0  0  0  0  0  0
   -4.2690    1.7111    0.3972 C   0  0  0  0  0  0  0  0  0  0  0  0
    7.6894   -0.0569    1.0259 C   0  0  0  0  0  0  0  0  0  0  0  0
   -5.7130   -0.2430    0.6954 C   0  0  0  0  0  0  0  0  0  0  0  0
    8.8660   -1.0088    0.8530 C   0  0  0  0  0  0  0  0  0  0  0  0
    7.6453    0.5156    2.4371 C   0  0  0  0  0  0  0  0  0  0  0  0
   -7.0019    0.3588    0.5917 C   0  0  0  0  0  0  0  0  0  0  0  0
   -5.7811   -1.5163    1.2203 C   0  0  0  0  0  0  0  0  0  0  0  0
   -8.0021   -0.4756    1.0399 C   0  0  0  0  0  0  0  0  0  0  0  0
    3.2165    0.3054   -1.2810 H   0  0  0  0  0  0  0  0  0  0  0  0
    0.0047    0.2177    0.8860 H   0  0  0  0  0  0  0  0  0  0  0  0
    2.4893    0.7760    1.0411 H   0  0  0  0  0  0  0  0  0  0  0  0
    1.9820   -0.8891    1.2385 H   0  0  0  0  0  0  0  0  0  0  0  0
    2.2128   -2.5355   -0.7346 H   0  0  0  0  0  0  0  0  0  0  0  0
    3.0562   -2.0082   -2.1872 H   0  0  0  0  0  0  0  0  0  0  0  0
    1.2369   -0.4373   -2.7410 H   0  0  0  0  0  0  0  0  0  0  0  0
    0.5930   -2.0592   -2.5192 H   0  0  0  0  0  0  0  0  0  0  0  0
    4.3850   -1.9030    0.2809 H   0  0  0  0  0  0  0  0  0  0  0  0
   -0.8471    3.1326   -0.8681 H   0  0  0  0  0  0  0  0  0  0  0  0
   -3.5715   -1.5499   -0.2634 H   0  0  0  0  0  0  0  0  0  0  0  0
   -2.9198    3.3484    0.1149 H   0  0  0  0  0  0  0  0  0  0  0  0
    6.3481   -1.7059    0.9695 H   0  0  0  0  0  0  0  0  0  0  0  0
   -5.0545    2.3763    0.7465 H   0  0  0  0  0  0  0  0  0  0  0  0
    7.8135    0.7752    0.3223 H   0  0  0  0  0  0  0  0  0  0  0  0
    8.7883   -1.8658    1.5315 H   0  0  0  0  0  0  0  0  0  0  0  0
    8.9012   -1.4006   -0.1695 H   0  0  0  0  0  0  0  0  0  0  0  0
    9.8145   -0.4999    1.0536 H   0  0  0  0  0  0  0  0  0  0  0  0
    7.5018   -0.2755    3.1817 H   0  0  0  0  0  0  0  0  0  0  0  0
    6.8171    1.2241    2.5470 H   0  0  0  0  0  0  0  0  0  0  0  0
    8.5746    1.0437    2.6747 H   0  0  0  0  0  0  0  0  0  0  0  0
   -7.2037    1.3494    0.2035 H   0  0  0  0  0  0  0  0  0  0  0  0
   -4.9820   -2.2132    1.4343 H   0  0  0  0  0  0  0  0  0  0  0  0
   -9.0637   -0.2748    1.0721 H   0  0  0  0  0  0  0  0  0  0  0  0
  1 28  1  0  0  0  0
  1 29  1  0  0  0  0
  2 14  2  0  0  0  0
  3 15  2  0  0  0  0
  4 18  2  0  0  0  0
  5 10  1  0  0  0  0
  5 13  1  0  0  0  0
  5 15  1  0  0  0  0
  6  9  1  0  0  0  0
  6 18  1  0  0  0  0
  6 38  1  0  0  0  0
  7 14  1  0  0  0  0
  7 17  1  0  0  0  0
  7 39  1  0  0  0  0
  8 18  1  0  0  0  0
  8 23  1  0  0  0  0
  8 42  1  0  0  0  0
  9 11  1  0  0  0  0
  9 12  1  0  0  0  0
  9 30  1  0  0  0  0
 10 11  1  0  0  0  0
 10 14  1  0  0  0  0
 10 31  1  0  0  0  0
 11 32  1  0  0  0  0
 11 33  1  0  0  0  0
 12 13  1  0  0  0  0
 12 34  1  0  0  0  0
 12 35  1  0  0  0  0
 13 36  1  0  0  0  0
 13 37  1  0  0  0  0
 15 16  1  0  0  0  0
 16 17  2  0  0  0  0
 16 19  1  0  0  0  0
 17 20  1  0  0  0  0
 19 21  2  0  0  0  0
 19 40  1  0  0  0  0
 20 22  2  0  0  0  0
 20 41  1  0  0  0  0
 21 22  1  0  0  0  0
 21 24  1  0  0  0  0
 22 43  1  0  0  0  0
 23 25  1  0  0  0  0
 23 26  1  0  0  0  0
 23 44  1  0  0  0  0
 24 27  1  0  0  0  0
 24 28  2  0  0  0  0
 25 45  1  0  0  0  0
 25 46  1  0  0  0  0
 25 47  1  0  0  0  0
 26 48  1  0  0  0  0
 26 49  1  0  0  0  0
 26 50  1  0  0  0  0
 27 29  2  0  0  0  0
 27 51  1  0  0  0  0
 28 52  1  0  0  0  0
 29 53  1  0  0  0  0
M  END
> <PUBCHEM_COMPOUND_CID>
9424313

> <PUBCHEM_CONFORMER_RMSD>
0.8

> <PUBCHEM_CONFORMER_DIVERSEORDER>
1
21
18
27
29
6
5
25
11
16
9
22
26
3
20
28
15
23
7
4
12
19
10
13
17
24
14
8
2

> <PUBCHEM_MMFF94_PARTIAL_CHARGES>
34
1 -0.08
10 0.36
13 0.3
14 0.57
15 0.54
16 0.09
17 0.12
18 0.69
19 -0.15
2 -0.57
20 -0.15
21 0.05
22 -0.15
23 0.3
24 -0.05
27 -0.15
28 -0.11
29 -0.11
3 -0.57
38 0.37
39 0.37
4 -0.57
40 0.15
41 0.15
42 0.37
43 0.15
5 -0.66
51 0.15
52 0.15
53 0.15
6 -0.73
7 -0.55
8 -0.73
9 0.3

> <PUBCHEM_EFFECTIVE_ROTOR_COUNT>
6

> <PUBCHEM_PHARMACOPHORE_FEATURES>
11
1 2 acceptor
1 3 acceptor
1 4 acceptor
1 6 donor
1 7 donor
1 8 donor
3 23 25 26 hydrophobe
5 1 24 27 28 29 rings
6 16 17 19 20 21 22 rings
6 5 9 10 11 12 13 rings
7 5 7 10 14 15 16 17 rings

> <PUBCHEM_HEAVY_ATOM_COUNT>
29

> <PUBCHEM_ATOM_DEF_STEREO_COUNT>
2

> <PUBCHEM_ATOM_UDEF_STEREO_COUNT>
0

> <PUBCHEM_BOND_DEF_STEREO_COUNT>
0

> <PUBCHEM_BOND_UDEF_STEREO_COUNT>
0

> <PUBCHEM_ISOTOPIC_ATOM_COUNT>
0

> <PUBCHEM_COMPONENT_COUNT>
1

> <PUBCHEM_CACTVS_TAUTO_COUNT>
9

> <PUBCHEM_CONFORMER_ID>
008FCDB900000001

> <PUBCHEM_MMFF94_ENERGY>
80.4989

> <PUBCHEM_FEATURE_SELFOVERLAP>
55.897

> <PUBCHEM_SHAPE_FINGERPRINT>
10 15 18272931631119524218
10165383 225 17275384300297498558
10190206 1 8214153962094753207
10533779 47 17988071194743591322
106641 1 18273496784259312603
10670039 82 9367355816882234075
11135609 99 17822864203011242811
11408170 108 16081646673525681058
11456790 92 17632571614349818490
12035758 1 18131071545280898838
13383668 362 18125997415125378953
13540713 4 17912653410099510661
13540713 5 17912357924907857957
14068700 675 16660366987097047309
15188451 53 17022902346068692642
15706992 2 15410902898209698731
16994733 274 13830138273493044963
1768 4 17346592006844944872
18603816 31 17095804425488757171
19611394 137 18411142471317750241
20105231 36 18338521847031056686
2026 5 15141504854677189040
21033648 29 17631723864677038553
21095123 293 14979959185669429506
21267235 1 18334579027886186100
21307412 95 11891338633851920321
21637258 2 16732701662022472767
21756936 100 14836402532526289871
21792934 111 18410568487662611705
22149856 69 18058189266283322465
22224240 67 17846777412082625974
23559900 14 11242269466776926318
23576562 1 10159111949282870139
2747138 104 18342185448736452688
3009799 131 11386367062370993788
3092352 35 14476957883175493868
3178227 256 17989486329830272416
3383291 50 18186806898032655315
4058900 60 11095900254516403469
4093350 32 15123516874453391868
465052 167 18336280023998287735
5104073 3 18199192780254084915
5385378 56 17132121204227808182
5758199 1 16558751212920966799
57724786 102 15410315763142154672
59682541 35 18272369788866777938
5969126 39 14779540184552130031
9689198 14 14692575428785785682
9953998 17 17917710223501365603

> <PUBCHEM_SHAPE_MULTIPOLES>
563.12
23.54
2.02
1.62
20.17
0.73
0
-8.43
18.38
-1.83
-0.24
1.24
-0.65
1.2

> <PUBCHEM_SHAPE_SELFOVERLAP>
1202.396

> <PUBCHEM_SHAPE_VOLUME>
313.2

> <PUBCHEM_COORDINATE_TYPE>
2
5
10

$$$$
