45783978
  -OEChem-12032416263D

 71 74  0     1  0  0  0  0  0999 V2000
   -0.4040    2.0841   -0.4830 O   0  0  0  0  0  0  0  0  0  0  0  0
    2.6728   -2.7499    0.6802 N   0  0  0  0  0  0  0  0  0  0  0  0
    0.7317    2.1756    1.4422 N   0  0  0  0  0  0  0  0  0  0  0  0
   -0.5429    1.7177    1.7195 N   0  0  0  0  0  0  0  0  0  0  0  0
   -1.9895   -2.2474    1.0232 N   0  0  0  0  0  0  0  0  0  0  0  0
   -6.4424    0.1335   -0.6794 N   0  0  0  0  0  0  0  0  0  0  0  0
    3.7889   -0.5116   -0.8395 C   0  0  1  0  0  0  0  0  0  0  0  0
    3.9242   -0.6372    0.6959 C   0  0  1  0  0  0  0  0  0  0  0  0
    2.7760    0.5834   -1.2024 C   0  0  0  0  0  0  0  0  0  0  0  0
    3.1254    1.9626   -0.6032 C   0  0  2  0  0  0  0  0  0  0  0  0
    5.1487   -0.2511   -1.5015 C   0  0  0  0  0  0  0  0  0  0  0  0
    3.6692    1.8752    0.8148 C   0  0  0  0  0  0  0  0  0  0  0  0
    4.0092    0.7028    1.3813 C   0  0  0  0  0  0  0  0  0  0  0  0
    2.7690   -1.4406    1.3021 C   0  0  0  0  0  0  0  0  0  0  0  0
    1.8945    2.8709   -0.7150 C   0  0  0  0  0  0  0  0  0  0  0  0
    4.9574    0.2953   -2.9126 C   0  0  0  0  0  0  0  0  0  0  0  0
    5.9828   -1.5281   -1.5243 C   0  0  0  0  0  0  0  0  0  0  0  0
    3.8757    3.1652    1.5603 C   0  0  0  0  0  0  0  0  0  0  0  0
    0.7674    2.3760    0.1456 C   0  0  0  0  0  0  0  0  0  0  0  0
    1.5694   -3.5186    1.2437 C   0  0  0  0  0  0  0  0  0  0  0  0
    0.2432   -3.1026    0.6650 C   0  0  0  0  0  0  0  0  0  0  0  0
   -1.1701    1.6803    0.5671 C   0  0  0  0  0  0  0  0  0  0  0  0
    0.0035   -3.1762   -0.7027 C   0  0  0  0  0  0  0  0  0  0  0  0
   -0.7769   -2.6355    1.4779 C   0  0  0  0  0  0  0  0  0  0  0  0
   -2.5122    1.2866    0.2499 C   0  0  0  0  0  0  0  0  0  0  0  0
   -1.2314   -2.7858   -1.2084 C   0  0  0  0  0  0  0  0  0  0  0  0
   -3.3709    0.8573    1.2618 C   0  0  0  0  0  0  0  0  0  0  0  0
   -2.9589    1.3335   -1.0707 C   0  0  0  0  0  0  0  0  0  0  0  0
   -2.1857   -2.3329   -0.3118 C   0  0  0  0  0  0  0  0  0  0  0  0
   -4.6762    0.4748    0.9532 C   0  0  0  0  0  0  0  0  0  0  0  0
   -4.2643    0.9508   -1.3794 C   0  0  0  0  0  0  0  0  0  0  0  0
   -5.1229    0.5215   -0.3675 C   0  0  0  0  0  0  0  0  0  0  0  0
   -6.9189    0.1856   -2.0473 C   0  0  0  0  0  0  0  0  0  0  0  0
   -7.3419   -0.3152    0.3649 C   0  0  0  0  0  0  0  0  0  0  0  0
    3.4021   -1.4438   -1.2702 H   0  0  0  0  0  0  0  0  0  0  0  0
    4.8501   -1.1712    0.9394 H   0  0  0  0  0  0  0  0  0  0  0  0
    2.6035    0.6663   -2.2811 H   0  0  0  0  0  0  0  0  0  0  0  0
    1.8048    0.2426   -0.8206 H   0  0  0  0  0  0  0  0  0  0  0  0
    3.9163    2.4225   -1.2077 H   0  0  0  0  0  0  0  0  0  0  0  0
    5.7141    0.5008   -0.9368 H   0  0  0  0  0  0  0  0  0  0  0  0
    4.3942    0.6929    2.3988 H   0  0  0  0  0  0  0  0  0  0  0  0
    1.8306   -0.8849    1.1856 H   0  0  0  0  0  0  0  0  0  0  0  0
    2.9381   -1.5530    2.3817 H   0  0  0  0  0  0  0  0  0  0  0  0
    1.5645    2.9204   -1.7604 H   0  0  0  0  0  0  0  0  0  0  0  0
    2.1347    3.8995   -0.4226 H   0  0  0  0  0  0  0  0  0  0  0  0
    4.2928   -0.3415   -3.5074 H   0  0  0  0  0  0  0  0  0  0  0  0
    5.9211    0.3190   -3.4361 H   0  0  0  0  0  0  0  0  0  0  0  0
    4.5888    1.3228   -2.9406 H   0  0  0  0  0  0  0  0  0  0  0  0
    6.9434   -1.3499   -2.0208 H   0  0  0  0  0  0  0  0  0  0  0  0
    6.2090   -1.8974   -0.5207 H   0  0  0  0  0  0  0  0  0  0  0  0
    5.4729   -2.3280   -2.0724 H   0  0  0  0  0  0  0  0  0  0  0  0
    4.4628    3.8611    0.9517 H   0  0  0  0  0  0  0  0  0  0  0  0
    4.4250    3.0140    2.4962 H   0  0  0  0  0  0  0  0  0  0  0  0
    2.9270    3.6432    1.8167 H   0  0  0  0  0  0  0  0  0  0  0  0
    3.5452   -3.2546    0.8378 H   0  0  0  0  0  0  0  0  0  0  0  0
    1.7160   -4.5764    0.9906 H   0  0  0  0  0  0  0  0  0  0  0  0
    1.5664   -3.4741    2.3401 H   0  0  0  0  0  0  0  0  0  0  0  0
    0.7674   -3.5396   -1.3847 H   0  0  0  0  0  0  0  0  0  0  0  0
   -0.6511   -2.5527    2.5529 H   0  0  0  0  0  0  0  0  0  0  0  0
   -1.4418   -2.8375   -2.2705 H   0  0  0  0  0  0  0  0  0  0  0  0
   -3.0429    0.8120    2.2976 H   0  0  0  0  0  0  0  0  0  0  0  0
   -2.3188    1.6613   -1.8859 H   0  0  0  0  0  0  0  0  0  0  0  0
   -3.1681   -2.0296   -0.6563 H   0  0  0  0  0  0  0  0  0  0  0  0
   -5.3047    0.1476    1.7755 H   0  0  0  0  0  0  0  0  0  0  0  0
   -4.5639    1.0039   -2.4214 H   0  0  0  0  0  0  0  0  0  0  0  0
   -6.3342   -0.4767   -2.6954 H   0  0  0  0  0  0  0  0  0  0  0  0
   -7.9612   -0.1433   -2.1258 H   0  0  0  0  0  0  0  0  0  0  0  0
   -6.8848    1.2080   -2.4399 H   0  0  0  0  0  0  0  0  0  0  0  0
   -6.9548   -1.2113    0.8627 H   0  0  0  0  0  0  0  0  0  0  0  0
   -7.5117    0.4731    1.1068 H   0  0  0  0  0  0  0  0  0  0  0  0
   -8.3259   -0.5830   -0.0358 H   0  0  0  0  0  0  0  0  0  0  0  0
  1 19  1  0  0  0  0
  1 22  1  0  0  0  0
  2 14  1  0  0  0  0
  2 20  1  0  0  0  0
  2 55  1  0  0  0  0
  3  4  1  0  0  0  0
  3 19  2  0  0  0  0
  4 22  2  0  0  0  0
  5 24  1  0  0  0  0
  5 29  2  0  0  0  0
  6 32  1  0  0  0  0
  6 33  1  0  0  0  0
  6 34  1  0  0  0  0
  7  8  1  0  0  0  0
  7  9  1  0  0  0  0
  7 11  1  0  0  0  0
  7 35  1  0  0  0  0
  8 13  1  0  0  0  0
  8 14  1  0  0  0  0
  8 36  1  0  0  0  0
  9 10  1  0  0  0  0
  9 37  1  0  0  0  0
  9 38  1  0  0  0  0
 10 12  1  0  0  0  0
 10 15  1  0  0  0  0
 10 39  1  0  0  0  0
 11 16  1  0  0  0  0
 11 17  1  0  0  0  0
 11 40  1  0  0  0  0
 12 13  2  0  0  0  0
 12 18  1  0  0  0  0
 13 41  1  0  0  0  0
 14 42  1  0  0  0  0
 14 43  1  0  0  0  0
 15 19  1  0  0  0  0
 15 44  1  0  0  0  0
 15 45  1  0  0  0  0
 16 46  1  0  0  0  0
 16 47  1  0  0  0  0
 16 48  1  0  0  0  0
 17 49  1  0  0  0  0
 17 50  1  0  0  0  0
 17 51  1  0  0  0  0
 18 52  1  0  0  0  0
 18 53  1  0  0  0  0
 18 54  1  0  0  0  0
 20 21  1  0  0  0  0
 20 56  1  0  0  0  0
 20 57  1  0  0  0  0
 21 23  1  0  0  0  0
 21 24  2  0  0  0  0
 22 25  1  0  0  0  0
 23 26  2  0  0  0  0
 23 58  1  0  0  0  0
 24 59  1  0  0  0  0
 25 27  2  0  0  0  0
 25 28  1  0  0  0  0
 26 29  1  0  0  0  0
 26 60  1  0  0  0  0
 27 30  1  0  0  0  0
 27 61  1  0  0  0  0
 28 31  2  0  0  0  0
 28 62  1  0  0  0  0
 29 63  1  0  0  0  0
 30 32  2  0  0  0  0
 30 64  1  0  0  0  0
 31 32  1  0  0  0  0
 31 65  1  0  0  0  0
 33 66  1  0  0  0  0
 33 67  1  0  0  0  0
 33 68  1  0  0  0  0
 34 69  1  0  0  0  0
 34 70  1  0  0  0  0
 34 71  1  0  0  0  0
M  END
> <PUBCHEM_COMPOUND_CID>
45783978

> <PUBCHEM_CONFORMER_RMSD>
1

> <PUBCHEM_CONFORMER_DIVERSEORDER>
24
174
138
87
70
202
173
2
149
139
131
81
63
53
23
71
239
230
224
106
214
121
130
243
136
164
244
104
240
100
155
117
186
238
115
112
226
99
250
103
18
231
95
120
141
114
216
88
82
39
144
79
77
176
58
187
133
206
56
1
207
80
161
162
151
242
93
94
233
101
110
40
180
52
248
65
116
3
97
188
190
34
235
135
7
102
98
78
123
119
89
194
76
137
85
172
86
193
28
90
74
84
148
96
37
210
198
223
158
44
175
49
200
64
232
129
9
160
234
204
27
246
57
107
220
201
143
68
36
72
192
11
165
166
236
171
50
105
125
66
43
189
221
127
91
4
179
51
196
13
222
199
146
152
183
69
178
184
181
197
217
228
237
62
61
55
215
205
126
167
22
168
108
134
124
153
150
229
109
12
247
54
163
169
249
245
219
170
113
59
208
35
241
10
225
19
5
111
209
42
15
159
218
213
140
60
211
122
191
29
132
16
118
31
67
185
38
147
128
75
156
203
227
21
32
20
92
33
73
154
30
41
46
45
195
182
177
47
212
48
26
83
145
25
142
17
6
157
14
8

> <PUBCHEM_MMFF94_PARTIAL_CHARGES>
39
1 -0.28
10 0.14
12 -0.28
13 -0.29
14 0.27
15 0.18
18 0.14
19 0.3
2 -0.9
20 0.41
21 -0.14
22 0.43
23 -0.15
24 0.16
25 0.05
26 -0.15
27 -0.15
28 -0.15
29 0.16
3 -0.34
30 -0.15
31 -0.15
32 0.1
33 0.37
34 0.37
4 -0.34
41 0.15
5 -0.62
55 0.36
58 0.15
59 0.15
6 -0.84
60 0.15
61 0.15
62 0.15
63 0.15
64 0.15
65 0.15
8 0.14

> <PUBCHEM_EFFECTIVE_ROTOR_COUNT>
9.8

> <PUBCHEM_PHARMACOPHORE_FEATURES>
9
1 2 cation
1 2 donor
1 5 acceptor
1 6 cation
3 11 16 17 hydrophobe
5 1 3 4 19 22 rings
6 25 27 28 30 31 32 rings
6 5 21 23 24 26 29 rings
6 7 8 9 10 12 13 rings

> <PUBCHEM_HEAVY_ATOM_COUNT>
34

> <PUBCHEM_ATOM_DEF_STEREO_COUNT>
3

> <PUBCHEM_ATOM_UDEF_STEREO_COUNT>
0

> <PUBCHEM_BOND_DEF_STEREO_COUNT>
0

> <PUBCHEM_BOND_UDEF_STEREO_COUNT>
0

> <PUBCHEM_ISOTOPIC_ATOM_COUNT>
0

> <PUBCHEM_COMPONENT_COUNT>
1

> <PUBCHEM_CACTVS_TAUTO_COUNT>
1

> <PUBCHEM_CONFORMER_ID>
02BA9BAA00000018

> <PUBCHEM_MMFF94_ENERGY>
86.7488

> <PUBCHEM_FEATURE_SELFOVERLAP>
45.671

> <PUBCHEM_SHAPE_FINGERPRINT>
10675989 125 18410287038598168945
10816530 23 16915363631977147372
11093857 51 18411699872680469650
11513181 2 17771072592273732943
12156800 1 13857332366213838546
13122387 1 18337950069916801418
13533116 47 17917991706588268289
1361 2 18335698356113426841
13617811 41 18113330925789895061
14068700 675 17845939516167324736
14114211 68 18114761351367254206
14931854 50 18337400335593762958
15001296 14 18340477958886773337
15183329 4 18113336380572420837
15328829 1 17846505795232091017
15968369 153 18198622323410064451
17492 54 18334298630429418995
20028762 73 17989204815502959350
20465049 17 18408892836236530086
20764821 26 18263910193694795014
20775438 99 18058151981582951574
21857420 4 11978519684065095244
23559900 14 18270127923719078068
3052486 1 18334579083921110594
3298306 158 18261105258291846181
3383291 50 18273498970145049935
338550 245 18262512736033048953
340366 18 17968663846794846781
35225 105 18339357470818273542
354706 35 16609678710302413476
404807 78 17604729883188960995
4403749 210 17337575105407899272
463206 1 18340477959039689017
484989 97 18263657301921092427
513532 50 17846775183501046846
6287921 2 17556023476842046227
6669772 16 18339066202809647545

> <PUBCHEM_SHAPE_MULTIPOLES>
668.93
14.03
4.19
2
16.65
2.29
-0.65
-2.08
-6.34
-2.6
1.29
-1.34
-0.07
0.74

> <PUBCHEM_SHAPE_SELFOVERLAP>
1419.234

> <PUBCHEM_SHAPE_VOLUME>
372.9

> <PUBCHEM_COORDINATE_TYPE>
2
5
10

$$$$
