75536647
  -OEChem-12032416413D

 46 48  0     1  0  0  0  0  0999 V2000
    8.1873    1.7311    0.7253 F   0  0  0  0  0  0  0  0  0  0  0  0
   -0.0435    0.7551   -0.0266 O   0  0  0  0  0  0  0  0  0  0  0  0
   -1.3048   -2.6019   -0.2383 O   0  0  0  0  0  0  0  0  0  0  0  0
    3.3146   -2.1995   -0.0322 O   0  0  0  0  0  0  0  0  0  0  0  0
   -3.5041   -0.3650   -0.0489 N   0  0  0  0  0  0  0  0  0  0  0  0
    2.4324   -0.3036   -1.0372 N   0  0  0  0  0  0  0  0  0  0  0  0
   -6.3016    1.1448   -0.2390 N   0  0  0  0  0  0  0  0  0  0  0  0
   -6.7237   -0.6273    1.0311 N   0  0  0  0  0  0  0  0  0  0  0  0
   -2.1035   -0.3687    0.3408 C   0  0  1  0  0  0  0  0  0  0  0  0
   -1.2251   -1.2251   -0.5523 C   0  0  1  0  0  0  0  0  0  0  0  0
    0.1520   -0.6519   -0.2459 C   0  0  1  0  0  0  0  0  0  0  0  0
   -1.4448    0.9931    0.1938 C   0  0  0  0  0  0  0  0  0  0  0  0
    1.1531   -0.8623   -1.3678 C   0  0  0  0  0  0  0  0  0  0  0  0
   -4.3429    0.1808    1.0114 C   0  0  0  0  0  0  0  0  0  0  0  0
   -5.7961    0.2079    0.6188 C   0  0  0  0  0  0  0  0  0  0  0  0
    3.4256   -1.0286   -0.3858 C   0  0  0  0  0  0  0  0  0  0  0  0
   -7.6365    0.8908   -0.3828 C   0  0  0  0  0  0  0  0  0  0  0  0
    4.6853   -0.2980   -0.0915 C   0  0  0  0  0  0  0  0  0  0  0  0
   -5.5743    2.2127   -0.8836 C   0  0  0  0  0  0  0  0  0  0  0  0
   -7.8734   -0.2071    0.4104 C   0  0  0  0  0  0  0  0  0  0  0  0
    5.4800   -0.6851    0.9876 C   0  0  0  0  0  0  0  0  0  0  0  0
    5.0736    0.7745   -0.8943 C   0  0  0  0  0  0  0  0  0  0  0  0
    6.6628    0.0004    1.2639 C   0  0  0  0  0  0  0  0  0  0  0  0
    6.2565    1.4601   -0.6180 C   0  0  0  0  0  0  0  0  0  0  0  0
    7.0511    1.0731    0.4611 C   0  0  0  0  0  0  0  0  0  0  0  0
   -1.9979   -0.7339    1.3723 H   0  0  0  0  0  0  0  0  0  0  0  0
   -1.4844   -1.0880   -1.6095 H   0  0  0  0  0  0  0  0  0  0  0  0
    0.5503   -1.0753    0.6856 H   0  0  0  0  0  0  0  0  0  0  0  0
   -1.8193    1.5453   -0.6760 H   0  0  0  0  0  0  0  0  0  0  0  0
   -1.5702    1.6214    1.0808 H   0  0  0  0  0  0  0  0  0  0  0  0
    0.8224   -0.3527   -2.2795 H   0  0  0  0  0  0  0  0  0  0  0  0
    1.2680   -1.9290   -1.5883 H   0  0  0  0  0  0  0  0  0  0  0  0
   -3.7993   -1.3220   -0.2445 H   0  0  0  0  0  0  0  0  0  0  0  0
   -4.0292    1.1956    1.2827 H   0  0  0  0  0  0  0  0  0  0  0  0
   -4.2517   -0.4337    1.9163 H   0  0  0  0  0  0  0  0  0  0  0  0
   -1.0750   -2.7155    0.6995 H   0  0  0  0  0  0  0  0  0  0  0  0
    2.5636    0.6818   -1.2386 H   0  0  0  0  0  0  0  0  0  0  0  0
   -8.2817    1.4877   -1.0123 H   0  0  0  0  0  0  0  0  0  0  0  0
   -5.1085    2.8342   -0.1151 H   0  0  0  0  0  0  0  0  0  0  0  0
   -4.8207    1.7753   -1.5425 H   0  0  0  0  0  0  0  0  0  0  0  0
   -6.2674    2.8196   -1.4723 H   0  0  0  0  0  0  0  0  0  0  0  0
   -8.8133   -0.7163    0.5660 H   0  0  0  0  0  0  0  0  0  0  0  0
    5.1925   -1.5153    1.6274 H   0  0  0  0  0  0  0  0  0  0  0  0
    4.5006    1.0885   -1.7616 H   0  0  0  0  0  0  0  0  0  0  0  0
    7.2815   -0.3000    2.1044 H   0  0  0  0  0  0  0  0  0  0  0  0
    6.5632    2.2909   -1.2466 H   0  0  0  0  0  0  0  0  0  0  0  0
  1 25  1  0  0  0  0
  2 11  1  0  0  0  0
  2 12  1  0  0  0  0
  3 10  1  0  0  0  0
  3 36  1  0  0  0  0
  4 16  2  0  0  0  0
  5  9  1  0  0  0  0
  5 14  1  0  0  0  0
  5 33  1  0  0  0  0
  6 13  1  0  0  0  0
  6 16  1  0  0  0  0
  6 37  1  0  0  0  0
  7 15  1  0  0  0  0
  7 17  1  0  0  0  0
  7 19  1  0  0  0  0
  8 15  2  0  0  0  0
  8 20  1  0  0  0  0
  9 10  1  0  0  0  0
  9 12  1  0  0  0  0
  9 26  1  0  0  0  0
 10 11  1  0  0  0  0
 10 27  1  0  0  0  0
 11 13  1  0  0  0  0
 11 28  1  0  0  0  0
 12 29  1  0  0  0  0
 12 30  1  0  0  0  0
 13 31  1  0  0  0  0
 13 32  1  0  0  0  0
 14 15  1  0  0  0  0
 14 34  1  0  0  0  0
 14 35  1  0  0  0  0
 16 18  1  0  0  0  0
 17 20  2  0  0  0  0
 17 38  1  0  0  0  0
 18 21  2  0  0  0  0
 18 22  1  0  0  0  0
 19 39  1  0  0  0  0
 19 40  1  0  0  0  0
 19 41  1  0  0  0  0
 20 42  1  0  0  0  0
 21 23  1  0  0  0  0
 21 43  1  0  0  0  0
 22 24  2  0  0  0  0
 22 44  1  0  0  0  0
 23 25  2  0  0  0  0
 23 45  1  0  0  0  0
 24 25  1  0  0  0  0
 24 46  1  0  0  0  0
M  END
> <PUBCHEM_COMPOUND_CID>
75536647

> <PUBCHEM_CONFORMER_RMSD>
1

> <PUBCHEM_CONFORMER_DIVERSEORDER>
1
55
81
126
172
6
118
143
190
107
63
176
148
111
96
192
152
141
36
50
193
14
85
159
78
113
149
26
15
84
155
48
140
21
9
65
56
117
167
173
52
203
119
71
165
196
39
179
115
194
66
185
137
29
42
89
25
57
60
5
40
76
116
74
93
120
166
109
38
73
53
184
171
189
133
33
195
170
49
157
134
132
121
58
177
114
79
138
32
17
82
104
16
131
154
183
75
30
178
91
47
151
182
83
69
150
139
99
125
160
128
51
90
19
202
187
200
86
175
127
124
112
22
35
123
80
28
97
102
41
95
72
156
147
34
108
201
11
20
188
44
92
61
198
101
204
87
110
162
146
3
54
163
142
10
100
161
164
153
174
206
8
70
199
37
27
136
145
180
144
13
181
103
191
24
169
94
197
2
12
7
68
130
45
122
105
158
23
31
129
77
46
135
205
62
67
4
59
98
186
18
43
64
106
168
88

> <PUBCHEM_MMFF94_PARTIAL_CHARGES>
34
1 -0.19
10 0.28
11 0.28
12 0.28
13 0.3
14 0.45
15 0.01
16 0.54
17 -0.3
18 0.09
19 0.26
2 -0.56
20 0.08
21 -0.15
22 -0.15
23 -0.15
24 -0.15
25 0.19
3 -0.68
33 0.36
36 0.4
37 0.37
38 0.15
4 -0.57
42 0.15
43 0.15
44 0.15
45 0.15
46 0.15
5 -0.9
6 -0.73
7 0.05
8 -0.57
9 0.27

> <PUBCHEM_EFFECTIVE_ROTOR_COUNT>
8

> <PUBCHEM_PHARMACOPHORE_FEATURES>
11
1 2 acceptor
1 3 acceptor
1 3 donor
1 4 acceptor
1 5 cation
1 5 donor
1 6 donor
3 7 8 15 cation
5 2 9 10 11 12 rings
5 7 8 15 17 20 rings
6 18 21 22 23 24 25 rings

> <PUBCHEM_HEAVY_ATOM_COUNT>
25

> <PUBCHEM_ATOM_DEF_STEREO_COUNT>
3

> <PUBCHEM_ATOM_UDEF_STEREO_COUNT>
0

> <PUBCHEM_BOND_DEF_STEREO_COUNT>
0

> <PUBCHEM_BOND_UDEF_STEREO_COUNT>
0

> <PUBCHEM_ISOTOPIC_ATOM_COUNT>
0

> <PUBCHEM_COMPONENT_COUNT>
1

> <PUBCHEM_CACTVS_TAUTO_COUNT>
2

> <PUBCHEM_CONFORMER_ID>
0480990700000001

> <PUBCHEM_MMFF94_ENERGY>
45.9167

> <PUBCHEM_FEATURE_SELFOVERLAP>
55.823

> <PUBCHEM_SHAPE_FINGERPRINT>
10 15 18334576849588713146
10162869 55 18337947995774690847
10299344 5 11240001152892913781
106641 1 18410858793634953915
11315181 36 17989489611786634049
11638347 137 17821728312962646210
125118 31 18335141955621511629
12592606 108 11530770322905245209
12838862 33 18201143421841718648
13533116 47 17560807563503539814
13668630 136 9295293841813516888
13673619 4 12251899304526951982
13685833 64 12324240572938781438
13914758 101 16008746884146995317
14123256 10 17489870431711268193
14216079 64 12396292656333390664
14251764 18 17822012020958074255
14347424 109 15574720222553955916
14428016 86 17918278654186010052
15131766 46 17026301087061222148
15183329 4 17847062185863180585
16090146 7 14333135229321782183
20157964 124 18272373040653133310
20281389 69 18408604755573517020
20554085 129 17988634195160226026
21130935 74 18263649476875853131
21150785 3 14189576338442503752
21365058 27 15698282209870645645
220451 1 14189574101244460941
221357 26 12823300091998814394
22224240 67 18272088305200152375
23035841 295 10303810969711892437
23081809 10 16486697953037835815
246663 6 7853856091862466925
24771293 8 18059862757351546497
28498 318 11530476740193719547
300161 21 18343021090353144790
34797466 226 14908181953911014072
4340502 62 17530965769874453722
445580 37 13542474133524985131
465052 167 7853568024569724178
5470011 282 10952047875578709768
5758199 1 17417819431018001187
59682541 35 18335702775233685569
6438161 24 10303819753226221404

> <PUBCHEM_SHAPE_MULTIPOLES>
469.68
25.41
1.78
1.07
5.71
0.14
0.01
-10.99
5.85
-0.41
-0.32
-0.56
0
0.77

> <PUBCHEM_SHAPE_SELFOVERLAP>
995.238

> <PUBCHEM_SHAPE_VOLUME>
265.8

> <PUBCHEM_COORDINATE_TYPE>
2
5
10

$$$$
