40777345
  -OEChem-12032416173D

 63 66  0     1  0  0  0  0  0999 V2000
   -3.1989   -1.8908   -1.2674 O   0  0  0  0  0  0  0  0  0  0  0  0
    4.3246    0.3244   -1.9860 O   0  0  0  0  0  0  0  0  0  0  0  0
    7.6390   -0.7684    1.5184 O   0  0  0  0  0  0  0  0  0  0  0  0
    0.2432    2.7747    0.3629 N   0  0  0  0  0  0  0  0  0  0  0  0
    5.3156   -0.4939   -0.0523 N   0  0  0  0  0  0  0  0  0  0  0  0
   -1.8496   -1.6888   -1.5312 N   0  0  0  0  0  0  0  0  0  0  0  0
    1.8786    0.7425   -1.0163 C   0  0  1  0  0  0  0  0  0  0  0  0
    0.4218    0.4789   -0.5663 C   0  0  2  0  0  0  0  0  0  0  0  0
    2.0793    2.2554   -1.2058 C   0  0  0  0  0  0  0  0  0  0  0  0
    0.0322    1.3530    0.6377 C   0  0  0  0  0  0  0  0  0  0  0  0
    0.1430   -0.9957   -0.2721 C   0  0  0  0  0  0  0  0  0  0  0  0
    2.9380    0.1661   -0.0695 C   0  0  0  0  0  0  0  0  0  0  0  0
    1.6333    3.0604    0.0140 C   0  0  0  0  0  0  0  0  0  0  0  0
   -5.7414   -0.6357    0.0728 C   0  0  0  0  0  0  0  0  0  0  0  0
   -7.1820   -0.8849    0.5392 C   0  0  0  0  0  0  0  0  0  0  0  0
   -5.2137    0.6985    0.6174 C   0  0  0  0  0  0  0  0  0  0  0  0
   -4.8312   -1.7879    0.4938 C   0  0  0  0  0  0  0  0  0  0  0  0
   -8.1013    0.2792    0.1763 C   0  0  0  0  0  0  0  0  0  0  0  0
   -6.1363    1.8599    0.2546 C   0  0  0  0  0  0  0  0  0  0  0  0
   -7.5692    1.6048    0.7119 C   0  0  0  0  0  0  0  0  0  0  0  0
   -1.3232   -1.3043   -0.3650 C   0  0  0  0  0  0  0  0  0  0  0  0
    4.2498    0.0079   -0.7961 C   0  0  0  0  0  0  0  0  0  0  0  0
   -3.4446   -1.6240    0.0408 C   0  0  0  0  0  0  0  0  0  0  0  0
   -2.2829   -1.2462    0.6604 C   0  0  0  0  0  0  0  0  0  0  0  0
    6.6251   -0.6742   -0.6789 C   0  0  0  0  0  0  0  0  0  0  0  0
    5.2315   -0.9974    1.3228 C   0  0  0  0  0  0  0  0  0  0  0  0
    7.7258   -0.1496    0.2322 C   0  0  0  0  0  0  0  0  0  0  0  0
    6.3933   -0.4640    2.1516 C   0  0  0  0  0  0  0  0  0  0  0  0
    1.9790    0.2653   -2.0011 H   0  0  0  0  0  0  0  0  0  0  0  0
   -0.2180    0.7870   -1.4083 H   0  0  0  0  0  0  0  0  0  0  0  0
    1.4933    2.5805   -2.0764 H   0  0  0  0  0  0  0  0  0  0  0  0
    3.1221    2.4987   -1.4355 H   0  0  0  0  0  0  0  0  0  0  0  0
   -1.0283    1.2274    0.8743 H   0  0  0  0  0  0  0  0  0  0  0  0
    0.5947    1.0587    1.5325 H   0  0  0  0  0  0  0  0  0  0  0  0
    0.5029   -1.2781    0.7249 H   0  0  0  0  0  0  0  0  0  0  0  0
    0.6745   -1.6313   -0.9925 H   0  0  0  0  0  0  0  0  0  0  0  0
    2.6513   -0.8346    0.2665 H   0  0  0  0  0  0  0  0  0  0  0  0
    3.0790    0.7978    0.8116 H   0  0  0  0  0  0  0  0  0  0  0  0
    2.2871    2.8755    0.8734 H   0  0  0  0  0  0  0  0  0  0  0  0
    1.7201    4.1278   -0.2181 H   0  0  0  0  0  0  0  0  0  0  0  0
   -5.7456   -0.5746   -1.0250 H   0  0  0  0  0  0  0  0  0  0  0  0
   -0.0171    3.3195    1.1845 H   0  0  0  0  0  0  0  0  0  0  0  0
   -7.2026   -1.0342    1.6264 H   0  0  0  0  0  0  0  0  0  0  0  0
   -7.5687   -1.8049    0.0850 H   0  0  0  0  0  0  0  0  0  0  0  0
   -4.2203    0.9243    0.2145 H   0  0  0  0  0  0  0  0  0  0  0  0
   -5.1134    0.6454    1.7092 H   0  0  0  0  0  0  0  0  0  0  0  0
   -5.2272   -2.7305    0.0945 H   0  0  0  0  0  0  0  0  0  0  0  0
   -4.8451   -1.8936    1.5864 H   0  0  0  0  0  0  0  0  0  0  0  0
   -9.1041    0.0955    0.5780 H   0  0  0  0  0  0  0  0  0  0  0  0
   -8.2001    0.3394   -0.9145 H   0  0  0  0  0  0  0  0  0  0  0  0
   -6.1214    2.0122   -0.8316 H   0  0  0  0  0  0  0  0  0  0  0  0
   -5.7632    2.7835    0.7115 H   0  0  0  0  0  0  0  0  0  0  0  0
   -8.2149    2.4241    0.3767 H   0  0  0  0  0  0  0  0  0  0  0  0
   -7.6061    1.5964    1.8082 H   0  0  0  0  0  0  0  0  0  0  0  0
   -2.1524   -0.9731    1.6972 H   0  0  0  0  0  0  0  0  0  0  0  0
    6.6678   -0.1792   -1.6537 H   0  0  0  0  0  0  0  0  0  0  0  0
    6.7474   -1.7519   -0.8388 H   0  0  0  0  0  0  0  0  0  0  0  0
    5.2911   -2.0899    1.2526 H   0  0  0  0  0  0  0  0  0  0  0  0
    4.2858   -0.7451    1.8043 H   0  0  0  0  0  0  0  0  0  0  0  0
    8.7077   -0.3857   -0.1895 H   0  0  0  0  0  0  0  0  0  0  0  0
    7.6632    0.9388    0.3498 H   0  0  0  0  0  0  0  0  0  0  0  0
    6.3164    0.6205    2.2944 H   0  0  0  0  0  0  0  0  0  0  0  0
    6.3958   -0.9329    3.1405 H   0  0  0  0  0  0  0  0  0  0  0  0
  1  6  1  0  0  0  0
  1 23  1  0  0  0  0
  2 22  2  0  0  0  0
  3 27  1  0  0  0  0
  3 28  1  0  0  0  0
  4 10  1  0  0  0  0
  4 13  1  0  0  0  0
  4 42  1  0  0  0  0
  5 22  1  0  0  0  0
  5 25  1  0  0  0  0
  5 26  1  0  0  0  0
  6 21  2  0  0  0  0
  7  8  1  0  0  0  0
  7  9  1  0  0  0  0
  7 12  1  0  0  0  0
  7 29  1  0  0  0  0
  8 10  1  0  0  0  0
  8 11  1  0  0  0  0
  8 30  1  0  0  0  0
  9 13  1  0  0  0  0
  9 31  1  0  0  0  0
  9 32  1  0  0  0  0
 10 33  1  0  0  0  0
 10 34  1  0  0  0  0
 11 21  1  0  0  0  0
 11 35  1  0  0  0  0
 11 36  1  0  0  0  0
 12 22  1  0  0  0  0
 12 37  1  0  0  0  0
 12 38  1  0  0  0  0
 13 39  1  0  0  0  0
 13 40  1  0  0  0  0
 14 15  1  0  0  0  0
 14 16  1  0  0  0  0
 14 17  1  0  0  0  0
 14 41  1  0  0  0  0
 15 18  1  0  0  0  0
 15 43  1  0  0  0  0
 15 44  1  0  0  0  0
 16 19  1  0  0  0  0
 16 45  1  0  0  0  0
 16 46  1  0  0  0  0
 17 23  1  0  0  0  0
 17 47  1  0  0  0  0
 17 48  1  0  0  0  0
 18 20  1  0  0  0  0
 18 49  1  0  0  0  0
 18 50  1  0  0  0  0
 19 20  1  0  0  0  0
 19 51  1  0  0  0  0
 19 52  1  0  0  0  0
 20 53  1  0  0  0  0
 20 54  1  0  0  0  0
 21 24  1  0  0  0  0
 23 24  2  0  0  0  0
 24 55  1  0  0  0  0
 25 27  1  0  0  0  0
 25 56  1  0  0  0  0
 25 57  1  0  0  0  0
 26 28  1  0  0  0  0
 26 58  1  0  0  0  0
 26 59  1  0  0  0  0
 27 60  1  0  0  0  0
 27 61  1  0  0  0  0
 28 62  1  0  0  0  0
 28 63  1  0  0  0  0
M  END
> <PUBCHEM_COMPOUND_CID>
40777345

> <PUBCHEM_CONFORMER_RMSD>
1.4

> <PUBCHEM_CONFORMER_DIVERSEORDER>
1
23
100
47
80
9
11
7
79
77
87
10
39
92
89
3
70
67
38
54
95
102
62
15
76
59
73
66
82
37
71
2
51
104
103
93
26
5
68
90
49
75
61
101
83
74
53
34
45
48
97
78
19
16
21
91
72
28
42
94
50
14
58
52
98
86
27
56
63
99
6
57
40
8
12
13
32
60
69
41
29
24
81
96
30
46
36
55
84
35
4
88
43
17
22
33
20
18
31
64
85
25
44
65

> <PUBCHEM_MMFF94_PARTIAL_CHARGES>
21
1 -0.02
10 0.27
11 0.18
12 0.06
13 0.27
17 0.18
2 -0.57
21 0.11
22 0.57
23 -0.04
24 -0.15
25 0.3
26 0.3
27 0.28
28 0.28
3 -0.56
4 -0.9
42 0.36
5 -0.66
55 0.15
6 -0.41

> <PUBCHEM_EFFECTIVE_ROTOR_COUNT>
10.6

> <PUBCHEM_PHARMACOPHORE_FEATURES>
9
1 2 acceptor
1 3 acceptor
1 4 cation
1 4 donor
1 6 acceptor
5 1 6 21 23 24 rings
6 14 15 16 18 19 20 rings
6 3 5 25 26 27 28 rings
6 4 7 8 9 10 13 rings

> <PUBCHEM_HEAVY_ATOM_COUNT>
28

> <PUBCHEM_ATOM_DEF_STEREO_COUNT>
2

> <PUBCHEM_ATOM_UDEF_STEREO_COUNT>
0

> <PUBCHEM_BOND_DEF_STEREO_COUNT>
0

> <PUBCHEM_BOND_UDEF_STEREO_COUNT>
0

> <PUBCHEM_ISOTOPIC_ATOM_COUNT>
0

> <PUBCHEM_COMPONENT_COUNT>
1

> <PUBCHEM_CACTVS_TAUTO_COUNT>
1

> <PUBCHEM_CONFORMER_ID>
026E368100000001

> <PUBCHEM_MMFF94_ENERGY>
36.2078

> <PUBCHEM_FEATURE_SELFOVERLAP>
45.672

> <PUBCHEM_SHAPE_FINGERPRINT>
10050765 1 18123471841443088879
10299344 5 17458064871602577570
10533779 1 18124597484676625369
12107183 9 18408885144240032387
12144603 126 18187369852960713284
12592606 108 18334012817541488331
12838862 33 18271799066009513849
13673619 4 15936404537634447246
14028597 1 17968091967461446896
14123256 10 9655576309870390963
14251764 18 18187365436763888815
14347424 109 18341045298740220808
14429380 56 14333118672623659354
14466204 15 18412830166296041033
14675019 173 17603870005193533453
15119646 104 17749105565806158746
15142383 8 18260829289136142148
15183329 4 18336273392152077141
15238133 3 18408612473745675823
15301273 46 17775290456975711078
15352257 5 15357700798906099355
15419008 145 18261950757022383233
15461852 350 16988558048271639639
15849732 13 18131913758413805639
19301679 30 18189893124572414346
20105231 36 12901550130875767345
20511986 3 16702015383276197743
20567600 234 15626222437893751666
21033648 29 17489006250369665226
21150785 3 11815895660681421883
21315759 40 17458631146499041423
21344244 181 13984660335252885632
21781051 124 11458422440707613048
21792934 111 18341607127570099104
21859007 373 18131628959312048353
23522609 53 17605019011596640981
24893992 56 18335706075103178523
2838139 119 18413390952287688749
3004659 81 18260275161668032782
3009799 131 17131835356857838491
335352 9 18412267250723502981
3383291 50 18272092712549027339
3411729 13 18055913445372360400
4098825 35 16660078910871536604
4258327 124 13110670709870201008
4325135 7 10807935959851227595
5047190 69 17988922228509897537
5104073 3 18198070385515400659
5207 217 9439403527482300686
57527293 21 17702359893966374462
58260988 647 15647326382789449520
59755656 520 17603868936305656987
6081469 158 17561089077661982734
6371380 46 18334856147296748859

> <PUBCHEM_SHAPE_MULTIPOLES>
543.68
23.68
2.41
1.37
3.62
1.58
-0.06
-2.87
-7.89
1.64
0.08
-2.17
-0.22
-1.65

> <PUBCHEM_SHAPE_SELFOVERLAP>
1124.89

> <PUBCHEM_SHAPE_VOLUME>
305.9

> <PUBCHEM_COORDINATE_TYPE>
2
5
10

$$$$
