11941637
  -OEChem-12032416163D

 52 54  0     1  0  0  0  0  0999 V2000
   -1.6386    2.6401   -0.2954 O   0  0  0  0  0  0  0  0  0  0  0  0
   -0.7002    0.7156    1.9745 O   0  0  0  0  0  0  0  0  0  0  0  0
   -5.1521    0.0984   -0.5671 O   0  0  0  0  0  0  0  0  0  0  0  0
    1.1582    1.5534   -1.0542 N   0  0  0  0  0  0  0  0  0  0  0  0
   -3.3236   -0.4296    0.7632 N   0  0  0  0  0  0  0  0  0  0  0  0
    2.7731    0.1559   -0.0822 N   0  0  0  0  0  0  0  0  0  0  0  0
   -4.7253   -2.1019    0.0331 N   0  0  0  0  0  0  0  0  0  0  0  0
    2.7442    0.5464   -2.4601 N   0  0  0  0  0  0  0  0  0  0  0  0
   -0.4649    0.7539    0.5568 C   0  0  1  0  0  0  0  0  0  0  0  0
   -1.7494    1.2205   -0.0999 C   0  0  1  0  0  0  0  0  0  0  0  0
    0.5357    1.8344    0.2209 C   0  0  2  0  0  0  0  0  0  0  0  0
   -2.8186    0.9126    0.9232 C   0  0  2  0  0  0  0  0  0  0  0  0
   -0.3345    3.0736    0.1186 C   0  0  0  0  0  0  0  0  0  0  0  0
   -2.0678    1.0656    2.2340 C   0  0  0  0  0  0  0  0  0  0  0  0
    2.2580    0.7273   -1.2033 C   0  0  0  0  0  0  0  0  0  0  0  0
   -4.4640   -0.7341    0.0222 C   0  0  0  0  0  0  0  0  0  0  0  0
    4.4225   -1.2790    0.9556 C   0  0  0  0  0  0  0  0  0  0  0  0
    3.8444   -0.6437   -0.2641 C   0  0  0  0  0  0  0  0  0  0  0  0
    4.4144   -0.8936   -1.4958 C   0  0  0  0  0  0  0  0  0  0  0  0
    5.9102   -0.8573    1.1616 C   0  0  0  0  0  0  0  0  0  0  0  0
    4.3841   -2.8354    0.8548 C   0  0  0  0  0  0  0  0  0  0  0  0
    3.7008   -0.9309    2.2996 C   0  0  0  0  0  0  0  0  0  0  0  0
    3.8166   -0.2652   -2.5689 C   0  0  0  0  0  0  0  0  0  0  0  0
   -5.8492   -2.6894   -0.6571 C   0  0  0  0  0  0  0  0  0  0  0  0
   -6.6740   -1.6377   -1.3700 C   0  0  0  0  0  0  0  0  0  0  0  0
   -0.1740   -0.2557    0.2495 H   0  0  0  0  0  0  0  0  0  0  0  0
   -1.9182    0.7662   -1.0817 H   0  0  0  0  0  0  0  0  0  0  0  0
    1.2939    1.9909    0.9968 H   0  0  0  0  0  0  0  0  0  0  0  0
   -3.6611    1.6112    0.8787 H   0  0  0  0  0  0  0  0  0  0  0  0
    0.0387    3.8226   -0.5868 H   0  0  0  0  0  0  0  0  0  0  0  0
   -0.4489    3.5523    1.0974 H   0  0  0  0  0  0  0  0  0  0  0  0
   -2.4559    0.4382    3.0423 H   0  0  0  0  0  0  0  0  0  0  0  0
   -2.0774    2.1078    2.5715 H   0  0  0  0  0  0  0  0  0  0  0  0
    0.7506    1.9318   -1.9018 H   0  0  0  0  0  0  0  0  0  0  0  0
   -2.7880   -1.1982    1.1557 H   0  0  0  0  0  0  0  0  0  0  0  0
   -4.1020   -2.7156    0.5485 H   0  0  0  0  0  0  0  0  0  0  0  0
    5.2736   -1.5350   -1.6413 H   0  0  0  0  0  0  0  0  0  0  0  0
    6.3268   -1.2987    2.0744 H   0  0  0  0  0  0  0  0  0  0  0  0
    6.5458   -1.1776    0.3288 H   0  0  0  0  0  0  0  0  0  0  0  0
    5.9975    0.2325    1.2444 H   0  0  0  0  0  0  0  0  0  0  0  0
    4.9809   -3.2063    0.0143 H   0  0  0  0  0  0  0  0  0  0  0  0
    3.3565   -3.1906    0.7133 H   0  0  0  0  0  0  0  0  0  0  0  0
    4.7800   -3.3034    1.7637 H   0  0  0  0  0  0  0  0  0  0  0  0
    2.6495   -1.2409    2.2712 H   0  0  0  0  0  0  0  0  0  0  0  0
    3.7233    0.1489    2.4879 H   0  0  0  0  0  0  0  0  0  0  0  0
    4.1735   -1.4291    3.1537 H   0  0  0  0  0  0  0  0  0  0  0  0
    4.1943   -0.4009   -3.5767 H   0  0  0  0  0  0  0  0  0  0  0  0
   -6.4520   -3.2214    0.0853 H   0  0  0  0  0  0  0  0  0  0  0  0
   -5.4548   -3.4235   -1.3664 H   0  0  0  0  0  0  0  0  0  0  0  0
   -7.5069   -2.1486   -1.8707 H   0  0  0  0  0  0  0  0  0  0  0  0
   -6.1280   -1.1351   -2.1751 H   0  0  0  0  0  0  0  0  0  0  0  0
   -7.1504   -0.9276   -0.6860 H   0  0  0  0  0  0  0  0  0  0  0  0
  1 10  1  0  0  0  0
  1 13  1  0  0  0  0
  2  9  1  0  0  0  0
  2 14  1  0  0  0  0
  3 16  2  0  0  0  0
  4 11  1  0  0  0  0
  4 15  1  0  0  0  0
  4 34  1  0  0  0  0
  5 12  1  0  0  0  0
  5 16  1  0  0  0  0
  5 35  1  0  0  0  0
  6 15  1  0  0  0  0
  6 18  2  0  0  0  0
  7 16  1  0  0  0  0
  7 24  1  0  0  0  0
  7 36  1  0  0  0  0
  8 15  2  0  0  0  0
  8 23  1  0  0  0  0
  9 10  1  0  0  0  0
  9 11  1  0  0  0  0
  9 26  1  0  0  0  0
 10 12  1  0  0  0  0
 10 27  1  0  0  0  0
 11 13  1  0  0  0  0
 11 28  1  0  0  0  0
 12 14  1  0  0  0  0
 12 29  1  0  0  0  0
 13 30  1  0  0  0  0
 13 31  1  0  0  0  0
 14 32  1  0  0  0  0
 14 33  1  0  0  0  0
 17 18  1  0  0  0  0
 17 20  1  0  0  0  0
 17 21  1  0  0  0  0
 17 22  1  0  0  0  0
 18 19  1  0  0  0  0
 19 23  2  0  0  0  0
 19 37  1  0  0  0  0
 20 38  1  0  0  0  0
 20 39  1  0  0  0  0
 20 40  1  0  0  0  0
 21 41  1  0  0  0  0
 21 42  1  0  0  0  0
 21 43  1  0  0  0  0
 22 44  1  0  0  0  0
 22 45  1  0  0  0  0
 22 46  1  0  0  0  0
 23 47  1  0  0  0  0
 24 25  1  0  0  0  0
 24 48  1  0  0  0  0
 24 49  1  0  0  0  0
 25 50  1  0  0  0  0
 25 51  1  0  0  0  0
 25 52  1  0  0  0  0
M  END
> <PUBCHEM_COMPOUND_CID>
11941637

> <PUBCHEM_CONFORMER_RMSD>
0.8

> <PUBCHEM_CONFORMER_DIVERSEORDER>
1
17
178
157
198
102
159
183
33
127
66
93
122
217
44
76
16
209
82
130
171
200
187
101
126
218
135
118
177
58
206
55
119
113
134
202
105
72
9
79
49
156
184
174
26
150
120
104
54
89
100
64
84
35
74
77
123
67
108
201
179
133
192
195
197
173
172
60
194
137
94
175
56
6
99
141
78
132
147
190
70
38
57
181
85
97
11
83
166
110
148
176
185
170
73
129
158
116
153
62
204
186
91
191
15
131
42
41
168
86
87
146
30
98
214
90
20
211
145
22
92
96
155
25
39
109
115
160
210
95
196
154
212
128
142
219
140
167
169
63
138
136
112
111
213
48
4
107
21
193
139
10
23
143
43
59
106
117
61
188
208
8
182
149
114
207
189
161
199
52
13
75
81
180
162
18
203
124
144
125
46
32
34
14
29
80
88
51
40
45
151
69
71
50
215
53
5
216
165
19
27
37
163
121
31
164
36
205
68
12
47
152
65
103
2
3
28
7
24

> <PUBCHEM_MMFF94_PARTIAL_CHARGES>
26
1 -0.56
10 0.28
11 0.37
12 0.3
13 0.28
14 0.28
15 0.72
16 0.69
17 0.14
18 0.17
19 -0.15
2 -0.56
23 0.16
24 0.3
3 -0.57
34 0.4
35 0.37
36 0.37
37 0.15
4 -0.87
47 0.15
5 -0.73
6 -0.62
7 -0.73
8 -0.62
9 0.28

> <PUBCHEM_EFFECTIVE_ROTOR_COUNT>
8.2

> <PUBCHEM_PHARMACOPHORE_FEATURES>
12
1 1 acceptor
1 2 acceptor
1 3 acceptor
1 4 donor
1 5 donor
1 6 acceptor
1 7 donor
4 17 20 21 22 hydrophobe
4 4 6 8 15 cation
5 1 9 10 11 13 rings
5 2 9 10 12 14 rings
6 6 8 15 18 19 23 rings

> <PUBCHEM_HEAVY_ATOM_COUNT>
25

> <PUBCHEM_ATOM_DEF_STEREO_COUNT>
4

> <PUBCHEM_ATOM_UDEF_STEREO_COUNT>
0

> <PUBCHEM_BOND_DEF_STEREO_COUNT>
0

> <PUBCHEM_BOND_UDEF_STEREO_COUNT>
0

> <PUBCHEM_ISOTOPIC_ATOM_COUNT>
0

> <PUBCHEM_COMPONENT_COUNT>
1

> <PUBCHEM_CACTVS_TAUTO_COUNT>
9

> <PUBCHEM_CONFORMER_ID>
00B6370500000001

> <PUBCHEM_MMFF94_ENERGY>
75.1098

> <PUBCHEM_FEATURE_SELFOVERLAP>
61.652

> <PUBCHEM_SHAPE_FINGERPRINT>
10062212 137 17968668085763978864
10378564 45 15285631097234044022
10447042 23 18041001747994546670
10622 236 17750786645638334170
10753850 27 18341049701065744587
11069576 57 17967818215390542718
11578080 2 17822281346148597212
11720765 8 13190881097203404682
11796584 16 18272652346686813155
12390115 104 11097855177642735189
12553582 1 18190767304481675800
12596602 18 18131067100601859610
12892183 10 15482684446098878905
13583140 156 17772167740667903144
13782708 43 17488756554046012134
13828863 39 12607109768489377251
14251751 18 18412819192601930155
14848178 5 17988647415185048903
14950920 106 14836135303471316887
15183329 4 15791724179291388463
15188451 53 18273208686158370087
15342816 4 18340498832275111028
17134984 74 18117280465534430327
17349148 13 18410584971767822499
17857418 61 18333732403178515474
1813 80 18273497900987953493
18222031 100 18272377485537823373
19377110 9 12319450022473093445
193927 3 17987812911697857823
20567600 234 11311786064337832883
20626108 58 18272094924066482873
21315764 119 17603575349420944919
21315764 21 12613033817518657832
21315764 371 18272090466075247818
21458453 9 15840122606408644675
21703447 108 18200874109949016793
21728266 224 18337389348766537353
21968339 14 17241617293698029820
23398203 216 10813220200146239575
23559900 14 16915684504604910044
25222932 49 18201988937778011202
2838139 119 12396565391268048527
3004659 81 17894624859683512626
312425 54 16916801647368828931
312425 83 13913191052712812670
339767 52 18260827107493638202
392239 28 15625929945983210902
4017518 198 16315255240940542878
439807 62 18042688476569247691
463206 1 18260271866806105331
5104073 3 15913060754683394043
56616090 89 17917715716669422889
59025328 239 17240482486039018804
59682541 52 16226034592362766851
6438161 24 18341602777116498287
6443934 186 12751234848465480351
76465 3 18409448085371468993
960060 61 17530968007256547975

> <PUBCHEM_SHAPE_MULTIPOLES>
471.98
14.31
2.82
2.16
11.07
0.09
0.27
-14.4
1.83
2.25
-0.07
-2.48
-0.09
-2.23

> <PUBCHEM_SHAPE_SELFOVERLAP>
989.4

> <PUBCHEM_SHAPE_VOLUME>
266.7

> <PUBCHEM_COORDINATE_TYPE>
2
5
10

$$$$
