75536930
  -OEChem-12032416333D

 39 41  0     1  0  0  0  0  0999 V2000
   -3.4161    1.5966    1.0255 O   0  0  0  0  0  0  0  0  0  0  0  0
   -0.1183    2.4239   -0.3801 O   0  0  0  0  0  0  0  0  0  0  0  0
   -2.1304   -0.6582   -0.2188 N   0  0  1  0  0  0  0  0  0  0  0  0
    1.0965   -2.9754    1.4551 N   0  0  0  0  0  0  0  0  0  0  0  0
    1.4461    0.9811    0.5562 N   0  0  0  0  0  0  0  0  0  0  0  0
    3.5008    2.5888   -0.4733 N   0  0  0  0  0  0  0  0  0  0  0  0
   -1.3610    0.4250   -0.8301 C   0  0  0  0  0  0  0  0  0  0  0  0
   -1.0995    1.5502    0.1798 C   0  0  2  0  0  0  0  0  0  0  0  0
   -3.5849   -0.4713   -0.2628 C   0  0  0  0  0  0  0  0  0  0  0  0
   -2.3198    2.3802    0.5700 C   0  0  0  0  0  0  0  0  0  0  0  0
   -1.7751   -1.9571   -0.7916 C   0  0  0  0  0  0  0  0  0  0  0  0
   -4.0976    0.9500   -0.0427 C   0  0  0  0  0  0  0  0  0  0  0  0
   -0.4087   -2.4096   -0.3503 C   0  0  0  0  0  0  0  0  0  0  0  0
    0.5925   -2.6755   -1.2780 C   0  0  0  0  0  0  0  0  0  0  0  0
    1.1906    2.0928   -0.1618 C   0  0  0  0  0  0  0  0  0  0  0  0
   -0.1085   -2.5735    0.9924 C   0  0  0  0  0  0  0  0  0  0  0  0
    1.8453   -3.0911   -0.8408 C   0  0  0  0  0  0  0  0  0  0  0  0
    2.1999    2.8825   -0.6674 C   0  0  0  0  0  0  0  0  0  0  0  0
    2.0446   -3.2243    0.5239 C   0  0  0  0  0  0  0  0  0  0  0  0
    2.7472    0.6876    0.7503 C   0  0  0  0  0  0  0  0  0  0  0  0
    3.7563    1.4772    0.2447 C   0  0  0  0  0  0  0  0  0  0  0  0
   -0.3905    0.0673   -1.1923 H   0  0  0  0  0  0  0  0  0  0  0  0
   -1.8496    0.8135   -1.7340 H   0  0  0  0  0  0  0  0  0  0  0  0
   -0.7507    1.1039    1.1221 H   0  0  0  0  0  0  0  0  0  0  0  0
   -4.0130   -1.1062    0.5235 H   0  0  0  0  0  0  0  0  0  0  0  0
   -3.9992   -0.8256   -1.2161 H   0  0  0  0  0  0  0  0  0  0  0  0
   -2.0376    3.0523    1.3894 H   0  0  0  0  0  0  0  0  0  0  0  0
   -2.6309    3.0430   -0.2480 H   0  0  0  0  0  0  0  0  0  0  0  0
   -1.8513   -1.9364   -1.8871 H   0  0  0  0  0  0  0  0  0  0  0  0
   -2.4776   -2.7312   -0.4524 H   0  0  0  0  0  0  0  0  0  0  0  0
   -4.0478    1.5406   -0.9658 H   0  0  0  0  0  0  0  0  0  0  0  0
   -5.1565    0.8987    0.2347 H   0  0  0  0  0  0  0  0  0  0  0  0
    0.4102   -2.5613   -2.3429 H   0  0  0  0  0  0  0  0  0  0  0  0
   -0.8475   -2.3861    1.7654 H   0  0  0  0  0  0  0  0  0  0  0  0
    2.6410   -3.3027   -1.5457 H   0  0  0  0  0  0  0  0  0  0  0  0
    1.9989    3.7768   -1.2451 H   0  0  0  0  0  0  0  0  0  0  0  0
    3.0042   -3.5442    0.9163 H   0  0  0  0  0  0  0  0  0  0  0  0
    2.9537   -0.2036    1.3294 H   0  0  0  0  0  0  0  0  0  0  0  0
    4.8014    1.2407    0.4018 H   0  0  0  0  0  0  0  0  0  0  0  0
  1 10  1  0  0  0  0
  1 12  1  0  0  0  0
  2  8  1  0  0  0  0
  2 15  1  0  0  0  0
  3  7  1  0  0  0  0
  3  9  1  0  0  0  0
  3 11  1  0  0  0  0
  4 16  1  0  0  0  0
  4 19  2  0  0  0  0
  5 15  2  0  0  0  0
  5 20  1  0  0  0  0
  6 18  2  0  0  0  0
  6 21  1  0  0  0  0
  7  8  1  0  0  0  0
  7 22  1  0  0  0  0
  7 23  1  0  0  0  0
  8 10  1  0  0  0  0
  8 24  1  0  0  0  0
  9 12  1  0  0  0  0
  9 25  1  0  0  0  0
  9 26  1  0  0  0  0
 10 27  1  0  0  0  0
 10 28  1  0  0  0  0
 11 13  1  0  0  0  0
 11 29  1  0  0  0  0
 11 30  1  0  0  0  0
 12 31  1  0  0  0  0
 12 32  1  0  0  0  0
 13 14  1  0  0  0  0
 13 16  2  0  0  0  0
 14 17  2  0  0  0  0
 14 33  1  0  0  0  0
 15 18  1  0  0  0  0
 16 34  1  0  0  0  0
 17 19  1  0  0  0  0
 17 35  1  0  0  0  0
 18 36  1  0  0  0  0
 19 37  1  0  0  0  0
 20 21  2  0  0  0  0
 20 38  1  0  0  0  0
 21 39  1  0  0  0  0
M  END
> <PUBCHEM_COMPOUND_CID>
75536930

> <PUBCHEM_CONFORMER_RMSD>
1

> <PUBCHEM_CONFORMER_DIVERSEORDER>
4
108
1
46
64
18
88
118
62
53
42
32
31
81
113
52
70
19
82
44
106
79
5
98
26
92
22
86
72
77
116
104
76
9
119
21
84
37
101
67
34
14
66
96
110
60
39
112
23
56
51
103
74
8
29
107
91
3
89
100
65
24
90
105
2
109
83
27
59
78
30
35
17
97
117
45
13
55
71
80
94
12
49
115
58
6
111
87
33
73
11
16
68
114
75
93
40
7
99
63
43
20
10
85
38
95
57
102
69
41
36
15
47
54
50
25
48
61
28

> <PUBCHEM_MMFF94_PARTIAL_CHARGES>
28
1 -0.56
10 0.28
11 0.41
12 0.28
13 -0.14
14 -0.15
15 0.39
16 0.16
17 -0.15
18 0.16
19 0.16
2 -0.36
20 0.16
21 0.16
3 -0.81
33 0.15
34 0.15
35 0.15
36 0.15
37 0.15
38 0.15
39 0.15
4 -0.62
5 -0.62
6 -0.62
7 0.27
8 0.28
9 0.27

> <PUBCHEM_EFFECTIVE_ROTOR_COUNT>
5.4

> <PUBCHEM_PHARMACOPHORE_FEATURES>
7
1 1 acceptor
1 3 cation
1 4 acceptor
1 6 acceptor
6 4 13 14 16 17 19 rings
6 5 6 15 18 20 21 rings
7 1 3 7 8 9 10 12 rings

> <PUBCHEM_HEAVY_ATOM_COUNT>
21

> <PUBCHEM_ATOM_DEF_STEREO_COUNT>
1

> <PUBCHEM_ATOM_UDEF_STEREO_COUNT>
0

> <PUBCHEM_BOND_DEF_STEREO_COUNT>
0

> <PUBCHEM_BOND_UDEF_STEREO_COUNT>
0

> <PUBCHEM_ISOTOPIC_ATOM_COUNT>
0

> <PUBCHEM_COMPONENT_COUNT>
1

> <PUBCHEM_CACTVS_TAUTO_COUNT>
1

> <PUBCHEM_CONFORMER_ID>
04809A2200000004

> <PUBCHEM_MMFF94_ENERGY>
69.3342

> <PUBCHEM_FEATURE_SELFOVERLAP>
35.522

> <PUBCHEM_SHAPE_FINGERPRINT>
10616163 171 18338799042979877264
11578080 2 17460590325652783989
12035759 4 17913180295677109015
12054548 360 17617100205108107762
12156800 1 15868340473234695682
12422481 6 17908393915540120138
12553582 1 17474110899648364497
12592029 89 18409172138434185625
12788726 201 17763464319411203372
13140716 1 18266732674292167329
138480 1 18122626041923137590
13941206 138 18115881857248353390
14022349 108 18268437841229145361
1420 336 17690550210331972042
14251757 5 17543933642098777700
14787075 74 17827377491789550398
15006816 218 18412265021176507636
16120349 306 18265876099443010968
16752209 62 18052245495206843399
17492 54 18120957013711640918
18785283 64 17906186048852413929
20645476 183 17973732668376369485
20905425 154 18271807899928612095
23419403 2 17684136509735521931
23728640 28 18051691349973419066
25147074 1 18059851702886357065
2748010 2 17689415106183685020
3524813 1 17051023236117147387
43471831 8 18411138069319233941
5939293 188 17908139880455010022
6287921 2 17986664879250000027
7364860 26 18270400464857318669
81228 2 17474374155342293617
90316 7 17328016569378867155
90525 40 18265613358570325609

> <PUBCHEM_SHAPE_MULTIPOLES>
400.51
5.77
5.06
1.08
2.23
2.01
0.07
-3.63
0.42
-3.58
-0.17
-0.16
0.55
-0.82

> <PUBCHEM_SHAPE_SELFOVERLAP>
846.913

> <PUBCHEM_SHAPE_VOLUME>
220

> <PUBCHEM_COORDINATE_TYPE>
2
5
10

$$$$
