71693951
  -OEChem-12032416273D

 50 53  0     1  0  0  0  0  0999 V2000
    6.1504   -2.5580    0.0482 F   0  0  0  0  0  0  0  0  0  0  0  0
    4.6530   -3.3423   -1.3105 F   0  0  0  0  0  0  0  0  0  0  0  0
    4.5766   -3.8557    0.8009 F   0  0  0  0  0  0  0  0  0  0  0  0
    0.0207    4.2806   -1.2917 O   0  0  0  0  0  0  0  0  0  0  0  0
    2.7034    4.0744   -0.7440 O   0  0  0  0  0  0  0  0  0  0  0  0
   -0.1223   -0.3265   -1.4900 O   0  0  0  0  0  0  0  0  0  0  0  0
   -5.1216   -0.1510    1.6296 O   0  0  0  0  0  0  0  0  0  0  0  0
   -6.1910   -1.8011   -0.4785 O   0  0  0  0  0  0  0  0  0  0  0  0
   -0.7253    1.4838   -0.1713 N   0  0  0  0  0  0  0  0  0  0  0  0
    1.4411    1.7709    0.9947 C   0  0  2  0  0  0  0  0  0  0  0  0
    0.5500    2.1538   -0.2085 C   0  0  2  0  0  0  0  0  0  0  0  0
    0.4026    3.6687   -0.0742 C   0  0  1  0  0  0  0  0  0  0  0  0
    2.2148    3.0599    1.3744 C   0  0  0  0  0  0  0  0  0  0  0  0
    1.7957    4.1152    0.3528 C   0  0  1  0  0  0  0  0  0  0  0  0
    2.3237    0.5716    0.7201 C   0  0  0  0  0  0  0  0  0  0  0  0
    3.2491    0.6103   -0.3228 C   0  0  0  0  0  0  0  0  0  0  0  0
    2.2104   -0.5726    1.5099 C   0  0  0  0  0  0  0  0  0  0  0  0
   -0.9574    0.2813   -0.8254 C   0  0  0  0  0  0  0  0  0  0  0  0
    4.0615   -0.4949   -0.5757 C   0  0  0  0  0  0  0  0  0  0  0  0
    3.0227   -1.6778    1.2571 C   0  0  0  0  0  0  0  0  0  0  0  0
    3.9483   -1.6390    0.2142 C   0  0  0  0  0  0  0  0  0  0  0  0
   -2.3334   -0.2671   -0.7116 C   0  0  0  0  0  0  0  0  0  0  0  0
   -3.1180    0.0453    0.3987 C   0  0  0  0  0  0  0  0  0  0  0  0
    4.8145   -2.8219   -0.0579 C   0  0  0  0  0  0  0  0  0  0  0  0
   -2.8373   -1.0971   -1.7134 C   0  0  0  0  0  0  0  0  0  0  0  0
   -4.4073   -0.4768    0.5063 C   0  0  0  0  0  0  0  0  0  0  0  0
   -4.1314   -1.6088   -1.6133 C   0  0  0  0  0  0  0  0  0  0  0  0
   -4.9216   -1.2856   -0.5100 C   0  0  0  0  0  0  0  0  0  0  0  0
   -6.2613   -0.9978    1.8012 C   0  0  0  0  0  0  0  0  0  0  0  0
   -7.0105   -1.1418    0.4908 C   0  0  0  0  0  0  0  0  0  0  0  0
    0.7939    1.5290    1.8507 H   0  0  0  0  0  0  0  0  0  0  0  0
    1.0189    1.9187   -1.1719 H   0  0  0  0  0  0  0  0  0  0  0  0
   -0.3365    3.9248    0.6955 H   0  0  0  0  0  0  0  0  0  0  0  0
    1.8885    3.3765    2.3731 H   0  0  0  0  0  0  0  0  0  0  0  0
    3.2999    2.9161    1.4109 H   0  0  0  0  0  0  0  0  0  0  0  0
    1.8009    5.1318    0.7572 H   0  0  0  0  0  0  0  0  0  0  0  0
   -1.4704    1.9438    0.3399 H   0  0  0  0  0  0  0  0  0  0  0  0
    0.0403    5.2429   -1.1535 H   0  0  0  0  0  0  0  0  0  0  0  0
    3.5796    4.3289   -0.4077 H   0  0  0  0  0  0  0  0  0  0  0  0
    3.3582    1.4899   -0.9493 H   0  0  0  0  0  0  0  0  0  0  0  0
    1.4933   -0.6189    2.3251 H   0  0  0  0  0  0  0  0  0  0  0  0
    4.7799   -0.4555   -1.3902 H   0  0  0  0  0  0  0  0  0  0  0  0
    2.9181   -2.5594    1.8833 H   0  0  0  0  0  0  0  0  0  0  0  0
   -2.7430    0.6540    1.2166 H   0  0  0  0  0  0  0  0  0  0  0  0
   -2.2398   -1.3501   -2.5854 H   0  0  0  0  0  0  0  0  0  0  0  0
   -4.5196   -2.2466   -2.4028 H   0  0  0  0  0  0  0  0  0  0  0  0
   -5.9219   -1.9692    2.1816 H   0  0  0  0  0  0  0  0  0  0  0  0
   -6.9050   -0.5401    2.5587 H   0  0  0  0  0  0  0  0  0  0  0  0
   -7.9111   -1.7474    0.6324 H   0  0  0  0  0  0  0  0  0  0  0  0
   -7.3130   -0.1668    0.0889 H   0  0  0  0  0  0  0  0  0  0  0  0
  1 24  1  0  0  0  0
  2 24  1  0  0  0  0
  3 24  1  0  0  0  0
  4 12  1  0  0  0  0
  4 38  1  0  0  0  0
  5 14  1  0  0  0  0
  5 39  1  0  0  0  0
  6 18  2  0  0  0  0
  7 26  1  0  0  0  0
  7 29  1  0  0  0  0
  8 28  1  0  0  0  0
  8 30  1  0  0  0  0
  9 11  1  0  0  0  0
  9 18  1  0  0  0  0
  9 37  1  0  0  0  0
 10 11  1  0  0  0  0
 10 13  1  0  0  0  0
 10 15  1  0  0  0  0
 10 31  1  0  0  0  0
 11 12  1  0  0  0  0
 11 32  1  0  0  0  0
 12 14  1  0  0  0  0
 12 33  1  0  0  0  0
 13 14  1  0  0  0  0
 13 34  1  0  0  0  0
 13 35  1  0  0  0  0
 14 36  1  0  0  0  0
 15 16  2  0  0  0  0
 15 17  1  0  0  0  0
 16 19  1  0  0  0  0
 16 40  1  0  0  0  0
 17 20  2  0  0  0  0
 17 41  1  0  0  0  0
 18 22  1  0  0  0  0
 19 21  2  0  0  0  0
 19 42  1  0  0  0  0
 20 21  1  0  0  0  0
 20 43  1  0  0  0  0
 21 24  1  0  0  0  0
 22 23  2  0  0  0  0
 22 25  1  0  0  0  0
 23 26  1  0  0  0  0
 23 44  1  0  0  0  0
 25 27  2  0  0  0  0
 25 45  1  0  0  0  0
 26 28  2  0  0  0  0
 27 28  1  0  0  0  0
 27 46  1  0  0  0  0
 29 30  1  0  0  0  0
 29 47  1  0  0  0  0
 29 48  1  0  0  0  0
 30 49  1  0  0  0  0
 30 50  1  0  0  0  0
M  END
> <PUBCHEM_COMPOUND_CID>
71693951

> <PUBCHEM_CONFORMER_RMSD>
0.8

> <PUBCHEM_CONFORMER_DIVERSEORDER>
1
33
14
9
13
27
25
17
20
24
31
19
30
12
11
2
32
22
23
3
8
15
5
29
28
16
18
6
10
7
26
4
21

> <PUBCHEM_MMFF94_PARTIAL_CHARGES>
39
1 -0.34
10 0.14
11 0.3
12 0.28
14 0.28
15 -0.14
16 -0.15
17 -0.15
18 0.54
19 -0.15
2 -0.34
20 -0.15
21 -0.14
22 0.09
23 -0.15
24 1.16
25 -0.15
26 0.08
27 -0.15
28 0.08
29 0.28
3 -0.34
30 0.28
37 0.37
38 0.4
39 0.4
4 -0.68
40 0.15
41 0.15
42 0.15
43 0.15
44 0.15
45 0.15
46 0.15
5 -0.68
6 -0.57
7 -0.36
8 -0.36
9 -0.73

> <PUBCHEM_EFFECTIVE_ROTOR_COUNT>
6.8

> <PUBCHEM_PHARMACOPHORE_FEATURES>
12
1 4 acceptor
1 4 donor
1 5 acceptor
1 5 donor
1 6 acceptor
1 7 acceptor
1 8 acceptor
1 9 donor
5 10 11 12 13 14 rings
6 15 16 17 19 20 21 rings
6 22 23 25 26 27 28 rings
6 7 8 26 28 29 30 rings

> <PUBCHEM_HEAVY_ATOM_COUNT>
30

> <PUBCHEM_ATOM_DEF_STEREO_COUNT>
4

> <PUBCHEM_ATOM_UDEF_STEREO_COUNT>
0

> <PUBCHEM_BOND_DEF_STEREO_COUNT>
0

> <PUBCHEM_BOND_UDEF_STEREO_COUNT>
0

> <PUBCHEM_ISOTOPIC_ATOM_COUNT>
0

> <PUBCHEM_COMPONENT_COUNT>
1

> <PUBCHEM_CACTVS_TAUTO_COUNT>
2

> <PUBCHEM_CONFORMER_ID>
0445F67F00000001

> <PUBCHEM_MMFF94_ENERGY>
86.478

> <PUBCHEM_FEATURE_SELFOVERLAP>
60.951

> <PUBCHEM_SHAPE_FINGERPRINT>
10928967 22 18336251371597249227
11059845 2 17273149998844865787
11991303 11 17536874373695520205
12107183 9 18200322018115544233
12422481 6 17632016325826878591
12553582 1 18338504275280059954
12788726 201 17829600665519101064
13009979 54 18060423482195170360
13533116 47 18338516469203676003
13673619 4 18041000622433722167
13690498 29 18188770543925581941
13692114 37 17403722841256069298
13726171 33 13334743388925227573
13785724 45 18270971154294484399
13911852 28 18338796715276856083
13955234 65 18268146650657005880
14251764 30 18336266751742903723
14739800 52 16915371332975199761
14863182 85 18122049060897746256
15250474 111 17843109566337307071
16992787 43 18338242682445863076
17349148 13 17560798883817181101
17492 89 18340482383051390535
17818456 19 17703515467200982593
1813 80 18342181042052319990
19319366 153 17839464728072272497
20505436 4 17556024919798096957
20775530 9 18339069390160749174
21049683 271 18409733984950634100
21365058 113 18260276243488302741
21716022 299 18261976093150546724
22033318 11 18056226647166583289
22440779 20 17459199486699969901
2260408 40 18130212856859478968
22849341 161 18342745108787006361
22950370 63 18411421674431061230
23559900 14 18336542828636261131
3117164 225 18341897390239450649
3421961 26 18340481253005597336
345986 75 17989489610457604808
34797466 226 16443630207063076983
3552219 110 17846503609082882442
3737641 26 18410007728527132908
4144715 1 18041842930805002113
437795 51 18042982054029873868
4394409 98 15240062538439439422
4409770 3 17832418700815408773
44880168 125 17059772192422077598
4516262 110 18051406568415989109
46194498 28 17385723646651234292
513202 73 18265619788642776411
5309563 4 18338513032481454311
54039377 194 18338803295805564022
56633871 153 18060135388858849511
57527585 21 14637998816069278414
6823239 73 16226046742782672281
70251023 43 18335702724037209480
7970288 3 18410853231088582411
8509985 295 16988847215550627633
86090 222 17386006221619874371

> <PUBCHEM_SHAPE_MULTIPOLES>
561.24
14.27
4.99
1.52
18.53
3.78
-0.08
-15.1
-2.87
-9.53
0.62
1.08
-0.21
-0.26

> <PUBCHEM_SHAPE_SELFOVERLAP>
1227.511

> <PUBCHEM_SHAPE_VOLUME>
305.5

> <PUBCHEM_COORDINATE_TYPE>
2
5
10

$$$$
