11884359
  -OEChem-12032416253D

 41 43  0     1  0  0  0  0  0999 V2000
    0.8155   -2.8666    0.1009 S   0  0  0  0  0  0  0  0  0  0  0  0
    3.9698    0.7081   -0.2675 O   0  0  0  0  0  0  0  0  0  0  0  0
    1.3884    1.6217    1.0873 O   0  0  0  0  0  0  0  0  0  0  0  0
    3.7168    3.3779   -0.9923 O   0  0  0  0  0  0  0  0  0  0  0  0
    0.8174   -3.3105    1.4818 O   0  0  0  0  0  0  0  0  0  0  0  0
    0.8033   -3.8365   -0.9773 O   0  0  0  0  0  0  0  0  0  0  0  0
   -4.3308    1.4909    1.4768 O   0  0  0  0  0  0  0  0  0  0  0  0
    2.1034   -1.7873   -0.1472 N   0  0  0  0  0  0  0  0  0  0  0  0
   -3.8953    0.6509   -0.6825 N   0  0  0  0  0  0  0  0  0  0  0  0
    1.6286    0.6159    0.0793 C   0  0  1  0  0  0  0  0  0  0  0  0
    2.7203    1.1545   -0.8231 C   0  0  1  0  0  0  0  0  0  0  0  0
    2.2451   -0.6131    0.7120 C   0  0  2  0  0  0  0  0  0  0  0  0
    2.5506    2.6482   -0.6843 C   0  0  1  0  0  0  0  0  0  0  0  0
    3.7105   -0.2126    0.8037 C   0  0  0  0  0  0  0  0  0  0  0  0
    2.1572    2.7910    0.7688 C   0  0  0  0  0  0  0  0  0  0  0  0
   -0.5886   -1.8184   -0.1327 C   0  0  0  0  0  0  0  0  0  0  0  0
   -1.1220   -1.1508    0.9561 C   0  0  0  0  0  0  0  0  0  0  0  0
   -1.1285   -1.6846   -1.4002 C   0  0  0  0  0  0  0  0  0  0  0  0
   -2.2299   -0.3237    0.7718 C   0  0  0  0  0  0  0  0  0  0  0  0
   -2.2364   -0.8574   -1.5844 C   0  0  0  0  0  0  0  0  0  0  0  0
   -2.7870   -0.1770   -0.4983 C   0  0  0  0  0  0  0  0  0  0  0  0
   -4.5790    1.4074    0.2783 C   0  0  0  0  0  0  0  0  0  0  0  0
   -5.7294    2.1720   -0.3270 C   0  0  0  0  0  0  0  0  0  0  0  0
    0.6977    0.4721   -0.4683 H   0  0  0  0  0  0  0  0  0  0  0  0
    2.6694    0.7990   -1.8562 H   0  0  0  0  0  0  0  0  0  0  0  0
    1.8657   -0.8257    1.7163 H   0  0  0  0  0  0  0  0  0  0  0  0
    1.7314    2.9922   -1.3261 H   0  0  0  0  0  0  0  0  0  0  0  0
    3.9133    0.3168    1.7413 H   0  0  0  0  0  0  0  0  0  0  0  0
    4.4032   -1.0565    0.7293 H   0  0  0  0  0  0  0  0  0  0  0  0
    3.0243    2.8357    1.4372 H   0  0  0  0  0  0  0  0  0  0  0  0
    1.5533    3.6857    0.9481 H   0  0  0  0  0  0  0  0  0  0  0  0
    2.5298   -1.7321   -1.0805 H   0  0  0  0  0  0  0  0  0  0  0  0
    4.4452    3.0211   -0.4559 H   0  0  0  0  0  0  0  0  0  0  0  0
   -0.6997   -1.2497    1.9514 H   0  0  0  0  0  0  0  0  0  0  0  0
   -0.7094   -2.1986   -2.2596 H   0  0  0  0  0  0  0  0  0  0  0  0
   -2.5992    0.1709    1.6593 H   0  0  0  0  0  0  0  0  0  0  0  0
   -2.6591   -0.7505   -2.5802 H   0  0  0  0  0  0  0  0  0  0  0  0
   -4.2427    0.7049   -1.6378 H   0  0  0  0  0  0  0  0  0  0  0  0
   -5.3524    2.8760   -1.0741 H   0  0  0  0  0  0  0  0  0  0  0  0
   -6.2557    2.7290    0.4531 H   0  0  0  0  0  0  0  0  0  0  0  0
   -6.4293    1.4770   -0.7995 H   0  0  0  0  0  0  0  0  0  0  0  0
  1  5  2  0  0  0  0
  1  6  2  0  0  0  0
  1  8  1  0  0  0  0
  1 16  1  0  0  0  0
  2 11  1  0  0  0  0
  2 14  1  0  0  0  0
  3 10  1  0  0  0  0
  3 15  1  0  0  0  0
  4 13  1  0  0  0  0
  4 33  1  0  0  0  0
  7 22  2  0  0  0  0
  8 12  1  0  0  0  0
  8 32  1  0  0  0  0
  9 21  1  0  0  0  0
  9 22  1  0  0  0  0
  9 38  1  0  0  0  0
 10 11  1  0  0  0  0
 10 12  1  0  0  0  0
 10 24  1  0  0  0  0
 11 13  1  0  0  0  0
 11 25  1  0  0  0  0
 12 14  1  0  0  0  0
 12 26  1  0  0  0  0
 13 15  1  0  0  0  0
 13 27  1  0  0  0  0
 14 28  1  0  0  0  0
 14 29  1  0  0  0  0
 15 30  1  0  0  0  0
 15 31  1  0  0  0  0
 16 17  2  0  0  0  0
 16 18  1  0  0  0  0
 17 19  1  0  0  0  0
 17 34  1  0  0  0  0
 18 20  2  0  0  0  0
 18 35  1  0  0  0  0
 19 21  2  0  0  0  0
 19 36  1  0  0  0  0
 20 21  1  0  0  0  0
 20 37  1  0  0  0  0
 22 23  1  0  0  0  0
 23 39  1  0  0  0  0
 23 40  1  0  0  0  0
 23 41  1  0  0  0  0
M  END
> <PUBCHEM_COMPOUND_CID>
11884359

> <PUBCHEM_CONFORMER_RMSD>
0.8

> <PUBCHEM_CONFORMER_DIVERSEORDER>
1
3
24
21
10
20
5
14
25
12
4
19
15
22
6
17
2
27
11
9
8
18
23
13
16
7
26

> <PUBCHEM_MMFF94_PARTIAL_CHARGES>
30
1 1.45
10 0.28
11 0.28
12 0.36
13 0.28
14 0.28
15 0.28
16 -0.01
17 -0.15
18 -0.15
19 -0.15
2 -0.56
20 -0.15
21 0.12
22 0.57
23 0.06
3 -0.56
32 0.42
33 0.4
34 0.15
35 0.15
36 0.15
37 0.15
38 0.37
4 -0.68
5 -0.65
6 -0.65
7 -0.57
8 -0.91
9 -0.55

> <PUBCHEM_EFFECTIVE_ROTOR_COUNT>
6.2

> <PUBCHEM_PHARMACOPHORE_FEATURES>
12
1 2 acceptor
1 3 acceptor
1 4 acceptor
1 4 donor
1 5 acceptor
1 6 acceptor
1 7 acceptor
1 8 donor
1 9 donor
5 2 10 11 12 14 rings
5 3 10 11 13 15 rings
6 16 17 18 19 20 21 rings

> <PUBCHEM_HEAVY_ATOM_COUNT>
23

> <PUBCHEM_ATOM_DEF_STEREO_COUNT>
4

> <PUBCHEM_ATOM_UDEF_STEREO_COUNT>
0

> <PUBCHEM_BOND_DEF_STEREO_COUNT>
0

> <PUBCHEM_BOND_UDEF_STEREO_COUNT>
0

> <PUBCHEM_ISOTOPIC_ATOM_COUNT>
0

> <PUBCHEM_COMPONENT_COUNT>
1

> <PUBCHEM_CACTVS_TAUTO_COUNT>
2

> <PUBCHEM_CONFORMER_ID>
00B5574700000001

> <PUBCHEM_MMFF94_ENERGY>
54.8307

> <PUBCHEM_FEATURE_SELFOVERLAP>
61.641

> <PUBCHEM_SHAPE_FINGERPRINT>
10165383 225 17822588126402033446
10382601 240 18261668156447509074
10937287 8 18339079418498110493
11477941 20 16469815347093963028
11640471 11 18202561774387061879
12173636 292 18123465239920359519
12363563 72 10807670990038456469
12403260 363 18265596861722663718
12422481 6 17762871309293278330
12633257 1 17749661909624930419
12788726 201 17761762267048902879
128993 33 18045219590246301188
13004483 165 9150357301181913183
13140716 1 18336538408402666152
13583140 156 18189344464122607107
13878862 14 18046886210026612301
13944108 23 18119815715809719085
14251764 75 18337967803937954465
151778 21 18334298677547822661
1813 80 17410217201049065903
18785283 64 18260834769461781107
20465049 17 18341630186616144975
20739085 24 18194678172984497178
21041028 32 17759512275268678282
21475661 188 18042681715899911461
21524375 3 18336538425588381510
21860390 5 18198062465426797823
21864079 5 18338237192532971420
22907989 373 17616813670480802350
23558518 356 18192700370462091794
238 59 17756661409063103670
25 1 18409728456546969714
2637199 183 18410300236942303382
350125 39 18191870243546497610
474 4 18409445865226590411
49207404 50 18187379748159272443
5048184 11 18339080518062583261
633830 44 18411699906596551351
8272917 22 18338518526055329647

> <PUBCHEM_SHAPE_MULTIPOLES>
432
8.54
4.15
1.31
9.68
0.96
-0.02
-8.72
-0.02
-2.62
-0.32
0.26
0.2
-1.08

> <PUBCHEM_SHAPE_SELFOVERLAP>
908.991

> <PUBCHEM_SHAPE_VOLUME>
244.2

> <PUBCHEM_COORDINATE_TYPE>
2
5
10

$$$$
