56775604
  -OEChem-12032416323D

 43 45  0     0  0  0  0  0  0999 V2000
   -0.8384    2.5770    1.0292 O   0  0  0  0  0  0  0  0  0  0  0  0
   -3.5549   -1.1372    1.2500 O   0  0  0  0  0  0  0  0  0  0  0  0
   -5.9645   -0.5971   -1.3829 O   0  0  0  0  0  0  0  0  0  0  0  0
    1.2621    1.3441   -0.7780 N   0  0  0  0  0  0  0  0  0  0  0  0
    4.9029   -0.6434    0.1488 N   0  0  0  0  0  0  0  0  0  0  0  0
   -2.1692   -1.0647    1.1754 N   0  0  0  0  0  0  0  0  0  0  0  0
   -0.0206    1.0016   -0.1563 C   0  0  0  0  0  0  0  0  0  0  0  0
    2.2099    0.2528   -0.5646 C   0  0  0  0  0  0  0  0  0  0  0  0
   -0.9859    2.1659   -0.3490 C   0  0  0  0  0  0  0  0  0  0  0  0
    0.0090    1.4382    1.3040 C   0  0  0  0  0  0  0  0  0  0  0  0
   -0.4801   -0.3843   -0.4914 C   0  0  0  0  0  0  0  0  0  0  0  0
    3.3888    0.3525   -1.5372 C   0  0  0  0  0  0  0  0  0  0  0  0
    2.7209    0.2695    0.8785 C   0  0  0  0  0  0  0  0  0  0  0  0
    4.4359   -0.7247   -1.2423 C   0  0  0  0  0  0  0  0  0  0  0  0
    3.7898   -0.8052    1.0945 C   0  0  0  0  0  0  0  0  0  0  0  0
   -1.9131   -0.5978   -0.0500 C   0  0  0  0  0  0  0  0  0  0  0  0
    5.9381   -1.6455    0.4005 C   0  0  0  0  0  0  0  0  0  0  0  0
   -3.0864   -0.3600   -0.7865 C   0  0  0  0  0  0  0  0  0  0  0  0
   -4.0898   -0.7150    0.0759 C   0  0  0  0  0  0  0  0  0  0  0  0
   -5.5545   -0.7266   -0.0188 C   0  0  0  0  0  0  0  0  0  0  0  0
    1.8013   -0.7337   -0.7947 H   0  0  0  0  0  0  0  0  0  0  0  0
    1.1772    1.5172   -1.7801 H   0  0  0  0  0  0  0  0  0  0  0  0
   -2.0351    1.9734   -0.5732 H   0  0  0  0  0  0  0  0  0  0  0  0
   -0.6592    2.9632   -1.0281 H   0  0  0  0  0  0  0  0  0  0  0  0
    0.9350    1.8215    1.7392 H   0  0  0  0  0  0  0  0  0  0  0  0
   -0.4598    0.7760    2.0370 H   0  0  0  0  0  0  0  0  0  0  0  0
    0.0981   -1.1633    0.0207 H   0  0  0  0  0  0  0  0  0  0  0  0
   -0.4290   -0.5785   -1.5709 H   0  0  0  0  0  0  0  0  0  0  0  0
    3.8583    1.3428   -1.4625 H   0  0  0  0  0  0  0  0  0  0  0  0
    3.0397    0.2438   -2.5717 H   0  0  0  0  0  0  0  0  0  0  0  0
    1.9333    0.0170    1.5915 H   0  0  0  0  0  0  0  0  0  0  0  0
    3.1331    1.2526    1.1397 H   0  0  0  0  0  0  0  0  0  0  0  0
    4.0169   -1.7166   -1.4575 H   0  0  0  0  0  0  0  0  0  0  0  0
    5.2805   -0.5738   -1.9255 H   0  0  0  0  0  0  0  0  0  0  0  0
    4.1615   -0.7158    2.1227 H   0  0  0  0  0  0  0  0  0  0  0  0
    3.3376   -1.8014    0.9975 H   0  0  0  0  0  0  0  0  0  0  0  0
    6.7911   -1.4945   -0.2704 H   0  0  0  0  0  0  0  0  0  0  0  0
    5.5675   -2.6677    0.2628 H   0  0  0  0  0  0  0  0  0  0  0  0
    6.3233   -1.5527    1.4221 H   0  0  0  0  0  0  0  0  0  0  0  0
   -3.1869    0.0123   -1.7954 H   0  0  0  0  0  0  0  0  0  0  0  0
   -5.9612   -1.6651    0.3704 H   0  0  0  0  0  0  0  0  0  0  0  0
   -5.9798    0.1073    0.5481 H   0  0  0  0  0  0  0  0  0  0  0  0
   -6.9369   -0.6066   -1.3879 H   0  0  0  0  0  0  0  0  0  0  0  0
  1  9  1  0  0  0  0
  1 10  1  0  0  0  0
  2  6  1  0  0  0  0
  2 19  1  0  0  0  0
  3 20  1  0  0  0  0
  3 43  1  0  0  0  0
  4  7  1  0  0  0  0
  4  8  1  0  0  0  0
  4 22  1  0  0  0  0
  5 14  1  0  0  0  0
  5 15  1  0  0  0  0
  5 17  1  0  0  0  0
  6 16  2  0  0  0  0
  7  9  1  0  0  0  0
  7 10  1  0  0  0  0
  7 11  1  0  0  0  0
  8 12  1  0  0  0  0
  8 13  1  0  0  0  0
  8 21  1  0  0  0  0
  9 23  1  0  0  0  0
  9 24  1  0  0  0  0
 10 25  1  0  0  0  0
 10 26  1  0  0  0  0
 11 16  1  0  0  0  0
 11 27  1  0  0  0  0
 11 28  1  0  0  0  0
 12 14  1  0  0  0  0
 12 29  1  0  0  0  0
 12 30  1  0  0  0  0
 13 15  1  0  0  0  0
 13 31  1  0  0  0  0
 13 32  1  0  0  0  0
 14 33  1  0  0  0  0
 14 34  1  0  0  0  0
 15 35  1  0  0  0  0
 15 36  1  0  0  0  0
 16 18  1  0  0  0  0
 17 37  1  0  0  0  0
 17 38  1  0  0  0  0
 17 39  1  0  0  0  0
 18 19  2  0  0  0  0
 18 40  1  0  0  0  0
 19 20  1  0  0  0  0
 20 41  1  0  0  0  0
 20 42  1  0  0  0  0
M  END
> <PUBCHEM_COMPOUND_CID>
56775604

> <PUBCHEM_CONFORMER_RMSD>
0.8

> <PUBCHEM_CONFORMER_DIVERSEORDER>
2
34
24
42
29
62
41
15
56
9
43
44
19
48
5
60
33
55
22
50
59
13
17
31
40
4
6
27
3
63
26
49
36
54
25
61
37
8
30
1
10
58
47
39
52
57
7
12
11
46
38
45
53
20
21
35
51
28
18
14
32
16
23

> <PUBCHEM_MMFF94_PARTIAL_CHARGES>
21
1 -0.52
10 0.26
11 0.18
14 0.27
15 0.27
16 0.11
17 0.27
18 -0.15
19 -0.04
2 -0.02
20 0.46
22 0.36
3 -0.68
4 -0.84
40 0.15
43 0.4
5 -0.81
6 -0.41
7 0.21
8 0.27
9 0.26

> <PUBCHEM_EFFECTIVE_ROTOR_COUNT>
7

> <PUBCHEM_PHARMACOPHORE_FEATURES>
10
1 1 acceptor
1 3 acceptor
1 3 donor
1 4 cation
1 4 donor
1 5 cation
1 6 acceptor
4 1 7 9 10 rings
5 2 6 16 18 19 rings
6 5 8 12 13 14 15 rings

> <PUBCHEM_HEAVY_ATOM_COUNT>
20

> <PUBCHEM_ATOM_DEF_STEREO_COUNT>
0

> <PUBCHEM_ATOM_UDEF_STEREO_COUNT>
0

> <PUBCHEM_BOND_DEF_STEREO_COUNT>
0

> <PUBCHEM_BOND_UDEF_STEREO_COUNT>
0

> <PUBCHEM_ISOTOPIC_ATOM_COUNT>
0

> <PUBCHEM_COMPONENT_COUNT>
1

> <PUBCHEM_CACTVS_TAUTO_COUNT>
1

> <PUBCHEM_CONFORMER_ID>
036253B400000002

> <PUBCHEM_MMFF94_ENERGY>
38.3002

> <PUBCHEM_FEATURE_SELFOVERLAP>
50.746

> <PUBCHEM_SHAPE_FINGERPRINT>
10670039 82 9222966906187530362
107951 10 15357697496466801483
11724838 91 12823003240331814694
11796584 16 17894631469633159907
12236239 1 18114184103688626684
12251169 10 15410894076404641308
12403259 118 12679190357887833027
12403259 415 10303551514547140435
12403814 3 12607403256737287891
124424 183 18335985354686871235
12596602 18 15195571186335205391
12633257 1 16988554724078001154
12670545 2 18040155115214302422
12730499 353 12973885879437743000
12760667 363 18411419479586838962
12788726 201 18339094725867080976
12892183 10 14620808071457839118
13134695 92 18129100194501290893
13533116 47 18408039598793032066
13583140 156 14117514299134478131
13862211 1 18343017809356878831
14178342 30 18056207869331894780
14251752 14 17458617874511552535
14341114 328 13183021821524939551
14366163 111 15430032179712850245
15183329 4 17385998447644294943
15188451 53 17060047203536031479
15342168 16 14620217707382178736
15848700 24 18202285826933177453
15885798 251 18202003239465036961
16752209 62 18335417937302823993
17834072 8 17748821917306782215
18006028 8 18343578547022009428
1813 80 18201446890897585108
18186145 218 13190334720611069063
18222031 100 17846787337751884709
19141452 34 17346875684828810759
193927 3 18336277768776733118
19784866 140 18113334202374505579
19784866 240 17894633613359559718
200 152 17894916217775213832
20374829 77 18411136948338083511
204376 136 9367351414076038357
20602899 9 15647061460063316448
20645477 56 8790877489207820024
20671657 53 18186527622084032652
22079108 93 14261626236009904838
2215653 11 18040708182532378167
22224240 67 16988834004595520446
23175994 123 18408886265411151933
23227448 37 10519402131248661642
23402539 116 17989486312645141109
23559900 14 17968376861343244988
2871803 45 18040997319883550402
29717793 49 18040436568900682790
3004659 81 17385721396468301978
3027735 51 18267026063782768971
31174 14 16917064473634119472
312423 11 18336001795959187924
314173 85 18131078133723879040
351380 180 14261637226704796315
4325135 7 18341611547565927328
465052 167 18337117855389255519
5374978 207 18273495689295885504
559249 180 17970060059284815222
633830 44 13984941883032757143
8988823 20 18060413655568381432

> <PUBCHEM_SHAPE_MULTIPOLES>
379.04
12.14
1.79
1.34
1.09
1.08
0.02
-8.18
1.58
0.07
-0.42
-0.31
0.04
-0.33

> <PUBCHEM_SHAPE_SELFOVERLAP>
788.804

> <PUBCHEM_SHAPE_VOLUME>
218.1

> <PUBCHEM_COORDINATE_TYPE>
2
5
10

$$$$
