7155494
  -OEChem-12032416213D

 64 69  0     1  0  0  0  0  0999 V2000
   -2.6418   -2.7195    0.9813 O   0  0  0  0  0  0  0  0  0  0  0  0
    2.2202   -2.3382    2.7069 O   0  0  0  0  0  0  0  0  0  0  0  0
   -2.5499    1.7336   -0.9338 O   0  0  0  0  0  0  0  0  0  0  0  0
    2.3098   -3.0850    0.4912 N   0  0  0  0  0  0  0  0  0  0  0  0
   -0.7489   -3.0527   -0.3474 N   0  0  0  0  0  0  0  0  0  0  0  0
   -3.2999   -0.3695   -0.2818 N   0  0  0  0  0  0  0  0  0  0  0  0
    0.8442   -5.0313   -0.0161 C   0  0  1  0  0  0  0  0  0  0  0  0
    1.3106   -3.3628   -1.7652 C   0  0  2  0  0  0  0  0  0  0  0  0
    1.1410   -4.8581   -1.5017 C   0  0  0  0  0  0  0  0  0  0  0  0
    2.0022   -4.4738    0.8315 C   0  0  0  0  0  0  0  0  0  0  0  0
   -0.4891   -4.3440    0.3047 C   0  0  0  0  0  0  0  0  0  0  0  0
    2.5006   -2.8253   -0.9450 C   0  0  0  0  0  0  0  0  0  0  0  0
    0.0519   -2.5984   -1.4004 C   0  0  0  0  0  0  0  0  0  0  0  0
   -0.2713   -1.4727   -2.0589 C   0  0  0  0  0  0  0  0  0  0  0  0
   -1.8973   -2.3511    0.0716 C   0  0  0  0  0  0  0  0  0  0  0  0
    2.3786   -2.1273    1.5057 C   0  0  0  0  0  0  0  0  0  0  0  0
   -2.2072   -1.0874   -0.6695 C   0  0  0  0  0  0  0  0  0  0  0  0
   -1.4236   -0.7036   -1.6829 C   0  0  0  0  0  0  0  0  0  0  0  0
    2.6439   -0.7371    1.1214 C   0  0  0  0  0  0  0  0  0  0  0  0
    1.5824    0.1170    0.8340 C   0  0  0  0  0  0  0  0  0  0  0  0
    3.9563   -0.2775    1.0471 C   0  0  0  0  0  0  0  0  0  0  0  0
   -3.4066    1.0057   -0.4381 C   0  0  0  0  0  0  0  0  0  0  0  0
    1.8348    1.4396    0.4701 C   0  0  0  0  0  0  0  0  0  0  0  0
    4.2087    1.0452    0.6832 C   0  0  0  0  0  0  0  0  0  0  0  0
    3.1480    1.9039    0.3947 C   0  0  0  0  0  0  0  0  0  0  0  0
   -4.6835    1.6095    0.0239 C   0  0  0  0  0  0  0  0  0  0  0  0
    3.4101    3.2755    0.0157 C   0  0  0  0  0  0  0  0  0  0  0  0
   -5.1194    2.7787   -0.5638 C   0  0  0  0  0  0  0  0  0  0  0  0
   -5.3926    0.9796    1.0254 C   0  0  0  0  0  0  0  0  0  0  0  0
    3.5846    3.6068   -1.3279 C   0  0  0  0  0  0  0  0  0  0  0  0
    3.4862    4.2665    0.9941 C   0  0  0  0  0  0  0  0  0  0  0  0
   -6.3190    3.3435   -0.1305 C   0  0  0  0  0  0  0  0  0  0  0  0
   -6.5921    1.5445    1.4587 C   0  0  0  0  0  0  0  0  0  0  0  0
    3.8353    4.9293   -1.6931 C   0  0  0  0  0  0  0  0  0  0  0  0
    3.7369    5.5892    0.6289 C   0  0  0  0  0  0  0  0  0  0  0  0
   -7.0553    2.7265    0.8807 C   0  0  0  0  0  0  0  0  0  0  0  0
    3.9113    5.9207   -0.7148 C   0  0  0  0  0  0  0  0  0  0  0  0
    0.7468   -6.0987    0.2175 H   0  0  0  0  0  0  0  0  0  0  0  0
    1.5332   -3.2254   -2.8313 H   0  0  0  0  0  0  0  0  0  0  0  0
    0.3261   -5.2709   -2.1095 H   0  0  0  0  0  0  0  0  0  0  0  0
    2.0535   -5.4015   -1.7756 H   0  0  0  0  0  0  0  0  0  0  0  0
    1.7711   -4.5698    1.8976 H   0  0  0  0  0  0  0  0  0  0  0  0
    2.9136   -5.0551    0.6456 H   0  0  0  0  0  0  0  0  0  0  0  0
   -1.3086   -5.0037   -0.0118 H   0  0  0  0  0  0  0  0  0  0  0  0
   -0.6053   -4.2184    1.3886 H   0  0  0  0  0  0  0  0  0  0  0  0
    3.4230   -3.3410   -1.2397 H   0  0  0  0  0  0  0  0  0  0  0  0
    2.6541   -1.7629   -1.1496 H   0  0  0  0  0  0  0  0  0  0  0  0
    0.3403   -1.0949   -2.8717 H   0  0  0  0  0  0  0  0  0  0  0  0
   -1.6124    0.1626   -2.3051 H   0  0  0  0  0  0  0  0  0  0  0  0
   -3.9795   -0.8832    0.2683 H   0  0  0  0  0  0  0  0  0  0  0  0
    0.5559   -0.2316    0.9005 H   0  0  0  0  0  0  0  0  0  0  0  0
    4.7895   -0.9388    1.2697 H   0  0  0  0  0  0  0  0  0  0  0  0
    0.9957    2.0955    0.2499 H   0  0  0  0  0  0  0  0  0  0  0  0
    5.2384    1.3906    0.6287 H   0  0  0  0  0  0  0  0  0  0  0  0
   -4.5610    3.2686   -1.3557 H   0  0  0  0  0  0  0  0  0  0  0  0
   -5.0546    0.0855    1.5370 H   0  0  0  0  0  0  0  0  0  0  0  0
    3.5279    2.8464   -2.1033 H   0  0  0  0  0  0  0  0  0  0  0  0
    3.3522    4.0255    2.0461 H   0  0  0  0  0  0  0  0  0  0  0  0
   -6.6802    4.2634   -0.5811 H   0  0  0  0  0  0  0  0  0  0  0  0
   -7.1609    1.0702    2.2532 H   0  0  0  0  0  0  0  0  0  0  0  0
    3.9710    5.1876   -2.7392 H   0  0  0  0  0  0  0  0  0  0  0  0
    3.7960    6.3611    1.3906 H   0  0  0  0  0  0  0  0  0  0  0  0
   -7.9883    3.1674    1.2195 H   0  0  0  0  0  0  0  0  0  0  0  0
    4.1064    6.9505   -0.9991 H   0  0  0  0  0  0  0  0  0  0  0  0
  1 15  2  0  0  0  0
  2 16  2  0  0  0  0
  3 22  2  0  0  0  0
  4 10  1  0  0  0  0
  4 12  1  0  0  0  0
  4 16  1  0  0  0  0
  5 11  1  0  0  0  0
  5 13  1  0  0  0  0
  5 15  1  0  0  0  0
  6 17  1  0  0  0  0
  6 22  1  0  0  0  0
  6 50  1  0  0  0  0
  7  9  1  0  0  0  0
  7 10  1  0  0  0  0
  7 11  1  0  0  0  0
  7 38  1  0  0  0  0
  8  9  1  0  0  0  0
  8 12  1  0  0  0  0
  8 13  1  0  0  0  0
  8 39  1  0  0  0  0
  9 40  1  0  0  0  0
  9 41  1  0  0  0  0
 10 42  1  0  0  0  0
 10 43  1  0  0  0  0
 11 44  1  0  0  0  0
 11 45  1  0  0  0  0
 12 46  1  0  0  0  0
 12 47  1  0  0  0  0
 13 14  2  0  0  0  0
 14 18  1  0  0  0  0
 14 48  1  0  0  0  0
 15 17  1  0  0  0  0
 16 19  1  0  0  0  0
 17 18  2  0  0  0  0
 18 49  1  0  0  0  0
 19 20  2  0  0  0  0
 19 21  1  0  0  0  0
 20 23  1  0  0  0  0
 20 51  1  0  0  0  0
 21 24  2  0  0  0  0
 21 52  1  0  0  0  0
 22 26  1  0  0  0  0
 23 25  2  0  0  0  0
 23 53  1  0  0  0  0
 24 25  1  0  0  0  0
 24 54  1  0  0  0  0
 25 27  1  0  0  0  0
 26 28  2  0  0  0  0
 26 29  1  0  0  0  0
 27 30  2  0  0  0  0
 27 31  1  0  0  0  0
 28 32  1  0  0  0  0
 28 55  1  0  0  0  0
 29 33  2  0  0  0  0
 29 56  1  0  0  0  0
 30 34  1  0  0  0  0
 30 57  1  0  0  0  0
 31 35  2  0  0  0  0
 31 58  1  0  0  0  0
 32 36  2  0  0  0  0
 32 59  1  0  0  0  0
 33 36  1  0  0  0  0
 33 60  1  0  0  0  0
 34 37  2  0  0  0  0
 34 61  1  0  0  0  0
 35 37  1  0  0  0  0
 35 62  1  0  0  0  0
 36 63  1  0  0  0  0
 37 64  1  0  0  0  0
M  END
> <PUBCHEM_COMPOUND_CID>
7155494

> <PUBCHEM_CONFORMER_RMSD>
1

> <PUBCHEM_CONFORMER_DIVERSEORDER>
1
7
2
4
5
6
3
8

> <PUBCHEM_MMFF94_PARTIAL_CHARGES>
50
1 -0.57
10 0.3
11 0.3
12 0.3
13 -0.03
14 -0.15
15 0.62
16 0.54
17 0.12
18 -0.15
19 0.09
2 -0.57
20 -0.15
21 -0.15
22 0.54
23 -0.15
24 -0.15
26 0.09
28 -0.15
29 -0.15
3 -0.57
30 -0.15
31 -0.15
32 -0.15
33 -0.15
34 -0.15
35 -0.15
36 -0.15
37 -0.15
4 -0.66
48 0.15
49 0.15
5 -0.47
50 0.37
51 0.15
52 0.15
53 0.15
54 0.15
55 0.15
56 0.15
57 0.15
58 0.15
59 0.15
6 -0.54
60 0.15
61 0.15
62 0.15
63 0.15
64 0.15
8 0.14

> <PUBCHEM_EFFECTIVE_ROTOR_COUNT>
7

> <PUBCHEM_PHARMACOPHORE_FEATURES>
10
1 1 acceptor
1 2 acceptor
1 3 acceptor
1 6 donor
6 19 20 21 23 24 25 rings
6 26 28 29 32 33 36 rings
6 27 30 31 34 35 37 rings
6 4 7 8 9 10 12 rings
6 5 13 14 15 17 18 rings
6 5 7 8 9 11 13 rings

> <PUBCHEM_HEAVY_ATOM_COUNT>
37

> <PUBCHEM_ATOM_DEF_STEREO_COUNT>
2

> <PUBCHEM_ATOM_UDEF_STEREO_COUNT>
0

> <PUBCHEM_BOND_DEF_STEREO_COUNT>
0

> <PUBCHEM_BOND_UDEF_STEREO_COUNT>
0

> <PUBCHEM_ISOTOPIC_ATOM_COUNT>
0

> <PUBCHEM_COMPONENT_COUNT>
1

> <PUBCHEM_CACTVS_TAUTO_COUNT>
2

> <PUBCHEM_CONFORMER_ID>
006D2F2600000001

> <PUBCHEM_MMFF94_ENERGY>
122.6219

> <PUBCHEM_FEATURE_SELFOVERLAP>
52.331

> <PUBCHEM_SHAPE_FINGERPRINT>
10483366 6 18198919015746334966
10937287 8 18267298914243590036
10951579 204 17398682684888953604
11059845 2 17981012496900629536
11476731 47 18193534728743159405
11505856 67 18054784255024170959
11828042 279 18337935854434979861
12708847 88 18409441484977763925
12788726 201 17767949193250715415
13761468 95 17766584699483785496
14068700 686 18266470978436751707
14251764 75 18339365287464131657
14790565 3 18339079427098581513
14849402 71 18267873791727036375
151778 21 18411132537248765705
16067690 210 16895134988954110268
16096371 109 18336835187155357169
16988056 13 18124035624272331356
18785283 64 18338797797787650983
21057603 308 17692236853391345543
21716022 299 14331744175340549028
21792965 270 18338245864731799298
22121540 332 17680458789680605514
3044373 193 18268429024189002041
4066623 53 17697050137003491102
469060 322 15871354367940851934
4756261 7 17829343715581201747
4760202 170 17615671957597263053
5219985 13 18268716185027471605
53794403 172 18411141307919780085
57527585 21 17839730809711809846
5776283 40 18266202628832618900
6036956 94 18047462615869367925
6201320 215 17403731650688869544
6609424 69 17479444652098199278
9896288 288 17976268150705764045

> <PUBCHEM_SHAPE_MULTIPOLES>
728.89
12.32
9.82
1.75
24.07
2.52
0.08
22.19
-3.43
-11.04
1.76
-0.78
-0.68
-1.77

> <PUBCHEM_SHAPE_SELFOVERLAP>
1625.754

> <PUBCHEM_SHAPE_VOLUME>
380.4

> <PUBCHEM_COORDINATE_TYPE>
2
5
10

$$$$
