45361598
  -OEChem-12032416203D

 69 71  0     1  0  0  0  0  0999 V2000
   -7.3711    1.9382   -0.1520 S   0  0  0  0  0  0  0  0  0  0  0  0
   -0.2892   -1.4453    2.0022 O   0  0  0  0  0  0  0  0  0  0  0  0
   -4.9284   -1.7037   -0.5295 O   0  0  0  0  0  0  0  0  0  0  0  0
    5.4911    1.6350   -0.1074 O   0  0  0  0  0  0  0  0  0  0  0  0
    7.9396    1.3832    1.3573 O   0  0  0  0  0  0  0  0  0  0  0  0
    4.5327   -0.4743   -0.2668 N   0  0  0  0  0  0  0  0  0  0  0  0
   -4.7693   -0.5743    1.4902 N   0  0  0  0  0  0  0  0  0  0  0  0
    0.4420   -0.4476   -1.6096 C   0  0  1  0  0  0  0  0  0  0  0  0
    0.6836   -0.6110   -0.0721 C   0  0  2  0  0  0  0  0  0  0  0  0
    2.1635   -1.0510    0.2176 C   0  0  1  0  0  0  0  0  0  0  0  0
   -0.4169   -1.4963    0.5805 C   0  0  2  0  0  0  0  0  0  0  0  0
   -0.9865    0.0941   -1.8528 C   0  0  0  0  0  0  0  0  0  0  0  0
    1.4409    0.5915   -2.1693 C   0  0  0  0  0  0  0  0  0  0  0  0
   -1.8466   -1.0097    0.2475 C   0  0  1  0  0  0  0  0  0  0  0  0
    3.1598   -0.0387   -0.4144 C   0  0  2  0  0  0  0  0  0  0  0  0
   -2.0686   -0.7912   -1.2490 C   0  0  0  0  0  0  0  0  0  0  0  0
    2.8941    0.2314   -1.8951 C   0  0  0  0  0  0  0  0  0  0  0  0
    0.6068   -1.7811   -2.3818 C   0  0  0  0  0  0  0  0  0  0  0  0
   -2.9144   -1.9679    0.7893 C   0  0  2  0  0  0  0  0  0  0  0  0
    2.4789   -1.2029    1.7153 C   0  0  0  0  0  0  0  0  0  0  0  0
   -2.7256   -3.3571    0.1903 C   0  0  0  0  0  0  0  0  0  0  0  0
   -4.3058   -1.4180    0.4912 C   0  0  0  0  0  0  0  0  0  0  0  0
    5.5893    0.4111   -0.1247 C   0  0  0  0  0  0  0  0  0  0  0  0
    6.9139   -0.3227    0.0123 C   0  0  0  0  0  0  0  0  0  0  0  0
   -6.0609    0.0699    1.4320 C   0  0  0  0  0  0  0  0  0  0  0  0
    8.0995    0.6167    0.1706 C   0  0  0  0  0  0  0  0  0  0  0  0
   -6.0001    1.3866    0.7132 C   0  0  0  0  0  0  0  0  0  0  0  0
   -4.9490    2.2737    0.6363 C   0  0  0  0  0  0  0  0  0  0  0  0
    9.0303    2.2725    1.5544 C   0  0  0  0  0  0  0  0  0  0  0  0
   -5.2735    3.4213   -0.1432 C   0  0  0  0  0  0  0  0  0  0  0  0
   -6.5601    3.3677   -0.6324 C   0  0  0  0  0  0  0  0  0  0  0  0
    0.5807    0.3864    0.3851 H   0  0  0  0  0  0  0  0  0  0  0  0
    2.3344   -2.0375   -0.2317 H   0  0  0  0  0  0  0  0  0  0  0  0
   -0.2416   -2.5294    0.2748 H   0  0  0  0  0  0  0  0  0  0  0  0
   -1.0781    1.1001   -1.4212 H   0  0  0  0  0  0  0  0  0  0  0  0
   -1.1728    0.2058   -2.9288 H   0  0  0  0  0  0  0  0  0  0  0  0
    1.2382    1.5749   -1.7242 H   0  0  0  0  0  0  0  0  0  0  0  0
    1.2997    0.7102   -3.2512 H   0  0  0  0  0  0  0  0  0  0  0  0
   -1.9944   -0.0394    0.7449 H   0  0  0  0  0  0  0  0  0  0  0  0
    3.0564    0.9153    0.1210 H   0  0  0  0  0  0  0  0  0  0  0  0
   -2.1063   -1.7226   -1.8171 H   0  0  0  0  0  0  0  0  0  0  0  0
   -3.0237   -0.2841   -1.4274 H   0  0  0  0  0  0  0  0  0  0  0  0
    3.5331    1.0534   -2.2432 H   0  0  0  0  0  0  0  0  0  0  0  0
    3.1868   -0.6378   -2.4967 H   0  0  0  0  0  0  0  0  0  0  0  0
    1.6201   -2.1859   -2.3187 H   0  0  0  0  0  0  0  0  0  0  0  0
    0.3863   -1.6393   -3.4464 H   0  0  0  0  0  0  0  0  0  0  0  0
   -0.0624   -2.5636   -2.0135 H   0  0  0  0  0  0  0  0  0  0  0  0
   -2.8135   -2.0608    1.8785 H   0  0  0  0  0  0  0  0  0  0  0  0
    1.9786   -2.0791    2.1372 H   0  0  0  0  0  0  0  0  0  0  0  0
    3.5470   -1.3630    1.8945 H   0  0  0  0  0  0  0  0  0  0  0  0
    2.1788   -0.3123    2.2771 H   0  0  0  0  0  0  0  0  0  0  0  0
    4.7278   -1.4693   -0.3339 H   0  0  0  0  0  0  0  0  0  0  0  0
   -0.3927   -0.5198    2.2819 H   0  0  0  0  0  0  0  0  0  0  0  0
   -1.8017   -3.8395    0.5182 H   0  0  0  0  0  0  0  0  0  0  0  0
   -3.5379   -4.0079    0.5400 H   0  0  0  0  0  0  0  0  0  0  0  0
   -2.7771   -3.3927   -0.8999 H   0  0  0  0  0  0  0  0  0  0  0  0
   -4.1754   -0.3732    2.2895 H   0  0  0  0  0  0  0  0  0  0  0  0
    6.8392   -0.9721    0.8931 H   0  0  0  0  0  0  0  0  0  0  0  0
    7.0565   -0.9527   -0.8728 H   0  0  0  0  0  0  0  0  0  0  0  0
   -6.3893    0.2318    2.4644 H   0  0  0  0  0  0  0  0  0  0  0  0
   -6.7692   -0.6136    0.9504 H   0  0  0  0  0  0  0  0  0  0  0  0
    9.0231    0.0300    0.2348 H   0  0  0  0  0  0  0  0  0  0  0  0
    8.1677    1.2890   -0.6930 H   0  0  0  0  0  0  0  0  0  0  0  0
   -3.9899    2.1183    1.1141 H   0  0  0  0  0  0  0  0  0  0  0  0
    8.8552    2.8327    2.4767 H   0  0  0  0  0  0  0  0  0  0  0  0
    9.9664    1.7150    1.6570 H   0  0  0  0  0  0  0  0  0  0  0  0
    9.1022    2.9813    0.7238 H   0  0  0  0  0  0  0  0  0  0  0  0
   -4.5976    4.2445   -0.3351 H   0  0  0  0  0  0  0  0  0  0  0  0
   -7.0626    4.0997   -1.2488 H   0  0  0  0  0  0  0  0  0  0  0  0
  1 27  1  0  0  0  0
  1 31  1  0  0  0  0
  2 11  1  0  0  0  0
  2 53  1  0  0  0  0
  3 22  2  0  0  0  0
  4 23  2  0  0  0  0
  5 26  1  0  0  0  0
  5 29  1  0  0  0  0
  6 15  1  0  0  0  0
  6 23  1  0  0  0  0
  6 52  1  0  0  0  0
  7 22  1  0  0  0  0
  7 25  1  0  0  0  0
  7 57  1  0  0  0  0
  8  9  1  0  0  0  0
  8 12  1  0  0  0  0
  8 13  1  0  0  0  0
  8 18  1  0  0  0  0
  9 10  1  0  0  0  0
  9 11  1  0  0  0  0
  9 32  1  0  0  0  0
 10 15  1  0  0  0  0
 10 20  1  0  0  0  0
 10 33  1  0  0  0  0
 11 14  1  0  0  0  0
 11 34  1  0  0  0  0
 12 16  1  0  0  0  0
 12 35  1  0  0  0  0
 12 36  1  0  0  0  0
 13 17  1  0  0  0  0
 13 37  1  0  0  0  0
 13 38  1  0  0  0  0
 14 16  1  0  0  0  0
 14 19  1  0  0  0  0
 14 39  1  0  0  0  0
 15 17  1  0  0  0  0
 15 40  1  0  0  0  0
 16 41  1  0  0  0  0
 16 42  1  0  0  0  0
 17 43  1  0  0  0  0
 17 44  1  0  0  0  0
 18 45  1  0  0  0  0
 18 46  1  0  0  0  0
 18 47  1  0  0  0  0
 19 21  1  0  0  0  0
 19 22  1  0  0  0  0
 19 48  1  0  0  0  0
 20 49  1  0  0  0  0
 20 50  1  0  0  0  0
 20 51  1  0  0  0  0
 21 54  1  0  0  0  0
 21 55  1  0  0  0  0
 21 56  1  0  0  0  0
 23 24  1  0  0  0  0
 24 26  1  0  0  0  0
 24 58  1  0  0  0  0
 24 59  1  0  0  0  0
 25 27  1  0  0  0  0
 25 60  1  0  0  0  0
 25 61  1  0  0  0  0
 26 62  1  0  0  0  0
 26 63  1  0  0  0  0
 27 28  2  0  0  0  0
 28 30  1  0  0  0  0
 28 64  1  0  0  0  0
 29 65  1  0  0  0  0
 29 66  1  0  0  0  0
 29 67  1  0  0  0  0
 30 31  2  0  0  0  0
 30 68  1  0  0  0  0
 31 69  1  0  0  0  0
M  END
> <PUBCHEM_COMPOUND_CID>
45361598

> <PUBCHEM_CONFORMER_RMSD>
1

> <PUBCHEM_CONFORMER_DIVERSEORDER>
1
114
139
214
242
93
143
213
209
203
38
108
215
102
76
192
54
104
135
231
149
198
166
186
106
46
85
190
181
43
178
228
233
126
217
105
66
219
227
16
140
193
168
241
206
230
58
36
238
113
204
45
201
141
152
197
74
220
5
196
37
109
187
56
77
195
32
69
171
27
185
103
229
239
115
62
156
144
235
65
189
210
169
83
146
35
221
12
68
132
158
21
122
155
223
243
182
112
61
234
84
11
92
47
208
180
224
89
63
26
236
73
184
205
107
82
9
24
138
67
101
14
218
130
183
148
124
22
39
212
117
137
211
134
98
87
78
80
179
72
97
70
86
110
163
31
161
94
118
50
119
13
174
176
4
57
199
51
19
95
127
25
128
120
150
172
75
100
6
96
237
3
136
116
133
23
55
177
164
48
121
71
7
52
159
40
99
216
41
59
17
79
53
200
202
225
142
170
154
111
33
30
125
222
194
165
42
64
145
147
151
188
175
49
226
34
2
91
207
160
29
191
28
8
10
129
162
60
240
173
90
44
18
157
232
153
15
123
20
167
88
131
81

> <PUBCHEM_MMFF94_PARTIAL_CHARGES>
26
1 -0.08
11 0.28
15 0.3
19 0.06
2 -0.68
22 0.57
23 0.57
24 0.06
25 0.48
26 0.28
27 -0.14
28 -0.15
29 0.28
3 -0.57
30 -0.15
31 -0.11
4 -0.57
5 -0.56
52 0.37
53 0.4
57 0.37
6 -0.73
64 0.15
68 0.15
69 0.15
7 -0.73

> <PUBCHEM_EFFECTIVE_ROTOR_COUNT>
11.6

> <PUBCHEM_PHARMACOPHORE_FEATURES>
11
1 2 acceptor
1 2 donor
1 21 hydrophobe
1 3 acceptor
1 4 acceptor
1 5 acceptor
1 6 donor
1 7 donor
5 1 27 28 30 31 rings
6 8 9 10 13 15 17 rings
6 8 9 11 12 14 16 rings

> <PUBCHEM_HEAVY_ATOM_COUNT>
31

> <PUBCHEM_ATOM_DEF_STEREO_COUNT>
6

> <PUBCHEM_ATOM_UDEF_STEREO_COUNT>
1

> <PUBCHEM_BOND_DEF_STEREO_COUNT>
0

> <PUBCHEM_BOND_UDEF_STEREO_COUNT>
0

> <PUBCHEM_ISOTOPIC_ATOM_COUNT>
0

> <PUBCHEM_COMPONENT_COUNT>
1

> <PUBCHEM_CACTVS_TAUTO_COUNT>
4

> <PUBCHEM_CONFORMER_ID>
02B429BE00000001

> <PUBCHEM_MMFF94_ENERGY>
75.4059

> <PUBCHEM_FEATURE_SELFOVERLAP>
55.838

> <PUBCHEM_SHAPE_FINGERPRINT>
10554248 39 16200163045391108284
10674148 151 17750255642263564270
11456790 92 17967813882116649224
11578821 258 17703790375278999280
12422481 6 17096372727107864095
12838862 33 18114460064597976733
13257819 101 18060140908001886559
13673619 4 11458432349017362391
13911987 19 16272211872989184871
14767858 380 14405183949967650117
14849402 71 17532387537504841324
14931854 50 13182442311211950213
14950920 106 14780418712197766357
15021287 119 16443354173704591493
15183329 4 13614518537079991332
15238133 3 18188223056049832468
15510800 12 12252176330429338080
17686467 74 17987229122726945323
20511986 3 17749668477347590601
20739085 24 16443929192853808871
20982279 24 13335010536023740016
21033648 29 18130492116239667280
21130935 74 18333448742829161274
21133410 221 18129085883628492401
21267235 1 16081367475778552006
21756936 100 18410008828323370263
21781055 127 17822584828969144286
22288116 15 12895348910811920933
22393880 68 13182451098572223539
2260408 40 17385730149205696586
23522609 53 16951999273625945396
23559900 14 18053692229503598495
23569914 2 17627184057896160561
23576562 1 15984526940625911944
2838139 119 18342737450633834581
3103668 31 14403750285542488981
3178227 256 15357701894565656216
3918712 181 18195523693553990681
4093350 32 18410855426739829210
4403749 210 17917425492807771022
44802255 64 17703790344654383071
484989 97 13973381605215023085
4938544 92 18412263960625852359
5047190 69 18410290293983100856
504843 32 17346595309274408607
5104073 3 17023449851567553304
54039377 194 11527937977258545885
58083652 198 16443343234211736156
6058803 2 16591428848922825006
6086070 43 16486961895404331687
636775 72 18411980290715534760
9981440 41 17969802804493727411
999808 66 12179846108434944265

> <PUBCHEM_SHAPE_MULTIPOLES>
608.38
22.62
3.15
1.89
28.07
1.25
-0.57
22.62
9.31
-5.32
0.4
0.9
-0.32
1.98

> <PUBCHEM_SHAPE_SELFOVERLAP>
1237.573

> <PUBCHEM_SHAPE_VOLUME>
355.8

> <PUBCHEM_COORDINATE_TYPE>
2
5
10

$$$$
