25338851
  -OEChem-12032416383D

 38 40  0     1  0  0  0  0  0999 V2000
   -0.3296    1.4632    1.4518 O   0  0  0  0  0  0  0  0  0  0  0  0
    2.1944    1.6489    0.7331 N   0  0  0  0  0  0  0  0  0  0  0  0
   -1.0748    1.3062   -0.7441 N   0  0  0  0  0  0  0  0  0  0  0  0
    5.0813   -0.6287    0.0855 N   0  0  0  0  0  0  0  0  0  0  0  0
    3.5033   -2.1630   -0.3160 N   0  0  0  0  0  0  0  0  0  0  0  0
    1.2873    0.9137   -0.1747 C   0  0  1  0  0  0  0  0  0  0  0  0
    1.4900   -0.6245   -0.1234 C   0  0  0  0  0  0  0  0  0  0  0  0
    2.9369   -0.9375   -0.1124 C   0  0  0  0  0  0  0  0  0  0  0  0
    3.6209    1.4543    0.3883 C   0  0  0  0  0  0  0  0  0  0  0  0
    3.8867    0.0214    0.1418 C   0  0  0  0  0  0  0  0  0  0  0  0
   -0.1045    1.2520    0.2572 C   0  0  0  0  0  0  0  0  0  0  0  0
   -2.4722    1.6242   -0.4618 C   0  0  0  0  0  0  0  0  0  0  0  0
    4.7981   -1.9438   -0.1927 C   0  0  0  0  0  0  0  0  0  0  0  0
   -0.7646    1.0493   -2.1448 C   0  0  0  0  0  0  0  0  0  0  0  0
   -3.2688    0.3990   -0.1175 C   0  0  0  0  0  0  0  0  0  0  0  0
   -3.9092   -0.3220   -1.1252 C   0  0  0  0  0  0  0  0  0  0  0  0
   -3.3684   -0.0182    1.2097 C   0  0  0  0  0  0  0  0  0  0  0  0
   -4.6494   -1.4604   -0.8057 C   0  0  0  0  0  0  0  0  0  0  0  0
   -4.1085   -1.1564    1.5293 C   0  0  0  0  0  0  0  0  0  0  0  0
   -4.7490   -1.8775    0.5216 C   0  0  0  0  0  0  0  0  0  0  0  0
    1.4914    1.2908   -1.1818 H   0  0  0  0  0  0  0  0  0  0  0  0
    1.0118   -1.1157   -0.9758 H   0  0  0  0  0  0  0  0  0  0  0  0
    1.0326   -1.0419    0.7828 H   0  0  0  0  0  0  0  0  0  0  0  0
    4.2411    1.8330    1.2074 H   0  0  0  0  0  0  0  0  0  0  0  0
    3.8600    2.0407   -0.5059 H   0  0  0  0  0  0  0  0  0  0  0  0
    2.0465    1.3124    1.6861 H   0  0  0  0  0  0  0  0  0  0  0  0
    6.0003   -0.2273    0.2182 H   0  0  0  0  0  0  0  0  0  0  0  0
   -2.9109    2.1644   -1.3097 H   0  0  0  0  0  0  0  0  0  0  0  0
   -2.5027    2.3214    0.3852 H   0  0  0  0  0  0  0  0  0  0  0  0
    5.5789   -2.6844   -0.2913 H   0  0  0  0  0  0  0  0  0  0  0  0
   -0.1457    0.1594   -2.2593 H   0  0  0  0  0  0  0  0  0  0  0  0
   -0.2333    1.9177   -2.5460 H   0  0  0  0  0  0  0  0  0  0  0  0
   -1.6758    0.8996   -2.7301 H   0  0  0  0  0  0  0  0  0  0  0  0
   -3.8461   -0.0066   -2.1629 H   0  0  0  0  0  0  0  0  0  0  0  0
   -2.8794    0.5348    2.0068 H   0  0  0  0  0  0  0  0  0  0  0  0
   -5.1493   -2.0212   -1.5900 H   0  0  0  0  0  0  0  0  0  0  0  0
   -4.1871   -1.4808    2.5628 H   0  0  0  0  0  0  0  0  0  0  0  0
   -5.3258   -2.7636    0.7705 H   0  0  0  0  0  0  0  0  0  0  0  0
  1 11  2  0  0  0  0
  2  6  1  0  0  0  0
  2  9  1  0  0  0  0
  2 26  1  0  0  0  0
  3 11  1  0  0  0  0
  3 12  1  0  0  0  0
  3 14  1  0  0  0  0
  4 10  1  0  0  0  0
  4 13  1  0  0  0  0
  4 27  1  0  0  0  0
  5  8  1  0  0  0  0
  5 13  2  0  0  0  0
  6  7  1  0  0  0  0
  6 11  1  0  0  0  0
  6 21  1  0  0  0  0
  7  8  1  0  0  0  0
  7 22  1  0  0  0  0
  7 23  1  0  0  0  0
  8 10  2  0  0  0  0
  9 10  1  0  0  0  0
  9 24  1  0  0  0  0
  9 25  1  0  0  0  0
 12 15  1  0  0  0  0
 12 28  1  0  0  0  0
 12 29  1  0  0  0  0
 13 30  1  0  0  0  0
 14 31  1  0  0  0  0
 14 32  1  0  0  0  0
 14 33  1  0  0  0  0
 15 16  2  0  0  0  0
 15 17  1  0  0  0  0
 16 18  1  0  0  0  0
 16 34  1  0  0  0  0
 17 19  2  0  0  0  0
 17 35  1  0  0  0  0
 18 20  2  0  0  0  0
 18 36  1  0  0  0  0
 19 20  1  0  0  0  0
 19 37  1  0  0  0  0
 20 38  1  0  0  0  0
M  END
> <PUBCHEM_COMPOUND_CID>
25338851

> <PUBCHEM_CONFORMER_RMSD>
0.6

> <PUBCHEM_CONFORMER_DIVERSEORDER>
9
103
111
53
67
23
117
78
76
60
44
28
17
32
133
138
91
100
46
136
27
99
108
105
98
124
72
68
47
30
24
97
109
20
19
36
57
89
73
18
41
39
88
33
123
7
2
121
75
131
127
51
58
129
6
22
113
65
128
93
114
134
61
21
34
137
101
95
37
56
10
90
125
3
119
120
14
79
40
54
81
48
87
83
77
50
74
49
112
126
12
31
102
15
122
38
55
45
8
116
132
70
71
52
84
130
82
80
85
63
92
64
96
4
59
110
43
35
107
106
26
11
115
69
86
62
94
42
104
25
66
1
29
5
13
118
135
16

> <PUBCHEM_MMFF94_PARTIAL_CHARGES>
28
1 -0.57
10 -0.33
11 0.57
12 0.44
13 0.04
14 0.3
15 -0.14
16 -0.15
17 -0.15
18 -0.15
19 -0.15
2 -0.9
20 -0.15
26 0.36
27 0.27
3 -0.66
30 0.15
34 0.15
35 0.15
36 0.15
37 0.15
38 0.15
4 0.03
5 -0.57
6 0.33
7 0.18
8 0.05
9 0.45

> <PUBCHEM_EFFECTIVE_ROTOR_COUNT>
4.8

> <PUBCHEM_PHARMACOPHORE_FEATURES>
8
1 1 acceptor
1 2 cation
1 2 donor
1 4 donor
3 4 5 13 cation
5 4 5 8 10 13 rings
6 15 16 17 18 19 20 rings
6 2 6 7 8 9 10 rings

> <PUBCHEM_HEAVY_ATOM_COUNT>
20

> <PUBCHEM_ATOM_DEF_STEREO_COUNT>
1

> <PUBCHEM_ATOM_UDEF_STEREO_COUNT>
0

> <PUBCHEM_BOND_DEF_STEREO_COUNT>
0

> <PUBCHEM_BOND_UDEF_STEREO_COUNT>
0

> <PUBCHEM_ISOTOPIC_ATOM_COUNT>
0

> <PUBCHEM_COMPONENT_COUNT>
1

> <PUBCHEM_CACTVS_TAUTO_COUNT>
2

> <PUBCHEM_CONFORMER_ID>
0182A3E300000009

> <PUBCHEM_MMFF94_ENERGY>
48.2334

> <PUBCHEM_FEATURE_SELFOVERLAP>
40.698

> <PUBCHEM_SHAPE_FINGERPRINT>
11405975 8 18339923710337205417
11552529 35 17416396787162052039
11595378 159 15123517973279639250
12363563 72 17967822673407645261
12596602 18 16630522981175149131
12633257 1 17203334463577116807
12670546 177 16370448873027952702
13103583 49 17560814242319720155
13544653 18 18410296925707225317
13583140 156 17988912384207308569
13675066 3 13038913256447000317
13911882 115 18262804089529414808
14123255 352 10375871866194776347
14251757 5 14274890812901623993
14341114 328 16988574540877614083
14386348 63 18186518830417612323
15209294 21 13110963106711452637
15375462 189 17775000227864198904
15880784 105 18201719591456407739
17357779 13 18113893892632495399
17870717 6 17385721409580018119
1813 80 18339377317582593021
18186145 218 15140688007167820925
18785283 64 18267577095661276232
193927 3 17967823777251137683
19862831 5 14779550079871520557
200 152 18343580724586246408
20261772 1 17917706928755080198
20281475 54 18410862074615518769
20871999 31 16660360381558515229
212916 134 14045747027832562765
21673915 165 18340766052039263566
221490 88 18410856542918999232
22393880 68 17968648328924680707
22620623 9 17458893852336618517
231179 274 9295285054194326120
23379529 103 17243318276888422963
23402539 116 16009032739768496364
23402655 69 11458423539954847114
23557571 272 17822557352777014245
23559900 14 18335129904217546573
23598288 3 17489025938009431728
26918003 58 18271523096136014464
27216 239 11312054366465009599
2871803 45 18114174246506716731
3268164 11 16371005152891830300
4028521 119 9799698086558032167
4259306 186 18408037420606179679
4921388 177 17167870751094171377
5104073 3 18271520910335265168
5352402 22 18343589542112023999
59755656 520 18120366559226142557
7495541 125 18335137579840478044
9709674 26 18261113014765334641
999808 66 17129874820758371230

> <PUBCHEM_SHAPE_MULTIPOLES>
385.8
11.37
2.16
1.32
1.41
0.41
0.17
7.35
-0.56
0.55
0.03
-1.28
-0.25
0.97

> <PUBCHEM_SHAPE_SELFOVERLAP>
828.725

> <PUBCHEM_SHAPE_VOLUME>
213

> <PUBCHEM_COORDINATE_TYPE>
2
5
10

$$$$
