45783776
  -OEChem-12032416203D

 48 51  0     1  0  0  0  0  0999 V2000
   -1.4634   -1.6227    2.0016 O   0  0  0  0  0  0  0  0  0  0  0  0
    1.7152    3.9951    1.2561 O   0  5  0  0  0  0  0  0  0  0  0  0
    2.1751    3.4608   -0.8229 O   0  0  0  0  0  0  0  0  0  0  0  0
   -3.6328   -0.3975   -0.6998 N   0  0  1  0  0  0  0  0  0  0  0  0
   -0.8273   -1.2292   -0.1097 N   0  0  0  0  0  0  0  0  0  0  0  0
   -0.0633   -1.6619    2.0029 N   0  0  0  0  0  0  0  0  0  0  0  0
    1.3988    3.4666    0.1629 N   0  3  0  0  0  0  0  0  0  0  0  0
    3.9536   -1.5239    0.7151 N   0  0  0  0  0  0  0  0  0  0  0  0
    5.5222   -1.2265   -1.0530 N   0  0  0  0  0  0  0  0  0  0  0  0
   -3.3185   -1.2686    0.4503 C   0  0  1  0  0  0  0  0  0  0  0  0
   -3.9457   -2.6289    0.0937 C   0  0  0  0  0  0  0  0  0  0  0  0
   -4.6409   -2.4083   -1.2423 C   0  0  0  0  0  0  0  0  0  0  0  0
   -4.8734   -0.9114   -1.2806 C   0  0  0  0  0  0  0  0  0  0  0  0
   -3.7374    1.0112   -0.3418 C   0  0  0  0  0  0  0  0  0  0  0  0
   -1.8313   -1.3632    0.7196 C   0  0  0  0  0  0  0  0  0  0  0  0
   -2.3842    1.6577   -0.2082 C   0  0  0  0  0  0  0  0  0  0  0  0
   -2.0100    2.2511    0.9975 C   0  0  0  0  0  0  0  0  0  0  0  0
   -1.5047    1.6633   -1.2909 C   0  0  0  0  0  0  0  0  0  0  0  0
    0.2366   -1.4208    0.7232 C   0  0  0  0  0  0  0  0  0  0  0  0
   -0.7566    2.8503    1.1204 C   0  0  0  0  0  0  0  0  0  0  0  0
   -0.2511    2.2626   -1.1679 C   0  0  0  0  0  0  0  0  0  0  0  0
    1.5876   -1.3662    0.2442 C   0  0  0  0  0  0  0  0  0  0  0  0
    0.1229    2.8561    0.0377 C   0  0  0  0  0  0  0  0  0  0  0  0
    1.8634   -1.1144   -1.0952 C   0  0  0  0  0  0  0  0  0  0  0  0
    2.6585   -1.5623    1.1012 C   0  0  0  0  0  0  0  0  0  0  0  0
    3.1833   -1.0671   -1.5304 C   0  0  0  0  0  0  0  0  0  0  0  0
    4.1828   -1.2766   -0.5940 C   0  0  0  0  0  0  0  0  0  0  0  0
    6.6405   -1.4253   -0.1894 C   0  0  0  0  0  0  0  0  0  0  0  0
   -3.8131   -0.9037    1.3615 H   0  0  0  0  0  0  0  0  0  0  0  0
   -3.2199   -3.4464    0.0242 H   0  0  0  0  0  0  0  0  0  0  0  0
   -4.6887   -2.9024    0.8527 H   0  0  0  0  0  0  0  0  0  0  0  0
   -5.5701   -2.9797   -1.3245 H   0  0  0  0  0  0  0  0  0  0  0  0
   -3.9787   -2.7139   -2.0619 H   0  0  0  0  0  0  0  0  0  0  0  0
   -5.0289   -0.5547   -2.3035 H   0  0  0  0  0  0  0  0  0  0  0  0
   -5.7479   -0.6465   -0.6727 H   0  0  0  0  0  0  0  0  0  0  0  0
   -4.2584    1.5607   -1.1386 H   0  0  0  0  0  0  0  0  0  0  0  0
   -4.3449    1.1574    0.5610 H   0  0  0  0  0  0  0  0  0  0  0  0
   -2.6845    2.2519    1.8495 H   0  0  0  0  0  0  0  0  0  0  0  0
   -1.7838    1.2088   -2.2379 H   0  0  0  0  0  0  0  0  0  0  0  0
   -0.4987    3.3019    2.0749 H   0  0  0  0  0  0  0  0  0  0  0  0
    0.4082    2.2476   -2.0321 H   0  0  0  0  0  0  0  0  0  0  0  0
    1.0710   -0.9512   -1.8210 H   0  0  0  0  0  0  0  0  0  0  0  0
    2.5290   -1.7636    2.1605 H   0  0  0  0  0  0  0  0  0  0  0  0
    3.4050   -0.8714   -2.5745 H   0  0  0  0  0  0  0  0  0  0  0  0
    5.6825   -0.8190   -1.9679 H   0  0  0  0  0  0  0  0  0  0  0  0
    6.6150   -2.4187    0.2702 H   0  0  0  0  0  0  0  0  0  0  0  0
    7.5711   -1.3480   -0.7603 H   0  0  0  0  0  0  0  0  0  0  0  0
    6.6707   -0.6687    0.6014 H   0  0  0  0  0  0  0  0  0  0  0  0
  1  6  1  0  0  0  0
  1 15  1  0  0  0  0
  2  7  1  0  0  0  0
  3  7  2  0  0  0  0
  4 10  1  0  0  0  0
  4 13  1  0  0  0  0
  4 14  1  0  0  0  0
  5 15  2  0  0  0  0
  5 19  1  0  0  0  0
  6 19  2  0  0  0  0
  7 23  1  0  0  0  0
  8 25  1  0  0  0  0
  8 27  2  0  0  0  0
  9 27  1  0  0  0  0
  9 28  1  0  0  0  0
  9 45  1  0  0  0  0
 10 11  1  0  0  0  0
 10 15  1  0  0  0  0
 10 29  1  0  0  0  0
 11 12  1  0  0  0  0
 11 30  1  0  0  0  0
 11 31  1  0  0  0  0
 12 13  1  0  0  0  0
 12 32  1  0  0  0  0
 12 33  1  0  0  0  0
 13 34  1  0  0  0  0
 13 35  1  0  0  0  0
 14 16  1  0  0  0  0
 14 36  1  0  0  0  0
 14 37  1  0  0  0  0
 16 17  2  0  0  0  0
 16 18  1  0  0  0  0
 17 20  1  0  0  0  0
 17 38  1  0  0  0  0
 18 21  2  0  0  0  0
 18 39  1  0  0  0  0
 19 22  1  0  0  0  0
 20 23  2  0  0  0  0
 20 40  1  0  0  0  0
 21 23  1  0  0  0  0
 21 41  1  0  0  0  0
 22 24  1  0  0  0  0
 22 25  2  0  0  0  0
 24 26  2  0  0  0  0
 24 42  1  0  0  0  0
 25 43  1  0  0  0  0
 26 27  1  0  0  0  0
 26 44  1  0  0  0  0
 28 46  1  0  0  0  0
 28 47  1  0  0  0  0
 28 48  1  0  0  0  0
M  CHG  2   2  -1   7   1
M  END
> <PUBCHEM_COMPOUND_CID>
45783776

> <PUBCHEM_CONFORMER_RMSD>
0.8

> <PUBCHEM_CONFORMER_DIVERSEORDER>
1
57
45
62
21
19
23
24
18
31
48
30
35
15
73
7
8
53
82
3
56
78
72
25
42
66
26
67
47
2
38
84
74
71
36
49
83
50
16
4
81
41
12
33
76
44
69
43
37
32
11
20
55
17
54
5
63
60
29
58
61
40
70
51
52
77
22
65
34
46
80
10
79
28
13
27
68
64
59
14
9
6
75
39

> <PUBCHEM_MMFF94_PARTIAL_CHARGES>
34
1 -0.02
10 0.45
13 0.27
14 0.41
15 0.3
16 -0.14
17 -0.15
18 -0.15
19 0.46
2 -0.52
20 -0.15
21 -0.15
22 0.05
23 0.13
24 -0.15
25 0.16
26 -0.15
27 0.41
28 0.37
3 -0.52
38 0.15
39 0.15
4 -0.81
40 0.15
41 0.15
42 0.15
43 0.15
44 0.15
45 0.4
5 -0.57
6 -0.41
7 0.91
8 -0.62
9 -0.87

> <PUBCHEM_EFFECTIVE_ROTOR_COUNT>
7

> <PUBCHEM_PHARMACOPHORE_FEATURES>
11
1 2 acceptor
1 2 anion
1 3 acceptor
1 4 cation
1 9 donor
3 5 6 19 cation
3 8 9 27 cation
5 1 5 6 15 19 rings
5 4 10 11 12 13 rings
6 16 17 18 20 21 23 rings
6 8 22 24 25 26 27 rings

> <PUBCHEM_HEAVY_ATOM_COUNT>
28

> <PUBCHEM_ATOM_DEF_STEREO_COUNT>
1

> <PUBCHEM_ATOM_UDEF_STEREO_COUNT>
0

> <PUBCHEM_BOND_DEF_STEREO_COUNT>
0

> <PUBCHEM_BOND_UDEF_STEREO_COUNT>
0

> <PUBCHEM_ISOTOPIC_ATOM_COUNT>
0

> <PUBCHEM_COMPONENT_COUNT>
1

> <PUBCHEM_CACTVS_TAUTO_COUNT>
8

> <PUBCHEM_CONFORMER_ID>
02BA9AE000000001

> <PUBCHEM_MMFF94_ENERGY>
70.8555

> <PUBCHEM_FEATURE_SELFOVERLAP>
55.903

> <PUBCHEM_SHAPE_FINGERPRINT>
1100329 8 18339645538723082233
12156800 1 15505984179865597980
12166972 35 17749395887967106286
12596599 1 18201164230499208137
12788726 201 18190178975487225290
133893 2 18122084236225616137
13402501 40 18191579951260332584
13761468 95 17467090548270538782
14787075 74 18333733494564374172
14790565 3 17691121531409606353
14910302 57 17844246220536420398
14955137 171 18196114165741156273
16090146 7 17846224333288312299
17492 54 18042955481541804949
17818456 19 17831002538718938050
19319366 153 17534905178734916643
20642791 239 18188479169693318813
20642791 35 18335687335702066205
20691752 17 17531514478116851485
20775438 99 17546986977373900455
20905425 154 18194403518584267853
21344244 246 17980753063162791975
21623110 236 18337122219482313856
23402539 116 18409731737965592934
23419403 2 18118094043950953157
23557571 272 18272369720100126910
23559900 14 18340194280560217121
238918 7 17616528901211265456
3298306 158 17905606962257890453
392239 28 18338239263445887976
4280585 95 18409719647626736588
5171179 24 18341604957962859048
59755656 215 17615677871460585407
7471813 234 18412263977800369198

> <PUBCHEM_SHAPE_MULTIPOLES>
528.73
9.95
4.46
1.53
9.92
5.12
0.22
-8.69
-3.57
-0.36
0.66
-0.1
-0.25
-0.14

> <PUBCHEM_SHAPE_SELFOVERLAP>
1148.594

> <PUBCHEM_SHAPE_VOLUME>
290.4

> <PUBCHEM_COORDINATE_TYPE>
2
5
10

$$$$
