38030138
  -OEChem-12032416343D

 49 49  0     1  0  0  0  0  0999 V2000
   -5.3402   -0.2079    1.4601 O   0  0  0  0  0  0  0  0  0  0  0  0
    1.7597   -0.4147   -1.5300 O   0  0  0  0  0  0  0  0  0  0  0  0
    2.6784   -1.0819    0.4924 N   0  0  0  0  0  0  0  0  0  0  0  0
    6.9328    1.2281   -0.0735 N   0  0  0  0  0  0  0  0  0  0  0  0
   -2.0368    0.9971    0.1151 C   0  0  2  0  0  0  0  0  0  0  0  0
   -1.1671    0.4850   -1.0431 C   0  0  0  0  0  0  0  0  0  0  0  0
   -3.3774    0.2226    0.1681 C   0  0  1  0  0  0  0  0  0  0  0  0
   -0.8574   -1.0188   -0.9184 C   0  0  2  0  0  0  0  0  0  0  0  0
   -2.2570    2.5062   -0.0296 C   0  0  0  0  0  0  0  0  0  0  0  0
   -2.0997   -1.8247   -0.5973 C   0  0  0  0  0  0  0  0  0  0  0  0
   -3.2208   -1.2510   -0.1253 C   0  0  0  0  0  0  0  0  0  0  0  0
    0.2438   -1.2719    0.1171 C   0  0  0  0  0  0  0  0  0  0  0  0
   -4.0669    0.4026    1.5254 C   0  0  0  0  0  0  0  0  0  0  0  0
   -1.0533    3.2736    0.5077 C   0  0  0  0  0  0  0  0  0  0  0  0
   -2.5223    2.8677   -1.4875 C   0  0  0  0  0  0  0  0  0  0  0  0
   -2.0393   -3.3012   -0.8744 C   0  0  0  0  0  0  0  0  0  0  0  0
    1.6170   -0.8799   -0.3962 C   0  0  0  0  0  0  0  0  0  0  0  0
    4.0605   -0.7554    0.1491 C   0  0  0  0  0  0  0  0  0  0  0  0
    2.4853   -1.6333    1.8281 C   0  0  0  0  0  0  0  0  0  0  0  0
    4.4311    0.6747    0.5228 C   0  0  0  0  0  0  0  0  0  0  0  0
    5.8295    0.9831    0.1893 C   0  0  0  0  0  0  0  0  0  0  0  0
   -1.5131    0.8152    1.0627 H   0  0  0  0  0  0  0  0  0  0  0  0
   -0.2397    1.0604   -1.1209 H   0  0  0  0  0  0  0  0  0  0  0  0
   -1.6903    0.6006   -2.0012 H   0  0  0  0  0  0  0  0  0  0  0  0
   -4.0580    0.6009   -0.6060 H   0  0  0  0  0  0  0  0  0  0  0  0
   -0.5055   -1.3505   -1.9054 H   0  0  0  0  0  0  0  0  0  0  0  0
   -3.1232    2.8248    0.5594 H   0  0  0  0  0  0  0  0  0  0  0  0
   -4.0930   -1.8811    0.0348 H   0  0  0  0  0  0  0  0  0  0  0  0
    0.2911   -2.3413    0.3520 H   0  0  0  0  0  0  0  0  0  0  0  0
    0.0329   -0.7233    1.0401 H   0  0  0  0  0  0  0  0  0  0  0  0
   -4.2150    1.4556    1.7768 H   0  0  0  0  0  0  0  0  0  0  0  0
   -3.4918   -0.0688    2.3304 H   0  0  0  0  0  0  0  0  0  0  0  0
   -0.1363    3.0514   -0.0467 H   0  0  0  0  0  0  0  0  0  0  0  0
   -0.8773    3.0374    1.5626 H   0  0  0  0  0  0  0  0  0  0  0  0
   -1.2260    4.3533    0.4376 H   0  0  0  0  0  0  0  0  0  0  0  0
   -1.6265    2.8114   -2.1150 H   0  0  0  0  0  0  0  0  0  0  0  0
   -2.8594    3.9102   -1.5437 H   0  0  0  0  0  0  0  0  0  0  0  0
   -3.3160    2.2624   -1.9353 H   0  0  0  0  0  0  0  0  0  0  0  0
   -1.7450   -3.4811   -1.9136 H   0  0  0  0  0  0  0  0  0  0  0  0
   -3.0085   -3.7881   -0.7212 H   0  0  0  0  0  0  0  0  0  0  0  0
   -1.3184   -3.7959   -0.2175 H   0  0  0  0  0  0  0  0  0  0  0  0
   -5.7594   -0.0933    2.3299 H   0  0  0  0  0  0  0  0  0  0  0  0
    4.1826   -0.8872   -0.9335 H   0  0  0  0  0  0  0  0  0  0  0  0
    4.7285   -1.4795    0.6313 H   0  0  0  0  0  0  0  0  0  0  0  0
    3.0507   -2.5682    1.8977 H   0  0  0  0  0  0  0  0  0  0  0  0
    1.4533   -1.8472    2.0987 H   0  0  0  0  0  0  0  0  0  0  0  0
    2.8842   -0.9238    2.5596 H   0  0  0  0  0  0  0  0  0  0  0  0
    3.7674    1.3776    0.0051 H   0  0  0  0  0  0  0  0  0  0  0  0
    4.2730    0.8346    1.5957 H   0  0  0  0  0  0  0  0  0  0  0  0
  1 13  1  0  0  0  0
  1 42  1  0  0  0  0
  2 17  2  0  0  0  0
  3 17  1  0  0  0  0
  3 18  1  0  0  0  0
  3 19  1  0  0  0  0
  4 21  3  0  0  0  0
  5  6  1  0  0  0  0
  5  7  1  0  0  0  0
  5  9  1  0  0  0  0
  5 22  1  0  0  0  0
  6  8  1  0  0  0  0
  6 23  1  0  0  0  0
  6 24  1  0  0  0  0
  7 11  1  0  0  0  0
  7 13  1  0  0  0  0
  7 25  1  0  0  0  0
  8 10  1  0  0  0  0
  8 12  1  0  0  0  0
  8 26  1  0  0  0  0
  9 14  1  0  0  0  0
  9 15  1  0  0  0  0
  9 27  1  0  0  0  0
 10 11  2  0  0  0  0
 10 16  1  0  0  0  0
 11 28  1  0  0  0  0
 12 17  1  0  0  0  0
 12 29  1  0  0  0  0
 12 30  1  0  0  0  0
 13 31  1  0  0  0  0
 13 32  1  0  0  0  0
 14 33  1  0  0  0  0
 14 34  1  0  0  0  0
 14 35  1  0  0  0  0
 15 36  1  0  0  0  0
 15 37  1  0  0  0  0
 15 38  1  0  0  0  0
 16 39  1  0  0  0  0
 16 40  1  0  0  0  0
 16 41  1  0  0  0  0
 18 20  1  0  0  0  0
 18 43  1  0  0  0  0
 18 44  1  0  0  0  0
 19 45  1  0  0  0  0
 19 46  1  0  0  0  0
 19 47  1  0  0  0  0
 20 21  1  0  0  0  0
 20 48  1  0  0  0  0
 20 49  1  0  0  0  0
M  END
> <PUBCHEM_COMPOUND_CID>
38030138

> <PUBCHEM_CONFORMER_RMSD>
1

> <PUBCHEM_CONFORMER_DIVERSEORDER>
1
93
97
8
40
134
37
90
155
60
72
156
122
20
159
55
80
102
153
69
76
75
74
121
98
58
52
123
16
41
78
115
49
138
117
157
28
45
27
44
99
19
22
54
158
119
136
50
83
9
66
89
152
148
112
71
149
106
100
5
68
70
53
150
63
163
33
14
85
144
164
116
107
59
36
26
61
31
133
62
87
101
65
96
146
114
48
140
154
47
39
130
165
79
67
145
43
15
23
51
118
13
92
18
25
127
143
4
128
24
160
73
29
126
147
120
142
12
64
30
151
86
81
125
42
161
108
124
38
11
162
110
109
34
6
94
95
104
88
129
3
84
139
32
132
7
113
17
46
91
56
35
10
141
105
77
2
131
111
135
137
21
103
82
57

> <PUBCHEM_MMFF94_PARTIAL_CHARGES>
18
1 -0.68
10 -0.28
11 -0.29
12 0.06
13 0.28
16 0.14
17 0.57
18 0.3
19 0.3
2 -0.57
20 0.2
21 0.36
28 0.15
3 -0.66
4 -0.56
42 0.4
7 0.14
8 0.14

> <PUBCHEM_EFFECTIVE_ROTOR_COUNT>
7.8

> <PUBCHEM_PHARMACOPHORE_FEATURES>
6
1 1 acceptor
1 1 donor
1 2 acceptor
1 4 acceptor
3 9 14 15 hydrophobe
6 5 6 7 8 10 11 rings

> <PUBCHEM_HEAVY_ATOM_COUNT>
21

> <PUBCHEM_ATOM_DEF_STEREO_COUNT>
3

> <PUBCHEM_ATOM_UDEF_STEREO_COUNT>
0

> <PUBCHEM_BOND_DEF_STEREO_COUNT>
0

> <PUBCHEM_BOND_UDEF_STEREO_COUNT>
0

> <PUBCHEM_ISOTOPIC_ATOM_COUNT>
0

> <PUBCHEM_COMPONENT_COUNT>
1

> <PUBCHEM_CACTVS_TAUTO_COUNT>
1

> <PUBCHEM_CONFORMER_ID>
02444B3A00000001

> <PUBCHEM_MMFF94_ENERGY>
42.9053

> <PUBCHEM_FEATURE_SELFOVERLAP>
30.446

> <PUBCHEM_SHAPE_FINGERPRINT>
10366900 7 17774989202698857306
106641 1 18339934809197116003
11595378 159 18114453492569422312
12107183 9 17832129542938329666
12390115 104 18129957662624511400
12403814 3 18410293597360733193
12596602 18 17312819381848054880
12892183 10 17895195437472412906
13140716 1 18266186208845331363
13583140 156 17531519901990633533
13897977 58 18413107281538165230
13965767 371 17466234032707313708
13994607 96 18272356543119468261
14341114 176 18409170991809727550
14341114 328 18409728478422349922
20510252 161 18270680853391854811
20645477 56 18343584031885293582
21304303 172 17772470338336909343
21652331 79 18411136926815826256
23557571 272 17988085603213448470
23559900 14 17836644124063982550
23598288 3 18262784178035189291
2748010 2 17762632689937921239
392239 28 17968672616917150640
5104073 3 17750508486713368880
7808743 9 18342454842212596994
81228 2 18129930287173100767
9981440 41 17763722327251156841

> <PUBCHEM_SHAPE_MULTIPOLES>
410.47
11.08
3.24
1.36
18.95
1.11
0.22
3.58
3.01
-2.61
-0.67
-0.78
-0.1
-0.36

> <PUBCHEM_SHAPE_SELFOVERLAP>
810.816

> <PUBCHEM_SHAPE_VOLUME>
242.4

> <PUBCHEM_COORDINATE_TYPE>
2
5
10

$$$$
