38029461
  -OEChem-12032416203D

 62 63  0     1  0  0  0  0  0999 V2000
    2.6072    1.9449   -0.0533 O   0  0  0  0  0  0  0  0  0  0  0  0
   -3.7905   -1.6128    1.3833 O   0  0  0  0  0  0  0  0  0  0  0  0
   -3.4664   -0.4021   -0.5735 N   0  0  0  0  0  0  0  0  0  0  0  0
    2.7991   -0.3308   -0.6031 N   0  0  0  0  0  0  0  0  0  0  0  0
   -2.8965   -2.6420   -0.4943 N   0  0  0  0  0  0  0  0  0  0  0  0
    4.5428   -1.9248   -0.3308 N   0  0  0  0  0  0  0  0  0  0  0  0
   -1.6978    1.6181    0.7809 C   0  0  1  0  0  0  0  0  0  0  0  0
   -2.8667    1.9302   -0.1866 C   0  0  1  0  0  0  0  0  0  0  0  0
   -0.4523    2.4315    0.3970 C   0  0  0  0  0  0  0  0  0  0  0  0
    0.0137    2.1392   -1.0418 C   0  0  2  0  0  0  0  0  0  0  0  0
   -2.0742    1.9028    2.2383 C   0  0  0  0  0  0  0  0  0  0  0  0
   -1.1401    2.1647   -2.0235 C   0  0  0  0  0  0  0  0  0  0  0  0
   -2.4211    2.0837   -1.6220 C   0  0  0  0  0  0  0  0  0  0  0  0
   -3.9564    0.8553   -0.1024 C   0  0  0  0  0  0  0  0  0  0  0  0
    0.7697    0.8081   -1.1179 C   0  0  0  0  0  0  0  0  0  0  0  0
   -1.9292    3.3900    2.5444 C   0  0  0  0  0  0  0  0  0  0  0  0
   -1.2137    1.0695    3.1827 C   0  0  0  0  0  0  0  0  0  0  0  0
   -0.7898    2.3316   -3.4760 C   0  0  0  0  0  0  0  0  0  0  0  0
    2.1607    0.9035   -0.5231 C   0  0  0  0  0  0  0  0  0  0  0  0
   -3.4173   -1.5608    0.2121 C   0  0  0  0  0  0  0  0  0  0  0  0
    4.1030   -0.6579   -0.1607 C   0  0  0  0  0  0  0  0  0  0  0  0
   -2.7393   -3.9542    0.0875 C   0  0  0  0  0  0  0  0  0  0  0  0
   -1.5354   -4.6620   -0.5203 C   0  0  0  0  0  0  0  0  0  0  0  0
   -4.0107   -4.7745   -0.0920 C   0  0  0  0  0  0  0  0  0  0  0  0
    4.8514    0.3512    0.4235 C   0  0  0  0  0  0  0  0  0  0  0  0
    6.1340    0.0399    0.8612 C   0  0  0  0  0  0  0  0  0  0  0  0
    5.7941   -2.1900    0.1069 C   0  0  0  0  0  0  0  0  0  0  0  0
    6.6219   -1.2525    0.7035 C   0  0  0  0  0  0  0  0  0  0  0  0
   -1.4459    0.5547    0.6965 H   0  0  0  0  0  0  0  0  0  0  0  0
   -3.3294    2.8850    0.0932 H   0  0  0  0  0  0  0  0  0  0  0  0
    0.3644    2.2575    1.1044 H   0  0  0  0  0  0  0  0  0  0  0  0
   -0.6685    3.5073    0.4249 H   0  0  0  0  0  0  0  0  0  0  0  0
    0.6955    2.9542   -1.3231 H   0  0  0  0  0  0  0  0  0  0  0  0
   -3.1146    1.6183    2.4265 H   0  0  0  0  0  0  0  0  0  0  0  0
   -3.2109    2.1546   -2.3674 H   0  0  0  0  0  0  0  0  0  0  0  0
   -4.8021    1.1234   -0.7474 H   0  0  0  0  0  0  0  0  0  0  0  0
   -4.3562    0.7561    0.9102 H   0  0  0  0  0  0  0  0  0  0  0  0
    0.9034    0.4988   -2.1618 H   0  0  0  0  0  0  0  0  0  0  0  0
    0.2235    0.0010   -0.6169 H   0  0  0  0  0  0  0  0  0  0  0  0
   -2.3771    3.6006    3.5236 H   0  0  0  0  0  0  0  0  0  0  0  0
   -2.4536    4.0234    1.8229 H   0  0  0  0  0  0  0  0  0  0  0  0
   -0.8859    3.7143    2.6195 H   0  0  0  0  0  0  0  0  0  0  0  0
   -1.3384   -0.0006    2.9844 H   0  0  0  0  0  0  0  0  0  0  0  0
   -1.5070    1.2465    4.2234 H   0  0  0  0  0  0  0  0  0  0  0  0
   -0.1492    1.3084    3.0965 H   0  0  0  0  0  0  0  0  0  0  0  0
   -0.1739    3.2256   -3.6181 H   0  0  0  0  0  0  0  0  0  0  0  0
   -1.6807    2.4458   -4.1028 H   0  0  0  0  0  0  0  0  0  0  0  0
   -0.2372    1.4647   -3.8491 H   0  0  0  0  0  0  0  0  0  0  0  0
   -3.1972   -0.4824   -1.5494 H   0  0  0  0  0  0  0  0  0  0  0  0
    2.2954   -1.1080   -1.0235 H   0  0  0  0  0  0  0  0  0  0  0  0
   -2.6842   -2.5175   -1.4796 H   0  0  0  0  0  0  0  0  0  0  0  0
   -2.5598   -3.8310    1.1624 H   0  0  0  0  0  0  0  0  0  0  0  0
   -1.3848   -5.6442   -0.0605 H   0  0  0  0  0  0  0  0  0  0  0  0
   -0.6232   -4.0740   -0.3702 H   0  0  0  0  0  0  0  0  0  0  0  0
   -1.6605   -4.8058   -1.5994 H   0  0  0  0  0  0  0  0  0  0  0  0
   -3.9057   -5.7643    0.3641 H   0  0  0  0  0  0  0  0  0  0  0  0
   -4.8675   -4.2769    0.3753 H   0  0  0  0  0  0  0  0  0  0  0  0
   -4.2484   -4.9105   -1.1530 H   0  0  0  0  0  0  0  0  0  0  0  0
    4.5432    1.3718    0.5796 H   0  0  0  0  0  0  0  0  0  0  0  0
    6.7537    0.8020    1.3246 H   0  0  0  0  0  0  0  0  0  0  0  0
    6.1273   -3.2122   -0.0392 H   0  0  0  0  0  0  0  0  0  0  0  0
    7.6185   -1.5177    1.0371 H   0  0  0  0  0  0  0  0  0  0  0  0
  1 19  2  0  0  0  0
  2 20  2  0  0  0  0
  3 14  1  0  0  0  0
  3 20  1  0  0  0  0
  3 49  1  0  0  0  0
  4 19  1  0  0  0  0
  4 21  1  0  0  0  0
  4 50  1  0  0  0  0
  5 20  1  0  0  0  0
  5 22  1  0  0  0  0
  5 51  1  0  0  0  0
  6 21  1  0  0  0  0
  6 27  2  0  0  0  0
  7  8  1  0  0  0  0
  7  9  1  0  0  0  0
  7 11  1  0  0  0  0
  7 29  1  0  0  0  0
  8 13  1  0  0  0  0
  8 14  1  0  0  0  0
  8 30  1  0  0  0  0
  9 10  1  0  0  0  0
  9 31  1  0  0  0  0
  9 32  1  0  0  0  0
 10 12  1  0  0  0  0
 10 15  1  0  0  0  0
 10 33  1  0  0  0  0
 11 16  1  0  0  0  0
 11 17  1  0  0  0  0
 11 34  1  0  0  0  0
 12 13  2  0  0  0  0
 12 18  1  0  0  0  0
 13 35  1  0  0  0  0
 14 36  1  0  0  0  0
 14 37  1  0  0  0  0
 15 19  1  0  0  0  0
 15 38  1  0  0  0  0
 15 39  1  0  0  0  0
 16 40  1  0  0  0  0
 16 41  1  0  0  0  0
 16 42  1  0  0  0  0
 17 43  1  0  0  0  0
 17 44  1  0  0  0  0
 17 45  1  0  0  0  0
 18 46  1  0  0  0  0
 18 47  1  0  0  0  0
 18 48  1  0  0  0  0
 21 25  2  0  0  0  0
 22 23  1  0  0  0  0
 22 24  1  0  0  0  0
 22 52  1  0  0  0  0
 23 53  1  0  0  0  0
 23 54  1  0  0  0  0
 23 55  1  0  0  0  0
 24 56  1  0  0  0  0
 24 57  1  0  0  0  0
 24 58  1  0  0  0  0
 25 26  1  0  0  0  0
 25 59  1  0  0  0  0
 26 28  2  0  0  0  0
 26 60  1  0  0  0  0
 27 28  1  0  0  0  0
 27 61  1  0  0  0  0
 28 62  1  0  0  0  0
M  END
> <PUBCHEM_COMPOUND_CID>
38029461

> <PUBCHEM_CONFORMER_RMSD>
1

> <PUBCHEM_CONFORMER_DIVERSEORDER>
1
121
47
139
80
3
211
24
150
44
127
154
170
200
113
69
102
183
195
216
103
76
146
169
212
99
83
137
35
97
117
194
136
122
22
217
53
41
50
184
152
159
15
87
167
58
181
63
29
178
114
171
11
187
161
202
91
46
108
176
145
30
141
28
125
109
157
177
131
59
93
155
90
172
7
72
62
61
215
110
115
134
160
174
98
133
104
193
8
206
156
55
166
205
75
208
2
85
118
164
158
49
6
132
116
78
33
67
192
25
51
84
112
204
186
32
153
38
111
124
149
189
20
190
196
73
82
26
23
96
142
138
81
126
123
10
143
201
140
173
4
213
34
168
42
101
71
43
214
79
45
16
54
37
148
188
77
151
21
207
197
135
65
210
147
165
60
14
18
106
48
86
107
56
57
92
185
74
162
175
31
39
105
129
199
17
13
191
130
180
9
64
120
52
36
40
163
88
27
182
144
209
128
68
95
100
12
119
19
66
89
5
94
179
198
203
70

> <PUBCHEM_MMFF94_PARTIAL_CHARGES>
29
1 -0.57
10 0.14
12 -0.28
13 -0.29
14 0.3
15 0.06
18 0.14
19 0.57
2 -0.57
20 0.69
21 0.43
22 0.3
25 -0.15
26 -0.15
27 0.16
28 -0.15
3 -0.73
35 0.15
4 -0.55
49 0.37
5 -0.73
50 0.37
51 0.37
59 0.15
6 -0.62
60 0.15
61 0.15
62 0.15
8 0.14

> <PUBCHEM_EFFECTIVE_ROTOR_COUNT>
10.8

> <PUBCHEM_PHARMACOPHORE_FEATURES>
10
1 1 acceptor
1 2 acceptor
1 3 donor
1 4 donor
1 5 donor
1 6 acceptor
3 11 16 17 hydrophobe
3 22 23 24 hydrophobe
6 6 21 25 26 27 28 rings
6 7 8 9 10 12 13 rings

> <PUBCHEM_HEAVY_ATOM_COUNT>
28

> <PUBCHEM_ATOM_DEF_STEREO_COUNT>
3

> <PUBCHEM_ATOM_UDEF_STEREO_COUNT>
0

> <PUBCHEM_BOND_DEF_STEREO_COUNT>
0

> <PUBCHEM_BOND_UDEF_STEREO_COUNT>
0

> <PUBCHEM_ISOTOPIC_ATOM_COUNT>
0

> <PUBCHEM_COMPONENT_COUNT>
1

> <PUBCHEM_CACTVS_TAUTO_COUNT>
9

> <PUBCHEM_CONFORMER_ID>
0244489500000001

> <PUBCHEM_MMFF94_ENERGY>
60.2061

> <PUBCHEM_FEATURE_SELFOVERLAP>
50.794

> <PUBCHEM_SHAPE_FINGERPRINT>
10305334 12 17124803764790825616
11069576 57 17468755651151478735
11285246 1 17751357519558594427
11552529 35 18342737416716941554
12523318 42 18412540994521801168
12969540 37 17834109032560325789
14020679 6 16694454931070340878
14674994 50 18408321082005970287
14856354 85 18201731604954773076
14950920 106 18059860596845515648
15361156 5 17458637683571180676
15799311 1 18266477412471743526
20775530 9 17980493578487364503
21049683 118 16408491804135997025
229767 44 18410864256612282371
376196 1 15620614674915802273
484985 159 18339923705962506089
5080951 261 17896017902572363888
531348 171 17388529416121570690

> <PUBCHEM_SHAPE_MULTIPOLES>
544.56
11.74
5.59
2.4
25.69
8.23
-0.22
9.05
-2.72
-8.06
0.27
-2.08
-3.11
-0.51

> <PUBCHEM_SHAPE_SELFOVERLAP>
1109.433

> <PUBCHEM_SHAPE_VOLUME>
313.9

> <PUBCHEM_COORDINATE_TYPE>
2
5
10

$$$$
