75368506
  -OEChem-12032416383D

 49 52  0     1  0  0  0  0  0999 V2000
   -6.2880    2.4297    0.1711 O   0  0  0  0  0  0  0  0  0  0  0  0
   -3.4514   -2.6072   -0.0965 O   0  0  0  0  0  0  0  0  0  0  0  0
    3.4409   -2.1027   -0.1851 O   0  0  0  0  0  0  0  0  0  0  0  0
   -3.1123   -0.2737   -0.1260 N   0  0  0  0  0  0  0  0  0  0  0  0
   -1.3215   -1.6260   -0.2457 N   0  0  0  0  0  0  0  0  0  0  0  0
    1.3693   -1.2102    0.3130 N   0  0  0  0  0  0  0  0  0  0  0  0
    3.1497    0.1943   -0.3317 N   0  0  0  0  0  0  0  0  0  0  0  0
   -0.7814   -0.2857   -0.4086 C   0  0  1  0  0  0  0  0  0  0  0  0
   -1.9697    0.6229   -0.1052 C   0  0  0  0  0  0  0  0  0  0  0  0
   -4.4638    0.2091    0.0104 C   0  0  0  0  0  0  0  0  0  0  0  0
    0.4225   -0.0924    0.5071 C   0  0  0  0  0  0  0  0  0  0  0  0
   -0.4350   -2.7764   -0.2953 C   0  0  0  0  0  0  0  0  0  0  0  0
   -2.7204   -1.6269   -0.1531 C   0  0  0  0  0  0  0  0  0  0  0  0
    0.7898   -2.5351    0.5872 C   0  0  0  0  0  0  0  0  0  0  0  0
   -4.6249    1.0490    1.2784 C   0  0  0  0  0  0  0  0  0  0  0  0
   -4.8816    1.0178   -1.2182 C   0  0  0  0  0  0  0  0  0  0  0  0
   -6.0182    1.6614    1.3434 C   0  0  0  0  0  0  0  0  0  0  0  0
   -6.2597    1.6338   -1.0135 C   0  0  0  0  0  0  0  0  0  0  0  0
    2.7219   -1.1067   -0.0710 C   0  0  0  0  0  0  0  0  0  0  0  0
    4.4545    0.7200   -0.1611 C   0  0  0  0  0  0  0  0  0  0  0  0
    4.7149    2.0546   -0.4721 C   0  0  0  0  0  0  0  0  0  0  0  0
    5.4785   -0.0971    0.3176 C   0  0  0  0  0  0  0  0  0  0  0  0
    5.9993    2.5721   -0.3044 C   0  0  0  0  0  0  0  0  0  0  0  0
    6.7630    0.4203    0.4853 C   0  0  0  0  0  0  0  0  0  0  0  0
    7.0234    1.7550    0.1742 C   0  0  0  0  0  0  0  0  0  0  0  0
   -0.4833   -0.1909   -1.4605 H   0  0  0  0  0  0  0  0  0  0  0  0
   -1.8847    1.0715    0.8892 H   0  0  0  0  0  0  0  0  0  0  0  0
   -2.0690    1.4110   -0.8557 H   0  0  0  0  0  0  0  0  0  0  0  0
   -5.1268   -0.6623    0.0870 H   0  0  0  0  0  0  0  0  0  0  0  0
    0.8733    0.8876    0.3479 H   0  0  0  0  0  0  0  0  0  0  0  0
    0.1189   -0.1292    1.5613 H   0  0  0  0  0  0  0  0  0  0  0  0
   -0.1318   -2.8982   -1.3414 H   0  0  0  0  0  0  0  0  0  0  0  0
   -0.9767   -3.6765    0.0107 H   0  0  0  0  0  0  0  0  0  0  0  0
    1.5229   -3.3326    0.4344 H   0  0  0  0  0  0  0  0  0  0  0  0
    0.5042   -2.5455    1.6459 H   0  0  0  0  0  0  0  0  0  0  0  0
   -3.9029    1.8742    1.2816 H   0  0  0  0  0  0  0  0  0  0  0  0
   -4.4314    0.4438    2.1713 H   0  0  0  0  0  0  0  0  0  0  0  0
   -4.8764    0.3875   -2.1148 H   0  0  0  0  0  0  0  0  0  0  0  0
   -4.1698    1.8329   -1.3944 H   0  0  0  0  0  0  0  0  0  0  0  0
   -6.7880    0.8895    1.4592 H   0  0  0  0  0  0  0  0  0  0  0  0
   -6.0909    2.3318    2.2057 H   0  0  0  0  0  0  0  0  0  0  0  0
   -6.5065    2.2843   -1.8586 H   0  0  0  0  0  0  0  0  0  0  0  0
   -7.0361    0.8620   -0.9529 H   0  0  0  0  0  0  0  0  0  0  0  0
    2.4642    0.8653   -0.6615 H   0  0  0  0  0  0  0  0  0  0  0  0
    3.9258    2.7022   -0.8458 H   0  0  0  0  0  0  0  0  0  0  0  0
    5.3329   -1.1320    0.6013 H   0  0  0  0  0  0  0  0  0  0  0  0
    6.2021    3.6114   -0.5462 H   0  0  0  0  0  0  0  0  0  0  0  0
    7.5597   -0.2135    0.8638 H   0  0  0  0  0  0  0  0  0  0  0  0
    8.0232    2.1582    0.3061 H   0  0  0  0  0  0  0  0  0  0  0  0
  1 17  1  0  0  0  0
  1 18  1  0  0  0  0
  2 13  2  0  0  0  0
  3 19  2  0  0  0  0
  4  9  1  0  0  0  0
  4 10  1  0  0  0  0
  4 13  1  0  0  0  0
  5  8  1  0  0  0  0
  5 12  1  0  0  0  0
  5 13  1  0  0  0  0
  6 11  1  0  0  0  0
  6 14  1  0  0  0  0
  6 19  1  0  0  0  0
  7 19  1  0  0  0  0
  7 20  1  0  0  0  0
  7 44  1  0  0  0  0
  8  9  1  0  0  0  0
  8 11  1  0  0  0  0
  8 26  1  0  0  0  0
  9 27  1  0  0  0  0
  9 28  1  0  0  0  0
 10 15  1  0  0  0  0
 10 16  1  0  0  0  0
 10 29  1  0  0  0  0
 11 30  1  0  0  0  0
 11 31  1  0  0  0  0
 12 14  1  0  0  0  0
 12 32  1  0  0  0  0
 12 33  1  0  0  0  0
 14 34  1  0  0  0  0
 14 35  1  0  0  0  0
 15 17  1  0  0  0  0
 15 36  1  0  0  0  0
 15 37  1  0  0  0  0
 16 18  1  0  0  0  0
 16 38  1  0  0  0  0
 16 39  1  0  0  0  0
 17 40  1  0  0  0  0
 17 41  1  0  0  0  0
 18 42  1  0  0  0  0
 18 43  1  0  0  0  0
 20 21  2  0  0  0  0
 20 22  1  0  0  0  0
 21 23  1  0  0  0  0
 21 45  1  0  0  0  0
 22 24  2  0  0  0  0
 22 46  1  0  0  0  0
 23 25  2  0  0  0  0
 23 47  1  0  0  0  0
 24 25  1  0  0  0  0
 24 48  1  0  0  0  0
 25 49  1  0  0  0  0
M  END
> <PUBCHEM_COMPOUND_CID>
75368506

> <PUBCHEM_CONFORMER_RMSD>
0.8

> <PUBCHEM_CONFORMER_DIVERSEORDER>
1
55
89
67
54
39
71
44
102
80
5
70
57
95
77
65
25
33
74
28
107
49
51
110
21
98
31
109
40
19
2
87
66
76
18
43
108
3
86
52
79
69
94
63
45
14
10
50
85
24
99
90
46
100
48
75
56
6
59
58
96
32
30
101
53
17
41
72
103
83
112
68
23
9
61
84
16
8
73
4
88
104
11
22
105
78
15
106
47
92
60
93
36
82
35
29
64
26
34
13
111
62
20
37
42
7
38
97
91
81
12
27

> <PUBCHEM_MMFF94_PARTIAL_CHARGES>
29
1 -0.56
10 0.3
11 0.3
12 0.3
13 0.69
14 0.3
17 0.28
18 0.28
19 0.69
2 -0.57
20 0.12
21 -0.15
22 -0.15
23 -0.15
24 -0.15
25 -0.15
3 -0.57
4 -0.66
44 0.37
45 0.15
46 0.15
47 0.15
48 0.15
49 0.15
5 -0.66
6 -0.66
7 -0.55
8 0.3
9 0.3

> <PUBCHEM_EFFECTIVE_ROTOR_COUNT>
6.4

> <PUBCHEM_PHARMACOPHORE_FEATURES>
8
1 1 acceptor
1 2 acceptor
1 3 acceptor
1 7 donor
5 4 5 8 9 13 rings
6 1 10 15 16 17 18 rings
6 20 21 22 23 24 25 rings
6 5 6 8 11 12 14 rings

> <PUBCHEM_HEAVY_ATOM_COUNT>
25

> <PUBCHEM_ATOM_DEF_STEREO_COUNT>
1

> <PUBCHEM_ATOM_UDEF_STEREO_COUNT>
0

> <PUBCHEM_BOND_DEF_STEREO_COUNT>
0

> <PUBCHEM_BOND_UDEF_STEREO_COUNT>
0

> <PUBCHEM_ISOTOPIC_ATOM_COUNT>
0

> <PUBCHEM_COMPONENT_COUNT>
1

> <PUBCHEM_CACTVS_TAUTO_COUNT>
2

> <PUBCHEM_CONFORMER_ID>
047E083A00000001

> <PUBCHEM_MMFF94_ENERGY>
67.205

> <PUBCHEM_FEATURE_SELFOVERLAP>
40.695

> <PUBCHEM_SHAPE_FINGERPRINT>
10 15 18040439893083875041
10050765 1 18410292497333186415
10319688 45 17836366325828008887
10411042 1 17617940674617193919
10835480 77 18201715215402022720
10906281 52 17845946134664182179
12107183 9 18262788572477739114
12390115 104 18340780320105087795
12422481 6 17240482515597706085
12616971 3 16660649587075666318
12788726 201 17417536795825141057
13167372 99 18409446999388256392
13540713 5 18338215112397181899
13631057 29 18269548498814571279
13690498 29 17416394584128698679
13782708 43 11746927711956336584
13785724 45 18048307857292458586
13955234 65 17970628489237406930
14790565 3 18410013251416998337
15183329 4 18272369776193366056
15348495 7 16877952680028108176
15519825 34 16154286030175341833
1577012 14 18334291011858932292
15778101 99 18411421730144277798
15840311 113 18338526214395079237
17134984 74 13614517455249568436
17780758 139 12540687112020680631
17980427 23 18187929533568582998
18335252 114 18340198610103769988
18608769 82 18339927142770409955
18927931 339 8358263652954595033
19427546 20 18269832168229296695
20281389 69 18260266347598698796
20642791 178 18042416887562384165
20715895 44 18411419527580454984
21033648 144 18334569119196311135
21150785 3 17846773023311669997
21236236 1 18338234976604452015
21298829 104 18413110545808957344
21774942 28 17632020750170954728
21859007 373 17460018596659641516
23559900 14 18272653416424521966
249057 25 17677614348746877894
25147074 1 18339342111588539155
270888 7 18411136930809918148
2748736 6 18412537713045727456
2838139 119 18408597059097780372
293599 30 18411982459567874154
312425 54 16008748000326802825
3472631 163 18342177778072367028
351380 3 8646769988960250960
3680242 22 18261106366704658320
397830 11 17968391103634030323
4015057 19 12607116378797843710
4073 2 18113622335031040954
4340502 62 16805325466025875578
445580 204 17917996044447000896
5104073 3 18186522107124680274
543368 44 18343864407841071177
59682541 52 17203339866877766180
6327066 14 18410569557768280061
6328613 192 18343021069062970153
636775 72 18201433709981123040
6608658 132 16845297090478607441
6898599 12 18201154480907700638
7808743 9 18411133653860751779

> <PUBCHEM_SHAPE_MULTIPOLES>
476.96
19
3.01
0.93
8.28
0.97
-0.09
-17.59
-0.87
-0.29
0.09
-1.2
-0.33
-0.63

> <PUBCHEM_SHAPE_SELFOVERLAP>
1012.448

> <PUBCHEM_SHAPE_VOLUME>
263.3

> <PUBCHEM_COORDINATE_TYPE>
2
5
10

$$$$
