75536841
  -OEChem-12032416303D

 53 55  0     1  0  0  0  0  0999 V2000
   -0.3319   -0.6362   -1.2740 O   0  0  0  0  0  0  0  0  0  0  0  0
   -1.2617   -1.2398    2.1431 O   0  0  0  0  0  0  0  0  0  0  0  0
    3.2595   -0.5432    1.3798 O   0  0  0  0  0  0  0  0  0  0  0  0
   -3.6609   -1.0947    0.1184 N   0  0  0  0  0  0  0  0  0  0  0  0
   -7.2330    1.2078    0.1654 N   0  0  0  0  0  0  0  0  0  0  0  0
    2.3123   -1.4743   -0.5137 N   0  0  0  0  0  0  0  0  0  0  0  0
    4.3505   -0.4154   -0.6949 N   0  0  0  0  0  0  0  0  0  0  0  0
   -2.3079   -0.5679    0.0421 C   0  0  1  0  0  0  0  0  0  0  0  0
   -4.6370   -0.0749   -0.2583 C   0  0  0  0  0  0  0  0  0  0  0  0
   -1.2769   -1.4337    0.7421 C   0  0  1  0  0  0  0  0  0  0  0  0
    0.0086   -0.9461    0.0876 C   0  0  1  0  0  0  0  0  0  0  0  0
   -4.9000    0.8674    0.9192 C   0  0  0  0  0  0  0  0  0  0  0  0
   -5.9499   -0.7160   -0.7175 C   0  0  0  0  0  0  0  0  0  0  0  0
   -1.7633   -0.5392   -1.3766 C   0  0  0  0  0  0  0  0  0  0  0  0
   -5.9936    1.8823    0.5760 C   0  0  0  0  0  0  0  0  0  0  0  0
   -7.0094    0.3506   -1.0071 C   0  0  0  0  0  0  0  0  0  0  0  0
    1.1247   -1.9750    0.1162 C   0  0  0  0  0  0  0  0  0  0  0  0
   -8.2824    2.1886   -0.1104 C   0  0  0  0  0  0  0  0  0  0  0  0
    3.3188   -0.7786    0.1752 C   0  0  0  0  0  0  0  0  0  0  0  0
    5.5362    0.2922   -0.3879 C   0  0  0  0  0  0  0  0  0  0  0  0
    6.4624    0.5700   -1.3932 C   0  0  0  0  0  0  0  0  0  0  0  0
    5.7792    0.7120    0.9198 C   0  0  0  0  0  0  0  0  0  0  0  0
    7.6320    1.2675   -1.0906 C   0  0  0  0  0  0  0  0  0  0  0  0
    6.9486    1.4095    1.2224 C   0  0  0  0  0  0  0  0  0  0  0  0
    7.8750    1.6872    0.2171 C   0  0  0  0  0  0  0  0  0  0  0  0
   -2.2438    0.4349    0.4823 H   0  0  0  0  0  0  0  0  0  0  0  0
   -4.2648    0.5149   -1.1066 H   0  0  0  0  0  0  0  0  0  0  0  0
   -1.4477   -2.4973    0.5341 H   0  0  0  0  0  0  0  0  0  0  0  0
    0.3551   -0.0161    0.5573 H   0  0  0  0  0  0  0  0  0  0  0  0
   -3.8553   -1.4306    1.0611 H   0  0  0  0  0  0  0  0  0  0  0  0
   -3.9981    1.4201    1.2034 H   0  0  0  0  0  0  0  0  0  0  0  0
   -5.2107    0.2946    1.8038 H   0  0  0  0  0  0  0  0  0  0  0  0
   -6.3277   -1.4009    0.0538 H   0  0  0  0  0  0  0  0  0  0  0  0
   -5.7812   -1.3161   -1.6200 H   0  0  0  0  0  0  0  0  0  0  0  0
   -2.1028   -1.3958   -1.9704 H   0  0  0  0  0  0  0  0  0  0  0  0
   -2.0239    0.3775   -1.9140 H   0  0  0  0  0  0  0  0  0  0  0  0
   -6.1830    2.4936    1.4669 H   0  0  0  0  0  0  0  0  0  0  0  0
   -5.6355    2.5577   -0.2124 H   0  0  0  0  0  0  0  0  0  0  0  0
   -7.9420   -0.1603   -1.2760 H   0  0  0  0  0  0  0  0  0  0  0  0
   -6.7031    0.9479   -1.8761 H   0  0  0  0  0  0  0  0  0  0  0  0
    0.8360   -2.8719   -0.4427 H   0  0  0  0  0  0  0  0  0  0  0  0
    1.3558   -2.2665    1.1462 H   0  0  0  0  0  0  0  0  0  0  0  0
   -1.1128   -0.2955    2.3197 H   0  0  0  0  0  0  0  0  0  0  0  0
   -9.2212    1.6857   -0.3676 H   0  0  0  0  0  0  0  0  0  0  0  0
   -8.0147    2.8614   -0.9332 H   0  0  0  0  0  0  0  0  0  0  0  0
   -8.4857    2.7952    0.7791 H   0  0  0  0  0  0  0  0  0  0  0  0
    2.4229   -1.6205   -1.5124 H   0  0  0  0  0  0  0  0  0  0  0  0
    4.2434   -0.6887   -1.6685 H   0  0  0  0  0  0  0  0  0  0  0  0
    6.2852    0.2486   -2.4164 H   0  0  0  0  0  0  0  0  0  0  0  0
    5.1114    0.5350    1.7509 H   0  0  0  0  0  0  0  0  0  0  0  0
    8.3533    1.4839   -1.8732 H   0  0  0  0  0  0  0  0  0  0  0  0
    7.1393    1.7369    2.2404 H   0  0  0  0  0  0  0  0  0  0  0  0
    8.7855    2.2303    0.4528 H   0  0  0  0  0  0  0  0  0  0  0  0
  1 11  1  0  0  0  0
  1 14  1  0  0  0  0
  2 10  1  0  0  0  0
  2 43  1  0  0  0  0
  3 19  2  0  0  0  0
  4  8  1  0  0  0  0
  4  9  1  0  0  0  0
  4 30  1  0  0  0  0
  5 15  1  0  0  0  0
  5 16  1  0  0  0  0
  5 18  1  0  0  0  0
  6 17  1  0  0  0  0
  6 19  1  0  0  0  0
  6 47  1  0  0  0  0
  7 19  1  0  0  0  0
  7 20  1  0  0  0  0
  7 48  1  0  0  0  0
  8 10  1  0  0  0  0
  8 14  1  0  0  0  0
  8 26  1  0  0  0  0
  9 12  1  0  0  0  0
  9 13  1  0  0  0  0
  9 27  1  0  0  0  0
 10 11  1  0  0  0  0
 10 28  1  0  0  0  0
 11 17  1  0  0  0  0
 11 29  1  0  0  0  0
 12 15  1  0  0  0  0
 12 31  1  0  0  0  0
 12 32  1  0  0  0  0
 13 16  1  0  0  0  0
 13 33  1  0  0  0  0
 13 34  1  0  0  0  0
 14 35  1  0  0  0  0
 14 36  1  0  0  0  0
 15 37  1  0  0  0  0
 15 38  1  0  0  0  0
 16 39  1  0  0  0  0
 16 40  1  0  0  0  0
 17 41  1  0  0  0  0
 17 42  1  0  0  0  0
 18 44  1  0  0  0  0
 18 45  1  0  0  0  0
 18 46  1  0  0  0  0
 20 21  2  0  0  0  0
 20 22  1  0  0  0  0
 21 23  1  0  0  0  0
 21 49  1  0  0  0  0
 22 24  2  0  0  0  0
 22 50  1  0  0  0  0
 23 25  2  0  0  0  0
 23 51  1  0  0  0  0
 24 25  1  0  0  0  0
 24 52  1  0  0  0  0
 25 53  1  0  0  0  0
M  END
> <PUBCHEM_COMPOUND_CID>
75536841

> <PUBCHEM_CONFORMER_RMSD>
1

> <PUBCHEM_CONFORMER_DIVERSEORDER>
1
140
159
130
6
124
177
133
26
143
127
134
112
19
58
160
118
121
167
141
39
149
171
129
176
82
73
169
166
147
145
22
33
136
107
172
49
114
31
113
175
30
93
106
80
9
64
117
54
55
128
70
38
3
125
13
61
108
57
77
5
123
99
16
155
43
168
78
157
103
148
20
142
122
111
75
71
63
120
32
163
11
119
95
89
162
62
76
79
86
97
65
67
36
60
66
48
47
87
174
8
158
165
110
15
135
68
40
23
109
25
104
88
100
132
29
53
46
115
90
51
84
44
170
137
85
154
91
34
35
173
164
131
28
81
96
92
41
21
56
74
45
101
37
144
105
151
59
83
52
98
156
10
161
153
102
150
146
24
138
18
2
50
139
12
152
116
69
72
17
14
94
42
7
126
27
4

> <PUBCHEM_MMFF94_PARTIAL_CHARGES>
32
1 -0.56
10 0.28
11 0.28
14 0.28
15 0.27
16 0.27
17 0.3
18 0.27
19 0.69
2 -0.68
20 0.12
21 -0.15
22 -0.15
23 -0.15
24 -0.15
25 -0.15
3 -0.57
30 0.36
4 -0.9
43 0.4
47 0.37
48 0.37
49 0.15
5 -0.81
50 0.15
51 0.15
52 0.15
53 0.15
6 -0.73
7 -0.55
8 0.27
9 0.27

> <PUBCHEM_EFFECTIVE_ROTOR_COUNT>
9.2

> <PUBCHEM_PHARMACOPHORE_FEATURES>
12
1 1 acceptor
1 2 acceptor
1 2 donor
1 3 acceptor
1 4 cation
1 4 donor
1 5 cation
1 6 donor
1 7 donor
5 1 8 10 11 14 rings
6 20 21 22 23 24 25 rings
6 5 9 12 13 15 16 rings

> <PUBCHEM_HEAVY_ATOM_COUNT>
25

> <PUBCHEM_ATOM_DEF_STEREO_COUNT>
3

> <PUBCHEM_ATOM_UDEF_STEREO_COUNT>
0

> <PUBCHEM_BOND_DEF_STEREO_COUNT>
0

> <PUBCHEM_BOND_UDEF_STEREO_COUNT>
0

> <PUBCHEM_ISOTOPIC_ATOM_COUNT>
0

> <PUBCHEM_COMPONENT_COUNT>
1

> <PUBCHEM_CACTVS_TAUTO_COUNT>
3

> <PUBCHEM_CONFORMER_ID>
048099C900000001

> <PUBCHEM_MMFF94_ENERGY>
47.2299

> <PUBCHEM_FEATURE_SELFOVERLAP>
60.947

> <PUBCHEM_SHAPE_FINGERPRINT>
10 15 16225767423948044814
10299344 5 9799691514878150698
10454371 7 17417819396389660473
106641 1 17313110765688460723
10670039 82 15984830306992512011
10753850 27 9223231840980803262
11297750 10 17026269987272232310
11315181 36 18334573556583310183
11386260 185 16845299380440286120
11991303 11 15626211451288859909
13540713 4 15938075687992973895
13540713 5 15938405764835423903
13668630 136 10807929354202140701
13685833 64 8718828687131711246
14251757 52 18412261744791850032
14251764 18 17894348908219159391
14556957 393 15554180249661110792
14931854 50 16271932605778813938
15048467 5 18409167697290451079
15183329 4 15913334580607952958
15352257 5 8862948277254023016
15461852 350 17417806271459447685
15510800 12 9222944932612760261
15690457 1 8070024454586953845
15706992 2 18335997406349559001
1577012 14 18341608201190408727
16989713 51 17488169586883697071
16994733 274 18409163286406660777
1768 124 7781524715625398792
1818759 1 9799690428283482829
18335252 114 17346880044558264704
18643901 69 11095891479386332552
2026 5 9151176446040919289
20281389 69 18334853887848382740
21033648 29 18338225085985547752
21102433 48 12180429954850628297
21130935 74 18040997332310199058
21150785 3 16845291652696153239
21267235 1 11600002163754469727
21298829 104 18411422799591498308
21307412 95 13254791369660786069
21424621 283 18261958453576890899
21792934 111 16226038947369726647
221357 26 16056602067199909506
22224240 67 17240766173061361251
23576562 1 16772932840461198945
246663 6 11240001169909103439
24771293 8 18040154020076315591
4073 2 18408045104799330443
4107672 100 17131545137459751759
445580 37 17775570823339279825
5104073 3 15503202389476858684
5385378 56 18113333086353506530
543368 44 18411699864527663979
5758199 1 18261111868099029499
5937810 71 17489596623773934417
59682541 35 17603592932900665521
59682541 52 16056885715488002948
636775 72 18410011052399927048
6438161 24 11167938044143215284
9831232 110 8141818204868567736

> <PUBCHEM_SHAPE_MULTIPOLES>
476.96
26.84
1.91
1.34
4.22
0.4
0.16
21.61
-3.27
-1.08
0.28
0.84
-0.08
-0.18

> <PUBCHEM_SHAPE_SELFOVERLAP>
986.295

> <PUBCHEM_SHAPE_VOLUME>
273.1

> <PUBCHEM_COORDINATE_TYPE>
2
5
10

$$$$
