11886660
  -OEChem-12032416163D

 31 33  0     1  0  0  0  0  0999 V2000
    2.5774   -0.9127    1.1066 O   0  0  0  0  0  0  0  0  0  0  0  0
    2.9038    1.5929   -0.6742 O   0  0  0  0  0  0  0  0  0  0  0  0
    5.0075   -1.2629   -0.1747 O   0  0  0  0  0  0  0  0  0  0  0  0
   -4.6339   -0.8380   -0.3783 O   0  0  0  0  0  0  0  0  0  0  0  0
   -4.4596    1.3859    0.1509 O   0  0  0  0  0  0  0  0  0  0  0  0
   -0.3777    0.2893    0.3005 N   0  0  0  0  0  0  0  0  0  0  0  0
   -0.5924   -0.9947   -0.0162 N   0  0  0  0  0  0  0  0  0  0  0  0
   -1.9026   -1.1418   -0.1793 N   0  0  0  0  0  0  0  0  0  0  0  0
    1.9018    0.5527   -0.6376 C   0  0  1  0  0  0  0  0  0  0  0  0
    2.6250   -0.7407   -0.3184 C   0  0  1  0  0  0  0  0  0  0  0  0
    0.9816    0.7762    0.5468 C   0  0  2  0  0  0  0  0  0  0  0  0
    4.0292   -0.4644   -0.8008 C   0  0  1  0  0  0  0  0  0  0  0  0
    1.7263    0.0870    1.6856 C   0  0  0  0  0  0  0  0  0  0  0  0
    4.1946    1.0011   -0.4725 C   0  0  0  0  0  0  0  0  0  0  0  0
   -1.5319    1.0017    0.3509 C   0  0  0  0  0  0  0  0  0  0  0  0
   -2.4925    0.0717    0.0420 C   0  0  0  0  0  0  0  0  0  0  0  0
   -3.9020    0.2883   -0.0471 C   0  0  0  0  0  0  0  0  0  0  0  0
   -6.0545   -0.6916   -0.4843 C   0  0  0  0  0  0  0  0  0  0  0  0
    1.4049    0.5434   -1.6130 H   0  0  0  0  0  0  0  0  0  0  0  0
    2.1785   -1.6291   -0.7741 H   0  0  0  0  0  0  0  0  0  0  0  0
    0.8723    1.8423    0.7814 H   0  0  0  0  0  0  0  0  0  0  0  0
    4.0795   -0.6126   -1.8862 H   0  0  0  0  0  0  0  0  0  0  0  0
    2.3752    0.7970    2.2099 H   0  0  0  0  0  0  0  0  0  0  0  0
    1.0656   -0.3822    2.4210 H   0  0  0  0  0  0  0  0  0  0  0  0
    4.5022    1.1643    0.5666 H   0  0  0  0  0  0  0  0  0  0  0  0
    4.9288    1.4918   -1.1184 H   0  0  0  0  0  0  0  0  0  0  0  0
    5.8775   -0.9519   -0.4777 H   0  0  0  0  0  0  0  0  0  0  0  0
   -1.5711    2.0554    0.5897 H   0  0  0  0  0  0  0  0  0  0  0  0
   -6.4730   -0.3745    0.4755 H   0  0  0  0  0  0  0  0  0  0  0  0
   -6.4781   -1.6637   -0.7497 H   0  0  0  0  0  0  0  0  0  0  0  0
   -6.3012    0.0274   -1.2708 H   0  0  0  0  0  0  0  0  0  0  0  0
  1 10  1  0  0  0  0
  1 13  1  0  0  0  0
  2  9  1  0  0  0  0
  2 14  1  0  0  0  0
  3 12  1  0  0  0  0
  3 27  1  0  0  0  0
  4 17  1  0  0  0  0
  4 18  1  0  0  0  0
  5 17  2  0  0  0  0
  6  7  1  0  0  0  0
  6 11  1  0  0  0  0
  6 15  1  0  0  0  0
  7  8  2  0  0  0  0
  8 16  1  0  0  0  0
  9 10  1  0  0  0  0
  9 11  1  0  0  0  0
  9 19  1  0  0  0  0
 10 12  1  0  0  0  0
 10 20  1  0  0  0  0
 11 13  1  0  0  0  0
 11 21  1  0  0  0  0
 12 14  1  0  0  0  0
 12 22  1  0  0  0  0
 13 23  1  0  0  0  0
 13 24  1  0  0  0  0
 14 25  1  0  0  0  0
 14 26  1  0  0  0  0
 15 16  2  0  0  0  0
 15 28  1  0  0  0  0
 16 17  1  0  0  0  0
 18 29  1  0  0  0  0
 18 30  1  0  0  0  0
 18 31  1  0  0  0  0
M  END
> <PUBCHEM_COMPOUND_CID>
11886660

> <PUBCHEM_CONFORMER_RMSD>
0.6

> <PUBCHEM_CONFORMER_DIVERSEORDER>
1
18
10
38
26
14
33
35
20
15
12
19
29
2
36
7
16
22
42
4
30
44
39
6
34
41
3
40
43
32
17
21
23
8
27
25
31
24
11
28
13
9
37
5

> <PUBCHEM_MMFF94_PARTIAL_CHARGES>
20
1 -0.56
10 0.28
11 0.26
12 0.28
13 0.28
14 0.28
15 -0.3
16 0.14
17 0.81
18 0.28
2 -0.56
27 0.4
28 0.15
3 -0.68
4 -0.43
5 -0.57
6 0.31
7 -0.42
8 -0.23
9 0.28

> <PUBCHEM_EFFECTIVE_ROTOR_COUNT>
4.2

> <PUBCHEM_PHARMACOPHORE_FEATURES>
8
1 1 acceptor
1 2 acceptor
1 3 acceptor
1 3 donor
1 5 acceptor
5 1 9 10 11 13 rings
5 2 9 10 12 14 rings
5 6 7 8 15 16 rings

> <PUBCHEM_HEAVY_ATOM_COUNT>
18

> <PUBCHEM_ATOM_DEF_STEREO_COUNT>
4

> <PUBCHEM_ATOM_UDEF_STEREO_COUNT>
0

> <PUBCHEM_BOND_DEF_STEREO_COUNT>
0

> <PUBCHEM_BOND_UDEF_STEREO_COUNT>
0

> <PUBCHEM_ISOTOPIC_ATOM_COUNT>
0

> <PUBCHEM_COMPONENT_COUNT>
1

> <PUBCHEM_CACTVS_TAUTO_COUNT>
1

> <PUBCHEM_CONFORMER_ID>
00B5604400000001

> <PUBCHEM_MMFF94_ENERGY>
40.2573

> <PUBCHEM_FEATURE_SELFOVERLAP>
41.302

> <PUBCHEM_SHAPE_FINGERPRINT>
10366900 7 16008750212556771413
11471102 20 17967535679424397956
12236239 1 18335421253012392600
12730499 353 16298393452243411729
13167823 11 18410855477725061407
13214271 11 11746940897637466577
13690532 89 18343585139970784719
13760787 5 18409454695811323817
14115302 16 18202286913760135950
14251718 22 18343021129155276965
14252887 29 14189581814826460652
17834072 33 18411982489711688749
17844677 252 16988844999468893809
18186145 218 17748824128829720197
200 152 18202566172227792669
20279233 1 16415763028769246454
20369508 70 17346875654842887786
20645477 70 18411140212566229494
21119208 17 18333736805846905052
21267235 1 18411428301512871007
22224240 67 12966834720849949502
23402539 116 18272087163081684693
23402655 69 18261398862161300844
23559900 14 18130784615685445696
29717793 49 18413670201664082365
3004659 81 18412548682903657670
3060560 45 17676488354588033498
4047638 21 17167865283579808120
42 15 10447933858025962332
4214541 1 18411983538074287349
465052 167 17775289408455285735
474 4 17459478929898563292
4990 188 18272093781325341055
5104073 3 18412830191628002233
522135 26 18040149608686063506
7495541 125 17632576101830798211
77779 3 18408326605012159333
9981440 41 17325214421289257488

> <PUBCHEM_SHAPE_MULTIPOLES>
326.14
11.31
1.3
0.97
10.11
0.1
-0.3
-1.9
2.66
-0.25
0.09
-0.73
0.03
-0.45

> <PUBCHEM_SHAPE_SELFOVERLAP>
699.366

> <PUBCHEM_SHAPE_VOLUME>
183

> <PUBCHEM_COORDINATE_TYPE>
2
5
10

$$$$
