45783709
  -OEChem-12032416263D

 41 43  0     1  0  0  0  0  0999 V2000
    1.1850    1.9527   -0.8464 O   0  0  0  0  0  0  0  0  0  0  0  0
   -5.6847   -0.9721    0.4865 O   0  0  0  0  0  0  0  0  0  0  0  0
    3.7056   -0.3227    0.2641 N   0  0  2  0  0  0  0  0  0  0  0  0
    0.5739   -0.1671   -0.4590 N   0  0  0  0  0  0  0  0  0  0  0  0
   -0.2038    1.9746   -0.6654 N   0  0  0  0  0  0  0  0  0  0  0  0
   -4.1761    0.7339    0.0412 N   0  0  0  0  0  0  0  0  0  0  0  0
    3.0480    0.3594   -0.8626 C   0  0  1  0  0  0  0  0  0  0  0  0
    3.3929   -0.5775   -2.0285 C   0  0  0  0  0  0  0  0  0  0  0  0
    3.4991   -1.7558    0.0964 C   0  0  0  0  0  0  0  0  0  0  0  0
    3.6054   -1.9583   -1.4081 C   0  0  0  0  0  0  0  0  0  0  0  0
    3.3876    0.1614    1.5946 C   0  0  0  0  0  0  0  0  0  0  0  0
    1.5620    0.6544   -0.7090 C   0  0  0  0  0  0  0  0  0  0  0  0
    3.6105    1.6689    1.6763 C   0  0  0  0  0  0  0  0  0  0  0  0
    4.2424   -0.5754    2.6207 C   0  0  0  0  0  0  0  0  0  0  0  0
   -0.4891    0.6884   -0.4415 C   0  0  0  0  0  0  0  0  0  0  0  0
   -1.8248    0.2252   -0.1986 C   0  0  0  0  0  0  0  0  0  0  0  0
   -2.0853   -1.1215    0.0292 C   0  0  0  0  0  0  0  0  0  0  0  0
   -2.8954    1.1047   -0.1824 C   0  0  0  0  0  0  0  0  0  0  0  0
   -3.3900   -1.5416    0.2630 C   0  0  0  0  0  0  0  0  0  0  0  0
   -4.3906   -0.5832    0.2586 C   0  0  0  0  0  0  0  0  0  0  0  0
   -6.6726    0.0517    0.4710 C   0  0  0  0  0  0  0  0  0  0  0  0
    3.5520    1.3166   -1.0498 H   0  0  0  0  0  0  0  0  0  0  0  0
    2.6167   -0.6023   -2.8009 H   0  0  0  0  0  0  0  0  0  0  0  0
    4.3273   -0.2568   -2.5064 H   0  0  0  0  0  0  0  0  0  0  0  0
    4.2558   -2.3618    0.6044 H   0  0  0  0  0  0  0  0  0  0  0  0
    2.5079   -2.0709    0.4449 H   0  0  0  0  0  0  0  0  0  0  0  0
    2.8543   -2.6722   -1.7621 H   0  0  0  0  0  0  0  0  0  0  0  0
    4.5927   -2.3441   -1.6870 H   0  0  0  0  0  0  0  0  0  0  0  0
    2.3367   -0.0351    1.8446 H   0  0  0  0  0  0  0  0  0  0  0  0
    4.6263    1.9404    1.3657 H   0  0  0  0  0  0  0  0  0  0  0  0
    2.9053    2.2466    1.0752 H   0  0  0  0  0  0  0  0  0  0  0  0
    3.4866    2.0140    2.7095 H   0  0  0  0  0  0  0  0  0  0  0  0
    5.3097   -0.5134    2.3787 H   0  0  0  0  0  0  0  0  0  0  0  0
    3.9679   -1.6316    2.7099 H   0  0  0  0  0  0  0  0  0  0  0  0
    4.1083   -0.1360    3.6160 H   0  0  0  0  0  0  0  0  0  0  0  0
   -1.2923   -1.8649    0.0307 H   0  0  0  0  0  0  0  0  0  0  0  0
   -2.7772    2.1710   -0.3509 H   0  0  0  0  0  0  0  0  0  0  0  0
   -3.6101   -2.5883    0.4424 H   0  0  0  0  0  0  0  0  0  0  0  0
   -6.4872    0.7885    1.2597 H   0  0  0  0  0  0  0  0  0  0  0  0
   -6.7226    0.5347   -0.5106 H   0  0  0  0  0  0  0  0  0  0  0  0
   -7.6430   -0.4142    0.6669 H   0  0  0  0  0  0  0  0  0  0  0  0
  1  5  1  0  0  0  0
  1 12  1  0  0  0  0
  2 20  1  0  0  0  0
  2 21  1  0  0  0  0
  3  7  1  0  0  0  0
  3  9  1  0  0  0  0
  3 11  1  0  0  0  0
  4 12  2  0  0  0  0
  4 15  1  0  0  0  0
  5 15  2  0  0  0  0
  6 18  1  0  0  0  0
  6 20  2  0  0  0  0
  7  8  1  0  0  0  0
  7 12  1  0  0  0  0
  7 22  1  0  0  0  0
  8 10  1  0  0  0  0
  8 23  1  0  0  0  0
  8 24  1  0  0  0  0
  9 10  1  0  0  0  0
  9 25  1  0  0  0  0
  9 26  1  0  0  0  0
 10 27  1  0  0  0  0
 10 28  1  0  0  0  0
 11 13  1  0  0  0  0
 11 14  1  0  0  0  0
 11 29  1  0  0  0  0
 13 30  1  0  0  0  0
 13 31  1  0  0  0  0
 13 32  1  0  0  0  0
 14 33  1  0  0  0  0
 14 34  1  0  0  0  0
 14 35  1  0  0  0  0
 15 16  1  0  0  0  0
 16 17  1  0  0  0  0
 16 18  2  0  0  0  0
 17 19  2  0  0  0  0
 17 36  1  0  0  0  0
 18 37  1  0  0  0  0
 19 20  1  0  0  0  0
 19 38  1  0  0  0  0
 21 39  1  0  0  0  0
 21 40  1  0  0  0  0
 21 41  1  0  0  0  0
M  END
> <PUBCHEM_COMPOUND_CID>
45783709

> <PUBCHEM_CONFORMER_RMSD>
0.8

> <PUBCHEM_CONFORMER_DIVERSEORDER>
1
8
10
5
6
15
16
4
11
2
9
14
7
17
12
3
18
13

> <PUBCHEM_MMFF94_PARTIAL_CHARGES>
20
1 -0.02
11 0.27
12 0.3
15 0.46
16 0.05
17 -0.15
18 0.16
19 -0.15
2 -0.36
20 0.39
21 0.28
3 -0.81
36 0.15
37 0.15
38 0.15
4 -0.57
5 -0.41
6 -0.62
7 0.45
9 0.27

> <PUBCHEM_EFFECTIVE_ROTOR_COUNT>
5

> <PUBCHEM_PHARMACOPHORE_FEATURES>
6
1 3 cation
3 11 13 14 hydrophobe
3 4 5 15 cation
5 1 4 5 12 15 rings
5 3 7 8 9 10 rings
6 6 16 17 18 19 20 rings

> <PUBCHEM_HEAVY_ATOM_COUNT>
21

> <PUBCHEM_ATOM_DEF_STEREO_COUNT>
1

> <PUBCHEM_ATOM_UDEF_STEREO_COUNT>
0

> <PUBCHEM_BOND_DEF_STEREO_COUNT>
0

> <PUBCHEM_BOND_UDEF_STEREO_COUNT>
0

> <PUBCHEM_ISOTOPIC_ATOM_COUNT>
0

> <PUBCHEM_COMPONENT_COUNT>
1

> <PUBCHEM_CACTVS_TAUTO_COUNT>
1

> <PUBCHEM_CONFORMER_ID>
02BA9A9D00000001

> <PUBCHEM_MMFF94_ENERGY>
42.0579

> <PUBCHEM_FEATURE_SELFOVERLAP>
30.447

> <PUBCHEM_SHAPE_FINGERPRINT>
10042902 136 17026544869695320450
114674 6 18270968938345392318
11796584 16 17531254980298105083
12236239 1 17240766155517209108
125118 31 14476695079165599603
12553582 1 18259984881269951823
12596602 18 16343982529237519847
13533116 47 17489596623393891671
13675066 3 18273214192628015237
14022347 108 18114475504076380038
14178342 30 18117547432322137472
14211702 104 18192433189875254491
14251764 38 15051188757188795963
14252887 29 18411983568059703216
14289901 80 17274814774859689408
14528608 73 9943805578200030931
14863182 85 17313094251418246162
15142526 21 15768057307758187298
15183329 4 17967532355599642165
15342168 16 13758069723030370841
15342816 4 17675928698599936142
15885798 251 18260267447442818005
16752209 62 17822854165070927732
1813 80 17458065958450635669
18222031 100 18334581243677886853
20369508 70 17603584157691707580
20645477 70 18114752623713464781
21033648 29 17632286844236502849
21267235 1 18335152959364406991
21503847 285 14979964679106582122
21859007 373 18042947832337563037
23366157 5 17607248946185963653
23559900 14 18341059591615713996
238 59 13479425916295199208
239999 70 18261120707431609036
29717793 49 14273729664556637463
3004659 81 17822017488340919246
3060560 45 11891326552636482832
31174 14 17775000159840833508
312423 11 15502373374789099964
314173 41 18114472239663734885
3411729 13 18192712465480497760
3472631 163 11527365139741646978
34797466 226 12035739721301004595
38570 142 15051164735922064144
46194498 28 13045942391618834946
465052 167 17530689814041189339
474 4 13902191499416941637
495365 180 17203608190142740158
5104073 3 18263652921639526281
5281201 14 12973596720891023246
5374978 207 18272932734567501153
633830 44 13973965406581051468
6823239 73 18341343261906340118
7164475 11 16081640072503799188
8988823 20 17418089914714134093
960060 61 15791736299425477079
9841814 1 18186521042120398684

> <PUBCHEM_SHAPE_MULTIPOLES>
400.51
12.44
1.82
1.67
16.8
0.17
0.55
1.63
4.79
-1.94
-0.14
-2.48
-0.27
1.63

> <PUBCHEM_SHAPE_SELFOVERLAP>
850.584

> <PUBCHEM_SHAPE_VOLUME>
226.9

> <PUBCHEM_COORDINATE_TYPE>
2
5
10

$$$$
