45361519
  -OEChem-12032416353D

 75 78  0     1  0  0  0  0  0999 V2000
   -2.1976   -4.8097   -0.0263 F   0  0  0  0  0  0  0  0  0  0  0  0
   -1.0797    2.6722    1.1625 O   0  0  0  0  0  0  0  0  0  0  0  0
   -3.6777    1.4529    2.3895 O   0  0  0  0  0  0  0  0  0  0  0  0
    4.5931    0.3551   -1.9486 O   0  0  0  0  0  0  0  0  0  0  0  0
    2.8752   -0.5427   -0.6721 N   0  0  0  0  0  0  0  0  0  0  0  0
   -5.1049    0.7486    0.7022 N   0  0  0  0  0  0  0  0  0  0  0  0
   -1.0558    0.5745   -2.0273 C   0  0  1  0  0  0  0  0  0  0  0  0
   -0.4791    1.3559   -0.8001 C   0  0  2  0  0  0  0  0  0  0  0  0
    0.7148    0.5703   -0.1481 C   0  0  1  0  0  0  0  0  0  0  0  0
   -1.6109    1.7841    0.1779 C   0  0  2  0  0  0  0  0  0  0  0  0
   -2.1510    1.4255   -2.7125 C   0  0  0  0  0  0  0  0  0  0  0  0
    0.0753    0.3462   -3.0564 C   0  0  0  0  0  0  0  0  0  0  0  0
   -2.7545    2.5450   -0.5326 C   0  0  1  0  0  0  0  0  0  0  0  0
    1.8126    0.2806   -1.2101 C   0  0  2  0  0  0  0  0  0  0  0  0
   -3.2805    1.8134   -1.7673 C   0  0  0  0  0  0  0  0  0  0  0  0
    1.2737   -0.3892   -2.4739 C   0  0  0  0  0  0  0  0  0  0  0  0
   -1.6655   -0.7931   -1.6275 C   0  0  0  0  0  0  0  0  0  0  0  0
   -3.9182    2.8428    0.4209 C   0  0  2  0  0  0  0  0  0  0  0  0
    1.3493    1.2972    1.0497 C   0  0  0  0  0  0  0  0  0  0  0  0
   -3.6007    4.0691    1.2696 C   0  0  0  0  0  0  0  0  0  0  0  0
   -4.2029    1.6227    1.2911 C   0  0  0  0  0  0  0  0  0  0  0  0
    4.1899   -0.4308   -1.0951 C   0  0  0  0  0  0  0  0  0  0  0  0
    5.0914   -1.4064   -0.3632 C   0  0  0  0  0  0  0  0  0  0  0  0
   -5.5293   -0.4791    1.3339 C   0  0  0  0  0  0  0  0  0  0  0  0
    6.1884   -0.7337    0.4187 C   0  0  0  0  0  0  0  0  0  0  0  0
   -4.6410   -1.6339    0.9713 C   0  0  0  0  0  0  0  0  0  0  0  0
    7.4195   -0.4786   -0.1854 C   0  0  0  0  0  0  0  0  0  0  0  0
    5.9737   -0.3655    1.7468 C   0  0  0  0  0  0  0  0  0  0  0  0
   -4.9342   -2.4153   -0.1465 C   0  0  0  0  0  0  0  0  0  0  0  0
   -3.5227   -1.9256    1.7523 C   0  0  0  0  0  0  0  0  0  0  0  0
    8.4360    0.1446    0.5386 C   0  0  0  0  0  0  0  0  0  0  0  0
    6.9900    0.2577    2.4708 C   0  0  0  0  0  0  0  0  0  0  0  0
    8.2212    0.5127    1.8668 C   0  0  0  0  0  0  0  0  0  0  0  0
   -4.1091   -3.4883   -0.4831 C   0  0  0  0  0  0  0  0  0  0  0  0
   -2.6977   -2.9987    1.4156 C   0  0  0  0  0  0  0  0  0  0  0  0
   -2.9909   -3.7801    0.2980 C   0  0  0  0  0  0  0  0  0  0  0  0
   -0.0392    2.2909   -1.1827 H   0  0  0  0  0  0  0  0  0  0  0  0
    0.3405   -0.3861    0.2387 H   0  0  0  0  0  0  0  0  0  0  0  0
   -1.9526    0.8835    0.6926 H   0  0  0  0  0  0  0  0  0  0  0  0
   -2.5717    0.8847   -3.5699 H   0  0  0  0  0  0  0  0  0  0  0  0
   -1.7056    2.3436   -3.1188 H   0  0  0  0  0  0  0  0  0  0  0  0
   -0.3040   -0.2154   -3.9197 H   0  0  0  0  0  0  0  0  0  0  0  0
    0.4192    1.3134   -3.4471 H   0  0  0  0  0  0  0  0  0  0  0  0
   -2.3521    3.5041   -0.8906 H   0  0  0  0  0  0  0  0  0  0  0  0
    2.2557    1.2415   -1.5066 H   0  0  0  0  0  0  0  0  0  0  0  0
   -3.9840    2.4596   -2.3073 H   0  0  0  0  0  0  0  0  0  0  0  0
   -3.8382    0.9125   -1.5046 H   0  0  0  0  0  0  0  0  0  0  0  0
    1.0096   -1.4332   -2.2651 H   0  0  0  0  0  0  0  0  0  0  0  0
    2.0633   -0.4363   -3.2351 H   0  0  0  0  0  0  0  0  0  0  0  0
   -0.9297   -1.4789   -1.2006 H   0  0  0  0  0  0  0  0  0  0  0  0
   -2.1008   -1.2928   -2.5007 H   0  0  0  0  0  0  0  0  0  0  0  0
   -2.4577   -0.6828   -0.8864 H   0  0  0  0  0  0  0  0  0  0  0  0
   -4.8190    3.0884   -0.1570 H   0  0  0  0  0  0  0  0  0  0  0  0
    0.6792    1.2927    1.9140 H   0  0  0  0  0  0  0  0  0  0  0  0
    1.6041    2.3316    0.7975 H   0  0  0  0  0  0  0  0  0  0  0  0
    2.2658    0.8038    1.3892 H   0  0  0  0  0  0  0  0  0  0  0  0
    2.6195   -1.2660   -0.0064 H   0  0  0  0  0  0  0  0  0  0  0  0
   -0.7055    3.4431    0.7028 H   0  0  0  0  0  0  0  0  0  0  0  0
   -2.8718    3.8854    2.0626 H   0  0  0  0  0  0  0  0  0  0  0  0
   -4.5131    4.4002    1.7807 H   0  0  0  0  0  0  0  0  0  0  0  0
   -3.2527    4.9081    0.6583 H   0  0  0  0  0  0  0  0  0  0  0  0
   -5.5197    0.9815   -0.1947 H   0  0  0  0  0  0  0  0  0  0  0  0
    4.5187   -2.0597    0.3063 H   0  0  0  0  0  0  0  0  0  0  0  0
    5.5247   -2.0767   -1.1169 H   0  0  0  0  0  0  0  0  0  0  0  0
   -5.5527   -0.3423    2.4216 H   0  0  0  0  0  0  0  0  0  0  0  0
   -6.5603   -0.6733    1.0169 H   0  0  0  0  0  0  0  0  0  0  0  0
    7.5986   -0.7591   -1.2199 H   0  0  0  0  0  0  0  0  0  0  0  0
    5.0178   -0.5570    2.2272 H   0  0  0  0  0  0  0  0  0  0  0  0
   -5.8008   -2.1963   -0.7645 H   0  0  0  0  0  0  0  0  0  0  0  0
   -3.2826   -1.3271    2.6266 H   0  0  0  0  0  0  0  0  0  0  0  0
    9.3945    0.3436    0.0682 H   0  0  0  0  0  0  0  0  0  0  0  0
    6.8226    0.5450    3.5047 H   0  0  0  0  0  0  0  0  0  0  0  0
    9.0124    0.9982    2.4305 H   0  0  0  0  0  0  0  0  0  0  0  0
   -4.3360   -4.0958   -1.3542 H   0  0  0  0  0  0  0  0  0  0  0  0
   -1.8264   -3.2254    2.0227 H   0  0  0  0  0  0  0  0  0  0  0  0
  1 36  1  0  0  0  0
  2 10  1  0  0  0  0
  2 58  1  0  0  0  0
  3 21  2  0  0  0  0
  4 22  2  0  0  0  0
  5 14  1  0  0  0  0
  5 22  1  0  0  0  0
  5 57  1  0  0  0  0
  6 21  1  0  0  0  0
  6 24  1  0  0  0  0
  6 62  1  0  0  0  0
  7  8  1  0  0  0  0
  7 11  1  0  0  0  0
  7 12  1  0  0  0  0
  7 17  1  0  0  0  0
  8  9  1  0  0  0  0
  8 10  1  0  0  0  0
  8 37  1  0  0  0  0
  9 14  1  0  0  0  0
  9 19  1  0  0  0  0
  9 38  1  0  0  0  0
 10 13  1  0  0  0  0
 10 39  1  0  0  0  0
 11 15  1  0  0  0  0
 11 40  1  0  0  0  0
 11 41  1  0  0  0  0
 12 16  1  0  0  0  0
 12 42  1  0  0  0  0
 12 43  1  0  0  0  0
 13 15  1  0  0  0  0
 13 18  1  0  0  0  0
 13 44  1  0  0  0  0
 14 16  1  0  0  0  0
 14 45  1  0  0  0  0
 15 46  1  0  0  0  0
 15 47  1  0  0  0  0
 16 48  1  0  0  0  0
 16 49  1  0  0  0  0
 17 50  1  0  0  0  0
 17 51  1  0  0  0  0
 17 52  1  0  0  0  0
 18 20  1  0  0  0  0
 18 21  1  0  0  0  0
 18 53  1  0  0  0  0
 19 54  1  0  0  0  0
 19 55  1  0  0  0  0
 19 56  1  0  0  0  0
 20 59  1  0  0  0  0
 20 60  1  0  0  0  0
 20 61  1  0  0  0  0
 22 23  1  0  0  0  0
 23 25  1  0  0  0  0
 23 63  1  0  0  0  0
 23 64  1  0  0  0  0
 24 26  1  0  0  0  0
 24 65  1  0  0  0  0
 24 66  1  0  0  0  0
 25 27  2  0  0  0  0
 25 28  1  0  0  0  0
 26 29  2  0  0  0  0
 26 30  1  0  0  0  0
 27 31  1  0  0  0  0
 27 67  1  0  0  0  0
 28 32  2  0  0  0  0
 28 68  1  0  0  0  0
 29 34  1  0  0  0  0
 29 69  1  0  0  0  0
 30 35  2  0  0  0  0
 30 70  1  0  0  0  0
 31 33  2  0  0  0  0
 31 71  1  0  0  0  0
 32 33  1  0  0  0  0
 32 72  1  0  0  0  0
 33 73  1  0  0  0  0
 34 36  2  0  0  0  0
 34 74  1  0  0  0  0
 35 36  1  0  0  0  0
 35 75  1  0  0  0  0
M  END
> <PUBCHEM_COMPOUND_CID>
45361519

> <PUBCHEM_CONFORMER_RMSD>
1.4

> <PUBCHEM_CONFORMER_DIVERSEORDER>
1
25
2
42
73
48
49
36
17
113
78
67
91
131
114
96
106
126
123
76
74
16
39
58
62
128
27
98
83
4
60
84
24
35
112
15
52
129
121
111
88
23
19
28
132
37
115
81
87
101
22
71
109
89
20
97
40
38
45
77
86
68
33
31
130
9
55
69
44
18
34
11
125
116
80
56
90
72
108
70
105
29
120
57
54
75
79
47
46
117
99
107
95
66
51
3
94
104
12
118
65
32
92
102
124
5
26
7
127
50
119
110
103
63
61
53
14
8
122
10
82
85
93
43
30
100
41
21
13
59
6
64

> <PUBCHEM_MMFF94_PARTIAL_CHARGES>
37
1 -0.19
10 0.28
14 0.3
18 0.06
2 -0.68
21 0.57
22 0.57
23 0.2
24 0.44
25 -0.14
26 -0.14
27 -0.15
28 -0.15
29 -0.15
3 -0.57
30 -0.15
31 -0.15
32 -0.15
33 -0.15
34 -0.15
35 -0.15
36 0.19
4 -0.57
5 -0.73
57 0.37
58 0.4
6 -0.73
62 0.37
67 0.15
68 0.15
69 0.15
70 0.15
71 0.15
72 0.15
73 0.15
74 0.15
75 0.15

> <PUBCHEM_EFFECTIVE_ROTOR_COUNT>
10.6

> <PUBCHEM_PHARMACOPHORE_FEATURES>
11
1 2 acceptor
1 2 donor
1 20 hydrophobe
1 3 acceptor
1 4 acceptor
1 5 donor
1 6 donor
6 25 27 28 31 32 33 rings
6 26 29 30 34 35 36 rings
6 7 8 10 11 13 15 rings
6 7 8 9 12 14 16 rings

> <PUBCHEM_HEAVY_ATOM_COUNT>
36

> <PUBCHEM_ATOM_DEF_STEREO_COUNT>
6

> <PUBCHEM_ATOM_UDEF_STEREO_COUNT>
1

> <PUBCHEM_BOND_DEF_STEREO_COUNT>
0

> <PUBCHEM_BOND_UDEF_STEREO_COUNT>
0

> <PUBCHEM_ISOTOPIC_ATOM_COUNT>
0

> <PUBCHEM_COMPONENT_COUNT>
1

> <PUBCHEM_CACTVS_TAUTO_COUNT>
4

> <PUBCHEM_CONFORMER_ID>
02B4296F00000001

> <PUBCHEM_MMFF94_ENERGY>
97.9775

> <PUBCHEM_FEATURE_SELFOVERLAP>
55.836

> <PUBCHEM_SHAPE_FINGERPRINT>
10 15 17846496998405994328
10930396 42 18341892987829563033
11007060 377 16701438153072994164
11135926 11 13623526818724902841
12712778 12 18409739482060328051
12717326 150 16155371093369902634
13782708 43 16805323267625430020
14068700 675 18115868666686596527
14659021 117 18342735239479797707
14705955 166 18201722838340615377
15021287 119 16805613555352344764
15320294 125 17967827058780965591
19611394 137 18202566190088371880
21033648 29 16629707105494130687
21792965 2 18122333855862844576
23536364 44 13406788934720235655
3882209 13 17769078391793330767
397830 11 18272369798205707552
4073 2 18342735179529545070
484985 159 18334847351541641999
5080951 261 18113327605252108373
5104073 3 18340196390049049106
5364581 5 18200871898161983808
9953998 17 18410576171406044504

> <PUBCHEM_SHAPE_MULTIPOLES>
706.02
18.67
4.13
2.66
48.17
2.56
0.91
3.64
-11.5
-10
-1.19
0.42
-0.86
0.19

> <PUBCHEM_SHAPE_SELFOVERLAP>
1492.798

> <PUBCHEM_SHAPE_VOLUME>
392.8

> <PUBCHEM_COORDINATE_TYPE>
2
5
10

$$$$
