38028765
  -OEChem-12032416253D

 68 70  0     1  0  0  0  0  0999 V2000
   -3.9170   -2.3460   -0.5008 O   0  0  0  0  0  0  0  0  0  0  0  0
    1.2957    2.9435   -0.9378 O   0  0  0  0  0  0  0  0  0  0  0  0
    5.9847   -1.2849    1.1154 O   0  0  0  0  0  0  0  0  0  0  0  0
   -1.8829   -3.4070   -0.2274 N   0  0  0  0  0  0  0  0  0  0  0  0
    0.0399    2.5804    0.9711 N   0  0  0  0  0  0  0  0  0  0  0  0
    2.0428    1.4596    0.7208 N   0  0  0  0  0  0  0  0  0  0  0  0
   -2.3601    1.6898   -0.6070 C   0  0  1  0  0  0  0  0  0  0  0  0
   -2.3626    2.6999    0.5676 C   0  0  1  0  0  0  0  0  0  0  0  0
   -3.4808    0.6545   -0.4261 C   0  0  0  0  0  0  0  0  0  0  0  0
   -3.3422   -0.1297    0.8925 C   0  0  2  0  0  0  0  0  0  0  0  0
   -2.5151    2.3907   -1.9603 C   0  0  0  0  0  0  0  0  0  0  0  0
   -3.0725    0.7879    2.0677 C   0  0  0  0  0  0  0  0  0  0  0  0
   -2.6482    2.0533    1.9029 C   0  0  0  0  0  0  0  0  0  0  0  0
   -2.2613   -1.2108    0.7810 C   0  0  0  0  0  0  0  0  0  0  0  0
   -1.0354    3.4633    0.6434 C   0  0  0  0  0  0  0  0  0  0  0  0
   -1.9286    1.5307   -3.0752 C   0  0  0  0  0  0  0  0  0  0  0  0
   -3.9831    2.7025   -2.2328 C   0  0  0  0  0  0  0  0  0  0  0  0
   -3.3457    0.2318    3.4375 C   0  0  0  0  0  0  0  0  0  0  0  0
   -2.7731   -2.3648   -0.0434 C   0  0  0  0  0  0  0  0  0  0  0  0
   -2.2266   -4.5964   -0.9929 C   0  0  0  0  0  0  0  0  0  0  0  0
   -0.5178   -3.4888    0.2824 C   0  0  0  0  0  0  0  0  0  0  0  0
   -0.8983   -5.3030   -1.2150 C   0  0  0  0  0  0  0  0  0  0  0  0
   -0.1052   -4.9325    0.0319 C   0  0  0  0  0  0  0  0  0  0  0  0
    1.1580    2.3739    0.1423 C   0  0  0  0  0  0  0  0  0  0  0  0
    3.2730    0.9941    0.2007 C   0  0  0  0  0  0  0  0  0  0  0  0
    4.0313    0.0724    0.9226 C   0  0  0  0  0  0  0  0  0  0  0  0
    3.7283    1.4573   -1.0339 C   0  0  0  0  0  0  0  0  0  0  0  0
    5.2448   -0.3863    0.4101 C   0  0  0  0  0  0  0  0  0  0  0  0
    4.9419    0.9988   -1.5463 C   0  0  0  0  0  0  0  0  0  0  0  0
    5.7001    0.0768   -0.8245 C   0  0  0  0  0  0  0  0  0  0  0  0
    7.2159   -1.7110    0.5335 C   0  0  0  0  0  0  0  0  0  0  0  0
   -1.4033    1.1550   -0.6086 H   0  0  0  0  0  0  0  0  0  0  0  0
   -3.1561    3.4416    0.4117 H   0  0  0  0  0  0  0  0  0  0  0  0
   -3.5216   -0.0285   -1.2796 H   0  0  0  0  0  0  0  0  0  0  0  0
   -4.4593    1.1491   -0.3737 H   0  0  0  0  0  0  0  0  0  0  0  0
   -4.3169   -0.6005    1.0843 H   0  0  0  0  0  0  0  0  0  0  0  0
   -1.9615    3.3352   -1.9667 H   0  0  0  0  0  0  0  0  0  0  0  0
   -2.5160    2.6819    2.7815 H   0  0  0  0  0  0  0  0  0  0  0  0
   -2.0160   -1.6100    1.7711 H   0  0  0  0  0  0  0  0  0  0  0  0
   -1.3373   -0.8242    0.3403 H   0  0  0  0  0  0  0  0  0  0  0  0
   -1.0773    4.2146    1.4413 H   0  0  0  0  0  0  0  0  0  0  0  0
   -0.8216    4.0045   -0.2820 H   0  0  0  0  0  0  0  0  0  0  0  0
   -2.4435    0.5702   -3.1756 H   0  0  0  0  0  0  0  0  0  0  0  0
   -0.8668    1.3293   -2.8967 H   0  0  0  0  0  0  0  0  0  0  0  0
   -2.0070    2.0477   -4.0380 H   0  0  0  0  0  0  0  0  0  0  0  0
   -4.5724    1.8145   -2.4841 H   0  0  0  0  0  0  0  0  0  0  0  0
   -4.0540    3.3632   -3.1059 H   0  0  0  0  0  0  0  0  0  0  0  0
   -4.4635    3.2329   -1.4053 H   0  0  0  0  0  0  0  0  0  0  0  0
   -4.3735   -0.1407    3.4987 H   0  0  0  0  0  0  0  0  0  0  0  0
   -3.2260    0.9893    4.2196 H   0  0  0  0  0  0  0  0  0  0  0  0
   -2.6628   -0.5896    3.6717 H   0  0  0  0  0  0  0  0  0  0  0  0
   -2.7327   -4.3281   -1.9250 H   0  0  0  0  0  0  0  0  0  0  0  0
   -2.9067   -5.2001   -0.3820 H   0  0  0  0  0  0  0  0  0  0  0  0
   -0.4700   -3.2192    1.3405 H   0  0  0  0  0  0  0  0  0  0  0  0
    0.0975   -2.7898   -0.2945 H   0  0  0  0  0  0  0  0  0  0  0  0
    0.0335    2.1260    1.8791 H   0  0  0  0  0  0  0  0  0  0  0  0
   -0.4006   -4.8976   -2.1042 H   0  0  0  0  0  0  0  0  0  0  0  0
   -1.0113   -6.3825   -1.3462 H   0  0  0  0  0  0  0  0  0  0  0  0
   -0.4199   -5.5641    0.8715 H   0  0  0  0  0  0  0  0  0  0  0  0
    0.9745   -5.0458   -0.0974 H   0  0  0  0  0  0  0  0  0  0  0  0
    1.7761    1.0764    1.6242 H   0  0  0  0  0  0  0  0  0  0  0  0
    3.6825   -0.2930    1.8858 H   0  0  0  0  0  0  0  0  0  0  0  0
    3.1988    2.1695   -1.6507 H   0  0  0  0  0  0  0  0  0  0  0  0
    5.2968    1.3594   -2.5077 H   0  0  0  0  0  0  0  0  0  0  0  0
    6.6326   -0.2373   -1.2809 H   0  0  0  0  0  0  0  0  0  0  0  0
    7.6723   -2.4234    1.2284 H   0  0  0  0  0  0  0  0  0  0  0  0
    7.9182   -0.8779    0.4226 H   0  0  0  0  0  0  0  0  0  0  0  0
    7.0521   -2.2442   -0.4092 H   0  0  0  0  0  0  0  0  0  0  0  0
  1 19  2  0  0  0  0
  2 24  2  0  0  0  0
  3 28  1  0  0  0  0
  3 31  1  0  0  0  0
  4 19  1  0  0  0  0
  4 20  1  0  0  0  0
  4 21  1  0  0  0  0
  5 15  1  0  0  0  0
  5 24  1  0  0  0  0
  5 56  1  0  0  0  0
  6 24  1  0  0  0  0
  6 25  1  0  0  0  0
  6 61  1  0  0  0  0
  7  8  1  0  0  0  0
  7  9  1  0  0  0  0
  7 11  1  0  0  0  0
  7 32  1  0  0  0  0
  8 13  1  0  0  0  0
  8 15  1  0  0  0  0
  8 33  1  0  0  0  0
  9 10  1  0  0  0  0
  9 34  1  0  0  0  0
  9 35  1  0  0  0  0
 10 12  1  0  0  0  0
 10 14  1  0  0  0  0
 10 36  1  0  0  0  0
 11 16  1  0  0  0  0
 11 17  1  0  0  0  0
 11 37  1  0  0  0  0
 12 13  2  0  0  0  0
 12 18  1  0  0  0  0
 13 38  1  0  0  0  0
 14 19  1  0  0  0  0
 14 39  1  0  0  0  0
 14 40  1  0  0  0  0
 15 41  1  0  0  0  0
 15 42  1  0  0  0  0
 16 43  1  0  0  0  0
 16 44  1  0  0  0  0
 16 45  1  0  0  0  0
 17 46  1  0  0  0  0
 17 47  1  0  0  0  0
 17 48  1  0  0  0  0
 18 49  1  0  0  0  0
 18 50  1  0  0  0  0
 18 51  1  0  0  0  0
 20 22  1  0  0  0  0
 20 52  1  0  0  0  0
 20 53  1  0  0  0  0
 21 23  1  0  0  0  0
 21 54  1  0  0  0  0
 21 55  1  0  0  0  0
 22 23  1  0  0  0  0
 22 57  1  0  0  0  0
 22 58  1  0  0  0  0
 23 59  1  0  0  0  0
 23 60  1  0  0  0  0
 25 26  2  0  0  0  0
 25 27  1  0  0  0  0
 26 28  1  0  0  0  0
 26 62  1  0  0  0  0
 27 29  2  0  0  0  0
 27 63  1  0  0  0  0
 28 30  2  0  0  0  0
 29 30  1  0  0  0  0
 29 64  1  0  0  0  0
 30 65  1  0  0  0  0
 31 66  1  0  0  0  0
 31 67  1  0  0  0  0
 31 68  1  0  0  0  0
M  END
> <PUBCHEM_COMPOUND_CID>
38028765

> <PUBCHEM_CONFORMER_RMSD>
1.2

> <PUBCHEM_CONFORMER_DIVERSEORDER>
1
170
12
120
54
95
117
156
91
94
9
55
42
75
22
25
82
133
33
88
59
57
165
100
58
102
158
23
131
85
109
74
37
64
83
169
138
174
139
40
166
168
132
84
173
76
80
45
79
126
5
38
87
24
47
153
96
16
135
118
46
143
128
2
7
142
69
39
146
11
140
154
124
32
115
53
60
77
27
101
148
97
18
65
122
13
26
10
21
62
98
8
34
172
61
177
116
107
150
129
113
3
134
123
104
49
130
73
14
151
144
4
71
119
141
78
149
29
43
175
6
36
136
66
125
90
93
110
147
108
111
112
35
121
176
70
114
50
159
99
81
19
52
171
68
67
157
86
164
152
41
51
89
63
137
15
92
160
162
161
56
103
20
31
17
106
145
48
105
155
30
127
167
72
28
163
44

> <PUBCHEM_MMFF94_PARTIAL_CHARGES>
31
1 -0.57
10 0.14
12 -0.28
13 -0.29
14 0.06
15 0.3
18 0.14
19 0.57
2 -0.57
20 0.3
21 0.3
24 0.69
25 0.12
26 -0.15
27 -0.15
28 0.08
29 -0.15
3 -0.36
30 -0.15
31 0.28
38 0.15
4 -0.66
5 -0.73
56 0.37
6 -0.55
61 0.37
62 0.15
63 0.15
64 0.15
65 0.15
8 0.14

> <PUBCHEM_EFFECTIVE_ROTOR_COUNT>
11.8

> <PUBCHEM_PHARMACOPHORE_FEATURES>
9
1 1 acceptor
1 2 acceptor
1 3 acceptor
1 5 donor
1 6 donor
3 11 16 17 hydrophobe
5 4 20 21 22 23 rings
6 25 26 27 28 29 30 rings
6 7 8 9 10 12 13 rings

> <PUBCHEM_HEAVY_ATOM_COUNT>
31

> <PUBCHEM_ATOM_DEF_STEREO_COUNT>
3

> <PUBCHEM_ATOM_UDEF_STEREO_COUNT>
0

> <PUBCHEM_BOND_DEF_STEREO_COUNT>
0

> <PUBCHEM_BOND_UDEF_STEREO_COUNT>
0

> <PUBCHEM_ISOTOPIC_ATOM_COUNT>
0

> <PUBCHEM_COMPONENT_COUNT>
1

> <PUBCHEM_CACTVS_TAUTO_COUNT>
3

> <PUBCHEM_CONFORMER_ID>
024445DD00000001

> <PUBCHEM_MMFF94_ENERGY>
82.2135

> <PUBCHEM_FEATURE_SELFOVERLAP>
45.72

> <PUBCHEM_SHAPE_FINGERPRINT>
10483366 6 18265313124168159207
10928967 22 18264502826520497002
11285246 1 17909509009198034533
11763389 116 18194115210457826030
12633257 1 18199772356237165225
12969540 37 17404580464520968473
12977781 61 17837736235384291593
14251757 5 18337681931072169958
14363568 33 17334531227207955355
15021287 119 17530966882993227974
15320294 125 18260825948195430834
15444296 8 16588604049543681493
15444296 9 17896045360968421133
17627616 140 18191861228373544890
20578428 11 16450355632482211149
20764821 26 18267026050977137838
20775438 99 17190614342346094431
20775530 9 17836090339523096519
21344244 181 18051098623750148813
3027735 51 18340193159916859087
484985 159 18413388726766771909
5085150 59 18192973951309251618

> <PUBCHEM_SHAPE_MULTIPOLES>
605.41
11.83
6.55
2.35
27.31
10.77
-0.1
-0.01
-0.98
-5.25
2.4
-2.97
-1.48
-0.62

> <PUBCHEM_SHAPE_SELFOVERLAP>
1254.412

> <PUBCHEM_SHAPE_VOLUME>
345

> <PUBCHEM_COORDINATE_TYPE>
2
5
10

$$$$
