26763084
  -OEChem-12032416183D

 63 66  0     1  0  0  0  0  0999 V2000
   -2.7484    4.3721   -0.0924 O   0  0  0  0  0  0  0  0  0  0  0  0
    4.1311    0.1488    1.6261 O   0  0  0  0  0  0  0  0  0  0  0  0
    5.2637   -2.3995    1.7841 O   0  0  0  0  0  0  0  0  0  0  0  0
   -3.4429   -1.3881   -2.1401 O   0  0  0  0  0  0  0  0  0  0  0  0
   -0.0395    1.9602   -0.3085 N   0  0  1  0  0  0  0  0  0  0  0  0
   -0.9286    4.1148    1.2493 N   0  0  0  0  0  0  0  0  0  0  0  0
   -2.9183   -0.1803   -0.2310 N   0  0  0  0  0  0  0  0  0  0  0  0
    4.6702   -0.4391   -0.5462 N   0  0  0  0  0  0  0  0  0  0  0  0
   -1.0732    2.8318   -0.8735 C   0  0  1  0  0  0  0  0  0  0  0  0
    0.9309    2.6724    0.5183 C   0  0  1  0  0  0  0  0  0  0  0  0
   -1.7741    0.5005   -0.7709 C   0  0  1  0  0  0  0  0  0  0  0  0
   -2.1246    1.8504   -1.4036 C   0  0  0  0  0  0  0  0  0  0  0  0
   -0.7343    0.8265    0.2934 C   0  0  0  0  0  0  0  0  0  0  0  0
    0.2495    3.3918    1.6741 C   0  0  0  0  0  0  0  0  0  0  0  0
    2.0518    1.7622    1.0221 C   0  0  0  0  0  0  0  0  0  0  0  0
   -1.6730    3.8107    0.1333 C   0  0  0  0  0  0  0  0  0  0  0  0
    2.8002    1.0810   -0.1136 C   0  0  0  0  0  0  0  0  0  0  0  0
    5.8558   -1.2327   -0.2148 C   0  0  2  0  0  0  0  0  0  0  0  0
    6.5750   -1.3901   -1.5568 C   0  0  0  0  0  0  0  0  0  0  0  0
    3.9250    0.2263    0.4138 C   0  0  0  0  0  0  0  0  0  0  0  0
    4.4622   -0.3767   -1.9906 C   0  0  0  0  0  0  0  0  0  0  0  0
    5.4358   -1.3920   -2.5695 C   0  0  0  0  0  0  0  0  0  0  0  0
    5.4730   -2.5794    0.3960 C   0  0  0  0  0  0  0  0  0  0  0  0
   -3.6688   -1.0818   -0.9723 C   0  0  0  0  0  0  0  0  0  0  0  0
   -4.8372   -1.6812   -0.2778 C   0  0  0  0  0  0  0  0  0  0  0  0
   -5.9374   -2.1200   -1.0145 C   0  0  0  0  0  0  0  0  0  0  0  0
   -4.8331   -1.8066    1.1114 C   0  0  0  0  0  0  0  0  0  0  0  0
    4.9018   -3.6176    2.4254 C   0  0  0  0  0  0  0  0  0  0  0  0
   -7.0337   -2.6842   -0.3620 C   0  0  0  0  0  0  0  0  0  0  0  0
   -5.9293   -2.3707    1.7639 C   0  0  0  0  0  0  0  0  0  0  0  0
   -7.0296   -2.8095    1.0272 C   0  0  0  0  0  0  0  0  0  0  0  0
   -0.6600    3.4311   -1.6935 H   0  0  0  0  0  0  0  0  0  0  0  0
    1.3980    3.4358   -0.1206 H   0  0  0  0  0  0  0  0  0  0  0  0
   -1.3174   -0.1364   -1.5407 H   0  0  0  0  0  0  0  0  0  0  0  0
   -3.1514    2.1535   -1.1712 H   0  0  0  0  0  0  0  0  0  0  0  0
   -2.0490    1.7654   -2.4946 H   0  0  0  0  0  0  0  0  0  0  0  0
   -1.2127    1.0837    1.2459 H   0  0  0  0  0  0  0  0  0  0  0  0
   -0.0780   -0.0330    0.4636 H   0  0  0  0  0  0  0  0  0  0  0  0
   -0.0691    2.6972    2.4594 H   0  0  0  0  0  0  0  0  0  0  0  0
    0.9277    4.1187    2.1342 H   0  0  0  0  0  0  0  0  0  0  0  0
    1.6567    1.0108    1.7182 H   0  0  0  0  0  0  0  0  0  0  0  0
    2.7577    2.3681    1.6065 H   0  0  0  0  0  0  0  0  0  0  0  0
   -1.3132    4.7986    1.8938 H   0  0  0  0  0  0  0  0  0  0  0  0
    2.1242    0.4375   -0.6854 H   0  0  0  0  0  0  0  0  0  0  0  0
    3.2187    1.8357   -0.7889 H   0  0  0  0  0  0  0  0  0  0  0  0
   -3.2319    0.1064    0.6904 H   0  0  0  0  0  0  0  0  0  0  0  0
    6.4717   -0.6644    0.4929 H   0  0  0  0  0  0  0  0  0  0  0  0
    7.2041   -2.2823   -1.6230 H   0  0  0  0  0  0  0  0  0  0  0  0
    7.2131   -0.5155   -1.7365 H   0  0  0  0  0  0  0  0  0  0  0  0
    4.7024    0.6392   -2.3225 H   0  0  0  0  0  0  0  0  0  0  0  0
    3.4237   -0.6012   -2.2478 H   0  0  0  0  0  0  0  0  0  0  0  0
    5.7619   -1.1324   -3.5804 H   0  0  0  0  0  0  0  0  0  0  0  0
    4.9699   -2.3839   -2.6044 H   0  0  0  0  0  0  0  0  0  0  0  0
    6.2924   -3.2960    0.2653 H   0  0  0  0  0  0  0  0  0  0  0  0
    4.5692   -2.9891   -0.0712 H   0  0  0  0  0  0  0  0  0  0  0  0
   -5.9614   -2.0273   -2.0971 H   0  0  0  0  0  0  0  0  0  0  0  0
   -3.9848   -1.5065    1.7193 H   0  0  0  0  0  0  0  0  0  0  0  0
    4.7549   -3.4147    3.4895 H   0  0  0  0  0  0  0  0  0  0  0  0
    5.6989   -4.3595    2.3172 H   0  0  0  0  0  0  0  0  0  0  0  0
    3.9659   -4.0047    2.0108 H   0  0  0  0  0  0  0  0  0  0  0  0
   -7.8907   -3.0254   -0.9353 H   0  0  0  0  0  0  0  0  0  0  0  0
   -5.9237   -2.4751    2.8450 H   0  0  0  0  0  0  0  0  0  0  0  0
   -7.8825   -3.2501    1.5352 H   0  0  0  0  0  0  0  0  0  0  0  0
  1 16  2  0  0  0  0
  2 20  2  0  0  0  0
  3 23  1  0  0  0  0
  3 28  1  0  0  0  0
  4 24  2  0  0  0  0
  5  9  1  0  0  0  0
  5 10  1  0  0  0  0
  5 13  1  0  0  0  0
  6 14  1  0  0  0  0
  6 16  1  0  0  0  0
  6 43  1  0  0  0  0
  7 11  1  0  0  0  0
  7 24  1  0  0  0  0
  7 46  1  0  0  0  0
  8 18  1  0  0  0  0
  8 20  1  0  0  0  0
  8 21  1  0  0  0  0
  9 12  1  0  0  0  0
  9 16  1  0  0  0  0
  9 32  1  0  0  0  0
 10 14  1  0  0  0  0
 10 15  1  0  0  0  0
 10 33  1  0  0  0  0
 11 12  1  0  0  0  0
 11 13  1  0  0  0  0
 11 34  1  0  0  0  0
 12 35  1  0  0  0  0
 12 36  1  0  0  0  0
 13 37  1  0  0  0  0
 13 38  1  0  0  0  0
 14 39  1  0  0  0  0
 14 40  1  0  0  0  0
 15 17  1  0  0  0  0
 15 41  1  0  0  0  0
 15 42  1  0  0  0  0
 17 20  1  0  0  0  0
 17 44  1  0  0  0  0
 17 45  1  0  0  0  0
 18 19  1  0  0  0  0
 18 23  1  0  0  0  0
 18 47  1  0  0  0  0
 19 22  1  0  0  0  0
 19 48  1  0  0  0  0
 19 49  1  0  0  0  0
 21 22  1  0  0  0  0
 21 50  1  0  0  0  0
 21 51  1  0  0  0  0
 22 52  1  0  0  0  0
 22 53  1  0  0  0  0
 23 54  1  0  0  0  0
 23 55  1  0  0  0  0
 24 25  1  0  0  0  0
 25 26  2  0  0  0  0
 25 27  1  0  0  0  0
 26 29  1  0  0  0  0
 26 56  1  0  0  0  0
 27 30  2  0  0  0  0
 27 57  1  0  0  0  0
 28 58  1  0  0  0  0
 28 59  1  0  0  0  0
 28 60  1  0  0  0  0
 29 31  2  0  0  0  0
 29 61  1  0  0  0  0
 30 31  1  0  0  0  0
 30 62  1  0  0  0  0
 31 63  1  0  0  0  0
M  END
> <PUBCHEM_COMPOUND_CID>
26763084

> <PUBCHEM_CONFORMER_RMSD>
1

> <PUBCHEM_CONFORMER_DIVERSEORDER>
2
103
61
84
48
113
112
95
26
76
62
68
16
88
30
85
12
47
35
28
90
60
18
4
27
66
34
3
40
69
54
73
39
94
106
7
56
32
70
97
36
104
52
29
55
78
24
51
87
64
105
57
33
9
10
6
59
108
81
14
45
21
42
86
67
74
109
98
53
22
25
83
71
82
38
110
44
80
5
91
72
65
89
102
49
17
8
50
77
101
20
37
11
13
93
79
23
99
111
46
107
31
96
19
15
43
58
63
92
100
75
41
1

> <PUBCHEM_MMFF94_PARTIAL_CHARGES>
34
1 -0.57
10 0.27
11 0.3
13 0.27
14 0.3
16 0.57
17 0.06
18 0.3
2 -0.57
20 0.57
21 0.3
23 0.28
24 0.54
25 0.09
26 -0.15
27 -0.15
28 0.28
29 -0.15
3 -0.56
30 -0.15
31 -0.15
4 -0.57
43 0.37
46 0.37
5 -0.81
56 0.15
57 0.15
6 -0.73
61 0.15
62 0.15
63 0.15
7 -0.73
8 -0.66
9 0.33

> <PUBCHEM_EFFECTIVE_ROTOR_COUNT>
11.2

> <PUBCHEM_PHARMACOPHORE_FEATURES>
11
1 1 acceptor
1 2 acceptor
1 3 acceptor
1 4 acceptor
1 5 cation
1 6 donor
1 7 donor
5 5 9 11 12 13 rings
5 8 18 19 21 22 rings
6 25 26 27 29 30 31 rings
6 5 6 9 10 14 16 rings

> <PUBCHEM_HEAVY_ATOM_COUNT>
31

> <PUBCHEM_ATOM_DEF_STEREO_COUNT>
4

> <PUBCHEM_ATOM_UDEF_STEREO_COUNT>
0

> <PUBCHEM_BOND_DEF_STEREO_COUNT>
0

> <PUBCHEM_BOND_UDEF_STEREO_COUNT>
0

> <PUBCHEM_ISOTOPIC_ATOM_COUNT>
0

> <PUBCHEM_COMPONENT_COUNT>
1

> <PUBCHEM_CACTVS_TAUTO_COUNT>
6

> <PUBCHEM_CONFORMER_ID>
01985F4C00000002

> <PUBCHEM_MMFF94_ENERGY>
77.1408

> <PUBCHEM_FEATURE_SELFOVERLAP>
56.029

> <PUBCHEM_SHAPE_FINGERPRINT>
10169797 241 18273205405747660354
10622 236 17969773086924572186
10928967 22 18412537721836408006
11135609 127 9293637913231238659
117089 54 18264769861844760218
11809386 21 18263358105892863840
11991303 11 18044093450275880677
12107183 9 18059586836357769689
12422481 6 17489877037613433093
13540713 4 18271227379238479480
13673619 4 18273221910541840756
13782708 43 18042397114472047399
13785724 45 18270971253516796261
13911852 28 18339920523919253709
14251764 30 18409450323276400499
14347332 77 18335134254924017078
14866123 147 18338513016023960217
16120349 189 9871746892813109600
19301679 30 18342461469442125485
20691028 202 8862952692596473983
20775530 9 18341607135811581820
21365058 113 17896606266264150813
21585481 104 16153698774622651815
21585482 57 10375864153061416723
21682296 61 18339644555412772895
21703447 108 18340480158301036328
21716022 299 18044677509476675597
2748736 6 9655579595357420323
42767 28 16225765220250553402
437815 12 18339366365721670001
439807 62 18113897139253744367
513202 73 18342182176525176669
56633871 153 17917711352972153023
57091435 61 9655039761191935447
57527585 21 15502950597188384948
6201460 15 17755003221255194586
6697151 62 18199729475911221821
70251023 43 18335420209341154024
7918774 8 18335987566257665475
86090 222 17896591985192001619

> <PUBCHEM_SHAPE_MULTIPOLES>
594.56
18.62
5.53
2.09
4.07
4.61
0.06
-27.99
0.99
2.92
-2.57
-2.17
-1.27
-0.03

> <PUBCHEM_SHAPE_SELFOVERLAP>
1252.944

> <PUBCHEM_SHAPE_VOLUME>
333.9

> <PUBCHEM_COORDINATE_TYPE>
2
5
10

$$$$
