25338459
  -OEChem-12032416213D

 47 50  0     1  0  0  0  0  0999 V2000
   -3.5854    1.8995   -0.9304 O   0  0  0  0  0  0  0  0  0  0  0  0
    3.3217    1.5332   -1.2476 O   0  0  0  0  0  0  0  0  0  0  0  0
   -0.9256    3.0475    1.0756 N   0  0  1  0  0  0  0  0  0  0  0  0
    1.6901    1.7160    0.3799 N   0  0  0  0  0  0  0  0  0  0  0  0
   -2.2294    0.3795    0.0011 N   0  0  0  0  0  0  0  0  0  0  0  0
   -4.3076    0.6998   -0.9003 N   0  0  0  0  0  0  0  0  0  0  0  0
    3.2103    0.0031    0.5291 N   0  0  0  0  0  0  0  0  0  0  0  0
   -4.3661   -4.2161    0.3605 N   0  0  0  0  0  0  0  0  0  0  0  0
    1.0435    2.8875   -0.1619 C   0  0  1  0  0  0  0  0  0  0  0  0
   -1.3934    2.7736   -0.2966 C   0  0  1  0  0  0  0  0  0  0  0  0
   -0.1040    2.5136   -1.1001 C   0  0  0  0  0  0  0  0  0  0  0  0
    0.3759    3.7073    0.9318 C   0  0  0  0  0  0  0  0  0  0  0  0
   -2.3735    1.6231   -0.3817 C   0  0  0  0  0  0  0  0  0  0  0  0
   -1.8613    3.8530    1.8509 C   0  0  0  0  0  0  0  0  0  0  0  0
    2.8036    1.1139   -0.2154 C   0  0  0  0  0  0  0  0  0  0  0  0
   -3.4415   -0.1481   -0.3374 C   0  0  0  0  0  0  0  0  0  0  0  0
   -3.7551   -1.5276   -0.1007 C   0  0  0  0  0  0  0  0  0  0  0  0
    4.2906   -0.8709    0.2647 C   0  0  0  0  0  0  0  0  0  0  0  0
   -2.8146   -2.3663    0.4874 C   0  0  0  0  0  0  0  0  0  0  0  0
   -5.0007   -2.0316   -0.4583 C   0  0  0  0  0  0  0  0  0  0  0  0
    4.5499   -1.9380    1.1247 C   0  0  0  0  0  0  0  0  0  0  0  0
    5.0963   -0.6662   -0.8553 C   0  0  0  0  0  0  0  0  0  0  0  0
   -3.1662   -3.6903    0.6947 C   0  0  0  0  0  0  0  0  0  0  0  0
   -5.2545   -3.3707   -0.2087 C   0  0  0  0  0  0  0  0  0  0  0  0
    5.6150   -2.8005    0.8648 C   0  0  0  0  0  0  0  0  0  0  0  0
    6.1613   -1.5287   -1.1154 C   0  0  0  0  0  0  0  0  0  0  0  0
    6.4207   -2.5957   -0.2553 C   0  0  0  0  0  0  0  0  0  0  0  0
    1.7963    3.4821   -0.6913 H   0  0  0  0  0  0  0  0  0  0  0  0
   -1.8690    3.6714   -0.7172 H   0  0  0  0  0  0  0  0  0  0  0  0
   -0.0190    1.4836   -1.4659 H   0  0  0  0  0  0  0  0  0  0  0  0
   -0.0913    3.1756   -1.9752 H   0  0  0  0  0  0  0  0  0  0  0  0
    0.9409    3.7020    1.8700 H   0  0  0  0  0  0  0  0  0  0  0  0
    0.2565    4.7460    0.5968 H   0  0  0  0  0  0  0  0  0  0  0  0
    1.2747    1.2674    1.1909 H   0  0  0  0  0  0  0  0  0  0  0  0
   -2.8168    3.3308    1.9688 H   0  0  0  0  0  0  0  0  0  0  0  0
   -2.0568    4.8269    1.3880 H   0  0  0  0  0  0  0  0  0  0  0  0
   -1.4692    4.0257    2.8591 H   0  0  0  0  0  0  0  0  0  0  0  0
    2.6699   -0.2096    1.3639 H   0  0  0  0  0  0  0  0  0  0  0  0
   -1.8290   -2.0238    0.7851 H   0  0  0  0  0  0  0  0  0  0  0  0
   -5.7733   -1.4256   -0.9198 H   0  0  0  0  0  0  0  0  0  0  0  0
    3.9298   -2.1088    2.0010 H   0  0  0  0  0  0  0  0  0  0  0  0
    4.9591    0.1362   -1.5662 H   0  0  0  0  0  0  0  0  0  0  0  0
   -2.4686   -4.3857    1.1499 H   0  0  0  0  0  0  0  0  0  0  0  0
   -6.2107   -3.8129   -0.4688 H   0  0  0  0  0  0  0  0  0  0  0  0
    5.8171   -3.6314    1.5343 H   0  0  0  0  0  0  0  0  0  0  0  0
    6.7895   -1.3705   -1.9873 H   0  0  0  0  0  0  0  0  0  0  0  0
    7.2500   -3.2671   -0.4577 H   0  0  0  0  0  0  0  0  0  0  0  0
  1  6  1  0  0  0  0
  1 13  1  0  0  0  0
  2 15  2  0  0  0  0
  3 10  1  0  0  0  0
  3 12  1  0  0  0  0
  3 14  1  0  0  0  0
  4  9  1  0  0  0  0
  4 15  1  0  0  0  0
  4 34  1  0  0  0  0
  5 13  2  0  0  0  0
  5 16  1  0  0  0  0
  6 16  2  0  0  0  0
  7 15  1  0  0  0  0
  7 18  1  0  0  0  0
  7 38  1  0  0  0  0
  8 23  2  0  0  0  0
  8 24  1  0  0  0  0
  9 11  1  0  0  0  0
  9 12  1  0  0  0  0
  9 28  1  0  0  0  0
 10 11  1  0  0  0  0
 10 13  1  0  0  0  0
 10 29  1  0  0  0  0
 11 30  1  0  0  0  0
 11 31  1  0  0  0  0
 12 32  1  0  0  0  0
 12 33  1  0  0  0  0
 14 35  1  0  0  0  0
 14 36  1  0  0  0  0
 14 37  1  0  0  0  0
 16 17  1  0  0  0  0
 17 19  2  0  0  0  0
 17 20  1  0  0  0  0
 18 21  2  0  0  0  0
 18 22  1  0  0  0  0
 19 23  1  0  0  0  0
 19 39  1  0  0  0  0
 20 24  2  0  0  0  0
 20 40  1  0  0  0  0
 21 25  1  0  0  0  0
 21 41  1  0  0  0  0
 22 26  2  0  0  0  0
 22 42  1  0  0  0  0
 23 43  1  0  0  0  0
 24 44  1  0  0  0  0
 25 27  2  0  0  0  0
 25 45  1  0  0  0  0
 26 27  1  0  0  0  0
 26 46  1  0  0  0  0
 27 47  1  0  0  0  0
M  END
> <PUBCHEM_COMPOUND_CID>
25338459

> <PUBCHEM_CONFORMER_RMSD>
0.8

> <PUBCHEM_CONFORMER_DIVERSEORDER>
1
108
70
59
43
11
117
9
21
81
30
72
100
74
78
118
113
48
12
101
106
116
50
68
76
61
19
28
26
52
65
73
83
33
66
44
56
103
99
40
102
34
24
85
39
49
27
90
60
88
92
31
32
71
80
15
82
93
29
38
79
109
5
77
13
17
42
89
86
2
18
112
64
37
41
6
87
115
91
35
75
58
105
8
45
98
23
4
67
54
96
110
46
7
47
107
16
57
69
25
22
63
20
62
3
84
111
94
104
95
36
14
53
10
97
114
51
55

> <PUBCHEM_MMFF94_PARTIAL_CHARGES>
37
1 -0.02
10 0.45
12 0.27
13 0.3
14 0.27
15 0.69
16 0.46
17 0.05
18 0.12
19 -0.15
2 -0.57
20 -0.15
21 -0.15
22 -0.15
23 0.16
24 0.16
25 -0.15
26 -0.15
27 -0.15
3 -0.81
34 0.37
38 0.37
39 0.15
4 -0.73
40 0.15
41 0.15
42 0.15
43 0.15
44 0.15
45 0.15
46 0.15
47 0.15
5 -0.57
6 -0.41
7 -0.55
8 -0.62
9 0.3

> <PUBCHEM_EFFECTIVE_ROTOR_COUNT>
7

> <PUBCHEM_PHARMACOPHORE_FEATURES>
10
1 2 acceptor
1 3 cation
1 4 donor
1 7 donor
1 8 acceptor
3 5 6 16 cation
5 1 5 6 13 16 rings
5 3 9 10 11 12 rings
6 18 21 22 25 26 27 rings
6 8 17 19 20 23 24 rings

> <PUBCHEM_HEAVY_ATOM_COUNT>
27

> <PUBCHEM_ATOM_DEF_STEREO_COUNT>
2

> <PUBCHEM_ATOM_UDEF_STEREO_COUNT>
0

> <PUBCHEM_BOND_DEF_STEREO_COUNT>
0

> <PUBCHEM_BOND_UDEF_STEREO_COUNT>
0

> <PUBCHEM_ISOTOPIC_ATOM_COUNT>
0

> <PUBCHEM_COMPONENT_COUNT>
1

> <PUBCHEM_CACTVS_TAUTO_COUNT>
3

> <PUBCHEM_CONFORMER_ID>
0182A25B00000001

> <PUBCHEM_MMFF94_ENERGY>
62.5053

> <PUBCHEM_FEATURE_SELFOVERLAP>
50.798

> <PUBCHEM_SHAPE_FINGERPRINT>
10571361 74 17901376806599272898
10622 236 17751346306037222882
10928967 22 17979370968446271503
11186622 123 18260260833504529170
11285246 1 17822292443610126603
11315621 246 18192724337101621550
114674 6 17689151631499171977
117089 54 18410581720483568838
12107183 9 18271262603076644417
12969540 37 18192708079870326948
13533116 47 17909552002205963771
1361 4 18339364038425253206
13631057 29 18338242660802124188
13911852 28 18268989967981135719
14251757 5 18334574590641981714
14866123 147 18340772546958035353
15250474 111 18117837690950392202
15728490 83 18335991873873032739
17138139 8 18040712546509223898
17492 89 18337388374014826047
17859628 70 17835240421651754313
17909252 39 18267306615541731016
19319366 153 17762624297213609836
20609170 109 13324843471617000471
20775438 99 17546427338549990227
20775530 9 18335135427323520987
21223535 225 14779539046490967534
21307412 95 18338226086280164797
23379529 103 18410295821958672078
23466295 7 18410579465836124417
23559900 14 18264197183942081919
25222932 49 17983577695680951332
2835820 82 17907575088848154615
32027 91 18339915030766988453
325973 47 18335985384277915298
3383291 50 18340205173071929833
345986 75 17630341954696794481
44062 13 18335698330248495495
4435113 14 17413884128668507598
463206 1 18335702710909331282
484985 159 18339928091557093249
508706 21 18056770819069194694
613672 6 18196627744259630184
6371380 46 18198332958399804121
6376802 90 18190155958895805332
6700243 42 16735492343474075735
7970288 3 18410854373728873958
88748 71 18336266863791231239
9980921 52 17485349399472092839

> <PUBCHEM_SHAPE_MULTIPOLES>
514.02
14.7
6.24
1.18
16.11
0.13
0.17
-19.83
-2
-5.71
1.97
0.38
0.63
-0.44

> <PUBCHEM_SHAPE_SELFOVERLAP>
1112.384

> <PUBCHEM_SHAPE_VOLUME>
281.4

> <PUBCHEM_COORDINATE_TYPE>
2
5
10

$$$$
