45361707
  -OEChem-12032416233D

 74 78  0     1  0  0  0  0  0999 V2000
   -1.5067    2.2688   -0.7946 S   0  0  0  0  0  0  0  0  0  0  0  0
    4.6303   -0.0936   -1.6835 O   0  0  0  0  0  0  0  0  0  0  0  0
    1.1375   -2.1225   -1.5118 O   0  0  0  0  0  0  0  0  0  0  0  0
   -2.4235    1.6801    0.1578 O   0  0  0  0  0  0  0  0  0  0  0  0
   -1.9466    2.6386   -2.1227 O   0  0  0  0  0  0  0  0  0  0  0  0
    0.5565   -4.4880    1.6388 O   0  0  0  0  0  0  0  0  0  0  0  0
    2.4519    0.0265   -0.8736 N   0  0  0  0  0  0  0  0  0  0  0  0
   -0.1203    1.2713   -0.9257 N   0  0  2  0  0  0  0  0  0  0  0  0
    7.0556   -0.3480    1.0409 N   0  0  0  0  0  0  0  0  0  0  0  0
   -0.1738   -2.1388    0.4116 N   0  0  0  0  0  0  0  0  0  0  0  0
   -4.5847   -1.6527   -1.6285 N   0  0  0  0  0  0  0  0  0  0  0  0
   -0.3164   -5.6477   -0.1415 N   0  0  0  0  0  0  0  0  0  0  0  0
    1.4274   -0.3825    0.1000 C   0  0  1  0  0  0  0  0  0  0  0  0
    4.2552   -1.0032    0.4660 C   0  0  0  0  0  0  0  0  0  0  0  0
    0.3834    0.7031    0.3597 C   0  0  0  0  0  0  0  0  0  0  0  0
    1.9650    0.7040   -2.0803 C   0  0  0  0  0  0  0  0  0  0  0  0
    0.9919    1.8249   -1.7466 C   0  0  0  0  0  0  0  0  0  0  0  0
    3.8047   -0.3208   -0.7949 C   0  0  0  0  0  0  0  0  0  0  0  0
    4.6587    0.0234    1.5265 C   0  0  0  0  0  0  0  0  0  0  0  0
    5.4025   -1.9744    0.1803 C   0  0  0  0  0  0  0  0  0  0  0  0
    6.0155    0.6631    1.2274 C   0  0  0  0  0  0  0  0  0  0  0  0
    6.7279   -1.2506   -0.0622 C   0  0  0  0  0  0  0  0  0  0  0  0
    0.8024   -1.6394   -0.4335 C   0  0  0  0  0  0  0  0  0  0  0  0
   -0.9415   -3.3273    0.1175 C   0  0  2  0  0  0  0  0  0  0  0  0
   -0.7895    3.6961   -0.0431 C   0  0  0  0  0  0  0  0  0  0  0  0
   -2.3276   -3.2988    0.7719 C   0  0  0  0  0  0  0  0  0  0  0  0
   -3.3165   -2.4516    0.0087 C   0  0  0  0  0  0  0  0  0  0  0  0
   -0.2781    4.7207   -0.8394 C   0  0  0  0  0  0  0  0  0  0  0  0
   -0.7310    3.7976    1.3468 C   0  0  0  0  0  0  0  0  0  0  0  0
   -0.1395   -4.5160    0.6266 C   0  0  0  0  0  0  0  0  0  0  0  0
   -4.0559   -1.3474    0.5173 C   0  0  0  0  0  0  0  0  0  0  0  0
   -3.6631   -2.6147   -1.3128 C   0  0  0  0  0  0  0  0  0  0  0  0
    0.2921    5.8470   -0.2459 C   0  0  0  0  0  0  0  0  0  0  0  0
   -0.1610    4.9238    1.9404 C   0  0  0  0  0  0  0  0  0  0  0  0
   -4.8436   -0.8644   -0.5299 C   0  0  0  0  0  0  0  0  0  0  0  0
    0.3506    5.9485    1.1441 C   0  0  0  0  0  0  0  0  0  0  0  0
   -4.1310   -0.7105    1.7719 C   0  0  0  0  0  0  0  0  0  0  0  0
   -5.7060    0.2281   -0.3846 C   0  0  0  0  0  0  0  0  0  0  0  0
   -4.9893    0.3836    1.9319 C   0  0  0  0  0  0  0  0  0  0  0  0
   -5.7636    0.8439    0.8689 C   0  0  0  0  0  0  0  0  0  0  0  0
    1.8671   -0.6157    1.0711 H   0  0  0  0  0  0  0  0  0  0  0  0
    3.4605   -1.6436    0.8534 H   0  0  0  0  0  0  0  0  0  0  0  0
    0.8661    1.5038    0.9328 H   0  0  0  0  0  0  0  0  0  0  0  0
   -0.4503    0.3287    0.9593 H   0  0  0  0  0  0  0  0  0  0  0  0
    1.4835   -0.0395   -2.7240 H   0  0  0  0  0  0  0  0  0  0  0  0
    2.8062    1.1145   -2.6489 H   0  0  0  0  0  0  0  0  0  0  0  0
    1.5240    2.6052   -1.1924 H   0  0  0  0  0  0  0  0  0  0  0  0
    0.6078    2.2472   -2.6803 H   0  0  0  0  0  0  0  0  0  0  0  0
    4.7098   -0.4772    2.5024 H   0  0  0  0  0  0  0  0  0  0  0  0
    3.9014    0.8112    1.6162 H   0  0  0  0  0  0  0  0  0  0  0  0
    5.5209   -2.6480    1.0398 H   0  0  0  0  0  0  0  0  0  0  0  0
    5.1695   -2.6078   -0.6845 H   0  0  0  0  0  0  0  0  0  0  0  0
    6.2974    1.3055    2.0690 H   0  0  0  0  0  0  0  0  0  0  0  0
    5.9525    1.3104    0.3446 H   0  0  0  0  0  0  0  0  0  0  0  0
    6.7527   -0.7134   -1.0143 H   0  0  0  0  0  0  0  0  0  0  0  0
    7.5207   -2.0051   -0.1289 H   0  0  0  0  0  0  0  0  0  0  0  0
    7.9438    0.1134    0.8465 H   0  0  0  0  0  0  0  0  0  0  0  0
   -0.2826   -1.7320    1.3359 H   0  0  0  0  0  0  0  0  0  0  0  0
   -1.0198   -3.4145   -0.9732 H   0  0  0  0  0  0  0  0  0  0  0  0
   -2.7404   -4.3156    0.8183 H   0  0  0  0  0  0  0  0  0  0  0  0
   -2.2499   -2.9570    1.8112 H   0  0  0  0  0  0  0  0  0  0  0  0
   -0.3108    4.6629   -1.9236 H   0  0  0  0  0  0  0  0  0  0  0  0
   -1.1202    3.0106    1.9865 H   0  0  0  0  0  0  0  0  0  0  0  0
   -3.3410   -3.3286   -2.0581 H   0  0  0  0  0  0  0  0  0  0  0  0
    0.6910    6.6446   -0.8658 H   0  0  0  0  0  0  0  0  0  0  0  0
   -0.1144    5.0025    3.0226 H   0  0  0  0  0  0  0  0  0  0  0  0
   -5.0136   -1.5374   -2.5363 H   0  0  0  0  0  0  0  0  0  0  0  0
    0.7949    6.8251    1.6063 H   0  0  0  0  0  0  0  0  0  0  0  0
   -0.9134   -5.6626   -0.9621 H   0  0  0  0  0  0  0  0  0  0  0  0
    0.1516   -6.5161    0.0960 H   0  0  0  0  0  0  0  0  0  0  0  0
   -3.5340   -1.0532    2.6120 H   0  0  0  0  0  0  0  0  0  0  0  0
   -6.3086    0.5877   -1.2118 H   0  0  0  0  0  0  0  0  0  0  0  0
   -5.0502    0.8797    2.8969 H   0  0  0  0  0  0  0  0  0  0  0  0
   -6.4226    1.6959    1.0151 H   0  0  0  0  0  0  0  0  0  0  0  0
  1  4  2  0  0  0  0
  1  5  2  0  0  0  0
  1  8  1  0  0  0  0
  1 25  1  0  0  0  0
  2 18  2  0  0  0  0
  3 23  2  0  0  0  0
  6 30  2  0  0  0  0
  7 13  1  0  0  0  0
  7 16  1  0  0  0  0
  7 18  1  0  0  0  0
  8 15  1  0  0  0  0
  8 17  1  0  0  0  0
  9 21  1  0  0  0  0
  9 22  1  0  0  0  0
  9 57  1  0  0  0  0
 10 23  1  0  0  0  0
 10 24  1  0  0  0  0
 10 58  1  0  0  0  0
 11 32  1  0  0  0  0
 11 35  1  0  0  0  0
 11 67  1  0  0  0  0
 12 30  1  0  0  0  0
 12 69  1  0  0  0  0
 12 70  1  0  0  0  0
 13 15  1  0  0  0  0
 13 23  1  0  0  0  0
 13 41  1  0  0  0  0
 14 18  1  0  0  0  0
 14 19  1  0  0  0  0
 14 20  1  0  0  0  0
 14 42  1  0  0  0  0
 15 43  1  0  0  0  0
 15 44  1  0  0  0  0
 16 17  1  0  0  0  0
 16 45  1  0  0  0  0
 16 46  1  0  0  0  0
 17 47  1  0  0  0  0
 17 48  1  0  0  0  0
 19 21  1  0  0  0  0
 19 49  1  0  0  0  0
 19 50  1  0  0  0  0
 20 22  1  0  0  0  0
 20 51  1  0  0  0  0
 20 52  1  0  0  0  0
 21 53  1  0  0  0  0
 21 54  1  0  0  0  0
 22 55  1  0  0  0  0
 22 56  1  0  0  0  0
 24 26  1  0  0  0  0
 24 30  1  0  0  0  0
 24 59  1  0  0  0  0
 25 28  2  0  0  0  0
 25 29  1  0  0  0  0
 26 27  1  0  0  0  0
 26 60  1  0  0  0  0
 26 61  1  0  0  0  0
 27 31  1  0  0  0  0
 27 32  2  0  0  0  0
 28 33  1  0  0  0  0
 28 62  1  0  0  0  0
 29 34  2  0  0  0  0
 29 63  1  0  0  0  0
 31 35  1  0  0  0  0
 31 37  2  0  0  0  0
 32 64  1  0  0  0  0
 33 36  2  0  0  0  0
 33 65  1  0  0  0  0
 34 36  1  0  0  0  0
 34 66  1  0  0  0  0
 35 38  2  0  0  0  0
 36 68  1  0  0  0  0
 37 39  1  0  0  0  0
 37 71  1  0  0  0  0
 38 40  1  0  0  0  0
 38 72  1  0  0  0  0
 39 40  2  0  0  0  0
 39 73  1  0  0  0  0
 40 74  1  0  0  0  0
M  END
> <PUBCHEM_COMPOUND_CID>
45361707

> <PUBCHEM_CONFORMER_RMSD>
1.2

> <PUBCHEM_CONFORMER_DIVERSEORDER>
1
278
89
152
31
179
196
185
84
258
157
265
300
98
213
270
47
169
78
217
43
99
125
71
228
69
286
295
272
100
143
118
110
85
116
173
163
149
301
285
212
53
298
306
310
247
186
200
121
234
103
267
256
274
311
14
104
206
76
192
128
109
282
178
259
237
243
61
119
44
271
112
27
114
95
264
40
66
77
308
37
184
289
102
312
45
140
165
159
203
73
160
273
20
191
236
22
138
280
132
204
12
297
299
296
74
294
293
24
93
67
214
62
187
201
38
164
291
26
238
284
241
2
208
215
225
209
175
281
245
188
248
86
194
307
133
242
101
287
162
221
51
239
59
88
279
141
11
135
151
246
276
170
58
136
123
79
108
134
92
211
94
147
39
205
97
49
233
304
153
142
122
6
218
229
269
155
115
197
57
68
70
182
150
219
176
181
60
302
33
207
120
158
21
83
167
54
292
283
148
216
235
275
90
202
55
87
15
81
171
232
35
23
146
262
210
172
161
290
36
222
13
3
305
18
50
107
260
189
261
268
7
224
154
190
252
174
166
253
255
19
257
288
25
251
46
34
56
117
139
80
131
41
156
309
52
105
227
130
195
145
64
226
75
48
220
65
111
231
266
168
249
42
126
17
199
180
106
183
16
29
240
30
223
63
82
137
277
8
230
9
177
113
28
254
32
263
127
96
10
303
250
5
91
129
72
244
198
124
193
144
4

> <PUBCHEM_MMFF94_PARTIAL_CHARGES>
52
1 1.45
10 -0.73
11 0.03
12 -0.8
13 0.36
14 0.06
15 0.36
16 0.3
17 0.36
18 0.57
2 -0.57
21 0.27
22 0.27
23 0.57
24 0.36
25 -0.01
26 0.18
27 -0.18
28 -0.15
29 -0.15
3 -0.57
30 0.57
32 -0.3
33 -0.15
34 -0.15
35 -0.15
36 -0.15
37 -0.15
38 -0.15
39 -0.15
4 -0.65
40 -0.15
5 -0.65
57 0.36
58 0.37
6 -0.57
62 0.15
63 0.15
64 0.15
65 0.15
66 0.15
67 0.27
68 0.15
69 0.37
7 -0.66
70 0.37
71 0.15
72 0.15
73 0.15
74 0.15
8 -0.85
9 -0.9

> <PUBCHEM_EFFECTIVE_ROTOR_COUNT>
12.4

> <PUBCHEM_PHARMACOPHORE_FEATURES>
16
1 10 donor
1 11 cation
1 11 donor
1 12 donor
1 2 acceptor
1 3 acceptor
1 4 acceptor
1 5 acceptor
1 6 acceptor
1 9 cation
1 9 donor
5 11 27 31 32 35 rings
6 25 28 29 33 34 36 rings
6 31 35 37 38 39 40 rings
6 7 8 13 15 16 17 rings
6 9 14 19 20 21 22 rings

> <PUBCHEM_HEAVY_ATOM_COUNT>
40

> <PUBCHEM_ATOM_DEF_STEREO_COUNT>
2

> <PUBCHEM_ATOM_UDEF_STEREO_COUNT>
0

> <PUBCHEM_BOND_DEF_STEREO_COUNT>
0

> <PUBCHEM_BOND_UDEF_STEREO_COUNT>
0

> <PUBCHEM_ISOTOPIC_ATOM_COUNT>
0

> <PUBCHEM_COMPONENT_COUNT>
1

> <PUBCHEM_CACTVS_TAUTO_COUNT>
4

> <PUBCHEM_CONFORMER_ID>
02B42A2B00000001

> <PUBCHEM_MMFF94_ENERGY>
77.2003

> <PUBCHEM_FEATURE_SELFOVERLAP>
81.309

> <PUBCHEM_SHAPE_FINGERPRINT>
10006869 2 18051974711126340951
102385 1 17688874133556857587
10439779 11 18123755519384795917
10930396 42 18194654130290032664
11456790 92 18188506743884000241
12104220 1 18412259502792424180
12422481 6 18411706460674732590
12788726 201 18337126600295611132
14394314 77 18411419467303226673
14705955 166 18271800178247197288
15131766 46 16055166195429939248
15200665 1 17977375037014472552
15328829 1 17458925803147044310
15439362 3 18050842518940292809
16112460 7 18269567181484225321
17980427 23 17987806344407960491
19311894 1 18410857706761165479
21796203 349 17975172904329011313
3493558 16 17844527927277406664
392239 28 18342738503085458096
469060 322 18267601112522498128
5171179 24 18268131232167622293
57527358 35 13492866723979227287
6004065 56 18341610460606703767
653340 110 18123475968674681848
7226269 152 18408603673442556206
79837 15 18121782725527169088
9896288 288 17980489953408294292
9961470 85 17978500164385695699

> <PUBCHEM_SHAPE_MULTIPOLES>
767.8
12.3
8.07
1.8
10.28
7.56
-0.13
-7.01
2.9
-1.93
1.99
-0.21
0.74
-0.36

> <PUBCHEM_SHAPE_SELFOVERLAP>
1639.173

> <PUBCHEM_SHAPE_VOLUME>
425.9

> <PUBCHEM_COORDINATE_TYPE>
2
5
10

$$$$
