75536925
  -OEChem-12032416323D

 44 46  0     1  0  0  0  0  0999 V2000
    3.9992    0.8074    1.3017 O   0  0  0  0  0  0  0  0  0  0  0  0
    2.0677   -1.9126   -0.2493 O   0  0  0  0  0  0  0  0  0  0  0  0
   -4.5094    0.7519    0.2495 O   0  0  0  0  0  0  0  0  0  0  0  0
    1.7414    1.7569   -0.2103 N   0  0  1  0  0  0  0  0  0  0  0  0
   -0.1396   -1.7213    0.4556 N   0  0  0  0  0  0  0  0  0  0  0  0
   -0.6585   -4.2786   -0.5725 N   0  0  0  0  0  0  0  0  0  0  0  0
    1.8653    0.4154   -0.7796 C   0  0  0  0  0  0  0  0  0  0  0  0
    2.2434   -0.6065    0.3007 C   0  0  2  0  0  0  0  0  0  0  0  0
    3.0005    2.5067   -0.1403 C   0  0  0  0  0  0  0  0  0  0  0  0
    0.7278    2.5452   -0.9121 C   0  0  0  0  0  0  0  0  0  0  0  0
    3.6672   -0.4965    0.8402 C   0  0  0  0  0  0  0  0  0  0  0  0
    4.2494    1.7108    0.2318 C   0  0  0  0  0  0  0  0  0  0  0  0
   -0.6664    2.0682   -0.6034 C   0  0  0  0  0  0  0  0  0  0  0  0
   -1.5021    1.6401   -1.6349 C   0  0  0  0  0  0  0  0  0  0  0  0
   -1.1222    2.0540    0.7149 C   0  0  0  0  0  0  0  0  0  0  0  0
    0.8162   -2.4550   -0.1483 C   0  0  0  0  0  0  0  0  0  0  0  0
   -2.7936    1.1982   -1.3484 C   0  0  0  0  0  0  0  0  0  0  0  0
   -2.4138    1.6121    1.0015 C   0  0  0  0  0  0  0  0  0  0  0  0
   -3.2494    1.1841   -0.0301 C   0  0  0  0  0  0  0  0  0  0  0  0
    0.5613   -3.7112   -0.6532 C   0  0  0  0  0  0  0  0  0  0  0  0
   -1.3594   -2.2888    0.5363 C   0  0  0  0  0  0  0  0  0  0  0  0
   -1.6142   -3.5448    0.0314 C   0  0  0  0  0  0  0  0  0  0  0  0
   -4.9108    0.7641    1.6188 C   0  0  0  0  0  0  0  0  0  0  0  0
    2.5806    0.3897   -1.6129 H   0  0  0  0  0  0  0  0  0  0  0  0
    0.9236    0.0888   -1.2350 H   0  0  0  0  0  0  0  0  0  0  0  0
    1.5983   -0.4481    1.1768 H   0  0  0  0  0  0  0  0  0  0  0  0
    2.8652    3.2892    0.6175 H   0  0  0  0  0  0  0  0  0  0  0  0
    3.2082    3.0181   -1.0896 H   0  0  0  0  0  0  0  0  0  0  0  0
    0.9172    2.5509   -1.9940 H   0  0  0  0  0  0  0  0  0  0  0  0
    0.7695    3.5959   -0.5920 H   0  0  0  0  0  0  0  0  0  0  0  0
    3.7717   -1.1795    1.6919 H   0  0  0  0  0  0  0  0  0  0  0  0
    4.4023   -0.8454    0.1032 H   0  0  0  0  0  0  0  0  0  0  0  0
    4.6684    1.1935   -0.6401 H   0  0  0  0  0  0  0  0  0  0  0  0
    5.0190    2.4115    0.5747 H   0  0  0  0  0  0  0  0  0  0  0  0
   -1.1600    1.6440   -2.6663 H   0  0  0  0  0  0  0  0  0  0  0  0
   -0.4835    2.3890    1.5281 H   0  0  0  0  0  0  0  0  0  0  0  0
   -3.4398    0.8649   -2.1559 H   0  0  0  0  0  0  0  0  0  0  0  0
   -2.7035    1.6273    2.0466 H   0  0  0  0  0  0  0  0  0  0  0  0
    1.3266   -4.3043   -1.1394 H   0  0  0  0  0  0  0  0  0  0  0  0
   -2.1275   -1.7024    1.0244 H   0  0  0  0  0  0  0  0  0  0  0  0
   -2.5945   -4.0003    0.0975 H   0  0  0  0  0  0  0  0  0  0  0  0
   -5.9389    0.3896    1.6575 H   0  0  0  0  0  0  0  0  0  0  0  0
   -4.9254    1.7812    2.0250 H   0  0  0  0  0  0  0  0  0  0  0  0
   -4.3001    0.0843    2.2228 H   0  0  0  0  0  0  0  0  0  0  0  0
  1 11  1  0  0  0  0
  1 12  1  0  0  0  0
  2  8  1  0  0  0  0
  2 16  1  0  0  0  0
  3 19  1  0  0  0  0
  3 23  1  0  0  0  0
  4  7  1  0  0  0  0
  4  9  1  0  0  0  0
  4 10  1  0  0  0  0
  5 16  2  0  0  0  0
  5 21  1  0  0  0  0
  6 20  2  0  0  0  0
  6 22  1  0  0  0  0
  7  8  1  0  0  0  0
  7 24  1  0  0  0  0
  7 25  1  0  0  0  0
  8 11  1  0  0  0  0
  8 26  1  0  0  0  0
  9 12  1  0  0  0  0
  9 27  1  0  0  0  0
  9 28  1  0  0  0  0
 10 13  1  0  0  0  0
 10 29  1  0  0  0  0
 10 30  1  0  0  0  0
 11 31  1  0  0  0  0
 11 32  1  0  0  0  0
 12 33  1  0  0  0  0
 12 34  1  0  0  0  0
 13 14  2  0  0  0  0
 13 15  1  0  0  0  0
 14 17  1  0  0  0  0
 14 35  1  0  0  0  0
 15 18  2  0  0  0  0
 15 36  1  0  0  0  0
 16 20  1  0  0  0  0
 17 19  2  0  0  0  0
 17 37  1  0  0  0  0
 18 19  1  0  0  0  0
 18 38  1  0  0  0  0
 20 39  1  0  0  0  0
 21 22  2  0  0  0  0
 21 40  1  0  0  0  0
 22 41  1  0  0  0  0
 23 42  1  0  0  0  0
 23 43  1  0  0  0  0
 23 44  1  0  0  0  0
M  END
> <PUBCHEM_COMPOUND_CID>
75536925

> <PUBCHEM_CONFORMER_RMSD>
0.8

> <PUBCHEM_CONFORMER_DIVERSEORDER>
5
232
219
151
61
67
68
223
119
262
173
128
253
122
106
224
256
115
26
174
98
245
222
6
205
146
211
141
192
137
118
213
89
271
150
9
101
196
227
181
136
221
198
92
233
214
148
235
186
12
55
238
142
44
179
20
132
204
105
152
250
231
164
116
140
220
189
69
268
203
200
218
172
17
138
63
265
258
252
259
270
226
11
103
96
184
263
175
199
120
195
114
153
260
169
38
78
243
188
228
144
239
127
117
82
28
257
81
30
40
70
244
255
85
156
176
269
162
170
3
134
234
237
74
177
254
18
182
10
130
72
39
123
139
100
79
4
50
126
91
147
215
261
225
93
216
149
266
31
108
194
155
145
208
1
8
35
178
75
246
247
66
185
45
113
107
183
86
56
59
104
90
87
22
27
33
97
58
95
48
65
80
51
13
77
249
43
110
125
42
60
163
207
201
212
29
251
161
7
88
240
180
109
165
166
15
34
111
242
193
248
135
46
94
159
23
217
2
52
241
171
124
168
131
57
202
143
73
167
99
49
157
76
112
47
24
210
64
158
191
267
37
41
54
187
102
62
236
32
197
121
14
230
53
36
16
229
264
25
84
190
129
160
154
133
206
71
83
209
19
21

> <PUBCHEM_MMFF94_PARTIAL_CHARGES>
30
1 -0.56
10 0.41
11 0.28
12 0.28
13 -0.14
14 -0.15
15 -0.15
16 0.39
17 -0.15
18 -0.15
19 0.08
2 -0.36
20 0.16
21 0.16
22 0.16
23 0.28
3 -0.36
35 0.15
36 0.15
37 0.15
38 0.15
39 0.15
4 -0.81
40 0.15
41 0.15
5 -0.62
6 -0.62
7 0.27
8 0.28
9 0.27

> <PUBCHEM_EFFECTIVE_ROTOR_COUNT>
6.4

> <PUBCHEM_PHARMACOPHORE_FEATURES>
7
1 1 acceptor
1 3 acceptor
1 4 cation
1 6 acceptor
6 13 14 15 17 18 19 rings
6 5 6 16 20 21 22 rings
7 1 4 7 8 9 11 12 rings

> <PUBCHEM_HEAVY_ATOM_COUNT>
23

> <PUBCHEM_ATOM_DEF_STEREO_COUNT>
1

> <PUBCHEM_ATOM_UDEF_STEREO_COUNT>
0

> <PUBCHEM_BOND_DEF_STEREO_COUNT>
0

> <PUBCHEM_BOND_UDEF_STEREO_COUNT>
0

> <PUBCHEM_ISOTOPIC_ATOM_COUNT>
0

> <PUBCHEM_COMPONENT_COUNT>
1

> <PUBCHEM_CACTVS_TAUTO_COUNT>
1

> <PUBCHEM_CONFORMER_ID>
04809A1D00000005

> <PUBCHEM_MMFF94_ENERGY>
83.3424

> <PUBCHEM_FEATURE_SELFOVERLAP>
35.522

> <PUBCHEM_SHAPE_FINGERPRINT>
10064457 181 18341897432466859344
104564 63 17904768026453913036
10675989 125 14524815673322334187
10871710 139 17684380833593417764
11370993 70 18411416194100394537
114674 6 18046918082477365691
11513181 2 18130519629204788423
12035758 1 18268421344624174298
12422481 6 18117584987906590795
12553582 1 16682311812788918806
12788726 201 17473563806577297149
13140716 1 18408603694953945922
13583140 156 16733524066739914424
138480 1 17690844458335673239
13965767 371 17837808811931213218
14178342 30 17908135478430465384
14466204 15 15098455056643654521
14787075 74 17988917907756687017
14863182 85 18263943067253036117
17138139 8 17626344113196075735
19591789 44 17978508638182629982
19734167 9 18128235956517219040
1979834 28 18192174662739202657
19930381 70 18194686969119340609
20028762 73 18200864106738017423
20261772 1 18261395584869275448
20905425 154 17403466658977683492
21197605 99 18264221373467600835
21236236 1 18120651594751528252
23419403 2 11982649754571273013
238 59 17901358153154353423
25147074 1 17897154948674116392
3052486 1 18045234979209218244
4340502 62 18342746238743622721
5282274 181 18336554896850719441
6287921 2 18128258870268151155
6438718 38 18058728159776993270
6443956 14 17832711175271767213
653340 110 17765429133884856456
7064713 232 18341612641801542889
7226269 152 16029310341246737540

> <PUBCHEM_SHAPE_MULTIPOLES>
440.78
7.08
4.94
1.24
1.35
6.16
-0.02
-4.5
2.99
0.05
-1.06
0.69
-0.49
0.03

> <PUBCHEM_SHAPE_SELFOVERLAP>
929.972

> <PUBCHEM_SHAPE_VOLUME>
244.9

> <PUBCHEM_COORDINATE_TYPE>
2
5
10

$$$$
