71693625
  -OEChem-12032416233D

 44 46  0     1  0  0  0  0  0999 V2000
    3.5173   -1.5198    0.5785 O   0  0  0  0  0  0  0  0  0  0  0  0
    3.8206    2.6092    0.4095 O   0  0  0  0  0  0  0  0  0  0  0  0
    7.0361   -1.0961    0.2149 O   0  0  0  0  0  0  0  0  0  0  0  0
   -3.4002    0.7831    1.6301 O   0  0  0  0  0  0  0  0  0  0  0  0
   -6.5768   -0.5642   -1.2309 O   0  0  0  0  0  0  0  0  0  0  0  0
    5.3111    0.2694   -0.5553 N   0  0  0  0  0  0  0  0  0  0  0  0
   -2.5730   -0.3121   -0.2791 N   0  0  0  0  0  0  0  0  0  0  0  0
   -5.1947   -0.5760   -1.0877 N   0  0  0  0  0  0  0  0  0  0  0  0
    3.8508    0.4903   -0.6936 C   0  0  1  0  0  0  0  0  0  0  0  0
    3.0758   -0.1662    0.4652 C   0  0  1  0  0  0  0  0  0  0  0  0
    1.5749   -0.2046    0.2669 C   0  0  0  0  0  0  0  0  0  0  0  0
    3.4896    1.9780   -0.8105 C   0  0  0  0  0  0  0  0  0  0  0  0
    4.8525   -1.5753    1.0197 C   0  0  0  0  0  0  0  0  0  0  0  0
    5.8407   -0.7970    0.1740 C   0  0  0  0  0  0  0  0  0  0  0  0
    6.2076    1.0490   -1.4048 C   0  0  0  0  0  0  0  0  0  0  0  0
    0.7310    0.3634    1.2213 C   0  0  0  0  0  0  0  0  0  0  0  0
    1.0362   -0.8080   -0.8695 C   0  0  0  0  0  0  0  0  0  0  0  0
   -0.6515    0.3277    1.0396 C   0  0  0  0  0  0  0  0  0  0  0  0
   -0.3463   -0.8438   -1.0513 C   0  0  0  0  0  0  0  0  0  0  0  0
   -1.1901   -0.2759   -0.0969 C   0  0  0  0  0  0  0  0  0  0  0  0
   -3.5678    0.2010    0.5639 C   0  0  0  0  0  0  0  0  0  0  0  0
   -4.9629    0.0316    0.0795 C   0  0  0  0  0  0  0  0  0  0  0  0
   -6.1488    0.4442    0.7111 C   0  0  0  0  0  0  0  0  0  0  0  0
   -7.1338    0.0459   -0.1535 C   0  0  0  0  0  0  0  0  0  0  0  0
   -8.5984    0.1462   -0.1408 C   0  0  0  0  0  0  0  0  0  0  0  0
    3.5991   -0.0020   -1.6414 H   0  0  0  0  0  0  0  0  0  0  0  0
    3.2986    0.3410    1.4142 H   0  0  0  0  0  0  0  0  0  0  0  0
    2.4187    2.1123   -0.9935 H   0  0  0  0  0  0  0  0  0  0  0  0
    4.0223    2.4735   -1.6274 H   0  0  0  0  0  0  0  0  0  0  0  0
    5.1565   -2.6272    1.0115 H   0  0  0  0  0  0  0  0  0  0  0  0
    4.9194   -1.2168    2.0534 H   0  0  0  0  0  0  0  0  0  0  0  0
    5.8589    0.9897   -2.4399 H   0  0  0  0  0  0  0  0  0  0  0  0
    7.2335    0.6734   -1.3623 H   0  0  0  0  0  0  0  0  0  0  0  0
    6.2124    2.0881   -1.0659 H   0  0  0  0  0  0  0  0  0  0  0  0
    1.1370    0.8375    2.1110 H   0  0  0  0  0  0  0  0  0  0  0  0
    1.6747   -1.2668   -1.6192 H   0  0  0  0  0  0  0  0  0  0  0  0
   -1.2372    0.7887    1.8222 H   0  0  0  0  0  0  0  0  0  0  0  0
   -0.7525   -1.3197   -1.9403 H   0  0  0  0  0  0  0  0  0  0  0  0
    3.5767    3.5465    0.3240 H   0  0  0  0  0  0  0  0  0  0  0  0
   -2.8884   -0.7658   -1.1340 H   0  0  0  0  0  0  0  0  0  0  0  0
   -6.2741    0.9552    1.6544 H   0  0  0  0  0  0  0  0  0  0  0  0
   -9.0526   -0.8489   -0.1733 H   0  0  0  0  0  0  0  0  0  0  0  0
   -8.9521    0.6507    0.7637 H   0  0  0  0  0  0  0  0  0  0  0  0
   -8.9527    0.7146   -1.0063 H   0  0  0  0  0  0  0  0  0  0  0  0
  1 10  1  0  0  0  0
  1 13  1  0  0  0  0
  2 12  1  0  0  0  0
  2 39  1  0  0  0  0
  3 14  2  0  0  0  0
  4 21  2  0  0  0  0
  5  8  1  0  0  0  0
  5 24  1  0  0  0  0
  6  9  1  0  0  0  0
  6 14  1  0  0  0  0
  6 15  1  0  0  0  0
  7 20  1  0  0  0  0
  7 21  1  0  0  0  0
  7 40  1  0  0  0  0
  8 22  2  0  0  0  0
  9 10  1  0  0  0  0
  9 12  1  0  0  0  0
  9 26  1  0  0  0  0
 10 11  1  0  0  0  0
 10 27  1  0  0  0  0
 11 16  2  0  0  0  0
 11 17  1  0  0  0  0
 12 28  1  0  0  0  0
 12 29  1  0  0  0  0
 13 14  1  0  0  0  0
 13 30  1  0  0  0  0
 13 31  1  0  0  0  0
 15 32  1  0  0  0  0
 15 33  1  0  0  0  0
 15 34  1  0  0  0  0
 16 18  1  0  0  0  0
 16 35  1  0  0  0  0
 17 19  2  0  0  0  0
 17 36  1  0  0  0  0
 18 20  2  0  0  0  0
 18 37  1  0  0  0  0
 19 20  1  0  0  0  0
 19 38  1  0  0  0  0
 21 22  1  0  0  0  0
 22 23  1  0  0  0  0
 23 24  2  0  0  0  0
 23 41  1  0  0  0  0
 24 25  1  0  0  0  0
 25 42  1  0  0  0  0
 25 43  1  0  0  0  0
 25 44  1  0  0  0  0
M  END
> <PUBCHEM_COMPOUND_CID>
71693625

> <PUBCHEM_CONFORMER_RMSD>
0.8

> <PUBCHEM_CONFORMER_DIVERSEORDER>
1
22
28
29
21
5
25
3
16
8
19
24
23
26
13
14
11
27
15
9
4
17
12
18
2
7
6
20
10

> <PUBCHEM_MMFF94_PARTIAL_CHARGES>
32
1 -0.56
10 0.42
11 -0.14
12 0.28
13 0.34
14 0.57
15 0.3
16 -0.15
17 -0.15
18 -0.15
19 -0.15
2 -0.68
20 0.12
21 0.72
22 0.2
23 -0.15
24 -0.04
25 0.18
3 -0.57
35 0.15
36 0.15
37 0.15
38 0.15
39 0.4
4 -0.57
40 0.37
41 0.15
5 -0.02
6 -0.66
7 -0.55
8 -0.41
9 0.3

> <PUBCHEM_EFFECTIVE_ROTOR_COUNT>
6

> <PUBCHEM_PHARMACOPHORE_FEATURES>
10
1 1 acceptor
1 2 acceptor
1 2 donor
1 3 acceptor
1 4 acceptor
1 7 donor
1 8 acceptor
5 5 8 22 23 24 rings
6 1 6 9 10 13 14 rings
6 11 16 17 18 19 20 rings

> <PUBCHEM_HEAVY_ATOM_COUNT>
25

> <PUBCHEM_ATOM_DEF_STEREO_COUNT>
2

> <PUBCHEM_ATOM_UDEF_STEREO_COUNT>
0

> <PUBCHEM_BOND_DEF_STEREO_COUNT>
0

> <PUBCHEM_BOND_UDEF_STEREO_COUNT>
0

> <PUBCHEM_ISOTOPIC_ATOM_COUNT>
0

> <PUBCHEM_COMPONENT_COUNT>
1

> <PUBCHEM_CACTVS_TAUTO_COUNT>
4

> <PUBCHEM_CONFORMER_ID>
0445F53900000001

> <PUBCHEM_MMFF94_ENERGY>
61.5418

> <PUBCHEM_FEATURE_SELFOVERLAP>
50.749

> <PUBCHEM_SHAPE_FINGERPRINT>
10299344 5 18413107260691147735
11045977 3 17531253893169940041
11315181 36 17967819349883673545
11646440 116 15482672394442057571
11719270 70 17632577119759744623
11963148 33 17418085529801375111
12166972 35 18411981373189743817
12236239 1 18272370875736005490
12516196 113 16153709825530779767
12730499 353 17167861954990807594
13073987 5 14045473197634043962
13533116 47 18114457881678066674
14123256 10 17561083597030408031
14170010 4 18187364342396560728
14251764 18 18272652346080197305
14251764 46 18410291398575114282
14294032 229 17487357962043895633
14933364 13 17676206870947256093
15183329 4 18131075939364998757
15419008 47 16732978726469029509
15849732 13 14908177556170685197
20157964 124 17967535675150497110
20771845 171 18341625789224210414
21033648 29 16661210381003282768
21150785 3 17917996091991989688
21267235 1 16917069988909976491
21315759 40 17989488502429881755
21344244 78 18266442240973650322
21781051 124 17632020861497265167
221357 26 17894910711675061708
22224240 67 14996283647670795729
22956985 138 17342109104491829878
23035841 295 17704071803120831239
23522609 53 17845117180354827769
23559900 14 17530970210680395816
249057 3 18261112989270253022
255183 451 18125446298641015886
29717793 49 18060706095448782444
3004659 81 17918277566979334376
3411729 13 14130208285985436902
34797466 226 16950567679052686871
3545911 37 15574714686420134635
397830 11 16879086315497890841
4073 2 17168153376547533618
4325135 7 18131633374822868989
5283156 175 18131071507048231731
54446538 1 18343586235077123793
59755656 215 15647050439176890355
59755656 520 18335977641111016823

> <PUBCHEM_SHAPE_MULTIPOLES>
470.2
21.57
1.41
1.21
25.78
0.55
-0.03
0.09
3.03
-3.16
-0.08
0.32
0.07
-1.15

> <PUBCHEM_SHAPE_SELFOVERLAP>
1003.224

> <PUBCHEM_SHAPE_VOLUME>
260.6

> <PUBCHEM_COORDINATE_TYPE>
2
5
10

$$$$
