44716362
  -OEChem-12032416163D

 68 73  0     1  0  0  0  0  0999 V2000
   -8.4560   -1.7965    0.5659 F   0  0  0  0  0  0  0  0  0  0  0  0
   -6.9097   -1.7927    2.0946 F   0  0  0  0  0  0  0  0  0  0  0  0
   -8.0760   -0.0006    1.7313 F   0  0  0  0  0  0  0  0  0  0  0  0
   -1.4490    2.6108   -0.1758 O   0  0  0  0  0  0  0  0  0  0  0  0
   -2.1924    1.7273   -2.1498 O   0  0  0  0  0  0  0  0  0  0  0  0
    1.6231    4.6882   -0.4606 N   0  0  2  0  0  0  0  0  0  0  0  0
    5.0152    1.3506   -0.4122 N   0  0  0  0  0  0  0  0  0  0  0  0
    5.2123    0.0275   -0.5406 N   0  0  0  0  0  0  0  0  0  0  0  0
   -3.3393    1.3887   -0.1373 N   0  0  0  0  0  0  0  0  0  0  0  0
    2.4742    3.4031    1.6388 C   0  0  2  0  0  0  0  0  0  0  0  0
    3.3885    3.1136    0.4163 C   0  0  2  0  0  0  0  0  0  0  0  0
    0.4996    3.9485    0.1727 C   0  0  2  0  0  0  0  0  0  0  0  0
    1.0204    3.0198    1.2906 C   0  0  0  0  0  0  0  0  0  0  0  0
    2.4995    4.9305    1.8618 C   0  0  0  0  0  0  0  0  0  0  0  0
    2.7076    3.7452   -0.8315 C   0  0  0  0  0  0  0  0  0  0  0  0
    2.1607    5.6412    0.5398 C   0  0  0  0  0  0  0  0  0  0  0  0
    3.8256    1.6766    0.1702 C   0  0  0  0  0  0  0  0  0  0  0  0
   -0.3485    3.1897   -0.8502 C   0  0  0  0  0  0  0  0  0  0  0  0
    3.2010    0.4838    0.4413 C   0  0  0  0  0  0  0  0  0  0  0  0
    4.1008   -0.4969   -0.0173 C   0  0  0  0  0  0  0  0  0  0  0  0
    6.0308    2.2643   -0.8820 C   0  0  0  0  0  0  0  0  0  0  0  0
    3.9183   -1.9240    0.0331 C   0  0  0  0  0  0  0  0  0  0  0  0
   -2.3310    1.8818   -0.9425 C   0  0  0  0  0  0  0  0  0  0  0  0
    2.6343   -2.4655   -0.0346 C   0  0  0  0  0  0  0  0  0  0  0  0
    5.0229   -2.7627    0.1487 C   0  0  0  0  0  0  0  0  0  0  0  0
    2.4394   -3.8555    0.0127 C   0  0  0  0  0  0  0  0  0  0  0  0
    4.8479   -4.1460    0.1972 C   0  0  0  0  0  0  0  0  0  0  0  0
    3.5627   -4.7083    0.1303 C   0  0  0  0  0  0  0  0  0  0  0  0
   -4.4447    0.5932   -0.5155 C   0  0  0  0  0  0  0  0  0  0  0  0
    1.1542   -4.4179   -0.0540 C   0  0  0  0  0  0  0  0  0  0  0  0
    3.3677   -6.0983    0.1778 C   0  0  0  0  0  0  0  0  0  0  0  0
   -5.3715    0.1853    0.4438 C   0  0  0  0  0  0  0  0  0  0  0  0
   -4.6089    0.2166   -1.8485 C   0  0  0  0  0  0  0  0  0  0  0  0
    0.9790   -5.8011   -0.0055 C   0  0  0  0  0  0  0  0  0  0  0  0
    2.0837   -6.6398    0.1103 C   0  0  0  0  0  0  0  0  0  0  0  0
   -6.4625   -0.5993    0.0701 C   0  0  0  0  0  0  0  0  0  0  0  0
   -5.6999   -0.5683   -2.2221 C   0  0  0  0  0  0  0  0  0  0  0  0
   -6.6267   -0.9762   -1.2629 C   0  0  0  0  0  0  0  0  0  0  0  0
   -7.4534   -1.0367    1.0953 C   0  0  0  0  0  0  0  0  0  0  0  0
    2.8151    2.8707    2.5330 H   0  0  0  0  0  0  0  0  0  0  0  0
    4.3133    3.6790    0.6059 H   0  0  0  0  0  0  0  0  0  0  0  0
   -0.1767    4.6807    0.6385 H   0  0  0  0  0  0  0  0  0  0  0  0
    0.3915    3.1437    2.1815 H   0  0  0  0  0  0  0  0  0  0  0  0
    0.9419    1.9708    1.0017 H   0  0  0  0  0  0  0  0  0  0  0  0
    1.7741    5.2061    2.6369 H   0  0  0  0  0  0  0  0  0  0  0  0
    3.4872    5.2502    2.2140 H   0  0  0  0  0  0  0  0  0  0  0  0
    3.4622    4.2897   -1.4145 H   0  0  0  0  0  0  0  0  0  0  0  0
    2.3292    2.9778   -1.5166 H   0  0  0  0  0  0  0  0  0  0  0  0
    1.4333    6.4416    0.7231 H   0  0  0  0  0  0  0  0  0  0  0  0
    3.0513    6.1402    0.1370 H   0  0  0  0  0  0  0  0  0  0  0  0
   -0.7154    3.8834   -1.6166 H   0  0  0  0  0  0  0  0  0  0  0  0
    0.2276    2.3963   -1.3390 H   0  0  0  0  0  0  0  0  0  0  0  0
    2.2453    0.3322    0.9178 H   0  0  0  0  0  0  0  0  0  0  0  0
    5.5750    2.9693   -1.5805 H   0  0  0  0  0  0  0  0  0  0  0  0
    6.8165    1.7022   -1.3944 H   0  0  0  0  0  0  0  0  0  0  0  0
    6.4536    2.7843   -0.0192 H   0  0  0  0  0  0  0  0  0  0  0  0
    1.7651   -1.8173   -0.1367 H   0  0  0  0  0  0  0  0  0  0  0  0
    6.0350   -2.3701    0.2121 H   0  0  0  0  0  0  0  0  0  0  0  0
   -3.2824    1.6257    0.8502 H   0  0  0  0  0  0  0  0  0  0  0  0
    5.7254   -4.7827    0.2896 H   0  0  0  0  0  0  0  0  0  0  0  0
    0.2760   -3.7819   -0.1445 H   0  0  0  0  0  0  0  0  0  0  0  0
    4.2167   -6.7728    0.2681 H   0  0  0  0  0  0  0  0  0  0  0  0
   -5.2468    0.4770    1.4843 H   0  0  0  0  0  0  0  0  0  0  0  0
   -3.9334    0.4941   -2.6457 H   0  0  0  0  0  0  0  0  0  0  0  0
   -0.0203   -6.2233   -0.0580 H   0  0  0  0  0  0  0  0  0  0  0  0
    1.9466   -7.7165    0.1481 H   0  0  0  0  0  0  0  0  0  0  0  0
   -5.8286   -0.8622   -3.2599 H   0  0  0  0  0  0  0  0  0  0  0  0
   -7.4692   -1.5871   -1.5748 H   0  0  0  0  0  0  0  0  0  0  0  0
  1 39  1  0  0  0  0
  2 39  1  0  0  0  0
  3 39  1  0  0  0  0
  4 18  1  0  0  0  0
  4 23  1  0  0  0  0
  5 23  2  0  0  0  0
  6 12  1  0  0  0  0
  6 15  1  0  0  0  0
  6 16  1  0  0  0  0
  7  8  1  0  0  0  0
  7 17  1  0  0  0  0
  7 21  1  0  0  0  0
  8 20  2  0  0  0  0
  9 23  1  0  0  0  0
  9 29  1  0  0  0  0
  9 59  1  0  0  0  0
 10 11  1  0  0  0  0
 10 13  1  0  0  0  0
 10 14  1  0  0  0  0
 10 40  1  0  0  0  0
 11 15  1  0  0  0  0
 11 17  1  0  0  0  0
 11 41  1  0  0  0  0
 12 13  1  0  0  0  0
 12 18  1  0  0  0  0
 12 42  1  0  0  0  0
 13 43  1  0  0  0  0
 13 44  1  0  0  0  0
 14 16  1  0  0  0  0
 14 45  1  0  0  0  0
 14 46  1  0  0  0  0
 15 47  1  0  0  0  0
 15 48  1  0  0  0  0
 16 49  1  0  0  0  0
 16 50  1  0  0  0  0
 17 19  2  0  0  0  0
 18 51  1  0  0  0  0
 18 52  1  0  0  0  0
 19 20  1  0  0  0  0
 19 53  1  0  0  0  0
 20 22  1  0  0  0  0
 21 54  1  0  0  0  0
 21 55  1  0  0  0  0
 21 56  1  0  0  0  0
 22 24  2  0  0  0  0
 22 25  1  0  0  0  0
 24 26  1  0  0  0  0
 24 57  1  0  0  0  0
 25 27  2  0  0  0  0
 25 58  1  0  0  0  0
 26 28  1  0  0  0  0
 26 30  2  0  0  0  0
 27 28  1  0  0  0  0
 27 60  1  0  0  0  0
 28 31  2  0  0  0  0
 29 32  1  0  0  0  0
 29 33  2  0  0  0  0
 30 34  1  0  0  0  0
 30 61  1  0  0  0  0
 31 35  1  0  0  0  0
 31 62  1  0  0  0  0
 32 36  2  0  0  0  0
 32 63  1  0  0  0  0
 33 37  1  0  0  0  0
 33 64  1  0  0  0  0
 34 35  2  0  0  0  0
 34 65  1  0  0  0  0
 35 66  1  0  0  0  0
 36 38  1  0  0  0  0
 36 39  1  0  0  0  0
 37 38  2  0  0  0  0
 37 67  1  0  0  0  0
 38 68  1  0  0  0  0
M  END
> <PUBCHEM_COMPOUND_CID>
44716362

> <PUBCHEM_CONFORMER_RMSD>
1.4

> <PUBCHEM_CONFORMER_DIVERSEORDER>
1
21
92
87
56
61
17
84
6
93
25
32
78
57
33
28
50
9
16
79
77
19
60
43
44
76
39
80
35
31
40
8
41
30
94
51
101
46
53
12
47
3
69
26
2
83
22
42
58
99
15
66
113
20
5
65
118
4
55
7
34
45
11
107
27
73
74
24
75
13
37
90
62
49
81
117
59
64
111
104
71
72
67
86
18
96
52
36
10
110
108
114
98
89
95
106
82
54
97
103
116
29
105
68
23
100
70
102
109
14
48
112
91
115
38
85
88
63

> <PUBCHEM_MMFF94_PARTIAL_CHARGES>
47
1 -0.34
11 0.18
12 0.27
15 0.27
16 0.27
17 -0.33
18 0.28
19 -0.15
2 -0.34
20 0.23
21 0.26
22 0.05
23 0.78
24 -0.15
25 -0.15
27 -0.15
29 0.12
3 -0.34
30 -0.15
31 -0.15
32 -0.15
33 -0.15
34 -0.15
35 -0.15
36 -0.14
37 -0.15
38 -0.15
39 1.16
4 -0.43
5 -0.57
53 0.15
57 0.15
58 0.15
59 0.37
6 -0.81
60 0.15
61 0.15
62 0.15
63 0.15
64 0.15
65 0.15
66 0.15
67 0.15
68 0.15
7 0.31
8 -0.71
9 -0.55

> <PUBCHEM_EFFECTIVE_ROTOR_COUNT>
9.2

> <PUBCHEM_PHARMACOPHORE_FEATURES>
9
1 5 acceptor
1 6 cation
1 8 acceptor
1 9 donor
5 7 8 17 19 20 rings
6 22 24 25 26 27 28 rings
6 26 28 30 31 34 35 rings
6 29 32 33 36 37 38 rings
8 6 10 11 12 13 14 15 16 rings

> <PUBCHEM_HEAVY_ATOM_COUNT>
39

> <PUBCHEM_ATOM_DEF_STEREO_COUNT>
3

> <PUBCHEM_ATOM_UDEF_STEREO_COUNT>
0

> <PUBCHEM_BOND_DEF_STEREO_COUNT>
0

> <PUBCHEM_BOND_UDEF_STEREO_COUNT>
0

> <PUBCHEM_ISOTOPIC_ATOM_COUNT>
0

> <PUBCHEM_COMPONENT_COUNT>
1

> <PUBCHEM_CACTVS_TAUTO_COUNT>
2

> <PUBCHEM_CONFORMER_ID>
02AA514A00000001

> <PUBCHEM_MMFF94_ENERGY>
102.9424

> <PUBCHEM_FEATURE_SELFOVERLAP>
45.699

> <PUBCHEM_SHAPE_FINGERPRINT>
10075450 59 17986405386565225143
10462674 296 17835233446667368910
10838868 229 18337393722177667337
11093857 5 17404016423883497264
11285246 1 17539974974910044594
117089 54 18267023851568734230
11828042 200 18122075204638438958
12841400 136 18191299382427120199
13553639 21 18333731295711086875
1361 2 18411133679646438128
14400156 147 17768535989648735606
14904385 45 18194677069425601087
15320467 1 18410568496257756262
15400415 2 17834669770991328437
15483637 11 17545598315640587212
15538507 19 17688024215333062098
19301676 85 17689984645281538477
19311894 1 17184185042328898394
19319366 153 18128242591989080748
20156587 191 18189888731300957917
21057603 40 18266467684165518883
24893989 43 17701253878492439606
2835820 90 17749688371462065683
3044373 233 18262530173801095091
3991529 202 18266757792463500049
4435113 14 18040161708342270171
5309563 4 18268986493057129220
56611832 218 17901388119527508091
6201460 15 17978233751501258646
86090 222 18113903779499349235
9831232 110 18335139817402921197

> <PUBCHEM_SHAPE_MULTIPOLES>
749.12
18.32
10.97
1.47
47.26
8
-0.01
11.68
2.09
-19.13
2.21
2.55
-0.89
1.19

> <PUBCHEM_SHAPE_SELFOVERLAP>
1654.858

> <PUBCHEM_SHAPE_VOLUME>
403.6

> <PUBCHEM_COORDINATE_TYPE>
2
5
10

$$$$
