45783461
  -OEChem-12032416203D

 49 52  0     1  0  0  0  0  0999 V2000
   -2.5154   -2.1279    0.6841 O   0  0  0  0  0  0  0  0  0  0  0  0
    3.8872   -0.2481   -1.2258 O   0  0  0  0  0  0  0  0  0  0  0  0
    5.3459    1.9219   -0.2205 O   0  0  0  0  0  0  0  0  0  0  0  0
   -3.4014    1.1222   -0.7848 N   0  0  1  0  0  0  0  0  0  0  0  0
   -1.1174   -0.7636   -0.4120 N   0  0  0  0  0  0  0  0  0  0  0  0
   -2.1710    1.4651    2.5048 N   0  0  0  0  0  0  0  0  0  0  0  0
   -0.9790    2.2053    0.7835 N   0  0  0  0  0  0  0  0  0  0  0  0
   -1.2255   -2.6194    0.9215 N   0  0  0  0  0  0  0  0  0  0  0  0
    1.4989   -2.9112    0.8893 N   0  0  0  0  0  0  0  0  0  0  0  0
   -3.6287   -0.3113   -0.5134 C   0  0  1  0  0  0  0  0  0  0  0  0
   -4.2397   -0.8636   -1.8146 C   0  0  0  0  0  0  0  0  0  0  0  0
   -4.3737    0.3419   -2.7341 C   0  0  0  0  0  0  0  0  0  0  0  0
   -4.3991    1.5181   -1.7789 C   0  0  0  0  0  0  0  0  0  0  0  0
   -3.4620    1.9502    0.4127 C   0  0  0  0  0  0  0  0  0  0  0  0
   -2.3617   -1.0354   -0.1091 C   0  0  0  0  0  0  0  0  0  0  0  0
   -2.1828    1.8861    1.2042 C   0  0  0  0  0  0  0  0  0  0  0  0
   -0.4571   -1.7623    0.2426 C   0  0  0  0  0  0  0  0  0  0  0  0
   -0.8771    1.5194    2.9413 C   0  0  0  0  0  0  0  0  0  0  0  0
   -0.1605    1.9791    1.8617 C   0  0  0  0  0  0  0  0  0  0  0  0
    0.9720   -1.8764    0.1971 C   0  0  0  0  0  0  0  0  0  0  0  0
    1.7238   -0.9620   -0.5230 C   0  0  0  0  0  0  0  0  0  0  0  0
    3.1053   -1.1196   -0.5332 C   0  0  0  0  0  0  0  0  0  0  0  0
    2.8451   -3.0323    0.8562 C   0  0  0  0  0  0  0  0  0  0  0  0
    3.6846   -2.1720    0.1671 C   0  0  0  0  0  0  0  0  0  0  0  0
    3.4096    1.0905   -1.3567 C   0  0  0  0  0  0  0  0  0  0  0  0
    4.5949    2.0344   -1.4233 C   0  0  0  0  0  0  0  0  0  0  0  0
    6.4849    2.7709   -0.2368 C   0  0  0  0  0  0  0  0  0  0  0  0
   -4.3727   -0.4426    0.2848 H   0  0  0  0  0  0  0  0  0  0  0  0
   -3.6393   -1.6485   -2.2872 H   0  0  0  0  0  0  0  0  0  0  0  0
   -5.2335   -1.2791   -1.6076 H   0  0  0  0  0  0  0  0  0  0  0  0
   -5.2706    0.2885   -3.3582 H   0  0  0  0  0  0  0  0  0  0  0  0
   -3.5009    0.4049   -3.3957 H   0  0  0  0  0  0  0  0  0  0  0  0
   -5.3966    1.6256   -1.3341 H   0  0  0  0  0  0  0  0  0  0  0  0
   -4.1313    2.4515   -2.2835 H   0  0  0  0  0  0  0  0  0  0  0  0
   -4.3312    1.7089    1.0378 H   0  0  0  0  0  0  0  0  0  0  0  0
   -3.5772    3.0035    0.1223 H   0  0  0  0  0  0  0  0  0  0  0  0
   -2.9709    1.1658    3.0466 H   0  0  0  0  0  0  0  0  0  0  0  0
   -0.5960    1.2341    3.9445 H   0  0  0  0  0  0  0  0  0  0  0  0
    0.9036    2.1562    1.8046 H   0  0  0  0  0  0  0  0  0  0  0  0
    1.2383   -0.1692   -1.0820 H   0  0  0  0  0  0  0  0  0  0  0  0
    3.2471   -3.8688    1.4182 H   0  0  0  0  0  0  0  0  0  0  0  0
    4.7590   -2.3189    0.1769 H   0  0  0  0  0  0  0  0  0  0  0  0
    2.8070    1.3835   -0.4871 H   0  0  0  0  0  0  0  0  0  0  0  0
    2.8111    1.1735   -2.2703 H   0  0  0  0  0  0  0  0  0  0  0  0
    5.2370    1.7617   -2.2689 H   0  0  0  0  0  0  0  0  0  0  0  0
    4.2467    3.0654   -1.5500 H   0  0  0  0  0  0  0  0  0  0  0  0
    6.1819    3.8181   -0.3322 H   0  0  0  0  0  0  0  0  0  0  0  0
    7.0197    2.6474    0.7088 H   0  0  0  0  0  0  0  0  0  0  0  0
    7.1568    2.4964   -1.0558 H   0  0  0  0  0  0  0  0  0  0  0  0
  1  8  1  0  0  0  0
  1 15  1  0  0  0  0
  2 22  1  0  0  0  0
  2 25  1  0  0  0  0
  3 26  1  0  0  0  0
  3 27  1  0  0  0  0
  4 10  1  0  0  0  0
  4 13  1  0  0  0  0
  4 14  1  0  0  0  0
  5 15  2  0  0  0  0
  5 17  1  0  0  0  0
  6 16  1  0  0  0  0
  6 18  1  0  0  0  0
  6 37  1  0  0  0  0
  7 16  2  0  0  0  0
  7 19  1  0  0  0  0
  8 17  2  0  0  0  0
  9 20  2  0  0  0  0
  9 23  1  0  0  0  0
 10 11  1  0  0  0  0
 10 15  1  0  0  0  0
 10 28  1  0  0  0  0
 11 12  1  0  0  0  0
 11 29  1  0  0  0  0
 11 30  1  0  0  0  0
 12 13  1  0  0  0  0
 12 31  1  0  0  0  0
 12 32  1  0  0  0  0
 13 33  1  0  0  0  0
 13 34  1  0  0  0  0
 14 16  1  0  0  0  0
 14 35  1  0  0  0  0
 14 36  1  0  0  0  0
 17 20  1  0  0  0  0
 18 19  2  0  0  0  0
 18 38  1  0  0  0  0
 19 39  1  0  0  0  0
 20 21  1  0  0  0  0
 21 22  2  0  0  0  0
 21 40  1  0  0  0  0
 22 24  1  0  0  0  0
 23 24  2  0  0  0  0
 23 41  1  0  0  0  0
 24 42  1  0  0  0  0
 25 26  1  0  0  0  0
 25 43  1  0  0  0  0
 25 44  1  0  0  0  0
 26 45  1  0  0  0  0
 26 46  1  0  0  0  0
 27 47  1  0  0  0  0
 27 48  1  0  0  0  0
 27 49  1  0  0  0  0
M  END
> <PUBCHEM_COMPOUND_CID>
45783461

> <PUBCHEM_CONFORMER_RMSD>
1

> <PUBCHEM_CONFORMER_DIVERSEORDER>
1
16
20
55
67
41
18
23
3
50
22
76
57
53
26
49
62
72
7
48
75
13
60
33
52
39
44
73
79
51
15
63
28
47
54
25
70
43
14
19
9
78
66
21
30
32
4
68
2
65
64
58
77
61
40
29
31
71
17
36
6
56
35
10
8
34
24
74
38
11
59
37
46
5
42
27
69
12
45

> <PUBCHEM_MMFF94_PARTIAL_CHARGES>
31
1 -0.02
10 0.45
13 0.27
14 0.45
15 0.3
16 0.01
17 0.46
18 -0.3
19 0.08
2 -0.36
20 0.36
21 -0.15
22 0.08
23 0.16
24 -0.15
25 0.28
26 0.28
27 0.28
3 -0.56
37 0.27
38 0.15
39 0.15
4 -0.81
40 0.15
41 0.15
42 0.15
5 -0.57
6 0.03
7 -0.57
8 -0.41
9 -0.62

> <PUBCHEM_EFFECTIVE_ROTOR_COUNT>
9

> <PUBCHEM_PHARMACOPHORE_FEATURES>
11
1 2 acceptor
1 3 acceptor
1 4 cation
1 6 donor
1 9 acceptor
3 5 8 17 cation
3 6 7 16 cation
5 1 5 8 15 17 rings
5 4 10 11 12 13 rings
5 6 7 16 18 19 rings
6 9 20 21 22 23 24 rings

> <PUBCHEM_HEAVY_ATOM_COUNT>
27

> <PUBCHEM_ATOM_DEF_STEREO_COUNT>
1

> <PUBCHEM_ATOM_UDEF_STEREO_COUNT>
0

> <PUBCHEM_BOND_DEF_STEREO_COUNT>
0

> <PUBCHEM_BOND_UDEF_STEREO_COUNT>
0

> <PUBCHEM_ISOTOPIC_ATOM_COUNT>
0

> <PUBCHEM_COMPONENT_COUNT>
1

> <PUBCHEM_CACTVS_TAUTO_COUNT>
1

> <PUBCHEM_CONFORMER_ID>
02BA99A500000001

> <PUBCHEM_MMFF94_ENERGY>
50.0929

> <PUBCHEM_FEATURE_SELFOVERLAP>
55.828

> <PUBCHEM_SHAPE_FINGERPRINT>
11582403 64 16660906851348076861
11725454 13 16515965844388302543
12166972 35 18047735027758500794
12788726 201 17631744746528963785
13583140 156 17169290151327393858
14468879 13 17313109652458695573
14931854 50 18343581867084867228
17349148 13 18124870157898457666
17980427 23 18127123066504580898
1813 80 16414898830263403559
192875 21 18121490263443957571
20775438 99 17122210387036186703
21033648 144 18260830384416334014
21033648 29 16733263448176985631
21095088 737 18343309179732381008
212916 134 14201682988341290207
22907989 373 17917438605089444803
23557571 272 16628815302563251315
23559900 14 18336823083742721238
394222 165 17894620457695637994
469060 322 17680456590446314323
5265222 85 17407924014819773297
6034566 193 17534936222537440924
9981440 41 18114746057215313386

> <PUBCHEM_SHAPE_MULTIPOLES>
508.15
10.94
3.74
2.28
10.24
0.7
-0.49
-7.04
7.13
3.47
-1.34
-2.3
-1.37
-1.74

> <PUBCHEM_SHAPE_SELFOVERLAP>
1089.802

> <PUBCHEM_SHAPE_VOLUME>
281

> <PUBCHEM_COORDINATE_TYPE>
2
5
10

$$$$
