11912407
  -OEChem-12032416113D

 63 65  0     1  0  0  0  0  0999 V2000
    2.6005   -1.4488   -0.7612 O   0  0  0  0  0  0  0  0  0  0  0  0
   -4.3905    0.6114    1.6869 O   0  0  0  0  0  0  0  0  0  0  0  0
    6.6042   -1.1980    0.4260 O   0  0  0  0  0  0  0  0  0  0  0  0
    8.1537    0.3254   -0.3339 O   0  0  0  0  0  0  0  0  0  0  0  0
    0.4274   -0.6908   -0.9763 N   0  0  0  0  0  0  0  0  0  0  0  0
    2.2061    0.8369   -0.7201 N   0  0  0  0  0  0  0  0  0  0  0  0
   -5.4359   -0.9331    0.2588 N   0  0  0  0  0  0  0  0  0  0  0  0
   -2.2474   -1.2015    0.0033 C   0  0  1  0  0  0  0  0  0  0  0  0
   -1.6449    0.2283    0.0269 C   0  0  2  0  0  0  0  0  0  0  0  0
   -1.1530   -2.2840    0.0270 C   0  0  0  0  0  0  0  0  0  0  0  0
   -0.5938    0.3615   -1.0879 C   0  0  0  0  0  0  0  0  0  0  0  0
   -0.1090   -2.0498   -1.0640 C   0  0  0  0  0  0  0  0  0  0  0  0
   -1.0464    0.6318    1.3794 C   0  0  0  0  0  0  0  0  0  0  0  0
   -3.2671   -1.4414    1.1163 C   0  0  0  0  0  0  0  0  0  0  0  0
   -0.5934    2.0766    1.3679 C   0  0  0  0  0  0  0  0  0  0  0  0
    1.8169   -0.4980   -0.8236 C   0  0  0  0  0  0  0  0  0  0  0  0
   -4.4149   -0.4497    1.0721 C   0  0  0  0  0  0  0  0  0  0  0  0
    3.5064    1.3354   -0.4584 C   0  0  0  0  0  0  0  0  0  0  0  0
   -6.6703   -0.3085   -0.0393 C   0  0  0  0  0  0  0  0  0  0  0  0
    4.5820    0.4555   -0.3771 C   0  0  0  0  0  0  0  0  0  0  0  0
    3.7004    2.7029   -0.2850 C   0  0  0  0  0  0  0  0  0  0  0  0
   -7.5687   -0.9490   -0.8765 C   0  0  0  0  0  0  0  0  0  0  0  0
   -6.9535    0.9301    0.5117 C   0  0  0  0  0  0  0  0  0  0  0  0
    5.8619    0.9471   -0.1202 C   0  0  0  0  0  0  0  0  0  0  0  0
    4.9802    3.1944   -0.0281 C   0  0  0  0  0  0  0  0  0  0  0  0
   -8.7852   -0.3333   -1.1707 C   0  0  0  0  0  0  0  0  0  0  0  0
   -8.1701    1.5458    0.2174 C   0  0  0  0  0  0  0  0  0  0  0  0
    6.0610    2.3165    0.0543 C   0  0  0  0  0  0  0  0  0  0  0  0
   -9.0860    0.9141   -0.6239 C   0  0  0  0  0  0  0  0  0  0  0  0
    6.9889    0.0323   -0.0329 C   0  0  0  0  0  0  0  0  0  0  0  0
    7.6289   -2.1891    0.5572 C   0  0  0  0  0  0  0  0  0  0  0  0
    7.0116   -3.4712    1.0740 C   0  0  0  0  0  0  0  0  0  0  0  0
   -2.7773   -1.3036   -0.9555 H   0  0  0  0  0  0  0  0  0  0  0  0
   -2.4498    0.9369   -0.2109 H   0  0  0  0  0  0  0  0  0  0  0  0
   -0.6587   -2.2911    1.0065 H   0  0  0  0  0  0  0  0  0  0  0  0
   -1.6018   -3.2749   -0.1101 H   0  0  0  0  0  0  0  0  0  0  0  0
   -0.2027    1.3729   -1.1566 H   0  0  0  0  0  0  0  0  0  0  0  0
   -1.0860    0.1978   -2.0568 H   0  0  0  0  0  0  0  0  0  0  0  0
    0.6862   -2.7964   -0.9766 H   0  0  0  0  0  0  0  0  0  0  0  0
   -0.5575   -2.1660   -2.0577 H   0  0  0  0  0  0  0  0  0  0  0  0
   -0.2047   -0.0119    1.6570 H   0  0  0  0  0  0  0  0  0  0  0  0
   -1.7898    0.5343    2.1754 H   0  0  0  0  0  0  0  0  0  0  0  0
   -3.6666   -2.4611    1.0384 H   0  0  0  0  0  0  0  0  0  0  0  0
   -2.8079   -1.3915    2.1100 H   0  0  0  0  0  0  0  0  0  0  0  0
    0.3129    2.2355    0.7841 H   0  0  0  0  0  0  0  0  0  0  0  0
   -1.3762    2.7412    0.9882 H   0  0  0  0  0  0  0  0  0  0  0  0
   -0.3616    2.3952    2.3904 H   0  0  0  0  0  0  0  0  0  0  0  0
    1.5157    1.5675   -0.8096 H   0  0  0  0  0  0  0  0  0  0  0  0
   -5.2960   -1.8363   -0.1890 H   0  0  0  0  0  0  0  0  0  0  0  0
    4.4958   -0.6067   -0.5413 H   0  0  0  0  0  0  0  0  0  0  0  0
    2.8667    3.3975   -0.3459 H   0  0  0  0  0  0  0  0  0  0  0  0
   -7.3445   -1.9206   -1.3079 H   0  0  0  0  0  0  0  0  0  0  0  0
   -6.2986    1.4822    1.1693 H   0  0  0  0  0  0  0  0  0  0  0  0
    5.1350    4.2606    0.1087 H   0  0  0  0  0  0  0  0  0  0  0  0
   -9.4985   -0.8251   -1.8258 H   0  0  0  0  0  0  0  0  0  0  0  0
   -8.4055    2.5174    0.6424 H   0  0  0  0  0  0  0  0  0  0  0  0
    7.0510    2.7160    0.2584 H   0  0  0  0  0  0  0  0  0  0  0  0
  -10.0332    1.3935   -0.8531 H   0  0  0  0  0  0  0  0  0  0  0  0
    8.3906   -1.8337    1.2598 H   0  0  0  0  0  0  0  0  0  0  0  0
    8.0902   -2.3665   -0.4205 H   0  0  0  0  0  0  0  0  0  0  0  0
    6.2336   -3.8269    0.3903 H   0  0  0  0  0  0  0  0  0  0  0  0
    6.5302   -3.3036    2.0431 H   0  0  0  0  0  0  0  0  0  0  0  0
    7.7684   -4.2525    1.1857 H   0  0  0  0  0  0  0  0  0  0  0  0
  1 16  2  0  0  0  0
  2 17  2  0  0  0  0
  3 30  1  0  0  0  0
  3 31  1  0  0  0  0
  4 30  2  0  0  0  0
  5 11  1  0  0  0  0
  5 12  1  0  0  0  0
  5 16  1  0  0  0  0
  6 16  1  0  0  0  0
  6 18  1  0  0  0  0
  6 48  1  0  0  0  0
  7 17  1  0  0  0  0
  7 19  1  0  0  0  0
  7 49  1  0  0  0  0
  8  9  1  0  0  0  0
  8 10  1  0  0  0  0
  8 14  1  0  0  0  0
  8 33  1  0  0  0  0
  9 11  1  0  0  0  0
  9 13  1  0  0  0  0
  9 34  1  0  0  0  0
 10 12  1  0  0  0  0
 10 35  1  0  0  0  0
 10 36  1  0  0  0  0
 11 37  1  0  0  0  0
 11 38  1  0  0  0  0
 12 39  1  0  0  0  0
 12 40  1  0  0  0  0
 13 15  1  0  0  0  0
 13 41  1  0  0  0  0
 13 42  1  0  0  0  0
 14 17  1  0  0  0  0
 14 43  1  0  0  0  0
 14 44  1  0  0  0  0
 15 45  1  0  0  0  0
 15 46  1  0  0  0  0
 15 47  1  0  0  0  0
 18 20  1  0  0  0  0
 18 21  2  0  0  0  0
 19 22  2  0  0  0  0
 19 23  1  0  0  0  0
 20 24  2  0  0  0  0
 20 50  1  0  0  0  0
 21 25  1  0  0  0  0
 21 51  1  0  0  0  0
 22 26  1  0  0  0  0
 22 52  1  0  0  0  0
 23 27  2  0  0  0  0
 23 53  1  0  0  0  0
 24 28  1  0  0  0  0
 24 30  1  0  0  0  0
 25 28  2  0  0  0  0
 25 54  1  0  0  0  0
 26 29  2  0  0  0  0
 26 55  1  0  0  0  0
 27 29  1  0  0  0  0
 27 56  1  0  0  0  0
 28 57  1  0  0  0  0
 29 58  1  0  0  0  0
 31 32  1  0  0  0  0
 31 59  1  0  0  0  0
 31 60  1  0  0  0  0
 32 61  1  0  0  0  0
 32 62  1  0  0  0  0
 32 63  1  0  0  0  0
M  END
> <PUBCHEM_COMPOUND_CID>
11912407

> <PUBCHEM_CONFORMER_RMSD>
1.2

> <PUBCHEM_CONFORMER_DIVERSEORDER>
8
27
90
33
28
29
10
36
63
53
85
25
2
79
71
81
13
38
31
76
70
65
75
5
39
47
86
69
55
66
68
82
64
84
78
56
87
54
44
92
72
52
34
30
9
42
57
19
16
43
20
37
74
80
15
77
50
58
83
1
18
40
7
17
22
89
59
67
41
73
62
14
21
49
23
46
45
32
3
60
11
24
35
6
61
91
88
26
48
4
12
51

> <PUBCHEM_MMFF94_PARTIAL_CHARGES>
37
1 -0.57
11 0.3
12 0.3
14 0.06
16 0.69
17 0.57
18 0.12
19 0.12
2 -0.57
20 -0.15
21 -0.15
22 -0.15
23 -0.15
24 0.09
25 -0.15
26 -0.15
27 -0.15
28 -0.15
29 -0.15
3 -0.43
30 0.63
31 0.28
4 -0.57
48 0.37
49 0.37
5 -0.66
50 0.15
51 0.15
52 0.15
53 0.15
54 0.15
55 0.15
56 0.15
57 0.15
58 0.15
6 -0.55
7 -0.55

> <PUBCHEM_EFFECTIVE_ROTOR_COUNT>
12.2

> <PUBCHEM_PHARMACOPHORE_FEATURES>
9
1 1 acceptor
1 15 hydrophobe
1 2 acceptor
1 4 acceptor
1 6 donor
1 7 donor
6 18 20 21 24 25 28 rings
6 19 22 23 26 27 29 rings
6 5 8 9 10 11 12 rings

> <PUBCHEM_HEAVY_ATOM_COUNT>
32

> <PUBCHEM_ATOM_DEF_STEREO_COUNT>
2

> <PUBCHEM_ATOM_UDEF_STEREO_COUNT>
0

> <PUBCHEM_BOND_DEF_STEREO_COUNT>
0

> <PUBCHEM_BOND_UDEF_STEREO_COUNT>
0

> <PUBCHEM_ISOTOPIC_ATOM_COUNT>
0

> <PUBCHEM_COMPONENT_COUNT>
1

> <PUBCHEM_CACTVS_TAUTO_COUNT>
4

> <PUBCHEM_CONFORMER_ID>
00B5C4D700000008

> <PUBCHEM_MMFF94_ENERGY>
91.1748

> <PUBCHEM_FEATURE_SELFOVERLAP>
45.671

> <PUBCHEM_SHAPE_FINGERPRINT>
10391435 84 13182730468782870373
10533779 47 18113912528443080011
10917259 128 17345480271756374529
11181472 205 18041007228215236988
11719270 70 18131917061344110606
12107183 9 18413390926264859130
12838862 33 18059849619162795064
13533116 47 18334860537428311682
13811026 1 18412549829865692927
13914758 101 18335422352793091321
14117953 113 18342747325248977684
14347424 109 18410290337818354000
15131766 46 17902796602343721084
15301273 46 17022903449685494062
15840311 113 17822292431189545525
16992787 43 9295282854765161663
18335252 98 10015869781686556524
20105231 36 11818989677912555616
20715895 44 18338241560841986581
20812841 46 18334012774717902714
21130935 74 18261675981682997018
21403212 168 18410572890373043414
21591340 7 18272928332563814879
21781055 127 15575283065233538223
21792934 111 18343011195170566104
21814621 53 17749959988987730577
2851757 15 18408044031283813867
335352 9 18343589568525536244
3633792 109 18411985732791948243
4093350 32 16733253591432873753
439807 62 17313100823045438138
4516262 110 18191875733417276036
474113 269 18338233765740036402
5470011 282 10592047942384764387
57634706 280 13110954324062625702
6009941 240 17749676285202165027
6081469 158 17894910715685049388
6394761 36 17822010912856609199
99344 41 18343021086295768823

> <PUBCHEM_SHAPE_MULTIPOLES>
620.12
28.58
2.94
1.19
20.71
0.18
0.2
-0.2
-1.27
-6.53
0.49
0.94
0.11
-1.63

> <PUBCHEM_SHAPE_SELFOVERLAP>
1299.911

> <PUBCHEM_SHAPE_VOLUME>
346.6

> <PUBCHEM_COORDINATE_TYPE>
2
5
10

$$$$
