45784269
  -OEChem-12032416283D

 42 45  0     1  0  0  0  0  0999 V2000
    7.3619    0.8127   -0.4338 F   0  0  0  0  0  0  0  0  0  0  0  0
    7.0362   -0.7765    1.0140 F   0  0  0  0  0  0  0  0  0  0  0  0
    6.8622   -1.1935   -1.1072 F   0  0  0  0  0  0  0  0  0  0  0  0
   -3.0029   -0.2813   -0.1043 N   0  0  1  0  0  0  0  0  0  0  0  0
    1.6723   -1.1878    0.4248 N   0  0  0  0  0  0  0  0  0  0  0  0
    1.0495    0.9146    0.0620 N   0  0  0  0  0  0  0  0  0  0  0  0
   -7.3668    1.0809    0.3623 N   0  0  0  0  0  0  0  0  0  0  0  0
   -0.7958   -0.7450    0.5383 C   0  0  1  0  0  0  0  0  0  0  0  0
   -1.5317   -0.0440    1.6935 C   0  0  0  0  0  0  0  0  0  0  0  0
   -1.6791   -0.4976   -0.6920 C   0  0  0  0  0  0  0  0  0  0  0  0
   -2.7651    0.5803    1.0538 C   0  0  0  0  0  0  0  0  0  0  0  0
    0.6348   -0.3021    0.3351 C   0  0  0  0  0  0  0  0  0  0  0  0
   -3.9406    0.3070   -1.0493 C   0  0  0  0  0  0  0  0  0  0  0  0
    2.8340   -0.4967    0.1939 C   0  0  0  0  0  0  0  0  0  0  0  0
   -5.3687    0.1265   -0.6081 C   0  0  0  0  0  0  0  0  0  0  0  0
    2.4187    0.8131   -0.0297 C   0  0  0  0  0  0  0  0  0  0  0  0
    4.1715   -0.8926    0.1625 C   0  0  0  0  0  0  0  0  0  0  0  0
    3.3814    1.7997   -0.3023 C   0  0  0  0  0  0  0  0  0  0  0  0
   -6.0109   -1.0994   -0.7428 C   0  0  0  0  0  0  0  0  0  0  0  0
    5.1162    0.1022   -0.1102 C   0  0  0  0  0  0  0  0  0  0  0  0
   -6.0842    1.1760   -0.0544 C   0  0  0  0  0  0  0  0  0  0  0  0
    4.7303    1.4251   -0.3387 C   0  0  0  0  0  0  0  0  0  0  0  0
   -7.3302   -1.2365   -0.3256 C   0  0  0  0  0  0  0  0  0  0  0  0
    6.5648   -0.2591   -0.1577 C   0  0  0  0  0  0  0  0  0  0  0  0
   -7.9578   -0.1261    0.2156 C   0  0  0  0  0  0  0  0  0  0  0  0
   -0.7990   -1.8233    0.7546 H   0  0  0  0  0  0  0  0  0  0  0  0
   -1.8313   -0.7902    2.4400 H   0  0  0  0  0  0  0  0  0  0  0  0
   -0.9226    0.7098    2.2036 H   0  0  0  0  0  0  0  0  0  0  0  0
   -1.3429    0.3828   -1.2558 H   0  0  0  0  0  0  0  0  0  0  0  0
   -1.6706   -1.3605   -1.3669 H   0  0  0  0  0  0  0  0  0  0  0  0
   -3.6072    0.5894    1.7528 H   0  0  0  0  0  0  0  0  0  0  0  0
   -2.5427    1.6137    0.7579 H   0  0  0  0  0  0  0  0  0  0  0  0
   -3.7226    1.3656   -1.2449 H   0  0  0  0  0  0  0  0  0  0  0  0
   -3.8475   -0.1911   -2.0248 H   0  0  0  0  0  0  0  0  0  0  0  0
    1.6002   -2.1766    0.6252 H   0  0  0  0  0  0  0  0  0  0  0  0
    4.4604   -1.9226    0.3415 H   0  0  0  0  0  0  0  0  0  0  0  0
    3.0913    2.8301   -0.4812 H   0  0  0  0  0  0  0  0  0  0  0  0
   -5.4936   -1.9537   -1.1708 H   0  0  0  0  0  0  0  0  0  0  0  0
   -5.6377    2.1566    0.0784 H   0  0  0  0  0  0  0  0  0  0  0  0
    5.4708    2.1928   -0.5500 H   0  0  0  0  0  0  0  0  0  0  0  0
   -7.8506   -2.1825   -0.4208 H   0  0  0  0  0  0  0  0  0  0  0  0
   -8.9865   -0.1808    0.5563 H   0  0  0  0  0  0  0  0  0  0  0  0
  1 24  1  0  0  0  0
  2 24  1  0  0  0  0
  3 24  1  0  0  0  0
  4 10  1  0  0  0  0
  4 11  1  0  0  0  0
  4 13  1  0  0  0  0
  5 12  1  0  0  0  0
  5 14  1  0  0  0  0
  5 35  1  0  0  0  0
  6 12  2  0  0  0  0
  6 16  1  0  0  0  0
  7 21  1  0  0  0  0
  7 25  2  0  0  0  0
  8  9  1  0  0  0  0
  8 10  1  0  0  0  0
  8 12  1  0  0  0  0
  8 26  1  0  0  0  0
  9 11  1  0  0  0  0
  9 27  1  0  0  0  0
  9 28  1  0  0  0  0
 10 29  1  0  0  0  0
 10 30  1  0  0  0  0
 11 31  1  0  0  0  0
 11 32  1  0  0  0  0
 13 15  1  0  0  0  0
 13 33  1  0  0  0  0
 13 34  1  0  0  0  0
 14 16  2  0  0  0  0
 14 17  1  0  0  0  0
 15 19  1  0  0  0  0
 15 21  2  0  0  0  0
 16 18  1  0  0  0  0
 17 20  2  0  0  0  0
 17 36  1  0  0  0  0
 18 22  2  0  0  0  0
 18 37  1  0  0  0  0
 19 23  2  0  0  0  0
 19 38  1  0  0  0  0
 20 22  1  0  0  0  0
 20 24  1  0  0  0  0
 21 39  1  0  0  0  0
 22 40  1  0  0  0  0
 23 25  1  0  0  0  0
 23 41  1  0  0  0  0
 25 42  1  0  0  0  0
M  END
> <PUBCHEM_COMPOUND_CID>
45784269

> <PUBCHEM_CONFORMER_RMSD>
0.8

> <PUBCHEM_CONFORMER_DIVERSEORDER>
1
60
50
18
54
37
56
44
28
40
67
34
41
10
27
43
29
65
12
35
58
30
46
38
16
63
3
49
23
4
68
11
66
31
47
26
24
48
62
39
8
5
45
20
42
51
57
17
32
15
19
53
9
52
25
6
36
14
7
33
13
2
59
64
55
21
22
61

> <PUBCHEM_MMFF94_PARTIAL_CHARGES>
32
1 -0.34
10 0.27
11 0.27
12 0.01
13 0.41
14 -0.15
15 -0.14
16 0.23
17 -0.15
18 -0.15
19 -0.15
2 -0.34
20 -0.14
21 0.16
22 -0.15
23 -0.15
24 1.16
25 0.16
3 -0.34
35 0.27
36 0.15
37 0.15
38 0.15
39 0.15
4 -0.81
40 0.15
41 0.15
42 0.15
5 0.03
6 -0.57
7 -0.62
8 0.18

> <PUBCHEM_EFFECTIVE_ROTOR_COUNT>
5

> <PUBCHEM_PHARMACOPHORE_FEATURES>
8
1 4 cation
1 5 donor
1 7 acceptor
3 5 6 12 cation
5 4 8 9 10 11 rings
5 5 6 12 14 16 rings
6 14 16 17 18 20 22 rings
6 7 15 19 21 23 25 rings

> <PUBCHEM_HEAVY_ATOM_COUNT>
25

> <PUBCHEM_ATOM_DEF_STEREO_COUNT>
1

> <PUBCHEM_ATOM_UDEF_STEREO_COUNT>
0

> <PUBCHEM_BOND_DEF_STEREO_COUNT>
0

> <PUBCHEM_BOND_UDEF_STEREO_COUNT>
0

> <PUBCHEM_ISOTOPIC_ATOM_COUNT>
0

> <PUBCHEM_COMPONENT_COUNT>
1

> <PUBCHEM_CACTVS_TAUTO_COUNT>
2

> <PUBCHEM_CONFORMER_ID>
02BA9CCD00000001

> <PUBCHEM_MMFF94_ENERGY>
47.3699

> <PUBCHEM_FEATURE_SELFOVERLAP>
40.704

> <PUBCHEM_SHAPE_FINGERPRINT>
10 15 13045946814991472766
10066227 49 17917436363354322646
10299344 5 18413388748536851695
10595046 47 18409727349199339697
106641 1 12540703625953629413
11315181 36 11386365938260680951
11408170 108 17773881905578048566
11524674 6 15841831179628417455
11646440 116 16950287299788853349
11719270 70 17917711288558563262
12091667 2 18410012140022769059
12166972 35 18335702766881880933
12236239 1 18130787871281004013
12730499 353 17749107777239517043
12838862 33 12751233649884871941
13533116 47 17095792231601070474
13668630 136 18202567267613433974
13914758 101 18412546479036867129
14170010 4 18333730239095448364
14251752 14 17775284959011467913
14251764 18 17967249793041423184
14251764 46 18411136943700101291
14294032 229 17273152202100558385
14856354 85 18060138774242001407
14933364 13 18409448090178015861
15183329 4 18334007290092034539
15419008 47 15936683831215892301
15849732 13 18131632291821269085
17093844 174 13470689253157478479
18006028 8 12679461989194951811
18335252 98 18410016546580593795
18681886 176 18131061666819273003
20238998 120 13110964223493303667
20281389 69 16515399668903938204
21033648 29 17604148259260964128
21095086 128 18409728487455766191
21150785 3 18411700993455326702
21267235 1 18413392029216671509
21315763 28 18411980286952680445
21792961 116 17775567508204567867
221357 26 18334010588490255164
22224240 67 9511458914091908196
23035841 295 17346880065996002679
23198884 109 18408604773539278889
23536379 177 18412824681928687649
23559900 14 16701724051333438867
23576562 1 17823996725757305518
249057 3 18411135870111472767
29717793 49 17988929972514597572
3004659 81 18343017800328691464
314173 85 14476964502157725819
335352 9 18260833705222449838
34797466 226 15554449630822272248
3545911 37 17821727238956798171
4073 2 17895197765344895643
4098825 35 18337390448721432669
4325135 7 18408602570337055175
4339292 15 16987987423992772487
5283156 175 17417816123170262795
5758199 1 17675925383233330243
59682541 35 15574722409046081057
59755656 215 17967814933687031234
59755656 520 17603862334413512763
9663363 56 15770053926648237051

> <PUBCHEM_SHAPE_MULTIPOLES>
472.74
23.65
1.32
0.99
6.8
0.22
-0.17
-1.07
3.18
-0.37
0.1
0.29
-0.06
-0.6

> <PUBCHEM_SHAPE_SELFOVERLAP>
1040.023

> <PUBCHEM_SHAPE_VOLUME>
259.1

> <PUBCHEM_COORDINATE_TYPE>
2
5
10

$$$$
