28963221
  -OEChem-12032416133D

 52 56  0     1  0  0  0  0  0999 V2000
    8.6825   -0.2485   -0.2676 S   0  0  0  0  0  0  0  0  0  0  0  0
   -4.4024   -2.2123    1.0089 F   0  0  0  0  0  0  0  0  0  0  0  0
   -8.9849   -2.1588   -0.1585 F   0  0  0  0  0  0  0  0  0  0  0  0
    1.8364    2.8067    0.8252 O   0  0  0  0  0  0  0  0  0  0  0  0
   -1.0933    0.0024   -2.4530 O   0  0  0  0  0  0  0  0  0  0  0  0
    6.1198    1.0393   -0.9581 O   0  0  0  0  0  0  0  0  0  0  0  0
    0.6268    0.3358   -0.9300 N   0  0  0  0  0  0  0  0  0  0  0  0
    4.6960   -0.4366    0.1248 N   0  0  0  0  0  0  0  0  0  0  0  0
   -0.4315    2.5281    0.7520 N   0  0  0  0  0  0  0  0  0  0  0  0
    1.0181    0.5671    0.4547 C   0  0  1  0  0  0  0  0  0  0  0  0
    3.4629    0.2157   -0.2464 C   0  0  2  0  0  0  0  0  0  0  0  0
    2.3979    0.0144    0.8309 C   0  0  0  0  0  0  0  0  0  0  0  0
    2.9446   -0.3210   -1.5763 C   0  0  0  0  0  0  0  0  0  0  0  0
    1.6586    0.3875   -1.9688 C   0  0  0  0  0  0  0  0  0  0  0  0
    0.8677    2.0625    0.6693 C   0  0  0  0  0  0  0  0  0  0  0  0
   -0.7126    0.2954   -1.3189 C   0  0  0  0  0  0  0  0  0  0  0  0
   -1.7530    0.6975   -0.3350 C   0  0  0  0  0  0  0  0  0  0  0  0
   -1.6246    1.8048    0.5239 C   0  0  0  0  0  0  0  0  0  0  0  0
    5.9378    0.0389   -0.2692 C   0  0  0  0  0  0  0  0  0  0  0  0
   -2.9910    0.0407   -0.4405 C   0  0  0  0  0  0  0  0  0  0  0  0
   -2.7610    2.2686    1.2070 C   0  0  0  0  0  0  0  0  0  0  0  0
   -4.0955    0.4851    0.2848 C   0  0  0  0  0  0  0  0  0  0  0  0
   -3.9842    1.6071    1.0977 C   0  0  0  0  0  0  0  0  0  0  0  0
    7.1090   -0.7609    0.1730 C   0  0  0  0  0  0  0  0  0  0  0  0
   -5.3625   -0.2040    0.1711 C   0  0  0  0  0  0  0  0  0  0  0  0
    7.1327   -1.9154    0.9240 C   0  0  0  0  0  0  0  0  0  0  0  0
   -5.4682   -1.5444    0.5430 C   0  0  0  0  0  0  0  0  0  0  0  0
   -6.4807    0.4759   -0.3119 C   0  0  0  0  0  0  0  0  0  0  0  0
    8.4602   -2.3854    1.1408 C   0  0  0  0  0  0  0  0  0  0  0  0
    9.4004   -1.5724    0.5472 C   0  0  0  0  0  0  0  0  0  0  0  0
   -6.6918   -2.2047    0.4315 C   0  0  0  0  0  0  0  0  0  0  0  0
   -7.7043   -0.1844   -0.4235 C   0  0  0  0  0  0  0  0  0  0  0  0
   -7.8099   -1.5248   -0.0517 C   0  0  0  0  0  0  0  0  0  0  0  0
    0.3005    0.0673    1.1185 H   0  0  0  0  0  0  0  0  0  0  0  0
    3.6706    1.2873   -0.3539 H   0  0  0  0  0  0  0  0  0  0  0  0
    2.7379    0.4459    1.7810 H   0  0  0  0  0  0  0  0  0  0  0  0
    2.2895   -1.0644    1.0135 H   0  0  0  0  0  0  0  0  0  0  0  0
    2.7639   -1.4013   -1.5002 H   0  0  0  0  0  0  0  0  0  0  0  0
    3.6941   -0.1830   -2.3648 H   0  0  0  0  0  0  0  0  0  0  0  0
    1.8570    1.4487   -2.1636 H   0  0  0  0  0  0  0  0  0  0  0  0
    1.2748   -0.0378   -2.9023 H   0  0  0  0  0  0  0  0  0  0  0  0
    4.6245   -1.3031    0.6472 H   0  0  0  0  0  0  0  0  0  0  0  0
   -0.5411    3.4717    1.1156 H   0  0  0  0  0  0  0  0  0  0  0  0
   -3.0963   -0.8092   -1.1136 H   0  0  0  0  0  0  0  0  0  0  0  0
   -2.6960    3.1366    1.8603 H   0  0  0  0  0  0  0  0  0  0  0  0
   -4.8338    1.9805    1.6645 H   0  0  0  0  0  0  0  0  0  0  0  0
    6.2573   -2.4191    1.3122 H   0  0  0  0  0  0  0  0  0  0  0  0
   -6.4195    1.5191   -0.6130 H   0  0  0  0  0  0  0  0  0  0  0  0
    8.7127   -3.2746    1.7037 H   0  0  0  0  0  0  0  0  0  0  0  0
   10.4746   -1.6925    0.5530 H   0  0  0  0  0  0  0  0  0  0  0  0
   -6.7742   -3.2481    0.7209 H   0  0  0  0  0  0  0  0  0  0  0  0
   -8.5747    0.3441   -0.8008 H   0  0  0  0  0  0  0  0  0  0  0  0
  1 24  1  0  0  0  0
  1 30  1  0  0  0  0
  2 27  1  0  0  0  0
  3 33  1  0  0  0  0
  4 15  2  0  0  0  0
  5 16  2  0  0  0  0
  6 19  2  0  0  0  0
  7 10  1  0  0  0  0
  7 14  1  0  0  0  0
  7 16  1  0  0  0  0
  8 11  1  0  0  0  0
  8 19  1  0  0  0  0
  8 42  1  0  0  0  0
  9 15  1  0  0  0  0
  9 18  1  0  0  0  0
  9 43  1  0  0  0  0
 10 12  1  0  0  0  0
 10 15  1  0  0  0  0
 10 34  1  0  0  0  0
 11 12  1  0  0  0  0
 11 13  1  0  0  0  0
 11 35  1  0  0  0  0
 12 36  1  0  0  0  0
 12 37  1  0  0  0  0
 13 14  1  0  0  0  0
 13 38  1  0  0  0  0
 13 39  1  0  0  0  0
 14 40  1  0  0  0  0
 14 41  1  0  0  0  0
 16 17  1  0  0  0  0
 17 18  2  0  0  0  0
 17 20  1  0  0  0  0
 18 21  1  0  0  0  0
 19 24  1  0  0  0  0
 20 22  2  0  0  0  0
 20 44  1  0  0  0  0
 21 23  2  0  0  0  0
 21 45  1  0  0  0  0
 22 23  1  0  0  0  0
 22 25  1  0  0  0  0
 23 46  1  0  0  0  0
 24 26  2  0  0  0  0
 25 27  2  0  0  0  0
 25 28  1  0  0  0  0
 26 29  1  0  0  0  0
 26 47  1  0  0  0  0
 27 31  1  0  0  0  0
 28 32  2  0  0  0  0
 28 48  1  0  0  0  0
 29 30  2  0  0  0  0
 29 49  1  0  0  0  0
 30 50  1  0  0  0  0
 31 33  2  0  0  0  0
 31 51  1  0  0  0  0
 32 33  1  0  0  0  0
 32 52  1  0  0  0  0
M  END
> <PUBCHEM_COMPOUND_CID>
28963221

> <PUBCHEM_CONFORMER_RMSD>
0.8

> <PUBCHEM_CONFORMER_DIVERSEORDER>
1
23
16
18
22
21
20
19
3
9
14
10
4
6
8
17
11
12
13
2
15
5
7

> <PUBCHEM_MMFF94_PARTIAL_CHARGES>
40
1 -0.08
10 0.36
11 0.3
14 0.3
15 0.57
16 0.54
17 0.09
18 0.12
19 0.71
2 -0.19
20 -0.15
21 -0.15
23 -0.15
24 -0.05
26 -0.15
27 0.19
28 -0.15
29 -0.15
3 -0.19
30 -0.11
31 -0.15
32 -0.15
33 0.19
4 -0.57
42 0.37
43 0.37
44 0.15
45 0.15
46 0.15
47 0.15
48 0.15
49 0.15
5 -0.57
50 0.15
51 0.15
52 0.15
6 -0.57
7 -0.66
8 -0.73
9 -0.55

> <PUBCHEM_EFFECTIVE_ROTOR_COUNT>
5

> <PUBCHEM_PHARMACOPHORE_FEATURES>
10
1 4 acceptor
1 5 acceptor
1 6 acceptor
1 8 donor
1 9 donor
5 1 24 26 29 30 rings
6 17 18 20 21 22 23 rings
6 25 27 28 31 32 33 rings
6 7 10 11 12 13 14 rings
7 7 9 10 15 16 17 18 rings

> <PUBCHEM_HEAVY_ATOM_COUNT>
33

> <PUBCHEM_ATOM_DEF_STEREO_COUNT>
2

> <PUBCHEM_ATOM_UDEF_STEREO_COUNT>
0

> <PUBCHEM_BOND_DEF_STEREO_COUNT>
0

> <PUBCHEM_BOND_UDEF_STEREO_COUNT>
0

> <PUBCHEM_ISOTOPIC_ATOM_COUNT>
0

> <PUBCHEM_COMPONENT_COUNT>
1

> <PUBCHEM_CACTVS_TAUTO_COUNT>
18

> <PUBCHEM_CONFORMER_ID>
01B9F19500000001

> <PUBCHEM_MMFF94_ENERGY>
98.5248

> <PUBCHEM_FEATURE_SELFOVERLAP>
50.773

> <PUBCHEM_SHAPE_FINGERPRINT>
10 15 17560796646107499624
10162869 55 18040156228528190716
10299344 5 18334296453271337994
10369192 42 9727636094568318505
106641 1 17131832079439101902
11135609 99 18339643451215898215
11181472 205 9006791903580370598
12035758 1 16702300148783171932
12166972 35 17967256382613753004
12202916 173 18272936037972917143
12539745 222 18337670819438335605
12838863 1 18059568149092916599
13150687 139 15068342289944430176
13383668 251 15482086354496136755
13383668 362 17201619276512858776
13540713 4 16915114897652653564
13540713 5 16843020177759202420
13811026 1 18272933799597856847
14068700 675 18186523202483908245
14150022 121 16702031838007903233
14849402 71 13110955439984346251
15183329 4 11891333145189424318
15198563 99 15140951820965107847
15347590 135 17131837542701429794
15461852 350 18113339682911148036
15690457 1 18260546715133418442
15706992 2 12463570720469971330
18603816 31 18336541716203652855
19301679 30 18128538164213806934
20105231 36 17846504695884389750
20721686 146 9727092932152482267
21095123 293 11239994568924951066
21130935 74 17986395486960571218
21267235 1 18202567288798360121
21315759 40 18259991453308301764
22149856 69 16916243091045144936
23559900 14 18263924505206671257
23569943 247 17615409161549230874
23576562 1 13479998872979575227
249057 25 18261409823150657156
249057 3 15357704105851555371
3004659 81 18187642553108429993
3178227 256 16845572020294027074
3383291 50 18131353015894843727
3711267 37 10879718723196216915
4516262 110 11959737023549786241
504579 68 12612756796650028490
5104073 3 17345485777308165994
5385378 56 15195291894013576558
54039377 194 18411982455869025438
5758199 1 13973964303116867134
59682541 35 17775279470306949610
5969126 39 16805318873024255652
6081469 158 18186798089291379925
9689198 14 11167941372663702694
9896288 288 17986676965287861120
9953998 17 15410889674247792663
9962374 69 17703499004374948893

> <PUBCHEM_SHAPE_MULTIPOLES>
635.88
28.11
2.42
1.36
23.19
0.08
-0.59
-23.69
4.25
-1.52
1.16
0.53
0.14
-1.38

> <PUBCHEM_SHAPE_SELFOVERLAP>
1396.814

> <PUBCHEM_SHAPE_VOLUME>
344.2

> <PUBCHEM_COORDINATE_TYPE>
2
5
10

$$$$
