9421208
  -OEChem-12032416393D

 68 71  0     1  0  0  0  0  0999 V2000
   -2.9802    3.0454    0.2918 O   0  0  0  0  0  0  0  0  0  0  0  0
    0.0608   -1.2288   -0.6008 O   0  0  0  0  0  0  0  0  0  0  0  0
   -5.8321   -0.8988   -1.9674 O   0  0  0  0  0  0  0  0  0  0  0  0
   -8.5905   -3.0407    1.4412 O   0  0  0  0  0  0  0  0  0  0  0  0
   -8.1047   -2.5300   -0.7158 O   0  0  0  0  0  0  0  0  0  0  0  0
   10.3966   -1.7786   -0.3198 O   0  0  0  0  0  0  0  0  0  0  0  0
   -1.3084    0.5370   -1.1404 N   0  0  0  0  0  0  0  0  0  0  0  0
   -4.4225    0.7358   -1.1131 N   0  0  0  0  0  0  0  0  0  0  0  0
   -0.8676    2.5512    0.9714 N   0  0  0  0  0  0  0  0  0  0  0  0
   -3.4366    0.6863   -2.1645 C   0  0  1  0  0  0  0  0  0  0  0  0
   -1.5563    1.9534   -1.3165 C   0  0  1  0  0  0  0  0  0  0  0  0
   -2.7052    2.0211   -2.3294 C   0  0  0  0  0  0  0  0  0  0  0  0
   -2.3058   -0.2757   -1.8271 C   0  0  0  0  0  0  0  0  0  0  0  0
   -1.8908    2.5220    0.0486 C   0  0  0  0  0  0  0  0  0  0  0  0
   -0.1799   -0.0215   -0.5794 C   0  0  0  0  0  0  0  0  0  0  0  0
   -6.1616   -0.7856    1.3066 C   0  0  0  0  0  0  0  0  0  0  0  0
   -6.4402    0.1570    0.1082 C   0  0  0  0  0  0  0  0  0  0  0  0
   -5.5503   -0.0708   -1.1036 C   0  0  0  0  0  0  0  0  0  0  0  0
    0.7861    0.8767    0.1043 C   0  0  0  0  0  0  0  0  0  0  0  0
    0.4248    1.9921    0.8775 C   0  0  0  0  0  0  0  0  0  0  0  0
   -6.3744   -2.2785    0.9595 C   0  0  0  0  0  0  0  0  0  0  0  0
   -4.7097   -0.6138    1.8006 C   0  0  0  0  0  0  0  0  0  0  0  0
   -7.0949   -0.3709    2.4638 C   0  0  0  0  0  0  0  0  0  0  0  0
    2.1280    0.4520    0.0899 C   0  0  0  0  0  0  0  0  0  0  0  0
    1.4068    2.6137    1.6699 C   0  0  0  0  0  0  0  0  0  0  0  0
    3.0967    1.1102    0.8460 C   0  0  0  0  0  0  0  0  0  0  0  0
    2.7334    2.1843    1.6470 C   0  0  0  0  0  0  0  0  0  0  0  0
   -7.7586   -2.6224    0.4549 C   0  0  0  0  0  0  0  0  0  0  0  0
    4.4786    0.6577    0.8164 C   0  0  0  0  0  0  0  0  0  0  0  0
    5.0338   -0.0901   -0.1665 C   0  0  0  0  0  0  0  0  0  0  0  0
    6.4389   -0.5326   -0.2066 C   0  0  0  0  0  0  0  0  0  0  0  0
    7.1954   -0.5596    0.9650 C   0  0  0  0  0  0  0  0  0  0  0  0
    7.0124   -0.9244   -1.4163 C   0  0  0  0  0  0  0  0  0  0  0  0
    8.5253   -0.9784    0.9271 C   0  0  0  0  0  0  0  0  0  0  0  0
    8.3423   -1.3431   -1.4543 C   0  0  0  0  0  0  0  0  0  0  0  0
    9.0988   -1.3701   -0.2827 C   0  0  0  0  0  0  0  0  0  0  0  0
   11.1119   -1.7818    0.9147 C   0  0  0  0  0  0  0  0  0  0  0  0
   -3.9390    0.3905   -3.0917 H   0  0  0  0  0  0  0  0  0  0  0  0
   -0.6660    2.4598   -1.7066 H   0  0  0  0  0  0  0  0  0  0  0  0
   -2.2790    2.0643   -3.3402 H   0  0  0  0  0  0  0  0  0  0  0  0
   -3.3563    2.8921   -2.2059 H   0  0  0  0  0  0  0  0  0  0  0  0
   -2.6011   -1.1245   -1.2019 H   0  0  0  0  0  0  0  0  0  0  0  0
   -1.8330   -0.6617   -2.7378 H   0  0  0  0  0  0  0  0  0  0  0  0
   -4.2570    1.3557   -0.3262 H   0  0  0  0  0  0  0  0  0  0  0  0
   -6.3301    1.2024    0.4274 H   0  0  0  0  0  0  0  0  0  0  0  0
   -7.4802    0.0656   -0.2283 H   0  0  0  0  0  0  0  0  0  0  0  0
   -1.0389    3.1336    1.7879 H   0  0  0  0  0  0  0  0  0  0  0  0
   -5.6603   -2.6119    0.1960 H   0  0  0  0  0  0  0  0  0  0  0  0
   -6.1689   -2.9090    1.8351 H   0  0  0  0  0  0  0  0  0  0  0  0
   -4.5383   -1.1827    2.7220 H   0  0  0  0  0  0  0  0  0  0  0  0
   -4.4840    0.4368    2.0155 H   0  0  0  0  0  0  0  0  0  0  0  0
   -3.9843   -0.9719    1.0628 H   0  0  0  0  0  0  0  0  0  0  0  0
   -6.9728   -1.0324    3.3290 H   0  0  0  0  0  0  0  0  0  0  0  0
   -6.8812    0.6516    2.7961 H   0  0  0  0  0  0  0  0  0  0  0  0
   -8.1476   -0.4019    2.1634 H   0  0  0  0  0  0  0  0  0  0  0  0
    2.3863   -0.4261   -0.4973 H   0  0  0  0  0  0  0  0  0  0  0  0
    1.1500    3.4649    2.2981 H   0  0  0  0  0  0  0  0  0  0  0  0
    3.4660    2.7055    2.2583 H   0  0  0  0  0  0  0  0  0  0  0  0
    5.0805    0.9967    1.6550 H   0  0  0  0  0  0  0  0  0  0  0  0
   -9.4848   -3.2546    1.0996 H   0  0  0  0  0  0  0  0  0  0  0  0
    4.4525   -0.3862   -1.0355 H   0  0  0  0  0  0  0  0  0  0  0  0
    6.7844   -0.2843    1.9317 H   0  0  0  0  0  0  0  0  0  0  0  0
    6.4388   -0.9086   -2.3399 H   0  0  0  0  0  0  0  0  0  0  0  0
    9.0542   -0.9797    1.8741 H   0  0  0  0  0  0  0  0  0  0  0  0
    8.7839   -1.6469   -2.3996 H   0  0  0  0  0  0  0  0  0  0  0  0
   11.2043   -0.7720    1.3290 H   0  0  0  0  0  0  0  0  0  0  0  0
   10.6752   -2.4860    1.6309 H   0  0  0  0  0  0  0  0  0  0  0  0
   12.1264   -2.1329    0.6995 H   0  0  0  0  0  0  0  0  0  0  0  0
  1 14  2  0  0  0  0
  2 15  2  0  0  0  0
  3 18  2  0  0  0  0
  4 28  1  0  0  0  0
  4 60  1  0  0  0  0
  5 28  2  0  0  0  0
  6 36  1  0  0  0  0
  6 37  1  0  0  0  0
  7 11  1  0  0  0  0
  7 13  1  0  0  0  0
  7 15  1  0  0  0  0
  8 10  1  0  0  0  0
  8 18  1  0  0  0  0
  8 44  1  0  0  0  0
  9 14  1  0  0  0  0
  9 20  1  0  0  0  0
  9 47  1  0  0  0  0
 10 12  1  0  0  0  0
 10 13  1  0  0  0  0
 10 38  1  0  0  0  0
 11 12  1  0  0  0  0
 11 14  1  0  0  0  0
 11 39  1  0  0  0  0
 12 40  1  0  0  0  0
 12 41  1  0  0  0  0
 13 42  1  0  0  0  0
 13 43  1  0  0  0  0
 15 19  1  0  0  0  0
 16 17  1  0  0  0  0
 16 21  1  0  0  0  0
 16 22  1  0  0  0  0
 16 23  1  0  0  0  0
 17 18  1  0  0  0  0
 17 45  1  0  0  0  0
 17 46  1  0  0  0  0
 19 20  2  0  0  0  0
 19 24  1  0  0  0  0
 20 25  1  0  0  0  0
 21 28  1  0  0  0  0
 21 48  1  0  0  0  0
 21 49  1  0  0  0  0
 22 50  1  0  0  0  0
 22 51  1  0  0  0  0
 22 52  1  0  0  0  0
 23 53  1  0  0  0  0
 23 54  1  0  0  0  0
 23 55  1  0  0  0  0
 24 26  2  0  0  0  0
 24 56  1  0  0  0  0
 25 27  2  0  0  0  0
 25 57  1  0  0  0  0
 26 27  1  0  0  0  0
 26 29  1  0  0  0  0
 27 58  1  0  0  0  0
 29 30  2  0  0  0  0
 29 59  1  0  0  0  0
 30 31  1  0  0  0  0
 30 61  1  0  0  0  0
 31 32  2  0  0  0  0
 31 33  1  0  0  0  0
 32 34  1  0  0  0  0
 32 62  1  0  0  0  0
 33 35  2  0  0  0  0
 33 63  1  0  0  0  0
 34 36  2  0  0  0  0
 34 64  1  0  0  0  0
 35 36  1  0  0  0  0
 35 65  1  0  0  0  0
 37 66  1  0  0  0  0
 37 67  1  0  0  0  0
 37 68  1  0  0  0  0
M  END
> <PUBCHEM_COMPOUND_CID>
9421208

> <PUBCHEM_CONFORMER_RMSD>
1

> <PUBCHEM_CONFORMER_DIVERSEORDER>
1
17
29
4
26
28
24
8
19
30
13
21
27
14
10
23
5
7
22
15
16
3
11
12
9
20
25
6
2
18

> <PUBCHEM_MMFF94_PARTIAL_CHARGES>
45
1 -0.57
10 0.3
11 0.36
13 0.3
14 0.57
15 0.54
17 0.06
18 0.57
19 0.09
2 -0.57
20 0.12
21 0.06
24 -0.15
25 -0.15
26 0.03
27 -0.15
28 0.66
29 -0.18
3 -0.57
30 -0.18
31 0.03
32 -0.15
33 -0.15
34 -0.15
35 -0.15
36 0.08
37 0.28
4 -0.65
44 0.37
47 0.37
5 -0.57
56 0.15
57 0.15
58 0.15
59 0.15
6 -0.36
60 0.5
61 0.15
62 0.15
63 0.15
64 0.15
65 0.15
7 -0.66
8 -0.73
9 -0.55

> <PUBCHEM_EFFECTIVE_ROTOR_COUNT>
9.8

> <PUBCHEM_PHARMACOPHORE_FEATURES>
14
1 1 acceptor
1 2 acceptor
1 3 acceptor
1 4 acceptor
1 5 acceptor
1 6 acceptor
1 8 donor
1 9 donor
3 16 22 23 hydrophobe
3 4 5 28 anion
5 7 10 11 12 13 rings
6 19 20 24 25 26 27 rings
6 31 32 33 34 35 36 rings
7 7 9 11 14 15 19 20 rings

> <PUBCHEM_HEAVY_ATOM_COUNT>
37

> <PUBCHEM_ATOM_DEF_STEREO_COUNT>
2

> <PUBCHEM_ATOM_UDEF_STEREO_COUNT>
0

> <PUBCHEM_BOND_DEF_STEREO_COUNT>
1

> <PUBCHEM_BOND_UDEF_STEREO_COUNT>
0

> <PUBCHEM_ISOTOPIC_ATOM_COUNT>
0

> <PUBCHEM_COMPONENT_COUNT>
1

> <PUBCHEM_CACTVS_TAUTO_COUNT>
6

> <PUBCHEM_CONFORMER_ID>
008FC19800000001

> <PUBCHEM_MMFF94_ENERGY>
129.1695

> <PUBCHEM_FEATURE_SELFOVERLAP>
71.163

> <PUBCHEM_SHAPE_FINGERPRINT>
10 15 8502366768310210420
10076449 9 18334018306366722250
10190206 1 14996283608705113657
10280341 67 12822753609198173115
10429389 143 9439407925560739631
10533779 1 13685478793894200051
11181472 205 10663824071064570490
11211813 15 10953456336783280177
11411753 29 18333726944413109549
11456790 92 16988843891256548810
13673619 4 18335138717221302141
13782708 43 18335690654952039813
15021287 119 17418089936310907233
15064986 266 18412267216802250872
15183329 4 17895189945390734028
15350500 55 9583520923656649776
15392192 29 17632576085378968862
15419008 145 17489597744749297009
15455200 26 14833351289677586107
15461852 350 16371011776517422806
15776043 110 17418097606774318563
16067689 68 16630525150423628439
16991971 28 17167863097024671781
1754911 235 14056717942123051686
18608769 82 18335700563653049510
19246450 95 16630252420427697449
20105231 36 18410572886278750578
20156587 128 16009015151677063063
21267235 1 18131343099595682428
21781051 124 18408606989447309854
21792961 116 18335135350868723290
21867018 265 16732988621904828074
22149856 69 15195284202376124806
23522609 53 17058938951112368024
24771293 8 9871754576689386051
25269216 80 16443061712681370299
3383291 50 18272645745465134246
4149490 64 18409163351622395728
4169191 19 11025796474801345974
4330586 98 16950575423052684378
4339292 15 18187361038817714850
437795 83 12107776393862807079
5372103 7 8430326727270741187
54039377 194 18413388744109872756
58083652 198 17703496779650987489
58260988 521 18413110571604856199
6204607 403 13900752291740051194
636775 8 18335139782942728510
6691757 9 14476953476676574773
9896288 288 17916595211373847449
999808 66 18272088283804333276

> <PUBCHEM_SHAPE_MULTIPOLES>
711.28
32.37
2.99
2.07
53.6
0.39
-0.26
-36.08
4.71
-3.96
0.79
-2.62
0.34
2.74

> <PUBCHEM_SHAPE_SELFOVERLAP>
1527.738

> <PUBCHEM_SHAPE_VOLUME>
389.4

> <PUBCHEM_COORDINATE_TYPE>
2
5
10

$$$$
