40587841
  -OEChem-12032416263D

 54 56  0     1  0  0  0  0  0999 V2000
    2.9591   -1.6176   -1.7199 O   0  0  0  0  0  0  0  0  0  0  0  0
   -3.5357    1.0362   -1.3146 O   0  0  0  0  0  0  0  0  0  0  0  0
   -6.7782   -0.8197   -0.5925 O   0  0  0  0  0  0  0  0  0  0  0  0
    1.7130    0.3101   -1.4485 N   0  0  0  0  0  0  0  0  0  0  0  0
   -4.3648    1.1842    0.8514 N   0  0  0  0  0  0  0  0  0  0  0  0
    3.9810    0.2526   -0.8035 N   0  0  0  0  0  0  0  0  0  0  0  0
   -0.8660    1.2145   -0.4964 C   0  0  1  0  0  0  0  0  0  0  0  0
    0.4476    1.8741    0.0004 C   0  0  2  0  0  0  0  0  0  0  0  0
   -0.6363   -0.2324   -0.9698 C   0  0  0  0  0  0  0  0  0  0  0  0
    1.5377    1.7214   -1.0739 C   0  0  0  0  0  0  0  0  0  0  0  0
    0.5035   -0.3162   -1.9843 C   0  0  0  0  0  0  0  0  0  0  0  0
    0.9445    1.3388    1.3482 C   0  0  0  0  0  0  0  0  0  0  0  0
   -1.9933    1.2719    0.5341 C   0  0  0  0  0  0  0  0  0  0  0  0
    2.2176    2.0369    1.7783 C   0  0  0  0  0  0  0  0  0  0  0  0
    2.9049   -0.4396   -1.3578 C   0  0  0  0  0  0  0  0  0  0  0  0
   -3.3601    1.1493   -0.1045 C   0  0  0  0  0  0  0  0  0  0  0  0
   -5.7690    1.0889    0.5242 C   0  0  0  0  0  0  0  0  0  0  0  0
    5.0570   -0.2871   -0.0561 C   0  0  0  0  0  0  0  0  0  0  0  0
   -6.2603   -0.3292    0.5643 C   0  0  0  0  0  0  0  0  0  0  0  0
    6.0593    0.5526    0.4295 C   0  0  0  0  0  0  0  0  0  0  0  0
    5.1143   -1.6582    0.1937 C   0  0  0  0  0  0  0  0  0  0  0  0
   -6.3035   -1.2821    1.5554 C   0  0  0  0  0  0  0  0  0  0  0  0
    7.1188    0.0214    1.1652 C   0  0  0  0  0  0  0  0  0  0  0  0
    6.1736   -2.1895    0.9292 C   0  0  0  0  0  0  0  0  0  0  0  0
    7.1760   -1.3497    1.4149 C   0  0  0  0  0  0  0  0  0  0  0  0
   -6.8849   -2.4320    0.9700 C   0  0  0  0  0  0  0  0  0  0  0  0
   -7.1559   -2.0997   -0.3372 C   0  0  0  0  0  0  0  0  0  0  0  0
   -1.1747    1.7945   -1.3787 H   0  0  0  0  0  0  0  0  0  0  0  0
    0.2513    2.9486    0.1217 H   0  0  0  0  0  0  0  0  0  0  0  0
   -1.5439   -0.6434   -1.4250 H   0  0  0  0  0  0  0  0  0  0  0  0
   -0.3990   -0.8718   -0.1104 H   0  0  0  0  0  0  0  0  0  0  0  0
    1.2155    2.2403   -1.9869 H   0  0  0  0  0  0  0  0  0  0  0  0
    2.4611    2.2179   -0.7851 H   0  0  0  0  0  0  0  0  0  0  0  0
    0.6829   -1.3628   -2.2484 H   0  0  0  0  0  0  0  0  0  0  0  0
    0.2372    0.2121   -2.9073 H   0  0  0  0  0  0  0  0  0  0  0  0
    0.1843    1.5147    2.1176 H   0  0  0  0  0  0  0  0  0  0  0  0
    1.1176    0.2577    1.3165 H   0  0  0  0  0  0  0  0  0  0  0  0
   -1.9728    2.2387    1.0531 H   0  0  0  0  0  0  0  0  0  0  0  0
   -1.8822    0.4838    1.2883 H   0  0  0  0  0  0  0  0  0  0  0  0
    3.0927    1.7175    1.2142 H   0  0  0  0  0  0  0  0  0  0  0  0
    2.4259    1.8001    2.8279 H   0  0  0  0  0  0  0  0  0  0  0  0
    2.1270    3.1253    1.7013 H   0  0  0  0  0  0  0  0  0  0  0  0
   -4.1134    1.2640    1.8326 H   0  0  0  0  0  0  0  0  0  0  0  0
    4.0221    1.2578   -0.9242 H   0  0  0  0  0  0  0  0  0  0  0  0
   -5.9403    1.5257   -0.4656 H   0  0  0  0  0  0  0  0  0  0  0  0
   -6.3177    1.6861    1.2598 H   0  0  0  0  0  0  0  0  0  0  0  0
    6.0262    1.6230    0.2426 H   0  0  0  0  0  0  0  0  0  0  0  0
    4.3555   -2.3590   -0.1303 H   0  0  0  0  0  0  0  0  0  0  0  0
   -5.9594   -1.1650    2.5731 H   0  0  0  0  0  0  0  0  0  0  0  0
    7.8989    0.6754    1.5439 H   0  0  0  0  0  0  0  0  0  0  0  0
    6.2158   -3.2561    1.1298 H   0  0  0  0  0  0  0  0  0  0  0  0
    8.0000   -1.7632    1.9889 H   0  0  0  0  0  0  0  0  0  0  0  0
   -7.0820   -3.3839    1.4416 H   0  0  0  0  0  0  0  0  0  0  0  0
   -7.5922   -2.6330   -1.1690 H   0  0  0  0  0  0  0  0  0  0  0  0
  1 15  2  0  0  0  0
  2 16  2  0  0  0  0
  3 19  1  0  0  0  0
  3 27  1  0  0  0  0
  4 10  1  0  0  0  0
  4 11  1  0  0  0  0
  4 15  1  0  0  0  0
  5 16  1  0  0  0  0
  5 17  1  0  0  0  0
  5 43  1  0  0  0  0
  6 15  1  0  0  0  0
  6 18  1  0  0  0  0
  6 44  1  0  0  0  0
  7  8  1  0  0  0  0
  7  9  1  0  0  0  0
  7 13  1  0  0  0  0
  7 28  1  0  0  0  0
  8 10  1  0  0  0  0
  8 12  1  0  0  0  0
  8 29  1  0  0  0  0
  9 11  1  0  0  0  0
  9 30  1  0  0  0  0
  9 31  1  0  0  0  0
 10 32  1  0  0  0  0
 10 33  1  0  0  0  0
 11 34  1  0  0  0  0
 11 35  1  0  0  0  0
 12 14  1  0  0  0  0
 12 36  1  0  0  0  0
 12 37  1  0  0  0  0
 13 16  1  0  0  0  0
 13 38  1  0  0  0  0
 13 39  1  0  0  0  0
 14 40  1  0  0  0  0
 14 41  1  0  0  0  0
 14 42  1  0  0  0  0
 17 19  1  0  0  0  0
 17 45  1  0  0  0  0
 17 46  1  0  0  0  0
 18 20  2  0  0  0  0
 18 21  1  0  0  0  0
 19 22  2  0  0  0  0
 20 23  1  0  0  0  0
 20 47  1  0  0  0  0
 21 24  2  0  0  0  0
 21 48  1  0  0  0  0
 22 26  1  0  0  0  0
 22 49  1  0  0  0  0
 23 25  2  0  0  0  0
 23 50  1  0  0  0  0
 24 25  1  0  0  0  0
 24 51  1  0  0  0  0
 25 52  1  0  0  0  0
 26 27  2  0  0  0  0
 26 53  1  0  0  0  0
 27 54  1  0  0  0  0
M  END
> <PUBCHEM_COMPOUND_CID>
40587841

> <PUBCHEM_CONFORMER_RMSD>
1.2

> <PUBCHEM_CONFORMER_DIVERSEORDER>
1
97
61
67
16
102
89
14
93
29
72
47
83
84
69
66
7
90
107
38
2
86
88
104
33
45
40
111
101
108
20
25
36
75
55
34
41
57
106
68
19
27
48
85
63
18
94
42
105
73
50
53
12
46
43
56
91
26
60
37
96
17
64
9
28
92
76
51
21
54
39
31
99
49
78
100
10
5
71
110
77
82
87
79
80
81
3
22
58
30
95
6
70
62
8
98
32
103
35
4
11
15
13
74
23
65
44
52
24
109
59

> <PUBCHEM_MMFF94_PARTIAL_CHARGES>
32
1 -0.57
10 0.3
11 0.3
13 0.06
15 0.69
16 0.57
17 0.48
18 0.12
19 -0.04
2 -0.57
20 -0.15
21 -0.15
22 -0.15
23 -0.15
24 -0.15
25 -0.15
26 -0.15
27 -0.01
3 -0.28
4 -0.66
43 0.37
44 0.37
47 0.15
48 0.15
49 0.15
5 -0.73
50 0.15
51 0.15
52 0.15
53 0.15
54 0.15
6 -0.55

> <PUBCHEM_EFFECTIVE_ROTOR_COUNT>
10.2

> <PUBCHEM_PHARMACOPHORE_FEATURES>
9
1 1 acceptor
1 14 hydrophobe
1 2 acceptor
1 3 acceptor
1 5 donor
1 6 donor
5 3 19 22 26 27 rings
6 18 20 21 23 24 25 rings
6 4 7 8 9 10 11 rings

> <PUBCHEM_HEAVY_ATOM_COUNT>
27

> <PUBCHEM_ATOM_DEF_STEREO_COUNT>
2

> <PUBCHEM_ATOM_UDEF_STEREO_COUNT>
0

> <PUBCHEM_BOND_DEF_STEREO_COUNT>
0

> <PUBCHEM_BOND_UDEF_STEREO_COUNT>
0

> <PUBCHEM_ISOTOPIC_ATOM_COUNT>
0

> <PUBCHEM_COMPONENT_COUNT>
1

> <PUBCHEM_CACTVS_TAUTO_COUNT>
4

> <PUBCHEM_CONFORMER_ID>
026B524100000001

> <PUBCHEM_MMFF94_ENERGY>
55.3575

> <PUBCHEM_FEATURE_SELFOVERLAP>
45.671

> <PUBCHEM_SHAPE_FINGERPRINT>
10 15 17775566442024192764
106641 1 18201716275999962080
10693767 8 15430025540284462944
10906281 52 9943813296261725189
11456790 92 16271922659268040434
11646440 116 16559032688171731192
12035758 1 17561078111935093392
13668630 136 16877944966751732051
13782708 43 18259706700796758061
14251757 52 11167936957580098010
14251764 18 18273213123028229612
14849402 71 15841261661826053153
14931854 50 12757151226224565144
15052358 14 12973891415655537265
15183329 4 12540694803863846348
15188451 53 17749106678044153046
15352257 5 18408603669115687627
15475509 35 18409160000898954906
16994733 274 11671778260702832854
1768 124 18187926141183157314
1768 4 15841544202323911386
190975 80 18343299279864204298
19377110 9 16343709837415805209
20028762 73 18113621157957112546
20105231 36 18340207381361282062
2026 5 17603583002588709523
20567600 247 18113054917731051771
21315764 119 8574426552333027448
21424621 283 12319744669718894557
21521239 73 16081091489158057648
21623969 137 18060424603197211543
21637258 2 17748826297983507020
22149856 69 17488764306065809211
23559900 14 15141542353520139693
2747138 104 17775010063824512640
3178227 256 17775005708247516145
4058900 60 8430325645002903093
4093350 32 13182750238449021660
445580 37 8502657013214552223
465052 167 18343582936921918600
504579 68 15791724209894242789
5104073 3 16844715581691508609
5718773 13 18113618997440200043
5758199 1 14692569918601117029
59682541 35 18131345324377789920
59682541 52 13406792220918797800
59755656 215 12612749116356972832
6201320 82 14043736120852806594
6328613 192 9799696991483835479
7495541 125 18343309184301778341
9689198 14 12247680491126875427
9980921 221 12540972937246205855

> <PUBCHEM_SHAPE_MULTIPOLES>
523.1
22.22
2.35
1.7
11.77
0.66
-0.2
16.4
8.87
1.08
0.59
-0.84
0.02
0.18

> <PUBCHEM_SHAPE_SELFOVERLAP>
1093.887

> <PUBCHEM_SHAPE_VOLUME>
293.9

> <PUBCHEM_COORDINATE_TYPE>
2
5
10

$$$$
