45361204
  -OEChem-12032416233D

 67 70  0     1  0  0  0  0  0999 V2000
    7.4060   -2.0132   -1.7833 F   0  0  0  0  0  0  0  0  0  0  0  0
    6.7447   -3.4000   -0.2448 F   0  0  0  0  0  0  0  0  0  0  0  0
    8.2485   -1.8973    0.2117 F   0  0  0  0  0  0  0  0  0  0  0  0
    0.1137   -0.2865    1.1479 O   0  0  0  0  0  0  0  0  0  0  0  0
   -6.2044    0.9958   -0.1727 O   0  0  0  0  0  0  0  0  0  0  0  0
   -5.6425   -4.9837    0.7775 O   0  0  0  0  0  0  0  0  0  0  0  0
   -1.6241    2.6236   -0.7232 N   0  0  1  0  0  0  0  0  0  0  0  0
    1.7785    1.5771    0.1242 N   0  0  1  0  0  0  0  0  0  0  0  0
   -1.4947    1.2099    1.7883 N   0  0  0  0  0  0  0  0  0  0  0  0
   -5.2619   -1.0770   -0.6346 N   0  0  0  0  0  0  0  0  0  0  0  0
   -0.1896    2.8725   -0.4591 C   0  0  1  0  0  0  0  0  0  0  0  0
    0.5045    2.0701    0.6805 C   0  0  1  0  0  0  0  0  0  0  0  0
    0.7272    2.5800   -1.6615 C   0  0  0  0  0  0  0  0  0  0  0  0
    2.0931    2.4111   -1.0303 C   0  0  0  0  0  0  0  0  0  0  0  0
   -2.5297    2.9835    0.4034 C   0  0  2  0  0  0  0  0  0  0  0  0
   -0.2879    0.8749    1.2040 C   0  0  0  0  0  0  0  0  0  0  0  0
   -2.0321    2.5560    1.7980 C   0  0  0  0  0  0  0  0  0  0  0  0
   -3.9244    2.3566    0.1961 C   0  0  0  0  0  0  0  0  0  0  0  0
    2.8634    1.5555    1.0970 C   0  0  0  0  0  0  0  0  0  0  0  0
   -2.0540    3.2996   -1.9591 C   0  0  0  0  0  0  0  0  0  0  0  0
   -3.8382    0.8815   -0.1449 C   0  0  0  0  0  0  0  0  0  0  0  0
    3.9601    0.6064    0.6927 C   0  0  0  0  0  0  0  0  0  0  0  0
   -5.2100    0.2801   -0.3178 C   0  0  0  0  0  0  0  0  0  0  0  0
   -6.5570   -1.7225   -0.8639 C   0  0  0  0  0  0  0  0  0  0  0  0
   -4.0962   -1.9526   -0.8133 C   0  0  0  0  0  0  0  0  0  0  0  0
   -6.7147   -2.9554    0.0196 C   0  0  0  0  0  0  0  0  0  0  0  0
   -4.2105   -3.1915    0.0702 C   0  0  0  0  0  0  0  0  0  0  0  0
   -5.5375   -3.9158   -0.1564 C   0  0  0  0  0  0  0  0  0  0  0  0
    3.7850   -0.7686    0.8495 C   0  0  0  0  0  0  0  0  0  0  0  0
    5.1506    1.1017    0.1609 C   0  0  0  0  0  0  0  0  0  0  0  0
    4.8007   -1.6481    0.4748 C   0  0  0  0  0  0  0  0  0  0  0  0
    6.1663    0.2222   -0.2139 C   0  0  0  0  0  0  0  0  0  0  0  0
    5.9913   -1.1527   -0.0569 C   0  0  0  0  0  0  0  0  0  0  0  0
    7.0758   -2.0934   -0.4605 C   0  0  0  0  0  0  0  0  0  0  0  0
   -0.0637    3.9409   -0.2241 H   0  0  0  0  0  0  0  0  0  0  0  0
    0.7011    2.7504    1.5198 H   0  0  0  0  0  0  0  0  0  0  0  0
    0.4295    1.6521   -2.1682 H   0  0  0  0  0  0  0  0  0  0  0  0
    0.7275    3.3922   -2.3957 H   0  0  0  0  0  0  0  0  0  0  0  0
    2.7894    1.9254   -1.7207 H   0  0  0  0  0  0  0  0  0  0  0  0
    2.4986    3.3893   -0.7423 H   0  0  0  0  0  0  0  0  0  0  0  0
   -2.6557    4.0746    0.4406 H   0  0  0  0  0  0  0  0  0  0  0  0
   -2.8387    2.5779    2.5393 H   0  0  0  0  0  0  0  0  0  0  0  0
   -1.2660    3.2479    2.1620 H   0  0  0  0  0  0  0  0  0  0  0  0
   -4.4626    2.8914   -0.5963 H   0  0  0  0  0  0  0  0  0  0  0  0
   -4.5368    2.5039    1.0959 H   0  0  0  0  0  0  0  0  0  0  0  0
    2.4926    1.2057    2.0710 H   0  0  0  0  0  0  0  0  0  0  0  0
    3.2621    2.5604    1.2909 H   0  0  0  0  0  0  0  0  0  0  0  0
   -2.0337    0.4694    2.2264 H   0  0  0  0  0  0  0  0  0  0  0  0
   -1.9244    4.3857   -1.8921 H   0  0  0  0  0  0  0  0  0  0  0  0
   -1.5000    2.9357   -2.8301 H   0  0  0  0  0  0  0  0  0  0  0  0
   -3.1006    3.0954   -2.2010 H   0  0  0  0  0  0  0  0  0  0  0  0
   -3.3720    0.3127    0.6571 H   0  0  0  0  0  0  0  0  0  0  0  0
   -3.2884    0.7221   -1.0777 H   0  0  0  0  0  0  0  0  0  0  0  0
   -7.3795   -1.0253   -0.6760 H   0  0  0  0  0  0  0  0  0  0  0  0
   -6.5998   -2.0016   -1.9234 H   0  0  0  0  0  0  0  0  0  0  0  0
   -3.1558   -1.4431   -0.5976 H   0  0  0  0  0  0  0  0  0  0  0  0
   -4.0701   -2.2411   -1.8709 H   0  0  0  0  0  0  0  0  0  0  0  0
   -6.7845   -2.6536    1.0730 H   0  0  0  0  0  0  0  0  0  0  0  0
   -7.6555   -3.4691   -0.2102 H   0  0  0  0  0  0  0  0  0  0  0  0
   -3.3747   -3.8744   -0.1229 H   0  0  0  0  0  0  0  0  0  0  0  0
   -4.1269   -2.9036    1.1266 H   0  0  0  0  0  0  0  0  0  0  0  0
   -5.5526   -4.3471   -1.1644 H   0  0  0  0  0  0  0  0  0  0  0  0
    2.8633   -1.1677    1.2640 H   0  0  0  0  0  0  0  0  0  0  0  0
    5.2989    2.1705    0.0318 H   0  0  0  0  0  0  0  0  0  0  0  0
    4.6444   -2.7154    0.6051 H   0  0  0  0  0  0  0  0  0  0  0  0
    7.0900    0.6174   -0.6283 H   0  0  0  0  0  0  0  0  0  0  0  0
   -6.4937   -5.4270    0.6207 H   0  0  0  0  0  0  0  0  0  0  0  0
  1 34  1  0  0  0  0
  2 34  1  0  0  0  0
  3 34  1  0  0  0  0
  4 16  2  0  0  0  0
  5 23  2  0  0  0  0
  6 28  1  0  0  0  0
  6 67  1  0  0  0  0
  7 11  1  0  0  0  0
  7 15  1  0  0  0  0
  7 20  1  0  0  0  0
  8 12  1  0  0  0  0
  8 14  1  0  0  0  0
  8 19  1  0  0  0  0
  9 16  1  0  0  0  0
  9 17  1  0  0  0  0
  9 48  1  0  0  0  0
 10 23  1  0  0  0  0
 10 24  1  0  0  0  0
 10 25  1  0  0  0  0
 11 12  1  0  0  0  0
 11 13  1  0  0  0  0
 11 35  1  0  0  0  0
 12 16  1  0  0  0  0
 12 36  1  0  0  0  0
 13 14  1  0  0  0  0
 13 37  1  0  0  0  0
 13 38  1  0  0  0  0
 14 39  1  0  0  0  0
 14 40  1  0  0  0  0
 15 17  1  0  0  0  0
 15 18  1  0  0  0  0
 15 41  1  0  0  0  0
 17 42  1  0  0  0  0
 17 43  1  0  0  0  0
 18 21  1  0  0  0  0
 18 44  1  0  0  0  0
 18 45  1  0  0  0  0
 19 22  1  0  0  0  0
 19 46  1  0  0  0  0
 19 47  1  0  0  0  0
 20 49  1  0  0  0  0
 20 50  1  0  0  0  0
 20 51  1  0  0  0  0
 21 23  1  0  0  0  0
 21 52  1  0  0  0  0
 21 53  1  0  0  0  0
 22 29  2  0  0  0  0
 22 30  1  0  0  0  0
 24 26  1  0  0  0  0
 24 54  1  0  0  0  0
 24 55  1  0  0  0  0
 25 27  1  0  0  0  0
 25 56  1  0  0  0  0
 25 57  1  0  0  0  0
 26 28  1  0  0  0  0
 26 58  1  0  0  0  0
 26 59  1  0  0  0  0
 27 28  1  0  0  0  0
 27 60  1  0  0  0  0
 27 61  1  0  0  0  0
 28 62  1  0  0  0  0
 29 31  1  0  0  0  0
 29 63  1  0  0  0  0
 30 32  2  0  0  0  0
 30 64  1  0  0  0  0
 31 33  2  0  0  0  0
 31 65  1  0  0  0  0
 32 33  1  0  0  0  0
 32 66  1  0  0  0  0
 33 34  1  0  0  0  0
M  END
> <PUBCHEM_COMPOUND_CID>
45361204

> <PUBCHEM_CONFORMER_RMSD>
1

> <PUBCHEM_CONFORMER_DIVERSEORDER>
1
81
180
202
59
182
27
138
79
256
125
265
274
141
173
55
199
288
158
107
270
30
264
88
278
195
98
286
165
272
110
257
235
189
109
275
167
222
150
22
171
129
48
241
102
280
132
144
168
104
243
164
208
11
225
113
196
268
89
111
163
47
186
263
95
52
212
140
2
156
252
245
130
76
85
200
23
14
42
255
234
188
5
187
148
209
154
219
53
229
84
204
117
15
63
82
41
190
91
134
267
114
38
232
108
220
213
29
103
25
123
8
244
283
259
197
90
133
221
86
20
162
205
54
228
69
271
194
112
198
269
157
67
97
44
10
34
78
39
177
217
172
215
218
193
61
21
230
16
43
126
124
121
206
258
226
260
249
65
45
242
128
246
273
216
100
35
233
174
115
7
183
18
119
254
203
49
185
284
135
159
83
160
153
231
176
227
50
287
105
68
169
151
64
24
161
155
181
31
247
201
137
127
170
92
210
279
62
57
143
236
282
214
149
147
12
9
179
131
87
184
101
60
251
37
250
46
191
266
118
178
93
276
72
3
238
71
56
66
224
248
207
261
19
96
262
28
192
4
17
75
32
58
285
74
145
146
36
73
94
80
281
120
6
253
70
237
277
142
240
122
26
51
13
136
223
77
139
211
99
166
175
152
33
289
116
239
106
40

> <PUBCHEM_MMFF94_PARTIAL_CHARGES>
36
1 -0.34
10 -0.66
11 0.27
12 0.33
14 0.27
15 0.27
16 0.57
17 0.3
19 0.41
2 -0.34
20 0.27
21 0.06
22 -0.14
23 0.57
24 0.3
25 0.3
28 0.28
29 -0.15
3 -0.34
30 -0.15
31 -0.15
32 -0.15
33 -0.14
34 1.16
4 -0.57
48 0.37
5 -0.57
6 -0.68
63 0.15
64 0.15
65 0.15
66 0.15
67 0.4
7 -0.81
8 -0.81
9 -0.73

> <PUBCHEM_EFFECTIVE_ROTOR_COUNT>
9.6

> <PUBCHEM_PHARMACOPHORE_FEATURES>
11
1 4 acceptor
1 5 acceptor
1 6 acceptor
1 6 donor
1 7 cation
1 8 cation
1 9 donor
5 8 11 12 13 14 rings
6 10 24 25 26 27 28 rings
6 22 29 30 31 32 33 rings
7 7 9 11 12 15 16 17 rings

> <PUBCHEM_HEAVY_ATOM_COUNT>
34

> <PUBCHEM_ATOM_DEF_STEREO_COUNT>
3

> <PUBCHEM_ATOM_UDEF_STEREO_COUNT>
0

> <PUBCHEM_BOND_DEF_STEREO_COUNT>
0

> <PUBCHEM_BOND_UDEF_STEREO_COUNT>
0

> <PUBCHEM_ISOTOPIC_ATOM_COUNT>
0

> <PUBCHEM_COMPONENT_COUNT>
1

> <PUBCHEM_CACTVS_TAUTO_COUNT>
3

> <PUBCHEM_CONFORMER_ID>
02B4283400000001

> <PUBCHEM_MMFF94_ENERGY>
80.1204

> <PUBCHEM_FEATURE_SELFOVERLAP>
55.858

> <PUBCHEM_SHAPE_FINGERPRINT>
10042902 136 18408603660330755764
10391435 84 18339346544020668992
10677394 325 17532110443874158126
11135609 99 18273210907278610214
11315621 246 18335979787923972103
11497681 19 18410575115509065756
117089 54 18118970437003930379
11761917 116 18411142476420261246
12422481 6 17775281694414363063
12522641 68 17248346003775146917
12633257 1 15912203303808491181
13347071 3 18342739624083069510
1361 4 18340205297087982374
13690498 29 17895752889989547845
13782708 43 18201716245787530448
13911987 19 15140961725623772001
13947930 73 17846499274316474214
14040221 137 12247130645546391579
14211702 104 18202570562011553494
14420673 8 18411698825240861591
14856354 85 18058734593606886341
15082195 135 18042132123558771868
15230672 131 18336819785349678299
15510800 12 18131638871927659063
15705408 1 17385733512624442660
16067689 391 18263085564802609875
16112460 7 12175036866393033690
17492 89 18339641264750399265
17909252 39 18122343755603933497
18603816 31 18341060631556852683
19438510 23 9943809997220628245
208703 8 18410005576432136615
21307412 95 18337657686514326677
21424621 283 9799689307587220932
21756936 100 8646481908403045057
23379529 103 18264484160640055787
23559900 14 18271795861204529097
437795 139 18411147934695563686
437795 70 18260829332007155411
4435113 14 17844536491869891390
44802255 64 12757443729897265832
54039377 194 18335146406035370283
54583773 228 18411141373193693604
5718773 13 18342173371304110532
7970288 3 18193271026203507303

> <PUBCHEM_SHAPE_MULTIPOLES>
640.35
20.79
5.48
1.37
17.11
3.56
0.08
27.92
3.76
-6.19
0.67
0.11
-0.88
0.74

> <PUBCHEM_SHAPE_SELFOVERLAP>
1349.778

> <PUBCHEM_SHAPE_VOLUME>
360.1

> <PUBCHEM_COORDINATE_TYPE>
2
5
10

$$$$
