51137729
  -OEChem-12032416223D

 45 48  0     1  0  0  0  0  0999 V2000
   -1.8016    0.7531   -0.3827 O   0  0  0  0  0  0  0  0  0  0  0  0
    1.7235    1.0101    2.8292 O   0  0  0  0  0  0  0  0  0  0  0  0
    5.1086   -2.4205   -1.2013 O   0  0  0  0  0  0  0  0  0  0  0  0
    0.9150    1.9276    0.8548 N   0  0  0  0  0  0  0  0  0  0  0  0
   -2.8723    2.2452   -1.6603 N   0  0  0  0  0  0  0  0  0  0  0  0
   -3.7148    1.1665   -1.4659 N   0  0  0  0  0  0  0  0  0  0  0  0
   -0.4926    2.7730   -0.8678 C   0  0  1  0  0  0  0  0  0  0  0  0
   -0.5491    3.7078    0.3504 C   0  0  0  0  0  0  0  0  0  0  0  0
    0.7976    1.9841   -0.6032 C   0  0  0  0  0  0  0  0  0  0  0  0
   -0.0067    2.8564    1.4903 C   0  0  0  0  0  0  0  0  0  0  0  0
   -1.7680    1.9605   -1.0102 C   0  0  0  0  0  0  0  0  0  0  0  0
    1.7110    1.0730    1.6015 C   0  0  0  0  0  0  0  0  0  0  0  0
    2.6002    0.1585    0.8685 C   0  0  0  0  0  0  0  0  0  0  0  0
   -3.0487    0.3207   -0.7151 C   0  0  0  0  0  0  0  0  0  0  0  0
    3.5781    0.6714    0.0160 C   0  0  0  0  0  0  0  0  0  0  0  0
    2.4655   -1.2209    1.0252 C   0  0  0  0  0  0  0  0  0  0  0  0
   -3.4251   -0.9639   -0.2006 C   0  0  0  0  0  0  0  0  0  0  0  0
    4.4212   -0.1952   -0.6796 C   0  0  0  0  0  0  0  0  0  0  0  0
    3.3086   -2.0875    0.3298 C   0  0  0  0  0  0  0  0  0  0  0  0
    4.2863   -1.5747   -0.5226 C   0  0  0  0  0  0  0  0  0  0  0  0
   -4.6849   -1.4888   -0.4888 C   0  0  0  0  0  0  0  0  0  0  0  0
   -2.5315   -1.6884    0.5881 C   0  0  0  0  0  0  0  0  0  0  0  0
   -5.0512   -2.7383    0.0116 C   0  0  0  0  0  0  0  0  0  0  0  0
   -2.8977   -2.9379    1.0886 C   0  0  0  0  0  0  0  0  0  0  0  0
   -4.1575   -3.4628    0.8003 C   0  0  0  0  0  0  0  0  0  0  0  0
    6.0862   -1.8289   -2.0561 C   0  0  0  0  0  0  0  0  0  0  0  0
   -0.3896    3.3539   -1.7925 H   0  0  0  0  0  0  0  0  0  0  0  0
    0.1241    4.5584    0.1835 H   0  0  0  0  0  0  0  0  0  0  0  0
   -1.5461    4.1037    0.5671 H   0  0  0  0  0  0  0  0  0  0  0  0
    0.7983    0.9820   -1.0421 H   0  0  0  0  0  0  0  0  0  0  0  0
    1.6603    2.5451   -0.9787 H   0  0  0  0  0  0  0  0  0  0  0  0
    0.5078    3.4440    2.2566 H   0  0  0  0  0  0  0  0  0  0  0  0
   -0.7979    2.2705    1.9711 H   0  0  0  0  0  0  0  0  0  0  0  0
    3.7123    1.7435   -0.1009 H   0  0  0  0  0  0  0  0  0  0  0  0
    1.7052   -1.6326    1.6840 H   0  0  0  0  0  0  0  0  0  0  0  0
    5.1617    0.2702   -1.3209 H   0  0  0  0  0  0  0  0  0  0  0  0
    3.1983   -3.1612    0.4553 H   0  0  0  0  0  0  0  0  0  0  0  0
   -5.3975   -0.9418   -1.1014 H   0  0  0  0  0  0  0  0  0  0  0  0
   -1.5413   -1.3130    0.8342 H   0  0  0  0  0  0  0  0  0  0  0  0
   -6.0321   -3.1472   -0.2126 H   0  0  0  0  0  0  0  0  0  0  0  0
   -2.2021   -3.5024    1.7026 H   0  0  0  0  0  0  0  0  0  0  0  0
   -4.4426   -4.4356    1.1900 H   0  0  0  0  0  0  0  0  0  0  0  0
    5.6198   -1.2644   -2.8706 H   0  0  0  0  0  0  0  0  0  0  0  0
    6.8031   -1.2249   -1.4896 H   0  0  0  0  0  0  0  0  0  0  0  0
    6.6504   -2.6467   -2.5162 H   0  0  0  0  0  0  0  0  0  0  0  0
  1 11  1  0  0  0  0
  1 14  1  0  0  0  0
  2 12  2  0  0  0  0
  3 20  1  0  0  0  0
  3 26  1  0  0  0  0
  4  9  1  0  0  0  0
  4 10  1  0  0  0  0
  4 12  1  0  0  0  0
  5  6  1  0  0  0  0
  5 11  2  0  0  0  0
  6 14  2  0  0  0  0
  7  8  1  0  0  0  0
  7  9  1  0  0  0  0
  7 11  1  0  0  0  0
  7 27  1  0  0  0  0
  8 10  1  0  0  0  0
  8 28  1  0  0  0  0
  8 29  1  0  0  0  0
  9 30  1  0  0  0  0
  9 31  1  0  0  0  0
 10 32  1  0  0  0  0
 10 33  1  0  0  0  0
 12 13  1  0  0  0  0
 13 15  2  0  0  0  0
 13 16  1  0  0  0  0
 14 17  1  0  0  0  0
 15 18  1  0  0  0  0
 15 34  1  0  0  0  0
 16 19  2  0  0  0  0
 16 35  1  0  0  0  0
 17 21  2  0  0  0  0
 17 22  1  0  0  0  0
 18 20  2  0  0  0  0
 18 36  1  0  0  0  0
 19 20  1  0  0  0  0
 19 37  1  0  0  0  0
 21 23  1  0  0  0  0
 21 38  1  0  0  0  0
 22 24  2  0  0  0  0
 22 39  1  0  0  0  0
 23 25  2  0  0  0  0
 23 40  1  0  0  0  0
 24 25  1  0  0  0  0
 24 41  1  0  0  0  0
 25 42  1  0  0  0  0
 26 43  1  0  0  0  0
 26 44  1  0  0  0  0
 26 45  1  0  0  0  0
M  END
> <PUBCHEM_COMPOUND_CID>
51137729

> <PUBCHEM_CONFORMER_RMSD>
0.8

> <PUBCHEM_CONFORMER_DIVERSEORDER>
1
10
20
41
15
12
45
58
40
39
34
38
31
51
43
3
44
59
13
52
55
23
37
29
42
18
14
48
5
8
56
60
16
36
4
22
25
28
49
21
6
50
7
54
24
53
27
19
32
9
33
47
46
57
11
26
2
35
30
17

> <PUBCHEM_MMFF94_PARTIAL_CHARGES>
34
1 -0.28
10 0.3
11 0.3
12 0.54
13 0.09
14 0.43
15 -0.15
16 -0.15
17 0.05
18 -0.15
19 -0.15
2 -0.57
20 0.08
21 -0.15
22 -0.15
23 -0.15
24 -0.15
25 -0.15
26 0.28
3 -0.36
34 0.15
35 0.15
36 0.15
37 0.15
38 0.15
39 0.15
4 -0.66
40 0.15
41 0.15
42 0.15
5 -0.34
6 -0.34
7 0.18
9 0.3

> <PUBCHEM_EFFECTIVE_ROTOR_COUNT>
6

> <PUBCHEM_PHARMACOPHORE_FEATURES>
6
1 2 acceptor
1 3 acceptor
5 1 5 6 11 14 rings
5 4 7 8 9 10 rings
6 13 15 16 18 19 20 rings
6 17 21 22 23 24 25 rings

> <PUBCHEM_HEAVY_ATOM_COUNT>
26

> <PUBCHEM_ATOM_DEF_STEREO_COUNT>
1

> <PUBCHEM_ATOM_UDEF_STEREO_COUNT>
0

> <PUBCHEM_BOND_DEF_STEREO_COUNT>
0

> <PUBCHEM_BOND_UDEF_STEREO_COUNT>
0

> <PUBCHEM_ISOTOPIC_ATOM_COUNT>
0

> <PUBCHEM_COMPONENT_COUNT>
1

> <PUBCHEM_CACTVS_TAUTO_COUNT>
1

> <PUBCHEM_CONFORMER_ID>
030C4CC100000001

> <PUBCHEM_MMFF94_ENERGY>
73.3047

> <PUBCHEM_FEATURE_SELFOVERLAP>
30.449

> <PUBCHEM_SHAPE_FINGERPRINT>
10577160 103 18042702753203355700
10764073 3 10878899497218479336
107951 10 17694504745466839469
10928967 22 18343578555591677038
11374522 101 12175615171377108778
114674 6 17973433592718462971
12712778 12 17831546835740033082
13103583 49 17346052120465034555
13135754 10 17129890251889543016
13402501 40 18412824685659867311
13533116 47 18053383490559593987
1361 87 18270683065173730742
13631057 29 18410299082292595542
13785724 45 17972048191705539379
13911882 115 18341324604504985952
13941206 138 17688590455494246869
13989917 61 17543354212494011339
14251740 57 17977949308855231147
14251740 79 18193003616849273178
14251757 5 18262242118586086575
14251764 30 18131080337390645206
14363568 33 18123199162300918136
14681488 357 18266741474918098507
14866123 147 18339645517437708153
14950920 106 13325982497070194030
15664445 248 16518209088733019965
17859628 70 17907863147522997377
17909252 39 18266188399431944948
1979834 28 17543629086210184203
20775530 9 18410572907326202315
21307412 95 18340200796315788871
21591331 117 18263387878659089579
221357 26 18409449214921968299
22288116 15 18126588743056775678
22849339 104 18114732751532834717
23379529 103 18412551994160178966
23466295 7 18268440048383237112
23559900 14 18116986887840370653
238078 22 18337113367301152092
329604 57 18335704966331819718
3737641 26 18342181110887945080
4280585 95 18115014235136636336
437815 12 18272652346586521411
445580 182 10231187037255403334
4461854 278 16533996035192391394
46194498 28 17898290756057011535
484985 159 18127703638202058523
4921388 177 18054798278145243388
5309563 4 18341332275037514919
5365585 94 18056767529061091782
57307002 29 17967529035299993479
6823239 73 18336818788173239986
8217 86 18412834581749391926
9862886 166 18339075974699229994
9980921 177 17977702933058360947

> <PUBCHEM_SHAPE_MULTIPOLES>
502.52
11.24
4.6
1.74
4.22
0.86
0.41
-13.41
-4.75
-2.62
0.19
1.19
0.44
3.13

> <PUBCHEM_SHAPE_SELFOVERLAP>
1099.592

> <PUBCHEM_SHAPE_VOLUME>
273.8

> <PUBCHEM_COORDINATE_TYPE>
2
5
10

$$$$
