7164973
  -OEChem-12032416353D

 72 74  0     1  0  0  0  0  0999 V2000
    3.0101    1.4835   -1.0836 S   0  0  0  0  0  0  0  0  0  0  0  0
   -0.1830    1.5540   -2.1812 O   0  0  0  0  0  0  0  0  0  0  0  0
    2.2103    2.6171   -0.6840 O   0  0  0  0  0  0  0  0  0  0  0  0
    3.9659    1.5769   -2.1618 O   0  0  0  0  0  0  0  0  0  0  0  0
   -0.1597    4.2605    0.7605 O   0  0  0  0  0  0  0  0  0  0  0  0
    1.2174   -4.6396    0.1078 O   0  0  0  0  0  0  0  0  0  0  0  0
    1.9666    0.1577   -1.3929 N   0  0  2  0  0  0  0  0  0  0  0  0
   -0.9244    1.6859    0.0216 N   0  0  0  0  0  0  0  0  0  0  0  0
    0.8981   -2.4127   -0.4627 N   0  0  0  0  0  0  0  0  0  0  0  0
   -1.5986    5.0857   -0.8277 N   0  0  0  0  0  0  0  0  0  0  0  0
   -0.9338   -3.8411   -0.0592 N   0  0  0  0  0  0  0  0  0  0  0  0
   -3.8099    1.3565    0.7254 C   0  0  0  0  0  0  0  0  0  0  0  0
   -4.3416    1.1282   -0.6960 C   0  0  0  0  0  0  0  0  0  0  0  0
   -4.9538    1.3248    1.7482 C   0  0  0  0  0  0  0  0  0  0  0  0
   -3.0468    2.6769    0.8104 C   0  0  0  0  0  0  0  0  0  0  0  0
   -5.1545   -0.1607   -0.7937 C   0  0  0  0  0  0  0  0  0  0  0  0
   -5.7654    0.0355    1.6464 C   0  0  0  0  0  0  0  0  0  0  0  0
   -6.2848   -0.1924    0.2302 C   0  0  0  0  0  0  0  0  0  0  0  0
   -1.8563    2.7771   -0.1486 C   0  0  1  0  0  0  0  0  0  0  0  0
    0.7312    0.0657   -0.5628 C   0  0  2  0  0  0  0  0  0  0  0  0
    0.0217   -1.2726   -0.7553 C   0  0  0  0  0  0  0  0  0  0  0  0
    2.6374   -1.1510   -1.6610 C   0  0  0  0  0  0  0  0  0  0  0  0
   -0.1666    1.1685   -1.0150 C   0  0  0  0  0  0  0  0  0  0  0  0
    2.3346   -2.1585   -0.5621 C   0  0  0  0  0  0  0  0  0  0  0  0
   -1.0989    4.0916   -0.0134 C   0  0  0  0  0  0  0  0  0  0  0  0
    0.4492   -3.6997   -0.1183 C   0  0  0  0  0  0  0  0  0  0  0  0
    3.8483    0.8755    0.3440 C   0  0  0  0  0  0  0  0  0  0  0  0
   -1.5671   -5.0974    0.2708 C   0  0  0  0  0  0  0  0  0  0  0  0
    5.0228    0.1365    0.2013 C   0  0  0  0  0  0  0  0  0  0  0  0
    3.3367    1.1332    1.6158 C   0  0  0  0  0  0  0  0  0  0  0  0
    5.6855   -0.3448    1.3303 C   0  0  0  0  0  0  0  0  0  0  0  0
    3.9995    0.6518    2.7449 C   0  0  0  0  0  0  0  0  0  0  0  0
   -1.7843   -5.9276   -0.9877 C   0  0  0  0  0  0  0  0  0  0  0  0
   -2.8793   -4.8575    1.0072 C   0  0  0  0  0  0  0  0  0  0  0  0
    5.1739   -0.0872    2.6020 C   0  0  0  0  0  0  0  0  0  0  0  0
   -3.1265    0.5328    0.9723 H   0  0  0  0  0  0  0  0  0  0  0  0
   -4.9660    1.9760   -1.0050 H   0  0  0  0  0  0  0  0  0  0  0  0
   -3.5216    1.0513   -1.4171 H   0  0  0  0  0  0  0  0  0  0  0  0
   -4.5509    1.4180    2.7638 H   0  0  0  0  0  0  0  0  0  0  0  0
   -5.6200    2.1827    1.5906 H   0  0  0  0  0  0  0  0  0  0  0  0
   -3.7288    3.5170    0.6235 H   0  0  0  0  0  0  0  0  0  0  0  0
   -2.6846    2.8110    1.8391 H   0  0  0  0  0  0  0  0  0  0  0  0
   -4.4935   -1.0218   -0.6344 H   0  0  0  0  0  0  0  0  0  0  0  0
   -5.5694   -0.2593   -1.8032 H   0  0  0  0  0  0  0  0  0  0  0  0
   -6.6080    0.0743    2.3460 H   0  0  0  0  0  0  0  0  0  0  0  0
   -5.1397   -0.8140    1.9468 H   0  0  0  0  0  0  0  0  0  0  0  0
   -7.0224    0.5812   -0.0166 H   0  0  0  0  0  0  0  0  0  0  0  0
   -6.8030   -1.1564    0.1780 H   0  0  0  0  0  0  0  0  0  0  0  0
   -2.2186    2.7352   -1.1827 H   0  0  0  0  0  0  0  0  0  0  0  0
    0.9917    0.1753    0.4944 H   0  0  0  0  0  0  0  0  0  0  0  0
   -0.8582   -1.3021   -0.1041 H   0  0  0  0  0  0  0  0  0  0  0  0
   -0.3304   -1.3969   -1.7873 H   0  0  0  0  0  0  0  0  0  0  0  0
    2.2414   -1.5167   -2.6177 H   0  0  0  0  0  0  0  0  0  0  0  0
    3.7123   -1.0493   -1.8157 H   0  0  0  0  0  0  0  0  0  0  0  0
   -0.7794    1.3342    0.9637 H   0  0  0  0  0  0  0  0  0  0  0  0
    2.8646   -3.0952   -0.7638 H   0  0  0  0  0  0  0  0  0  0  0  0
    2.6639   -1.8035    0.4197 H   0  0  0  0  0  0  0  0  0  0  0  0
   -2.3881    4.9386   -1.4483 H   0  0  0  0  0  0  0  0  0  0  0  0
   -1.1882    6.0135   -0.8273 H   0  0  0  0  0  0  0  0  0  0  0  0
   -1.5359   -3.1038   -0.4046 H   0  0  0  0  0  0  0  0  0  0  0  0
   -0.8993   -5.6552    0.9382 H   0  0  0  0  0  0  0  0  0  0  0  0
    5.4536   -0.0644   -0.7750 H   0  0  0  0  0  0  0  0  0  0  0  0
    2.4250    1.7079    1.7522 H   0  0  0  0  0  0  0  0  0  0  0  0
    6.6019   -0.9170    1.2196 H   0  0  0  0  0  0  0  0  0  0  0  0
    3.6015    0.8526    3.7353 H   0  0  0  0  0  0  0  0  0  0  0  0
   -2.2463   -6.8906   -0.7466 H   0  0  0  0  0  0  0  0  0  0  0  0
   -0.8343   -6.1274   -1.4954 H   0  0  0  0  0  0  0  0  0  0  0  0
   -2.4338   -5.4060   -1.6997 H   0  0  0  0  0  0  0  0  0  0  0  0
   -3.3492   -5.8051    1.2901 H   0  0  0  0  0  0  0  0  0  0  0  0
   -2.7104   -4.2763    1.9203 H   0  0  0  0  0  0  0  0  0  0  0  0
   -3.5874   -4.2968    0.3868 H   0  0  0  0  0  0  0  0  0  0  0  0
    5.6904   -0.4612    3.4812 H   0  0  0  0  0  0  0  0  0  0  0  0
  1  3  2  0  0  0  0
  1  4  2  0  0  0  0
  1  7  1  0  0  0  0
  1 27  1  0  0  0  0
  2 23  2  0  0  0  0
  5 25  2  0  0  0  0
  6 26  2  0  0  0  0
  7 20  1  0  0  0  0
  7 22  1  0  0  0  0
  8 19  1  0  0  0  0
  8 23  1  0  0  0  0
  8 55  1  0  0  0  0
  9 21  1  0  0  0  0
  9 24  1  0  0  0  0
  9 26  1  0  0  0  0
 10 25  1  0  0  0  0
 10 58  1  0  0  0  0
 10 59  1  0  0  0  0
 11 26  1  0  0  0  0
 11 28  1  0  0  0  0
 11 60  1  0  0  0  0
 12 13  1  0  0  0  0
 12 14  1  0  0  0  0
 12 15  1  0  0  0  0
 12 36  1  0  0  0  0
 13 16  1  0  0  0  0
 13 37  1  0  0  0  0
 13 38  1  0  0  0  0
 14 17  1  0  0  0  0
 14 39  1  0  0  0  0
 14 40  1  0  0  0  0
 15 19  1  0  0  0  0
 15 41  1  0  0  0  0
 15 42  1  0  0  0  0
 16 18  1  0  0  0  0
 16 43  1  0  0  0  0
 16 44  1  0  0  0  0
 17 18  1  0  0  0  0
 17 45  1  0  0  0  0
 17 46  1  0  0  0  0
 18 47  1  0  0  0  0
 18 48  1  0  0  0  0
 19 25  1  0  0  0  0
 19 49  1  0  0  0  0
 20 21  1  0  0  0  0
 20 23  1  0  0  0  0
 20 50  1  0  0  0  0
 21 51  1  0  0  0  0
 21 52  1  0  0  0  0
 22 24  1  0  0  0  0
 22 53  1  0  0  0  0
 22 54  1  0  0  0  0
 24 56  1  0  0  0  0
 24 57  1  0  0  0  0
 27 29  2  0  0  0  0
 27 30  1  0  0  0  0
 28 33  1  0  0  0  0
 28 34  1  0  0  0  0
 28 61  1  0  0  0  0
 29 31  1  0  0  0  0
 29 62  1  0  0  0  0
 30 32  2  0  0  0  0
 30 63  1  0  0  0  0
 31 35  2  0  0  0  0
 31 64  1  0  0  0  0
 32 35  1  0  0  0  0
 32 65  1  0  0  0  0
 33 66  1  0  0  0  0
 33 67  1  0  0  0  0
 33 68  1  0  0  0  0
 34 69  1  0  0  0  0
 34 70  1  0  0  0  0
 34 71  1  0  0  0  0
 35 72  1  0  0  0  0
M  END
> <PUBCHEM_COMPOUND_CID>
7164973

> <PUBCHEM_CONFORMER_RMSD>
1.2

> <PUBCHEM_CONFORMER_DIVERSEORDER>
1
5
54
74
48
96
45
24
27
94
93
82
89
12
64
31
18
57
13
76
77
78
85
67
25
75
50
35
51
91
66
47
44
40
73
10
49
56
34
46
9
92
43
32
11
83
62
3
42
52
79
23
21
6
71
16
33
37
36
98
15
97
28
22
72
60
14
55
38
68
17
20
81
58
7
41
4
29
87
8
26
95
86
80
53
90
69
84
65
59
61
30
39
63
88
19
70
2

> <PUBCHEM_MMFF94_PARTIAL_CHARGES>
35
1 1.45
10 -0.8
11 -0.73
19 0.36
2 -0.57
20 0.42
21 0.3
22 0.36
23 0.57
24 0.3
25 0.57
26 0.69
27 -0.01
28 0.3
29 -0.15
3 -0.65
30 -0.15
31 -0.15
32 -0.15
35 -0.15
4 -0.65
5 -0.57
55 0.37
58 0.37
59 0.37
6 -0.57
60 0.37
62 0.15
63 0.15
64 0.15
65 0.15
7 -0.85
72 0.15
8 -0.73
9 -0.66

> <PUBCHEM_EFFECTIVE_ROTOR_COUNT>
13.4

> <PUBCHEM_PHARMACOPHORE_FEATURES>
12
1 10 donor
1 11 donor
1 2 acceptor
1 3 acceptor
1 4 acceptor
1 5 acceptor
1 6 acceptor
1 8 donor
3 28 33 34 hydrophobe
6 12 13 14 16 17 18 rings
6 27 29 30 31 32 35 rings
6 7 9 20 21 22 24 rings

> <PUBCHEM_HEAVY_ATOM_COUNT>
35

> <PUBCHEM_ATOM_DEF_STEREO_COUNT>
2

> <PUBCHEM_ATOM_UDEF_STEREO_COUNT>
0

> <PUBCHEM_BOND_DEF_STEREO_COUNT>
0

> <PUBCHEM_BOND_UDEF_STEREO_COUNT>
0

> <PUBCHEM_ISOTOPIC_ATOM_COUNT>
0

> <PUBCHEM_COMPONENT_COUNT>
1

> <PUBCHEM_CACTVS_TAUTO_COUNT>
8

> <PUBCHEM_CONFORMER_ID>
006D542D00000001

> <PUBCHEM_MMFF94_ENERGY>
63.4633

> <PUBCHEM_FEATURE_SELFOVERLAP>
60.916

> <PUBCHEM_SHAPE_FINGERPRINT>
10074138 170 18124286515050840402
10439779 11 18267587003987044051
1100329 8 18267585895711064341
11719270 70 18408600336611150333
12422481 6 18041269985307512175
12839892 36 18336825295017505833
13140716 1 18265323100939246478
13583140 156 17768519495892858380
13692114 37 18201152252089179887
13947930 73 17969797452585272539
15475509 84 17760923339428775635
17349148 13 17968387766318216837
20764821 26 18194135233631672475
22223350 30 18124869316464163073
22956985 138 17901946344642051370
23559900 14 17904206923173463877
392239 28 18201711856083307017
469060 322 18341316847652248045
79837 15 18410845543418382450
9777508 108 18413671326867048410

> <PUBCHEM_SHAPE_MULTIPOLES>
669.88
11.59
7.45
1.97
3.95
9.59
0.68
-2.97
6.3
6.49
-0.83
-2.01
-0.58
-0.18

> <PUBCHEM_SHAPE_SELFOVERLAP>
1368.325

> <PUBCHEM_SHAPE_VOLUME>
386

> <PUBCHEM_COORDINATE_TYPE>
2
5
10

$$$$
