11911865
  -OEChem-12032416373D

 62 65  0     1  0  0  0  0  0999 V2000
   -0.5910    0.8471    1.7932 O   0  0  0  0  0  0  0  0  0  0  0  0
   -1.4198    3.7998    1.2174 O   0  0  0  0  0  0  0  0  0  0  0  0
   -5.3533    0.6578    1.5802 O   0  0  0  0  0  0  0  0  0  0  0  0
   -8.6281   -3.6571   -2.0378 O   0  0  0  0  0  0  0  0  0  0  0  0
   -9.0378   -2.4263   -0.1738 O   0  0  0  0  0  0  0  0  0  0  0  0
   -3.3656    0.8137    0.3926 N   0  0  0  0  0  0  0  0  0  0  0  0
    1.2172    3.2306   -0.2993 N   0  0  0  0  0  0  0  0  0  0  0  0
    2.6976    1.4522   -0.4949 N   0  0  0  0  0  0  0  0  0  0  0  0
    2.6114    3.1959   -2.1560 N   0  0  0  0  0  0  0  0  0  0  0  0
    5.6881   -3.9455    0.9416 N   0  0  0  0  0  0  0  0  0  0  0  0
   -1.6674    2.5575    0.5382 C   0  0  1  0  0  0  0  0  0  0  0  0
   -0.4116    1.7171    0.6629 C   0  0  1  0  0  0  0  0  0  0  0  0
   -2.7196    1.7578    1.2720 C   0  0  2  0  0  0  0  0  0  0  0  0
    0.6798    2.7229    0.9440 C   0  0  2  0  0  0  0  0  0  0  0  0
   -1.9036    1.0481    2.3378 C   0  0  0  0  0  0  0  0  0  0  0  0
   -0.0623    3.8215    1.6827 C   0  0  0  0  0  0  0  0  0  0  0  0
   -4.6483    0.3375    0.6271 C   0  0  0  0  0  0  0  0  0  0  0  0
    2.2189    2.5986   -1.0146 C   0  0  0  0  0  0  0  0  0  0  0  0
   -5.0784   -0.6646   -0.4311 C   0  0  0  0  0  0  0  0  0  0  0  0
   -6.4856   -1.2188   -0.2166 C   0  0  0  0  0  0  0  0  0  0  0  0
    3.6729    0.8632   -1.2176 C   0  0  0  0  0  0  0  0  0  0  0  0
   -6.8918   -2.2152   -1.3044 C   0  0  0  0  0  0  0  0  0  0  0  0
    3.5894    2.5533   -2.8277 C   0  0  0  0  0  0  0  0  0  0  0  0
    4.1631    1.3726   -2.4027 C   0  0  0  0  0  0  0  0  0  0  0  0
    4.1879   -0.3663   -0.6644 C   0  0  0  0  0  0  0  0  0  0  0  0
   -8.2879   -2.7511   -1.0838 C   0  0  0  0  0  0  0  0  0  0  0  0
    5.5387   -0.4700   -0.3325 C   0  0  0  0  0  0  0  0  0  0  0  0
    3.3351   -1.4517   -0.4630 C   0  0  0  0  0  0  0  0  0  0  0  0
    6.0368   -1.6587    0.2007 C   0  0  0  0  0  0  0  0  0  0  0  0
    3.8332   -2.6405    0.0700 C   0  0  0  0  0  0  0  0  0  0  0  0
    5.1840   -2.7440    0.4019 C   0  0  0  0  0  0  0  0  0  0  0  0
    7.0901   -4.0623    1.2902 C   0  0  0  0  0  0  0  0  0  0  0  0
    4.8079   -5.0748    1.1677 C   0  0  0  0  0  0  0  0  0  0  0  0
   -1.9238    2.7959   -0.4991 H   0  0  0  0  0  0  0  0  0  0  0  0
   -0.2385    1.0810   -0.2111 H   0  0  0  0  0  0  0  0  0  0  0  0
   -3.4858    2.3880    1.7365 H   0  0  0  0  0  0  0  0  0  0  0  0
    1.4805    2.3382    1.5861 H   0  0  0  0  0  0  0  0  0  0  0  0
   -1.7925    1.6762    3.2286 H   0  0  0  0  0  0  0  0  0  0  0  0
   -2.3184    0.0838    2.6466 H   0  0  0  0  0  0  0  0  0  0  0  0
    0.3564    4.8212    1.5309 H   0  0  0  0  0  0  0  0  0  0  0  0
   -0.0867    3.6205    2.7595 H   0  0  0  0  0  0  0  0  0  0  0  0
   -2.8381    0.4443   -0.3937 H   0  0  0  0  0  0  0  0  0  0  0  0
    0.8164    4.0656   -0.7113 H   0  0  0  0  0  0  0  0  0  0  0  0
   -5.0218   -0.1694   -1.4081 H   0  0  0  0  0  0  0  0  0  0  0  0
   -4.3541   -1.4882   -0.4322 H   0  0  0  0  0  0  0  0  0  0  0  0
   -7.2046   -0.3897   -0.1893 H   0  0  0  0  0  0  0  0  0  0  0  0
   -6.5429   -1.7028    0.7669 H   0  0  0  0  0  0  0  0  0  0  0  0
   -6.8650   -1.7261   -2.2843 H   0  0  0  0  0  0  0  0  0  0  0  0
   -6.1968   -3.0620   -1.3072 H   0  0  0  0  0  0  0  0  0  0  0  0
    3.9086    3.0290   -3.7489 H   0  0  0  0  0  0  0  0  0  0  0  0
    4.9431    0.8901   -2.9787 H   0  0  0  0  0  0  0  0  0  0  0  0
    6.2189    0.3663   -0.4766 H   0  0  0  0  0  0  0  0  0  0  0  0
    2.2797   -1.3903   -0.7189 H   0  0  0  0  0  0  0  0  0  0  0  0
    7.0942   -1.6885    0.4439 H   0  0  0  0  0  0  0  0  0  0  0  0
    3.1299   -3.4560    0.2067 H   0  0  0  0  0  0  0  0  0  0  0  0
   -9.5340   -4.0081   -1.9018 H   0  0  0  0  0  0  0  0  0  0  0  0
    7.7298   -3.9221    0.4117 H   0  0  0  0  0  0  0  0  0  0  0  0
    7.3668   -3.3392    2.0656 H   0  0  0  0  0  0  0  0  0  0  0  0
    7.3263   -5.0544    1.6910 H   0  0  0  0  0  0  0  0  0  0  0  0
    4.0137   -4.8216    1.8790 H   0  0  0  0  0  0  0  0  0  0  0  0
    4.3632   -5.4242    0.2292 H   0  0  0  0  0  0  0  0  0  0  0  0
    5.3463   -5.9290    1.5935 H   0  0  0  0  0  0  0  0  0  0  0  0
  1 12  1  0  0  0  0
  1 15  1  0  0  0  0
  2 11  1  0  0  0  0
  2 16  1  0  0  0  0
  3 17  2  0  0  0  0
  4 26  1  0  0  0  0
  4 56  1  0  0  0  0
  5 26  2  0  0  0  0
  6 13  1  0  0  0  0
  6 17  1  0  0  0  0
  6 42  1  0  0  0  0
  7 14  1  0  0  0  0
  7 18  1  0  0  0  0
  7 43  1  0  0  0  0
  8 18  1  0  0  0  0
  8 21  2  0  0  0  0
  9 18  2  0  0  0  0
  9 23  1  0  0  0  0
 10 31  1  0  0  0  0
 10 32  1  0  0  0  0
 10 33  1  0  0  0  0
 11 12  1  0  0  0  0
 11 13  1  0  0  0  0
 11 34  1  0  0  0  0
 12 14  1  0  0  0  0
 12 35  1  0  0  0  0
 13 15  1  0  0  0  0
 13 36  1  0  0  0  0
 14 16  1  0  0  0  0
 14 37  1  0  0  0  0
 15 38  1  0  0  0  0
 15 39  1  0  0  0  0
 16 40  1  0  0  0  0
 16 41  1  0  0  0  0
 17 19  1  0  0  0  0
 19 20  1  0  0  0  0
 19 44  1  0  0  0  0
 19 45  1  0  0  0  0
 20 22  1  0  0  0  0
 20 46  1  0  0  0  0
 20 47  1  0  0  0  0
 21 24  1  0  0  0  0
 21 25  1  0  0  0  0
 22 26  1  0  0  0  0
 22 48  1  0  0  0  0
 22 49  1  0  0  0  0
 23 24  2  0  0  0  0
 23 50  1  0  0  0  0
 24 51  1  0  0  0  0
 25 27  2  0  0  0  0
 25 28  1  0  0  0  0
 27 29  1  0  0  0  0
 27 52  1  0  0  0  0
 28 30  2  0  0  0  0
 28 53  1  0  0  0  0
 29 31  2  0  0  0  0
 29 54  1  0  0  0  0
 30 31  1  0  0  0  0
 30 55  1  0  0  0  0
 32 57  1  0  0  0  0
 32 58  1  0  0  0  0
 32 59  1  0  0  0  0
 33 60  1  0  0  0  0
 33 61  1  0  0  0  0
 33 62  1  0  0  0  0
M  END
> <PUBCHEM_COMPOUND_CID>
11911865

> <PUBCHEM_CONFORMER_RMSD>
1

> <PUBCHEM_CONFORMER_DIVERSEORDER>
1
110
112
39
98
83
96
36
100
48
33
58
87
91
56
119
116
49
81
40
6
71
93
45
120
62
44
37
67
92
70
117
19
50
53
25
84
10
74
69
57
90
79
106
80
78
65
34
108
68
104
72
109
54
55
102
107
21
61
114
77
22
66
18
82
94
63
24
17
95
89
59
75
31
115
85
11
9
46
73
99
86
97
47
52
76
28
35
32
20
43
15
41
7
111
27
12
38
2
101
88
103
14
105
16
118
30
8
60
23
42
26
51
64
3
29
113
13
5
4

> <PUBCHEM_MMFF94_PARTIAL_CHARGES>
40
1 -0.56
10 -0.84
11 0.28
12 0.28
13 0.3
14 0.37
15 0.28
16 0.28
17 0.57
18 0.72
19 0.06
2 -0.56
21 0.31
22 0.06
23 0.16
24 -0.15
26 0.66
27 -0.15
28 -0.15
29 -0.15
3 -0.57
30 -0.15
31 0.1
32 0.37
33 0.37
4 -0.65
42 0.37
43 0.4
5 -0.57
50 0.15
51 0.15
52 0.15
53 0.15
54 0.15
55 0.15
56 0.5
6 -0.73
7 -0.87
8 -0.62
9 -0.62

> <PUBCHEM_EFFECTIVE_ROTOR_COUNT>
11.2

> <PUBCHEM_PHARMACOPHORE_FEATURES>
15
1 1 acceptor
1 10 cation
1 2 acceptor
1 3 acceptor
1 4 acceptor
1 5 acceptor
1 6 donor
1 7 donor
1 8 acceptor
3 4 5 26 anion
4 7 8 9 18 cation
5 1 11 12 13 15 rings
5 2 11 12 14 16 rings
6 25 27 28 29 30 31 rings
6 8 9 18 21 23 24 rings

> <PUBCHEM_HEAVY_ATOM_COUNT>
33

> <PUBCHEM_ATOM_DEF_STEREO_COUNT>
4

> <PUBCHEM_ATOM_UDEF_STEREO_COUNT>
0

> <PUBCHEM_BOND_DEF_STEREO_COUNT>
0

> <PUBCHEM_BOND_UDEF_STEREO_COUNT>
0

> <PUBCHEM_ISOTOPIC_ATOM_COUNT>
0

> <PUBCHEM_COMPONENT_COUNT>
1

> <PUBCHEM_CACTVS_TAUTO_COUNT>
6

> <PUBCHEM_CONFORMER_ID>
00B5C2B900000001

> <PUBCHEM_MMFF94_ENERGY>
99.8121

> <PUBCHEM_FEATURE_SELFOVERLAP>
76.888

> <PUBCHEM_SHAPE_FINGERPRINT>
10448021 39 18408886256325345311
10622 236 18263366897669832840
10693767 8 18409725201499479091
11069576 57 18188507817146074884
11135926 11 17534663462534871620
11227150 75 18262508204874830490
11476731 50 18338517440362995310
11497681 19 18120662332502103902
11607047 403 18128240372276784664
14026016 60 18261379092944529511
14068700 675 18338798901567729696
14344974 204 18053098424790718646
16989713 51 17538570908017271182
16993427 108 18343293761084735563
17134984 74 18195814183070164437
17324776 126 18191581952235869962
19303781 99 18042415642227434474
19304671 126 15719674363502752629
19315092 285 18408888425331329149
19319366 153 18193850455709301124
20609170 45 18191851346776942999
20721686 124 17904476651721107580
20775438 99 18189612915940974578
208703 8 18202571669727923126
21133410 52 18336267839461834934
21360442 33 18338229492358242695
21585481 104 17894343390072603213
21585483 132 18411132550366165891
21792938 131 18201152261501943091
21895439 516 17749670813894709355
23569943 247 18411982473650885979
25025965 108 17536587405899237474
3504750 166 18052824650093550017
406291 66 18412543189108307559
439807 62 18411420648788374711
4440575 13 18341326777743139718
463206 1 18340780311330368273
57527295 17 18269574838936875057
59025328 239 17894922789260722724
59682541 52 18187365484599282053
6058803 2 18121812476772001124
6201320 221 18338503184844281327
6201460 15 18194961833778470643
6636735 143 13614245893574088023
6677587 24 17100294963487500349
6691757 9 17625264108778079712
96874 4 18412260614809554851

> <PUBCHEM_SHAPE_MULTIPOLES>
624.87
22.24
6.59
2.17
42.55
3.62
-0.69
38.47
-6.83
-4.79
0.83
-0.15
-1.32
-9.13

> <PUBCHEM_SHAPE_SELFOVERLAP>
1332.396

> <PUBCHEM_SHAPE_VOLUME>
346.1

> <PUBCHEM_COORDINATE_TYPE>
2
5
10

$$$$
