7051762
  -OEChem-12032416193D

 49 53  0     1  0  0  0  0  0999 V2000
    4.6045    2.1532   -1.1366 F   0  0  0  0  0  0  0  0  0  0  0  0
   -3.2991    0.1099   -2.8003 O   0  0  0  0  0  0  0  0  0  0  0  0
   -1.2877    3.5904    0.2964 O   0  0  0  0  0  0  0  0  0  0  0  0
   -1.1928    1.5558    1.4446 N   0  0  0  0  0  0  0  0  0  0  0  0
   -2.3028   -0.4254   -0.7493 N   0  0  0  0  0  0  0  0  0  0  0  0
    1.7273   -4.4161    0.8771 N   0  0  0  0  0  0  0  0  0  0  0  0
   -3.3400    0.3117    1.4787 C   0  0  1  0  0  0  0  0  0  0  0  0
   -1.2160   -0.9299    1.4601 C   0  0  2  0  0  0  0  0  0  0  0  0
   -2.6273   -0.9070    2.0459 C   0  0  0  0  0  0  0  0  0  0  0  0
   -2.5935    1.6015    1.8593 C   0  0  0  0  0  0  0  0  0  0  0  0
   -3.4569    0.1432   -0.0374 C   0  0  0  0  0  0  0  0  0  0  0  0
   -0.4640    0.3535    1.8747 C   0  0  0  0  0  0  0  0  0  0  0  0
   -1.2412   -1.0513   -0.0656 C   0  0  0  0  0  0  0  0  0  0  0  0
   -0.2742   -1.7005   -0.7651 C   0  0  0  0  0  0  0  0  0  0  0  0
   -2.3896   -0.4093   -2.1526 C   0  0  0  0  0  0  0  0  0  0  0  0
   -0.6754    2.5855    0.6548 C   0  0  0  0  0  0  0  0  0  0  0  0
   -0.3284   -1.7010   -2.2144 C   0  0  0  0  0  0  0  0  0  0  0  0
   -1.3011   -1.0899   -2.8904 C   0  0  0  0  0  0  0  0  0  0  0  0
    0.8450   -2.3925   -0.0884 C   0  0  0  0  0  0  0  0  0  0  0  0
    0.7105    2.4712    0.1852 C   0  0  0  0  0  0  0  0  0  0  0  0
    2.0170   -1.7168    0.2111 C   0  0  0  0  0  0  0  0  0  0  0  0
    0.7438   -3.7251    0.2582 C   0  0  0  0  0  0  0  0  0  0  0  0
    0.9807    1.8478   -1.0304 C   0  0  0  0  0  0  0  0  0  0  0  0
    1.7485    2.9879    0.9565 C   0  0  0  0  0  0  0  0  0  0  0  0
    3.0515   -2.3937    0.8476 C   0  0  0  0  0  0  0  0  0  0  0  0
    2.2976    1.7404   -1.4775 C   0  0  0  0  0  0  0  0  0  0  0  0
    3.0653    2.8805    0.5092 C   0  0  0  0  0  0  0  0  0  0  0  0
    2.8585   -3.7305    1.1565 C   0  0  0  0  0  0  0  0  0  0  0  0
    3.3399    2.2568   -0.7077 C   0  0  0  0  0  0  0  0  0  0  0  0
   -4.3507    0.3768    1.9002 H   0  0  0  0  0  0  0  0  0  0  0  0
   -0.7022   -1.7873    1.9087 H   0  0  0  0  0  0  0  0  0  0  0  0
   -3.1686   -1.8270    1.7922 H   0  0  0  0  0  0  0  0  0  0  0  0
   -2.5862   -0.8502    3.1406 H   0  0  0  0  0  0  0  0  0  0  0  0
   -3.0985    2.4724    1.4283 H   0  0  0  0  0  0  0  0  0  0  0  0
   -2.6003    1.7308    2.9485 H   0  0  0  0  0  0  0  0  0  0  0  0
   -4.2945   -0.5361   -0.2485 H   0  0  0  0  0  0  0  0  0  0  0  0
   -3.7221    1.0991   -0.5069 H   0  0  0  0  0  0  0  0  0  0  0  0
   -0.3925    0.4043    2.9685 H   0  0  0  0  0  0  0  0  0  0  0  0
    0.5584    0.3507    1.4974 H   0  0  0  0  0  0  0  0  0  0  0  0
    0.4635   -2.2074   -2.7583 H   0  0  0  0  0  0  0  0  0  0  0  0
   -1.3299   -1.0895   -3.9735 H   0  0  0  0  0  0  0  0  0  0  0  0
    2.1502   -0.6728   -0.0414 H   0  0  0  0  0  0  0  0  0  0  0  0
   -0.1509   -4.3039    0.0490 H   0  0  0  0  0  0  0  0  0  0  0  0
    0.1756    1.4553   -1.6438 H   0  0  0  0  0  0  0  0  0  0  0  0
    1.5449    3.4750    1.9063 H   0  0  0  0  0  0  0  0  0  0  0  0
    3.9797   -1.8907    1.0935 H   0  0  0  0  0  0  0  0  0  0  0  0
    2.5111    1.2562   -2.4258 H   0  0  0  0  0  0  0  0  0  0  0  0
    3.8771    3.2820    1.1086 H   0  0  0  0  0  0  0  0  0  0  0  0
    3.6347   -4.3034    1.6529 H   0  0  0  0  0  0  0  0  0  0  0  0
  1 29  1  0  0  0  0
  2 15  2  0  0  0  0
  3 16  2  0  0  0  0
  4 10  1  0  0  0  0
  4 12  1  0  0  0  0
  4 16  1  0  0  0  0
  5 11  1  0  0  0  0
  5 13  1  0  0  0  0
  5 15  1  0  0  0  0
  6 22  1  0  0  0  0
  6 28  2  0  0  0  0
  7  9  1  0  0  0  0
  7 10  1  0  0  0  0
  7 11  1  0  0  0  0
  7 30  1  0  0  0  0
  8  9  1  0  0  0  0
  8 12  1  0  0  0  0
  8 13  1  0  0  0  0
  8 31  1  0  0  0  0
  9 32  1  0  0  0  0
  9 33  1  0  0  0  0
 10 34  1  0  0  0  0
 10 35  1  0  0  0  0
 11 36  1  0  0  0  0
 11 37  1  0  0  0  0
 12 38  1  0  0  0  0
 12 39  1  0  0  0  0
 13 14  2  0  0  0  0
 14 17  1  0  0  0  0
 14 19  1  0  0  0  0
 15 18  1  0  0  0  0
 16 20  1  0  0  0  0
 17 18  2  0  0  0  0
 17 40  1  0  0  0  0
 18 41  1  0  0  0  0
 19 21  1  0  0  0  0
 19 22  2  0  0  0  0
 20 23  2  0  0  0  0
 20 24  1  0  0  0  0
 21 25  2  0  0  0  0
 21 42  1  0  0  0  0
 22 43  1  0  0  0  0
 23 26  1  0  0  0  0
 23 44  1  0  0  0  0
 24 27  2  0  0  0  0
 24 45  1  0  0  0  0
 25 28  1  0  0  0  0
 25 46  1  0  0  0  0
 26 29  2  0  0  0  0
 26 47  1  0  0  0  0
 27 29  1  0  0  0  0
 27 48  1  0  0  0  0
 28 49  1  0  0  0  0
M  END
> <PUBCHEM_COMPOUND_CID>
7051762

> <PUBCHEM_CONFORMER_RMSD>
0.8

> <PUBCHEM_CONFORMER_DIVERSEORDER>
1
4
2
3

> <PUBCHEM_MMFF94_PARTIAL_CHARGES>
37
1 -0.19
10 0.3
11 0.3
12 0.3
13 -0.03
14 -0.03
15 0.62
16 0.54
17 -0.15
18 -0.14
19 0.03
2 -0.57
20 0.09
21 -0.15
22 0.16
23 -0.15
24 -0.15
25 -0.15
26 -0.15
27 -0.15
28 0.16
29 0.19
3 -0.57
4 -0.66
40 0.15
41 0.15
42 0.15
43 0.15
44 0.15
45 0.15
46 0.15
47 0.15
48 0.15
49 0.15
5 -0.47
6 -0.62
8 0.14

> <PUBCHEM_EFFECTIVE_ROTOR_COUNT>
4

> <PUBCHEM_PHARMACOPHORE_FEATURES>
8
1 2 acceptor
1 3 acceptor
1 6 acceptor
6 20 23 24 26 27 29 rings
6 4 7 8 9 10 12 rings
6 5 13 14 15 17 18 rings
6 5 7 8 9 11 13 rings
6 6 19 21 22 25 28 rings

> <PUBCHEM_HEAVY_ATOM_COUNT>
29

> <PUBCHEM_ATOM_DEF_STEREO_COUNT>
2

> <PUBCHEM_ATOM_UDEF_STEREO_COUNT>
0

> <PUBCHEM_BOND_DEF_STEREO_COUNT>
0

> <PUBCHEM_BOND_UDEF_STEREO_COUNT>
0

> <PUBCHEM_ISOTOPIC_ATOM_COUNT>
0

> <PUBCHEM_COMPONENT_COUNT>
1

> <PUBCHEM_CACTVS_TAUTO_COUNT>
1

> <PUBCHEM_CONFORMER_ID>
006B99F200000001

> <PUBCHEM_MMFF94_ENERGY>
87.4742

> <PUBCHEM_FEATURE_SELFOVERLAP>
42.182

> <PUBCHEM_SHAPE_FINGERPRINT>
10871710 139 18198331858961398974
11578080 2 17169290160091219821
12035759 4 17774720965381065461
12156800 1 16239779368093671544
12422481 6 17554335718156495377
12539773 59 17774455892446478730
131258 38 16958217969664260403
133893 2 18410002226389151199
17980427 23 17841433622721456761
19930381 70 18335431183035037699
20600515 1 16675029786054534412
20905425 154 17979392735045056657
21330990 113 17469311999835415919
22149856 69 16197078800097382337
229495 10 18334006229420157927
23419403 2 17822294522585144263
35225 105 17329186921896568982
445580 44 17545279062058227690
469060 322 17836333013908108946
513532 50 15764945745923448749
550186 7 16321762133305255598
57527585 103 17330835133108463852
9925002 15 17844503570681173047

> <PUBCHEM_SHAPE_MULTIPOLES>
562.85
5.4
5.18
2.45
1.42
1.66
1.39
-1.55
0.02
5.65
-1.48
-1.97
0.49
-1.93

> <PUBCHEM_SHAPE_SELFOVERLAP>
1252.562

> <PUBCHEM_SHAPE_VOLUME>
298.2

> <PUBCHEM_COORDINATE_TYPE>
2
5
10

$$$$
