75536724
  -OEChem-12032416333D

 54 55  0     1  0  0  0  0  0999 V2000
    1.4561    0.5160    1.2402 O   0  0  0  0  0  0  0  0  0  0  0  0
    0.4557    0.8131   -2.1973 O   0  0  0  0  0  0  0  0  0  0  0  0
   -7.1696   -1.7351   -1.0947 O   0  0  0  0  0  0  0  0  0  0  0  0
    4.9199   -0.3293   -1.4773 O   0  0  0  0  0  0  0  0  0  0  0  0
   -1.8557    1.1947   -0.1025 N   0  0  0  0  0  0  0  0  0  0  0  0
   -5.6329   -0.6623    0.2783 N   0  0  0  0  0  0  0  0  0  0  0  0
    4.1434    0.9395    0.3070 N   0  0  0  0  0  0  0  0  0  0  0  0
    6.0559   -0.3300    0.5459 N   0  0  0  0  0  0  0  0  0  0  0  0
   -0.5694    0.5248   -0.0004 C   0  0  1  0  0  0  0  0  0  0  0  0
   -2.9240    0.3489    0.4241 C   0  0  0  0  0  0  0  0  0  0  0  0
    0.5225    1.1732   -0.8312 C   0  0  1  0  0  0  0  0  0  0  0  0
    1.7711    0.6188   -0.1585 C   0  0  1  0  0  0  0  0  0  0  0  0
   -4.1262    1.2110    0.8306 C   0  0  0  0  0  0  0  0  0  0  0  0
   -3.3395   -0.6894   -0.6259 C   0  0  0  0  0  0  0  0  0  0  0  0
    0.0286    0.6016    1.3948 C   0  0  0  0  0  0  0  0  0  0  0  0
   -5.2930    0.3400    1.2961 C   0  0  0  0  0  0  0  0  0  0  0  0
   -4.5207   -1.5225   -0.1312 C   0  0  0  0  0  0  0  0  0  0  0  0
    2.9946    1.4981   -0.3458 C   0  0  0  0  0  0  0  0  0  0  0  0
   -6.9011   -0.8613   -0.2662 C   0  0  0  0  0  0  0  0  0  0  0  0
   -7.9919    0.0671    0.2046 C   0  0  0  0  0  0  0  0  0  0  0  0
    5.0313    0.0566   -0.3145 C   0  0  0  0  0  0  0  0  0  0  0  0
    7.1072   -1.2383    0.1523 C   0  0  0  0  0  0  0  0  0  0  0  0
    7.5713   -2.0605    1.3475 C   0  0  0  0  0  0  0  0  0  0  0  0
    8.2662   -0.4746   -0.4760 C   0  0  0  0  0  0  0  0  0  0  0  0
   -0.6383   -0.5239   -0.3149 H   0  0  0  0  0  0  0  0  0  0  0  0
   -2.5904   -0.1744    1.3301 H   0  0  0  0  0  0  0  0  0  0  0  0
    0.4827    2.2667   -0.7512 H   0  0  0  0  0  0  0  0  0  0  0  0
    1.9893   -0.3949   -0.5195 H   0  0  0  0  0  0  0  0  0  0  0  0
   -2.0504    1.4369   -1.0735 H   0  0  0  0  0  0  0  0  0  0  0  0
   -4.4543    1.8204   -0.0222 H   0  0  0  0  0  0  0  0  0  0  0  0
   -3.8439    1.9035    1.6328 H   0  0  0  0  0  0  0  0  0  0  0  0
   -2.5179   -1.3694   -0.8737 H   0  0  0  0  0  0  0  0  0  0  0  0
   -3.6303   -0.1846   -1.5571 H   0  0  0  0  0  0  0  0  0  0  0  0
   -0.1856    1.5569    1.8878 H   0  0  0  0  0  0  0  0  0  0  0  0
   -0.3114   -0.2073    2.0484 H   0  0  0  0  0  0  0  0  0  0  0  0
   -5.0223   -0.2048    2.2084 H   0  0  0  0  0  0  0  0  0  0  0  0
   -6.1435    0.9777    1.5430 H   0  0  0  0  0  0  0  0  0  0  0  0
   -4.8348   -2.2184   -0.9156 H   0  0  0  0  0  0  0  0  0  0  0  0
   -4.2307   -2.1209    0.7406 H   0  0  0  0  0  0  0  0  0  0  0  0
    2.8341    2.4834    0.1053 H   0  0  0  0  0  0  0  0  0  0  0  0
    3.2138    1.6336   -1.4102 H   0  0  0  0  0  0  0  0  0  0  0  0
    0.4884   -0.1565   -2.2602 H   0  0  0  0  0  0  0  0  0  0  0  0
    4.3121    1.1881    1.2769 H   0  0  0  0  0  0  0  0  0  0  0  0
   -7.7410    1.1018   -0.0438 H   0  0  0  0  0  0  0  0  0  0  0  0
   -8.1446   -0.0438    1.2814 H   0  0  0  0  0  0  0  0  0  0  0  0
   -8.9290   -0.1868   -0.3005 H   0  0  0  0  0  0  0  0  0  0  0  0
    6.1043    0.1023    1.4636 H   0  0  0  0  0  0  0  0  0  0  0  0
    6.7008   -1.9244   -0.6006 H   0  0  0  0  0  0  0  0  0  0  0  0
    7.9827   -1.4204    2.1360 H   0  0  0  0  0  0  0  0  0  0  0  0
    6.7357   -2.6210    1.7810 H   0  0  0  0  0  0  0  0  0  0  0  0
    8.3440   -2.7782    1.0531 H   0  0  0  0  0  0  0  0  0  0  0  0
    8.6979    0.2430    0.2307 H   0  0  0  0  0  0  0  0  0  0  0  0
    7.9339    0.0892   -1.3545 H   0  0  0  0  0  0  0  0  0  0  0  0
    9.0591   -1.1591   -0.7949 H   0  0  0  0  0  0  0  0  0  0  0  0
  1 12  1  0  0  0  0
  1 15  1  0  0  0  0
  2 11  1  0  0  0  0
  2 42  1  0  0  0  0
  3 19  2  0  0  0  0
  4 21  2  0  0  0  0
  5  9  1  0  0  0  0
  5 10  1  0  0  0  0
  5 29  1  0  0  0  0
  6 16  1  0  0  0  0
  6 17  1  0  0  0  0
  6 19  1  0  0  0  0
  7 18  1  0  0  0  0
  7 21  1  0  0  0  0
  7 43  1  0  0  0  0
  8 21  1  0  0  0  0
  8 22  1  0  0  0  0
  8 47  1  0  0  0  0
  9 11  1  0  0  0  0
  9 15  1  0  0  0  0
  9 25  1  0  0  0  0
 10 13  1  0  0  0  0
 10 14  1  0  0  0  0
 10 26  1  0  0  0  0
 11 12  1  0  0  0  0
 11 27  1  0  0  0  0
 12 18  1  0  0  0  0
 12 28  1  0  0  0  0
 13 16  1  0  0  0  0
 13 30  1  0  0  0  0
 13 31  1  0  0  0  0
 14 17  1  0  0  0  0
 14 32  1  0  0  0  0
 14 33  1  0  0  0  0
 15 34  1  0  0  0  0
 15 35  1  0  0  0  0
 16 36  1  0  0  0  0
 16 37  1  0  0  0  0
 17 38  1  0  0  0  0
 17 39  1  0  0  0  0
 18 40  1  0  0  0  0
 18 41  1  0  0  0  0
 19 20  1  0  0  0  0
 20 44  1  0  0  0  0
 20 45  1  0  0  0  0
 20 46  1  0  0  0  0
 22 23  1  0  0  0  0
 22 24  1  0  0  0  0
 22 48  1  0  0  0  0
 23 49  1  0  0  0  0
 23 50  1  0  0  0  0
 23 51  1  0  0  0  0
 24 52  1  0  0  0  0
 24 53  1  0  0  0  0
 24 54  1  0  0  0  0
M  END
> <PUBCHEM_COMPOUND_CID>
75536724

> <PUBCHEM_CONFORMER_RMSD>
1

> <PUBCHEM_CONFORMER_DIVERSEORDER>
1
53
95
17
77
24
78
66
71
38
86
26
70
12
42
87
62
49
85
51
72
68
96
20
3
50
29
93
84
89
90
91
61
47
22
54
73
82
52
43
69
97
79
4
5
67
88
9
30
33
32
60
64
34
44
21
56
40
58
57
83
76
6
27
45
15
48
94
19
36
10
35
23
74
41
55
39
37
65
81
28
63
13
18
75
80
46
59
7
25
92
8
31
11
2
16
14

> <PUBCHEM_MMFF94_PARTIAL_CHARGES>
24
1 -0.56
10 0.27
11 0.28
12 0.28
15 0.28
16 0.3
17 0.3
18 0.3
19 0.57
2 -0.68
20 0.06
21 0.69
22 0.3
29 0.36
3 -0.57
4 -0.57
42 0.4
43 0.37
47 0.37
5 -0.9
6 -0.66
7 -0.73
8 -0.73
9 0.27

> <PUBCHEM_EFFECTIVE_ROTOR_COUNT>
10.2

> <PUBCHEM_PHARMACOPHORE_FEATURES>
12
1 1 acceptor
1 2 acceptor
1 2 donor
1 3 acceptor
1 4 acceptor
1 5 cation
1 5 donor
1 7 donor
1 8 donor
3 22 23 24 hydrophobe
5 1 9 11 12 15 rings
6 6 10 13 14 16 17 rings

> <PUBCHEM_HEAVY_ATOM_COUNT>
24

> <PUBCHEM_ATOM_DEF_STEREO_COUNT>
3

> <PUBCHEM_ATOM_UDEF_STEREO_COUNT>
0

> <PUBCHEM_BOND_DEF_STEREO_COUNT>
0

> <PUBCHEM_BOND_UDEF_STEREO_COUNT>
0

> <PUBCHEM_ISOTOPIC_ATOM_COUNT>
0

> <PUBCHEM_COMPONENT_COUNT>
1

> <PUBCHEM_CACTVS_TAUTO_COUNT>
3

> <PUBCHEM_CONFORMER_ID>
0480995400000001

> <PUBCHEM_MMFF94_ENERGY>
33.3345

> <PUBCHEM_FEATURE_SELFOVERLAP>
60.946

> <PUBCHEM_SHAPE_FINGERPRINT>
10 15 15984819363547619104
10299344 5 18410858759095717826
106641 1 12175619595108215221
10670039 82 14923937921572821838
10883706 142 10952051147837646556
11315181 36 17988648523587369665
11638347 137 15626228992420131462
11991303 11 15864364583154117026
12035758 1 15554443011586494568
12236239 1 18261675978194715741
13073987 5 15410347558806190481
13540713 4 15265401084306342192
13540713 5 15431979286505963096
13668630 136 17313105271555039563
13685833 64 18409449177063100560
13862211 1 18409168813686509976
13885169 127 18271808986835153065
14123256 10 14345793851147688854
14251764 18 18272936042024556852
14251764 46 18410858758663051634
14849402 71 11455877087925998730
15183329 4 18113337509678905666
15188451 53 18343864411850935600
15198563 99 15719667650753972206
15690457 1 18343579655108033486
15716309 27 18060418031802335445
1768 124 18271525304614842214
2026 5 18263077739092647226
20735858 18 16128658548097638724
21150785 3 14273738456270121058
21267235 1 17458348550562064733
21637258 2 18410570691238738668
21792934 111 16486970682944083665
21792961 116 14634866422888714200
22224240 67 14189574134934494133
23035841 295 18410293623035526443
23522609 53 18046379425070701260
23559900 14 17845365726133277569
23569943 247 17896032144694741058
23576562 1 14708067621163607815
28498 318 18114178622946418567
29717793 49 18335143124200516085
33532 11 18408038494754497402
3711267 37 11386368101706620791
445580 37 14634860930189707695
5283156 175 18259985954958885155
559249 180 18411981352146702793
5758199 1 11455890264948381276
59682541 35 16630520752751676146
59682541 52 13407068156026026704
59755656 215 16732978721815007955
6438161 24 17749100081380640402
9953998 17 14836402554164715439

> <PUBCHEM_SHAPE_MULTIPOLES>
450.51
24.98
1.54
1.28
11.84
0.42
0.14
14.35
-0.56
0.6
-0.01
0.21
-0.04
-1.86

> <PUBCHEM_SHAPE_SELFOVERLAP>
900.455

> <PUBCHEM_SHAPE_VOLUME>
265.9

> <PUBCHEM_COORDINATE_TYPE>
2
5
10

$$$$
