11882950
  -OEChem-12032416363D

 74 77  0     1  0  0  0  0  0999 V2000
   -0.4497    2.8151   -0.0048 S   0  0  0  0  0  0  0  0  0  0  0  0
   -7.9014    0.3837   -0.4364 O   0  0  0  0  0  0  0  0  0  0  0  0
   -7.4900    2.1687    1.1093 O   0  0  0  0  0  0  0  0  0  0  0  0
   -0.1263   -2.1329   -1.5372 O   0  0  0  0  0  0  0  0  0  0  0  0
    2.9411   -0.3220   -0.6487 O   0  0  0  0  0  0  0  0  0  0  0  0
    5.4038    0.7126   -0.7618 O   0  0  0  0  0  0  0  0  0  0  0  0
    0.0545    0.2983   -0.3275 N   0  0  0  0  0  0  0  0  0  0  0  0
    0.6559   -3.0254    0.4556 N   0  0  0  0  0  0  0  0  0  0  0  0
    1.9444    1.7942   -0.3247 N   0  0  0  0  0  0  0  0  0  0  0  0
   -3.6809   -0.4008    0.3254 C   0  0  2  0  0  0  0  0  0  0  0  0
   -4.1315    0.9943   -0.2961 C   0  0  1  0  0  0  0  0  0  0  0  0
   -5.6630    1.3595   -0.2001 C   0  0  1  0  0  0  0  0  0  0  0  0
   -2.2360   -0.7564   -0.2571 C   0  0  1  0  0  0  0  0  0  0  0  0
   -4.6726   -1.5074   -0.1183 C   0  0  0  0  0  0  0  0  0  0  0  0
   -6.5109    0.1306   -0.6345 C   0  0  1  0  0  0  0  0  0  0  0  0
   -3.1832    2.1467    0.1461 C   0  0  0  0  0  0  0  0  0  0  0  0
   -6.1354   -1.1497    0.1034 C   0  0  0  0  0  0  0  0  0  0  0  0
   -3.6210   -0.3785    1.8727 C   0  0  0  0  0  0  0  0  0  0  0  0
   -1.3139    0.4335   -0.1830 C   0  0  0  0  0  0  0  0  0  0  0  0
   -6.1126    1.8772    1.1841 C   0  0  0  0  0  0  0  0  0  0  0  0
   -5.9730    2.5112   -1.1978 C   0  0  0  0  0  0  0  0  0  0  0  0
   -1.7612    1.7289   -0.0200 C   0  0  0  0  0  0  0  0  0  0  0  0
   -1.5907   -2.0062    0.3565 C   0  0  0  0  0  0  0  0  0  0  0  0
   -0.2988   -2.3855   -0.3419 C   0  0  0  0  0  0  0  0  0  0  0  0
    0.6122    1.4865   -0.2430 C   0  0  0  0  0  0  0  0  0  0  0  0
    1.9521   -3.4534   -0.0655 C   0  0  0  0  0  0  0  0  0  0  0  0
    0.4294   -3.3133    1.8667 C   0  0  0  0  0  0  0  0  0  0  0  0
    3.0090    0.8955   -0.5183 C   0  0  0  0  0  0  0  0  0  0  0  0
    1.8329   -4.8481   -0.5835 C   0  0  0  0  0  0  0  0  0  0  0  0
    4.3425    1.6202   -0.5541 C   0  0  0  0  0  0  0  0  0  0  0  0
    2.5654   -5.8745   -0.1366 C   0  0  0  0  0  0  0  0  0  0  0  0
    6.6238    1.0385   -0.2180 C   0  0  0  0  0  0  0  0  0  0  0  0
    6.9718    2.3741   -0.0706 C   0  0  0  0  0  0  0  0  0  0  0  0
    7.4891    0.0268    0.1748 C   0  0  0  0  0  0  0  0  0  0  0  0
    8.2099    2.7045    0.4803 C   0  0  0  0  0  0  0  0  0  0  0  0
    8.7271    0.3574    0.7259 C   0  0  0  0  0  0  0  0  0  0  0  0
    9.0875    1.6962    0.8786 C   0  0  0  0  0  0  0  0  0  0  0  0
   -3.9539    0.8706   -1.3786 H   0  0  0  0  0  0  0  0  0  0  0  0
   -2.3696   -0.9459   -1.3333 H   0  0  0  0  0  0  0  0  0  0  0  0
   -4.5316   -1.7193   -1.1866 H   0  0  0  0  0  0  0  0  0  0  0  0
   -4.4640   -2.4459    0.4086 H   0  0  0  0  0  0  0  0  0  0  0  0
   -6.3707   -0.0495   -1.7090 H   0  0  0  0  0  0  0  0  0  0  0  0
   -3.3553    2.4131    1.1942 H   0  0  0  0  0  0  0  0  0  0  0  0
   -3.3684    3.0414   -0.4576 H   0  0  0  0  0  0  0  0  0  0  0  0
   -6.3654   -1.0643    1.1713 H   0  0  0  0  0  0  0  0  0  0  0  0
   -6.7683   -1.9706   -0.2575 H   0  0  0  0  0  0  0  0  0  0  0  0
   -3.3533   -1.3625    2.2733 H   0  0  0  0  0  0  0  0  0  0  0  0
   -4.5771   -0.1427    2.3330 H   0  0  0  0  0  0  0  0  0  0  0  0
   -2.8855    0.3354    2.2542 H   0  0  0  0  0  0  0  0  0  0  0  0
   -6.0018    1.1365    1.9709 H   0  0  0  0  0  0  0  0  0  0  0  0
   -5.5773    2.7803    1.4934 H   0  0  0  0  0  0  0  0  0  0  0  0
   -5.5045    3.4512   -0.8877 H   0  0  0  0  0  0  0  0  0  0  0  0
   -5.5962    2.2706   -2.1989 H   0  0  0  0  0  0  0  0  0  0  0  0
   -7.0425    2.7146   -1.3091 H   0  0  0  0  0  0  0  0  0  0  0  0
   -2.2557   -2.8729    0.2953 H   0  0  0  0  0  0  0  0  0  0  0  0
   -1.3922   -1.7900    1.4082 H   0  0  0  0  0  0  0  0  0  0  0  0
   -8.2024    0.9786   -1.1428 H   0  0  0  0  0  0  0  0  0  0  0  0
   -7.5880    3.0836    0.7957 H   0  0  0  0  0  0  0  0  0  0  0  0
    2.1628    2.7832   -0.2340 H   0  0  0  0  0  0  0  0  0  0  0  0
    2.2265   -2.8070   -0.9051 H   0  0  0  0  0  0  0  0  0  0  0  0
    2.7185   -3.3383    0.7088 H   0  0  0  0  0  0  0  0  0  0  0  0
   -0.5870   -3.6817    2.0300 H   0  0  0  0  0  0  0  0  0  0  0  0
    0.5913   -2.3959    2.4401 H   0  0  0  0  0  0  0  0  0  0  0  0
    1.1222   -4.0829    2.2207 H   0  0  0  0  0  0  0  0  0  0  0  0
    1.1189   -5.0321   -1.3826 H   0  0  0  0  0  0  0  0  0  0  0  0
    4.4287    2.1412    0.4089 H   0  0  0  0  0  0  0  0  0  0  0  0
    4.3186    2.3482   -1.3732 H   0  0  0  0  0  0  0  0  0  0  0  0
    2.4387   -6.8652   -0.5593 H   0  0  0  0  0  0  0  0  0  0  0  0
    3.2976   -5.7467    0.6529 H   0  0  0  0  0  0  0  0  0  0  0  0
    6.3287    3.1868   -0.3938 H   0  0  0  0  0  0  0  0  0  0  0  0
    7.2114   -1.0166    0.0572 H   0  0  0  0  0  0  0  0  0  0  0  0
    8.4937    3.7468    0.5935 H   0  0  0  0  0  0  0  0  0  0  0  0
    9.4106   -0.4277    1.0357 H   0  0  0  0  0  0  0  0  0  0  0  0
   10.0521    1.9535    1.3062 H   0  0  0  0  0  0  0  0  0  0  0  0
  1 22  1  0  0  0  0
  1 25  1  0  0  0  0
  2 15  1  0  0  0  0
  2 57  1  0  0  0  0
  3 20  1  0  0  0  0
  3 58  1  0  0  0  0
  4 24  2  0  0  0  0
  5 28  2  0  0  0  0
  6 30  1  0  0  0  0
  6 32  1  0  0  0  0
  7 19  1  0  0  0  0
  7 25  2  0  0  0  0
  8 24  1  0  0  0  0
  8 26  1  0  0  0  0
  8 27  1  0  0  0  0
  9 25  1  0  0  0  0
  9 28  1  0  0  0  0
  9 59  1  0  0  0  0
 10 11  1  0  0  0  0
 10 13  1  0  0  0  0
 10 14  1  0  0  0  0
 10 18  1  0  0  0  0
 11 12  1  0  0  0  0
 11 16  1  0  0  0  0
 11 38  1  0  0  0  0
 12 15  1  0  0  0  0
 12 20  1  0  0  0  0
 12 21  1  0  0  0  0
 13 19  1  0  0  0  0
 13 23  1  0  0  0  0
 13 39  1  0  0  0  0
 14 17  1  0  0  0  0
 14 40  1  0  0  0  0
 14 41  1  0  0  0  0
 15 17  1  0  0  0  0
 15 42  1  0  0  0  0
 16 22  1  0  0  0  0
 16 43  1  0  0  0  0
 16 44  1  0  0  0  0
 17 45  1  0  0  0  0
 17 46  1  0  0  0  0
 18 47  1  0  0  0  0
 18 48  1  0  0  0  0
 18 49  1  0  0  0  0
 19 22  2  0  0  0  0
 20 50  1  0  0  0  0
 20 51  1  0  0  0  0
 21 52  1  0  0  0  0
 21 53  1  0  0  0  0
 21 54  1  0  0  0  0
 23 24  1  0  0  0  0
 23 55  1  0  0  0  0
 23 56  1  0  0  0  0
 26 29  1  0  0  0  0
 26 60  1  0  0  0  0
 26 61  1  0  0  0  0
 27 62  1  0  0  0  0
 27 63  1  0  0  0  0
 27 64  1  0  0  0  0
 28 30  1  0  0  0  0
 29 31  2  0  0  0  0
 29 65  1  0  0  0  0
 30 66  1  0  0  0  0
 30 67  1  0  0  0  0
 31 68  1  0  0  0  0
 31 69  1  0  0  0  0
 32 33  2  0  0  0  0
 32 34  1  0  0  0  0
 33 35  1  0  0  0  0
 33 70  1  0  0  0  0
 34 36  2  0  0  0  0
 34 71  1  0  0  0  0
 35 37  2  0  0  0  0
 35 72  1  0  0  0  0
 36 37  1  0  0  0  0
 36 73  1  0  0  0  0
 37 74  1  0  0  0  0
M  END
> <PUBCHEM_COMPOUND_CID>
11882950

> <PUBCHEM_CONFORMER_RMSD>
1.2

> <PUBCHEM_CONFORMER_DIVERSEORDER>
1
41
21
11
55
51
49
42
56
57
24
50
48
45
32
38
30
31
53
26
16
39
43
17
46
20
54
36
18
40
35
52
25
34
37
58
5
44
23
33
2
29
13
47
15
7
22
14
28
19
8
12
27
10
4
9
3
6

> <PUBCHEM_MMFF94_PARTIAL_CHARGES>
41
1 -0.08
13 0.18
15 0.28
16 0.18
19 0.05
2 -0.68
20 0.28
22 -0.14
23 0.06
24 0.57
25 0.44
26 0.44
27 0.3
28 0.57
29 -0.29
3 -0.68
30 0.34
31 -0.3
32 0.08
33 -0.15
34 -0.15
35 -0.15
36 -0.15
37 -0.15
4 -0.57
5 -0.57
57 0.4
58 0.4
59 0.37
6 -0.36
65 0.15
68 0.15
69 0.15
7 -0.57
70 0.15
71 0.15
72 0.15
73 0.15
74 0.15
8 -0.66
9 -0.49

> <PUBCHEM_EFFECTIVE_ROTOR_COUNT>
12.2

> <PUBCHEM_PHARMACOPHORE_FEATURES>
13
1 2 acceptor
1 2 donor
1 3 acceptor
1 3 donor
1 31 hydrophobe
1 4 acceptor
1 5 acceptor
1 6 acceptor
1 9 donor
5 1 7 19 22 25 rings
6 10 11 12 14 15 17 rings
6 10 11 13 16 19 22 rings
6 32 33 34 35 36 37 rings

> <PUBCHEM_HEAVY_ATOM_COUNT>
37

> <PUBCHEM_ATOM_DEF_STEREO_COUNT>
5

> <PUBCHEM_ATOM_UDEF_STEREO_COUNT>
0

> <PUBCHEM_BOND_DEF_STEREO_COUNT>
0

> <PUBCHEM_BOND_UDEF_STEREO_COUNT>
0

> <PUBCHEM_ISOTOPIC_ATOM_COUNT>
0

> <PUBCHEM_COMPONENT_COUNT>
1

> <PUBCHEM_CACTVS_TAUTO_COUNT>
3

> <PUBCHEM_CONFORMER_ID>
00B551C600000001

> <PUBCHEM_MMFF94_ENERGY>
124.0401

> <PUBCHEM_FEATURE_SELFOVERLAP>
66.125

> <PUBCHEM_SHAPE_FINGERPRINT>
10050765 1 18050851013937094565
10076449 9 7925912591090118044
11007060 377 18271255966555762096
11135926 11 18409163295054539645
11136131 41 18262233318599797066
11315181 36 18131354133319524505
11578080 2 17241872200391597343
11719270 70 18410011036005151548
12522641 33 18412829084513051910
12838862 33 18338221739414947740
13811026 1 18408605885218650031
14040222 383 18341609386474522530
14394314 77 18410293609887575656
15320294 125 18040985268849012698
15439362 3 18337391522378906115
15890870 6 18411418428216273500
15927050 60 18412824711451140599
16719943 64 18336829796902783194
20554085 129 18201145608079890202
20609170 92 18042393657271028413
20721686 56 18335144158886902611
21133665 82 18408886274660625406
21360443 120 18408324380593828430
22311459 1 18410576175891539349
23559900 14 18272085058432236833
249057 3 18334858359764634044
3383291 50 18337955726631973002
3411729 13 18335422318275389559
4017518 198 18342745148149204982
5085150 59 18408885174621269042
5265222 85 18265898132567580012
5385378 56 18338805511316663145
6371380 46 18270678787792647840
6669772 16 18411984628933021806
99344 41 18410573985483968604
9981440 41 18335991951630830250

> <PUBCHEM_SHAPE_MULTIPOLES>
721
23.59
5.29
1.09
31.74
9.47
-0.31
-21.26
-3.49
4.24
0.14
-0.61
0.22
0.44

> <PUBCHEM_SHAPE_SELFOVERLAP>
1511.729

> <PUBCHEM_SHAPE_VOLUME>
409.1

> <PUBCHEM_COORDINATE_TYPE>
2
5
10

$$$$
