75537127
  -OEChem-12032416333D

 49 52  0     1  0  0  0  0  0999 V2000
    2.7306    2.7107   -0.0913 O   0  0  0  0  0  0  0  0  0  0  0  0
    2.4404    0.3714   -0.1772 N   0  0  0  0  0  0  0  0  0  0  0  0
    0.6231    1.6879   -0.2681 N   0  0  0  0  0  0  0  0  0  0  0  0
   -2.0976    1.1786    0.2313 N   0  0  2  0  0  0  0  0  0  0  0  0
   -4.9547   -2.4217    0.4214 N   0  0  0  0  0  0  0  0  0  0  0  0
    0.1114    0.3481   -0.4677 C   0  0  1  0  0  0  0  0  0  0  0  0
    3.8018   -0.0881   -0.0441 C   0  0  0  0  0  0  0  0  0  0  0  0
    1.3143   -0.5466   -0.1754 C   0  0  0  0  0  0  0  0  0  0  0  0
   -1.1034    0.1039    0.4271 C   0  0  0  0  0  0  0  0  0  0  0  0
    4.2364   -0.8489   -1.2991 C   0  0  0  0  0  0  0  0  0  0  0  0
    3.9633   -0.9477    1.2124 C   0  0  0  0  0  0  0  0  0  0  0  0
    2.0209    1.7169   -0.1731 C   0  0  0  0  0  0  0  0  0  0  0  0
   -0.2945    2.8078   -0.2912 C   0  0  0  0  0  0  0  0  0  0  0  0
   -1.5221    2.4963    0.5686 C   0  0  0  0  0  0  0  0  0  0  0  0
    5.6564   -1.3924   -1.1642 C   0  0  0  0  0  0  0  0  0  0  0  0
    5.3843   -1.4895    1.3439 C   0  0  0  0  0  0  0  0  0  0  0  0
    5.8161   -2.2457    0.0908 C   0  0  0  0  0  0  0  0  0  0  0  0
   -3.2902    0.9219    1.0383 C   0  0  0  0  0  0  0  0  0  0  0  0
   -4.1668   -0.1360    0.4226 C   0  0  0  0  0  0  0  0  0  0  0  0
   -4.9757    0.1510   -0.6713 C   0  0  0  0  0  0  0  0  0  0  0  0
   -4.1923   -1.4263    0.9271 C   0  0  0  0  0  0  0  0  0  0  0  0
   -5.7741   -0.8466   -1.2195 C   0  0  0  0  0  0  0  0  0  0  0  0
   -5.7277   -2.1051   -0.6415 C   0  0  0  0  0  0  0  0  0  0  0  0
   -0.1689    0.2672   -1.5262 H   0  0  0  0  0  0  0  0  0  0  0  0
    4.4442    0.7961    0.0580 H   0  0  0  0  0  0  0  0  0  0  0  0
    1.2353   -1.0132    0.8112 H   0  0  0  0  0  0  0  0  0  0  0  0
    1.4318   -1.3199   -0.9387 H   0  0  0  0  0  0  0  0  0  0  0  0
   -1.5178   -0.8750    0.1635 H   0  0  0  0  0  0  0  0  0  0  0  0
   -0.7974    0.0603    1.4813 H   0  0  0  0  0  0  0  0  0  0  0  0
    3.5618   -1.6906   -1.4971 H   0  0  0  0  0  0  0  0  0  0  0  0
    4.1767   -0.1919   -2.1754 H   0  0  0  0  0  0  0  0  0  0  0  0
    3.7074   -0.3634    2.1047 H   0  0  0  0  0  0  0  0  0  0  0  0
    3.2783   -1.8040    1.1911 H   0  0  0  0  0  0  0  0  0  0  0  0
   -0.5862    2.9677   -1.3356 H   0  0  0  0  0  0  0  0  0  0  0  0
    0.2175    3.7092    0.0598 H   0  0  0  0  0  0  0  0  0  0  0  0
   -1.2399    2.5233    1.6297 H   0  0  0  0  0  0  0  0  0  0  0  0
   -2.2633    3.2875    0.4046 H   0  0  0  0  0  0  0  0  0  0  0  0
    6.3648   -0.5555   -1.1287 H   0  0  0  0  0  0  0  0  0  0  0  0
    5.9096   -1.9870   -2.0492 H   0  0  0  0  0  0  0  0  0  0  0  0
    5.4477   -2.1520    2.2146 H   0  0  0  0  0  0  0  0  0  0  0  0
    6.0761   -0.6576    1.5248 H   0  0  0  0  0  0  0  0  0  0  0  0
    6.8606   -2.5610    0.1920 H   0  0  0  0  0  0  0  0  0  0  0  0
    5.2150   -3.1579   -0.0098 H   0  0  0  0  0  0  0  0  0  0  0  0
   -3.0340    0.6645    2.0751 H   0  0  0  0  0  0  0  0  0  0  0  0
   -3.9049    1.8303    1.1100 H   0  0  0  0  0  0  0  0  0  0  0  0
   -4.9916    1.1474   -1.1045 H   0  0  0  0  0  0  0  0  0  0  0  0
   -3.5835   -1.7126    1.7792 H   0  0  0  0  0  0  0  0  0  0  0  0
   -6.4124   -0.6457   -2.0722 H   0  0  0  0  0  0  0  0  0  0  0  0
   -6.3313   -2.9179   -1.0318 H   0  0  0  0  0  0  0  0  0  0  0  0
  1 12  2  0  0  0  0
  2  7  1  0  0  0  0
  2  8  1  0  0  0  0
  2 12  1  0  0  0  0
  3  6  1  0  0  0  0
  3 12  1  0  0  0  0
  3 13  1  0  0  0  0
  4  9  1  0  0  0  0
  4 14  1  0  0  0  0
  4 18  1  0  0  0  0
  5 21  1  0  0  0  0
  5 23  2  0  0  0  0
  6  8  1  0  0  0  0
  6  9  1  0  0  0  0
  6 24  1  0  0  0  0
  7 10  1  0  0  0  0
  7 11  1  0  0  0  0
  7 25  1  0  0  0  0
  8 26  1  0  0  0  0
  8 27  1  0  0  0  0
  9 28  1  0  0  0  0
  9 29  1  0  0  0  0
 10 15  1  0  0  0  0
 10 30  1  0  0  0  0
 10 31  1  0  0  0  0
 11 16  1  0  0  0  0
 11 32  1  0  0  0  0
 11 33  1  0  0  0  0
 13 14  1  0  0  0  0
 13 34  1  0  0  0  0
 13 35  1  0  0  0  0
 14 36  1  0  0  0  0
 14 37  1  0  0  0  0
 15 17  1  0  0  0  0
 15 38  1  0  0  0  0
 15 39  1  0  0  0  0
 16 17  1  0  0  0  0
 16 40  1  0  0  0  0
 16 41  1  0  0  0  0
 17 42  1  0  0  0  0
 17 43  1  0  0  0  0
 18 19  1  0  0  0  0
 18 44  1  0  0  0  0
 18 45  1  0  0  0  0
 19 20  1  0  0  0  0
 19 21  2  0  0  0  0
 20 22  2  0  0  0  0
 20 46  1  0  0  0  0
 21 47  1  0  0  0  0
 22 23  1  0  0  0  0
 22 48  1  0  0  0  0
 23 49  1  0  0  0  0
M  END
> <PUBCHEM_COMPOUND_CID>
75537127

> <PUBCHEM_CONFORMER_RMSD>
0.8

> <PUBCHEM_CONFORMER_DIVERSEORDER>
1
73
58
61
53
42
70
21
62
65
22
38
35
57
68
4
52
49
9
3
18
43
59
54
74
36
64
20
7
26
41
10
45
60
32
66
11
50
44
33
31
29
17
8
56
72
2
27
5
12
69
55
28
6
24
25
39
46
40
14
48
37
67
16
71
63
47
23
51
30
19
13
15
34

> <PUBCHEM_MMFF94_PARTIAL_CHARGES>
22
1 -0.57
12 0.69
13 0.3
14 0.27
18 0.41
19 -0.14
2 -0.66
20 -0.15
21 0.16
22 -0.15
23 0.16
3 -0.66
4 -0.81
46 0.15
47 0.15
48 0.15
49 0.15
5 -0.62
6 0.3
7 0.3
8 0.3
9 0.27

> <PUBCHEM_EFFECTIVE_ROTOR_COUNT>
5.4

> <PUBCHEM_PHARMACOPHORE_FEATURES>
7
1 1 acceptor
1 4 cation
1 5 acceptor
5 2 3 6 8 12 rings
6 3 4 6 9 13 14 rings
6 5 19 20 21 22 23 rings
6 7 10 11 15 16 17 rings

> <PUBCHEM_HEAVY_ATOM_COUNT>
23

> <PUBCHEM_ATOM_DEF_STEREO_COUNT>
1

> <PUBCHEM_ATOM_UDEF_STEREO_COUNT>
0

> <PUBCHEM_BOND_DEF_STEREO_COUNT>
0

> <PUBCHEM_BOND_UDEF_STEREO_COUNT>
0

> <PUBCHEM_ISOTOPIC_ATOM_COUNT>
0

> <PUBCHEM_COMPONENT_COUNT>
1

> <PUBCHEM_CACTVS_TAUTO_COUNT>
1

> <PUBCHEM_CONFORMER_ID>
04809AE700000001

> <PUBCHEM_MMFF94_ENERGY>
46.5771

> <PUBCHEM_FEATURE_SELFOVERLAP>
35.618

> <PUBCHEM_SHAPE_FINGERPRINT>
10 15 11887953272474102303
10378564 45 12396575205505489090
10622 236 17771890899866863175
10692045 39 11527678436394817508
10721379 63 7853311868695015456
11069576 57 16951394426420266402
11545043 162 17632013048687346994
12166972 35 17968381242610567071
12293681 160 12251902581507475132
12422481 6 17275108310109888439
12596602 18 17561080272599491410
12616971 3 18341908398050745937
12760667 363 18409449159266143907
12839892 36 18060699468246056431
12892183 10 16343427193944187408
13533116 47 18341330101588501064
13540713 5 18267888171057023777
13583140 156 15338838591158855977
13782708 43 17702949124244886502
13862211 1 18410291385215491070
13885169 86 10303516347139422370
14123256 34 18411990160449867918
14211702 104 18338517563935676523
14251740 57 18270961353247530674
14848178 5 18342736325610605947
15183329 4 15140674752698174723
15188451 53 17917704691324791451
15880784 105 18060422408442504506
17349148 13 18201168723198413211
17492 89 18265900353192123347
17857418 61 18334293145645529202
18222031 100 18411136926900059720
18927931 339 18340776961851989031
193927 3 18343028791244966895
200 152 18341611542817285801
20028762 73 18273212006247802878
20281389 69 9151172043239784079
20645477 70 18337110171576341565
21033648 29 16987419920550629552
21033650 10 16660634130037312485
21267235 1 18410865364924237075
21279426 13 18260258664566688671
21756936 100 8646477514630298193
22393880 68 17968365828125980507
2303208 19 17131560431912106334
23402539 116 18411981326055152149
23402655 69 11241971494614410432
23522609 53 18048917101632817716
23559900 14 18262234525252913809
23569914 152 12976374014680937018
23622692 118 18410855443001598792
25122255 55 18341897394007299959
2838139 119 7925624467403604658
2916195 48 10665236968226403943
293599 30 8430314649432165037
3004659 81 18259702315487540287
312425 54 17345763979678338771
314194 84 18187655665327093306
3459 39 8934435138804827870
392239 28 15769770282286189475
465052 167 18341618126722725542
5104073 3 18201445804645295873
543368 44 10881405339894298559
559249 180 18413107230900436329
5718773 13 18200304563580001919
59682541 52 14346065392070941642
6034566 193 10591467490360795642
76465 3 18409165506487936561
7808743 9 9367338228457647029
7970288 3 18337951195283395234
960060 61 16950281810551246426

> <PUBCHEM_SHAPE_MULTIPOLES>
447.54
15.37
2.86
1.15
0.82
1.18
-0.02
-14.03
1.45
0.38
-0.06
-0.4
-0.38
-0.59

> <PUBCHEM_SHAPE_SELFOVERLAP>
945.911

> <PUBCHEM_SHAPE_VOLUME>
249.3

> <PUBCHEM_COORDINATE_TYPE>
2
5
10

$$$$
