51136660
  -OEChem-12032416143D

 56 58  0     1  0  0  0  0  0999 V2000
   -0.8259   -3.9160    0.7990 O   0  0  0  0  0  0  0  0  0  0  0  0
   -5.5836    2.8422    1.3726 O   0  0  0  0  0  0  0  0  0  0  0  0
   -6.0881    0.8314    0.4328 O   0  0  0  0  0  0  0  0  0  0  0  0
    1.4916   -3.7901   -0.2022 O   0  0  0  0  0  0  0  0  0  0  0  0
    5.5950    0.8541    1.2663 O   0  0  0  0  0  0  0  0  0  0  0  0
   -1.7198   -2.1101   -0.3570 N   0  0  0  0  0  0  0  0  0  0  0  0
    0.0486    1.8452   -1.7775 N   0  0  0  0  0  0  0  0  0  0  0  0
   -1.9694    0.3327   -0.7366 C   0  0  2  0  0  0  0  0  0  0  0  0
   -3.3611    0.2583   -0.0582 C   0  0  1  0  0  0  0  0  0  0  0  0
   -3.4440   -0.9128    0.9354 C   0  0  0  0  0  0  0  0  0  0  0  0
   -1.6133   -1.0336   -1.3502 C   0  0  0  0  0  0  0  0  0  0  0  0
   -3.0319   -2.2277    0.2786 C   0  0  0  0  0  0  0  0  0  0  0  0
   -0.8468    0.8072    0.1945 C   0  0  0  0  0  0  0  0  0  0  0  0
   -3.7715    1.5672    0.6161 C   0  0  0  0  0  0  0  0  0  0  0  0
    0.3108    1.3288   -0.6223 C   0  0  0  0  0  0  0  0  0  0  0  0
   -0.7025   -3.0026   -0.0210 C   0  0  0  0  0  0  0  0  0  0  0  0
    1.6844    1.2184   -0.0682 C   0  0  0  0  0  0  0  0  0  0  0  0
   -5.2635    1.6651    0.7760 C   0  0  0  0  0  0  0  0  0  0  0  0
    2.7431    1.3426   -0.9768 C   0  0  0  0  0  0  0  0  0  0  0  0
    2.4266    1.5602   -2.4266 C   0  0  0  0  0  0  0  0  0  0  0  0
    1.1658    2.4066   -2.5445 C   0  0  0  0  0  0  0  0  0  0  0  0
    0.6209   -2.8128   -0.7184 C   0  0  0  0  0  0  0  0  0  0  0  0
    1.9362    0.9877    1.2856 C   0  0  0  0  0  0  0  0  0  0  0  0
    4.0590    1.2081   -0.5255 C   0  0  0  0  0  0  0  0  0  0  0  0
    3.2540    0.8705    1.7294 C   0  0  0  0  0  0  0  0  0  0  0  0
    4.3124    0.9775    0.8267 C   0  0  0  0  0  0  0  0  0  0  0  0
    2.7899   -3.7147   -0.7883 C   0  0  0  0  0  0  0  0  0  0  0  0
    5.7831    0.6168    2.6605 C   0  0  0  0  0  0  0  0  0  0  0  0
   -2.0981    1.0372   -1.5679 H   0  0  0  0  0  0  0  0  0  0  0  0
   -4.0789    0.0451   -0.8644 H   0  0  0  0  0  0  0  0  0  0  0  0
   -2.7853   -0.7186    1.7914 H   0  0  0  0  0  0  0  0  0  0  0  0
   -4.4584   -1.0191    1.3346 H   0  0  0  0  0  0  0  0  0  0  0  0
   -0.6279   -1.0042   -1.8186 H   0  0  0  0  0  0  0  0  0  0  0  0
   -2.3253   -1.2760   -2.1494 H   0  0  0  0  0  0  0  0  0  0  0  0
   -3.7498   -2.5076   -0.5015 H   0  0  0  0  0  0  0  0  0  0  0  0
   -3.0338   -3.0282    1.0251 H   0  0  0  0  0  0  0  0  0  0  0  0
   -0.5327   -0.0010    0.8605 H   0  0  0  0  0  0  0  0  0  0  0  0
   -1.1717    1.6458    0.8187 H   0  0  0  0  0  0  0  0  0  0  0  0
   -3.4611    2.4162   -0.0046 H   0  0  0  0  0  0  0  0  0  0  0  0
   -3.3127    1.6623    1.6064 H   0  0  0  0  0  0  0  0  0  0  0  0
    2.2793    0.5844   -2.9049 H   0  0  0  0  0  0  0  0  0  0  0  0
    3.2537    2.0675   -2.9357 H   0  0  0  0  0  0  0  0  0  0  0  0
    1.3498    3.4339   -2.2057 H   0  0  0  0  0  0  0  0  0  0  0  0
    0.8710    2.4660   -3.5979 H   0  0  0  0  0  0  0  0  0  0  0  0
    1.0121   -1.8151   -0.5003 H   0  0  0  0  0  0  0  0  0  0  0  0
    0.4904   -2.9587   -1.7955 H   0  0  0  0  0  0  0  0  0  0  0  0
    1.1348    0.9102    2.0135 H   0  0  0  0  0  0  0  0  0  0  0  0
    4.8874    1.2840   -1.2254 H   0  0  0  0  0  0  0  0  0  0  0  0
   -6.5523    2.9394    1.4931 H   0  0  0  0  0  0  0  0  0  0  0  0
    3.3838    0.6956    2.7922 H   0  0  0  0  0  0  0  0  0  0  0  0
    3.4126   -4.4960   -0.3448 H   0  0  0  0  0  0  0  0  0  0  0  0
    3.2450   -2.7413   -0.5806 H   0  0  0  0  0  0  0  0  0  0  0  0
    2.7306   -3.8818   -1.8680 H   0  0  0  0  0  0  0  0  0  0  0  0
    6.8619    0.5442    2.8332 H   0  0  0  0  0  0  0  0  0  0  0  0
    5.3455   -0.3388    2.9689 H   0  0  0  0  0  0  0  0  0  0  0  0
    5.4188    1.4549    3.2643 H   0  0  0  0  0  0  0  0  0  0  0  0
  1 16  2  0  0  0  0
  2 18  1  0  0  0  0
  2 49  1  0  0  0  0
  3 18  2  0  0  0  0
  4 22  1  0  0  0  0
  4 27  1  0  0  0  0
  5 26  1  0  0  0  0
  5 28  1  0  0  0  0
  6 11  1  0  0  0  0
  6 12  1  0  0  0  0
  6 16  1  0  0  0  0
  7 15  2  0  0  0  0
  7 21  1  0  0  0  0
  8  9  1  0  0  0  0
  8 11  1  0  0  0  0
  8 13  1  0  0  0  0
  8 29  1  0  0  0  0
  9 10  1  0  0  0  0
  9 14  1  0  0  0  0
  9 30  1  0  0  0  0
 10 12  1  0  0  0  0
 10 31  1  0  0  0  0
 10 32  1  0  0  0  0
 11 33  1  0  0  0  0
 11 34  1  0  0  0  0
 12 35  1  0  0  0  0
 12 36  1  0  0  0  0
 13 15  1  0  0  0  0
 13 37  1  0  0  0  0
 13 38  1  0  0  0  0
 14 18  1  0  0  0  0
 14 39  1  0  0  0  0
 14 40  1  0  0  0  0
 15 17  1  0  0  0  0
 16 22  1  0  0  0  0
 17 19  2  0  0  0  0
 17 23  1  0  0  0  0
 19 20  1  0  0  0  0
 19 24  1  0  0  0  0
 20 21  1  0  0  0  0
 20 41  1  0  0  0  0
 20 42  1  0  0  0  0
 21 43  1  0  0  0  0
 21 44  1  0  0  0  0
 22 45  1  0  0  0  0
 22 46  1  0  0  0  0
 23 25  2  0  0  0  0
 23 47  1  0  0  0  0
 24 26  2  0  0  0  0
 24 48  1  0  0  0  0
 25 26  1  0  0  0  0
 25 50  1  0  0  0  0
 27 51  1  0  0  0  0
 27 52  1  0  0  0  0
 27 53  1  0  0  0  0
 28 54  1  0  0  0  0
 28 55  1  0  0  0  0
 28 56  1  0  0  0  0
M  END
> <PUBCHEM_COMPOUND_CID>
51136660

> <PUBCHEM_CONFORMER_RMSD>
1

> <PUBCHEM_CONFORMER_DIVERSEORDER>
1
41
68
14
31
28
57
63
32
12
22
49
53
47
18
54
29
15
21
62
13
42
34
65
7
69
45
48
37
52
11
2
35
51
56
70
5
61
19
9
20
3
43
16
58
10
24
66
27
30
26
4
6
39
67
40
59
25
50
33
8
46
64
38
55
60
23
36
17
44

> <PUBCHEM_MMFF94_PARTIAL_CHARGES>
29
1 -0.57
11 0.3
12 0.3
13 0.06
14 0.06
15 0.3
16 0.57
17 0.09
18 0.66
19 -0.14
2 -0.65
20 0.14
21 0.25
22 0.34
23 -0.15
24 -0.15
25 -0.15
26 0.08
27 0.28
28 0.28
3 -0.57
4 -0.56
47 0.15
48 0.15
49 0.5
5 -0.36
50 0.15
6 -0.66
7 -0.7

> <PUBCHEM_EFFECTIVE_ROTOR_COUNT>
9.6

> <PUBCHEM_PHARMACOPHORE_FEATURES>
10
1 1 acceptor
1 2 acceptor
1 3 acceptor
1 4 acceptor
1 5 acceptor
1 7 acceptor
3 2 3 18 anion
6 17 19 23 24 25 26 rings
6 6 8 9 10 11 12 rings
6 7 15 17 19 20 21 rings

> <PUBCHEM_HEAVY_ATOM_COUNT>
28

> <PUBCHEM_ATOM_DEF_STEREO_COUNT>
2

> <PUBCHEM_ATOM_UDEF_STEREO_COUNT>
0

> <PUBCHEM_BOND_DEF_STEREO_COUNT>
0

> <PUBCHEM_BOND_UDEF_STEREO_COUNT>
0

> <PUBCHEM_ISOTOPIC_ATOM_COUNT>
0

> <PUBCHEM_COMPONENT_COUNT>
1

> <PUBCHEM_CACTVS_TAUTO_COUNT>
1

> <PUBCHEM_CONFORMER_ID>
030C489400000001

> <PUBCHEM_MMFF94_ENERGY>
79.5516

> <PUBCHEM_FEATURE_SELFOVERLAP>
50.849

> <PUBCHEM_SHAPE_FINGERPRINT>
11049842 53 18265076715470837268
11513181 2 17988638579931757406
11582403 64 17059756888925592841
12156800 1 14205673296248046914
12422481 6 18262502703364161394
12553582 1 16805864269795004056
12633257 1 17313385651520740185
12788726 201 17833566960833164575
13140716 1 18337955576128814795
13726171 33 17903952137155419660
14178342 30 18339361967353567999
14466204 15 18341894091304251545
14840074 17 18040707079010268856
15420108 30 18272356577669402582
15537594 2 17385723625635566860
16110190 28 18187637064187652896
16752209 62 18196100065084052375
17093844 170 18410303492954827406
20554085 129 18130780136625478033
20600515 1 18272936058841384153
20691752 17 18186799145294594391
21033648 29 17632587062704012345
212916 134 18342741823358882705
22182313 1 17897999132188917941
23419403 2 17832696886173692501
23559900 14 18269575873991286287
338550 245 18335713761976501159
3411729 13 18271244907157256587
4340502 62 18201719531168583984
5104073 3 18199203793668499281
513202 73 17388231483009816354
5265222 85 18125731325549638700
5385378 56 18268721519793117441
7064713 232 18410850001604647384
9953998 17 18266154289339809752

> <PUBCHEM_SHAPE_MULTIPOLES>
536.92
10.79
4.25
2.03
2.93
5.78
-0.26
-7.19
7.66
0.84
-0.8
-2.57
-1.37
-0.71

> <PUBCHEM_SHAPE_SELFOVERLAP>
1125.641

> <PUBCHEM_SHAPE_VOLUME>
300.9

> <PUBCHEM_COORDINATE_TYPE>
2
5
10

$$$$
