51136670
  -OEChem-12032416143D

 58 60  0     1  0  0  0  0  0999 V2000
    5.9064    2.6983   -1.1997 O   0  0  0  0  0  0  0  0  0  0  0  0
    0.9486   -3.8320   -0.9131 O   0  0  0  0  0  0  0  0  0  0  0  0
    6.3074    0.6992   -0.1882 O   0  0  0  0  0  0  0  0  0  0  0  0
   -5.3054    1.0199   -1.6805 O   0  0  0  0  0  0  0  0  0  0  0  0
    1.8086   -2.1064    0.3750 N   0  0  0  0  0  0  0  0  0  0  0  0
    0.0866    1.9056    1.6589 N   0  0  0  0  0  0  0  0  0  0  0  0
   -0.4800   -2.6915    0.4713 N   0  0  0  0  0  0  0  0  0  0  0  0
    2.1170    0.3239    0.7539 C   0  0  2  0  0  0  0  0  0  0  0  0
    3.5437    0.2002    0.1564 C   0  0  1  0  0  0  0  0  0  0  0  0
    3.6590   -0.9971   -0.8044 C   0  0  0  0  0  0  0  0  0  0  0  0
    1.6947   -1.0240    1.3634 C   0  0  0  0  0  0  0  0  0  0  0  0
    1.0621    0.8138   -0.2449 C   0  0  0  0  0  0  0  0  0  0  0  0
    3.1614   -2.2868   -0.1535 C   0  0  0  0  0  0  0  0  0  0  0  0
    4.0236    1.4833   -0.5215 C   0  0  0  0  0  0  0  0  0  0  0  0
   -0.1246    1.3790    0.4978 C   0  0  0  0  0  0  0  0  0  0  0  0
    0.7725   -2.9393   -0.0772 C   0  0  0  0  0  0  0  0  0  0  0  0
   -1.4674    1.2977   -0.1317 C   0  0  0  0  0  0  0  0  0  0  0  0
    5.5243    1.5433   -0.5969 C   0  0  0  0  0  0  0  0  0  0  0  0
   -2.5716    1.4644    0.7137 C   0  0  0  0  0  0  0  0  0  0  0  0
   -2.3312    1.6954    2.1760 C   0  0  0  0  0  0  0  0  0  0  0  0
   -1.0558    2.5089    2.3536 C   0  0  0  0  0  0  0  0  0  0  0  0
   -1.6490    1.0535   -1.4942 C   0  0  0  0  0  0  0  0  0  0  0  0
   -3.8633    1.3591    0.1904 C   0  0  0  0  0  0  0  0  0  0  0  0
   -2.9425    0.9655   -2.0104 C   0  0  0  0  0  0  0  0  0  0  0  0
   -1.6478   -3.4587    0.0998 C   0  0  0  0  0  0  0  0  0  0  0  0
   -4.0467    1.1149   -1.1707 C   0  0  0  0  0  0  0  0  0  0  0  0
   -2.8274   -2.9501    0.8597 C   0  0  0  0  0  0  0  0  0  0  0  0
   -6.3893    1.1827   -0.7671 C   0  0  0  0  0  0  0  0  0  0  0  0
   -3.9140   -2.4228    0.2844 C   0  0  0  0  0  0  0  0  0  0  0  0
    2.2200    1.0370    1.5815 H   0  0  0  0  0  0  0  0  0  0  0  0
    4.2087   -0.0104    1.0074 H   0  0  0  0  0  0  0  0  0  0  0  0
    3.0671   -0.8023   -1.7079 H   0  0  0  0  0  0  0  0  0  0  0  0
    4.6949   -1.1414   -1.1296 H   0  0  0  0  0  0  0  0  0  0  0  0
    0.7089   -0.9498    1.8193 H   0  0  0  0  0  0  0  0  0  0  0  0
    2.3766   -1.2829    2.1841 H   0  0  0  0  0  0  0  0  0  0  0  0
    0.7634    0.0061   -0.9182 H   0  0  0  0  0  0  0  0  0  0  0  0
    1.4445    1.6344   -0.8604 H   0  0  0  0  0  0  0  0  0  0  0  0
    3.8098   -2.5702    0.6840 H   0  0  0  0  0  0  0  0  0  0  0  0
    3.1954   -3.1026   -0.8822 H   0  0  0  0  0  0  0  0  0  0  0  0
    3.6991    2.3533    0.0617 H   0  0  0  0  0  0  0  0  0  0  0  0
    3.6245    1.5659   -1.5384 H   0  0  0  0  0  0  0  0  0  0  0  0
   -3.1702    2.2331    2.6316 H   0  0  0  0  0  0  0  0  0  0  0  0
   -2.2385    0.7231    2.6748 H   0  0  0  0  0  0  0  0  0  0  0  0
   -1.1916    3.5355    1.9908 H   0  0  0  0  0  0  0  0  0  0  0  0
   -0.8193    2.5763    3.4211 H   0  0  0  0  0  0  0  0  0  0  0  0
   -0.6277   -1.9034    1.0859 H   0  0  0  0  0  0  0  0  0  0  0  0
   -0.8115    0.9425   -2.1753 H   0  0  0  0  0  0  0  0  0  0  0  0
   -4.6838    1.4754    0.8905 H   0  0  0  0  0  0  0  0  0  0  0  0
    6.8825    2.7706   -1.2661 H   0  0  0  0  0  0  0  0  0  0  0  0
   -3.0843    0.7779   -3.0715 H   0  0  0  0  0  0  0  0  0  0  0  0
   -1.4623   -4.5106    0.3409 H   0  0  0  0  0  0  0  0  0  0  0  0
   -1.7811   -3.3773   -0.9846 H   0  0  0  0  0  0  0  0  0  0  0  0
   -2.8000   -3.0268    1.9439 H   0  0  0  0  0  0  0  0  0  0  0  0
   -6.3968    0.3940   -0.0070 H   0  0  0  0  0  0  0  0  0  0  0  0
   -6.3979    2.1854   -0.3264 H   0  0  0  0  0  0  0  0  0  0  0  0
   -7.3149    1.0793   -1.3428 H   0  0  0  0  0  0  0  0  0  0  0  0
   -3.9961   -2.3278   -0.7926 H   0  0  0  0  0  0  0  0  0  0  0  0
   -4.7425   -2.0737    0.8910 H   0  0  0  0  0  0  0  0  0  0  0  0
  1 18  1  0  0  0  0
  1 49  1  0  0  0  0
  2 16  2  0  0  0  0
  3 18  2  0  0  0  0
  4 26  1  0  0  0  0
  4 28  1  0  0  0  0
  5 11  1  0  0  0  0
  5 13  1  0  0  0  0
  5 16  1  0  0  0  0
  6 15  2  0  0  0  0
  6 21  1  0  0  0  0
  7 16  1  0  0  0  0
  7 25  1  0  0  0  0
  7 46  1  0  0  0  0
  8  9  1  0  0  0  0
  8 11  1  0  0  0  0
  8 12  1  0  0  0  0
  8 30  1  0  0  0  0
  9 10  1  0  0  0  0
  9 14  1  0  0  0  0
  9 31  1  0  0  0  0
 10 13  1  0  0  0  0
 10 32  1  0  0  0  0
 10 33  1  0  0  0  0
 11 34  1  0  0  0  0
 11 35  1  0  0  0  0
 12 15  1  0  0  0  0
 12 36  1  0  0  0  0
 12 37  1  0  0  0  0
 13 38  1  0  0  0  0
 13 39  1  0  0  0  0
 14 18  1  0  0  0  0
 14 40  1  0  0  0  0
 14 41  1  0  0  0  0
 15 17  1  0  0  0  0
 17 19  2  0  0  0  0
 17 22  1  0  0  0  0
 19 20  1  0  0  0  0
 19 23  1  0  0  0  0
 20 21  1  0  0  0  0
 20 42  1  0  0  0  0
 20 43  1  0  0  0  0
 21 44  1  0  0  0  0
 21 45  1  0  0  0  0
 22 24  2  0  0  0  0
 22 47  1  0  0  0  0
 23 26  2  0  0  0  0
 23 48  1  0  0  0  0
 24 26  1  0  0  0  0
 24 50  1  0  0  0  0
 25 27  1  0  0  0  0
 25 51  1  0  0  0  0
 25 52  1  0  0  0  0
 27 29  2  0  0  0  0
 27 53  1  0  0  0  0
 28 54  1  0  0  0  0
 28 55  1  0  0  0  0
 28 56  1  0  0  0  0
 29 57  1  0  0  0  0
 29 58  1  0  0  0  0
M  END
> <PUBCHEM_COMPOUND_CID>
51136670

> <PUBCHEM_CONFORMER_RMSD>
1

> <PUBCHEM_CONFORMER_DIVERSEORDER>
1
27
7
21
28
4
17
22
34
14
11
32
2
36
33
39
30
35
18
37
3
26
38
15
8
29
5
23
19
20
13
25
6
41
10
40
16
31
24
9
12

> <PUBCHEM_MMFF94_PARTIAL_CHARGES>
34
1 -0.65
11 0.3
12 0.06
13 0.3
14 0.06
15 0.3
16 0.69
17 0.09
18 0.66
19 -0.14
2 -0.57
20 0.14
21 0.25
22 -0.15
23 -0.15
24 -0.15
25 0.44
26 0.08
27 -0.29
28 0.28
29 -0.3
3 -0.57
4 -0.36
46 0.37
47 0.15
48 0.15
49 0.5
5 -0.66
50 0.15
53 0.15
57 0.15
58 0.15
6 -0.7
7 -0.73

> <PUBCHEM_EFFECTIVE_ROTOR_COUNT>
10.6

> <PUBCHEM_PHARMACOPHORE_FEATURES>
11
1 1 acceptor
1 2 acceptor
1 29 hydrophobe
1 3 acceptor
1 4 acceptor
1 6 acceptor
1 7 donor
3 1 3 18 anion
6 17 19 22 23 24 26 rings
6 5 8 9 10 11 13 rings
6 6 15 17 19 20 21 rings

> <PUBCHEM_HEAVY_ATOM_COUNT>
29

> <PUBCHEM_ATOM_DEF_STEREO_COUNT>
2

> <PUBCHEM_ATOM_UDEF_STEREO_COUNT>
0

> <PUBCHEM_BOND_DEF_STEREO_COUNT>
0

> <PUBCHEM_BOND_UDEF_STEREO_COUNT>
0

> <PUBCHEM_ISOTOPIC_ATOM_COUNT>
0

> <PUBCHEM_COMPONENT_COUNT>
1

> <PUBCHEM_CACTVS_TAUTO_COUNT>
2

> <PUBCHEM_CONFORMER_ID>
030C489E00000001

> <PUBCHEM_MMFF94_ENERGY>
73.3948

> <PUBCHEM_FEATURE_SELFOVERLAP>
55.904

> <PUBCHEM_SHAPE_FINGERPRINT>
10366900 7 17846212250410821585
10675989 125 17758386375752453493
10759866 29 18114169852829338106
11135609 187 18411976936651966385
12156800 1 17619966911174027367
12788726 201 17631732660717670497
13402501 40 18408319991454074603
1361 2 18187361004822006325
13631057 29 18267586990605932223
13726171 33 18262522601336025737
13911987 19 18262250996827573340
14251757 5 18195250155243624674
14787075 74 18271516499783393343
14931854 50 18343008987657174311
15537594 2 17917981768466066069
17138139 8 18057579127408305647
17980427 23 16298392417478131500
19319366 153 18270950263584431174
21236236 1 18264211473208721606
21360443 126 18187357749489880039
23558518 356 17625547778703474233
23559900 14 18340760550524021145
23566358 2 18341344361391756614
238 59 18045216038055341354
27425 322 16660358182656741621
4409770 3 18267867361908351798
469060 322 17532383134582671539
5171179 24 17626657559445197657
5265222 85 18264208191795945365
7237137 82 18265059218090603284

> <PUBCHEM_SHAPE_MULTIPOLES>
558.39
11.4
4.19
1.7
5.08
4.58
-0.37
-6.74
5.28
-0.19
-0.53
-1.39
-1.2
-0.09

> <PUBCHEM_SHAPE_SELFOVERLAP>
1167.61

> <PUBCHEM_SHAPE_VOLUME>
313.1

> <PUBCHEM_COORDINATE_TYPE>
2
5
10

$$$$
