38030471
  -OEChem-12032416413D

 64 67  0     1  0  0  0  0  0999 V2000
   -2.2638   -0.4638    0.8786 O   0  0  0  0  0  0  0  0  0  0  0  0
    2.4869    1.5566   -0.9464 N   0  0  0  0  0  0  0  0  0  0  0  0
   -3.1961    0.5313    2.6520 N   0  0  0  0  0  0  0  0  0  0  0  0
   -4.1089   -0.3720    2.1401 N   0  0  0  0  0  0  0  0  0  0  0  0
   -5.7653   -3.4296   -0.4872 N   0  0  0  0  0  0  0  0  0  0  0  0
    6.0026   -4.6453    1.5387 N   0  0  0  0  0  0  0  0  0  0  0  0
   -0.4278    2.2844   -1.0334 C   0  0  1  0  0  0  0  0  0  0  0  0
    0.7468    3.2902   -0.9406 C   0  0  1  0  0  0  0  0  0  0  0  0
   -1.5142    2.6324   -0.0044 C   0  0  0  0  0  0  0  0  0  0  0  0
   -0.9750    2.6214    1.4385 C   0  0  2  0  0  0  0  0  0  0  0  0
   -1.0367    2.2490   -2.4386 C   0  0  0  0  0  0  0  0  0  0  0  0
    0.3344    3.3746    1.5560 C   0  0  0  0  0  0  0  0  0  0  0  0
    1.0836    3.6763    0.4806 C   0  0  0  0  0  0  0  0  0  0  0  0
    2.0005    2.7417   -1.6315 C   0  0  0  0  0  0  0  0  0  0  0  0
   -0.8330    1.1887    1.9641 C   0  0  0  0  0  0  0  0  0  0  0  0
   -2.0137    3.4056   -2.6244 C   0  0  0  0  0  0  0  0  0  0  0  0
   -1.7279    0.9119   -2.6856 C   0  0  0  0  0  0  0  0  0  0  0  0
    0.7414    3.8139    2.9350 C   0  0  0  0  0  0  0  0  0  0  0  0
   -2.1347    0.4436    1.8849 C   0  0  0  0  0  0  0  0  0  0  0  0
    3.6738    1.0210   -1.6025 C   0  0  0  0  0  0  0  0  0  0  0  0
    4.1831   -0.2181   -0.9156 C   0  0  0  0  0  0  0  0  0  0  0  0
   -3.5223   -0.9293    1.1066 C   0  0  0  0  0  0  0  0  0  0  0  0
    4.8880   -0.1111    0.2833 C   0  0  0  0  0  0  0  0  0  0  0  0
    3.9501   -1.4730   -1.4782 C   0  0  0  0  0  0  0  0  0  0  0  0
   -3.9938   -1.9340    0.1983 C   0  0  0  0  0  0  0  0  0  0  0  0
    5.3597   -1.2591    0.9197 C   0  0  0  0  0  0  0  0  0  0  0  0
    4.4220   -2.6210   -0.8418 C   0  0  0  0  0  0  0  0  0  0  0  0
    5.1267   -2.5140    0.3573 C   0  0  0  0  0  0  0  0  0  0  0  0
   -3.1956   -2.3892   -0.8454 C   0  0  0  0  0  0  0  0  0  0  0  0
   -5.2596   -2.4813    0.3329 C   0  0  0  0  0  0  0  0  0  0  0  0
   -3.6808   -3.3640   -1.7101 C   0  0  0  0  0  0  0  0  0  0  0  0
    5.6100   -3.6901    1.0093 C   0  0  0  0  0  0  0  0  0  0  0  0
   -4.9605   -3.8474   -1.4900 C   0  0  0  0  0  0  0  0  0  0  0  0
   -0.0551    1.2798   -0.7973 H   0  0  0  0  0  0  0  0  0  0  0  0
    0.4735    4.2220   -1.4519 H   0  0  0  0  0  0  0  0  0  0  0  0
   -2.3958    1.9944   -0.1101 H   0  0  0  0  0  0  0  0  0  0  0  0
   -1.8713    3.6585   -0.1685 H   0  0  0  0  0  0  0  0  0  0  0  0
   -1.7232    3.1422    2.0535 H   0  0  0  0  0  0  0  0  0  0  0  0
   -0.2543    2.3428   -3.1983 H   0  0  0  0  0  0  0  0  0  0  0  0
    1.9909    4.2611    0.6198 H   0  0  0  0  0  0  0  0  0  0  0  0
    1.7920    2.5150   -2.6821 H   0  0  0  0  0  0  0  0  0  0  0  0
    2.7791    3.5165   -1.6309 H   0  0  0  0  0  0  0  0  0  0  0  0
   -0.0588    0.6364    1.4180 H   0  0  0  0  0  0  0  0  0  0  0  0
   -0.5223    1.1965    3.0159 H   0  0  0  0  0  0  0  0  0  0  0  0
   -1.5777    4.3737   -2.3606 H   0  0  0  0  0  0  0  0  0  0  0  0
   -2.2953    3.4716   -3.6827 H   0  0  0  0  0  0  0  0  0  0  0  0
   -2.9517    3.2700   -2.0758 H   0  0  0  0  0  0  0  0  0  0  0  0
   -2.5637    0.7435   -1.9997 H   0  0  0  0  0  0  0  0  0  0  0  0
   -1.0243    0.0799   -2.5746 H   0  0  0  0  0  0  0  0  0  0  0  0
   -2.1271    0.8703   -3.7051 H   0  0  0  0  0  0  0  0  0  0  0  0
   -0.0512    4.4154    3.3917 H   0  0  0  0  0  0  0  0  0  0  0  0
    1.6507    4.4244    2.9215 H   0  0  0  0  0  0  0  0  0  0  0  0
    0.9363    2.9489    3.5757 H   0  0  0  0  0  0  0  0  0  0  0  0
    2.7112    1.7801    0.0225 H   0  0  0  0  0  0  0  0  0  0  0  0
    4.4789    1.7674   -1.6164 H   0  0  0  0  0  0  0  0  0  0  0  0
    3.4508    0.7874   -2.6515 H   0  0  0  0  0  0  0  0  0  0  0  0
    5.0765    0.8612    0.7309 H   0  0  0  0  0  0  0  0  0  0  0  0
    3.4006   -1.5716   -2.4106 H   0  0  0  0  0  0  0  0  0  0  0  0
    5.9076   -1.1595    1.8537 H   0  0  0  0  0  0  0  0  0  0  0  0
    4.2321   -3.5923   -1.2924 H   0  0  0  0  0  0  0  0  0  0  0  0
   -2.1922   -2.0071   -1.0137 H   0  0  0  0  0  0  0  0  0  0  0  0
   -5.9358   -2.1725    1.1249 H   0  0  0  0  0  0  0  0  0  0  0  0
   -3.0766   -3.7339   -2.5306 H   0  0  0  0  0  0  0  0  0  0  0  0
   -5.3854   -4.6083   -2.1363 H   0  0  0  0  0  0  0  0  0  0  0  0
  1 19  1  0  0  0  0
  1 22  1  0  0  0  0
  2 14  1  0  0  0  0
  2 20  1  0  0  0  0
  2 54  1  0  0  0  0
  3  4  1  0  0  0  0
  3 19  2  0  0  0  0
  4 22  2  0  0  0  0
  5 30  1  0  0  0  0
  5 33  2  0  0  0  0
  6 32  3  0  0  0  0
  7  8  1  0  0  0  0
  7  9  1  0  0  0  0
  7 11  1  0  0  0  0
  7 34  1  0  0  0  0
  8 13  1  0  0  0  0
  8 14  1  0  0  0  0
  8 35  1  0  0  0  0
  9 10  1  0  0  0  0
  9 36  1  0  0  0  0
  9 37  1  0  0  0  0
 10 12  1  0  0  0  0
 10 15  1  0  0  0  0
 10 38  1  0  0  0  0
 11 16  1  0  0  0  0
 11 17  1  0  0  0  0
 11 39  1  0  0  0  0
 12 13  2  0  0  0  0
 12 18  1  0  0  0  0
 13 40  1  0  0  0  0
 14 41  1  0  0  0  0
 14 42  1  0  0  0  0
 15 19  1  0  0  0  0
 15 43  1  0  0  0  0
 15 44  1  0  0  0  0
 16 45  1  0  0  0  0
 16 46  1  0  0  0  0
 16 47  1  0  0  0  0
 17 48  1  0  0  0  0
 17 49  1  0  0  0  0
 17 50  1  0  0  0  0
 18 51  1  0  0  0  0
 18 52  1  0  0  0  0
 18 53  1  0  0  0  0
 20 21  1  0  0  0  0
 20 55  1  0  0  0  0
 20 56  1  0  0  0  0
 21 23  2  0  0  0  0
 21 24  1  0  0  0  0
 22 25  1  0  0  0  0
 23 26  1  0  0  0  0
 23 57  1  0  0  0  0
 24 27  2  0  0  0  0
 24 58  1  0  0  0  0
 25 29  1  0  0  0  0
 25 30  2  0  0  0  0
 26 28  2  0  0  0  0
 26 59  1  0  0  0  0
 27 28  1  0  0  0  0
 27 60  1  0  0  0  0
 28 32  1  0  0  0  0
 29 31  2  0  0  0  0
 29 61  1  0  0  0  0
 30 62  1  0  0  0  0
 31 33  1  0  0  0  0
 31 63  1  0  0  0  0
 33 64  1  0  0  0  0
M  END
> <PUBCHEM_COMPOUND_CID>
38030471

> <PUBCHEM_CONFORMER_RMSD>
1

> <PUBCHEM_CONFORMER_DIVERSEORDER>
1
203
176
260
207
251
250
113
225
46
89
214
116
70
261
229
74
134
64
25
6
202
249
277
65
179
177
156
216
239
154
60
127
17
72
171
146
194
224
13
137
232
197
142
178
108
278
256
193
29
223
87
167
73
191
56
208
139
68
76
190
67
40
101
107
97
92
255
228
280
148
246
274
169
196
136
30
94
91
115
284
14
152
153
93
7
253
26
77
164
141
106
161
49
95
199
200
266
204
96
279
185
123
81
234
182
187
51
83
27
248
98
102
3
66
86
144
201
84
79
186
165
61
157
189
173
215
110
111
231
211
32
180
36
241
212
181
42
55
122
143
226
244
263
159
271
269
103
59
34
222
52
132
198
128
210
254
45
41
160
233
270
213
209
170
138
133
268
20
24
147
63
282
151
109
100
43
285
163
88
237
28
19
47
219
283
220
48
38
114
217
235
23
276
22
140
130
236
172
135
258
275
37
245
131
240
247
162
155
168
11
218
188
205
90
125
166
71
145
58
21
99
264
75
4
129
183
174
54
257
12
104
117
175
158
105
2
112
184
243
230
281
227
206
57
82
272
62
221
15
238
195
118
35
9
120
53
8
10
5
119
16
124
262
44
192
50
121
242
267
78
69
150
252
85
265
18
31
259
80
33
126
149
273
39

> <PUBCHEM_MMFF94_PARTIAL_CHARGES>
38
1 -0.28
10 0.14
12 -0.28
13 -0.29
14 0.27
15 0.18
18 0.14
19 0.3
2 -0.9
20 0.41
21 -0.14
22 0.43
23 -0.15
24 -0.15
25 0.05
26 -0.15
27 -0.15
28 0.07
29 -0.15
3 -0.34
30 0.16
31 -0.15
32 0.48
33 0.16
4 -0.34
40 0.15
5 -0.62
54 0.36
57 0.15
58 0.15
59 0.15
6 -0.56
60 0.15
61 0.15
62 0.15
63 0.15
64 0.15
8 0.14

> <PUBCHEM_EFFECTIVE_ROTOR_COUNT>
8.8

> <PUBCHEM_PHARMACOPHORE_FEATURES>
9
1 2 cation
1 2 donor
1 5 acceptor
1 6 acceptor
3 11 16 17 hydrophobe
5 1 3 4 19 22 rings
6 21 23 24 26 27 28 rings
6 5 25 29 30 31 33 rings
6 7 8 9 10 12 13 rings

> <PUBCHEM_HEAVY_ATOM_COUNT>
33

> <PUBCHEM_ATOM_DEF_STEREO_COUNT>
3

> <PUBCHEM_ATOM_UDEF_STEREO_COUNT>
0

> <PUBCHEM_BOND_DEF_STEREO_COUNT>
0

> <PUBCHEM_BOND_UDEF_STEREO_COUNT>
0

> <PUBCHEM_ISOTOPIC_ATOM_COUNT>
0

> <PUBCHEM_COMPONENT_COUNT>
1

> <PUBCHEM_CACTVS_TAUTO_COUNT>
1

> <PUBCHEM_CONFORMER_ID>
02444C8700000001

> <PUBCHEM_MMFF94_ENERGY>
65.6473

> <PUBCHEM_FEATURE_SELFOVERLAP>
45.671

> <PUBCHEM_SHAPE_FINGERPRINT>
10622 236 18409454682462529666
10842051 180 18262523727814851528
10928967 22 18191324697153987782
11285246 1 17604415323909928510
11552529 35 18126577730253868280
12977781 61 18123435449996058836
131258 38 17842842393453310524
13165053 137 16388722408774906299
14028597 1 14831018429716623205
14674994 50 18192149300335184701
14950920 106 17917149382545380520
16728300 4 18118709663615787657
18681886 176 15048396208119126457
19315092 285 17985550198034773789
20775530 9 18262820509331961296
21458453 9 13829852469379197727
21703447 108 17486215809954073417
3027735 51 17459196179041694144
3383291 50 17905602207618389157
345986 75 18129671918565911429
44062 13 17460326443036508264
484985 159 18194681454091266484
59025328 239 18189054364039397317
66674814 147 18190745434492646714

> <PUBCHEM_SHAPE_MULTIPOLES>
648.35
12.83
6.88
2.92
7.97
1.67
-0.15
23.51
-1.27
0.65
-0.09
-1.52
-2.28
-2.56

> <PUBCHEM_SHAPE_SELFOVERLAP>
1381.86

> <PUBCHEM_SHAPE_VOLUME>
357.1

> <PUBCHEM_COORDINATE_TYPE>
2
5
10

$$$$
