11879850
  -OEChem-12032416113D

 65 69  0     1  0  0  0  0  0999 V2000
   -1.9076    2.5961   -1.0717 S   0  0  0  0  0  0  0  0  0  0  0  0
    0.9812    3.7681   -0.9424 O   0  0  0  0  0  0  0  0  0  0  0  0
    3.4185   -0.5389   -2.4745 O   0  0  0  0  0  0  0  0  0  0  0  0
   -2.3613    3.7883   -1.7626 O   0  0  0  0  0  0  0  0  0  0  0  0
   -0.9749    1.6896   -1.7145 O   0  0  0  0  0  0  0  0  0  0  0  0
    1.1704   -6.1527    0.3685 O   0  0  0  0  0  0  0  0  0  0  0  0
    3.3211   -5.8363   -0.2957 O   0  0  0  0  0  0  0  0  0  0  0  0
   -5.9160   -2.7571    0.5549 O   0  0  0  0  0  0  0  0  0  0  0  0
    4.1263   -0.0615   -0.2960 N   0  0  0  0  0  0  0  0  0  0  0  0
    2.3735    2.4798    0.4327 N   0  0  0  0  0  0  0  0  0  0  0  0
   -1.3309    3.0118    0.4643 N   0  0  0  0  0  0  0  0  0  0  0  0
   -6.7239   -0.5497    0.3726 N   0  0  0  0  0  0  0  0  0  0  0  0
    4.8994    2.2768    0.0638 C   0  0  1  0  0  0  0  0  0  0  0  0
    3.8287    1.0444    1.9074 C   0  0  2  0  0  0  0  0  0  0  0  0
    4.9547    2.0192    1.5659 C   0  0  0  0  0  0  0  0  0  0  0  0
    5.0847    0.9612   -0.7141 C   0  0  0  0  0  0  0  0  0  0  0  0
    3.5692    2.9629   -0.2712 C   0  0  0  0  0  0  0  0  0  0  0  0
    4.0504   -0.2841    1.1571 C   0  0  0  0  0  0  0  0  0  0  0  0
    2.4753    1.6214    1.5361 C   0  0  0  0  0  0  0  0  0  0  0  0
    1.3792    1.2799    2.2380 C   0  0  0  0  0  0  0  0  0  0  0  0
    1.1335    3.0003    0.0068 C   0  0  0  0  0  0  0  0  0  0  0  0
    3.3596   -0.7206   -1.2596 C   0  0  0  0  0  0  0  0  0  0  0  0
   -0.0411    2.5683    0.8055 C   0  0  0  0  0  0  0  0  0  0  0  0
    0.0788    1.7655    1.8633 C   0  0  0  0  0  0  0  0  0  0  0  0
    2.3772   -1.7072   -0.7991 C   0  0  0  0  0  0  0  0  0  0  0  0
    2.7494   -3.0415   -0.6560 C   0  0  0  0  0  0  0  0  0  0  0  0
    1.0761   -1.3049   -0.5089 C   0  0  0  0  0  0  0  0  0  0  0  0
    1.8140   -3.9798   -0.2198 C   0  0  0  0  0  0  0  0  0  0  0  0
    0.1407   -2.2432   -0.0727 C   0  0  0  0  0  0  0  0  0  0  0  0
   -3.3436    1.6579   -0.6410 C   0  0  0  0  0  0  0  0  0  0  0  0
    0.5097   -3.5806    0.0718 C   0  0  0  0  0  0  0  0  0  0  0  0
   -3.2267    0.2919   -0.4536 C   0  0  0  0  0  0  0  0  0  0  0  0
   -4.5569    2.3080   -0.4997 C   0  0  0  0  0  0  0  0  0  0  0  0
    2.1985   -5.3739   -0.0670 C   0  0  0  0  0  0  0  0  0  0  0  0
   -4.3593   -0.4477   -0.1138 C   0  0  0  0  0  0  0  0  0  0  0  0
   -5.6897    1.5683   -0.1599 C   0  0  0  0  0  0  0  0  0  0  0  0
   -5.5909    0.1904    0.0332 C   0  0  0  0  0  0  0  0  0  0  0  0
   -6.8192   -1.9285    0.6038 C   0  0  0  0  0  0  0  0  0  0  0  0
   -8.2283   -2.3416    0.9479 C   0  0  0  0  0  0  0  0  0  0  0  0
    5.7165    2.9497   -0.2242 H   0  0  0  0  0  0  0  0  0  0  0  0
    3.8640    0.8443    2.9861 H   0  0  0  0  0  0  0  0  0  0  0  0
    5.9268    1.5952    1.8458 H   0  0  0  0  0  0  0  0  0  0  0  0
    4.8404    2.9573    2.1235 H   0  0  0  0  0  0  0  0  0  0  0  0
    6.0855    0.5541   -0.5247 H   0  0  0  0  0  0  0  0  0  0  0  0
    5.0107    1.1448   -1.7912 H   0  0  0  0  0  0  0  0  0  0  0  0
    3.3782    2.9257   -1.3511 H   0  0  0  0  0  0  0  0  0  0  0  0
    3.6503    4.0285   -0.0163 H   0  0  0  0  0  0  0  0  0  0  0  0
    3.2700   -1.0029    1.4182 H   0  0  0  0  0  0  0  0  0  0  0  0
    5.0059   -0.7308    1.4587 H   0  0  0  0  0  0  0  0  0  0  0  0
    1.4348    0.6055    3.0861 H   0  0  0  0  0  0  0  0  0  0  0  0
   -0.7700    1.4417    2.4561 H   0  0  0  0  0  0  0  0  0  0  0  0
   -2.0116    2.8846    1.2267 H   0  0  0  0  0  0  0  0  0  0  0  0
    3.7691   -3.3421   -0.8856 H   0  0  0  0  0  0  0  0  0  0  0  0
    0.7779   -0.2677   -0.6245 H   0  0  0  0  0  0  0  0  0  0  0  0
   -0.8733   -1.9361    0.1606 H   0  0  0  0  0  0  0  0  0  0  0  0
   -0.2499   -4.2771    0.4155 H   0  0  0  0  0  0  0  0  0  0  0  0
   -2.2760   -0.2171   -0.5630 H   0  0  0  0  0  0  0  0  0  0  0  0
   -4.6524    3.3804   -0.6382 H   0  0  0  0  0  0  0  0  0  0  0  0
   -4.2038   -1.5092    0.0195 H   0  0  0  0  0  0  0  0  0  0  0  0
   -6.6427    2.0790   -0.0471 H   0  0  0  0  0  0  0  0  0  0  0  0
    1.4401   -7.0906    0.4687 H   0  0  0  0  0  0  0  0  0  0  0  0
   -7.5836   -0.0119    0.4606 H   0  0  0  0  0  0  0  0  0  0  0  0
   -8.9049   -2.0671    0.1338 H   0  0  0  0  0  0  0  0  0  0  0  0
   -8.2718   -3.4243    1.0948 H   0  0  0  0  0  0  0  0  0  0  0  0
   -8.5442   -1.8446    1.8694 H   0  0  0  0  0  0  0  0  0  0  0  0
  1  4  2  0  0  0  0
  1  5  2  0  0  0  0
  1 11  1  0  0  0  0
  1 30  1  0  0  0  0
  2 21  2  0  0  0  0
  3 22  2  0  0  0  0
  6 34  1  0  0  0  0
  6 61  1  0  0  0  0
  7 34  2  0  0  0  0
  8 38  2  0  0  0  0
  9 16  1  0  0  0  0
  9 18  1  0  0  0  0
  9 22  1  0  0  0  0
 10 17  1  0  0  0  0
 10 19  1  0  0  0  0
 10 21  1  0  0  0  0
 11 23  1  0  0  0  0
 11 52  1  0  0  0  0
 12 37  1  0  0  0  0
 12 38  1  0  0  0  0
 12 62  1  0  0  0  0
 13 15  1  0  0  0  0
 13 16  1  0  0  0  0
 13 17  1  0  0  0  0
 13 40  1  0  0  0  0
 14 15  1  0  0  0  0
 14 18  1  0  0  0  0
 14 19  1  0  0  0  0
 14 41  1  0  0  0  0
 15 42  1  0  0  0  0
 15 43  1  0  0  0  0
 16 44  1  0  0  0  0
 16 45  1  0  0  0  0
 17 46  1  0  0  0  0
 17 47  1  0  0  0  0
 18 48  1  0  0  0  0
 18 49  1  0  0  0  0
 19 20  2  0  0  0  0
 20 24  1  0  0  0  0
 20 50  1  0  0  0  0
 21 23  1  0  0  0  0
 22 25  1  0  0  0  0
 23 24  2  0  0  0  0
 24 51  1  0  0  0  0
 25 26  2  0  0  0  0
 25 27  1  0  0  0  0
 26 28  1  0  0  0  0
 26 53  1  0  0  0  0
 27 29  2  0  0  0  0
 27 54  1  0  0  0  0
 28 31  2  0  0  0  0
 28 34  1  0  0  0  0
 29 31  1  0  0  0  0
 29 55  1  0  0  0  0
 30 32  2  0  0  0  0
 30 33  1  0  0  0  0
 31 56  1  0  0  0  0
 32 35  1  0  0  0  0
 32 57  1  0  0  0  0
 33 36  2  0  0  0  0
 33 58  1  0  0  0  0
 35 37  2  0  0  0  0
 35 59  1  0  0  0  0
 36 37  1  0  0  0  0
 36 60  1  0  0  0  0
 38 39  1  0  0  0  0
 39 63  1  0  0  0  0
 39 64  1  0  0  0  0
 39 65  1  0  0  0  0
M  END
> <PUBCHEM_COMPOUND_CID>
11879850

> <PUBCHEM_CONFORMER_RMSD>
1

> <PUBCHEM_CONFORMER_DIVERSEORDER>
1
138
116
22
108
84
37
104
92
131
28
134
91
102
98
66
129
59
38
69
29
80
25
120
8
53
21
61
2
88
95
105
26
111
122
72
77
35
119
10
97
12
99
112
58
106
125
115
100
43
130
33
11
117
15
123
54
87
89
75
128
96
132
63
31
73
36
121
79
55
82
85
90
124
6
4
65
52
114
74
137
76
136
110
109
32
94
42
9
47
20
81
133
70
67
40
71
103
56
118
24
68
83
46
45
126
86
135
49
101
50
23
64
113
60
14
78
17
39
27
7
62
127
19
107
5
93
44
57
18
34
51
3
41
16
48
13
30

> <PUBCHEM_MMFF94_PARTIAL_CHARGES>
50
1 1.45
10 -0.47
11 -0.75
12 -0.55
14 0.14
16 0.3
17 0.3
18 0.3
19 -0.03
2 -0.57
20 -0.15
21 0.62
22 0.54
23 0.21
24 -0.15
25 0.09
26 -0.15
27 -0.15
28 0.09
29 -0.15
3 -0.57
30 -0.01
31 -0.15
32 -0.15
33 -0.15
34 0.63
35 -0.15
36 -0.15
37 0.12
38 0.57
39 0.06
4 -0.65
5 -0.65
50 0.15
51 0.15
52 0.42
53 0.15
54 0.15
55 0.15
56 0.15
57 0.15
58 0.15
59 0.15
6 -0.65
60 0.15
61 0.5
62 0.37
7 -0.57
8 -0.57
9 -0.66

> <PUBCHEM_EFFECTIVE_ROTOR_COUNT>
9

> <PUBCHEM_PHARMACOPHORE_FEATURES>
15
1 11 donor
1 12 donor
1 2 acceptor
1 3 acceptor
1 4 acceptor
1 5 acceptor
1 6 acceptor
1 7 acceptor
1 8 acceptor
3 6 7 34 anion
6 10 13 14 15 17 19 rings
6 10 19 20 21 23 24 rings
6 25 26 27 28 29 31 rings
6 30 32 33 35 36 37 rings
6 9 13 14 15 16 18 rings

> <PUBCHEM_HEAVY_ATOM_COUNT>
39

> <PUBCHEM_ATOM_DEF_STEREO_COUNT>
2

> <PUBCHEM_ATOM_UDEF_STEREO_COUNT>
0

> <PUBCHEM_BOND_DEF_STEREO_COUNT>
0

> <PUBCHEM_BOND_UDEF_STEREO_COUNT>
0

> <PUBCHEM_ISOTOPIC_ATOM_COUNT>
0

> <PUBCHEM_COMPONENT_COUNT>
1

> <PUBCHEM_CACTVS_TAUTO_COUNT>
2

> <PUBCHEM_CONFORMER_ID>
00B545AA00000001

> <PUBCHEM_MMFF94_ENERGY>
107.8464

> <PUBCHEM_FEATURE_SELFOVERLAP>
77.785

> <PUBCHEM_SHAPE_FINGERPRINT>
10316853 100 18339086019989211127
10669705 251 18118974822392178827
11204353 107 18413106152347700815
11285246 1 17394744873206217563
11488393 25 18337674088002893834
11828532 37 17024600112798282259
13347071 3 17551236598515757423
13402501 40 18411698828739192073
1361 2 18338518654783016401
13751561 76 18114470045632539851
14028597 1 17703526466738757457
15968369 26 18192125149749442081
17909252 39 18197219148429864546
19301679 30 18336835294946147537
19319366 153 18271795826875510172
20764821 26 18266728259118697062
20775438 99 17614523022867623997
20775530 9 17768803174667268364
22956985 138 18265612087645413786
23559900 14 17905033760201754917
25222932 49 17749937947057272633
3737641 26 18271243829152191525
404807 78 18115039626413903362
4280585 95 17329133681882862050
4461854 278 18121509204634965611
484989 97 18340495486938692438
50080093 196 18054771035089226879
5265222 85 18266740366917055420
86090 222 18341337794048930259
9831232 110 18408888452113657303

> <PUBCHEM_SHAPE_MULTIPOLES>
745.44
14.55
7.2
1.59
30.91
11.68
0.17
3.12
2.78
-4.72
-0.62
-1.18
-0.94
2.94

> <PUBCHEM_SHAPE_SELFOVERLAP>
1620.866

> <PUBCHEM_SHAPE_VOLUME>
404.7

> <PUBCHEM_COORDINATE_TYPE>
2
5
10

$$$$
