26743596
  -OEChem-12032416333D

 52 56  0     1  0  0  0  0  0999 V2000
    6.7089    0.0121    0.8778 O   0  0  0  0  0  0  0  0  0  0  0  0
    1.9757   -1.1429   -2.0806 O   0  0  0  0  0  0  0  0  0  0  0  0
    3.3401    1.1307    0.4646 N   0  0  1  0  0  0  0  0  0  0  0  0
    1.3794   -1.0880    0.0776 N   0  0  0  0  0  0  0  0  0  0  0  0
    0.8173   -1.9233   -1.9768 N   0  0  0  0  0  0  0  0  0  0  0  0
   -3.4802    0.4447    0.2822 N   0  0  0  0  0  0  0  0  0  0  0  0
    3.4590    0.1918   -0.6694 C   0  0  1  0  0  0  0  0  0  0  0  0
    4.7408   -0.6121   -0.3822 C   0  0  0  0  0  0  0  0  0  0  0  0
    5.2953   -0.0224    0.9086 C   0  0  2  0  0  0  0  0  0  0  0  0
    4.6987    1.3717    0.9468 C   0  0  0  0  0  0  0  0  0  0  0  0
    2.6544    2.3683    0.1161 C   0  0  0  0  0  0  0  0  0  0  0  0
    2.2379   -0.6897   -0.8268 C   0  0  0  0  0  0  0  0  0  0  0  0
    1.1593    2.1924    0.0893 C   0  0  0  0  0  0  0  0  0  0  0  0
    0.4463    2.4607   -1.0792 C   0  0  0  0  0  0  0  0  0  0  0  0
    0.4872    1.7609    1.2330 C   0  0  0  0  0  0  0  0  0  0  0  0
    0.5267   -1.8421   -0.6749 C   0  0  0  0  0  0  0  0  0  0  0  0
   -0.9386    2.2976   -1.1040 C   0  0  0  0  0  0  0  0  0  0  0  0
   -0.8978    1.5979    1.2081 C   0  0  0  0  0  0  0  0  0  0  0  0
   -1.6108    1.8661    0.0396 C   0  0  0  0  0  0  0  0  0  0  0  0
   -0.6065   -2.5031   -0.0946 C   0  0  0  0  0  0  0  0  0  0  0  0
   -3.0478    1.6971    0.0139 C   0  0  0  0  0  0  0  0  0  0  0  0
   -0.8587   -2.3831    1.2719 C   0  0  0  0  0  0  0  0  0  0  0  0
   -1.4560   -3.2653   -0.8963 C   0  0  0  0  0  0  0  0  0  0  0  0
   -3.8864    2.7633   -0.2689 C   0  0  0  0  0  0  0  0  0  0  0  0
   -1.9605   -3.0255    1.8370 C   0  0  0  0  0  0  0  0  0  0  0  0
   -2.5579   -3.9075   -0.3315 C   0  0  0  0  0  0  0  0  0  0  0  0
   -2.8100   -3.7877    1.0351 C   0  0  0  0  0  0  0  0  0  0  0  0
   -5.2569    2.5289   -0.2766 C   0  0  0  0  0  0  0  0  0  0  0  0
   -4.8185    0.2549    0.2655 C   0  0  0  0  0  0  0  0  0  0  0  0
   -5.7401    1.2536   -0.0052 C   0  0  0  0  0  0  0  0  0  0  0  0
    3.6159    0.7379   -1.6102 H   0  0  0  0  0  0  0  0  0  0  0  0
    4.5616   -1.6868   -0.2622 H   0  0  0  0  0  0  0  0  0  0  0  0
    5.4561   -0.4926   -1.2056 H   0  0  0  0  0  0  0  0  0  0  0  0
    4.9683   -0.6096    1.7755 H   0  0  0  0  0  0  0  0  0  0  0  0
    4.7121    1.7818    1.9620 H   0  0  0  0  0  0  0  0  0  0  0  0
    5.2611    2.0554    0.2970 H   0  0  0  0  0  0  0  0  0  0  0  0
    3.0279    2.7886   -0.8269 H   0  0  0  0  0  0  0  0  0  0  0  0
    2.8557    3.1336    0.8790 H   0  0  0  0  0  0  0  0  0  0  0  0
    7.0213   -0.9033    0.7769 H   0  0  0  0  0  0  0  0  0  0  0  0
    0.9572    2.7943   -1.9783 H   0  0  0  0  0  0  0  0  0  0  0  0
    1.0283    1.5528    2.1524 H   0  0  0  0  0  0  0  0  0  0  0  0
   -1.4748    2.5060   -2.0269 H   0  0  0  0  0  0  0  0  0  0  0  0
   -1.4045    1.2636    2.1104 H   0  0  0  0  0  0  0  0  0  0  0  0
   -0.2160   -1.7959    1.9231 H   0  0  0  0  0  0  0  0  0  0  0  0
   -1.2918   -3.3812   -1.9646 H   0  0  0  0  0  0  0  0  0  0  0  0
   -3.5062    3.7586   -0.4755 H   0  0  0  0  0  0  0  0  0  0  0  0
   -2.1578   -2.9314    2.9009 H   0  0  0  0  0  0  0  0  0  0  0  0
   -3.2202   -4.5006   -0.9554 H   0  0  0  0  0  0  0  0  0  0  0  0
   -3.6684   -4.2871    1.4748 H   0  0  0  0  0  0  0  0  0  0  0  0
   -5.9474    3.3386   -0.4926 H   0  0  0  0  0  0  0  0  0  0  0  0
   -5.1434   -0.7572    0.4833 H   0  0  0  0  0  0  0  0  0  0  0  0
   -6.8043    1.0478   -0.0055 H   0  0  0  0  0  0  0  0  0  0  0  0
  1  9  1  0  0  0  0
  1 39  1  0  0  0  0
  2  5  1  0  0  0  0
  2 12  1  0  0  0  0
  3  7  1  0  0  0  0
  3 10  1  0  0  0  0
  3 11  1  0  0  0  0
  4 12  2  0  0  0  0
  4 16  1  0  0  0  0
  5 16  2  0  0  0  0
  6 21  1  0  0  0  0
  6 29  2  0  0  0  0
  7  8  1  0  0  0  0
  7 12  1  0  0  0  0
  7 31  1  0  0  0  0
  8  9  1  0  0  0  0
  8 32  1  0  0  0  0
  8 33  1  0  0  0  0
  9 10  1  0  0  0  0
  9 34  1  0  0  0  0
 10 35  1  0  0  0  0
 10 36  1  0  0  0  0
 11 13  1  0  0  0  0
 11 37  1  0  0  0  0
 11 38  1  0  0  0  0
 13 14  2  0  0  0  0
 13 15  1  0  0  0  0
 14 17  1  0  0  0  0
 14 40  1  0  0  0  0
 15 18  2  0  0  0  0
 15 41  1  0  0  0  0
 16 20  1  0  0  0  0
 17 19  2  0  0  0  0
 17 42  1  0  0  0  0
 18 19  1  0  0  0  0
 18 43  1  0  0  0  0
 19 21  1  0  0  0  0
 20 22  2  0  0  0  0
 20 23  1  0  0  0  0
 21 24  2  0  0  0  0
 22 25  1  0  0  0  0
 22 44  1  0  0  0  0
 23 26  2  0  0  0  0
 23 45  1  0  0  0  0
 24 28  1  0  0  0  0
 24 46  1  0  0  0  0
 25 27  2  0  0  0  0
 25 47  1  0  0  0  0
 26 27  1  0  0  0  0
 26 48  1  0  0  0  0
 27 49  1  0  0  0  0
 28 30  2  0  0  0  0
 28 50  1  0  0  0  0
 29 30  1  0  0  0  0
 29 51  1  0  0  0  0
 30 52  1  0  0  0  0
M  END
> <PUBCHEM_COMPOUND_CID>
26743596

> <PUBCHEM_CONFORMER_RMSD>
0.8

> <PUBCHEM_CONFORMER_DIVERSEORDER>
1
58
112
99
44
88
119
3
61
48
68
131
76
6
91
122
28
127
25
85
60
66
114
100
142
98
63
93
94
113
2
96
106
12
103
83
118
80
135
125
70
73
26
46
108
57
67
75
105
141
9
97
52
17
144
101
64
19
27
49
41
129
56
120
143
18
111
104
92
109
134
5
117
72
71
69
124
107
4
35
139
34
30
74
110
51
55
84
77
40
102
11
116
138
39
43
45
78
90
20
140
87
32
128
10
59
33
95
21
37
29
31
137
38
126
7
133
86
81
65
15
115
89
36
8
50
123
22
62
14
121
136
54
13
53
132
16
24
82
47
130
79
42
23

> <PUBCHEM_MMFF94_PARTIAL_CHARGES>
42
1 -0.68
10 0.27
11 0.41
12 0.3
13 -0.14
14 -0.15
15 -0.15
16 0.46
17 -0.15
18 -0.15
2 -0.02
20 0.05
21 0.31
22 -0.15
23 -0.15
24 -0.15
25 -0.15
26 -0.15
27 -0.15
28 -0.15
29 0.16
3 -0.81
30 -0.15
39 0.4
4 -0.57
40 0.15
41 0.15
42 0.15
43 0.15
44 0.15
45 0.15
46 0.15
47 0.15
48 0.15
49 0.15
5 -0.41
50 0.15
51 0.15
52 0.15
6 -0.62
7 0.45
9 0.28

> <PUBCHEM_EFFECTIVE_ROTOR_COUNT>
6

> <PUBCHEM_PHARMACOPHORE_FEATURES>
10
1 1 acceptor
1 1 donor
1 3 cation
1 6 acceptor
3 4 5 16 cation
5 2 4 5 12 16 rings
5 3 7 8 9 10 rings
6 13 14 15 17 18 19 rings
6 20 22 23 25 26 27 rings
6 6 21 24 28 29 30 rings

> <PUBCHEM_HEAVY_ATOM_COUNT>
30

> <PUBCHEM_ATOM_DEF_STEREO_COUNT>
2

> <PUBCHEM_ATOM_UDEF_STEREO_COUNT>
0

> <PUBCHEM_BOND_DEF_STEREO_COUNT>
0

> <PUBCHEM_BOND_UDEF_STEREO_COUNT>
0

> <PUBCHEM_ISOTOPIC_ATOM_COUNT>
0

> <PUBCHEM_COMPONENT_COUNT>
1

> <PUBCHEM_CACTVS_TAUTO_COUNT>
1

> <PUBCHEM_CONFORMER_ID>
0198132C00000001

> <PUBCHEM_MMFF94_ENERGY>
74.6875

> <PUBCHEM_FEATURE_SELFOVERLAP>
50.748

> <PUBCHEM_SHAPE_FINGERPRINT>
10316853 100 18336558161774859685
104564 63 17907305694726957341
10675989 125 17544470852356028137
10688039 33 17975134563087250963
108634 29 18341061760637729311
10864689 126 18123475977486214885
1100329 8 18410572915778817760
11112241 14 17202746202933164273
11370993 70 18411981334682432293
11578080 2 17344046714725485992
12035758 1 18338529602865469123
12156800 1 18120403052850106823
12422481 6 18125467407972200699
12788726 201 17829613112260497536
13140716 1 18339076120300798192
13402501 40 18341613693941877337
13692114 37 18129364034341829759
13726171 33 17904239071109462004
14725015 67 18265330793500441619
14787075 74 18060129921359940173
14866123 147 18336256920525742651
15664445 248 17550106957659692373
15968369 153 18057325205153057591
16728300 4 16955606565218754186
20567600 347 18115873984130025857
20764821 26 18120669173820250743
20905425 154 17980778343234508855
21133410 90 17058936770011935995
21197605 99 18271245040533507383
21304304 249 18335419045462447700
22182313 1 17916607409112168230
23559900 14 17401760831665514677
24893992 56 17970338425602937811
3052486 1 18187646963280142179
38695281 34 18336824174700928673
4340502 62 18272368637884601189
463206 1 18342457097540263637
508706 21 18339083791201994815
5171179 24 17628341981099338152
57527358 35 15505519133422500575
6669772 16 18267017272053526042

> <PUBCHEM_SHAPE_MULTIPOLES>
585.72
10.68
4.91
1.4
5.33
3.89
0.13
-4.89
-2.04
-5.66
-0.12
0.47
0.68
1.27

> <PUBCHEM_SHAPE_SELFOVERLAP>
1294.831

> <PUBCHEM_SHAPE_VOLUME>
314.7

> <PUBCHEM_COORDINATE_TYPE>
2
5
10

$$$$
