75536682
  -OEChem-12032416303D

 47 49  0     1  0  0  0  0  0999 V2000
    4.4923   -1.3772    0.0097 S   0  0  0  0  0  0  0  0  0  0  0  0
    0.1350   -1.2712    1.3773 O   0  0  0  0  0  0  0  0  0  0  0  0
   -0.6988   -1.1057   -2.1131 O   0  0  0  0  0  0  0  0  0  0  0  0
    4.5184   -1.8769   -1.3517 O   0  0  0  0  0  0  0  0  0  0  0  0
    5.3323   -1.9828    1.0252 O   0  0  0  0  0  0  0  0  0  0  0  0
   -3.0021   -0.2493   -0.1542 N   0  0  0  0  0  0  0  0  0  0  0  0
    2.8855   -1.3452    0.5676 N   0  0  0  0  0  0  0  0  0  0  0  0
   -1.8268   -1.0798    0.0519 C   0  0  1  0  0  0  0  0  0  0  0  0
   -0.6276   -0.6539   -0.7747 C   0  0  1  0  0  0  0  0  0  0  0  0
    0.5077   -1.3210   -0.0100 C   0  0  1  0  0  0  0  0  0  0  0  0
   -1.2707   -0.9785    1.4628 C   0  0  0  0  0  0  0  0  0  0  0  0
    1.8481   -0.6355   -0.2063 C   0  0  0  0  0  0  0  0  0  0  0  0
   -4.1968   -0.8863    0.3871 C   0  0  0  0  0  0  0  0  0  0  0  0
   -5.4222   -0.0325    0.1974 C   0  0  0  0  0  0  0  0  0  0  0  0
    4.8945    0.3436   -0.0338 C   0  0  0  0  0  0  0  0  0  0  0  0
   -5.7878    0.8908    1.1769 C   0  0  0  0  0  0  0  0  0  0  0  0
   -6.1920   -0.1650   -0.9581 C   0  0  0  0  0  0  0  0  0  0  0  0
    5.4475    0.9590    1.0891 C   0  0  0  0  0  0  0  0  0  0  0  0
    4.6552    1.0868   -1.1896 C   0  0  0  0  0  0  0  0  0  0  0  0
   -6.9234    1.6816    1.0010 C   0  0  0  0  0  0  0  0  0  0  0  0
   -7.3275    0.6257   -1.1342 C   0  0  0  0  0  0  0  0  0  0  0  0
   -7.6933    1.5491   -0.1546 C   0  0  0  0  0  0  0  0  0  0  0  0
    5.7614    2.3178    1.0564 C   0  0  0  0  0  0  0  0  0  0  0  0
    4.9689    2.4455   -1.2225 C   0  0  0  0  0  0  0  0  0  0  0  0
    5.5220    3.0611   -0.0995 C   0  0  0  0  0  0  0  0  0  0  0  0
   -2.0542   -2.1268   -0.1940 H   0  0  0  0  0  0  0  0  0  0  0  0
   -0.5163    0.4376   -0.7756 H   0  0  0  0  0  0  0  0  0  0  0  0
    0.5964   -2.3798   -0.2873 H   0  0  0  0  0  0  0  0  0  0  0  0
   -1.3651    0.0322    1.8764 H   0  0  0  0  0  0  0  0  0  0  0  0
   -1.7451   -1.6802    2.1556 H   0  0  0  0  0  0  0  0  0  0  0  0
    1.8049    0.3954    0.1624 H   0  0  0  0  0  0  0  0  0  0  0  0
    2.1011   -0.6253   -1.2707 H   0  0  0  0  0  0  0  0  0  0  0  0
   -3.1320   -0.0992   -1.1551 H   0  0  0  0  0  0  0  0  0  0  0  0
   -4.0770   -1.0889    1.4590 H   0  0  0  0  0  0  0  0  0  0  0  0
   -4.3662   -1.8604   -0.0906 H   0  0  0  0  0  0  0  0  0  0  0  0
   -0.7983   -2.0728   -2.1045 H   0  0  0  0  0  0  0  0  0  0  0  0
    2.7173   -1.4160    1.5789 H   0  0  0  0  0  0  0  0  0  0  0  0
   -5.1953    1.0048    2.0809 H   0  0  0  0  0  0  0  0  0  0  0  0
   -5.9167   -0.8795   -1.7295 H   0  0  0  0  0  0  0  0  0  0  0  0
    5.6349    0.4015    2.0024 H   0  0  0  0  0  0  0  0  0  0  0  0
    4.2226    0.6290   -2.0745 H   0  0  0  0  0  0  0  0  0  0  0  0
   -7.2079    2.4008    1.7635 H   0  0  0  0  0  0  0  0  0  0  0  0
   -7.9267    0.5230   -2.0342 H   0  0  0  0  0  0  0  0  0  0  0  0
   -8.5773    2.1649   -0.2918 H   0  0  0  0  0  0  0  0  0  0  0  0
    6.1902    2.7976    1.9312 H   0  0  0  0  0  0  0  0  0  0  0  0
    4.7818    3.0246   -2.1221 H   0  0  0  0  0  0  0  0  0  0  0  0
    5.7657    4.1191   -0.1250 H   0  0  0  0  0  0  0  0  0  0  0  0
  1  4  2  0  0  0  0
  1  5  2  0  0  0  0
  1  7  1  0  0  0  0
  1 15  1  0  0  0  0
  2 10  1  0  0  0  0
  2 11  1  0  0  0  0
  3  9  1  0  0  0  0
  3 36  1  0  0  0  0
  6  8  1  0  0  0  0
  6 13  1  0  0  0  0
  6 33  1  0  0  0  0
  7 12  1  0  0  0  0
  7 37  1  0  0  0  0
  8  9  1  0  0  0  0
  8 11  1  0  0  0  0
  8 26  1  0  0  0  0
  9 10  1  0  0  0  0
  9 27  1  0  0  0  0
 10 12  1  0  0  0  0
 10 28  1  0  0  0  0
 11 29  1  0  0  0  0
 11 30  1  0  0  0  0
 12 31  1  0  0  0  0
 12 32  1  0  0  0  0
 13 14  1  0  0  0  0
 13 34  1  0  0  0  0
 13 35  1  0  0  0  0
 14 16  2  0  0  0  0
 14 17  1  0  0  0  0
 15 18  2  0  0  0  0
 15 19  1  0  0  0  0
 16 20  1  0  0  0  0
 16 38  1  0  0  0  0
 17 21  2  0  0  0  0
 17 39  1  0  0  0  0
 18 23  1  0  0  0  0
 18 40  1  0  0  0  0
 19 24  2  0  0  0  0
 19 41  1  0  0  0  0
 20 22  2  0  0  0  0
 20 42  1  0  0  0  0
 21 22  1  0  0  0  0
 21 43  1  0  0  0  0
 22 44  1  0  0  0  0
 23 25  2  0  0  0  0
 23 45  1  0  0  0  0
 24 25  1  0  0  0  0
 24 46  1  0  0  0  0
 25 47  1  0  0  0  0
M  END
> <PUBCHEM_COMPOUND_CID>
75536682

> <PUBCHEM_CONFORMER_RMSD>
1

> <PUBCHEM_CONFORMER_DIVERSEORDER>
1
38
85
98
152
222
33
159
125
47
42
20
52
203
168
196
151
209
41
5
190
204
65
154
160
28
109
103
107
182
199
141
148
10
25
216
21
179
106
62
56
64
194
2
170
135
97
110
139
99
81
6
129
212
173
214
176
174
29
221
88
172
126
224
144
197
202
206
164
51
133
158
89
55
143
161
26
184
117
132
121
95
66
36
215
140
166
44
124
84
185
78
205
57
32
146
217
34
134
30
226
22
155
198
167
108
94
157
15
130
112
220
169
17
59
80
48
189
138
31
37
147
9
105
201
118
67
188
63
223
4
87
24
225
76
186
208
213
8
100
83
3
113
72
27
200
116
19
123
68
219
61
77
175
180
192
12
115
149
183
187
104
142
136
96
73
102
43
150
171
54
193
58
50
218
53
86
16
128
153
131
75
101
40
91
70
195
7
210
45
82
119
39
122
60
23
69
191
114
120
163
11
177
71
111
181
18
46
35
92
156
90
49
14
79
165
13
127
211
207
178
162
93
145
74
137

> <PUBCHEM_MMFF94_PARTIAL_CHARGES>
38
1 1.45
10 0.28
11 0.28
12 0.36
13 0.41
14 -0.14
15 -0.01
16 -0.15
17 -0.15
18 -0.15
19 -0.15
2 -0.56
20 -0.15
21 -0.15
22 -0.15
23 -0.15
24 -0.15
25 -0.15
3 -0.68
33 0.36
36 0.4
37 0.42
38 0.15
39 0.15
4 -0.65
40 0.15
41 0.15
42 0.15
43 0.15
44 0.15
45 0.15
46 0.15
47 0.15
5 -0.65
6 -0.9
7 -0.91
8 0.27
9 0.28

> <PUBCHEM_EFFECTIVE_ROTOR_COUNT>
8

> <PUBCHEM_PHARMACOPHORE_FEATURES>
11
1 2 acceptor
1 3 acceptor
1 3 donor
1 4 acceptor
1 5 acceptor
1 6 cation
1 6 donor
1 7 donor
5 2 8 9 10 11 rings
6 14 16 17 20 21 22 rings
6 15 18 19 23 24 25 rings

> <PUBCHEM_HEAVY_ATOM_COUNT>
25

> <PUBCHEM_ATOM_DEF_STEREO_COUNT>
3

> <PUBCHEM_ATOM_UDEF_STEREO_COUNT>
0

> <PUBCHEM_BOND_DEF_STEREO_COUNT>
0

> <PUBCHEM_BOND_UDEF_STEREO_COUNT>
0

> <PUBCHEM_ISOTOPIC_ATOM_COUNT>
0

> <PUBCHEM_COMPONENT_COUNT>
1

> <PUBCHEM_CACTVS_TAUTO_COUNT>
1

> <PUBCHEM_CONFORMER_ID>
0480992A00000001

> <PUBCHEM_MMFF94_ENERGY>
45.3766

> <PUBCHEM_FEATURE_SELFOVERLAP>
55.84

> <PUBCHEM_SHAPE_FINGERPRINT>
10 15 16443348689020641989
10319926 262 15285649811150396649
10554248 39 17988918921242076631
10638233 991 18411420583878600857
10906281 52 17774457009834509043
11408170 132 14189027609811556929
11991303 11 16415190217987776021
125118 31 18335139769857619717
13533116 47 17895755097945427802
13782708 43 9439409008229679641
13878862 14 18409157814744841420
14251757 52 18343017792018682529
14347332 77 10519720967866519547
15183329 4 17275107228063063465
15348495 7 16515978059280658177
155225 6 17898018082028519156
15716309 27 7853569124429504875
15840311 113 18334861589347152645
18335252 114 18202849859951606452
20157964 124 18412263930603188266
20281389 69 18260547797470178893
20397935 70 8646772188394612300
21130935 74 18040718065299957003
21150785 3 16200148824358504801
21298829 104 18339643451094903444
21344244 181 11527948971472971709
21521239 73 11887953242076956965
21641784 216 16415209940097712993
21792934 111 16153974769457981759
2215653 11 13470693667492276270
22224240 67 17313103047622057267
23081809 10 17418379060814055227
23559900 14 17167871876740307498
249057 25 17703517575423354970
2748736 6 18408600392187606569
2838139 119 18413386523496151665
328310 630 18272658939678170113
33382 64 9007062356985060910
33532 11 9295283942077657177
3472631 163 17845654871420392644
397830 11 17895488024025274075
44555599 121 18271249326795064849
465052 167 8070037666296487072
5104073 3 15503237711699286249
5718773 13 11239459068170776292
59682541 52 17417821616839519406
6328613 192 18342457050042272817
6898599 12 18057604463325685951

> <PUBCHEM_SHAPE_MULTIPOLES>
484.9
22.87
2.54
1.43
24.5
1.32
0.17
14.93
-0.07
-4.58
-0.07
-0.1
-0.03
-0.54

> <PUBCHEM_SHAPE_SELFOVERLAP>
1008.801

> <PUBCHEM_SHAPE_VOLUME>
275.6

> <PUBCHEM_COORDINATE_TYPE>
2
5
10

$$$$
