11882109
  -OEChem-12032416123D

 70 73  0     1  0  0  0  0  0999 V2000
    1.4531   -1.7221   -1.3361 O   0  0  0  0  0  0  0  0  0  0  0  0
    3.2423   -0.6394    1.5255 O   0  0  0  0  0  0  0  0  0  0  0  0
   -2.3027    2.7001   -1.1517 O   0  0  0  0  0  0  0  0  0  0  0  0
    1.0056   -3.9236    1.9527 O   0  0  0  0  0  0  0  0  0  0  0  0
    2.2894    0.5487   -0.2070 N   0  0  0  0  0  0  0  0  0  0  0  0
   -0.3342    2.2378   -0.0104 N   0  0  0  0  0  0  0  0  0  0  0  0
   -0.1318   -2.0059    0.3452 N   0  0  0  0  0  0  0  0  0  0  0  0
    5.7668   -0.0181   -0.0943 N   0  0  0  0  0  0  0  0  0  0  0  0
   -1.6078    4.0519    0.6015 N   0  0  0  0  0  0  0  0  0  0  0  0
   -4.4128   -2.2443   -1.7076 N   0  0  0  0  0  0  0  0  0  0  0  0
    0.8570   -5.4180    0.2146 N   0  0  0  0  0  0  0  0  0  0  0  0
    0.0414    1.0633   -0.7612 C   0  0  2  0  0  0  0  0  0  0  0  0
    0.9188    0.1300    0.0738 C   0  0  1  0  0  0  0  0  0  0  0  0
    0.9414    1.4314   -1.9433 C   0  0  0  0  0  0  0  0  0  0  0  0
    2.3351    1.4847   -1.3308 C   0  0  0  0  0  0  0  0  0  0  0  0
    0.7971   -1.2910   -0.3913 C   0  0  0  0  0  0  0  0  0  0  0  0
    3.3655    0.1574    0.5943 C   0  0  0  0  0  0  0  0  0  0  0  0
   -0.4523   -3.3903    0.0830 C   0  0  2  0  0  0  0  0  0  0  0  0
    4.6665    0.7201    0.2555 C   0  0  0  0  0  0  0  0  0  0  0  0
   -1.4898    2.9713   -0.2690 C   0  0  0  0  0  0  0  0  0  0  0  0
   -1.8854   -3.7440    0.5004 C   0  0  0  0  0  0  0  0  0  0  0  0
   -2.9247   -2.9214   -0.2063 C   0  0  0  0  0  0  0  0  0  0  0  0
    5.0236    2.0501    0.2256 C   0  0  0  0  0  0  0  0  0  0  0  0
    0.5505   -4.2357    0.8549 C   0  0  0  0  0  0  0  0  0  0  0  0
   -2.7146    4.9781    0.5533 C   0  0  0  0  0  0  0  0  0  0  0  0
   -3.4605   -1.6770    0.2285 C   0  0  0  0  0  0  0  0  0  0  0  0
    6.8208    0.8206   -0.3478 C   0  0  0  0  0  0  0  0  0  0  0  0
    6.3867    2.1136   -0.1559 C   0  0  0  0  0  0  0  0  0  0  0  0
   -3.5297   -3.2439   -1.3992 C   0  0  0  0  0  0  0  0  0  0  0  0
    5.8245   -1.4603   -0.1877 C   0  0  0  0  0  0  0  0  0  0  0  0
   -4.3918   -1.2740   -0.7311 C   0  0  0  0  0  0  0  0  0  0  0  0
   -2.4122    6.1146   -0.4146 C   0  0  0  0  0  0  0  0  0  0  0  0
   -3.0289    5.5084    1.9467 C   0  0  0  0  0  0  0  0  0  0  0  0
   -3.2421   -0.8521    1.3497 C   0  0  0  0  0  0  0  0  0  0  0  0
   -5.1182   -0.0827   -0.6250 C   0  0  0  0  0  0  0  0  0  0  0  0
   -3.9616    0.3425    1.4691 C   0  0  0  0  0  0  0  0  0  0  0  0
   -4.8848    0.7192    0.4957 C   0  0  0  0  0  0  0  0  0  0  0  0
   -0.8746    0.5746   -1.1127 H   0  0  0  0  0  0  0  0  0  0  0  0
    0.7315    0.1991    1.1517 H   0  0  0  0  0  0  0  0  0  0  0  0
    0.9047    0.6355   -2.6970 H   0  0  0  0  0  0  0  0  0  0  0  0
    0.6702    2.3710   -2.4346 H   0  0  0  0  0  0  0  0  0  0  0  0
    3.1200    1.2067   -2.0399 H   0  0  0  0  0  0  0  0  0  0  0  0
    2.5355    2.4861   -0.9377 H   0  0  0  0  0  0  0  0  0  0  0  0
    0.3061    2.5852    0.6973 H   0  0  0  0  0  0  0  0  0  0  0  0
   -0.5404   -1.5735    1.1675 H   0  0  0  0  0  0  0  0  0  0  0  0
   -0.3215   -3.5679   -0.9921 H   0  0  0  0  0  0  0  0  0  0  0  0
   -2.0733   -4.8079    0.3035 H   0  0  0  0  0  0  0  0  0  0  0  0
   -2.0031   -3.6190    1.5852 H   0  0  0  0  0  0  0  0  0  0  0  0
   -0.8477    4.2356    1.2495 H   0  0  0  0  0  0  0  0  0  0  0  0
    4.3862    2.8897    0.4665 H   0  0  0  0  0  0  0  0  0  0  0  0
   -3.5950    4.4380    0.1843 H   0  0  0  0  0  0  0  0  0  0  0  0
    7.7887    0.4358   -0.6399 H   0  0  0  0  0  0  0  0  0  0  0  0
    6.9881    3.0039   -0.2742 H   0  0  0  0  0  0  0  0  0  0  0  0
   -3.4113   -4.0935   -2.0573 H   0  0  0  0  0  0  0  0  0  0  0  0
    6.7684   -1.7589   -0.6511 H   0  0  0  0  0  0  0  0  0  0  0  0
    4.9899   -1.8050   -0.8036 H   0  0  0  0  0  0  0  0  0  0  0  0
    5.7581   -1.8722    0.8223 H   0  0  0  0  0  0  0  0  0  0  0  0
   -4.9960   -2.2210   -2.5327 H   0  0  0  0  0  0  0  0  0  0  0  0
   -3.2539    6.8123   -0.4744 H   0  0  0  0  0  0  0  0  0  0  0  0
   -2.2201    5.7310   -1.4225 H   0  0  0  0  0  0  0  0  0  0  0  0
   -1.5246    6.6763   -0.1022 H   0  0  0  0  0  0  0  0  0  0  0  0
   -2.1764    6.0535    2.3672 H   0  0  0  0  0  0  0  0  0  0  0  0
   -3.2632    4.6852    2.6306 H   0  0  0  0  0  0  0  0  0  0  0  0
   -3.8892    6.1853    1.9236 H   0  0  0  0  0  0  0  0  0  0  0  0
    0.4554   -5.6728   -0.6821 H   0  0  0  0  0  0  0  0  0  0  0  0
    1.5036   -6.0815    0.6283 H   0  0  0  0  0  0  0  0  0  0  0  0
   -2.5346   -1.1313    2.1248 H   0  0  0  0  0  0  0  0  0  0  0  0
   -5.8364    0.2120   -1.3827 H   0  0  0  0  0  0  0  0  0  0  0  0
   -3.7971    0.9830    2.3316 H   0  0  0  0  0  0  0  0  0  0  0  0
   -5.4311    1.6524    0.6078 H   0  0  0  0  0  0  0  0  0  0  0  0
  1 16  2  0  0  0  0
  2 17  2  0  0  0  0
  3 20  2  0  0  0  0
  4 24  2  0  0  0  0
  5 13  1  0  0  0  0
  5 15  1  0  0  0  0
  5 17  1  0  0  0  0
  6 12  1  0  0  0  0
  6 20  1  0  0  0  0
  6 44  1  0  0  0  0
  7 16  1  0  0  0  0
  7 18  1  0  0  0  0
  7 45  1  0  0  0  0
  8 19  1  0  0  0  0
  8 27  1  0  0  0  0
  8 30  1  0  0  0  0
  9 20  1  0  0  0  0
  9 25  1  0  0  0  0
  9 49  1  0  0  0  0
 10 29  1  0  0  0  0
 10 31  1  0  0  0  0
 10 58  1  0  0  0  0
 11 24  1  0  0  0  0
 11 65  1  0  0  0  0
 11 66  1  0  0  0  0
 12 13  1  0  0  0  0
 12 14  1  0  0  0  0
 12 38  1  0  0  0  0
 13 16  1  0  0  0  0
 13 39  1  0  0  0  0
 14 15  1  0  0  0  0
 14 40  1  0  0  0  0
 14 41  1  0  0  0  0
 15 42  1  0  0  0  0
 15 43  1  0  0  0  0
 17 19  1  0  0  0  0
 18 21  1  0  0  0  0
 18 24  1  0  0  0  0
 18 46  1  0  0  0  0
 19 23  2  0  0  0  0
 21 22  1  0  0  0  0
 21 47  1  0  0  0  0
 21 48  1  0  0  0  0
 22 26  1  0  0  0  0
 22 29  2  0  0  0  0
 23 28  1  0  0  0  0
 23 50  1  0  0  0  0
 25 32  1  0  0  0  0
 25 33  1  0  0  0  0
 25 51  1  0  0  0  0
 26 31  1  0  0  0  0
 26 34  2  0  0  0  0
 27 28  2  0  0  0  0
 27 52  1  0  0  0  0
 28 53  1  0  0  0  0
 29 54  1  0  0  0  0
 30 55  1  0  0  0  0
 30 56  1  0  0  0  0
 30 57  1  0  0  0  0
 31 35  2  0  0  0  0
 32 59  1  0  0  0  0
 32 60  1  0  0  0  0
 32 61  1  0  0  0  0
 33 62  1  0  0  0  0
 33 63  1  0  0  0  0
 33 64  1  0  0  0  0
 34 36  1  0  0  0  0
 34 67  1  0  0  0  0
 35 37  1  0  0  0  0
 35 68  1  0  0  0  0
 36 37  2  0  0  0  0
 36 69  1  0  0  0  0
 37 70  1  0  0  0  0
M  END
> <PUBCHEM_COMPOUND_CID>
11882109

> <PUBCHEM_CONFORMER_RMSD>
1.2

> <PUBCHEM_CONFORMER_DIVERSEORDER>
1
112
61
96
71
12
99
98
48
113
69
85
23
114
25
77
104
107
57
58
94
95
109
100
86
46
56
66
54
59
73
32
74
55
102
90
20
43
62
110
101
76
106
81
53
34
29
35
88
108
36
37
89
41
47
78
52
51
39
67
97
18
79
45
28
5
19
68
63
31
65
83
38
49
111
91
115
60
15
93
11
21
103
84
14
80
22
70
105
42
75
27
72
7
10
64
24
82
26
30
116
17
92
6
87
33
13
16
3
40
50
4
44
9
8
2

> <PUBCHEM_MMFF94_PARTIAL_CHARGES>
47
1 -0.57
10 0.03
11 -0.8
12 0.3
13 0.36
15 0.3
16 0.57
17 0.71
18 0.36
19 -0.24
2 -0.57
20 0.69
21 0.18
22 -0.18
23 -0.15
24 0.57
25 0.3
27 -0.3
28 -0.15
29 -0.3
3 -0.57
30 0.26
31 -0.15
34 -0.15
35 -0.15
36 -0.15
37 -0.15
4 -0.57
44 0.37
45 0.37
49 0.37
5 -0.66
50 0.15
52 0.15
53 0.15
54 0.15
58 0.27
6 -0.73
65 0.37
66 0.37
67 0.15
68 0.15
69 0.15
7 -0.73
70 0.15
8 0.05
9 -0.73

> <PUBCHEM_EFFECTIVE_ROTOR_COUNT>
13

> <PUBCHEM_PHARMACOPHORE_FEATURES>
16
1 1 acceptor
1 10 cation
1 10 donor
1 11 donor
1 2 acceptor
1 3 acceptor
1 4 acceptor
1 6 donor
1 7 donor
1 8 cation
1 9 donor
3 25 32 33 hydrophobe
5 10 22 26 29 31 rings
5 5 12 13 14 15 rings
5 8 19 23 27 28 rings
6 26 31 34 35 36 37 rings

> <PUBCHEM_HEAVY_ATOM_COUNT>
37

> <PUBCHEM_ATOM_DEF_STEREO_COUNT>
3

> <PUBCHEM_ATOM_UDEF_STEREO_COUNT>
0

> <PUBCHEM_BOND_DEF_STEREO_COUNT>
0

> <PUBCHEM_BOND_UDEF_STEREO_COUNT>
0

> <PUBCHEM_ISOTOPIC_ATOM_COUNT>
0

> <PUBCHEM_COMPONENT_COUNT>
1

> <PUBCHEM_CACTVS_TAUTO_COUNT>
12

> <PUBCHEM_CONFORMER_ID>
00B54E7D00000001

> <PUBCHEM_MMFF94_ENERGY>
69.6489

> <PUBCHEM_FEATURE_SELFOVERLAP>
81.341

> <PUBCHEM_SHAPE_FINGERPRINT>
10032420 55 17917427601166994784
10816530 23 18050290267138580857
11513181 2 18055348042428136959
12104220 1 18339919424355378908
12788726 201 18335690698418755746
13140716 1 18336836393724266379
14394314 77 18410858781051011569
14790565 3 18334293206096798638
15361156 5 18269288988226415702
15420108 30 17976535018794028904
15927050 60 18123751946446889486
19311894 1 18338803445390752435
21796203 349 17829929699201651545
23559900 14 17547001287856127643
283562 15 18410288120723698637
3388396 114 18269537391833673149
50677037 204 18124597736950229984
5171179 24 18054521200993920470
57527573 199 18337965548989868847
6328613 192 18118123804375380716
653340 110 18339926996087335393
7226269 152 18337391646800803270

> <PUBCHEM_SHAPE_MULTIPOLES>
703.1
12.44
7.99
1.43
17.9
6.3
0.04
2.6
-0.46
-8.73
2.16
-0.88
0.07
-2.01

> <PUBCHEM_SHAPE_SELFOVERLAP>
1504.887

> <PUBCHEM_SHAPE_VOLUME>
390.8

> <PUBCHEM_COORDINATE_TYPE>
2
5
10

$$$$
