51137894
  -OEChem-12032416243D

 46 49  0     1  0  0  0  0  0999 V2000
   -7.1494    0.6962    1.4823 F   0  0  0  0  0  0  0  0  0  0  0  0
   -7.4041   -1.2271    0.5005 F   0  0  0  0  0  0  0  0  0  0  0  0
   -7.7486    0.6160   -0.6006 F   0  0  0  0  0  0  0  0  0  0  0  0
   -0.4674   -0.2248   -0.1566 N   0  0  1  0  0  0  0  0  0  0  0  0
    4.0970   -1.1419    0.2578 N   0  0  0  0  0  0  0  0  0  0  0  0
    3.6601    1.0365    0.3207 N   0  0  0  0  0  0  0  0  0  0  0  0
    1.6999   -0.4979    0.6966 C   0  0  1  0  0  0  0  0  0  0  0  0
    0.9457    0.5504    1.5331 C   0  0  0  0  0  0  0  0  0  0  0  0
    0.8690   -0.6428   -0.5855 C   0  0  0  0  0  0  0  0  0  0  0  0
   -0.2439    0.9586    0.6738 C   0  0  0  0  0  0  0  0  0  0  0  0
    3.1500   -0.1701    0.4251 C   0  0  0  0  0  0  0  0  0  0  0  0
   -1.3519    0.0457   -1.2803 C   0  0  0  0  0  0  0  0  0  0  0  0
    5.2982   -0.5210    0.0301 C   0  0  0  0  0  0  0  0  0  0  0  0
   -2.7998    0.0428   -0.8675 C   0  0  0  0  0  0  0  0  0  0  0  0
    4.9992    0.8380    0.0742 C   0  0  0  0  0  0  0  0  0  0  0  0
    3.8760   -2.5695    0.3108 C   0  0  0  0  0  0  0  0  0  0  0  0
    6.5814   -1.0163   -0.2035 C   0  0  0  0  0  0  0  0  0  0  0  0
   -3.4560   -1.1660   -0.6352 C   0  0  0  0  0  0  0  0  0  0  0  0
   -3.4848    1.2485   -0.7165 C   0  0  0  0  0  0  0  0  0  0  0  0
    6.0295    1.7727   -0.1242 C   0  0  0  0  0  0  0  0  0  0  0  0
    7.5948   -0.0720   -0.3991 C   0  0  0  0  0  0  0  0  0  0  0  0
    7.3258    1.2981   -0.3605 C   0  0  0  0  0  0  0  0  0  0  0  0
   -4.7971   -1.1692   -0.2521 C   0  0  0  0  0  0  0  0  0  0  0  0
   -4.8260    1.2454   -0.3334 C   0  0  0  0  0  0  0  0  0  0  0  0
   -5.4822    0.0366   -0.1013 C   0  0  0  0  0  0  0  0  0  0  0  0
   -6.9153    0.0332    0.3113 C   0  0  0  0  0  0  0  0  0  0  0  0
    1.6474   -1.4390    1.2611 H   0  0  0  0  0  0  0  0  0  0  0  0
    1.5504    1.4190    1.8127 H   0  0  0  0  0  0  0  0  0  0  0  0
    0.5922    0.0855    2.4623 H   0  0  0  0  0  0  0  0  0  0  0  0
    1.2567    0.0056   -1.3829 H   0  0  0  0  0  0  0  0  0  0  0  0
    0.8716   -1.6755   -0.9501 H   0  0  0  0  0  0  0  0  0  0  0  0
   -1.1097    1.2071    1.2955 H   0  0  0  0  0  0  0  0  0  0  0  0
    0.0213    1.8378    0.0725 H   0  0  0  0  0  0  0  0  0  0  0  0
   -1.0920    0.9803   -1.7957 H   0  0  0  0  0  0  0  0  0  0  0  0
   -1.2388   -0.7406   -2.0403 H   0  0  0  0  0  0  0  0  0  0  0  0
    4.7558   -3.1043   -0.0512 H   0  0  0  0  0  0  0  0  0  0  0  0
    3.0254   -2.8198   -0.3277 H   0  0  0  0  0  0  0  0  0  0  0  0
    3.6763   -2.8462    1.3490 H   0  0  0  0  0  0  0  0  0  0  0  0
    6.7995   -2.0775   -0.2330 H   0  0  0  0  0  0  0  0  0  0  0  0
   -2.9329   -2.1118   -0.7492 H   0  0  0  0  0  0  0  0  0  0  0  0
   -2.9848    2.1972   -0.8925 H   0  0  0  0  0  0  0  0  0  0  0  0
    5.8307    2.8393   -0.0961 H   0  0  0  0  0  0  0  0  0  0  0  0
    8.6109   -0.4118   -0.5841 H   0  0  0  0  0  0  0  0  0  0  0  0
    8.1343    2.0079   -0.5161 H   0  0  0  0  0  0  0  0  0  0  0  0
   -5.2896   -2.1214   -0.0756 H   0  0  0  0  0  0  0  0  0  0  0  0
   -5.3512    2.1897   -0.2175 H   0  0  0  0  0  0  0  0  0  0  0  0
  1 26  1  0  0  0  0
  2 26  1  0  0  0  0
  3 26  1  0  0  0  0
  4  9  1  0  0  0  0
  4 10  1  0  0  0  0
  4 12  1  0  0  0  0
  5 11  1  0  0  0  0
  5 13  1  0  0  0  0
  5 16  1  0  0  0  0
  6 11  2  0  0  0  0
  6 15  1  0  0  0  0
  7  8  1  0  0  0  0
  7  9  1  0  0  0  0
  7 11  1  0  0  0  0
  7 27  1  0  0  0  0
  8 10  1  0  0  0  0
  8 28  1  0  0  0  0
  8 29  1  0  0  0  0
  9 30  1  0  0  0  0
  9 31  1  0  0  0  0
 10 32  1  0  0  0  0
 10 33  1  0  0  0  0
 12 14  1  0  0  0  0
 12 34  1  0  0  0  0
 12 35  1  0  0  0  0
 13 15  1  0  0  0  0
 13 17  2  0  0  0  0
 14 18  2  0  0  0  0
 14 19  1  0  0  0  0
 15 20  2  0  0  0  0
 16 36  1  0  0  0  0
 16 37  1  0  0  0  0
 16 38  1  0  0  0  0
 17 21  1  0  0  0  0
 17 39  1  0  0  0  0
 18 23  1  0  0  0  0
 18 40  1  0  0  0  0
 19 24  2  0  0  0  0
 19 41  1  0  0  0  0
 20 22  1  0  0  0  0
 20 42  1  0  0  0  0
 21 22  2  0  0  0  0
 21 43  1  0  0  0  0
 22 44  1  0  0  0  0
 23 25  2  0  0  0  0
 23 45  1  0  0  0  0
 24 25  1  0  0  0  0
 24 46  1  0  0  0  0
 25 26  1  0  0  0  0
M  END
> <PUBCHEM_COMPOUND_CID>
51137894

> <PUBCHEM_CONFORMER_RMSD>
0.8

> <PUBCHEM_CONFORMER_DIVERSEORDER>
1
40
39
19
8
30
28
27
41
22
13
11
37
34
15
10
36
14
35
38
26
7
23
31
20
16
32
17
9
24
3
29
6
21
5
33
2
25
12
4
18

> <PUBCHEM_MMFF94_PARTIAL_CHARGES>
33
1 -0.34
10 0.27
11 0.01
12 0.41
13 -0.15
14 -0.14
15 0.23
16 0.26
17 -0.15
18 -0.15
19 -0.15
2 -0.34
20 -0.15
21 -0.15
22 -0.15
23 -0.15
24 -0.15
25 -0.14
26 1.16
3 -0.34
39 0.15
4 -0.81
40 0.15
41 0.15
42 0.15
43 0.15
44 0.15
45 0.15
46 0.15
5 0.05
6 -0.57
7 0.18
9 0.27

> <PUBCHEM_EFFECTIVE_ROTOR_COUNT>
5

> <PUBCHEM_PHARMACOPHORE_FEATURES>
6
1 4 cation
3 5 6 11 cation
5 4 7 8 9 10 rings
5 5 6 11 13 15 rings
6 13 15 17 20 21 22 rings
6 14 18 19 23 24 25 rings

> <PUBCHEM_HEAVY_ATOM_COUNT>
26

> <PUBCHEM_ATOM_DEF_STEREO_COUNT>
1

> <PUBCHEM_ATOM_UDEF_STEREO_COUNT>
0

> <PUBCHEM_BOND_DEF_STEREO_COUNT>
0

> <PUBCHEM_BOND_UDEF_STEREO_COUNT>
0

> <PUBCHEM_ISOTOPIC_ATOM_COUNT>
0

> <PUBCHEM_COMPONENT_COUNT>
1

> <PUBCHEM_CACTVS_TAUTO_COUNT>
1

> <PUBCHEM_CONFORMER_ID>
030C4D6600000001

> <PUBCHEM_MMFF94_ENERGY>
52.0958

> <PUBCHEM_FEATURE_SELFOVERLAP>
30.556

> <PUBCHEM_SHAPE_FINGERPRINT>
10 15 18040714766700944321
10299344 5 18344145899417252927
10595046 47 18408882910930787480
106641 1 18040720290535263321
10670039 82 13110972994375365723
11315181 36 18407761435536741417
11524674 6 16415477181848431111
11638347 137 15430027748324933480
11646440 116 16660365879090670636
11796584 16 13901899038615579996
12236239 1 18272368672792355132
12516196 113 16950281801966606581
12592606 108 17346875672001742647
12730499 353 18113335293924219090
12788726 201 17489590013676340490
13073987 5 16805875200254143584
13914758 101 10952057749181190495
14123256 10 15936408939912348637
14251764 18 17989486325229284535
14251764 46 18410573980856483853
14341114 176 18409166601962975469
14849402 71 18042412489853912140
14856354 85 17775004613769347165
14933364 13 18409448085318682548
15183329 4 17489588961008263513
15461852 350 12973611035900671369
15510794 2 17748827402476002051
15537594 2 17561074805032250886
17844677 252 18335985272465665188
18335252 98 18260833704589622603
19489759 90 10303815397459255783
20157964 124 18334576850569816972
21095086 128 18409165519673609599
21150785 3 17385445423159821222
21267235 1 18272371941457633182
21521721 280 18333733537313639114
21792961 116 18059573538500814996
220451 1 18060131046446141223
22224240 67 15574713607982644176
23035841 295 18342173366935296739
23424782 7 18113340829298267610
23516275 137 18199770071152021043
23522609 53 17987817300928315457
23536379 177 18410008828117674140
23569943 247 16590823821485769098
255183 451 17701551598096104222
2747138 104 17022628580242235141
3004659 81 18343017775534878986
335352 9 16988840600884415933
34797466 226 17458349641504740470
3545911 37 18334293171768435948
4073 2 18114184176413550866
4098825 35 18409448046637460288
4325135 7 18187364337283805780
4339292 15 13542165231562537733
4340502 62 17967248698500509378
5283156 175 17703792497313705662
5385378 56 15554461664882747311
5758199 1 16950281797592582785
59682541 35 16009035015932715292
59755656 215 13758081783124399620

> <PUBCHEM_SHAPE_MULTIPOLES>
498.3
23.74
1.61
1
10.38
0.4
0.13
-2.28
-0.21
-1.51
0.02
0.64
-0.1
-0.2

> <PUBCHEM_SHAPE_SELFOVERLAP>
1091.895

> <PUBCHEM_SHAPE_VOLUME>
275.2

> <PUBCHEM_COORDINATE_TYPE>
2
5
10

$$$$
