75537119
  -OEChem-12032416333D

 54 57  0     1  0  0  0  0  0999 V2000
    3.6217    2.5335   -0.3255 O   0  0  0  0  0  0  0  0  0  0  0  0
   -6.3987   -2.0156   -0.8270 O   0  0  0  0  0  0  0  0  0  0  0  0
    3.0253    0.2541   -0.2137 N   0  0  0  0  0  0  0  0  0  0  0  0
    1.3938    1.7895   -0.3713 N   0  0  0  0  0  0  0  0  0  0  0  0
   -1.3522    1.6872    0.2285 N   0  0  2  0  0  0  0  0  0  0  0  0
    0.7049    0.5183   -0.4494 C   0  0  1  0  0  0  0  0  0  0  0  0
    4.3184   -0.3707   -0.0740 C   0  0  0  0  0  0  0  0  0  0  0  0
    1.7893   -0.5030   -0.1120 C   0  0  0  0  0  0  0  0  0  0  0  0
   -0.5013    0.5084    0.4891 C   0  0  0  0  0  0  0  0  0  0  0  0
    4.6082   -1.2780   -1.2720 C   0  0  0  0  0  0  0  0  0  0  0  0
    4.4073   -1.1436    1.2446 C   0  0  0  0  0  0  0  0  0  0  0  0
    2.7857    1.6397   -0.3101 C   0  0  0  0  0  0  0  0  0  0  0  0
    0.6303    3.0164   -0.4653 C   0  0  0  0  0  0  0  0  0  0  0  0
   -0.5985    2.9389    0.4443 C   0  0  0  0  0  0  0  0  0  0  0  0
    5.9486   -1.9934   -1.1249 C   0  0  0  0  0  0  0  0  0  0  0  0
    5.7487   -1.8577    1.3882 C   0  0  0  0  0  0  0  0  0  0  0  0
    6.0364   -2.7600    0.1917 C   0  0  0  0  0  0  0  0  0  0  0  0
   -2.5410    1.6552    1.0801 C   0  0  0  0  0  0  0  0  0  0  0  0
   -3.5683    0.6786    0.5724 C   0  0  0  0  0  0  0  0  0  0  0  0
   -4.3597    1.0071   -0.5283 C   0  0  0  0  0  0  0  0  0  0  0  0
   -3.7281   -0.5554    1.2029 C   0  0  0  0  0  0  0  0  0  0  0  0
   -5.3110    0.1019   -0.9983 C   0  0  0  0  0  0  0  0  0  0  0  0
   -4.6794   -1.4607    0.7329 C   0  0  0  0  0  0  0  0  0  0  0  0
   -5.4710   -1.1320   -0.3677 C   0  0  0  0  0  0  0  0  0  0  0  0
   -6.5093   -3.2588   -0.1352 C   0  0  0  0  0  0  0  0  0  0  0  0
    0.3817    0.3932   -1.4913 H   0  0  0  0  0  0  0  0  0  0  0  0
    5.0740    0.4254   -0.0587 H   0  0  0  0  0  0  0  0  0  0  0  0
    1.6824   -0.8766    0.9109 H   0  0  0  0  0  0  0  0  0  0  0  0
    1.7795   -1.3421   -0.8121 H   0  0  0  0  0  0  0  0  0  0  0  0
   -1.0483   -0.4243    0.3149 H   0  0  0  0  0  0  0  0  0  0  0  0
   -0.1693    0.5066    1.5363 H   0  0  0  0  0  0  0  0  0  0  0  0
    3.8232   -2.0353   -1.3856 H   0  0  0  0  0  0  0  0  0  0  0  0
    4.6063   -0.6892   -2.1975 H   0  0  0  0  0  0  0  0  0  0  0  0
    3.6158   -1.9002    1.3085 H   0  0  0  0  0  0  0  0  0  0  0  0
    4.2594   -0.4627    2.0917 H   0  0  0  0  0  0  0  0  0  0  0  0
    0.3279    3.1318   -1.5125 H   0  0  0  0  0  0  0  0  0  0  0  0
    1.2672    3.8662   -0.2005 H   0  0  0  0  0  0  0  0  0  0  0  0
   -0.2805    3.0107    1.4931 H   0  0  0  0  0  0  0  0  0  0  0  0
   -1.2348    3.8065    0.2328 H   0  0  0  0  0  0  0  0  0  0  0  0
    6.7612   -1.2580   -1.1736 H   0  0  0  0  0  0  0  0  0  0  0  0
    6.0926   -2.6836   -1.9638 H   0  0  0  0  0  0  0  0  0  0  0  0
    5.7534   -2.4528    2.3084 H   0  0  0  0  0  0  0  0  0  0  0  0
    6.5489   -1.1137    1.4851 H   0  0  0  0  0  0  0  0  0  0  0  0
    7.0335   -3.2026    0.2949 H   0  0  0  0  0  0  0  0  0  0  0  0
    5.3182   -3.5891    0.1793 H   0  0  0  0  0  0  0  0  0  0  0  0
   -3.0282    2.6406    1.0917 H   0  0  0  0  0  0  0  0  0  0  0  0
   -2.2858    1.4499    2.1288 H   0  0  0  0  0  0  0  0  0  0  0  0
   -4.2443    1.9653   -1.0282 H   0  0  0  0  0  0  0  0  0  0  0  0
   -3.1174   -0.8233    2.0612 H   0  0  0  0  0  0  0  0  0  0  0  0
   -5.9245    0.3633   -1.8562 H   0  0  0  0  0  0  0  0  0  0  0  0
   -4.7509   -2.4008    1.2691 H   0  0  0  0  0  0  0  0  0  0  0  0
   -5.5860   -3.8434   -0.2082 H   0  0  0  0  0  0  0  0  0  0  0  0
   -7.2940   -3.8373   -0.6338 H   0  0  0  0  0  0  0  0  0  0  0  0
   -6.8288   -3.1148    0.9025 H   0  0  0  0  0  0  0  0  0  0  0  0
  1 12  2  0  0  0  0
  2 24  1  0  0  0  0
  2 25  1  0  0  0  0
  3  7  1  0  0  0  0
  3  8  1  0  0  0  0
  3 12  1  0  0  0  0
  4  6  1  0  0  0  0
  4 12  1  0  0  0  0
  4 13  1  0  0  0  0
  5  9  1  0  0  0  0
  5 14  1  0  0  0  0
  5 18  1  0  0  0  0
  6  8  1  0  0  0  0
  6  9  1  0  0  0  0
  6 26  1  0  0  0  0
  7 10  1  0  0  0  0
  7 11  1  0  0  0  0
  7 27  1  0  0  0  0
  8 28  1  0  0  0  0
  8 29  1  0  0  0  0
  9 30  1  0  0  0  0
  9 31  1  0  0  0  0
 10 15  1  0  0  0  0
 10 32  1  0  0  0  0
 10 33  1  0  0  0  0
 11 16  1  0  0  0  0
 11 34  1  0  0  0  0
 11 35  1  0  0  0  0
 13 14  1  0  0  0  0
 13 36  1  0  0  0  0
 13 37  1  0  0  0  0
 14 38  1  0  0  0  0
 14 39  1  0  0  0  0
 15 17  1  0  0  0  0
 15 40  1  0  0  0  0
 15 41  1  0  0  0  0
 16 17  1  0  0  0  0
 16 42  1  0  0  0  0
 16 43  1  0  0  0  0
 17 44  1  0  0  0  0
 17 45  1  0  0  0  0
 18 19  1  0  0  0  0
 18 46  1  0  0  0  0
 18 47  1  0  0  0  0
 19 20  2  0  0  0  0
 19 21  1  0  0  0  0
 20 22  1  0  0  0  0
 20 48  1  0  0  0  0
 21 23  2  0  0  0  0
 21 49  1  0  0  0  0
 22 24  2  0  0  0  0
 22 50  1  0  0  0  0
 23 24  1  0  0  0  0
 23 51  1  0  0  0  0
 25 52  1  0  0  0  0
 25 53  1  0  0  0  0
 25 54  1  0  0  0  0
M  END
> <PUBCHEM_COMPOUND_CID>
75537119

> <PUBCHEM_CONFORMER_RMSD>
0.8

> <PUBCHEM_CONFORMER_DIVERSEORDER>
1
28
45
30
55
54
18
11
57
50
33
31
5
42
34
16
49
6
40
25
27
15
37
35
29
21
47
24
41
19
32
44
10
9
3
48
23
7
38
46
51
39
53
26
13
20
4
12
56
36
43
2
58
52
17
8
14
22

> <PUBCHEM_MMFF94_PARTIAL_CHARGES>
24
1 -0.57
12 0.69
13 0.3
14 0.27
18 0.41
19 -0.14
2 -0.36
20 -0.15
21 -0.15
22 -0.15
23 -0.15
24 0.08
25 0.28
3 -0.66
4 -0.66
48 0.15
49 0.15
5 -0.81
50 0.15
51 0.15
6 0.3
7 0.3
8 0.3
9 0.27

> <PUBCHEM_EFFECTIVE_ROTOR_COUNT>
6.4

> <PUBCHEM_PHARMACOPHORE_FEATURES>
7
1 1 acceptor
1 2 acceptor
1 5 cation
5 3 4 6 8 12 rings
6 19 20 21 22 23 24 rings
6 4 5 6 9 13 14 rings
6 7 10 11 15 16 17 rings

> <PUBCHEM_HEAVY_ATOM_COUNT>
25

> <PUBCHEM_ATOM_DEF_STEREO_COUNT>
1

> <PUBCHEM_ATOM_UDEF_STEREO_COUNT>
0

> <PUBCHEM_BOND_DEF_STEREO_COUNT>
0

> <PUBCHEM_BOND_UDEF_STEREO_COUNT>
0

> <PUBCHEM_ISOTOPIC_ATOM_COUNT>
0

> <PUBCHEM_COMPONENT_COUNT>
1

> <PUBCHEM_CACTVS_TAUTO_COUNT>
1

> <PUBCHEM_CONFORMER_ID>
04809ADF00000001

> <PUBCHEM_MMFF94_ENERGY>
60.8679

> <PUBCHEM_FEATURE_SELFOVERLAP>
35.618

> <PUBCHEM_SHAPE_FINGERPRINT>
10050765 1 18410856538387694476
10622 236 17914882374142496983
10721379 63 8358272470924094792
11069576 57 16734380500820938154
1200032 147 14044882898357297082
12166972 35 18114184163717929439
12422481 6 17346599625710687774
12596602 18 17703222915519466394
13533116 47 18339924921380397608
13540713 5 18268170736776118585
1361 4 18193276523566974091
13782708 43 18114176484596433351
13862211 1 18409448051243917122
13885169 86 10519404351567886346
13944108 23 10810991489738327967
14211702 104 18411420634980637899
14251740 57 18341893017567072000
14848178 5 18342736299608583161
15064986 266 18113910377360529641
15183329 4 15647051534282904218
15188451 53 18059568057811315491
15519825 34 14404609000867518223
15728490 51 18341888624343191562
17349148 13 18272100391285245321
17492 89 18412266155195910965
17857418 61 18261111820928086650
18222031 100 18409731725486333528
19841028 212 18340204223958893771
20028762 73 18342738503223108246
20691028 202 9007064560704794979
20843269 155 18337669724606582650
21033650 10 16732977579718360261
21302155 148 10015862089600537491
21424621 283 8934989378764857438
21585480 29 17201331187477182662
21756936 100 8502359027982713737
22393880 68 18113607985471022733
23522609 53 18049198576635941100
23559900 14 18333731342364233305
25122255 55 18413111645330673447
270888 7 8646774382917393143
2748736 6 9295288300910377835
3004659 81 18259703393344898989
312425 54 17416974923776648259
3459 39 9078542630510168918
439807 62 18336263565905701071
44062 13 18335136476002578957
46194498 28 17533211106184339077
465052 167 18343023277002980734
5104073 3 18131638889250154457
559249 180 18339923715365090153
5718773 13 18341045311572647711
59682541 52 14129052578926204298
6058803 2 18196960901058998609
6712543 237 16056884628714182215
76465 3 18409167692679206624
7808743 9 9511165339991825548
7970288 3 18411135818445803615
960060 61 16732987505339528624

> <PUBCHEM_SHAPE_MULTIPOLES>
487.81
17.46
3.55
1.15
3.52
0.29
-0.12
-19.33
1.63
0.37
0.14
-0.48
-0.33
-0.84

> <PUBCHEM_SHAPE_SELFOVERLAP>
1028.912

> <PUBCHEM_SHAPE_VOLUME>
274.1

> <PUBCHEM_COORDINATE_TYPE>
2
5
10

$$$$
