45783482
  -OEChem-12032416273D

 58 61  0     1  0  0  0  0  0999 V2000
   -1.6979    2.1884   -1.7376 O   0  0  0  0  0  0  0  0  0  0  0  0
    7.6957   -1.5590    0.1986 O   0  0  0  0  0  0  0  0  0  0  0  0
   -3.7483    0.5820    0.8549 N   0  0  1  0  0  0  0  0  0  0  0  0
   -3.5929   -3.4948   -0.3367 N   0  0  0  0  0  0  0  0  0  0  0  0
   -0.9211    1.1753    0.1028 N   0  0  0  0  0  0  0  0  0  0  0  0
   -0.3168    2.0481   -1.9237 N   0  0  0  0  0  0  0  0  0  0  0  0
    3.7371    1.0659   -1.2802 N   0  0  0  0  0  0  0  0  0  0  0  0
    5.4102    0.1164    0.1251 N   0  0  0  0  0  0  0  0  0  0  0  0
   -4.1117   -0.6613    0.1788 C   0  0  0  0  0  0  0  0  0  0  0  0
   -3.4183    1.6773   -0.0786 C   0  0  1  0  0  0  0  0  0  0  0  0
   -4.8262    1.0786    1.7105 C   0  0  0  0  0  0  0  0  0  0  0  0
   -2.9862   -1.1306   -0.7478 C   0  0  0  0  0  0  0  0  0  0  0  0
   -4.4299   -1.7501    1.2066 C   0  0  0  0  0  0  0  0  0  0  0  0
   -3.7825    2.9645    0.6842 C   0  0  0  0  0  0  0  0  0  0  0  0
   -4.3645    2.4908    2.0085 C   0  0  0  0  0  0  0  0  0  0  0  0
   -3.3195   -2.4881   -1.3718 C   0  0  0  0  0  0  0  0  0  0  0  0
   -4.7163   -3.0873    0.5185 C   0  0  0  0  0  0  0  0  0  0  0  0
   -1.9702    1.6495   -0.5203 C   0  0  0  0  0  0  0  0  0  0  0  0
   -3.8602   -4.7968   -0.9470 C   0  0  0  0  0  0  0  0  0  0  0  0
    0.0695    1.4425   -0.7969 C   0  0  0  0  0  0  0  0  0  0  0  0
    1.4362    1.0923   -0.5385 C   0  0  0  0  0  0  0  0  0  0  0  0
    1.8032    0.4637    0.6463 C   0  0  0  0  0  0  0  0  0  0  0  0
    2.4321    1.3691   -1.4612 C   0  0  0  0  0  0  0  0  0  0  0  0
    3.1361    0.1360    0.8690 C   0  0  0  0  0  0  0  0  0  0  0  0
    4.0560    0.4557   -0.1168 C   0  0  0  0  0  0  0  0  0  0  0  0
    5.8407   -0.5277    1.3232 C   0  0  0  0  0  0  0  0  0  0  0  0
    7.3471   -0.7237    1.2953 C   0  0  0  0  0  0  0  0  0  0  0  0
    9.0984   -1.7768    0.1350 C   0  0  0  0  0  0  0  0  0  0  0  0
   -5.0098   -0.5001   -0.4355 H   0  0  0  0  0  0  0  0  0  0  0  0
   -4.0584    1.6313   -0.9713 H   0  0  0  0  0  0  0  0  0  0  0  0
   -4.9284    0.5157    2.6431 H   0  0  0  0  0  0  0  0  0  0  0  0
   -5.7923    1.0978    1.1904 H   0  0  0  0  0  0  0  0  0  0  0  0
   -2.0414   -1.2229   -0.1971 H   0  0  0  0  0  0  0  0  0  0  0  0
   -2.8365   -0.4447   -1.5865 H   0  0  0  0  0  0  0  0  0  0  0  0
   -5.3122   -1.4937    1.8037 H   0  0  0  0  0  0  0  0  0  0  0  0
   -3.5910   -1.8736    1.9050 H   0  0  0  0  0  0  0  0  0  0  0  0
   -2.9329    3.6357    0.8506 H   0  0  0  0  0  0  0  0  0  0  0  0
   -4.5459    3.5203    0.1262 H   0  0  0  0  0  0  0  0  0  0  0  0
   -5.1781    3.1341    2.3561 H   0  0  0  0  0  0  0  0  0  0  0  0
   -3.5823    2.4842    2.7778 H   0  0  0  0  0  0  0  0  0  0  0  0
   -4.1770   -2.3823   -2.0498 H   0  0  0  0  0  0  0  0  0  0  0  0
   -2.4622   -2.8046   -1.9787 H   0  0  0  0  0  0  0  0  0  0  0  0
   -4.8818   -3.8425    1.2966 H   0  0  0  0  0  0  0  0  0  0  0  0
   -5.6440   -3.0112   -0.0641 H   0  0  0  0  0  0  0  0  0  0  0  0
   -3.0025   -5.1252   -1.5445 H   0  0  0  0  0  0  0  0  0  0  0  0
   -4.7445   -4.7774   -1.5943 H   0  0  0  0  0  0  0  0  0  0  0  0
   -4.0142   -5.5592   -0.1753 H   0  0  0  0  0  0  0  0  0  0  0  0
    1.0721    0.2173    1.4121 H   0  0  0  0  0  0  0  0  0  0  0  0
    2.2292    1.8572   -2.4099 H   0  0  0  0  0  0  0  0  0  0  0  0
    3.3873   -0.3544    1.8019 H   0  0  0  0  0  0  0  0  0  0  0  0
    6.0724    0.3522   -0.6051 H   0  0  0  0  0  0  0  0  0  0  0  0
    5.5919    0.0729    2.2057 H   0  0  0  0  0  0  0  0  0  0  0  0
    5.3652   -1.5119    1.4126 H   0  0  0  0  0  0  0  0  0  0  0  0
    7.8545    0.2435    1.1938 H   0  0  0  0  0  0  0  0  0  0  0  0
    7.6715   -1.1942    2.2307 H   0  0  0  0  0  0  0  0  0  0  0  0
    9.6279   -0.8294   -0.0048 H   0  0  0  0  0  0  0  0  0  0  0  0
    9.4510   -2.2758    1.0428 H   0  0  0  0  0  0  0  0  0  0  0  0
    9.3078   -2.4228   -0.7218 H   0  0  0  0  0  0  0  0  0  0  0  0
  1  6  1  0  0  0  0
  1 18  1  0  0  0  0
  2 27  1  0  0  0  0
  2 28  1  0  0  0  0
  3  9  1  0  0  0  0
  3 10  1  0  0  0  0
  3 11  1  0  0  0  0
  4 16  1  0  0  0  0
  4 17  1  0  0  0  0
  4 19  1  0  0  0  0
  5 18  2  0  0  0  0
  5 20  1  0  0  0  0
  6 20  2  0  0  0  0
  7 23  1  0  0  0  0
  7 25  2  0  0  0  0
  8 25  1  0  0  0  0
  8 26  1  0  0  0  0
  8 51  1  0  0  0  0
  9 12  1  0  0  0  0
  9 13  1  0  0  0  0
  9 29  1  0  0  0  0
 10 14  1  0  0  0  0
 10 18  1  0  0  0  0
 10 30  1  0  0  0  0
 11 15  1  0  0  0  0
 11 31  1  0  0  0  0
 11 32  1  0  0  0  0
 12 16  1  0  0  0  0
 12 33  1  0  0  0  0
 12 34  1  0  0  0  0
 13 17  1  0  0  0  0
 13 35  1  0  0  0  0
 13 36  1  0  0  0  0
 14 15  1  0  0  0  0
 14 37  1  0  0  0  0
 14 38  1  0  0  0  0
 15 39  1  0  0  0  0
 15 40  1  0  0  0  0
 16 41  1  0  0  0  0
 16 42  1  0  0  0  0
 17 43  1  0  0  0  0
 17 44  1  0  0  0  0
 19 45  1  0  0  0  0
 19 46  1  0  0  0  0
 19 47  1  0  0  0  0
 20 21  1  0  0  0  0
 21 22  1  0  0  0  0
 21 23  2  0  0  0  0
 22 24  2  0  0  0  0
 22 48  1  0  0  0  0
 23 49  1  0  0  0  0
 24 25  1  0  0  0  0
 24 50  1  0  0  0  0
 26 27  1  0  0  0  0
 26 52  1  0  0  0  0
 26 53  1  0  0  0  0
 27 54  1  0  0  0  0
 27 55  1  0  0  0  0
 28 56  1  0  0  0  0
 28 57  1  0  0  0  0
 28 58  1  0  0  0  0
M  END
> <PUBCHEM_COMPOUND_CID>
45783482

> <PUBCHEM_CONFORMER_RMSD>
1

> <PUBCHEM_CONFORMER_DIVERSEORDER>
1
36
81
79
59
86
26
11
89
20
17
92
78
44
90
88
40
62
60
72
70
64
75
6
96
63
55
67
83
76
43
29
13
28
53
7
12
3
24
74
91
65
95
51
42
71
22
66
45
52
39
54
68
69
93
31
85
33
49
84
82
34
2
61
46
80
57
73
27
18
32
37
47
87
56
77
25
16
48
58
41
35
30
94
21
23
38
14
15
5
19
50
9
4
8
10

> <PUBCHEM_MMFF94_PARTIAL_CHARGES>
28
1 -0.02
10 0.45
11 0.27
16 0.27
17 0.27
18 0.3
19 0.27
2 -0.56
20 0.46
21 0.05
22 -0.15
23 0.16
24 -0.15
25 0.41
26 0.37
27 0.28
28 0.28
3 -0.81
4 -0.81
48 0.15
49 0.15
5 -0.57
50 0.15
51 0.4
6 -0.41
7 -0.62
8 -0.87
9 0.27

> <PUBCHEM_EFFECTIVE_ROTOR_COUNT>
9.2

> <PUBCHEM_PHARMACOPHORE_FEATURES>
10
1 2 acceptor
1 3 cation
1 4 cation
1 8 donor
3 5 6 20 cation
3 7 8 25 cation
5 1 5 6 18 20 rings
5 3 10 11 14 15 rings
6 4 9 12 13 16 17 rings
6 7 21 22 23 24 25 rings

> <PUBCHEM_HEAVY_ATOM_COUNT>
28

> <PUBCHEM_ATOM_DEF_STEREO_COUNT>
1

> <PUBCHEM_ATOM_UDEF_STEREO_COUNT>
0

> <PUBCHEM_BOND_DEF_STEREO_COUNT>
0

> <PUBCHEM_BOND_UDEF_STEREO_COUNT>
0

> <PUBCHEM_ISOTOPIC_ATOM_COUNT>
0

> <PUBCHEM_COMPONENT_COUNT>
1

> <PUBCHEM_CACTVS_TAUTO_COUNT>
8

> <PUBCHEM_CONFORMER_ID>
02BA99BA00000001

> <PUBCHEM_MMFF94_ENERGY>
54.796

> <PUBCHEM_FEATURE_SELFOVERLAP>
50.748

> <PUBCHEM_SHAPE_FINGERPRINT>
10319926 262 18059866051675442884
10622 236 18117836827298046559
10917259 128 8790617953668558334
11036077 4 18412267220827601665
11103572 155 18270120094547923262
11227150 75 16409259619724733207
11552529 35 18342739654453022409
11801155 225 18265044748727150466
11963148 33 18115579350218611058
12422481 6 18271528611386031094
12523318 42 18201723972481233969
12616971 3 17967541164055781364
12633257 1 16915680274620669305
12717326 25 16415485918065164326
13009979 54 18265622168170605517
13540713 5 18190193445079760012
13583140 156 17132114645432574681
13782708 43 18409439298759619954
14344974 204 18271805774416653998
14705955 166 16988297391360083553
14844126 61 18412829114393154851
14856354 85 18273214179812101020
14950920 106 18201435904308114256
15021287 119 17822016397825583196
15183329 4 17385723591565966450
15250474 111 18408604785765070526
15320294 125 18335428950168741495
15326921 28 18050561837947541641
15348495 7 18060132150890975032
15352257 5 18341611461529879514
17324776 126 17626928017948229894
17780758 139 18342737420779897769
17913733 40 16200436862420011742
18927931 339 17240768337086717560
21033648 29 16486705688063147361
21267235 1 16950859011491531768
21360442 33 17189802984808407719
21774942 28 9295293850989182866
23522609 53 17971786374504401972
23523787 8 17757786171626572159
2838139 119 9943514233583919202
312425 54 18129947776121044186
397830 11 18200016452925700792
4169191 19 13110662992389145986
445580 167 17095532795124850588
484985 159 18335125510803463983
5104073 3 18272368715615993088
5364581 5 17845361314426859648
559249 180 18261109678182465337
58260988 114 18261396667528107435
6009941 240 17846217701003869200
6058803 2 18118986903607830613
636775 72 9871454432218287154
6691757 9 18271811177584939849
68570916 9 18410576219595267880
7970288 3 18118120509724774459
9953998 17 18342735196234758520

> <PUBCHEM_SHAPE_MULTIPOLES>
534.6
18.78
4.23
1.64
49.76
4.72
0.04
12.71
-7.81
-9.02
0.8
-0.7
-0.69
-2.59

> <PUBCHEM_SHAPE_SELFOVERLAP>
1125.217

> <PUBCHEM_SHAPE_VOLUME>
302.6

> <PUBCHEM_COORDINATE_TYPE>
2
5
10

$$$$
