45783464
  -OEChem-12032416263D

 57 60  0     1  0  0  0  0  0999 V2000
   -2.6660    2.0396   -1.2353 O   0  0  0  0  0  0  0  0  0  0  0  0
   -0.9918   -2.0808    1.5553 O   0  0  0  0  0  0  0  0  0  0  0  0
    1.4268   -2.2419   -2.5482 O   0  0  0  0  0  0  0  0  0  0  0  0
    3.6772    1.1060    1.4227 O   0  0  0  0  0  0  0  0  0  0  0  0
    5.2555   -1.1950    1.1741 O   0  0  0  0  0  0  0  0  0  0  0  0
   -3.5300   -0.6665    1.0961 N   0  0  1  0  0  0  0  0  0  0  0  0
   -1.2887    1.1269    0.2770 N   0  0  0  0  0  0  0  0  0  0  0  0
   -1.3808    2.4975   -1.5525 N   0  0  0  0  0  0  0  0  0  0  0  0
    1.3274    2.9105   -1.4912 N   0  0  0  0  0  0  0  0  0  0  0  0
   -3.7865    0.6103    0.4001 C   0  0  1  0  0  0  0  0  0  0  0  0
   -4.4848    1.4945    1.4497 C   0  0  0  0  0  0  0  0  0  0  0  0
   -4.6317    0.6106    2.6802 C   0  0  0  0  0  0  0  0  0  0  0  0
   -4.5682   -0.7955    2.1189 C   0  0  0  0  0  0  0  0  0  0  0  0
   -3.4993   -1.8140    0.1985 C   0  0  0  0  0  0  0  0  0  0  0  0
   -2.5222    1.2395   -0.1465 C   0  0  0  0  0  0  0  0  0  0  0  0
   -2.1812   -1.9285   -0.5201 C   0  0  0  0  0  0  0  0  0  0  0  0
   -0.9891   -2.0570    0.1930 C   0  0  0  0  0  0  0  0  0  0  0  0
   -2.1605   -1.9055   -1.9147 C   0  0  0  0  0  0  0  0  0  0  0  0
   -0.6247    1.9161   -0.6165 C   0  0  0  0  0  0  0  0  0  0  0  0
    0.2235   -2.1621   -0.4886 C   0  0  0  0  0  0  0  0  0  0  0  0
   -0.9480   -2.0103   -2.5962 C   0  0  0  0  0  0  0  0  0  0  0  0
    0.2441   -2.1387   -1.8831 C   0  0  0  0  0  0  0  0  0  0  0  0
    0.7956    2.1042   -0.5454 C   0  0  0  0  0  0  0  0  0  0  0  0
    1.5346    1.4795    0.4464 C   0  0  0  0  0  0  0  0  0  0  0  0
    2.9079    1.6964    0.4688 C   0  0  0  0  0  0  0  0  0  0  0  0
    2.6653    3.0976   -1.4377 C   0  0  0  0  0  0  0  0  0  0  0  0
    3.4919    2.5195   -0.4877 C   0  0  0  0  0  0  0  0  0  0  0  0
    2.6075   -2.3705   -1.7572 C   0  0  0  0  0  0  0  0  0  0  0  0
    3.2350   -0.1542    1.9261 C   0  0  0  0  0  0  0  0  0  0  0  0
    4.4435   -0.9805    2.3222 C   0  0  0  0  0  0  0  0  0  0  0  0
    6.4177   -1.9478    1.4919 C   0  0  0  0  0  0  0  0  0  0  0  0
   -4.4895    0.4654   -0.4323 H   0  0  0  0  0  0  0  0  0  0  0  0
   -3.9358    2.4109    1.6923 H   0  0  0  0  0  0  0  0  0  0  0  0
   -5.4782    1.7839    1.0856 H   0  0  0  0  0  0  0  0  0  0  0  0
   -5.5626    0.8053    3.2207 H   0  0  0  0  0  0  0  0  0  0  0  0
   -3.7947    0.7865    3.3674 H   0  0  0  0  0  0  0  0  0  0  0  0
   -5.5360   -1.0756    1.6839 H   0  0  0  0  0  0  0  0  0  0  0  0
   -4.2993   -1.5243    2.8898 H   0  0  0  0  0  0  0  0  0  0  0  0
   -4.3430   -1.8009   -0.5041 H   0  0  0  0  0  0  0  0  0  0  0  0
   -3.6148   -2.7433    0.7743 H   0  0  0  0  0  0  0  0  0  0  0  0
   -3.0804   -1.8041   -2.4844 H   0  0  0  0  0  0  0  0  0  0  0  0
    1.1198   -2.2635    0.1132 H   0  0  0  0  0  0  0  0  0  0  0  0
   -0.9381   -1.9907   -3.6826 H   0  0  0  0  0  0  0  0  0  0  0  0
   -0.0776   -2.1626    1.8764 H   0  0  0  0  0  0  0  0  0  0  0  0
    1.0441    0.8666    1.1950 H   0  0  0  0  0  0  0  0  0  0  0  0
    3.0714    3.7476   -2.2057 H   0  0  0  0  0  0  0  0  0  0  0  0
    4.5602    2.7059   -0.4945 H   0  0  0  0  0  0  0  0  0  0  0  0
    3.4519   -2.4535   -2.4495 H   0  0  0  0  0  0  0  0  0  0  0  0
    2.5963   -3.2872   -1.1579 H   0  0  0  0  0  0  0  0  0  0  0  0
    2.7815   -1.4764   -1.1504 H   0  0  0  0  0  0  0  0  0  0  0  0
    2.6897   -0.7177    1.1608 H   0  0  0  0  0  0  0  0  0  0  0  0
    2.5907    0.0101    2.7966 H   0  0  0  0  0  0  0  0  0  0  0  0
    5.0295   -0.4406    3.0751 H   0  0  0  0  0  0  0  0  0  0  0  0
    4.1207   -1.9426    2.7350 H   0  0  0  0  0  0  0  0  0  0  0  0
    7.0348   -1.4125    2.2200 H   0  0  0  0  0  0  0  0  0  0  0  0
    6.1423   -2.9325    1.8820 H   0  0  0  0  0  0  0  0  0  0  0  0
    6.9994   -2.0856    0.5765 H   0  0  0  0  0  0  0  0  0  0  0  0
  1  8  1  0  0  0  0
  1 15  1  0  0  0  0
  2 17  1  0  0  0  0
  2 44  1  0  0  0  0
  3 22  1  0  0  0  0
  3 28  1  0  0  0  0
  4 25  1  0  0  0  0
  4 29  1  0  0  0  0
  5 30  1  0  0  0  0
  5 31  1  0  0  0  0
  6 10  1  0  0  0  0
  6 13  1  0  0  0  0
  6 14  1  0  0  0  0
  7 15  2  0  0  0  0
  7 19  1  0  0  0  0
  8 19  2  0  0  0  0
  9 23  2  0  0  0  0
  9 26  1  0  0  0  0
 10 11  1  0  0  0  0
 10 15  1  0  0  0  0
 10 32  1  0  0  0  0
 11 12  1  0  0  0  0
 11 33  1  0  0  0  0
 11 34  1  0  0  0  0
 12 13  1  0  0  0  0
 12 35  1  0  0  0  0
 12 36  1  0  0  0  0
 13 37  1  0  0  0  0
 13 38  1  0  0  0  0
 14 16  1  0  0  0  0
 14 39  1  0  0  0  0
 14 40  1  0  0  0  0
 16 17  2  0  0  0  0
 16 18  1  0  0  0  0
 17 20  1  0  0  0  0
 18 21  2  0  0  0  0
 18 41  1  0  0  0  0
 19 23  1  0  0  0  0
 20 22  2  0  0  0  0
 20 42  1  0  0  0  0
 21 22  1  0  0  0  0
 21 43  1  0  0  0  0
 23 24  1  0  0  0  0
 24 25  2  0  0  0  0
 24 45  1  0  0  0  0
 25 27  1  0  0  0  0
 26 27  2  0  0  0  0
 26 46  1  0  0  0  0
 27 47  1  0  0  0  0
 28 48  1  0  0  0  0
 28 49  1  0  0  0  0
 28 50  1  0  0  0  0
 29 30  1  0  0  0  0
 29 51  1  0  0  0  0
 29 52  1  0  0  0  0
 30 53  1  0  0  0  0
 30 54  1  0  0  0  0
 31 55  1  0  0  0  0
 31 56  1  0  0  0  0
 31 57  1  0  0  0  0
M  END
> <PUBCHEM_COMPOUND_CID>
45783464

> <PUBCHEM_CONFORMER_RMSD>
1

> <PUBCHEM_CONFORMER_DIVERSEORDER>
1
73
21
47
108
125
82
80
24
77
131
135
79
101
133
50
54
81
141
122
55
118
4
46
2
44
37
124
29
65
83
110
96
68
59
88
69
62
75
128
93
8
140
126
130
23
72
74
45
86
105
95
112
115
106
89
92
121
19
58
123
48
127
33
42
78
136
120
14
137
84
113
87
57
94
52
139
134
38
85
43
67
71
18
15
109
70
91
6
3
49
51
129
114
61
102
28
107
20
7
97
138
66
27
41
90
5
116
64
9
99
104
13
36
53
35
100
63
10
39
32
117
12
98
30
34
22
103
60
132
16
119
11
40
25
111
76
142
31
56
26
17

> <PUBCHEM_MMFF94_PARTIAL_CHARGES>
36
1 -0.02
10 0.45
13 0.27
14 0.41
15 0.3
16 -0.14
17 0.08
18 -0.15
19 0.46
2 -0.53
20 -0.15
21 -0.15
22 0.08
23 0.36
24 -0.15
25 0.08
26 0.16
27 -0.15
28 0.28
29 0.28
3 -0.36
30 0.28
31 0.28
4 -0.36
41 0.15
42 0.15
43 0.15
44 0.45
45 0.15
46 0.15
47 0.15
5 -0.56
6 -0.81
7 -0.57
8 -0.41
9 -0.62

> <PUBCHEM_EFFECTIVE_ROTOR_COUNT>
10

> <PUBCHEM_PHARMACOPHORE_FEATURES>
11
1 2 donor
1 3 acceptor
1 4 acceptor
1 5 acceptor
1 6 cation
1 9 acceptor
3 7 8 19 cation
5 1 7 8 15 19 rings
5 6 10 11 12 13 rings
6 16 17 18 20 21 22 rings
6 9 23 24 25 26 27 rings

> <PUBCHEM_HEAVY_ATOM_COUNT>
31

> <PUBCHEM_ATOM_DEF_STEREO_COUNT>
1

> <PUBCHEM_ATOM_UDEF_STEREO_COUNT>
0

> <PUBCHEM_BOND_DEF_STEREO_COUNT>
0

> <PUBCHEM_BOND_UDEF_STEREO_COUNT>
0

> <PUBCHEM_ISOTOPIC_ATOM_COUNT>
0

> <PUBCHEM_COMPONENT_COUNT>
1

> <PUBCHEM_CACTVS_TAUTO_COUNT>
3

> <PUBCHEM_CONFORMER_ID>
02BA99A800000001

> <PUBCHEM_MMFF94_ENERGY>
81.2981

> <PUBCHEM_FEATURE_SELFOVERLAP>
55.826

> <PUBCHEM_SHAPE_FINGERPRINT>
11135926 11 17823694377630263500
12422481 6 18342455911554186106
12633257 1 18408605859364359459
12788726 201 17195733707039588685
15064986 96 18340222820575688435
15274700 242 17753609350592454940
16110190 28 18411411822472222040
19319366 153 16676971021003750845
20554085 129 17417821608671974481
20691752 17 18042426740955481799
20764821 26 18343586261173566692
23728640 28 17624715822306093231
4112364 45 16198763298480028475
5265222 85 17625293035973356860
6287921 2 17773612524452996959
7064713 232 17989204858420574034
9862522 239 18342174501339692141

> <PUBCHEM_SHAPE_MULTIPOLES>
588.69
9.9
3.98
2.71
6.18
0.44
0.24
-1.01
9.17
1.82
-2.46
0.25
-0.96
-1.68

> <PUBCHEM_SHAPE_SELFOVERLAP>
1262.664

> <PUBCHEM_SHAPE_VOLUME>
327

> <PUBCHEM_COORDINATE_TYPE>
2
5
10

$$$$
