25338306
  -OEChem-12032416233D

 48 51  0     1  0  0  0  0  0999 V2000
   -2.6171    1.8081   -0.8351 S   0  0  0  0  0  0  0  0  0  0  0  0
    2.9856   -2.4686   -0.7450 O   0  0  0  0  0  0  0  0  0  0  0  0
   -2.6768    1.8107   -2.2844 O   0  0  0  0  0  0  0  0  0  0  0  0
   -2.4479    3.0526   -0.1098 O   0  0  0  0  0  0  0  0  0  0  0  0
   -0.1178   -1.7760    0.7760 N   0  0  1  0  0  0  0  0  0  0  0  0
   -1.4299    0.7115   -0.3188 N   0  0  0  0  0  0  0  0  0  0  0  0
    2.6011   -0.3819   -0.0274 N   0  0  0  0  0  0  0  0  0  0  0  0
    4.2438   -1.8761   -0.5781 N   0  0  0  0  0  0  0  0  0  0  0  0
    6.2165   -0.0329   -0.0065 N   0  0  0  0  0  0  0  0  0  0  0  0
    5.5089    2.5325    0.8791 N   0  0  0  0  0  0  0  0  0  0  0  0
   -1.4746   -0.6978   -0.7851 C   0  0  1  0  0  0  0  0  0  0  0  0
    0.6176   -1.9200   -0.4949 C   0  0  1  0  0  0  0  0  0  0  0  0
   -0.1697   -1.0508   -1.4945 C   0  0  0  0  0  0  0  0  0  0  0  0
   -1.5305   -1.6386    0.4074 C   0  0  0  0  0  0  0  0  0  0  0  0
    2.0747   -1.5213   -0.3997 C   0  0  0  0  0  0  0  0  0  0  0  0
    0.0980   -2.8880    1.6940 C   0  0  0  0  0  0  0  0  0  0  0  0
   -4.0978    1.0554   -0.2302 C   0  0  0  0  0  0  0  0  0  0  0  0
    3.9337   -0.6477   -0.1531 C   0  0  0  0  0  0  0  0  0  0  0  0
   -4.5685    1.3692    1.0448 C   0  0  0  0  0  0  0  0  0  0  0  0
   -4.7938    0.1459   -1.0265 C   0  0  0  0  0  0  0  0  0  0  0  0
   -5.7352    0.7734    1.5235 C   0  0  0  0  0  0  0  0  0  0  0  0
   -5.9606   -0.4498   -0.5477 C   0  0  0  0  0  0  0  0  0  0  0  0
    4.9303    0.3376    0.1527 C   0  0  0  0  0  0  0  0  0  0  0  0
   -6.4314   -0.1360    0.7272 C   0  0  0  0  0  0  0  0  0  0  0  0
   -7.6790   -0.7730    1.2393 C   0  0  0  0  0  0  0  0  0  0  0  0
    4.5828    1.5976    0.5878 C   0  0  0  0  0  0  0  0  0  0  0  0
    7.1425    0.9020    0.2849 C   0  0  0  0  0  0  0  0  0  0  0  0
    6.7950    2.1620    0.7199 C   0  0  0  0  0  0  0  0  0  0  0  0
   -2.3113   -0.8614   -1.4662 H   0  0  0  0  0  0  0  0  0  0  0  0
    0.5598   -2.9611   -0.8443 H   0  0  0  0  0  0  0  0  0  0  0  0
    0.3770   -0.1565   -1.8163 H   0  0  0  0  0  0  0  0  0  0  0  0
   -0.3843   -1.6441   -2.3923 H   0  0  0  0  0  0  0  0  0  0  0  0
   -2.1287   -1.2413    1.2342 H   0  0  0  0  0  0  0  0  0  0  0  0
   -1.9540   -2.6029    0.0978 H   0  0  0  0  0  0  0  0  0  0  0  0
   -0.8362    0.9225    0.4923 H   0  0  0  0  0  0  0  0  0  0  0  0
    1.1532   -2.9561    1.9791 H   0  0  0  0  0  0  0  0  0  0  0  0
   -0.2044   -3.8493    1.2635 H   0  0  0  0  0  0  0  0  0  0  0  0
   -0.4695   -2.7330    2.6182 H   0  0  0  0  0  0  0  0  0  0  0  0
   -4.0384    2.0686    1.6849 H   0  0  0  0  0  0  0  0  0  0  0  0
   -4.4525   -0.1080   -2.0258 H   0  0  0  0  0  0  0  0  0  0  0  0
   -6.0920    1.0258    2.5186 H   0  0  0  0  0  0  0  0  0  0  0  0
   -6.4960   -1.1543   -1.1787 H   0  0  0  0  0  0  0  0  0  0  0  0
   -8.5480   -0.1622    0.9754 H   0  0  0  0  0  0  0  0  0  0  0  0
   -7.8131   -1.7749    0.8175 H   0  0  0  0  0  0  0  0  0  0  0  0
   -7.6466   -0.8859    2.3282 H   0  0  0  0  0  0  0  0  0  0  0  0
    3.5560    1.9178    0.7233 H   0  0  0  0  0  0  0  0  0  0  0  0
    8.1761    0.6051    0.1572 H   0  0  0  0  0  0  0  0  0  0  0  0
    7.5398    2.9126    0.9538 H   0  0  0  0  0  0  0  0  0  0  0  0
  1  3  2  0  0  0  0
  1  4  2  0  0  0  0
  1  6  1  0  0  0  0
  1 17  1  0  0  0  0
  2  8  1  0  0  0  0
  2 15  1  0  0  0  0
  5 12  1  0  0  0  0
  5 14  1  0  0  0  0
  5 16  1  0  0  0  0
  6 11  1  0  0  0  0
  6 35  1  0  0  0  0
  7 15  2  0  0  0  0
  7 18  1  0  0  0  0
  8 18  2  0  0  0  0
  9 23  2  0  0  0  0
  9 27  1  0  0  0  0
 10 26  2  0  0  0  0
 10 28  1  0  0  0  0
 11 13  1  0  0  0  0
 11 14  1  0  0  0  0
 11 29  1  0  0  0  0
 12 13  1  0  0  0  0
 12 15  1  0  0  0  0
 12 30  1  0  0  0  0
 13 31  1  0  0  0  0
 13 32  1  0  0  0  0
 14 33  1  0  0  0  0
 14 34  1  0  0  0  0
 16 36  1  0  0  0  0
 16 37  1  0  0  0  0
 16 38  1  0  0  0  0
 17 19  2  0  0  0  0
 17 20  1  0  0  0  0
 18 23  1  0  0  0  0
 19 21  1  0  0  0  0
 19 39  1  0  0  0  0
 20 22  2  0  0  0  0
 20 40  1  0  0  0  0
 21 24  2  0  0  0  0
 21 41  1  0  0  0  0
 22 24  1  0  0  0  0
 22 42  1  0  0  0  0
 23 26  1  0  0  0  0
 24 25  1  0  0  0  0
 25 43  1  0  0  0  0
 25 44  1  0  0  0  0
 25 45  1  0  0  0  0
 26 46  1  0  0  0  0
 27 28  2  0  0  0  0
 27 47  1  0  0  0  0
 28 48  1  0  0  0  0
M  END
> <PUBCHEM_COMPOUND_CID>
25338306

> <PUBCHEM_CONFORMER_RMSD>
0.8

> <PUBCHEM_CONFORMER_DIVERSEORDER>
1
81
171
224
218
54
185
235
122
233
136
236
200
157
94
22
238
80
26
202
230
189
225
204
151
229
219
223
152
141
179
102
216
232
21
51
188
57
237
176
187
239
184
205
38
132
108
183
234
139
95
27
231
45
25
240
70
177
89
158
168
3
43
201
130
126
134
198
196
226
154
67
53
63
206
217
156
163
42
98
203
47
162
174
104
71
5
96
66
221
241
61
92
91
182
127
190
24
120
159
118
55
133
9
169
30
107
213
143
128
228
210
79
116
33
195
112
215
115
105
97
208
111
222
220
193
14
35
73
180
20
214
211
194
124
84
170
68
164
103
191
106
18
62
175
41
149
207
12
78
36
7
39
86
140
93
186
101
58
32
28
121
113
31
212
181
4
82
10
99
56
172
227
50
100
155
64
49
83
129
88
13
153
29
192
90
146
142
11
75
60
165
59
34
178
166
77
46
125
69
117
135
147
76
199
109
23
144
44
138
40
161
197
167
85
15
48
123
74
209
148
65
72
137
8
2
52
114
150
173
19
17
37
119
160
145
131
16
110
87
6

> <PUBCHEM_MMFF94_PARTIAL_CHARGES>
35
1 1.45
10 -0.62
11 0.36
12 0.45
14 0.27
15 0.3
16 0.27
17 -0.01
18 0.46
19 -0.15
2 -0.02
20 -0.15
21 -0.15
22 -0.15
23 0.36
24 -0.14
25 0.14
26 0.16
27 0.16
28 0.16
3 -0.65
35 0.42
39 0.15
4 -0.65
40 0.15
41 0.15
42 0.15
46 0.15
47 0.15
48 0.15
5 -0.81
6 -0.91
7 -0.57
8 -0.41
9 -0.62

> <PUBCHEM_EFFECTIVE_ROTOR_COUNT>
6

> <PUBCHEM_PHARMACOPHORE_FEATURES>
11
1 10 acceptor
1 3 acceptor
1 4 acceptor
1 5 cation
1 6 donor
1 9 acceptor
3 7 8 18 cation
5 2 7 8 15 18 rings
5 5 11 12 13 14 rings
6 17 19 20 21 22 24 rings
6 9 10 23 26 27 28 rings

> <PUBCHEM_HEAVY_ATOM_COUNT>
28

> <PUBCHEM_ATOM_DEF_STEREO_COUNT>
2

> <PUBCHEM_ATOM_UDEF_STEREO_COUNT>
0

> <PUBCHEM_BOND_DEF_STEREO_COUNT>
0

> <PUBCHEM_BOND_UDEF_STEREO_COUNT>
0

> <PUBCHEM_ISOTOPIC_ATOM_COUNT>
0

> <PUBCHEM_COMPONENT_COUNT>
1

> <PUBCHEM_CACTVS_TAUTO_COUNT>
1

> <PUBCHEM_CONFORMER_ID>
0182A1C200000001

> <PUBCHEM_MMFF94_ENERGY>
48.8433

> <PUBCHEM_FEATURE_SELFOVERLAP>
55.844

> <PUBCHEM_SHAPE_FINGERPRINT>
10 15 18040434421511850016
10074138 170 17458910473412057626
10369192 42 17418094325598399757
10674148 151 10663827351528515559
11135609 201 18342165713804586176
11374522 34 15902878508454494472
12373685 5 15285622293395190635
12596602 18 16950275183417014336
12730499 353 18412548678508879246
12788726 201 16200158642574597024
12838862 33 17821442470737528555
13402501 40 18410852187843636944
13782708 43 17751926813453192890
13914758 101 12613026176840584831
14251752 14 13398634930866420974
14787075 74 18410292497780429515
14849402 71 18059295469476037809
14856354 85 16559026113162311541
15052358 14 11312057634681836201
15183329 4 9943811066967833717
15188451 53 14706922947489958140
15475509 8 11455895754365225467
15728490 51 18271806882860503159
16126227 98 18130223877982988592
16760501 71 18412546535087836480
17349148 13 16299252124229131551
18393751 57 18261673765532418194
18608769 82 18339921622892947971
20567600 254 18186792574189368246
21033648 29 17822007554260872941
21315764 119 13254803451356569628
21365058 27 16845576426714488167
21401589 2 18335974350796042810
21521721 280 18343588438801619635
22079108 93 18333169461836400582
22224240 67 18260267460512349275
25019877 29 18343303677642204358
2747138 104 18260845790896313641
2838139 119 18272362062732282612
34797466 226 17703799097871565367
392239 28 18261401044247254385
4093350 32 16917356918147214780
4098825 35 16988850462419192654
4258327 124 17677630811783778340
4325135 7 18201719553059892055
437815 12 8718830889991199454
5104073 3 18043810888175798633
53794403 172 18263650730922069972
59682541 35 18334019423701758715
6608658 132 15482126989145204571
6913067 236 17095244688107062391
9689198 14 16988853773918235033

> <PUBCHEM_SHAPE_MULTIPOLES>
532.58
19.62
2.88
1.38
5.56
0.06
-0.11
8.83
6.37
2.07
0.34
-1.54
0
1.66

> <PUBCHEM_SHAPE_SELFOVERLAP>
1135.978

> <PUBCHEM_SHAPE_VOLUME>
298.7

> <PUBCHEM_COORDINATE_TYPE>
2
5
10

$$$$
