7135144
  -OEChem-12032416203D

 76 80  0     1  0  0  0  0  0999 V2000
    0.4598    3.1388    0.2309 S   0  0  0  0  0  0  0  0  0  0  0  0
    9.0426    2.5521    0.0403 F   0  0  0  0  0  0  0  0  0  0  0  0
   -7.1708    1.5797   -0.7539 O   0  0  0  0  0  0  0  0  0  0  0  0
   -6.6707    3.3134    0.8236 O   0  0  0  0  0  0  0  0  0  0  0  0
   -0.0252   -1.7531   -1.5211 O   0  0  0  0  0  0  0  0  0  0  0  0
    3.4917   -0.3708   -0.1731 O   0  0  0  0  0  0  0  0  0  0  0  0
    0.6927    0.5790   -0.0624 N   0  0  0  0  0  0  0  0  0  0  0  0
    0.2003   -3.4623    0.0361 N   0  0  0  0  0  0  0  0  0  0  0  0
    2.7371    1.8473    0.0839 N   0  0  0  0  0  0  0  0  0  0  0  0
   -3.1361    0.3182    0.3127 C   0  0  2  0  0  0  0  0  0  0  0  0
   -3.3761    1.7527   -0.3355 C   0  0  1  0  0  0  0  0  0  0  0  0
   -4.8582    2.2924   -0.3509 C   0  0  1  0  0  0  0  0  0  0  0  0
   -1.7030   -0.2044   -0.1636 C   0  0  1  0  0  0  0  0  0  0  0  0
   -4.2135   -0.6690   -0.2061 C   0  0  0  0  0  0  0  0  0  0  0  0
   -5.8080    1.1670   -0.8504 C   0  0  1  0  0  0  0  0  0  0  0  0
   -2.3362    2.7905    0.1787 C   0  0  0  0  0  0  0  0  0  0  0  0
   -5.6376   -0.1441   -0.0912 C   0  0  0  0  0  0  0  0  0  0  0  0
   -3.1874    0.3415    1.8602 C   0  0  0  0  0  0  0  0  0  0  0  0
   -0.6579    0.8717   -0.0182 C   0  0  0  0  0  0  0  0  0  0  0  0
   -5.3452    2.8656    0.9983 C   0  0  0  0  0  0  0  0  0  0  0  0
   -4.9595    3.4669   -1.3649 C   0  0  0  0  0  0  0  0  0  0  0  0
   -0.9636    2.2107    0.1159 C   0  0  0  0  0  0  0  0  0  0  0  0
   -1.2527   -1.5171    0.4915 C   0  0  0  0  0  0  0  0  0  0  0  0
   -0.3049   -2.2476   -0.4260 C   0  0  0  0  0  0  0  0  0  0  0  0
    1.3760    1.6956    0.0667 C   0  0  0  0  0  0  0  0  0  0  0  0
   -0.1135   -4.0753    1.3322 C   0  0  0  0  0  0  0  0  0  0  0  0
    1.1565   -4.2122   -0.7801 C   0  0  0  0  0  0  0  0  0  0  0  0
   -0.6224   -5.5038    1.1465 C   0  0  0  0  0  0  0  0  0  0  0  0
    0.6725   -5.6419   -1.0107 C   0  0  0  0  0  0  0  0  0  0  0  0
    0.3622   -6.3445    0.3197 C   0  0  0  0  0  0  0  0  0  0  0  0
   -0.1907   -7.7469    0.0776 C   0  0  0  0  0  0  0  0  0  0  0  0
    3.6977    0.8299   -0.0342 C   0  0  0  0  0  0  0  0  0  0  0  0
    5.1132    1.2855   -0.0136 C   0  0  0  0  0  0  0  0  0  0  0  0
    6.0968    0.5350   -0.6578 C   0  0  0  0  0  0  0  0  0  0  0  0
    5.4571    2.4639    0.6487 C   0  0  0  0  0  0  0  0  0  0  0  0
    7.4242    0.9627   -0.6396 C   0  0  0  0  0  0  0  0  0  0  0  0
    6.7845    2.8918    0.6669 C   0  0  0  0  0  0  0  0  0  0  0  0
    7.7682    2.1412    0.0229 C   0  0  0  0  0  0  0  0  0  0  0  0
   -3.1356    1.6047   -1.4028 H   0  0  0  0  0  0  0  0  0  0  0  0
   -1.8100   -0.3551   -1.2481 H   0  0  0  0  0  0  0  0  0  0  0  0
   -4.0208   -0.9028   -1.2616 H   0  0  0  0  0  0  0  0  0  0  0  0
   -4.1603   -1.6223    0.3319 H   0  0  0  0  0  0  0  0  0  0  0  0
   -5.6104    0.9806   -1.9144 H   0  0  0  0  0  0  0  0  0  0  0  0
   -2.5533    3.0836    1.2113 H   0  0  0  0  0  0  0  0  0  0  0  0
   -2.3726    3.6963   -0.4357 H   0  0  0  0  0  0  0  0  0  0  0  0
   -6.3296   -0.8914   -0.5005 H   0  0  0  0  0  0  0  0  0  0  0  0
   -5.9362   -0.0276    0.9564 H   0  0  0  0  0  0  0  0  0  0  0  0
   -2.4488    1.0207    2.2950 H   0  0  0  0  0  0  0  0  0  0  0  0
   -4.1640    0.6214    2.2496 H   0  0  0  0  0  0  0  0  0  0  0  0
   -2.9874   -0.6515    2.2780 H   0  0  0  0  0  0  0  0  0  0  0  0
   -5.3593    2.1263    1.7950 H   0  0  0  0  0  0  0  0  0  0  0  0
   -4.7367    3.7150    1.3232 H   0  0  0  0  0  0  0  0  0  0  0  0
   -4.5392    3.1833   -2.3367 H   0  0  0  0  0  0  0  0  0  0  0  0
   -4.4198    4.3538   -1.0167 H   0  0  0  0  0  0  0  0  0  0  0  0
   -5.9957    3.7731   -1.5474 H   0  0  0  0  0  0  0  0  0  0  0  0
   -2.1051   -2.1824    0.6533 H   0  0  0  0  0  0  0  0  0  0  0  0
   -0.7585   -1.3274    1.4512 H   0  0  0  0  0  0  0  0  0  0  0  0
   -7.7215    0.8663   -1.1189 H   0  0  0  0  0  0  0  0  0  0  0  0
   -6.9667    3.6815    1.6734 H   0  0  0  0  0  0  0  0  0  0  0  0
   -0.8523   -3.5013    1.8934 H   0  0  0  0  0  0  0  0  0  0  0  0
    0.8111   -4.0741    1.9218 H   0  0  0  0  0  0  0  0  0  0  0  0
    2.1140   -4.2120   -0.2460 H   0  0  0  0  0  0  0  0  0  0  0  0
    1.3197   -3.7179   -1.7430 H   0  0  0  0  0  0  0  0  0  0  0  0
   -0.7803   -5.9659    2.1279 H   0  0  0  0  0  0  0  0  0  0  0  0
   -1.5970   -5.4753    0.6420 H   0  0  0  0  0  0  0  0  0  0  0  0
   -0.2299   -5.6203   -1.6354 H   0  0  0  0  0  0  0  0  0  0  0  0
    1.4353   -6.2016   -1.5643 H   0  0  0  0  0  0  0  0  0  0  0  0
    1.2972   -6.4417    0.8873 H   0  0  0  0  0  0  0  0  0  0  0  0
    3.0358    2.8151    0.1527 H   0  0  0  0  0  0  0  0  0  0  0  0
   -1.1285   -7.7141   -0.4874 H   0  0  0  0  0  0  0  0  0  0  0  0
    0.5243   -8.3533   -0.4881 H   0  0  0  0  0  0  0  0  0  0  0  0
   -0.3853   -8.2563    1.0272 H   0  0  0  0  0  0  0  0  0  0  0  0
    5.8497   -0.3831   -1.1844 H   0  0  0  0  0  0  0  0  0  0  0  0
    4.7322    3.0607    1.1937 H   0  0  0  0  0  0  0  0  0  0  0  0
    8.1902    0.3795   -1.1421 H   0  0  0  0  0  0  0  0  0  0  0  0
    7.0545    3.8049    1.1890 H   0  0  0  0  0  0  0  0  0  0  0  0
  1 22  1  0  0  0  0
  1 25  1  0  0  0  0
  2 38  1  0  0  0  0
  3 15  1  0  0  0  0
  3 58  1  0  0  0  0
  4 20  1  0  0  0  0
  4 59  1  0  0  0  0
  5 24  2  0  0  0  0
  6 32  2  0  0  0  0
  7 19  1  0  0  0  0
  7 25  2  0  0  0  0
  8 24  1  0  0  0  0
  8 26  1  0  0  0  0
  8 27  1  0  0  0  0
  9 25  1  0  0  0  0
  9 32  1  0  0  0  0
  9 69  1  0  0  0  0
 10 11  1  0  0  0  0
 10 13  1  0  0  0  0
 10 14  1  0  0  0  0
 10 18  1  0  0  0  0
 11 12  1  0  0  0  0
 11 16  1  0  0  0  0
 11 39  1  0  0  0  0
 12 15  1  0  0  0  0
 12 20  1  0  0  0  0
 12 21  1  0  0  0  0
 13 19  1  0  0  0  0
 13 23  1  0  0  0  0
 13 40  1  0  0  0  0
 14 17  1  0  0  0  0
 14 41  1  0  0  0  0
 14 42  1  0  0  0  0
 15 17  1  0  0  0  0
 15 43  1  0  0  0  0
 16 22  1  0  0  0  0
 16 44  1  0  0  0  0
 16 45  1  0  0  0  0
 17 46  1  0  0  0  0
 17 47  1  0  0  0  0
 18 48  1  0  0  0  0
 18 49  1  0  0  0  0
 18 50  1  0  0  0  0
 19 22  2  0  0  0  0
 20 51  1  0  0  0  0
 20 52  1  0  0  0  0
 21 53  1  0  0  0  0
 21 54  1  0  0  0  0
 21 55  1  0  0  0  0
 23 24  1  0  0  0  0
 23 56  1  0  0  0  0
 23 57  1  0  0  0  0
 26 28  1  0  0  0  0
 26 60  1  0  0  0  0
 26 61  1  0  0  0  0
 27 29  1  0  0  0  0
 27 62  1  0  0  0  0
 27 63  1  0  0  0  0
 28 30  1  0  0  0  0
 28 64  1  0  0  0  0
 28 65  1  0  0  0  0
 29 30  1  0  0  0  0
 29 66  1  0  0  0  0
 29 67  1  0  0  0  0
 30 31  1  0  0  0  0
 30 68  1  0  0  0  0
 31 70  1  0  0  0  0
 31 71  1  0  0  0  0
 31 72  1  0  0  0  0
 32 33  1  0  0  0  0
 33 34  2  0  0  0  0
 33 35  1  0  0  0  0
 34 36  1  0  0  0  0
 34 73  1  0  0  0  0
 35 37  2  0  0  0  0
 35 74  1  0  0  0  0
 36 38  2  0  0  0  0
 36 75  1  0  0  0  0
 37 38  1  0  0  0  0
 37 76  1  0  0  0  0
M  END
> <PUBCHEM_COMPOUND_CID>
7135144

> <PUBCHEM_CONFORMER_RMSD>
1

> <PUBCHEM_CONFORMER_DIVERSEORDER>
1
11
4
5
6
18
16
12
2
13
10
17
9
8
15
3
7
14

> <PUBCHEM_MMFF94_PARTIAL_CHARGES>
34
1 -0.08
13 0.18
15 0.28
16 0.18
19 0.05
2 -0.19
20 0.28
22 -0.14
23 0.06
24 0.57
25 0.44
26 0.3
27 0.3
3 -0.68
32 0.54
33 0.09
34 -0.15
35 -0.15
36 -0.15
37 -0.15
38 0.19
4 -0.68
5 -0.57
58 0.4
59 0.4
6 -0.57
69 0.37
7 -0.57
73 0.15
74 0.15
75 0.15
76 0.15
8 -0.66
9 -0.49

> <PUBCHEM_EFFECTIVE_ROTOR_COUNT>
9.4

> <PUBCHEM_PHARMACOPHORE_FEATURES>
12
1 3 acceptor
1 3 donor
1 4 acceptor
1 4 donor
1 5 acceptor
1 6 acceptor
1 9 donor
5 1 7 19 22 25 rings
6 10 11 12 14 15 17 rings
6 10 11 13 16 19 22 rings
6 33 34 35 36 37 38 rings
6 8 26 27 28 29 30 rings

> <PUBCHEM_HEAVY_ATOM_COUNT>
38

> <PUBCHEM_ATOM_DEF_STEREO_COUNT>
5

> <PUBCHEM_ATOM_UDEF_STEREO_COUNT>
0

> <PUBCHEM_BOND_DEF_STEREO_COUNT>
0

> <PUBCHEM_BOND_UDEF_STEREO_COUNT>
0

> <PUBCHEM_ISOTOPIC_ATOM_COUNT>
0

> <PUBCHEM_COMPONENT_COUNT>
1

> <PUBCHEM_CACTVS_TAUTO_COUNT>
3

> <PUBCHEM_CONFORMER_ID>
006CDFA800000001

> <PUBCHEM_MMFF94_ENERGY>
113.4774

> <PUBCHEM_FEATURE_SELFOVERLAP>
61.043

> <PUBCHEM_SHAPE_FINGERPRINT>
10050765 1 17906734696902381981
102385 1 17761212519798978456
10290309 65 18335979753517014372
10369192 42 18334573534185736869
10675989 125 18197502827104086240
10940486 97 18044941409678942292
11007060 377 18271243936173082832
11014199 57 17689435310247701194
11135609 187 18341612598809814472
11135926 11 18339075974367135333
11136131 41 18262511473065348634
11411753 3 17608380039420566221
11578080 2 17388807588490594829
11991303 11 18188772876557190238
13248334 5 18122624942491391070
13540713 5 17769934581234582265
14150023 79 18338514145162469999
14790565 3 18410575093259132764
14856354 85 16371006347162263832
14937079 2 16969702183743732592
15064981 194 18193009329546576316
15200665 1 18194682794216249186
15320294 125 18115289117792241746
15347591 1 18122060902755558037
15400415 2 18410572894879286512
15439362 3 18193274101315890049
15444296 8 17765721608763565910
15890870 6 18410853269948451436
15927050 60 18411415142118841078
16090146 7 18269854098037203344
16664035 1 16897079441240220317
16719943 64 18410572916184869770
16993438 75 18191029099960934682
18365409 1 18264770033384034550
20505436 4 17988642957257045501
21133410 171 17042548605225329050
21133665 82 18413390939281246822
21796203 349 16684610943553559569
23559900 14 17760922945051348731
244849 19 17753922444869615209
25019877 29 18260550008793067213
283562 15 18271530796981468585
3383291 50 18338236088694572339
3627633 1 17761490692040667278
4017518 198 18411704292417920270
4058900 60 18411143502220813410
4073 2 18266457801914976248
4408954 64 16303200714675451659
44426701 170 17766828800162801671
4461854 278 18265629839014494955
4516262 110 18337105654278971037
4625314 4 18339363098191600396
504843 32 18335419118493060230
5265222 85 18410294756738867012
5385378 56 18267030457824664505
563151 97 18340481189003068173
57527295 17 18058714816464130301
6371380 46 18271519888323413560
6669772 16 18340491075369132262
6691757 9 18341338898240738000
6898599 12 18191314986322661068
9896288 288 18189057667133323706
9961470 85 18412545410576953950
9981440 41 18334584542234038267

> <PUBCHEM_SHAPE_MULTIPOLES>
740.18
17.61
9.31
1.07
25.45
27.29
-0.11
-29.17
1.21
-0.47
-0.65
-0.72
0.26
1.05

> <PUBCHEM_SHAPE_SELFOVERLAP>
1571.609

> <PUBCHEM_SHAPE_VOLUME>
417.3

> <PUBCHEM_COORDINATE_TYPE>
2
5
10

$$$$
