56776058
  -OEChem-12032416213D

 54 57  0     1  0  0  0  0  0999 V2000
    3.1219   -1.3567    2.7397 F   0  0  0  0  0  0  0  0  0  0  0  0
    3.8753   -2.5611    1.0873 F   0  0  0  0  0  0  0  0  0  0  0  0
    1.7570   -2.6198    1.6058 F   0  0  0  0  0  0  0  0  0  0  0  0
    1.0046    4.0428   -0.6452 O   0  0  0  0  0  0  0  0  0  0  0  0
    3.6927    0.2065    0.5384 O   0  0  0  0  0  0  0  0  0  0  0  0
    0.8901   -0.0868    2.1338 O   0  0  0  0  0  0  0  0  0  0  0  0
    1.1937    1.4062    0.3753 N   0  0  0  0  0  0  0  0  0  0  0  0
   -2.0278    0.8720    0.6614 N   0  0  0  0  0  0  0  0  0  0  0  0
   -1.7475    2.3341   -0.9864 N   0  0  0  0  0  0  0  0  0  0  0  0
    0.0685    2.2695    0.7893 C   0  0  1  0  0  0  0  0  0  0  0  0
    1.8807    1.8003   -0.8615 C   0  0  0  0  0  0  0  0  0  0  0  0
    0.4240    3.7578    0.6280 C   0  0  0  0  0  0  0  0  0  0  0  0
    2.5531   -0.6538    0.5451 C   0  0  1  0  0  0  0  0  0  0  0  0
    1.4700    0.2399    1.0951 C   0  0  0  0  0  0  0  0  0  0  0  0
    2.1967    3.2874   -0.8505 C   0  0  0  0  0  0  0  0  0  0  0  0
   -1.2368    1.8487    0.1233 C   0  0  0  0  0  0  0  0  0  0  0  0
    2.2213   -1.1411   -0.8522 C   0  0  0  0  0  0  0  0  0  0  0  0
    2.8320   -1.8065    1.4970 C   0  0  0  0  0  0  0  0  0  0  0  0
   -3.1119    0.7252   -0.1575 C   0  0  0  0  0  0  0  0  0  0  0  0
   -2.9164    1.6379   -1.1671 C   0  0  0  0  0  0  0  0  0  0  0  0
    0.8908   -1.3135   -1.2335 C   0  0  0  0  0  0  0  0  0  0  0  0
    3.2471   -1.4168   -1.7561 C   0  0  0  0  0  0  0  0  0  0  0  0
   -4.1687   -0.2201    0.0890 C   0  0  0  0  0  0  0  0  0  0  0  0
    3.7382    1.0105    1.7065 C   0  0  0  0  0  0  0  0  0  0  0  0
    0.5859   -1.7619   -2.5187 C   0  0  0  0  0  0  0  0  0  0  0  0
    2.9425   -1.8651   -3.0413 C   0  0  0  0  0  0  0  0  0  0  0  0
    1.6118   -2.0376   -3.4226 C   0  0  0  0  0  0  0  0  0  0  0  0
   -5.4660    0.0560   -0.3424 C   0  0  0  0  0  0  0  0  0  0  0  0
   -3.8954   -1.4125    0.7590 C   0  0  0  0  0  0  0  0  0  0  0  0
   -6.4905   -0.8602   -0.1036 C   0  0  0  0  0  0  0  0  0  0  0  0
   -4.9197   -2.3287    0.9979 C   0  0  0  0  0  0  0  0  0  0  0  0
   -6.2171   -2.0525    0.5667 C   0  0  0  0  0  0  0  0  0  0  0  0
   -0.0909    2.1156    1.8659 H   0  0  0  0  0  0  0  0  0  0  0  0
    1.1711    1.6005   -1.6741 H   0  0  0  0  0  0  0  0  0  0  0  0
    2.7969    1.2760   -1.1041 H   0  0  0  0  0  0  0  0  0  0  0  0
   -0.4649    4.3874    0.7428 H   0  0  0  0  0  0  0  0  0  0  0  0
    1.1394    4.0607    1.4031 H   0  0  0  0  0  0  0  0  0  0  0  0
    2.6119    3.5847   -1.8189 H   0  0  0  0  0  0  0  0  0  0  0  0
    2.9319    3.5515   -0.0832 H   0  0  0  0  0  0  0  0  0  0  0  0
   -1.8401    0.3624    1.5149 H   0  0  0  0  0  0  0  0  0  0  0  0
   -3.5499    1.8341   -2.0207 H   0  0  0  0  0  0  0  0  0  0  0  0
    0.0680   -1.1368   -0.5474 H   0  0  0  0  0  0  0  0  0  0  0  0
    4.2900   -1.2960   -1.4762 H   0  0  0  0  0  0  0  0  0  0  0  0
    4.8017    1.1283    1.9462 H   0  0  0  0  0  0  0  0  0  0  0  0
    3.2756    0.6480    2.6251 H   0  0  0  0  0  0  0  0  0  0  0  0
    3.3906    2.0260    1.5033 H   0  0  0  0  0  0  0  0  0  0  0  0
   -0.4501   -1.9020   -2.8134 H   0  0  0  0  0  0  0  0  0  0  0  0
    3.7412   -2.0817   -3.7447 H   0  0  0  0  0  0  0  0  0  0  0  0
    1.3746   -2.3883   -4.4228 H   0  0  0  0  0  0  0  0  0  0  0  0
   -5.7068    0.9804   -0.8617 H   0  0  0  0  0  0  0  0  0  0  0  0
   -2.8929   -1.6625    1.0973 H   0  0  0  0  0  0  0  0  0  0  0  0
   -7.5010   -0.6449   -0.4383 H   0  0  0  0  0  0  0  0  0  0  0  0
   -4.7069   -3.2585    1.5173 H   0  0  0  0  0  0  0  0  0  0  0  0
   -7.0145   -2.7661    0.7524 H   0  0  0  0  0  0  0  0  0  0  0  0
  1 18  1  0  0  0  0
  2 18  1  0  0  0  0
  3 18  1  0  0  0  0
  4 12  1  0  0  0  0
  4 15  1  0  0  0  0
  5 13  1  0  0  0  0
  5 24  1  0  0  0  0
  6 14  2  0  0  0  0
  7 10  1  0  0  0  0
  7 11  1  0  0  0  0
  7 14  1  0  0  0  0
  8 16  1  0  0  0  0
  8 19  1  0  0  0  0
  8 40  1  0  0  0  0
  9 16  2  0  0  0  0
  9 20  1  0  0  0  0
 10 12  1  0  0  0  0
 10 16  1  0  0  0  0
 10 33  1  0  0  0  0
 11 15  1  0  0  0  0
 11 34  1  0  0  0  0
 11 35  1  0  0  0  0
 12 36  1  0  0  0  0
 12 37  1  0  0  0  0
 13 14  1  0  0  0  0
 13 17  1  0  0  0  0
 13 18  1  0  0  0  0
 15 38  1  0  0  0  0
 15 39  1  0  0  0  0
 17 21  2  0  0  0  0
 17 22  1  0  0  0  0
 19 20  2  0  0  0  0
 19 23  1  0  0  0  0
 20 41  1  0  0  0  0
 21 25  1  0  0  0  0
 21 42  1  0  0  0  0
 22 26  2  0  0  0  0
 22 43  1  0  0  0  0
 23 28  2  0  0  0  0
 23 29  1  0  0  0  0
 24 44  1  0  0  0  0
 24 45  1  0  0  0  0
 24 46  1  0  0  0  0
 25 27  2  0  0  0  0
 25 47  1  0  0  0  0
 26 27  1  0  0  0  0
 26 48  1  0  0  0  0
 27 49  1  0  0  0  0
 28 30  1  0  0  0  0
 28 50  1  0  0  0  0
 29 31  2  0  0  0  0
 29 51  1  0  0  0  0
 30 32  2  0  0  0  0
 30 52  1  0  0  0  0
 31 32  1  0  0  0  0
 31 53  1  0  0  0  0
 32 54  1  0  0  0  0
M  END
> <PUBCHEM_COMPOUND_CID>
56776058

> <PUBCHEM_CONFORMER_RMSD>
1

> <PUBCHEM_CONFORMER_DIVERSEORDER>
1
24
29
38
10
41
57
33
59
11
42
53
13
4
35
45
16
14
44
23
26
54
22
12
15
19
47
58
51
43
3
40
49
21
50
62
30
8
34
48
56
28
18
52
2
5
25
17
60
39
61
46
32
9
37
27
20
55
6
7
31
36

> <PUBCHEM_MMFF94_PARTIAL_CHARGES>
44
1 -0.34
10 0.48
11 0.3
12 0.28
13 0.48
14 0.57
15 0.28
16 0.01
17 -0.14
18 1.02
19 -0.2
2 -0.34
20 0.08
21 -0.15
22 -0.15
23 0.05
24 0.28
25 -0.15
26 -0.15
27 -0.15
28 -0.15
29 -0.15
3 -0.34
30 -0.15
31 -0.15
32 -0.15
4 -0.56
40 0.27
41 0.15
42 0.15
43 0.15
47 0.15
48 0.15
49 0.15
5 -0.56
50 0.15
51 0.15
52 0.15
53 0.15
54 0.15
6 -0.57
7 -0.66
8 0.03
9 -0.57

> <PUBCHEM_EFFECTIVE_ROTOR_COUNT>
8.2

> <PUBCHEM_PHARMACOPHORE_FEATURES>
9
1 4 acceptor
1 5 acceptor
1 6 acceptor
1 8 donor
3 8 9 16 cation
5 8 9 16 19 20 rings
6 17 21 22 25 26 27 rings
6 23 28 29 30 31 32 rings
6 4 7 10 11 12 15 rings

> <PUBCHEM_HEAVY_ATOM_COUNT>
32

> <PUBCHEM_ATOM_DEF_STEREO_COUNT>
2

> <PUBCHEM_ATOM_UDEF_STEREO_COUNT>
0

> <PUBCHEM_BOND_DEF_STEREO_COUNT>
0

> <PUBCHEM_BOND_UDEF_STEREO_COUNT>
0

> <PUBCHEM_ISOTOPIC_ATOM_COUNT>
0

> <PUBCHEM_COMPONENT_COUNT>
1

> <PUBCHEM_CACTVS_TAUTO_COUNT>
2

> <PUBCHEM_CONFORMER_ID>
0362557A00000001

> <PUBCHEM_MMFF94_ENERGY>
100.4206

> <PUBCHEM_FEATURE_SELFOVERLAP>
45.672

> <PUBCHEM_SHAPE_FINGERPRINT>
10076449 9 17489040271380597614
10165383 225 17060052692567136074
10928967 22 18114760321123879139
11488393 25 18124904436327164236
12035758 1 16987699214159590302
12107183 9 18337676288060617801
12166972 35 17095801027536284818
12363563 72 18336827490104035665
12596599 1 18270412577044954081
131258 38 17604693590573327026
13726171 33 18267044789597969788
14068700 675 17605265178354254890
14863182 85 17917715737864658588
14955137 171 18201158853522166848
15484559 13 17683820074010599221
17492 54 18122657030460618132
17921350 177 18339641238970241159
1979834 28 17775007912125096479
20600515 1 18121205489943341764
20645477 70 18339928237770532541
21197605 99 17764030559874699475
23558518 356 16398013939165222137
23559900 14 18188195577355571889
239999 70 18338804519168648673
25222932 49 18336255851400794891
3737641 26 16556801667309889990
404807 78 16446185562391768059
44317340 157 9006516957550231099
484985 159 16019684593823526674
57359948 33 16733810035064956759
6287921 2 17632302267442665063
6669772 16 18049170153148713148
6823239 73 18271540710055183159

> <PUBCHEM_SHAPE_MULTIPOLES>
604.17
10.45
4.03
2.51
21.01
2.76
0.55
-6.53
-2.34
-2.47
1.31
-3.2
-2.13
1.38

> <PUBCHEM_SHAPE_SELFOVERLAP>
1329.228

> <PUBCHEM_SHAPE_VOLUME>
326

> <PUBCHEM_COORDINATE_TYPE>
2
5
10

$$$$
