9420564
  -OEChem-12032416213D

 70 76  0     1  0  0  0  0  0999 V2000
   -2.4972   -1.8385    1.0783 O   0  0  0  0  0  0  0  0  0  0  0  0
    2.6165    0.7958    0.2552 O   0  0  0  0  0  0  0  0  0  0  0  0
   -1.7396    2.8090    3.6708 O   0  0  0  0  0  0  0  0  0  0  0  0
    2.5158   -1.9064    0.9669 N   0  0  2  0  0  0  0  0  0  0  0  0
   -0.4922   -2.5467    0.1212 N   0  0  0  0  0  0  0  0  0  0  0  0
   -1.9704    1.6467    1.0828 N   0  0  0  0  0  0  0  0  0  0  0  0
    1.2028   -4.0027    1.3765 C   0  0  1  0  0  0  0  0  0  0  0  0
    1.6694   -3.3040   -0.9232 C   0  0  2  0  0  0  0  0  0  0  0  0
    1.5610   -4.5217   -0.0096 C   0  0  0  0  0  0  0  0  0  0  0  0
    2.2963   -3.0360    1.8786 C   0  0  0  0  0  0  0  0  0  0  0  0
    2.7833   -2.3663   -0.4040 C   0  0  0  0  0  0  0  0  0  0  0  0
   -0.1826   -3.3453    1.3157 C   0  0  0  0  0  0  0  0  0  0  0  0
    0.3457   -2.5656   -0.9963 C   0  0  0  0  0  0  0  0  0  0  0  0
    3.5928   -1.0452    1.4493 C   0  0  0  0  0  0  0  0  0  0  0  0
   -0.0117   -1.9194   -2.1174 C   0  0  0  0  0  0  0  0  0  0  0  0
   -1.7171   -1.8508    0.1244 C   0  0  0  0  0  0  0  0  0  0  0  0
   -2.0746   -1.1072   -1.1346 C   0  0  0  0  0  0  0  0  0  0  0  0
   -1.2378   -1.1757   -2.1809 C   0  0  0  0  0  0  0  0  0  0  0  0
    3.7616    0.1778    0.5877 C   0  0  0  0  0  0  0  0  0  0  0  0
   -3.3103   -0.3101   -1.2258 C   0  0  0  0  0  0  0  0  0  0  0  0
    4.8596    0.7793    0.0793 C   0  0  0  0  0  0  0  0  0  0  0  0
   -3.3354    1.0390   -0.8649 C   0  0  0  0  0  0  0  0  0  0  0  0
    4.3703    1.8934   -0.6523 C   0  0  0  0  0  0  0  0  0  0  0  0
   -2.1082    1.7345   -0.3695 C   0  0  0  0  0  0  0  0  0  0  0  0
   -4.4767   -0.9263   -1.6845 C   0  0  0  0  0  0  0  0  0  0  0  0
    2.9866    1.8592   -0.5128 C   0  0  0  0  0  0  0  0  0  0  0  0
   -4.5208    1.7679   -0.9623 C   0  0  0  0  0  0  0  0  0  0  0  0
   -3.1236    2.2618    1.7545 C   0  0  0  0  0  0  0  0  0  0  0  0
   -0.7264    2.2895    1.5286 C   0  0  0  0  0  0  0  0  0  0  0  0
   -5.6620   -0.1974   -1.7819 C   0  0  0  0  0  0  0  0  0  0  0  0
    4.9430    2.9255   -1.4159 C   0  0  0  0  0  0  0  0  0  0  0  0
   -5.6841    1.1495   -1.4206 C   0  0  0  0  0  0  0  0  0  0  0  0
    2.1203    2.7889   -1.0847 C   0  0  0  0  0  0  0  0  0  0  0  0
   -2.9515    2.1696    3.2680 C   0  0  0  0  0  0  0  0  0  0  0  0
   -0.6107    2.1956    3.0473 C   0  0  0  0  0  0  0  0  0  0  0  0
    4.0969    3.8757   -2.0042 C   0  0  0  0  0  0  0  0  0  0  0  0
    2.7111    3.8066   -1.8398 C   0  0  0  0  0  0  0  0  0  0  0  0
    1.1552   -4.8422    2.0814 H   0  0  0  0  0  0  0  0  0  0  0  0
    1.9524   -3.6546   -1.9246 H   0  0  0  0  0  0  0  0  0  0  0  0
    2.5120   -5.0673    0.0183 H   0  0  0  0  0  0  0  0  0  0  0  0
    0.7984   -5.2212   -0.3740 H   0  0  0  0  0  0  0  0  0  0  0  0
    3.2286   -3.6008    2.0158 H   0  0  0  0  0  0  0  0  0  0  0  0
    2.0037   -2.6579    2.8661 H   0  0  0  0  0  0  0  0  0  0  0  0
    3.7437   -2.8986   -0.4477 H   0  0  0  0  0  0  0  0  0  0  0  0
    2.8569   -1.5236   -1.1015 H   0  0  0  0  0  0  0  0  0  0  0  0
   -0.3543   -2.7245    2.2043 H   0  0  0  0  0  0  0  0  0  0  0  0
   -0.9455   -4.1353    1.3483 H   0  0  0  0  0  0  0  0  0  0  0  0
    3.3636   -0.6965    2.4644 H   0  0  0  0  0  0  0  0  0  0  0  0
    4.5443   -1.5904    1.5006 H   0  0  0  0  0  0  0  0  0  0  0  0
    0.6239   -1.9124   -2.9967 H   0  0  0  0  0  0  0  0  0  0  0  0
   -1.4471   -0.6562   -3.1115 H   0  0  0  0  0  0  0  0  0  0  0  0
    5.8891    0.4750    0.2037 H   0  0  0  0  0  0  0  0  0  0  0  0
   -2.1363    2.7859   -0.6918 H   0  0  0  0  0  0  0  0  0  0  0  0
   -1.2147    1.3295   -0.8583 H   0  0  0  0  0  0  0  0  0  0  0  0
   -4.4781   -1.9759   -1.9695 H   0  0  0  0  0  0  0  0  0  0  0  0
   -4.5564    2.8224   -0.7010 H   0  0  0  0  0  0  0  0  0  0  0  0
   -3.2270    3.3150    1.4634 H   0  0  0  0  0  0  0  0  0  0  0  0
   -4.0575    1.7372    1.5373 H   0  0  0  0  0  0  0  0  0  0  0  0
   -0.7067    3.3432    1.2224 H   0  0  0  0  0  0  0  0  0  0  0  0
    0.1357    1.7833    1.0847 H   0  0  0  0  0  0  0  0  0  0  0  0
   -6.5677   -0.6785   -2.1394 H   0  0  0  0  0  0  0  0  0  0  0  0
    6.0181    2.9922   -1.5523 H   0  0  0  0  0  0  0  0  0  0  0  0
   -6.6063    1.7178   -1.4996 H   0  0  0  0  0  0  0  0  0  0  0  0
    1.0464    2.7280   -0.9620 H   0  0  0  0  0  0  0  0  0  0  0  0
   -2.9471    1.1281    3.6124 H   0  0  0  0  0  0  0  0  0  0  0  0
   -3.7793    2.6807    3.7701 H   0  0  0  0  0  0  0  0  0  0  0  0
   -0.5277    1.1545    3.3827 H   0  0  0  0  0  0  0  0  0  0  0  0
    0.2858    2.7247    3.3860 H   0  0  0  0  0  0  0  0  0  0  0  0
    4.5269    4.6786   -2.5976 H   0  0  0  0  0  0  0  0  0  0  0  0
    2.0794    4.5566   -2.3093 H   0  0  0  0  0  0  0  0  0  0  0  0
  1 16  2  0  0  0  0
  2 19  1  0  0  0  0
  2 26  1  0  0  0  0
  3 34  1  0  0  0  0
  3 35  1  0  0  0  0
  4 10  1  0  0  0  0
  4 11  1  0  0  0  0
  4 14  1  0  0  0  0
  5 12  1  0  0  0  0
  5 13  1  0  0  0  0
  5 16  1  0  0  0  0
  6 24  1  0  0  0  0
  6 28  1  0  0  0  0
  6 29  1  0  0  0  0
  7  9  1  0  0  0  0
  7 10  1  0  0  0  0
  7 12  1  0  0  0  0
  7 38  1  0  0  0  0
  8  9  1  0  0  0  0
  8 11  1  0  0  0  0
  8 13  1  0  0  0  0
  8 39  1  0  0  0  0
  9 40  1  0  0  0  0
  9 41  1  0  0  0  0
 10 42  1  0  0  0  0
 10 43  1  0  0  0  0
 11 44  1  0  0  0  0
 11 45  1  0  0  0  0
 12 46  1  0  0  0  0
 12 47  1  0  0  0  0
 13 15  2  0  0  0  0
 14 19  1  0  0  0  0
 14 48  1  0  0  0  0
 14 49  1  0  0  0  0
 15 18  1  0  0  0  0
 15 50  1  0  0  0  0
 16 17  1  0  0  0  0
 17 18  2  0  0  0  0
 17 20  1  0  0  0  0
 18 51  1  0  0  0  0
 19 21  2  0  0  0  0
 20 22  1  0  0  0  0
 20 25  2  0  0  0  0
 21 23  1  0  0  0  0
 21 52  1  0  0  0  0
 22 24  1  0  0  0  0
 22 27  2  0  0  0  0
 23 26  1  0  0  0  0
 23 31  2  0  0  0  0
 24 53  1  0  0  0  0
 24 54  1  0  0  0  0
 25 30  1  0  0  0  0
 25 55  1  0  0  0  0
 26 33  2  0  0  0  0
 27 32  1  0  0  0  0
 27 56  1  0  0  0  0
 28 34  1  0  0  0  0
 28 57  1  0  0  0  0
 28 58  1  0  0  0  0
 29 35  1  0  0  0  0
 29 59  1  0  0  0  0
 29 60  1  0  0  0  0
 30 32  2  0  0  0  0
 30 61  1  0  0  0  0
 31 36  1  0  0  0  0
 31 62  1  0  0  0  0
 32 63  1  0  0  0  0
 33 37  1  0  0  0  0
 33 64  1  0  0  0  0
 34 65  1  0  0  0  0
 34 66  1  0  0  0  0
 35 67  1  0  0  0  0
 35 68  1  0  0  0  0
 36 37  2  0  0  0  0
 36 69  1  0  0  0  0
 37 70  1  0  0  0  0
M  END
> <PUBCHEM_COMPOUND_CID>
9420564

> <PUBCHEM_CONFORMER_RMSD>
1

> <PUBCHEM_CONFORMER_DIVERSEORDER>
1
20
15
25
10
17
12
9
19
11
3
16
24
14
6
18
8
13
23
4
5
22
7
21
2

> <PUBCHEM_MMFF94_PARTIAL_CHARGES>
45
1 -0.57
10 0.27
11 0.27
12 0.3
13 -0.03
14 0.45
15 -0.15
16 0.62
17 -0.01
18 -0.15
19 -0.04
2 -0.28
20 0.03
21 -0.15
22 -0.14
24 0.41
25 -0.15
26 0.14
27 -0.15
28 0.27
29 0.27
3 -0.56
30 -0.15
31 -0.15
32 -0.15
33 -0.15
34 0.28
35 0.28
36 -0.15
37 -0.15
4 -0.81
5 -0.47
50 0.15
51 0.15
52 0.15
55 0.15
56 0.15
6 -0.81
61 0.15
62 0.15
63 0.15
64 0.15
69 0.15
70 0.15
8 0.14

> <PUBCHEM_EFFECTIVE_ROTOR_COUNT>
7.2

> <PUBCHEM_PHARMACOPHORE_FEATURES>
12
1 1 acceptor
1 2 acceptor
1 3 acceptor
1 4 cation
1 6 cation
5 2 19 21 23 26 rings
6 20 22 25 27 30 32 rings
6 23 26 31 33 36 37 rings
6 3 6 28 29 34 35 rings
6 4 7 8 9 10 11 rings
6 5 13 15 16 17 18 rings
6 5 7 8 9 12 13 rings

> <PUBCHEM_HEAVY_ATOM_COUNT>
37

> <PUBCHEM_ATOM_DEF_STEREO_COUNT>
2

> <PUBCHEM_ATOM_UDEF_STEREO_COUNT>
0

> <PUBCHEM_BOND_DEF_STEREO_COUNT>
0

> <PUBCHEM_BOND_UDEF_STEREO_COUNT>
0

> <PUBCHEM_ISOTOPIC_ATOM_COUNT>
0

> <PUBCHEM_COMPONENT_COUNT>
1

> <PUBCHEM_CACTVS_TAUTO_COUNT>
1

> <PUBCHEM_CONFORMER_ID>
008FBF1400000001

> <PUBCHEM_MMFF94_ENERGY>
93.4625

> <PUBCHEM_FEATURE_SELFOVERLAP>
62.559

> <PUBCHEM_SHAPE_FINGERPRINT>
10032420 55 17908404094380463815
11513181 2 17272854191056353598
12156800 1 16532364183963755874
12786520 15 15751522430797575539
12788726 201 17988371480125728305
133893 2 18195539090430608073
13560911 43 18043519525994383978
1361 2 18187357766010801613
13761468 95 17616285858229621420
14028597 1 18130804377663463529
14114206 34 17844831345295273385
14279260 333 18265624363600865332
14932702 115 17907022025254605984
17138139 8 18057590165294875669
19319366 153 18268693039137386391
21772528 278 17761259678803645968
244849 19 17460337464287009105
3298306 158 18340193202602547381
3493558 16 18335976489758386781
35225 105 17903378226671571646
3534868 343 17915725493502518439
469060 322 17831004741730601530
474 4 18335689525302216983
474144 1 18340473491751520205
50150288 127 17620226516108857628
5081480 168 17913518794929385878
53814476 47 17251800979221419505
6287921 2 17127051201260772383
6609424 69 16895719391853008240

> <PUBCHEM_SHAPE_MULTIPOLES>
728.89
9.94
6.02
2.92
3.44
2.43
2.39
-7.68
-4.73
-5.68
0.46
1.99
-2.14
-4.09

> <PUBCHEM_SHAPE_SELFOVERLAP>
1618.997

> <PUBCHEM_SHAPE_VOLUME>
383.2

> <PUBCHEM_COORDINATE_TYPE>
2
5
10

$$$$
