25390483
  -OEChem-12032416173D

 58 60  0     1  0  0  0  0  0999 V2000
   -2.6555    0.8174    0.9260 O   0  0  0  0  0  0  0  0  0  0  0  0
   -4.3026    2.6105   -0.8977 O   0  0  0  0  0  0  0  0  0  0  0  0
   -4.8725    0.0751   -1.8006 O   0  0  0  0  0  0  0  0  0  0  0  0
   -0.2915    2.4798    1.6728 O   0  0  0  0  0  0  0  0  0  0  0  0
   -1.1073   -1.4072    2.2063 O   0  0  0  0  0  0  0  0  0  0  0  0
    1.5111    1.6642    0.4554 N   0  0  0  0  0  0  0  0  0  0  0  0
   -2.2906   -1.9218    0.2780 N   0  0  0  0  0  0  0  0  0  0  0  0
   -2.2240    1.8197   -0.0228 C   0  0  2  0  0  0  0  0  0  0  0  0
   -3.2006    1.7529   -1.1919 C   0  0  1  0  0  0  0  0  0  0  0  0
   -3.6381    0.3033   -1.1549 C   0  0  1  0  0  0  0  0  0  0  0  0
   -3.7210    0.0483    0.3408 C   0  0  1  0  0  0  0  0  0  0  0  0
   -0.7913    1.4957   -0.4236 C   0  0  0  0  0  0  0  0  0  0  0  0
    4.2466    2.2404   -0.3193 C   0  0  0  0  0  0  0  0  0  0  0  0
    3.1736    1.8675   -1.3537 C   0  0  0  0  0  0  0  0  0  0  0  0
    3.5957    2.8974    0.9073 C   0  0  0  0  0  0  0  0  0  0  0  0
    2.0753    1.0079   -0.7298 C   0  0  0  0  0  0  0  0  0  0  0  0
    2.4907    2.0159    1.4847 C   0  0  0  0  0  0  0  0  0  0  0  0
    0.1579    1.9258    0.6663 C   0  0  0  0  0  0  0  0  0  0  0  0
   -3.5589   -1.4149    0.7119 C   0  0  0  0  0  0  0  0  0  0  0  0
    5.2982    3.1605   -0.9348 C   0  0  0  0  0  0  0  0  0  0  0  0
   -1.1478   -1.8770    1.0722 C   0  0  0  0  0  0  0  0  0  0  0  0
    0.0952   -2.4203    0.4667 C   0  0  0  0  0  0  0  0  0  0  0  0
    1.1005   -2.9386    1.2831 C   0  0  0  0  0  0  0  0  0  0  0  0
    0.2571   -2.4116   -0.9187 C   0  0  0  0  0  0  0  0  0  0  0  0
    2.2677   -3.4477    0.7143 C   0  0  0  0  0  0  0  0  0  0  0  0
    1.4244   -2.9208   -1.4877 C   0  0  0  0  0  0  0  0  0  0  0  0
    2.4296   -3.4389   -0.6712 C   0  0  0  0  0  0  0  0  0  0  0  0
    3.6781   -3.9835   -1.2791 C   0  0  0  0  0  0  0  0  0  0  0  0
   -2.2971    2.7951    0.4719 H   0  0  0  0  0  0  0  0  0  0  0  0
   -2.7880    2.0583   -2.1577 H   0  0  0  0  0  0  0  0  0  0  0  0
   -2.8734   -0.3160   -1.6364 H   0  0  0  0  0  0  0  0  0  0  0  0
   -4.6707    0.4144    0.7504 H   0  0  0  0  0  0  0  0  0  0  0  0
   -0.5284    2.0545   -1.3289 H   0  0  0  0  0  0  0  0  0  0  0  0
   -0.6691    0.4263   -0.6044 H   0  0  0  0  0  0  0  0  0  0  0  0
    4.7495    1.3199    0.0060 H   0  0  0  0  0  0  0  0  0  0  0  0
    3.6296    1.3262   -2.1908 H   0  0  0  0  0  0  0  0  0  0  0  0
    2.7249    2.7810   -1.7650 H   0  0  0  0  0  0  0  0  0  0  0  0
    3.1700    3.8684    0.6228 H   0  0  0  0  0  0  0  0  0  0  0  0
    4.3511    3.0893    1.6781 H   0  0  0  0  0  0  0  0  0  0  0  0
    1.3166    0.7931   -1.4839 H   0  0  0  0  0  0  0  0  0  0  0  0
    2.4879    0.0473   -0.4004 H   0  0  0  0  0  0  0  0  0  0  0  0
    2.9092    1.0792    1.8717 H   0  0  0  0  0  0  0  0  0  0  0  0
    2.0092    2.5293    2.3228 H   0  0  0  0  0  0  0  0  0  0  0  0
   -4.3411   -2.0249    0.2490 H   0  0  0  0  0  0  0  0  0  0  0  0
   -3.6269   -1.5329    1.7990 H   0  0  0  0  0  0  0  0  0  0  0  0
    4.8535    4.1001   -1.2799 H   0  0  0  0  0  0  0  0  0  0  0  0
    5.7804    2.6792   -1.7921 H   0  0  0  0  0  0  0  0  0  0  0  0
    6.0769    3.4027   -0.2042 H   0  0  0  0  0  0  0  0  0  0  0  0
   -3.9708    3.5246   -0.9083 H   0  0  0  0  0  0  0  0  0  0  0  0
   -4.7811    0.3775   -2.7202 H   0  0  0  0  0  0  0  0  0  0  0  0
   -2.2656   -2.3743   -0.6296 H   0  0  0  0  0  0  0  0  0  0  0  0
    0.9905   -2.9577    2.3642 H   0  0  0  0  0  0  0  0  0  0  0  0
   -0.4877   -1.9912   -1.5878 H   0  0  0  0  0  0  0  0  0  0  0  0
    3.0428   -3.8508    1.3607 H   0  0  0  0  0  0  0  0  0  0  0  0
    1.5416   -2.9035   -2.5680 H   0  0  0  0  0  0  0  0  0  0  0  0
    3.5576   -5.0501   -1.4927 H   0  0  0  0  0  0  0  0  0  0  0  0
    3.9222   -3.4638   -2.2119 H   0  0  0  0  0  0  0  0  0  0  0  0
    4.5337   -3.8543   -0.6075 H   0  0  0  0  0  0  0  0  0  0  0  0
  1  8  1  0  0  0  0
  1 11  1  0  0  0  0
  2  9  1  0  0  0  0
  2 49  1  0  0  0  0
  3 10  1  0  0  0  0
  3 50  1  0  0  0  0
  4 18  2  0  0  0  0
  5 21  2  0  0  0  0
  6 16  1  0  0  0  0
  6 17  1  0  0  0  0
  6 18  1  0  0  0  0
  7 19  1  0  0  0  0
  7 21  1  0  0  0  0
  7 51  1  0  0  0  0
  8  9  1  0  0  0  0
  8 12  1  0  0  0  0
  8 29  1  0  0  0  0
  9 10  1  0  0  0  0
  9 30  1  0  0  0  0
 10 11  1  0  0  0  0
 10 31  1  0  0  0  0
 11 19  1  0  0  0  0
 11 32  1  0  0  0  0
 12 18  1  0  0  0  0
 12 33  1  0  0  0  0
 12 34  1  0  0  0  0
 13 14  1  0  0  0  0
 13 15  1  0  0  0  0
 13 20  1  0  0  0  0
 13 35  1  0  0  0  0
 14 16  1  0  0  0  0
 14 36  1  0  0  0  0
 14 37  1  0  0  0  0
 15 17  1  0  0  0  0
 15 38  1  0  0  0  0
 15 39  1  0  0  0  0
 16 40  1  0  0  0  0
 16 41  1  0  0  0  0
 17 42  1  0  0  0  0
 17 43  1  0  0  0  0
 19 44  1  0  0  0  0
 19 45  1  0  0  0  0
 20 46  1  0  0  0  0
 20 47  1  0  0  0  0
 20 48  1  0  0  0  0
 21 22  1  0  0  0  0
 22 23  2  0  0  0  0
 22 24  1  0  0  0  0
 23 25  1  0  0  0  0
 23 52  1  0  0  0  0
 24 26  2  0  0  0  0
 24 53  1  0  0  0  0
 25 27  2  0  0  0  0
 25 54  1  0  0  0  0
 26 27  1  0  0  0  0
 26 55  1  0  0  0  0
 27 28  1  0  0  0  0
 28 56  1  0  0  0  0
 28 57  1  0  0  0  0
 28 58  1  0  0  0  0
M  END
> <PUBCHEM_COMPOUND_CID>
25390483

> <PUBCHEM_CONFORMER_RMSD>
1.2

> <PUBCHEM_CONFORMER_DIVERSEORDER>
1
8
51
33
49
89
4
75
79
3
66
88
69
87
91
11
62
86
34
10
25
6
82
57
43
30
27
94
53
35
56
9
65
48
55
41
76
13
40
92
7
29
2
59
31
23
61
83
32
38
37
67
81
54
15
84
80
68
44
24
96
74
90
73
12
18
17
36
50
85
46
93
45
39
16
71
20
42
47
19
78
14
63
21
70
5
72
77
60
64
95
22
58
26
52
28

> <PUBCHEM_MMFF94_PARTIAL_CHARGES>
31
1 -0.56
10 0.28
11 0.28
12 0.06
16 0.3
17 0.3
18 0.57
19 0.3
2 -0.68
21 0.54
22 0.09
23 -0.15
24 -0.15
25 -0.15
26 -0.15
27 -0.14
28 0.14
3 -0.68
4 -0.57
49 0.4
5 -0.57
50 0.4
51 0.37
52 0.15
53 0.15
54 0.15
55 0.15
6 -0.66
7 -0.73
8 0.28
9 0.28

> <PUBCHEM_EFFECTIVE_ROTOR_COUNT>
9.2

> <PUBCHEM_PHARMACOPHORE_FEATURES>
11
1 1 acceptor
1 2 acceptor
1 2 donor
1 3 acceptor
1 3 donor
1 4 acceptor
1 5 acceptor
1 7 donor
5 1 8 9 10 11 rings
6 22 23 24 25 26 27 rings
6 6 13 14 15 16 17 rings

> <PUBCHEM_HEAVY_ATOM_COUNT>
28

> <PUBCHEM_ATOM_DEF_STEREO_COUNT>
4

> <PUBCHEM_ATOM_UDEF_STEREO_COUNT>
0

> <PUBCHEM_BOND_DEF_STEREO_COUNT>
0

> <PUBCHEM_BOND_UDEF_STEREO_COUNT>
0

> <PUBCHEM_ISOTOPIC_ATOM_COUNT>
0

> <PUBCHEM_COMPONENT_COUNT>
1

> <PUBCHEM_CACTVS_TAUTO_COUNT>
5

> <PUBCHEM_CONFORMER_ID>
01836D9300000001

> <PUBCHEM_MMFF94_ENERGY>
64.2668

> <PUBCHEM_FEATURE_SELFOVERLAP>
55.836

> <PUBCHEM_SHAPE_FINGERPRINT>
107951 10 17604987198847680210
1100329 8 17764604122169829625
11370993 70 18261672670384316796
11477941 20 17407986301173874166
11578080 2 17459166548527049519
12156800 1 15478684556210126206
12553582 1 17618508683560853419
13149001 5 18117848689765395251
13383661 66 17194589123951929103
133893 2 18265340516467298481
13402501 40 18124891297753206210
13615921 28 18053394197216341502
14251757 5 17688604066577845924
14955137 171 17404885652312521841
15439362 3 18189892015838050604
20028762 73 17622735636330656735
20567600 347 18336531807154002589
20600515 1 17402023627280997905
20642791 239 17686899415321916385
20905425 154 18410299129073258759
21344244 246 18341885307710853494
22182313 1 18040719152353170563
23419403 2 17900296076540689683
23559900 14 18196361537849387156
238 59 18342738507285141902
238918 7 18268153243895775246
3027735 51 18125436664248135591
3298306 158 18411696612625660068
4280585 95 17905317434565841314
4409770 3 18049446147567188572
463206 1 17833568803453249300
5085150 59 18340761637941206242
5265222 85 18048890885268240732
59755656 215 18264199400414732079

> <PUBCHEM_SHAPE_MULTIPOLES>
536.92
8.48
5.74
1.67
0.57
4.09
0.14
-6.39
-3.27
-6.73
-0.46
0.16
0.17
1.46

> <PUBCHEM_SHAPE_SELFOVERLAP>
1122.657

> <PUBCHEM_SHAPE_VOLUME>
302.2

> <PUBCHEM_COORDINATE_TYPE>
2
5
10

$$$$
