11885938
  -OEChem-12032416373D

 60 64  0     1  0  0  0  0  0999 V2000
   -2.4054    1.4484    0.9140 O   0  0  0  0  0  0  0  0  0  0  0  0
   -3.0615    3.0606   -1.6107 O   0  0  0  0  0  0  0  0  0  0  0  0
    0.0659    2.2522   -0.0619 O   0  0  0  0  0  0  0  0  0  0  0  0
   -7.1102    0.9245    0.4519 O   0  0  0  0  0  0  0  0  0  0  0  0
    1.1708    0.5389   -1.0982 O   0  0  0  0  0  0  0  0  0  0  0  0
   -7.8646   -3.2630    0.5421 O   0  0  0  0  0  0  0  0  0  0  0  0
    6.9740   -0.8884    1.5159 O   0  0  0  0  0  0  0  0  0  0  0  0
   -5.0330    0.2613   -0.2982 N   0  0  0  0  0  0  0  0  0  0  0  0
    2.0877    1.6580    0.7421 N   0  0  0  0  0  0  0  0  0  0  0  0
   -6.9956   -3.5758   -0.4962 N   0  0  0  0  0  0  0  0  0  0  0  0
   -3.3035    1.6799   -1.2684 C   0  0  1  0  0  0  0  0  0  0  0  0
   -2.1043    1.2084   -0.4708 C   0  0  1  0  0  0  0  0  0  0  0  0
   -4.4508    1.5812   -0.2903 C   0  0  2  0  0  0  0  0  0  0  0  0
   -1.0041    2.1143   -0.9693 C   0  0  1  0  0  0  0  0  0  0  0  0
   -3.7705    1.8773    1.0351 C   0  0  0  0  0  0  0  0  0  0  0  0
   -1.7381    3.4184   -1.1861 C   0  0  0  0  0  0  0  0  0  0  0  0
   -6.3513    0.0287    0.0832 C   0  0  0  0  0  0  0  0  0  0  0  0
    1.1323    1.3913   -0.2193 C   0  0  0  0  0  0  0  0  0  0  0  0
   -6.7845   -1.3752    0.0515 C   0  0  0  0  0  0  0  0  0  0  0  0
   -7.7297   -1.9500    0.8594 C   0  0  0  0  0  0  0  0  0  0  0  0
   -6.3613   -2.4327   -0.7722 C   0  0  0  0  0  0  0  0  0  0  0  0
    3.3297    1.0121    0.9378 C   0  0  0  0  0  0  0  0  0  0  0  0
   -8.5839   -1.4526    1.9464 C   0  0  0  0  0  0  0  0  0  0  0  0
   -5.3489   -2.4015   -1.8413 C   0  0  0  0  0  0  0  0  0  0  0  0
    4.1733    1.4209    1.9707 C   0  0  0  0  0  0  0  0  0  0  0  0
    3.7110   -0.0349    0.0988 C   0  0  0  0  0  0  0  0  0  0  0  0
    5.3984    0.7827    2.1646 C   0  0  0  0  0  0  0  0  0  0  0  0
    4.9361   -0.6731    0.2926 C   0  0  0  0  0  0  0  0  0  0  0  0
    5.7797   -0.2643    1.3254 C   0  0  0  0  0  0  0  0  0  0  0  0
    7.7548   -1.1388    0.3998 C   0  0  0  0  0  0  0  0  0  0  0  0
    7.9352   -0.1451   -0.5623 C   0  0  0  0  0  0  0  0  0  0  0  0
    8.3599   -2.3849    0.2373 C   0  0  0  0  0  0  0  0  0  0  0  0
    8.7208   -0.3976   -1.6870 C   0  0  0  0  0  0  0  0  0  0  0  0
    9.1456   -2.6375   -0.8873 C   0  0  0  0  0  0  0  0  0  0  0  0
    9.3260   -1.6437   -1.8494 C   0  0  0  0  0  0  0  0  0  0  0  0
   -3.4500    1.1265   -2.2015 H   0  0  0  0  0  0  0  0  0  0  0  0
   -1.8818    0.1433   -0.5830 H   0  0  0  0  0  0  0  0  0  0  0  0
   -5.2382    2.3172   -0.4856 H   0  0  0  0  0  0  0  0  0  0  0  0
   -0.6626    1.7657   -1.9538 H   0  0  0  0  0  0  0  0  0  0  0  0
   -4.2314    1.3775    1.8925 H   0  0  0  0  0  0  0  0  0  0  0  0
   -3.7533    2.9546    1.2335 H   0  0  0  0  0  0  0  0  0  0  0  0
   -1.2632    4.0415   -1.9500 H   0  0  0  0  0  0  0  0  0  0  0  0
   -1.8095    4.0134   -0.2687 H   0  0  0  0  0  0  0  0  0  0  0  0
   -4.4153   -0.5213   -0.4820 H   0  0  0  0  0  0  0  0  0  0  0  0
    1.8745    2.4117    1.3910 H   0  0  0  0  0  0  0  0  0  0  0  0
   -7.9963   -0.8786    2.6697 H   0  0  0  0  0  0  0  0  0  0  0  0
   -9.0654   -2.2747    2.4855 H   0  0  0  0  0  0  0  0  0  0  0  0
   -9.3696   -0.8031    1.5487 H   0  0  0  0  0  0  0  0  0  0  0  0
   -5.4141   -1.4811   -2.4299 H   0  0  0  0  0  0  0  0  0  0  0  0
   -5.4855   -3.2351   -2.5395 H   0  0  0  0  0  0  0  0  0  0  0  0
   -4.3404   -2.4861   -1.4244 H   0  0  0  0  0  0  0  0  0  0  0  0
    3.8880    2.2353    2.6317 H   0  0  0  0  0  0  0  0  0  0  0  0
    3.1082   -0.4093   -0.7168 H   0  0  0  0  0  0  0  0  0  0  0  0
    6.0515    1.1053    2.9709 H   0  0  0  0  0  0  0  0  0  0  0  0
    5.1976   -1.5015   -0.3608 H   0  0  0  0  0  0  0  0  0  0  0  0
    7.4936    0.8415   -0.4503 H   0  0  0  0  0  0  0  0  0  0  0  0
    8.2223   -3.1626    0.9834 H   0  0  0  0  0  0  0  0  0  0  0  0
    8.8655    0.3775   -2.4338 H   0  0  0  0  0  0  0  0  0  0  0  0
    9.6170   -3.6077   -1.0137 H   0  0  0  0  0  0  0  0  0  0  0  0
    9.9387   -1.8400   -2.7244 H   0  0  0  0  0  0  0  0  0  0  0  0
  1 12  1  0  0  0  0
  1 15  1  0  0  0  0
  2 11  1  0  0  0  0
  2 16  1  0  0  0  0
  3 14  1  0  0  0  0
  3 18  1  0  0  0  0
  4 17  2  0  0  0  0
  5 18  2  0  0  0  0
  6 10  1  0  0  0  0
  6 20  1  0  0  0  0
  7 29  1  0  0  0  0
  7 30  1  0  0  0  0
  8 13  1  0  0  0  0
  8 17  1  0  0  0  0
  8 44  1  0  0  0  0
  9 18  1  0  0  0  0
  9 22  1  0  0  0  0
  9 45  1  0  0  0  0
 10 21  2  0  0  0  0
 11 12  1  0  0  0  0
 11 13  1  0  0  0  0
 11 36  1  0  0  0  0
 12 14  1  0  0  0  0
 12 37  1  0  0  0  0
 13 15  1  0  0  0  0
 13 38  1  0  0  0  0
 14 16  1  0  0  0  0
 14 39  1  0  0  0  0
 15 40  1  0  0  0  0
 15 41  1  0  0  0  0
 16 42  1  0  0  0  0
 16 43  1  0  0  0  0
 17 19  1  0  0  0  0
 19 20  2  0  0  0  0
 19 21  1  0  0  0  0
 20 23  1  0  0  0  0
 21 24  1  0  0  0  0
 22 25  2  0  0  0  0
 22 26  1  0  0  0  0
 23 46  1  0  0  0  0
 23 47  1  0  0  0  0
 23 48  1  0  0  0  0
 24 49  1  0  0  0  0
 24 50  1  0  0  0  0
 24 51  1  0  0  0  0
 25 27  1  0  0  0  0
 25 52  1  0  0  0  0
 26 28  2  0  0  0  0
 26 53  1  0  0  0  0
 27 29  2  0  0  0  0
 27 54  1  0  0  0  0
 28 29  1  0  0  0  0
 28 55  1  0  0  0  0
 30 31  2  0  0  0  0
 30 32  1  0  0  0  0
 31 33  1  0  0  0  0
 31 56  1  0  0  0  0
 32 34  2  0  0  0  0
 32 57  1  0  0  0  0
 33 35  2  0  0  0  0
 33 58  1  0  0  0  0
 34 35  1  0  0  0  0
 34 59  1  0  0  0  0
 35 60  1  0  0  0  0
M  END
> <PUBCHEM_COMPOUND_CID>
11885938

> <PUBCHEM_CONFORMER_RMSD>
1

> <PUBCHEM_CONFORMER_DIVERSEORDER>
1
125
167
159
93
241
71
10
222
206
220
95
133
148
72
203
232
77
141
242
105
171
236
193
33
106
166
217
46
79
17
172
189
229
38
234
244
117
59
227
204
129
165
23
89
239
192
199
52
139
103
11
115
101
41
182
140
151
75
187
55
175
200
7
116
176
158
29
179
160
145
195
68
169
228
110
135
201
99
191
88
118
136
70
123
209
113
230
243
221
73
197
214
157
34
26
224
152
180
155
98
177
183
178
40
48
190
126
215
143
47
154
142
128
194
238
240
212
78
96
65
156
84
124
20
168
69
109
150
82
173
119
85
131
31
66
87
94
97
216
162
8
83
92
127
196
51
223
57
233
62
61
28
108
111
114
144
237
153
121
181
138
198
3
100
63
43
120
102
188
149
218
130
50
9
164
147
64
170
231
107
90
30
174
211
226
58
163
122
4
67
74
235
54
219
15
5
76
91
161
60
210
81
184
49
22
12
16
27
213
44
207
225
53
32
86
202
37
205
6
42
134
25
36
132
80
186
19
24
208
13
137
185
21
39
104
45
2
56
112
35
14
146
18

> <PUBCHEM_MMFF94_PARTIAL_CHARGES>
46
1 -0.56
10 -0.41
11 0.28
12 0.28
13 0.3
14 0.28
15 0.28
16 0.28
17 0.72
18 0.78
19 -0.09
2 -0.56
20 -0.04
21 0.11
22 0.12
23 0.18
24 0.18
25 -0.15
26 -0.15
27 -0.15
28 -0.15
29 0.08
3 -0.43
30 0.08
31 -0.15
32 -0.15
33 -0.15
34 -0.15
35 -0.15
4 -0.57
44 0.37
45 0.37
5 -0.57
52 0.15
53 0.15
54 0.15
55 0.15
56 0.15
57 0.15
58 0.15
59 0.15
6 -0.02
60 0.15
7 -0.17
8 -0.73
9 -0.55

> <PUBCHEM_EFFECTIVE_ROTOR_COUNT>
10.2

> <PUBCHEM_PHARMACOPHORE_FEATURES>
13
1 1 acceptor
1 10 acceptor
1 2 acceptor
1 4 acceptor
1 5 acceptor
1 7 acceptor
1 8 donor
1 9 donor
5 1 11 12 13 15 rings
5 2 11 12 14 16 rings
5 6 10 19 20 21 rings
6 22 25 26 27 28 29 rings
6 30 31 32 33 34 35 rings

> <PUBCHEM_HEAVY_ATOM_COUNT>
35

> <PUBCHEM_ATOM_DEF_STEREO_COUNT>
4

> <PUBCHEM_ATOM_UDEF_STEREO_COUNT>
0

> <PUBCHEM_BOND_DEF_STEREO_COUNT>
0

> <PUBCHEM_BOND_UDEF_STEREO_COUNT>
0

> <PUBCHEM_ISOTOPIC_ATOM_COUNT>
0

> <PUBCHEM_COMPONENT_COUNT>
1

> <PUBCHEM_CACTVS_TAUTO_COUNT>
4

> <PUBCHEM_CONFORMER_ID>
00B55D7200000001

> <PUBCHEM_MMFF94_ENERGY>
98.9471

> <PUBCHEM_FEATURE_SELFOVERLAP>
66.693

> <PUBCHEM_SHAPE_FINGERPRINT>
10190108 129 18412824707366955494
10258705 36 18271812281302598494
10280341 67 10591774155869596699
10533779 1 11023838236704735443
10533779 47 16486986072334391102
10625338 131 10879988064942478862
10917259 128 9655302497231615558
10952577 141 15142339362997800935
11456790 92 14620791613581446458
11475781 23 8935004810782851112
11497681 19 18261111898132535796
11578821 258 10087048871210826946
11621639 307 9871210293397387275
11761917 87 16988568966484856918
12539745 222 18201442446440241433
12717326 120 18341057431585372038
13627175 4 18114175316064558362
13782708 43 18337376206151281601
14344974 204 18058721549970674327
14444916 359 18060420192598673710
15131766 46 10014494298238533487
15183329 4 12613017385053274177
15392192 29 17749685021445570657
15461852 350 18040719138713940316
16067689 68 18200886153865223699
16120349 21 18412544319317046525
16728433 281 12180106667528098711
16989713 51 18261386728905252349
16991971 28 18113902680019707404
16992779 147 16700031989355162024
16993089 31 18271801303085491116
16994733 274 9871750208517390444
1818759 1 18333455347902637203
18608769 82 18412824668806747102
20105231 36 17703790298227192766
20982279 24 17489039154546825398
21424621 283 10519712219587940645
21585481 151 18413672400623995273
21781051 124 18272654541832002174
21781055 127 12967137155525780816
23389318 12 16950567696960458758
23729417 116 18040712532944743541
25242607 90 18336538434921576043
255183 451 18187645829847373340
2747138 104 18059849550580254200
3178227 256 17132113533821788452
3383291 50 18042116708810325459
397638 5 10159701279125720854
44802255 64 12757154576262705009
4516262 110 10303550377351666777
45377200 153 18411984667899171330
4625314 4 18410570682412109581
4760202 70 18041569156219493628
5028188 123 18336267856108622484
54039377 194 18186525414787048151
54076057 127 18059286665621275584
5937810 71 11963661193793255007
6289498 60 12031789184191023010
636775 72 9583509928255879675
636775 8 18411141295377594342
636783 248 14692277479760219746
9896288 288 18059296440402254113
999808 66 18060131042193105517

> <PUBCHEM_SHAPE_MULTIPOLES>
664.26
34.6
3.73
1.79
26.12
0.95
-0.21
36.04
-0.06
-6.16
1.14
1.32
-0.12
2.67

> <PUBCHEM_SHAPE_SELFOVERLAP>
1450.663

> <PUBCHEM_SHAPE_VOLUME>
361.4

> <PUBCHEM_COORDINATE_TYPE>
2
5
10

$$$$
