75536644
  -OEChem-12032416303D

 52 54  0     1  0  0  0  0  0999 V2000
   -4.6317   -0.9736   -0.2384 S   0  0  0  0  0  0  0  0  0  0  0  0
   -3.1462    3.1735    1.4699 F   0  0  0  0  0  0  0  0  0  0  0  0
    4.4912    0.7685    0.9490 O   0  0  0  0  0  0  0  0  0  0  0  0
    5.3028   -2.0612   -0.3171 O   0  0  0  0  0  0  0  0  0  0  0  0
    1.1847    0.5896   -2.3162 O   0  0  0  0  0  0  0  0  0  0  0  0
   -5.1156   -0.3306    0.9756 O   0  0  0  0  0  0  0  0  0  0  0  0
   -4.8104   -0.3159   -1.5251 O   0  0  0  0  0  0  0  0  0  0  0  0
    2.0046   -1.0328    0.8235 N   0  0  0  0  0  0  0  0  0  0  0  0
    2.5859    1.5388   -0.7291 N   0  0  0  0  0  0  0  0  0  0  0  0
    3.4254   -1.3455    0.9616 C   0  0  1  0  0  0  0  0  0  0  0  0
    4.1613   -1.2016   -0.3589 C   0  0  1  0  0  0  0  0  0  0  0  0
    4.6321    0.2520   -0.3875 C   0  0  1  0  0  0  0  0  0  0  0  0
    4.1241   -0.3058    1.8226 C   0  0  0  0  0  0  0  0  0  0  0  0
    3.8250    1.1339   -1.3281 C   0  0  0  0  0  0  0  0  0  0  0  0
    1.2456   -2.2089    0.4153 C   0  0  0  0  0  0  0  0  0  0  0  0
   -0.2193   -1.9019    0.2521 C   0  0  0  0  0  0  0  0  0  0  0  0
    1.3460    1.2291   -1.2801 C   0  0  0  0  0  0  0  0  0  0  0  0
   -1.0320   -1.7618    1.3772 C   0  0  0  0  0  0  0  0  0  0  0  0
   -0.7639   -1.7575   -1.0239 C   0  0  0  0  0  0  0  0  0  0  0  0
   -2.9336   -1.3330   -0.0500 C   0  0  0  0  0  0  0  0  0  0  0  0
   -2.3891   -1.4773    1.2262 C   0  0  0  0  0  0  0  0  0  0  0  0
   -2.1210   -1.4732   -1.1750 C   0  0  0  0  0  0  0  0  0  0  0  0
    0.1576    1.7442   -0.5525 C   0  0  0  0  0  0  0  0  0  0  0  0
   -1.0281    1.9949   -1.2431 C   0  0  0  0  0  0  0  0  0  0  0  0
    0.2270    1.9763    0.8212 C   0  0  0  0  0  0  0  0  0  0  0  0
   -5.4145   -2.5684   -0.3264 C   0  0  0  0  0  0  0  0  0  0  0  0
   -2.1442    2.4781   -0.5603 C   0  0  0  0  0  0  0  0  0  0  0  0
   -0.8890    2.4595    1.5041 C   0  0  0  0  0  0  0  0  0  0  0  0
   -2.0746    2.7104    0.8134 C   0  0  0  0  0  0  0  0  0  0  0  0
    3.5577   -2.3283    1.4305 H   0  0  0  0  0  0  0  0  0  0  0  0
    3.5802   -1.4954   -1.2384 H   0  0  0  0  0  0  0  0  0  0  0  0
    5.6914    0.3125   -0.6635 H   0  0  0  0  0  0  0  0  0  0  0  0
    3.5158    0.0810    2.6463 H   0  0  0  0  0  0  0  0  0  0  0  0
    5.0470   -0.7133    2.2519 H   0  0  0  0  0  0  0  0  0  0  0  0
    3.6728    0.6585   -2.3022 H   0  0  0  0  0  0  0  0  0  0  0  0
    4.3766    2.0655   -1.4995 H   0  0  0  0  0  0  0  0  0  0  0  0
    1.6432   -0.7103    1.7215 H   0  0  0  0  0  0  0  0  0  0  0  0
    1.3477   -3.0126    1.1565 H   0  0  0  0  0  0  0  0  0  0  0  0
    1.6353   -2.6107   -0.5280 H   0  0  0  0  0  0  0  0  0  0  0  0
    5.7854   -1.9432   -1.1532 H   0  0  0  0  0  0  0  0  0  0  0  0
    2.6495    2.1408    0.0848 H   0  0  0  0  0  0  0  0  0  0  0  0
   -0.6195   -1.8730    2.3765 H   0  0  0  0  0  0  0  0  0  0  0  0
   -0.1442   -1.8692   -1.9094 H   0  0  0  0  0  0  0  0  0  0  0  0
   -3.0046   -1.3770    2.1156 H   0  0  0  0  0  0  0  0  0  0  0  0
   -2.5246   -1.3712   -2.1783 H   0  0  0  0  0  0  0  0  0  0  0  0
   -1.1016    1.8229   -2.3137 H   0  0  0  0  0  0  0  0  0  0  0  0
    1.1214    1.7737    1.4021 H   0  0  0  0  0  0  0  0  0  0  0  0
   -6.4882   -2.4124   -0.4504 H   0  0  0  0  0  0  0  0  0  0  0  0
   -5.0160   -3.1124   -1.1848 H   0  0  0  0  0  0  0  0  0  0  0  0
   -5.2214   -3.1107    0.6012 H   0  0  0  0  0  0  0  0  0  0  0  0
   -3.0680    2.6719   -1.0972 H   0  0  0  0  0  0  0  0  0  0  0  0
   -0.8377    2.6349    2.5746 H   0  0  0  0  0  0  0  0  0  0  0  0
  1  6  2  0  0  0  0
  1  7  2  0  0  0  0
  1 20  1  0  0  0  0
  1 26  1  0  0  0  0
  2 29  1  0  0  0  0
  3 12  1  0  0  0  0
  3 13  1  0  0  0  0
  4 11  1  0  0  0  0
  4 40  1  0  0  0  0
  5 17  2  0  0  0  0
  8 10  1  0  0  0  0
  8 15  1  0  0  0  0
  8 37  1  0  0  0  0
  9 14  1  0  0  0  0
  9 17  1  0  0  0  0
  9 41  1  0  0  0  0
 10 11  1  0  0  0  0
 10 13  1  0  0  0  0
 10 30  1  0  0  0  0
 11 12  1  0  0  0  0
 11 31  1  0  0  0  0
 12 14  1  0  0  0  0
 12 32  1  0  0  0  0
 13 33  1  0  0  0  0
 13 34  1  0  0  0  0
 14 35  1  0  0  0  0
 14 36  1  0  0  0  0
 15 16  1  0  0  0  0
 15 38  1  0  0  0  0
 15 39  1  0  0  0  0
 16 18  2  0  0  0  0
 16 19  1  0  0  0  0
 17 23  1  0  0  0  0
 18 21  1  0  0  0  0
 18 42  1  0  0  0  0
 19 22  2  0  0  0  0
 19 43  1  0  0  0  0
 20 21  2  0  0  0  0
 20 22  1  0  0  0  0
 21 44  1  0  0  0  0
 22 45  1  0  0  0  0
 23 24  2  0  0  0  0
 23 25  1  0  0  0  0
 24 27  1  0  0  0  0
 24 46  1  0  0  0  0
 25 28  2  0  0  0  0
 25 47  1  0  0  0  0
 26 48  1  0  0  0  0
 26 49  1  0  0  0  0
 26 50  1  0  0  0  0
 27 29  2  0  0  0  0
 27 51  1  0  0  0  0
 28 29  1  0  0  0  0
 28 52  1  0  0  0  0
M  END
> <PUBCHEM_COMPOUND_CID>
75536644

> <PUBCHEM_CONFORMER_RMSD>
1

> <PUBCHEM_CONFORMER_DIVERSEORDER>
3
174
66
185
216
1
191
166
165
17
135
184
61
171
90
27
10
160
150
137
176
16
14
102
21
179
29
175
79
69
85
68
126
144
158
172
5
152
161
77
37
148
121
97
84
202
199
28
80
55
53
168
24
186
63
154
212
156
192
92
81
89
98
128
78
134
173
201
145
59
117
52
130
112
30
210
113
195
99
96
39
127
83
62
111
100
207
178
129
146
42
93
143
31
110
43
188
118
67
183
177
132
122
8
56
58
114
11
74
104
140
108
124
157
20
32
211
116
105
147
193
215
164
208
48
163
6
107
40
197
133
76
44
153
9
190
206
54
88
209
181
142
103
109
60
180
51
167
182
26
194
125
38
34
94
203
73
4
214
159
119
120
22
33
87
86
198
36
45
205
12
91
47
187
115
189
170
64
136
169
162
213
151
95
141
200
106
57
155
41
82
49
72
25
70
15
101
71
123
204
65
35
196
46
13
23
75
131
50
18
2
138
149
139
19
7

> <PUBCHEM_MMFF94_PARTIAL_CHARGES>
40
1 1.2
10 0.27
11 0.28
12 0.28
13 0.28
14 0.3
15 0.41
16 -0.14
17 0.54
18 -0.15
19 -0.15
2 -0.19
20 -0.01
21 -0.15
22 -0.15
23 0.09
24 -0.15
25 -0.15
26 0.11
27 -0.15
28 -0.15
29 0.19
3 -0.56
37 0.36
4 -0.68
40 0.4
41 0.37
42 0.15
43 0.15
44 0.15
45 0.15
46 0.15
47 0.15
5 -0.57
51 0.15
52 0.15
6 -0.65
7 -0.65
8 -0.9
9 -0.73

> <PUBCHEM_EFFECTIVE_ROTOR_COUNT>
9

> <PUBCHEM_PHARMACOPHORE_FEATURES>
12
1 3 acceptor
1 4 acceptor
1 4 donor
1 5 acceptor
1 6 acceptor
1 7 acceptor
1 8 cation
1 8 donor
1 9 donor
5 3 10 11 12 13 rings
6 16 18 19 20 21 22 rings
6 23 24 25 27 28 29 rings

> <PUBCHEM_HEAVY_ATOM_COUNT>
29

> <PUBCHEM_ATOM_DEF_STEREO_COUNT>
3

> <PUBCHEM_ATOM_UDEF_STEREO_COUNT>
0

> <PUBCHEM_BOND_DEF_STEREO_COUNT>
0

> <PUBCHEM_BOND_UDEF_STEREO_COUNT>
0

> <PUBCHEM_ISOTOPIC_ATOM_COUNT>
0

> <PUBCHEM_COMPONENT_COUNT>
1

> <PUBCHEM_CACTVS_TAUTO_COUNT>
2

> <PUBCHEM_CONFORMER_ID>
0480990400000003

> <PUBCHEM_MMFF94_ENERGY>
59.48

> <PUBCHEM_FEATURE_SELFOVERLAP>
60.916

> <PUBCHEM_SHAPE_FINGERPRINT>
104564 63 18410863161073179840
10670039 82 18410583864267419582
11513181 2 18271253698655411166
11646440 116 18269281321187487499
12107698 1 18410572860598636974
12166972 35 18041562541737501895
12422481 6 18194424224674479745
12467345 10 18113898247439274173
12788726 201 18269288987356243228
13140716 1 18046620376872140522
14251757 17 17095785686018410183
14464042 87 18410858771896113227
14787075 74 18187079594301700131
14955137 171 18270965764543602827
16752209 62 18411707586293410228
17349148 13 18333737913753392591
17357779 13 18411407419439822251
21236236 1 18337675209559147338
23557571 272 18059296465575724610
23559900 14 18192435388592321108
24893992 56 18187081794321721227
2818148 4 17900256404281924922
3027735 51 18339082592563318779
463206 1 18122621923292756463
469060 322 17531245007072488966
6287921 2 17265255367512356045
7064713 232 18267585693531415240

> <PUBCHEM_SHAPE_MULTIPOLES>
554.07
10.14
3.49
1.67
0.45
1.61
-0.03
-4.96
-0.19
-2.1
0.65
0.19
0.47
-1.14

> <PUBCHEM_SHAPE_SELFOVERLAP>
1165.723

> <PUBCHEM_SHAPE_VOLUME>
316.1

> <PUBCHEM_COORDINATE_TYPE>
2
5
10

$$$$
