26762246
  -OEChem-12032416183D

 67 70  0     1  0  0  0  0  0999 V2000
   -4.5766    4.1450   -0.9466 F   0  0  0  0  0  0  0  0  0  0  0  0
   -0.6523   -1.0532   -4.1739 O   0  0  0  0  0  0  0  0  0  0  0  0
    2.8742    2.6263   -0.6187 O   0  0  0  0  0  0  0  0  0  0  0  0
   -5.3446   -2.5141    0.5448 O   0  0  0  0  0  0  0  0  0  0  0  0
   -0.7552   -1.0263   -0.6390 N   0  0  2  0  0  0  0  0  0  0  0  0
   -1.7857   -2.4419   -2.7393 N   0  0  0  0  0  0  0  0  0  0  0  0
    1.9767    0.5334   -0.1794 N   0  0  0  0  0  0  0  0  0  0  0  0
   -4.3339   -1.2982    2.2444 N   0  0  0  0  0  0  0  0  0  0  0  0
    8.2042   -0.4934    0.9678 N   0  0  0  0  0  0  0  0  0  0  0  0
   -0.9397   -0.3127   -1.9058 C   0  0  1  0  0  0  0  0  0  0  0  0
   -1.9577   -1.7961   -0.3159 C   0  0  1  0  0  0  0  0  0  0  0  0
    0.6081    0.8680   -0.4862 C   0  0  1  0  0  0  0  0  0  0  0  0
    0.2859    0.5865   -1.9586 C   0  0  0  0  0  0  0  0  0  0  0  0
   -0.3807    0.0164    0.3158 C   0  0  0  0  0  0  0  0  0  0  0  0
   -2.0864   -2.8882   -1.3871 C   0  0  0  0  0  0  0  0  0  0  0  0
   -1.0658   -1.3013   -3.0420 C   0  0  0  0  0  0  0  0  0  0  0  0
   -1.9018   -2.4426    1.0701 C   0  0  0  0  0  0  0  0  0  0  0  0
   -3.1785   -3.2160    1.3676 C   0  0  0  0  0  0  0  0  0  0  0  0
    3.0094    1.4554   -0.2734 C   0  0  0  0  0  0  0  0  0  0  0  0
   -4.4087   -2.3280    1.3180 C   0  0  0  0  0  0  0  0  0  0  0  0
    4.3669    0.9468    0.0515 C   0  0  0  0  0  0  0  0  0  0  0  0
    5.4906    1.5454   -0.5181 C   0  0  0  0  0  0  0  0  0  0  0  0
    4.5178   -0.1299    0.9254 C   0  0  0  0  0  0  0  0  0  0  0  0
   -5.3822   -0.3165    2.3922 C   0  0  0  0  0  0  0  0  0  0  0  0
    6.7652    1.0674   -0.2142 C   0  0  0  0  0  0  0  0  0  0  0  0
    5.7923   -0.6081    1.2294 C   0  0  0  0  0  0  0  0  0  0  0  0
    6.9160   -0.0095    0.6596 C   0  0  0  0  0  0  0  0  0  0  0  0
   -5.1675    0.8731    1.5018 C   0  0  0  0  0  0  0  0  0  0  0  0
   -4.4366    1.9674    1.9645 C   0  0  0  0  0  0  0  0  0  0  0  0
   -5.6986    0.8843    0.2120 C   0  0  0  0  0  0  0  0  0  0  0  0
    8.3712   -1.6070    1.8807 C   0  0  0  0  0  0  0  0  0  0  0  0
    9.3789    0.1212    0.3820 C   0  0  0  0  0  0  0  0  0  0  0  0
   -4.2371    3.0729    1.1377 C   0  0  0  0  0  0  0  0  0  0  0  0
   -5.4991    1.9897   -0.6149 C   0  0  0  0  0  0  0  0  0  0  0  0
   -4.7685    3.0840   -0.1521 C   0  0  0  0  0  0  0  0  0  0  0  0
   -1.8486    0.3061   -1.8933 H   0  0  0  0  0  0  0  0  0  0  0  0
   -2.8279   -1.1291   -0.3758 H   0  0  0  0  0  0  0  0  0  0  0  0
    0.4504    1.9297   -0.2617 H   0  0  0  0  0  0  0  0  0  0  0  0
    1.1252    0.1041   -2.4752 H   0  0  0  0  0  0  0  0  0  0  0  0
    0.0633    1.5159   -2.4949 H   0  0  0  0  0  0  0  0  0  0  0  0
    0.0684   -0.3917    1.2271 H   0  0  0  0  0  0  0  0  0  0  0  0
   -1.2523    0.6235    0.5930 H   0  0  0  0  0  0  0  0  0  0  0  0
   -1.3987   -3.7195   -1.1900 H   0  0  0  0  0  0  0  0  0  0  0  0
   -3.1027   -3.2931   -1.4227 H   0  0  0  0  0  0  0  0  0  0  0  0
   -1.0474   -3.1286    1.1365 H   0  0  0  0  0  0  0  0  0  0  0  0
   -1.7409   -1.6835    1.8427 H   0  0  0  0  0  0  0  0  0  0  0  0
   -1.9582   -3.0988   -3.4942 H   0  0  0  0  0  0  0  0  0  0  0  0
    2.1793   -0.4436    0.0053 H   0  0  0  0  0  0  0  0  0  0  0  0
   -3.1158   -3.6452    2.3753 H   0  0  0  0  0  0  0  0  0  0  0  0
   -3.3198   -4.0595    0.6846 H   0  0  0  0  0  0  0  0  0  0  0  0
   -3.5368   -1.2320    2.8694 H   0  0  0  0  0  0  0  0  0  0  0  0
    5.3928    2.3822   -1.2047 H   0  0  0  0  0  0  0  0  0  0  0  0
    3.6711   -0.6040    1.4132 H   0  0  0  0  0  0  0  0  0  0  0  0
   -5.3999   -0.0099    3.4443 H   0  0  0  0  0  0  0  0  0  0  0  0
   -6.3532   -0.7806    2.1818 H   0  0  0  0  0  0  0  0  0  0  0  0
    7.6074    1.5661   -0.6835 H   0  0  0  0  0  0  0  0  0  0  0  0
    5.8574   -1.4434    1.9195 H   0  0  0  0  0  0  0  0  0  0  0  0
   -4.0155    1.9697    2.9664 H   0  0  0  0  0  0  0  0  0  0  0  0
   -6.2725    0.0407   -0.1612 H   0  0  0  0  0  0  0  0  0  0  0  0
    9.4278   -1.8634    2.0175 H   0  0  0  0  0  0  0  0  0  0  0  0
    7.8795   -2.5089    1.4993 H   0  0  0  0  0  0  0  0  0  0  0  0
    7.9784   -1.3663    2.8749 H   0  0  0  0  0  0  0  0  0  0  0  0
   10.3010   -0.3672    0.7164 H   0  0  0  0  0  0  0  0  0  0  0  0
    9.4613    1.1744    0.6728 H   0  0  0  0  0  0  0  0  0  0  0  0
    9.3639    0.0419   -0.7108 H   0  0  0  0  0  0  0  0  0  0  0  0
   -3.6673    3.9246    1.4971 H   0  0  0  0  0  0  0  0  0  0  0  0
   -5.9126    1.9987   -1.6191 H   0  0  0  0  0  0  0  0  0  0  0  0
  1 35  1  0  0  0  0
  2 16  2  0  0  0  0
  3 19  2  0  0  0  0
  4 20  2  0  0  0  0
  5 10  1  0  0  0  0
  5 11  1  0  0  0  0
  5 14  1  0  0  0  0
  6 15  1  0  0  0  0
  6 16  1  0  0  0  0
  6 47  1  0  0  0  0
  7 12  1  0  0  0  0
  7 19  1  0  0  0  0
  7 48  1  0  0  0  0
  8 20  1  0  0  0  0
  8 24  1  0  0  0  0
  8 51  1  0  0  0  0
  9 27  1  0  0  0  0
  9 31  1  0  0  0  0
  9 32  1  0  0  0  0
 10 13  1  0  0  0  0
 10 16  1  0  0  0  0
 10 36  1  0  0  0  0
 11 15  1  0  0  0  0
 11 17  1  0  0  0  0
 11 37  1  0  0  0  0
 12 13  1  0  0  0  0
 12 14  1  0  0  0  0
 12 38  1  0  0  0  0
 13 39  1  0  0  0  0
 13 40  1  0  0  0  0
 14 41  1  0  0  0  0
 14 42  1  0  0  0  0
 15 43  1  0  0  0  0
 15 44  1  0  0  0  0
 17 18  1  0  0  0  0
 17 45  1  0  0  0  0
 17 46  1  0  0  0  0
 18 20  1  0  0  0  0
 18 49  1  0  0  0  0
 18 50  1  0  0  0  0
 19 21  1  0  0  0  0
 21 22  2  0  0  0  0
 21 23  1  0  0  0  0
 22 25  1  0  0  0  0
 22 52  1  0  0  0  0
 23 26  2  0  0  0  0
 23 53  1  0  0  0  0
 24 28  1  0  0  0  0
 24 54  1  0  0  0  0
 24 55  1  0  0  0  0
 25 27  2  0  0  0  0
 25 56  1  0  0  0  0
 26 27  1  0  0  0  0
 26 57  1  0  0  0  0
 28 29  2  0  0  0  0
 28 30  1  0  0  0  0
 29 33  1  0  0  0  0
 29 58  1  0  0  0  0
 30 34  2  0  0  0  0
 30 59  1  0  0  0  0
 31 60  1  0  0  0  0
 31 61  1  0  0  0  0
 31 62  1  0  0  0  0
 32 63  1  0  0  0  0
 32 64  1  0  0  0  0
 32 65  1  0  0  0  0
 33 35  2  0  0  0  0
 33 66  1  0  0  0  0
 34 35  1  0  0  0  0
 34 67  1  0  0  0  0
M  END
> <PUBCHEM_COMPOUND_CID>
26762246

> <PUBCHEM_CONFORMER_RMSD>
1.2

> <PUBCHEM_CONFORMER_DIVERSEORDER>
2
46
76
47
65
62
79
61
10
14
25
87
29
68
54
60
16
11
48
44
63
59
53
77
80
34
45
15
5
24
40
73
83
26
81
42
67
36
78
17
35
28
86
23
57
74
84
88
37
75
20
55
22
39
13
8
27
56
3
50
18
69
71
38
30
72
51
33
70
43
6
64
49
12
32
41
52
7
31
19
21
66
1
9
82
4
58
85

> <PUBCHEM_MMFF94_PARTIAL_CHARGES>
44
1 -0.19
10 0.33
11 0.27
12 0.3
14 0.27
15 0.3
16 0.57
18 0.06
19 0.54
2 -0.57
20 0.57
21 0.09
22 -0.15
23 -0.15
24 0.44
25 -0.15
26 -0.15
27 0.1
28 -0.14
29 -0.15
3 -0.57
30 -0.15
31 0.37
32 0.37
33 -0.15
34 -0.15
35 0.19
4 -0.57
47 0.37
48 0.37
5 -0.81
51 0.37
52 0.15
53 0.15
56 0.15
57 0.15
58 0.15
59 0.15
6 -0.73
66 0.15
67 0.15
7 -0.73
8 -0.73
9 -0.84

> <PUBCHEM_EFFECTIVE_ROTOR_COUNT>
11.2

> <PUBCHEM_PHARMACOPHORE_FEATURES>
12
1 2 acceptor
1 3 acceptor
1 4 acceptor
1 5 cation
1 6 donor
1 7 donor
1 8 donor
1 9 cation
5 5 10 12 13 14 rings
6 21 22 23 25 26 27 rings
6 28 29 30 33 34 35 rings
6 5 6 10 11 15 16 rings

> <PUBCHEM_HEAVY_ATOM_COUNT>
35

> <PUBCHEM_ATOM_DEF_STEREO_COUNT>
3

> <PUBCHEM_ATOM_UDEF_STEREO_COUNT>
0

> <PUBCHEM_BOND_DEF_STEREO_COUNT>
0

> <PUBCHEM_BOND_UDEF_STEREO_COUNT>
0

> <PUBCHEM_ISOTOPIC_ATOM_COUNT>
0

> <PUBCHEM_COMPONENT_COUNT>
1

> <PUBCHEM_CACTVS_TAUTO_COUNT>
12

> <PUBCHEM_CONFORMER_ID>
01985C0600000002

> <PUBCHEM_MMFF94_ENERGY>
96.1331

> <PUBCHEM_FEATURE_SELFOVERLAP>
60.988

> <PUBCHEM_SHAPE_FINGERPRINT>
100830 39 18334859406982156897
10554248 39 14979970185656231976
10577160 103 10663518410494513430
10577160 183 17632569419147126542
10764073 3 17898852336180103479
11103572 155 17895191040175203162
12128747 34 18408612456550268275
12422481 6 17023189284091141463
12838863 1 18338236085576394067
12988421 55 17774178850388291971
13673619 4 17240760731363956430
13782708 43 16081354268806702288
15021287 119 17022911163278225669
19246450 95 18342457011118476786
21033648 29 17274280399265614241
21133410 32 12463273827093444725
22440779 20 14779541271220684269
22889206 1 18042966467378078795
23522609 53 17605019003729756436
3504750 166 18268989959006715791
3552219 110 10881981406266171454
5104073 3 18336255843448936848
60111433 81 16531433533613944669
6086070 43 16845277355050861410
6691757 9 16988841692180434742

> <PUBCHEM_SHAPE_MULTIPOLES>
670.5
22.01
3.74
2.69
50.49
0.62
-2.21
4.28
13.89
-7.65
-0.06
-2.55
-1.63
-1.09

> <PUBCHEM_SHAPE_SELFOVERLAP>
1426.045

> <PUBCHEM_SHAPE_VOLUME>
375.8

> <PUBCHEM_COORDINATE_TYPE>
2
5
10

$$$$
