7142890
  -OEChem-12032416113D

 62 66  0     1  0  0  0  0  0999 V2000
   -0.1255    3.0543    1.1564 O   0  0  0  0  0  0  0  0  0  0  0  0
   -3.4838   -0.5166    2.8032 O   0  0  0  0  0  0  0  0  0  0  0  0
    2.3321   -0.1820   -1.4836 O   0  0  0  0  0  0  0  0  0  0  0  0
   -1.2984   -5.1307   -0.8155 O   0  0  0  0  0  0  0  0  0  0  0  0
    4.9226    0.2328   -0.8881 O   0  0  0  0  0  0  0  0  0  0  0  0
   -4.2701    0.3062    0.7588 N   0  0  0  0  0  0  0  0  0  0  0  0
   -1.9610    2.3106   -0.0837 N   0  0  0  0  0  0  0  0  0  0  0  0
    1.6865    1.8372   -0.5129 N   0  0  0  0  0  0  0  0  0  0  0  0
   -4.3819    2.7876    0.6050 C   0  0  1  0  0  0  0  0  0  0  0  0
   -3.9222    1.4565   -1.4144 C   0  0  2  0  0  0  0  0  0  0  0  0
   -4.6789    2.6744   -0.8864 C   0  0  0  0  0  0  0  0  0  0  0  0
   -4.8447    1.5179    1.3426 C   0  0  0  0  0  0  0  0  0  0  0  0
   -2.8820    3.0492    0.7918 C   0  0  0  0  0  0  0  0  0  0  0  0
   -4.4253    0.1860   -0.6999 C   0  0  0  0  0  0  0  0  0  0  0  0
   -2.4283    1.6066   -1.1983 C   0  0  0  0  0  0  0  0  0  0  0  0
   -1.5602    1.0360   -2.0507 C   0  0  0  0  0  0  0  0  0  0  0  0
   -0.5852    2.4320    0.1978 C   0  0  0  0  0  0  0  0  0  0  0  0
   -3.6166   -0.6118    1.5844 C   0  0  0  0  0  0  0  0  0  0  0  0
    0.3477    1.7585   -0.7605 C   0  0  0  0  0  0  0  0  0  0  0  0
   -0.1449    1.1143   -1.8237 C   0  0  0  0  0  0  0  0  0  0  0  0
   -3.0118   -1.7913    0.9569 C   0  0  0  0  0  0  0  0  0  0  0  0
   -3.7583   -2.9596    0.8031 C   0  0  0  0  0  0  0  0  0  0  0  0
   -1.6898   -1.7450    0.5146 C   0  0  0  0  0  0  0  0  0  0  0  0
    2.5979    0.8606   -0.8907 C   0  0  0  0  0  0  0  0  0  0  0  0
   -3.1828   -4.0815    0.2068 C   0  0  0  0  0  0  0  0  0  0  0  0
   -1.1141   -2.8670   -0.0817 C   0  0  0  0  0  0  0  0  0  0  0  0
   -1.8606   -4.0352   -0.2355 C   0  0  0  0  0  0  0  0  0  0  0  0
    4.0084    1.2279   -0.4791 C   0  0  0  0  0  0  0  0  0  0  0  0
    0.0580   -5.0151   -1.2427 C   0  0  0  0  0  0  0  0  0  0  0  0
    6.0588    0.0747   -0.1304 C   0  0  0  0  0  0  0  0  0  0  0  0
    6.6038    1.1663    0.5457 C   0  0  0  0  0  0  0  0  0  0  0  0
    6.6672   -1.1770   -0.0384 C   0  0  0  0  0  0  0  0  0  0  0  0
    7.7573    1.0061    1.3136 C   0  0  0  0  0  0  0  0  0  0  0  0
    7.8205   -1.3373    0.7296 C   0  0  0  0  0  0  0  0  0  0  0  0
    8.3655   -0.2457    1.4056 C   0  0  0  0  0  0  0  0  0  0  0  0
   -4.9350    3.6358    1.0268 H   0  0  0  0  0  0  0  0  0  0  0  0
   -4.1350    1.3591   -2.4869 H   0  0  0  0  0  0  0  0  0  0  0  0
   -5.7566    2.5587   -1.0544 H   0  0  0  0  0  0  0  0  0  0  0  0
   -4.3671    3.5851   -1.4129 H   0  0  0  0  0  0  0  0  0  0  0  0
   -4.6004    1.5887    2.4078 H   0  0  0  0  0  0  0  0  0  0  0  0
   -5.9346    1.4198    1.2679 H   0  0  0  0  0  0  0  0  0  0  0  0
   -2.5887    2.8752    1.8348 H   0  0  0  0  0  0  0  0  0  0  0  0
   -2.6847    4.1122    0.5966 H   0  0  0  0  0  0  0  0  0  0  0  0
   -5.4960    0.0456   -0.8934 H   0  0  0  0  0  0  0  0  0  0  0  0
   -3.9155   -0.6974   -1.0918 H   0  0  0  0  0  0  0  0  0  0  0  0
   -1.8990    0.4758   -2.9159 H   0  0  0  0  0  0  0  0  0  0  0  0
    0.4676    0.6501   -2.5874 H   0  0  0  0  0  0  0  0  0  0  0  0
    1.9866    2.5334    0.1652 H   0  0  0  0  0  0  0  0  0  0  0  0
   -4.7894   -3.0061    1.1440 H   0  0  0  0  0  0  0  0  0  0  0  0
   -1.0969   -0.8434    0.6398 H   0  0  0  0  0  0  0  0  0  0  0  0
   -3.7690   -4.9887    0.0898 H   0  0  0  0  0  0  0  0  0  0  0  0
   -0.0827   -2.7622   -0.4006 H   0  0  0  0  0  0  0  0  0  0  0  0
    4.2698    2.1820   -0.9511 H   0  0  0  0  0  0  0  0  0  0  0  0
    3.9903    1.3417    0.6132 H   0  0  0  0  0  0  0  0  0  0  0  0
    0.1692   -4.2610   -2.0293 H   0  0  0  0  0  0  0  0  0  0  0  0
    0.7321   -4.8362   -0.3981 H   0  0  0  0  0  0  0  0  0  0  0  0
    0.3423   -5.9777   -1.6802 H   0  0  0  0  0  0  0  0  0  0  0  0
    6.1752    2.1619    0.4789 H   0  0  0  0  0  0  0  0  0  0  0  0
    6.2471   -2.0308   -0.5630 H   0  0  0  0  0  0  0  0  0  0  0  0
    8.1855    1.8571    1.8354 H   0  0  0  0  0  0  0  0  0  0  0  0
    8.2943   -2.3120    0.8010 H   0  0  0  0  0  0  0  0  0  0  0  0
    9.2643   -0.3701    2.0024 H   0  0  0  0  0  0  0  0  0  0  0  0
  1 17  2  0  0  0  0
  2 18  2  0  0  0  0
  3 24  2  0  0  0  0
  4 27  1  0  0  0  0
  4 29  1  0  0  0  0
  5 28  1  0  0  0  0
  5 30  1  0  0  0  0
  6 12  1  0  0  0  0
  6 14  1  0  0  0  0
  6 18  1  0  0  0  0
  7 13  1  0  0  0  0
  7 15  1  0  0  0  0
  7 17  1  0  0  0  0
  8 19  1  0  0  0  0
  8 24  1  0  0  0  0
  8 48  1  0  0  0  0
  9 11  1  0  0  0  0
  9 12  1  0  0  0  0
  9 13  1  0  0  0  0
  9 36  1  0  0  0  0
 10 11  1  0  0  0  0
 10 14  1  0  0  0  0
 10 15  1  0  0  0  0
 10 37  1  0  0  0  0
 11 38  1  0  0  0  0
 11 39  1  0  0  0  0
 12 40  1  0  0  0  0
 12 41  1  0  0  0  0
 13 42  1  0  0  0  0
 13 43  1  0  0  0  0
 14 44  1  0  0  0  0
 14 45  1  0  0  0  0
 15 16  2  0  0  0  0
 16 20  1  0  0  0  0
 16 46  1  0  0  0  0
 17 19  1  0  0  0  0
 18 21  1  0  0  0  0
 19 20  2  0  0  0  0
 20 47  1  0  0  0  0
 21 22  2  0  0  0  0
 21 23  1  0  0  0  0
 22 25  1  0  0  0  0
 22 49  1  0  0  0  0
 23 26  2  0  0  0  0
 23 50  1  0  0  0  0
 24 28  1  0  0  0  0
 25 27  2  0  0  0  0
 25 51  1  0  0  0  0
 26 27  1  0  0  0  0
 26 52  1  0  0  0  0
 28 53  1  0  0  0  0
 28 54  1  0  0  0  0
 29 55  1  0  0  0  0
 29 56  1  0  0  0  0
 29 57  1  0  0  0  0
 30 31  2  0  0  0  0
 30 32  1  0  0  0  0
 31 33  1  0  0  0  0
 31 58  1  0  0  0  0
 32 34  2  0  0  0  0
 32 59  1  0  0  0  0
 33 35  2  0  0  0  0
 33 60  1  0  0  0  0
 34 35  1  0  0  0  0
 34 61  1  0  0  0  0
 35 62  1  0  0  0  0
M  END
> <PUBCHEM_COMPOUND_CID>
7142890

> <PUBCHEM_CONFORMER_RMSD>
1

> <PUBCHEM_CONFORMER_DIVERSEORDER>
1
68
73
65
52
10
66
67
33
18
43
41
78
24
86
46
58
37
36
57
62
88
48
2
76
30
45
83
39
12
61
51
53
77
14
13
54
11
4
75
19
7
17
34
84
72
63
29
35
5
55
59
50
26
44
82
85
64
8
6
49
27
81
70
71
28
60
22
23
40
87
69
32
42
15
47
80
56
16
31
74
21
20
9
79
89
3
25
38

> <PUBCHEM_MMFF94_PARTIAL_CHARGES>
45
1 -0.57
10 0.14
12 0.3
13 0.3
14 0.3
15 -0.03
16 -0.15
17 0.62
18 0.54
19 0.12
2 -0.57
20 -0.15
21 0.09
22 -0.15
23 -0.15
24 0.57
25 -0.15
26 -0.15
27 0.08
28 0.34
29 0.28
3 -0.57
30 0.08
31 -0.15
32 -0.15
33 -0.15
34 -0.15
35 -0.15
4 -0.36
46 0.15
47 0.15
48 0.37
49 0.15
5 -0.36
50 0.15
51 0.15
52 0.15
58 0.15
59 0.15
6 -0.66
60 0.15
61 0.15
62 0.15
7 -0.47
8 -0.54

> <PUBCHEM_EFFECTIVE_ROTOR_COUNT>
9

> <PUBCHEM_PHARMACOPHORE_FEATURES>
11
1 1 acceptor
1 2 acceptor
1 3 acceptor
1 4 acceptor
1 5 acceptor
1 8 donor
6 21 22 23 25 26 27 rings
6 30 31 32 33 34 35 rings
6 6 9 10 11 12 14 rings
6 7 15 16 17 19 20 rings
6 7 9 10 11 13 15 rings

> <PUBCHEM_HEAVY_ATOM_COUNT>
35

> <PUBCHEM_ATOM_DEF_STEREO_COUNT>
2

> <PUBCHEM_ATOM_UDEF_STEREO_COUNT>
0

> <PUBCHEM_BOND_DEF_STEREO_COUNT>
0

> <PUBCHEM_BOND_UDEF_STEREO_COUNT>
0

> <PUBCHEM_ISOTOPIC_ATOM_COUNT>
0

> <PUBCHEM_COMPONENT_COUNT>
1

> <PUBCHEM_CACTVS_TAUTO_COUNT>
2

> <PUBCHEM_CONFORMER_ID>
006CFDEA00000001

> <PUBCHEM_MMFF94_ENERGY>
117.1877

> <PUBCHEM_FEATURE_SELFOVERLAP>
57.413

> <PUBCHEM_SHAPE_FINGERPRINT>
10483366 6 18338222887152631983
11112241 14 18059018263711889797
11524674 6 18409727331249337493
12202916 173 18131909356494399021
12422481 6 18335146380123466406
12712778 12 18409735087881276116
12717326 68 17263262429983941210
14659021 117 18271516581150538173
14844126 61 18336828692399687323
14866123 147 18335422404301466019
14904385 31 18340760430612875658
14950920 106 17987807443972687352
15021287 119 16950287316921126548
15183329 4 15285357328198938888
15320294 125 18113902662729172390
15348495 7 18341609352558441192
15361156 5 17748836228681352460
15439362 3 17977945688297644109
15950262 2 15336904537389424803
19611394 137 18202001067140234264
20775530 9 17476662226571733023
21987440 362 17608647211032315476
229767 44 18409736174856635522
244849 19 17702685275919096990
3383291 50 18412262852603567223
3882209 13 17553747856860721998
397830 11 18340198709426380376
4073 2 18412537722706124820
484985 159 18334852866105362463
5080951 261 18042665317709045956
5085150 59 18410855443080460399
68570916 9 18187084010124244508

> <PUBCHEM_SHAPE_MULTIPOLES>
675.99
17.63
5.61
1.72
53.1
8.44
-0.2
-2.8
-7.56
-7.5
0.89
-0.99
-0.22
0.56

> <PUBCHEM_SHAPE_SELFOVERLAP>
1477.445

> <PUBCHEM_SHAPE_VOLUME>
359.8

> <PUBCHEM_COORDINATE_TYPE>
2
5
10

$$$$
