38030108
  -OEChem-12032416383D

 58 59  0     1  0  0  0  0  0999 V2000
   -5.3329    0.7348    2.6169 O   0  0  0  0  0  0  0  0  0  0  0  0
    0.2200   -1.2782   -2.2103 O   0  0  0  0  0  0  0  0  0  0  0  0
    7.3615    1.6583    1.6316 O   0  0  0  0  0  0  0  0  0  0  0  0
    1.9139   -1.0505   -0.6374 N   0  0  0  0  0  0  0  0  0  0  0  0
    4.5075   -0.0237    0.0160 N   0  0  0  0  0  0  0  0  0  0  0  0
   -2.7832    1.0057   -0.1398 C   0  0  2  0  0  0  0  0  0  0  0  0
   -2.3104   -0.0150   -1.1862 C   0  0  0  0  0  0  0  0  0  0  0  0
   -1.8507   -1.3375   -0.5440 C   0  0  2  0  0  0  0  0  0  0  0  0
   -3.9585    0.4272    0.6873 C   0  0  1  0  0  0  0  0  0  0  0  0
   -3.1661    2.3178   -0.8314 C   0  0  0  0  0  0  0  0  0  0  0  0
   -2.8414   -1.8363    0.4884 C   0  0  0  0  0  0  0  0  0  0  0  0
   -3.7848   -1.0368    1.0174 C   0  0  0  0  0  0  0  0  0  0  0  0
   -0.4495   -1.1997    0.0619 C   0  0  0  0  0  0  0  0  0  0  0  0
   -4.1675    1.2212    1.9817 C   0  0  0  0  0  0  0  0  0  0  0  0
   -1.9216    3.1533   -1.1140 C   0  0  0  0  0  0  0  0  0  0  0  0
   -3.9326    2.0363   -2.1196 C   0  0  0  0  0  0  0  0  0  0  0  0
    0.5843   -1.1820   -1.0356 C   0  0  0  0  0  0  0  0  0  0  0  0
   -2.7524   -3.2888    0.8659 C   0  0  0  0  0  0  0  0  0  0  0  0
    2.9757   -1.0202   -1.6422 C   0  0  0  0  0  0  0  0  0  0  0  0
    2.3892   -1.0674    0.7492 C   0  0  0  0  0  0  0  0  0  0  0  0
    3.9822    0.0926   -1.3521 C   0  0  0  0  0  0  0  0  0  0  0  0
    3.4123    0.0432    0.9947 C   0  0  0  0  0  0  0  0  0  0  0  0
    5.4948    1.0229    0.2778 C   0  0  0  0  0  0  0  0  0  0  0  0
    6.4101    0.6227    1.4240 C   0  0  0  0  0  0  0  0  0  0  0  0
   -1.9590    1.2103    0.5562 H   0  0  0  0  0  0  0  0  0  0  0  0
   -1.5189    0.4083   -1.8113 H   0  0  0  0  0  0  0  0  0  0  0  0
   -3.1325   -0.2853   -1.8618 H   0  0  0  0  0  0  0  0  0  0  0  0
   -1.8357   -2.0902   -1.3450 H   0  0  0  0  0  0  0  0  0  0  0  0
   -4.8880    0.4841    0.1057 H   0  0  0  0  0  0  0  0  0  0  0  0
   -3.8094    2.9195   -0.1813 H   0  0  0  0  0  0  0  0  0  0  0  0
   -4.4969   -1.4728    1.7148 H   0  0  0  0  0  0  0  0  0  0  0  0
   -0.2226   -2.0589    0.7025 H   0  0  0  0  0  0  0  0  0  0  0  0
   -0.3601   -0.2903    0.6637 H   0  0  0  0  0  0  0  0  0  0  0  0
   -4.3116    2.2877    1.7930 H   0  0  0  0  0  0  0  0  0  0  0  0
   -3.3187    1.1012    2.6645 H   0  0  0  0  0  0  0  0  0  0  0  0
   -1.2274    2.6501   -1.7941 H   0  0  0  0  0  0  0  0  0  0  0  0
   -1.3836    3.3804   -0.1874 H   0  0  0  0  0  0  0  0  0  0  0  0
   -2.1987    4.1079   -1.5749 H   0  0  0  0  0  0  0  0  0  0  0  0
   -3.2967    1.6521   -2.9241 H   0  0  0  0  0  0  0  0  0  0  0  0
   -4.3562    2.9749   -2.4983 H   0  0  0  0  0  0  0  0  0  0  0  0
   -4.7761    1.3561   -1.9693 H   0  0  0  0  0  0  0  0  0  0  0  0
   -2.8148   -3.9183   -0.0277 H   0  0  0  0  0  0  0  0  0  0  0  0
   -3.5656   -3.5905    1.5349 H   0  0  0  0  0  0  0  0  0  0  0  0
   -1.8110   -3.5046    1.3790 H   0  0  0  0  0  0  0  0  0  0  0  0
    2.5557   -0.8862   -2.6444 H   0  0  0  0  0  0  0  0  0  0  0  0
    3.4682   -2.0002   -1.6223 H   0  0  0  0  0  0  0  0  0  0  0  0
    2.8449   -2.0510    0.9180 H   0  0  0  0  0  0  0  0  0  0  0  0
    1.5713   -0.9657    1.4646 H   0  0  0  0  0  0  0  0  0  0  0  0
    4.7993    0.0118   -2.0790 H   0  0  0  0  0  0  0  0  0  0  0  0
    3.5034    1.0701   -1.4985 H   0  0  0  0  0  0  0  0  0  0  0  0
    2.9072    1.0172    0.9421 H   0  0  0  0  0  0  0  0  0  0  0  0
    3.7882   -0.0761    2.0161 H   0  0  0  0  0  0  0  0  0  0  0  0
   -5.4455    1.2415    3.4391 H   0  0  0  0  0  0  0  0  0  0  0  0
    5.0293    1.9989    0.4684 H   0  0  0  0  0  0  0  0  0  0  0  0
    6.1352    1.1748   -0.6021 H   0  0  0  0  0  0  0  0  0  0  0  0
    6.9506   -0.3011    1.1912 H   0  0  0  0  0  0  0  0  0  0  0  0
    5.8651    0.4851    2.3618 H   0  0  0  0  0  0  0  0  0  0  0  0
    7.9387    1.3740    2.3607 H   0  0  0  0  0  0  0  0  0  0  0  0
  1 14  1  0  0  0  0
  1 53  1  0  0  0  0
  2 17  2  0  0  0  0
  3 24  1  0  0  0  0
  3 58  1  0  0  0  0
  4 17  1  0  0  0  0
  4 19  1  0  0  0  0
  4 20  1  0  0  0  0
  5 21  1  0  0  0  0
  5 22  1  0  0  0  0
  5 23  1  0  0  0  0
  6  7  1  0  0  0  0
  6  9  1  0  0  0  0
  6 10  1  0  0  0  0
  6 25  1  0  0  0  0
  7  8  1  0  0  0  0
  7 26  1  0  0  0  0
  7 27  1  0  0  0  0
  8 11  1  0  0  0  0
  8 13  1  0  0  0  0
  8 28  1  0  0  0  0
  9 12  1  0  0  0  0
  9 14  1  0  0  0  0
  9 29  1  0  0  0  0
 10 15  1  0  0  0  0
 10 16  1  0  0  0  0
 10 30  1  0  0  0  0
 11 12  2  0  0  0  0
 11 18  1  0  0  0  0
 12 31  1  0  0  0  0
 13 17  1  0  0  0  0
 13 32  1  0  0  0  0
 13 33  1  0  0  0  0
 14 34  1  0  0  0  0
 14 35  1  0  0  0  0
 15 36  1  0  0  0  0
 15 37  1  0  0  0  0
 15 38  1  0  0  0  0
 16 39  1  0  0  0  0
 16 40  1  0  0  0  0
 16 41  1  0  0  0  0
 18 42  1  0  0  0  0
 18 43  1  0  0  0  0
 18 44  1  0  0  0  0
 19 21  1  0  0  0  0
 19 45  1  0  0  0  0
 19 46  1  0  0  0  0
 20 22  1  0  0  0  0
 20 47  1  0  0  0  0
 20 48  1  0  0  0  0
 21 49  1  0  0  0  0
 21 50  1  0  0  0  0
 22 51  1  0  0  0  0
 22 52  1  0  0  0  0
 23 24  1  0  0  0  0
 23 54  1  0  0  0  0
 23 55  1  0  0  0  0
 24 56  1  0  0  0  0
 24 57  1  0  0  0  0
M  END
> <PUBCHEM_COMPOUND_CID>
38030108

> <PUBCHEM_CONFORMER_RMSD>
1

> <PUBCHEM_CONFORMER_DIVERSEORDER>
1
22
30
46
20
68
27
25
83
61
37
41
82
56
75
10
47
19
16
6
33
52
51
11
34
74
72
58
15
60
80
85
64
43
40
65
79
69
48
17
66
26
70
84
54
38
31
62
71
87
36
78
89
24
18
55
50
44
3
28
63
86
21
12
77
23
14
2
39
67
13
57
91
35
76
9
88
49
53
73
4
45
29
5
81
32
59
90
8
7
42

> <PUBCHEM_MMFF94_PARTIAL_CHARGES>
22
1 -0.68
11 -0.28
12 -0.29
13 0.06
14 0.28
17 0.57
18 0.14
19 0.3
2 -0.57
20 0.3
21 0.27
22 0.27
23 0.27
24 0.28
3 -0.68
31 0.15
4 -0.66
5 -0.81
53 0.4
58 0.4
8 0.14
9 0.14

> <PUBCHEM_EFFECTIVE_ROTOR_COUNT>
9

> <PUBCHEM_PHARMACOPHORE_FEATURES>
9
1 1 acceptor
1 1 donor
1 2 acceptor
1 3 acceptor
1 3 donor
1 5 cation
3 10 15 16 hydrophobe
6 4 5 19 20 21 22 rings
6 6 7 8 9 11 12 rings

> <PUBCHEM_HEAVY_ATOM_COUNT>
24

> <PUBCHEM_ATOM_DEF_STEREO_COUNT>
3

> <PUBCHEM_ATOM_UDEF_STEREO_COUNT>
0

> <PUBCHEM_BOND_DEF_STEREO_COUNT>
0

> <PUBCHEM_BOND_UDEF_STEREO_COUNT>
0

> <PUBCHEM_ISOTOPIC_ATOM_COUNT>
0

> <PUBCHEM_COMPONENT_COUNT>
1

> <PUBCHEM_CACTVS_TAUTO_COUNT>
1

> <PUBCHEM_CONFORMER_ID>
02444B1C00000001

> <PUBCHEM_MMFF94_ENERGY>
47.9161

> <PUBCHEM_FEATURE_SELFOVERLAP>
45.671

> <PUBCHEM_SHAPE_FINGERPRINT>
10319926 262 18261395521014744390
105312 117 17131832110031290174
10554248 39 16343705465888417892
10675989 125 16892838641560964556
10930396 42 18187356671342585505
11595378 159 17603879878937529295
12035758 1 18041861506512586457
12596602 18 16370730344174315524
12633257 1 18262249901182806405
12892183 10 17676489389110669018
13103583 49 15285640941504860292
13583140 156 18339630218215872234
14178342 30 17967536770019706166
14341114 328 18114754831722313078
14856354 85 18115875264373768702
14950920 106 16226053305377000352
15188451 53 16081093696744770209
15484559 13 14967912652892232264
15513586 35 17979352289712881920
15880784 105 14201406001151956724
17780758 139 16370441159235040345
19377110 9 17168434860657101022
21033648 29 18262240993515879245
21401589 2 18272089379084148027
22956985 138 16892580827616550811
23419403 2 17985524858560949571
23559900 14 18191598458274502774
25122255 55 12035716584364851232
2748736 6 16916490563420076944
2838139 119 16702014306135808576
3027735 51 8718553783592249981
392239 28 17968380160057320544
484985 159 13623520256404530419
497634 4 16271923865520204759
5104073 3 17677046820231361192
5718773 13 13118291424714657001
57724786 102 17846224289441580618
633830 44 17203055071147887662
7288768 16 18129675101595627155
9981440 41 17824817846405930525

> <PUBCHEM_SHAPE_MULTIPOLES>
466.34
13.82
2.82
2.1
23.6
0.43
0.35
6.17
8.91
-3.86
-0.49
-0.57
0.44
1.89

> <PUBCHEM_SHAPE_SELFOVERLAP>
934.753

> <PUBCHEM_SHAPE_VOLUME>
273.9

> <PUBCHEM_COORDINATE_TYPE>
2
5
10

$$$$
