44716917
  -OEChem-12032416133D

 77 79  0     1  0  0  0  0  0999 V2000
   -4.3078   -0.3693   -0.4267 O   0  0  0  0  0  0  0  0  0  0  0  0
    1.3428    4.1432   -0.0184 O   0  0  0  0  0  0  0  0  0  0  0  0
   -4.6523    1.8733   -1.9726 O   0  0  0  0  0  0  0  0  0  0  0  0
    3.9650    2.1835    1.7799 O   0  0  0  0  0  0  0  0  0  0  0  0
   -3.8871   -2.5603    0.1184 O   0  0  0  0  0  0  0  0  0  0  0  0
    5.8680   -3.1108   -2.2240 O   0  0  0  0  0  0  0  0  0  0  0  0
    3.0194    0.1525    2.3979 N   0  0  0  0  0  0  0  0  0  0  0  0
   -6.0420   -1.7918   -0.2674 N   0  0  0  0  0  0  0  0  0  0  0  0
   -0.6090    1.7258    0.4498 C   0  0  2  0  0  0  0  0  0  0  0  0
   -1.0001    1.4525   -1.0540 C   0  0  1  0  0  0  0  0  0  0  0  0
   -2.5001    1.0556   -1.3341 C   0  0  1  0  0  0  0  0  0  0  0  0
    0.9738    1.7823    0.5132 C   0  0  1  0  0  0  0  0  0  0  0  0
   -1.1120    0.5370    1.3123 C   0  0  0  0  0  0  0  0  0  0  0  0
   -0.4425    2.5573   -1.9783 C   0  0  0  0  0  0  0  0  0  0  0  0
   -2.9104   -0.0869   -0.3563 C   0  0  1  0  0  0  0  0  0  0  0  0
    1.5922    2.8126   -0.4602 C   0  0  1  0  0  0  0  0  0  0  0  0
   -2.5855    0.2064    1.1042 C   0  0  0  0  0  0  0  0  0  0  0  0
    1.0819    2.6392   -1.8879 C   0  0  0  0  0  0  0  0  0  0  0  0
   -1.2225    3.0264    1.0231 C   0  0  0  0  0  0  0  0  0  0  0  0
   -3.4881    2.2379   -1.2641 C   0  0  0  0  0  0  0  0  0  0  0  0
   -2.6163    0.4940   -2.7809 C   0  0  0  0  0  0  0  0  0  0  0  0
    1.5581    1.9792    1.9214 C   0  0  0  0  0  0  0  0  0  0  0  0
    2.9825    1.4854    2.0155 C   0  0  0  0  0  0  0  0  0  0  0  0
   -4.6730   -1.6619   -0.1645 C   0  0  0  0  0  0  0  0  0  0  0  0
    4.2497   -0.5862    2.5671 C   0  0  0  0  0  0  0  0  0  0  0  0
   -6.7485   -3.0330   -0.0501 C   0  0  0  0  0  0  0  0  0  0  0  0
    4.6809   -1.2582    1.2956 C   0  0  0  0  0  0  0  0  0  0  0  0
   -7.1649   -3.2172    1.4043 C   0  0  0  0  0  0  0  0  0  0  0  0
    4.0260   -2.4095    0.8582 C   0  0  0  0  0  0  0  0  0  0  0  0
    5.7350   -0.7298    0.5504 C   0  0  0  0  0  0  0  0  0  0  0  0
   -8.1051   -2.1231    1.8899 C   0  0  0  0  0  0  0  0  0  0  0  0
    4.4253   -3.0324   -0.3243 C   0  0  0  0  0  0  0  0  0  0  0  0
    6.1343   -1.3526   -0.6319 C   0  0  0  0  0  0  0  0  0  0  0  0
    5.4794   -2.5039   -1.0693 C   0  0  0  0  0  0  0  0  0  0  0  0
    6.9527   -2.5173   -2.9361 C   0  0  0  0  0  0  0  0  0  0  0  0
   -0.4355    0.5445   -1.3262 H   0  0  0  0  0  0  0  0  0  0  0  0
    1.3225    0.7988    0.1609 H   0  0  0  0  0  0  0  0  0  0  0  0
   -0.5207   -0.3596    1.0840 H   0  0  0  0  0  0  0  0  0  0  0  0
   -0.9687    0.7393    2.3794 H   0  0  0  0  0  0  0  0  0  0  0  0
   -0.8771    3.5333   -1.7427 H   0  0  0  0  0  0  0  0  0  0  0  0
   -0.6961    2.3533   -3.0232 H   0  0  0  0  0  0  0  0  0  0  0  0
   -2.3369   -0.9761   -0.6566 H   0  0  0  0  0  0  0  0  0  0  0  0
    2.6812    2.6911   -0.4783 H   0  0  0  0  0  0  0  0  0  0  0  0
   -2.8358   -0.6648    1.7229 H   0  0  0  0  0  0  0  0  0  0  0  0
   -3.2288    1.0059    1.4880 H   0  0  0  0  0  0  0  0  0  0  0  0
    1.5081    1.7202   -2.3095 H   0  0  0  0  0  0  0  0  0  0  0  0
    1.4252    3.4701   -2.5157 H   0  0  0  0  0  0  0  0  0  0  0  0
   -2.3019    2.9592    1.1602 H   0  0  0  0  0  0  0  0  0  0  0  0
   -0.8143    3.2525    2.0140 H   0  0  0  0  0  0  0  0  0  0  0  0
   -1.0449    3.8985    0.3916 H   0  0  0  0  0  0  0  0  0  0  0  0
   -3.0843    3.1358   -1.7386 H   0  0  0  0  0  0  0  0  0  0  0  0
   -3.7799    2.4855   -0.2427 H   0  0  0  0  0  0  0  0  0  0  0  0
   -3.5589   -0.0392   -2.9508 H   0  0  0  0  0  0  0  0  0  0  0  0
   -1.8177   -0.2300   -2.9819 H   0  0  0  0  0  0  0  0  0  0  0  0
   -2.5418    1.2824   -3.5376 H   0  0  0  0  0  0  0  0  0  0  0  0
    1.5528    3.0335    2.2212 H   0  0  0  0  0  0  0  0  0  0  0  0
    0.9722    1.4587    2.6841 H   0  0  0  0  0  0  0  0  0  0  0  0
    1.7779    4.7487   -0.6423 H   0  0  0  0  0  0  0  0  0  0  0  0
   -5.2665    2.6256   -1.9271 H   0  0  0  0  0  0  0  0  0  0  0  0
    2.1488   -0.3518    2.5396 H   0  0  0  0  0  0  0  0  0  0  0  0
   -6.5833   -0.9663   -0.5058 H   0  0  0  0  0  0  0  0  0  0  0  0
    5.0286    0.0921    2.9346 H   0  0  0  0  0  0  0  0  0  0  0  0
    4.0825   -1.3357    3.3490 H   0  0  0  0  0  0  0  0  0  0  0  0
   -6.1055   -3.8652   -0.3571 H   0  0  0  0  0  0  0  0  0  0  0  0
   -7.6271   -3.0258   -0.7037 H   0  0  0  0  0  0  0  0  0  0  0  0
   -7.6616   -4.1882    1.5124 H   0  0  0  0  0  0  0  0  0  0  0  0
   -6.2776   -3.2348    2.0482 H   0  0  0  0  0  0  0  0  0  0  0  0
    3.2029   -2.8298    1.4300 H   0  0  0  0  0  0  0  0  0  0  0  0
    6.2520    0.1679    0.8791 H   0  0  0  0  0  0  0  0  0  0  0  0
   -8.4218   -2.3287    2.9174 H   0  0  0  0  0  0  0  0  0  0  0  0
   -9.0013   -2.0698    1.2636 H   0  0  0  0  0  0  0  0  0  0  0  0
   -7.6186   -1.1428    1.8809 H   0  0  0  0  0  0  0  0  0  0  0  0
    3.9110   -3.9287   -0.6603 H   0  0  0  0  0  0  0  0  0  0  0  0
    6.9593   -0.8888   -1.1617 H   0  0  0  0  0  0  0  0  0  0  0  0
    7.1281   -3.1295   -3.8268 H   0  0  0  0  0  0  0  0  0  0  0  0
    7.8772   -2.5351   -2.3490 H   0  0  0  0  0  0  0  0  0  0  0  0
    6.7018   -1.5099   -3.2850 H   0  0  0  0  0  0  0  0  0  0  0  0
  1 15  1  0  0  0  0
  1 24  1  0  0  0  0
  2 16  1  0  0  0  0
  2 58  1  0  0  0  0
  3 20  1  0  0  0  0
  3 59  1  0  0  0  0
  4 23  2  0  0  0  0
  5 24  2  0  0  0  0
  6 34  1  0  0  0  0
  6 35  1  0  0  0  0
  7 23  1  0  0  0  0
  7 25  1  0  0  0  0
  7 60  1  0  0  0  0
  8 24  1  0  0  0  0
  8 26  1  0  0  0  0
  8 61  1  0  0  0  0
  9 10  1  0  0  0  0
  9 12  1  0  0  0  0
  9 13  1  0  0  0  0
  9 19  1  0  0  0  0
 10 11  1  0  0  0  0
 10 14  1  0  0  0  0
 10 36  1  0  0  0  0
 11 15  1  0  0  0  0
 11 20  1  0  0  0  0
 11 21  1  0  0  0  0
 12 16  1  0  0  0  0
 12 22  1  0  0  0  0
 12 37  1  0  0  0  0
 13 17  1  0  0  0  0
 13 38  1  0  0  0  0
 13 39  1  0  0  0  0
 14 18  1  0  0  0  0
 14 40  1  0  0  0  0
 14 41  1  0  0  0  0
 15 17  1  0  0  0  0
 15 42  1  0  0  0  0
 16 18  1  0  0  0  0
 16 43  1  0  0  0  0
 17 44  1  0  0  0  0
 17 45  1  0  0  0  0
 18 46  1  0  0  0  0
 18 47  1  0  0  0  0
 19 48  1  0  0  0  0
 19 49  1  0  0  0  0
 19 50  1  0  0  0  0
 20 51  1  0  0  0  0
 20 52  1  0  0  0  0
 21 53  1  0  0  0  0
 21 54  1  0  0  0  0
 21 55  1  0  0  0  0
 22 23  1  0  0  0  0
 22 56  1  0  0  0  0
 22 57  1  0  0  0  0
 25 27  1  0  0  0  0
 25 62  1  0  0  0  0
 25 63  1  0  0  0  0
 26 28  1  0  0  0  0
 26 64  1  0  0  0  0
 26 65  1  0  0  0  0
 27 29  2  0  0  0  0
 27 30  1  0  0  0  0
 28 31  1  0  0  0  0
 28 66  1  0  0  0  0
 28 67  1  0  0  0  0
 29 32  1  0  0  0  0
 29 68  1  0  0  0  0
 30 33  2  0  0  0  0
 30 69  1  0  0  0  0
 31 70  1  0  0  0  0
 31 71  1  0  0  0  0
 31 72  1  0  0  0  0
 32 34  2  0  0  0  0
 32 73  1  0  0  0  0
 33 34  1  0  0  0  0
 33 74  1  0  0  0  0
 35 75  1  0  0  0  0
 35 76  1  0  0  0  0
 35 77  1  0  0  0  0
M  END
> <PUBCHEM_COMPOUND_CID>
44716917

> <PUBCHEM_CONFORMER_RMSD>
1.2

> <PUBCHEM_CONFORMER_DIVERSEORDER>
1
49
9
42
26
50
29
11
43
32
24
17
30
18
51
44
48
27
31
34
38
15
41
40
14
16
47
22
10
13
20
19
46
12
21
25
52
39
6
45
37
33
7
35
28
23
8
4
36
3
2
5

> <PUBCHEM_MMFF94_PARTIAL_CHARGES>
31
1 -0.43
15 0.28
16 0.28
2 -0.68
20 0.28
22 0.06
23 0.57
24 0.78
25 0.44
26 0.3
27 -0.14
29 -0.15
3 -0.68
30 -0.15
32 -0.15
33 -0.15
34 0.08
35 0.28
4 -0.57
5 -0.57
58 0.4
59 0.4
6 -0.36
60 0.37
61 0.37
68 0.15
69 0.15
7 -0.73
73 0.15
74 0.15
8 -0.73

> <PUBCHEM_EFFECTIVE_ROTOR_COUNT>
13.6

> <PUBCHEM_PHARMACOPHORE_FEATURES>
13
1 2 acceptor
1 2 donor
1 3 acceptor
1 3 donor
1 31 hydrophobe
1 4 acceptor
1 5 acceptor
1 6 acceptor
1 7 donor
1 8 donor
6 27 29 30 32 33 34 rings
6 9 10 11 13 15 17 rings
6 9 10 12 14 16 18 rings

> <PUBCHEM_HEAVY_ATOM_COUNT>
35

> <PUBCHEM_ATOM_DEF_STEREO_COUNT>
5

> <PUBCHEM_ATOM_UDEF_STEREO_COUNT>
1

> <PUBCHEM_BOND_DEF_STEREO_COUNT>
0

> <PUBCHEM_BOND_UDEF_STEREO_COUNT>
0

> <PUBCHEM_ISOTOPIC_ATOM_COUNT>
0

> <PUBCHEM_COMPONENT_COUNT>
1

> <PUBCHEM_CACTVS_TAUTO_COUNT>
4

> <PUBCHEM_CONFORMER_ID>
02AA537500000001

> <PUBCHEM_MMFF94_ENERGY>
107.6496

> <PUBCHEM_FEATURE_SELFOVERLAP>
65.987

> <PUBCHEM_SHAPE_FINGERPRINT>
10883706 89 17632027373152657851
10928967 22 17344331269510681054
10981352 41 18268981154603242699
11607047 141 18269287910120695185
117089 54 17630338445967691150
12047536 79 17060346227427022665
12422481 6 14979958034502310920
12623949 98 18263354953149719121
12633257 1 15338826612305286816
13008946 62 17252596075989107980
131258 43 18272378572840360900
13383661 66 18413111653915801586
1361 87 18129098936033396294
13782708 43 18336539525896159047
14040221 304 14853010783927959614
14556957 393 15068885444088044639
14739800 52 10159714485675226885
14904525 67 10810436232715438679
15350500 185 13407084755711089902
15510800 12 18129650912509081786
15669420 48 18260271889045325574
16989378 47 17458343087189753703
16991981 162 17393328703274647508
20156587 77 17916607387552779766
20587220 46 17611757000016017619
20715895 44 11025793194021519778
20775530 9 18338221743551652787
21796203 349 16056306217411439346
22864921 267 18201730574115493699
23559900 14 18338784646471735728
23569914 2 8718267837106737055
24893989 43 17536028114756688315
25269216 80 17458064871908285723
3862424 121 18335996314969404454
4408954 64 17703247138549557603
46194498 28 17896307185478001704
5372103 7 12757440487819429438
57816373 69 18130221679112947975
6201320 77 17201937933428009942
86090 222 18410847785460247298
9831232 110 18260541260535781555
9980921 177 17845674603059638675

> <PUBCHEM_SHAPE_MULTIPOLES>
675.11
18.31
4.95
2.74
9.74
0.03
-0.53
27.76
-0.65
0.71
-0.88
-2.65
-0.12
5.47

> <PUBCHEM_SHAPE_SELFOVERLAP>
1393.182

> <PUBCHEM_SHAPE_VOLUME>
382.8

> <PUBCHEM_COORDINATE_TYPE>
2
5
10

$$$$
