11884543
  -OEChem-12032416213D

 60 64  0     1  0  0  0  0  0999 V2000
   -0.2210    2.5987    1.3671 O   0  0  0  0  0  0  0  0  0  0  0  0
   -3.9419   -0.7953    2.5509 O   0  0  0  0  0  0  0  0  0  0  0  0
    2.2918   -0.7241   -1.0731 O   0  0  0  0  0  0  0  0  0  0  0  0
    6.2386    1.4179    1.3228 O   0  0  0  0  0  0  0  0  0  0  0  0
   -4.4488    0.1114    0.4544 N   0  0  0  0  0  0  0  0  0  0  0  0
   -1.9490    1.9887   -0.0824 N   0  0  0  0  0  0  0  0  0  0  0  0
    1.6899    1.3043   -0.1243 N   0  0  0  0  0  0  0  0  0  0  0  0
    3.8487    0.5648    0.1200 N   0  0  0  0  0  0  0  0  0  0  0  0
   -4.3993    2.5975    0.3509 C   0  0  1  0  0  0  0  0  0  0  0  0
   -3.7983    1.2783   -1.6391 C   0  0  2  0  0  0  0  0  0  0  0  0
   -4.5367    2.5296   -1.1663 C   0  0  0  0  0  0  0  0  0  0  0  0
   -5.0128    1.3447    1.0021 C   0  0  0  0  0  0  0  0  0  0  0  0
   -2.9166    2.7653    0.7056 C   0  0  0  0  0  0  0  0  0  0  0  0
   -4.4495    0.0276   -1.0152 C   0  0  0  0  0  0  0  0  0  0  0  0
   -2.3309    1.3343   -1.2582 C   0  0  0  0  0  0  0  0  0  0  0  0
   -1.4091    0.7276   -2.0247 C   0  0  0  0  0  0  0  0  0  0  0  0
   -0.6078    2.0222    0.3495 C   0  0  0  0  0  0  0  0  0  0  0  0
   -3.9452   -0.8598    1.3228 C   0  0  0  0  0  0  0  0  0  0  0  0
    0.3842    1.3107   -0.5178 C   0  0  0  0  0  0  0  0  0  0  0  0
   -0.0251    0.7164   -1.6435 C   0  0  0  0  0  0  0  0  0  0  0  0
   -3.3461   -2.0625    0.7354 C   0  0  0  0  0  0  0  0  0  0  0  0
   -1.9849   -2.0857    0.4422 C   0  0  0  0  0  0  0  0  0  0  0  0
   -4.1409   -3.1757    0.4742 C   0  0  0  0  0  0  0  0  0  0  0  0
    2.5924    0.2751   -0.4237 C   0  0  0  0  0  0  0  0  0  0  0  0
   -1.4149   -3.2297   -0.1163 C   0  0  0  0  0  0  0  0  0  0  0  0
   -3.5706   -4.3197   -0.0842 C   0  0  0  0  0  0  0  0  0  0  0  0
   -2.2076   -4.3467   -0.3794 C   0  0  0  0  0  0  0  0  0  0  0  0
    5.0279   -0.2126    0.0451 C   0  0  0  0  0  0  0  0  0  0  0  0
    6.1930    0.2341    0.6485 C   0  0  0  0  0  0  0  0  0  0  0  0
    4.9888   -1.4178   -0.6391 C   0  0  0  0  0  0  0  0  0  0  0  0
    7.3480   -0.5437    0.5660 C   0  0  0  0  0  0  0  0  0  0  0  0
    6.1439   -2.1955   -0.7217 C   0  0  0  0  0  0  0  0  0  0  0  0
    7.3234   -1.7584   -0.1193 C   0  0  0  0  0  0  0  0  0  0  0  0
    6.5863    2.5783    0.5707 C   0  0  0  0  0  0  0  0  0  0  0  0
   -4.9456    3.4696    0.7309 H   0  0  0  0  0  0  0  0  0  0  0  0
   -3.8971    1.2136   -2.7304 H   0  0  0  0  0  0  0  0  0  0  0  0
   -5.5943    2.4821   -1.4532 H   0  0  0  0  0  0  0  0  0  0  0  0
   -4.1170    3.4295   -1.6332 H   0  0  0  0  0  0  0  0  0  0  0  0
   -4.8831    1.3811    2.0890 H   0  0  0  0  0  0  0  0  0  0  0  0
   -6.0918    1.3138    0.8073 H   0  0  0  0  0  0  0  0  0  0  0  0
   -2.6380    3.8179    0.5591 H   0  0  0  0  0  0  0  0  0  0  0  0
   -2.7501    2.5553    1.7697 H   0  0  0  0  0  0  0  0  0  0  0  0
   -5.4988   -0.0445   -1.3271 H   0  0  0  0  0  0  0  0  0  0  0  0
   -3.9517   -0.8775   -1.3714 H   0  0  0  0  0  0  0  0  0  0  0  0
   -1.6826    0.2047   -2.9352 H   0  0  0  0  0  0  0  0  0  0  0  0
    0.6384    0.2332   -2.3505 H   0  0  0  0  0  0  0  0  0  0  0  0
    1.9499    1.9471    0.6189 H   0  0  0  0  0  0  0  0  0  0  0  0
   -1.3567   -1.2251    0.6533 H   0  0  0  0  0  0  0  0  0  0  0  0
   -5.2039   -3.1644    0.7001 H   0  0  0  0  0  0  0  0  0  0  0  0
   -0.3532   -3.2507   -0.3445 H   0  0  0  0  0  0  0  0  0  0  0  0
   -4.1879   -5.1895   -0.2894 H   0  0  0  0  0  0  0  0  0  0  0  0
   -1.7636   -5.2375   -0.8139 H   0  0  0  0  0  0  0  0  0  0  0  0
    3.9326    1.4378    0.6345 H   0  0  0  0  0  0  0  0  0  0  0  0
    4.1212   -1.8289   -1.1322 H   0  0  0  0  0  0  0  0  0  0  0  0
    8.2705   -0.2102    1.0335 H   0  0  0  0  0  0  0  0  0  0  0  0
    6.1263   -3.1417   -1.2548 H   0  0  0  0  0  0  0  0  0  0  0  0
    8.2227   -2.3641   -0.1834 H   0  0  0  0  0  0  0  0  0  0  0  0
    6.5370    3.4448    1.2358 H   0  0  0  0  0  0  0  0  0  0  0  0
    7.6071    2.4911    0.1854 H   0  0  0  0  0  0  0  0  0  0  0  0
    5.8858    2.7323   -0.2561 H   0  0  0  0  0  0  0  0  0  0  0  0
  1 17  2  0  0  0  0
  2 18  2  0  0  0  0
  3 24  2  0  0  0  0
  4 29  1  0  0  0  0
  4 34  1  0  0  0  0
  5 12  1  0  0  0  0
  5 14  1  0  0  0  0
  5 18  1  0  0  0  0
  6 13  1  0  0  0  0
  6 15  1  0  0  0  0
  6 17  1  0  0  0  0
  7 19  1  0  0  0  0
  7 24  1  0  0  0  0
  7 47  1  0  0  0  0
  8 24  1  0  0  0  0
  8 28  1  0  0  0  0
  8 53  1  0  0  0  0
  9 11  1  0  0  0  0
  9 12  1  0  0  0  0
  9 13  1  0  0  0  0
  9 35  1  0  0  0  0
 10 11  1  0  0  0  0
 10 14  1  0  0  0  0
 10 15  1  0  0  0  0
 10 36  1  0  0  0  0
 11 37  1  0  0  0  0
 11 38  1  0  0  0  0
 12 39  1  0  0  0  0
 12 40  1  0  0  0  0
 13 41  1  0  0  0  0
 13 42  1  0  0  0  0
 14 43  1  0  0  0  0
 14 44  1  0  0  0  0
 15 16  2  0  0  0  0
 16 20  1  0  0  0  0
 16 45  1  0  0  0  0
 17 19  1  0  0  0  0
 18 21  1  0  0  0  0
 19 20  2  0  0  0  0
 20 46  1  0  0  0  0
 21 22  2  0  0  0  0
 21 23  1  0  0  0  0
 22 25  1  0  0  0  0
 22 48  1  0  0  0  0
 23 26  2  0  0  0  0
 23 49  1  0  0  0  0
 25 27  2  0  0  0  0
 25 50  1  0  0  0  0
 26 27  1  0  0  0  0
 26 51  1  0  0  0  0
 27 52  1  0  0  0  0
 28 29  1  0  0  0  0
 28 30  2  0  0  0  0
 29 31  2  0  0  0  0
 30 32  1  0  0  0  0
 30 54  1  0  0  0  0
 31 33  1  0  0  0  0
 31 55  1  0  0  0  0
 32 33  2  0  0  0  0
 32 56  1  0  0  0  0
 33 57  1  0  0  0  0
 34 58  1  0  0  0  0
 34 59  1  0  0  0  0
 34 60  1  0  0  0  0
M  END
> <PUBCHEM_COMPOUND_CID>
11884543

> <PUBCHEM_CONFORMER_RMSD>
1

> <PUBCHEM_CONFORMER_DIVERSEORDER>
1
28
30
29
23
9
37
20
14
21
36
17
27
26
10
32
16
15
35
5
24
11
25
38
8
31
6
19
34
4
22
7
3
13
12
33
2
18

> <PUBCHEM_MMFF94_PARTIAL_CHARGES>
45
1 -0.57
10 0.14
12 0.3
13 0.3
14 0.3
15 -0.03
16 -0.15
17 0.62
18 0.54
19 0.12
2 -0.57
20 -0.15
21 0.09
22 -0.15
23 -0.15
24 0.69
25 -0.15
26 -0.15
27 -0.15
28 0.12
29 0.08
3 -0.57
30 -0.15
31 -0.15
32 -0.15
33 -0.15
34 0.28
4 -0.36
45 0.15
46 0.15
47 0.37
48 0.15
49 0.15
5 -0.66
50 0.15
51 0.15
52 0.15
53 0.37
54 0.15
55 0.15
56 0.15
57 0.15
6 -0.47
7 -0.54
8 -0.55

> <PUBCHEM_EFFECTIVE_ROTOR_COUNT>
8

> <PUBCHEM_PHARMACOPHORE_FEATURES>
11
1 1 acceptor
1 2 acceptor
1 3 acceptor
1 4 acceptor
1 7 donor
1 8 donor
6 21 22 23 25 26 27 rings
6 28 29 30 31 32 33 rings
6 5 9 10 11 12 14 rings
6 6 15 16 17 19 20 rings
6 6 9 10 11 13 15 rings

> <PUBCHEM_HEAVY_ATOM_COUNT>
34

> <PUBCHEM_ATOM_DEF_STEREO_COUNT>
2

> <PUBCHEM_ATOM_UDEF_STEREO_COUNT>
0

> <PUBCHEM_BOND_DEF_STEREO_COUNT>
0

> <PUBCHEM_BOND_UDEF_STEREO_COUNT>
0

> <PUBCHEM_ISOTOPIC_ATOM_COUNT>
0

> <PUBCHEM_COMPONENT_COUNT>
1

> <PUBCHEM_CACTVS_TAUTO_COUNT>
3

> <PUBCHEM_CONFORMER_ID>
00B557FF00000001

> <PUBCHEM_MMFF94_ENERGY>
116.8592

> <PUBCHEM_FEATURE_SELFOVERLAP>
57.456

> <PUBCHEM_SHAPE_FINGERPRINT>
10483366 6 18337938096556133847
10675989 125 17253983157399841333
10864689 126 18120656834305252342
11135609 99 18043241342176854634
11524674 6 18339358565940001279
12633257 1 17985295056003598049
12643181 29 18335979762766559150
14659021 117 18341880931676696589
14844126 61 18336267929175483011
14866123 147 18409451397261233323
14950920 106 17845663658348260032
15021287 119 16950570982172564868
15183329 4 14851608782628027250
15348495 7 18341610430441861792
15361156 5 17895205419725332764
15439362 3 17542783106798303205
15799311 1 18338253600025220300
16110190 28 18408891766958212086
19958102 18 18262233327015112606
22122407 14 16559029402738144744
23559900 14 18411411821982293488
244849 19 17773857857374799594
249057 3 17822009775033836909
3383291 50 18410293619057758763
397830 11 18410288155932853984
4015057 19 18130491011795398856
4073 2 18411976954443180574
484985 159 18334849546254112479
5080951 261 17969480706898711478
5104073 3 18338784690243601384
5364581 5 18338795740514790168
57307002 103 18202286927425870000
57527306 92 16773802438442326769

> <PUBCHEM_SHAPE_MULTIPOLES>
656.3
17.57
4.64
1.5
39.36
4.37
0
1.12
-3.4
-5.58
-0.26
-1.35
-0.43
1.89

> <PUBCHEM_SHAPE_SELFOVERLAP>
1440.307

> <PUBCHEM_SHAPE_VOLUME>
347.1

> <PUBCHEM_COORDINATE_TYPE>
2
5
10

$$$$
