45360653
  -OEChem-12032416273D

 60 63  0     1  0  0  0  0  0999 V2000
    9.1745   -0.3384   -0.3303 F   0  0  0  0  0  0  0  0  0  0  0  0
   -5.1424   -3.8535    0.1862 F   0  0  0  0  0  0  0  0  0  0  0  0
   -0.4540   -2.1729    2.7330 O   0  0  0  0  0  0  0  0  0  0  0  0
   -4.3303    2.9424   -0.3735 O   0  0  0  0  0  0  0  0  0  0  0  0
   -0.6301    0.8710    0.7262 N   0  0  1  0  0  0  0  0  0  0  0  0
   -1.2071   -0.1016    3.2943 N   0  0  0  0  0  0  0  0  0  0  0  0
    2.9087    0.3679    0.1269 N   0  0  0  0  0  0  0  0  0  0  0  0
   -2.9471    1.7279   -1.7879 N   0  0  0  0  0  0  0  0  0  0  0  0
   -0.5533   -0.5798    0.9402 C   0  0  1  0  0  0  0  0  0  0  0  0
    1.4652    0.3415   -0.0464 C   0  0  1  0  0  0  0  0  0  0  0  0
   -1.6462    1.5433    1.5281 C   0  0  1  0  0  0  0  0  0  0  0  0
    0.8310   -0.9753    0.4025 C   0  0  0  0  0  0  0  0  0  0  0  0
    0.7350    1.3884    0.7835 C   0  0  0  0  0  0  0  0  0  0  0  0
   -1.4135    1.2999    3.0110 C   0  0  0  0  0  0  0  0  0  0  0  0
   -0.7096   -1.0134    2.3949 C   0  0  0  0  0  0  0  0  0  0  0  0
   -1.7462    3.0392    1.2265 C   0  0  0  0  0  0  0  0  0  0  0  0
   -1.9366    3.2890   -0.2633 C   0  0  0  0  0  0  0  0  0  0  0  0
    3.5785   -0.3472   -0.9521 C   0  0  0  0  0  0  0  0  0  0  0  0
   -3.2115    2.6559   -0.7912 C   0  0  0  0  0  0  0  0  0  0  0  0
    5.0707   -0.3450   -0.7862 C   0  0  0  0  0  0  0  0  0  0  0  0
    5.8328    0.6808   -1.3453 C   0  0  0  0  0  0  0  0  0  0  0  0
    5.6950   -1.3685   -0.0732 C   0  0  0  0  0  0  0  0  0  0  0  0
   -3.9951    0.9877   -2.4497 C   0  0  0  0  0  0  0  0  0  0  0  0
    7.2191    0.6831   -1.1916 C   0  0  0  0  0  0  0  0  0  0  0  0
    7.0814   -1.3663    0.0805 C   0  0  0  0  0  0  0  0  0  0  0  0
    7.8434   -0.3405   -0.4787 C   0  0  0  0  0  0  0  0  0  0  0  0
   -4.3013   -0.3032   -1.7468 C   0  0  0  0  0  0  0  0  0  0  0  0
   -3.6171   -1.4671   -2.0973 C   0  0  0  0  0  0  0  0  0  0  0  0
   -5.2695   -0.3388   -0.7434 C   0  0  0  0  0  0  0  0  0  0  0  0
   -3.9012   -2.6666   -1.4447 C   0  0  0  0  0  0  0  0  0  0  0  0
   -5.5538   -1.5382   -0.0906 C   0  0  0  0  0  0  0  0  0  0  0  0
   -4.8697   -2.7021   -0.4414 C   0  0  0  0  0  0  0  0  0  0  0  0
   -1.3455   -1.0769    0.3687 H   0  0  0  0  0  0  0  0  0  0  0  0
    1.2084    0.5238   -1.1011 H   0  0  0  0  0  0  0  0  0  0  0  0
   -2.6120    1.0845    1.2738 H   0  0  0  0  0  0  0  0  0  0  0  0
    0.7469   -1.6655   -0.4449 H   0  0  0  0  0  0  0  0  0  0  0  0
    1.4436   -1.4645    1.1698 H   0  0  0  0  0  0  0  0  0  0  0  0
    0.8433    2.3822    0.3390 H   0  0  0  0  0  0  0  0  0  0  0  0
    1.1234    1.4198    1.8088 H   0  0  0  0  0  0  0  0  0  0  0  0
   -2.2776    1.6259    3.6000 H   0  0  0  0  0  0  0  0  0  0  0  0
   -0.5361    1.8377    3.3868 H   0  0  0  0  0  0  0  0  0  0  0  0
   -2.5948    3.4604    1.7807 H   0  0  0  0  0  0  0  0  0  0  0  0
   -0.8535    3.5740    1.5726 H   0  0  0  0  0  0  0  0  0  0  0  0
   -1.3267   -0.4085    4.2547 H   0  0  0  0  0  0  0  0  0  0  0  0
    3.2269    1.3374    0.1273 H   0  0  0  0  0  0  0  0  0  0  0  0
   -2.0329    4.3688   -0.4331 H   0  0  0  0  0  0  0  0  0  0  0  0
   -1.0649    2.9768   -0.8461 H   0  0  0  0  0  0  0  0  0  0  0  0
    3.2341   -1.3883   -0.9987 H   0  0  0  0  0  0  0  0  0  0  0  0
    3.3296    0.0987   -1.9244 H   0  0  0  0  0  0  0  0  0  0  0  0
   -1.9878    1.5287   -2.0554 H   0  0  0  0  0  0  0  0  0  0  0  0
    5.3583    1.4850   -1.9015 H   0  0  0  0  0  0  0  0  0  0  0  0
    5.1124   -2.1724    0.3689 H   0  0  0  0  0  0  0  0  0  0  0  0
   -4.8967    1.6080   -2.5183 H   0  0  0  0  0  0  0  0  0  0  0  0
   -3.6639    0.7962   -3.4767 H   0  0  0  0  0  0  0  0  0  0  0  0
    7.8128    1.4819   -1.6264 H   0  0  0  0  0  0  0  0  0  0  0  0
    7.5678   -2.1627    0.6359 H   0  0  0  0  0  0  0  0  0  0  0  0
   -2.8583   -1.4517   -2.8752 H   0  0  0  0  0  0  0  0  0  0  0  0
   -5.8127    0.5589   -0.4616 H   0  0  0  0  0  0  0  0  0  0  0  0
   -3.3679   -3.5727   -1.7164 H   0  0  0  0  0  0  0  0  0  0  0  0
   -6.3077   -1.5664    0.6904 H   0  0  0  0  0  0  0  0  0  0  0  0
  1 26  1  0  0  0  0
  2 32  1  0  0  0  0
  3 15  2  0  0  0  0
  4 19  2  0  0  0  0
  5  9  1  0  0  0  0
  5 11  1  0  0  0  0
  5 13  1  0  0  0  0
  6 14  1  0  0  0  0
  6 15  1  0  0  0  0
  6 44  1  0  0  0  0
  7 10  1  0  0  0  0
  7 18  1  0  0  0  0
  7 45  1  0  0  0  0
  8 19  1  0  0  0  0
  8 23  1  0  0  0  0
  8 50  1  0  0  0  0
  9 12  1  0  0  0  0
  9 15  1  0  0  0  0
  9 33  1  0  0  0  0
 10 12  1  0  0  0  0
 10 13  1  0  0  0  0
 10 34  1  0  0  0  0
 11 14  1  0  0  0  0
 11 16  1  0  0  0  0
 11 35  1  0  0  0  0
 12 36  1  0  0  0  0
 12 37  1  0  0  0  0
 13 38  1  0  0  0  0
 13 39  1  0  0  0  0
 14 40  1  0  0  0  0
 14 41  1  0  0  0  0
 16 17  1  0  0  0  0
 16 42  1  0  0  0  0
 16 43  1  0  0  0  0
 17 19  1  0  0  0  0
 17 46  1  0  0  0  0
 17 47  1  0  0  0  0
 18 20  1  0  0  0  0
 18 48  1  0  0  0  0
 18 49  1  0  0  0  0
 20 21  2  0  0  0  0
 20 22  1  0  0  0  0
 21 24  1  0  0  0  0
 21 51  1  0  0  0  0
 22 25  2  0  0  0  0
 22 52  1  0  0  0  0
 23 27  1  0  0  0  0
 23 53  1  0  0  0  0
 23 54  1  0  0  0  0
 24 26  2  0  0  0  0
 24 55  1  0  0  0  0
 25 26  1  0  0  0  0
 25 56  1  0  0  0  0
 27 28  2  0  0  0  0
 27 29  1  0  0  0  0
 28 30  1  0  0  0  0
 28 57  1  0  0  0  0
 29 31  2  0  0  0  0
 29 58  1  0  0  0  0
 30 32  2  0  0  0  0
 30 59  1  0  0  0  0
 31 32  1  0  0  0  0
 31 60  1  0  0  0  0
M  END
> <PUBCHEM_COMPOUND_CID>
45360653

> <PUBCHEM_CONFORMER_RMSD>
1

> <PUBCHEM_CONFORMER_DIVERSEORDER>
1
112
266
207
217
189
135
247
167
174
267
30
234
230
231
103
100
173
132
75
107
229
179
250
19
263
184
74
248
253
156
164
251
224
28
7
245
243
13
221
193
244
98
209
260
178
186
141
16
153
147
235
149
46
144
151
242
264
59
150
69
79
36
20
40
118
194
162
257
197
66
252
145
208
233
155
81
52
35
83
249
158
92
176
261
49
159
116
101
17
99
180
138
182
32
171
218
198
199
120
211
203
78
111
237
64
124
190
177
37
262
168
157
62
77
94
11
27
146
9
185
241
121
175
265
256
44
114
160
76
201
105
14
187
109
142
206
56
222
226
68
196
210
254
42
205
21
126
183
12
139
110
169
102
236
91
25
161
24
238
215
108
43
67
133
154
58
219
232
268
88
181
191
23
225
188
170
246
255
65
55
143
53
213
140
123
57
117
228
82
84
216
26
134
259
60
115
128
90
172
47
71
212
227
240
258
6
200
195
38
8
89
72
202
119
97
10
45
136
270
87
127
125
163
269
130
4
220
2
29
214
85
50
80
239
15
204
41
33
54
51
95
31
34
48
152
22
61
70
96
166
148
122
137
39
18
129
113
86
192
5
73
104
106
93
165
131
223
3
63

> <PUBCHEM_MMFF94_PARTIAL_CHARGES>
41
1 -0.19
10 0.27
11 0.27
13 0.27
14 0.3
15 0.57
17 0.06
18 0.41
19 0.57
2 -0.19
20 -0.14
21 -0.15
22 -0.15
23 0.44
24 -0.15
25 -0.15
26 0.19
27 -0.14
28 -0.15
29 -0.15
3 -0.57
30 -0.15
31 -0.15
32 0.19
4 -0.57
44 0.37
45 0.36
5 -0.81
50 0.37
51 0.15
52 0.15
55 0.15
56 0.15
57 0.15
58 0.15
59 0.15
6 -0.73
60 0.15
7 -0.9
8 -0.73
9 0.33

> <PUBCHEM_EFFECTIVE_ROTOR_COUNT>
10.2

> <PUBCHEM_PHARMACOPHORE_FEATURES>
11
1 3 acceptor
1 4 acceptor
1 5 cation
1 6 donor
1 7 cation
1 7 donor
1 8 donor
5 5 9 10 12 13 rings
6 20 21 22 24 25 26 rings
6 27 28 29 30 31 32 rings
6 5 6 9 11 14 15 rings

> <PUBCHEM_HEAVY_ATOM_COUNT>
32

> <PUBCHEM_ATOM_DEF_STEREO_COUNT>
3

> <PUBCHEM_ATOM_UDEF_STEREO_COUNT>
0

> <PUBCHEM_BOND_DEF_STEREO_COUNT>
0

> <PUBCHEM_BOND_UDEF_STEREO_COUNT>
0

> <PUBCHEM_ISOTOPIC_ATOM_COUNT>
0

> <PUBCHEM_COMPONENT_COUNT>
1

> <PUBCHEM_CACTVS_TAUTO_COUNT>
6

> <PUBCHEM_CONFORMER_ID>
02B4260D00000001

> <PUBCHEM_MMFF94_ENERGY>
64.0078

> <PUBCHEM_FEATURE_SELFOVERLAP>
56.01

> <PUBCHEM_SHAPE_FINGERPRINT>
105312 117 16009034934291095000
10554248 39 17240773840089817678
10577160 103 18265610060763929808
10577160 183 16153696623439628600
10674148 151 18201996621606041257
11488393 25 16986281006392110097
12128747 34 11386360413920472820
12373685 5 17968369067048501442
12422481 6 10087643727910975696
12988421 55 12468917525457716173
13941219 33 13614248065888543004
14114207 22 12184410267971593879
14932701 244 18409453574513487053
15183329 4 17022895766474519026
17686467 74 17846490445129985024
20101258 96 14764341605071514634
2838139 119 16370724812208667548
4015057 19 18114751520530141180
484985 159 15482662456341369965
4938544 92 8646765590776479628
5080951 261 18059577957710991475
6086070 43 15502657152607201220
6287921 2 17476345584872138455
70634741 139 18201716271731206150
77296 10 18269553849926824630

> <PUBCHEM_SHAPE_MULTIPOLES>
612.33
18.72
3.39
2.56
46.08
0.41
1.73
-9.26
-9.87
-7.13
0.06
-2.56
0.24
-0.3

> <PUBCHEM_SHAPE_SELFOVERLAP>
1304.758

> <PUBCHEM_SHAPE_VOLUME>
341

> <PUBCHEM_COORDINATE_TYPE>
2
5
10

$$$$
