51137192
  -OEChem-12032416243D

 46 49  0     1  0  0  0  0  0999 V2000
   -8.3679   -0.0248    1.0552 F   0  0  0  0  0  0  0  0  0  0  0  0
   -6.2993   -0.0014    1.7596 F   0  0  0  0  0  0  0  0  0  0  0  0
   -7.3033    1.8798    1.1782 F   0  0  0  0  0  0  0  0  0  0  0  0
    3.4558   -0.4793    0.2001 O   0  0  0  0  0  0  0  0  0  0  0  0
   -6.7378    0.3791   -0.4528 O   0  0  0  0  0  0  0  0  0  0  0  0
   -0.5211   -0.8749   -0.4960 N   0  0  1  0  0  0  0  0  0  0  0  0
    3.8653   -2.6684    0.4106 N   0  0  0  0  0  0  0  0  0  0  0  0
    5.0796   -2.0104    0.3529 N   0  0  0  0  0  0  0  0  0  0  0  0
    1.4405   -1.8646    0.3239 C   0  0  1  0  0  0  0  0  0  0  0  0
    0.7315   -1.1085    1.4609 C   0  0  0  0  0  0  0  0  0  0  0  0
    0.7896   -1.3339   -0.9606 C   0  0  0  0  0  0  0  0  0  0  0  0
   -0.2526   -0.1790    0.7624 C   0  0  0  0  0  0  0  0  0  0  0  0
   -1.1880   -0.0226   -1.4692 C   0  0  0  0  0  0  0  0  0  0  0  0
    2.9463   -1.7359    0.3180 C   0  0  0  0  0  0  0  0  0  0  0  0
   -2.6656    0.0850   -1.2008 C   0  0  0  0  0  0  0  0  0  0  0  0
   -3.5143   -0.9702   -1.5359 C   0  0  0  0  0  0  0  0  0  0  0  0
   -3.1855    1.2391   -0.6149 C   0  0  0  0  0  0  0  0  0  0  0  0
    4.7922   -0.7356    0.2299 C   0  0  0  0  0  0  0  0  0  0  0  0
   -4.8828   -0.8711   -1.2850 C   0  0  0  0  0  0  0  0  0  0  0  0
   -4.5539    1.3382   -0.3640 C   0  0  0  0  0  0  0  0  0  0  0  0
    5.6526    0.4069    0.1247 C   0  0  0  0  0  0  0  0  0  0  0  0
   -5.4026    0.2831   -0.6991 C   0  0  0  0  0  0  0  0  0  0  0  0
    7.0375    0.2414    0.1466 C   0  0  0  0  0  0  0  0  0  0  0  0
    5.1047    1.6835    0.0004 C   0  0  0  0  0  0  0  0  0  0  0  0
    7.8745    1.3526    0.0445 C   0  0  0  0  0  0  0  0  0  0  0  0
    5.9415    2.7948   -0.1020 C   0  0  0  0  0  0  0  0  0  0  0  0
    7.3264    2.6293   -0.0800 C   0  0  0  0  0  0  0  0  0  0  0  0
   -7.1632    0.5678    0.8922 C   0  0  0  0  0  0  0  0  0  0  0  0
    1.2023   -2.9322    0.4288 H   0  0  0  0  0  0  0  0  0  0  0  0
    0.1889   -1.8255    2.0898 H   0  0  0  0  0  0  0  0  0  0  0  0
    1.4164   -0.5511    2.1086 H   0  0  0  0  0  0  0  0  0  0  0  0
    1.3695   -0.5103   -1.3978 H   0  0  0  0  0  0  0  0  0  0  0  0
    0.6980   -2.1243   -1.7136 H   0  0  0  0  0  0  0  0  0  0  0  0
    0.2186    0.7988    0.5982 H   0  0  0  0  0  0  0  0  0  0  0  0
   -1.1540   -0.0367    1.3667 H   0  0  0  0  0  0  0  0  0  0  0  0
   -0.7265    0.9722   -1.5330 H   0  0  0  0  0  0  0  0  0  0  0  0
   -1.0806   -0.4524   -2.4753 H   0  0  0  0  0  0  0  0  0  0  0  0
   -3.1212   -1.8748   -1.9923 H   0  0  0  0  0  0  0  0  0  0  0  0
   -2.5352    2.0681   -0.3485 H   0  0  0  0  0  0  0  0  0  0  0  0
   -5.5390   -1.6965   -1.5474 H   0  0  0  0  0  0  0  0  0  0  0  0
   -4.9463    2.2453    0.0873 H   0  0  0  0  0  0  0  0  0  0  0  0
    7.4866   -0.7442    0.2427 H   0  0  0  0  0  0  0  0  0  0  0  0
    4.0311    1.8527   -0.0206 H   0  0  0  0  0  0  0  0  0  0  0  0
    8.9528    1.2241    0.0616 H   0  0  0  0  0  0  0  0  0  0  0  0
    5.5153    3.7891   -0.1989 H   0  0  0  0  0  0  0  0  0  0  0  0
    7.9780    3.4946   -0.1596 H   0  0  0  0  0  0  0  0  0  0  0  0
  1 28  1  0  0  0  0
  2 28  1  0  0  0  0
  3 28  1  0  0  0  0
  4 14  1  0  0  0  0
  4 18  1  0  0  0  0
  5 22  1  0  0  0  0
  5 28  1  0  0  0  0
  6 11  1  0  0  0  0
  6 12  1  0  0  0  0
  6 13  1  0  0  0  0
  7  8  1  0  0  0  0
  7 14  2  0  0  0  0
  8 18  2  0  0  0  0
  9 10  1  0  0  0  0
  9 11  1  0  0  0  0
  9 14  1  0  0  0  0
  9 29  1  0  0  0  0
 10 12  1  0  0  0  0
 10 30  1  0  0  0  0
 10 31  1  0  0  0  0
 11 32  1  0  0  0  0
 11 33  1  0  0  0  0
 12 34  1  0  0  0  0
 12 35  1  0  0  0  0
 13 15  1  0  0  0  0
 13 36  1  0  0  0  0
 13 37  1  0  0  0  0
 15 16  2  0  0  0  0
 15 17  1  0  0  0  0
 16 19  1  0  0  0  0
 16 38  1  0  0  0  0
 17 20  2  0  0  0  0
 17 39  1  0  0  0  0
 18 21  1  0  0  0  0
 19 22  2  0  0  0  0
 19 40  1  0  0  0  0
 20 22  1  0  0  0  0
 20 41  1  0  0  0  0
 21 23  2  0  0  0  0
 21 24  1  0  0  0  0
 23 25  1  0  0  0  0
 23 42  1  0  0  0  0
 24 26  2  0  0  0  0
 24 43  1  0  0  0  0
 25 27  2  0  0  0  0
 25 44  1  0  0  0  0
 26 27  1  0  0  0  0
 26 45  1  0  0  0  0
 27 46  1  0  0  0  0
M  END
> <PUBCHEM_COMPOUND_CID>
51137192

> <PUBCHEM_CONFORMER_RMSD>
0.8

> <PUBCHEM_CONFORMER_DIVERSEORDER>
1
171
73
191
71
123
175
44
79
194
160
186
38
180
165
114
182
24
78
131
141
23
153
3
126
101
109
179
22
145
155
140
64
166
52
89
183
27
37
72
74
93
113
176
181
134
51
174
177
151
157
69
148
7
115
99
18
159
91
17
129
45
150
81
67
135
36
162
92
187
30
184
48
185
39
152
116
21
57
172
2
173
105
118
136
83
139
167
19
158
76
119
142
77
82
164
25
178
188
50
53
26
102
146
87
6
132
65
90
128
33
137
154
189
127
66
107
54
9
133
163
168
14
117
63
169
80
144
29
190
96
20
124
149
100
70
138
98
104
147
84
156
49
12
85
170
86
120
28
8
95
143
43
31
112
15
40
35
5
42
121
41
11
122
68
192
62
130
103
13
55
111
110
4
60
193
34
94
59
32
46
16
106
58
75
108
10
125
47
161
56
61
97
88

> <PUBCHEM_MMFF94_PARTIAL_CHARGES>
36
1 -0.34
11 0.27
12 0.27
13 0.41
14 0.3
15 -0.14
16 -0.15
17 -0.15
18 0.43
19 -0.15
2 -0.34
20 -0.15
21 0.05
22 0.08
23 -0.15
24 -0.15
25 -0.15
26 -0.15
27 -0.15
28 1.3
3 -0.34
38 0.15
39 0.15
4 -0.28
40 0.15
41 0.15
42 0.15
43 0.15
44 0.15
45 0.15
46 0.15
5 -0.36
6 -0.81
7 -0.34
8 -0.34
9 0.18

> <PUBCHEM_EFFECTIVE_ROTOR_COUNT>
7

> <PUBCHEM_PHARMACOPHORE_FEATURES>
6
1 5 acceptor
1 6 cation
5 4 7 8 14 18 rings
5 6 9 10 11 12 rings
6 15 16 17 19 20 22 rings
6 21 23 24 25 26 27 rings

> <PUBCHEM_HEAVY_ATOM_COUNT>
28

> <PUBCHEM_ATOM_DEF_STEREO_COUNT>
1

> <PUBCHEM_ATOM_UDEF_STEREO_COUNT>
0

> <PUBCHEM_BOND_DEF_STEREO_COUNT>
0

> <PUBCHEM_BOND_UDEF_STEREO_COUNT>
0

> <PUBCHEM_ISOTOPIC_ATOM_COUNT>
0

> <PUBCHEM_COMPONENT_COUNT>
1

> <PUBCHEM_CACTVS_TAUTO_COUNT>
1

> <PUBCHEM_CONFORMER_ID>
030C4AA800000001

> <PUBCHEM_MMFF94_ENERGY>
66.9646

> <PUBCHEM_FEATURE_SELFOVERLAP>
30.448

> <PUBCHEM_SHAPE_FINGERPRINT>
10 15 17821728342504917578
10299344 5 18131347510131268279
10319688 67 16009029522780249272
10391435 84 17313107480144416443
10595046 47 18412254034803457302
106641 1 17167583803785845341
10906281 52 17846787295308984223
10917259 69 11022734326835464259
11315181 36 18342735227117077023
11456790 92 18113887236019002944
11646440 116 17603584136575782044
11719270 70 13045941287537563369
12035758 1 16805602590142614782
12592606 108 8646771097072492832
12730499 353 18113334177122238146
13914758 101 9511468827366972727
14216079 64 10592051258579759372
14251757 52 18131073718539839765
14251764 18 17917987283589033383
14394314 77 18413390938786498053
14461889 52 16950287308019760674
14849402 71 18339361967327824065
14856354 85 17489302014923667663
14918687 75 12035443966170302528
14933364 13 18411416211390689198
15064981 194 18123764303442158116
15183329 4 16845575330986007032
15188451 53 12035442840118075054
15198563 99 14333143965670235546
15475509 8 14836126554464244202
15685185 35 18194123143415493196
15690457 1 11746934300240950880
15728490 51 18261110829192035315
1577012 14 18131344211248180111
15840311 113 18410577253721868829
16992752 21 17843955069742100191
1768 4 18260829345277126724
18393751 57 17458622354727048310
19302320 297 18041837433279129004
20157964 124 18409446973755654586
20567600 234 16877947161263528478
21033648 29 16588291744695790646
21095123 293 17846788377930958745
21298829 104 18339920532847532612
21315764 119 16343709859096448604
21521721 280 18335421253107676331
21585481 104 17203343212747706708
21781055 127 17060342873533038378
21987483 16 13263833787758266341
2215653 11 12175620694023789670
22224240 67 17749388170011023979
23081809 10 17845920875656098847
23522609 53 17989214737304433729
23576562 1 16055730214355956137
2747138 104 17385730170659194085
2838139 119 18334563664904252116
3004659 81 11600004367193908142
3014063 24 8358266951568878612
3092352 35 18060698398836259575
34797466 226 18272654519645145782
3711267 37 17775290464579936833
397830 11 18040722493183930595
4073 2 18259984898661415170
4093350 32 18130793339243955254
4112364 45 16588876810369372644
4340502 62 17458341931869885802
437795 51 18334015007715892153
445580 126 18411125958176175808
5085150 59 13551194394367498129
5104073 3 17532080601407474489
54076057 127 18411422782939370762
54076057 255 17632291289696167288
5758199 1 18408040723341136574
5911458 16 18059863860788948049
59682541 35 17822296807781851161
59682541 52 17632308861404310014
6328613 192 18202281403454303689
9689198 14 18272656748448075541
9953998 17 17676209083287943289

> <PUBCHEM_SHAPE_MULTIPOLES>
527.72
24.99
2.4
1.27
9.09
0.29
-0.05
15.06
-5.26
-4.65
-0.19
2.39
-0.14
-1.33

> <PUBCHEM_SHAPE_SELFOVERLAP>
1150.442

> <PUBCHEM_SHAPE_VOLUME>
290.3

> <PUBCHEM_COORDINATE_TYPE>
2
5
10

$$$$
