45783334
  -OEChem-12032416263D

 57 61  0     1  0  0  0  0  0999 V2000
   -3.6346   -2.0412   -0.0982 O   0  0  0  0  0  0  0  0  0  0  0  0
    5.8547    1.9075    1.1721 O   0  0  0  0  0  0  0  0  0  0  0  0
   -3.9902    1.5549   -0.7667 N   0  0  1  0  0  0  0  0  0  0  0  0
    3.1034   -0.4319   -0.3811 N   0  0  0  0  0  0  0  0  0  0  0  0
   -1.9598   -0.6219   -0.5423 N   0  0  0  0  0  0  0  0  0  0  0  0
   -3.3866    0.9129    2.6505 N   0  0  0  0  0  0  0  0  0  0  0  0
   -2.4520   -2.7264    0.2078 N   0  0  0  0  0  0  0  0  0  0  0  0
    2.6196   -2.6141    0.3997 N   0  0  0  0  0  0  0  0  0  0  0  0
   -1.8392    1.9140    1.4115 N   0  0  0  0  0  0  0  0  0  0  0  0
    7.3985    1.3504   -0.4404 N   0  0  0  0  0  0  0  0  0  0  0  0
   -4.3670    0.1367   -0.9310 C   0  0  1  0  0  0  0  0  0  0  0  0
   -4.7574    0.0051   -2.4148 C   0  0  0  0  0  0  0  0  0  0  0  0
   -4.6276    1.4098   -2.9862 C   0  0  0  0  0  0  0  0  0  0  0  0
   -4.7499    2.3032   -1.7684 C   0  0  0  0  0  0  0  0  0  0  0  0
    5.0830    1.5779   -1.0677 C   0  0  0  0  0  0  0  0  0  0  0  0
    5.0610    0.2031   -1.7328 C   0  0  0  0  0  0  0  0  0  0  0  0
    3.7056    1.9539   -0.5256 C   0  0  0  0  0  0  0  0  0  0  0  0
   -4.2182    2.0572    0.5821 C   0  0  0  0  0  0  0  0  0  0  0  0
    4.4220   -0.8716   -0.8536 C   0  0  0  0  0  0  0  0  0  0  0  0
    3.0629    0.8536    0.3213 C   0  0  0  0  0  0  0  0  0  0  0  0
   -3.2551   -0.8110   -0.5328 C   0  0  0  0  0  0  0  0  0  0  0  0
    2.1702   -1.4242   -0.0583 C   0  0  0  0  0  0  0  0  0  0  0  0
   -3.1207    1.6449    1.5269 C   0  0  0  0  0  0  0  0  0  0  0  0
    6.1285    1.6270    0.0077 C   0  0  0  0  0  0  0  0  0  0  0  0
   -1.5092   -1.8240   -0.0800 C   0  0  0  0  0  0  0  0  0  0  0  0
    0.8306   -1.1163   -0.2334 C   0  0  0  0  0  0  0  0  0  0  0  0
   -0.1081   -2.0925    0.0817 C   0  0  0  0  0  0  0  0  0  0  0  0
    0.3154   -3.3293    0.5555 C   0  0  0  0  0  0  0  0  0  0  0  0
    1.6779   -3.5382    0.6954 C   0  0  0  0  0  0  0  0  0  0  0  0
   -2.1989    0.7017    3.2924 C   0  0  0  0  0  0  0  0  0  0  0  0
   -1.2590    1.3288    2.5090 C   0  0  0  0  0  0  0  0  0  0  0  0
   -5.2567   -0.1013   -0.3311 H   0  0  0  0  0  0  0  0  0  0  0  0
   -4.1358   -0.7018   -2.9750 H   0  0  0  0  0  0  0  0  0  0  0  0
   -5.7996   -0.3278   -2.4935 H   0  0  0  0  0  0  0  0  0  0  0  0
   -5.3909    1.6217   -3.7407 H   0  0  0  0  0  0  0  0  0  0  0  0
   -3.6426    1.5325   -3.4536 H   0  0  0  0  0  0  0  0  0  0  0  0
   -4.3250    3.2947   -1.9529 H   0  0  0  0  0  0  0  0  0  0  0  0
   -5.8035    2.4135   -1.4817 H   0  0  0  0  0  0  0  0  0  0  0  0
    5.3735    2.3273   -1.8164 H   0  0  0  0  0  0  0  0  0  0  0  0
    4.4689    0.2849   -2.6548 H   0  0  0  0  0  0  0  0  0  0  0  0
    6.0549   -0.1336   -2.0451 H   0  0  0  0  0  0  0  0  0  0  0  0
    3.7483    2.8842    0.0535 H   0  0  0  0  0  0  0  0  0  0  0  0
    3.0463    2.1539   -1.3812 H   0  0  0  0  0  0  0  0  0  0  0  0
   -4.2003    3.1556    0.5700 H   0  0  0  0  0  0  0  0  0  0  0  0
   -5.2053    1.7718    0.9675 H   0  0  0  0  0  0  0  0  0  0  0  0
    5.0667   -1.1003    0.0039 H   0  0  0  0  0  0  0  0  0  0  0  0
    4.3344   -1.7861   -1.4541 H   0  0  0  0  0  0  0  0  0  0  0  0
    2.0353    1.1613    0.5478 H   0  0  0  0  0  0  0  0  0  0  0  0
    3.5745    0.7519    1.2853 H   0  0  0  0  0  0  0  0  0  0  0  0
    0.5288   -0.1476   -0.6210 H   0  0  0  0  0  0  0  0  0  0  0  0
   -4.2942    0.5845    2.9526 H   0  0  0  0  0  0  0  0  0  0  0  0
    8.1853    1.3527    0.2004 H   0  0  0  0  0  0  0  0  0  0  0  0
    7.6153    1.1819   -1.4171 H   0  0  0  0  0  0  0  0  0  0  0  0
   -0.3703   -4.1283    0.8175 H   0  0  0  0  0  0  0  0  0  0  0  0
    2.0604   -4.4854    1.0612 H   0  0  0  0  0  0  0  0  0  0  0  0
   -2.1347    0.1425    4.2144 H   0  0  0  0  0  0  0  0  0  0  0  0
   -0.1935    1.3867    2.6776 H   0  0  0  0  0  0  0  0  0  0  0  0
  1  7  1  0  0  0  0
  1 21  1  0  0  0  0
  2 24  2  0  0  0  0
  3 11  1  0  0  0  0
  3 14  1  0  0  0  0
  3 18  1  0  0  0  0
  4 19  1  0  0  0  0
  4 20  1  0  0  0  0
  4 22  1  0  0  0  0
  5 21  2  0  0  0  0
  5 25  1  0  0  0  0
  6 23  1  0  0  0  0
  6 30  1  0  0  0  0
  6 51  1  0  0  0  0
  7 25  2  0  0  0  0
  8 22  2  0  0  0  0
  8 29  1  0  0  0  0
  9 23  2  0  0  0  0
  9 31  1  0  0  0  0
 10 24  1  0  0  0  0
 10 52  1  0  0  0  0
 10 53  1  0  0  0  0
 11 12  1  0  0  0  0
 11 21  1  0  0  0  0
 11 32  1  0  0  0  0
 12 13  1  0  0  0  0
 12 33  1  0  0  0  0
 12 34  1  0  0  0  0
 13 14  1  0  0  0  0
 13 35  1  0  0  0  0
 13 36  1  0  0  0  0
 14 37  1  0  0  0  0
 14 38  1  0  0  0  0
 15 16  1  0  0  0  0
 15 17  1  0  0  0  0
 15 24  1  0  0  0  0
 15 39  1  0  0  0  0
 16 19  1  0  0  0  0
 16 40  1  0  0  0  0
 16 41  1  0  0  0  0
 17 20  1  0  0  0  0
 17 42  1  0  0  0  0
 17 43  1  0  0  0  0
 18 23  1  0  0  0  0
 18 44  1  0  0  0  0
 18 45  1  0  0  0  0
 19 46  1  0  0  0  0
 19 47  1  0  0  0  0
 20 48  1  0  0  0  0
 20 49  1  0  0  0  0
 22 26  1  0  0  0  0
 25 27  1  0  0  0  0
 26 27  2  0  0  0  0
 26 50  1  0  0  0  0
 27 28  1  0  0  0  0
 28 29  2  0  0  0  0
 28 54  1  0  0  0  0
 29 55  1  0  0  0  0
 30 31  2  0  0  0  0
 30 56  1  0  0  0  0
 31 57  1  0  0  0  0
M  END
> <PUBCHEM_COMPOUND_CID>
45783334

> <PUBCHEM_CONFORMER_RMSD>
1

> <PUBCHEM_CONFORMER_DIVERSEORDER>
1
42
87
98
62
8
41
92
43
101
25
33
113
96
35
18
120
90
103
78
49
48
36
124
108
106
109
111
127
97
39
86
82
115
51
53
54
117
30
65
27
11
32
102
105
63
31
95
44
69
99
71
110
61
77
81
118
93
46
119
14
80
83
21
89
104
22
123
114
29
57
15
84
24
28
88
60
4
2
73
55
50
94
85
19
20
7
52
64
59
107
67
79
116
9
75
70
122
17
125
16
68
5
38
47
100
23
66
74
91
56
58
6
37
12
40
112
26
13
3
72
34
126
76
121
45
10

> <PUBCHEM_MMFF94_PARTIAL_CHARGES>
35
1 -0.02
10 -0.8
11 0.45
14 0.27
15 0.06
18 0.45
19 0.37
2 -0.57
20 0.37
21 0.3
22 0.41
23 0.01
24 0.57
25 0.46
26 -0.15
27 0.05
28 -0.15
29 0.16
3 -0.81
30 -0.3
31 0.08
4 -0.84
5 -0.57
50 0.15
51 0.27
52 0.37
53 0.37
54 0.15
55 0.15
56 0.15
57 0.15
6 0.03
7 -0.41
8 -0.62
9 -0.57

> <PUBCHEM_EFFECTIVE_ROTOR_COUNT>
8.2

> <PUBCHEM_PHARMACOPHORE_FEATURES>
12
1 10 donor
1 2 acceptor
1 3 cation
1 6 donor
3 4 8 22 cation
3 5 7 25 cation
3 6 9 23 cation
5 1 5 7 21 25 rings
5 3 11 12 13 14 rings
5 6 9 23 30 31 rings
6 4 15 16 17 19 20 rings
6 8 22 26 27 28 29 rings

> <PUBCHEM_HEAVY_ATOM_COUNT>
31

> <PUBCHEM_ATOM_DEF_STEREO_COUNT>
1

> <PUBCHEM_ATOM_UDEF_STEREO_COUNT>
0

> <PUBCHEM_BOND_DEF_STEREO_COUNT>
0

> <PUBCHEM_BOND_UDEF_STEREO_COUNT>
0

> <PUBCHEM_ISOTOPIC_ATOM_COUNT>
0

> <PUBCHEM_COMPONENT_COUNT>
1

> <PUBCHEM_CACTVS_TAUTO_COUNT>
2

> <PUBCHEM_CONFORMER_ID>
02BA992600000001

> <PUBCHEM_MMFF94_ENERGY>
64.6411

> <PUBCHEM_FEATURE_SELFOVERLAP>
60.901

> <PUBCHEM_SHAPE_FINGERPRINT>
11387372 6 13137794794471141725
11477941 20 16559030506339323096
11479125 193 17974848363985079717
12422481 6 17095514077024638622
12788726 201 17417253092261654481
13590594 115 17615976504541688058
14468879 13 17676487207747090101
14848178 96 18334852797095573014
14931854 50 18202273706635851085
14950920 106 14634875283574648828
15513586 35 16445061805198670837
21033648 144 18408603634560764014
21033650 10 16271932571166108715
21049683 271 18050003591853285927
21279426 13 18410860950025164774
22907989 373 17775567503435314715
23559900 14 18194387914594528802
3459 83 17985845743825863614
3610482 184 17202789019446345872
4112364 45 16155934005006396805
469060 322 17970366990738541443
5104073 3 17822007584167784571
6034566 193 17970088809621990844
6299153 45 18336823101307219114
9981440 41 17822007622985903483

> <PUBCHEM_SHAPE_MULTIPOLES>
586.38
14.32
3.59
2.48
16.77
2.7
-1.01
-11.67
6.28
0.67
-0.41
-4.12
-1.67
0.03

> <PUBCHEM_SHAPE_SELFOVERLAP>
1274.51

> <PUBCHEM_SHAPE_VOLUME>
317.4

> <PUBCHEM_COORDINATE_TYPE>
2
5
10

$$$$
