40779644
  -OEChem-12032416313D

 56 59  0     1  0  0  0  0  0999 V2000
   -7.2730   -2.0554   -0.2779 F   0  0  0  0  0  0  0  0  0  0  0  0
   -7.6583   -0.2265    0.8331 F   0  0  0  0  0  0  0  0  0  0  0  0
   -6.5990   -1.8749    1.7756 F   0  0  0  0  0  0  0  0  0  0  0  0
   -1.7235    2.1336   -1.8157 O   0  0  0  0  0  0  0  0  0  0  0  0
    2.6793    2.1818   -0.5950 N   0  0  2  0  0  0  0  0  0  0  0  0
    5.1678   -1.4048   -0.0572 N   0  0  0  0  0  0  0  0  0  0  0  0
   -0.5691    0.3204   -0.9412 N   0  0  0  0  0  0  0  0  0  0  0  0
    2.8662    1.0851    1.7564 C   0  0  2  0  0  0  0  0  0  0  0  0
    3.9715    0.5588    0.8127 C   0  0  2  0  0  0  0  0  0  0  0  0
    1.3677    1.6025   -0.1972 C   0  0  2  0  0  0  0  0  0  0  0  0
    1.4871    0.8155    1.1268 C   0  0  0  0  0  0  0  0  0  0  0  0
    3.7252    1.1306   -0.6015 C   0  0  0  0  0  0  0  0  0  0  0  0
    3.0390    2.6138    1.8391 C   0  0  0  0  0  0  0  0  0  0  0  0
    3.0540    3.2001    0.4163 C   0  0  0  0  0  0  0  0  0  0  0  0
    4.0729   -0.9647    0.7945 C   0  0  0  0  0  0  0  0  0  0  0  0
    0.7433    0.7549   -1.3080 C   0  0  0  0  0  0  0  0  0  0  0  0
    6.4690   -1.2871    0.6004 C   0  0  0  0  0  0  0  0  0  0  0  0
    5.0554   -2.8155   -0.4267 C   0  0  0  0  0  0  0  0  0  0  0  0
    7.3739   -2.1382   -0.2784 C   0  0  0  0  0  0  0  0  0  0  0  0
    6.4444   -3.1403   -0.9562 C   0  0  0  0  0  0  0  0  0  0  0  0
   -1.7184    1.0552   -1.2281 C   0  0  0  0  0  0  0  0  0  0  0  0
   -3.0042    0.4794   -0.7565 C   0  0  0  0  0  0  0  0  0  0  0  0
   -4.0828    1.3184   -0.4762 C   0  0  0  0  0  0  0  0  0  0  0  0
   -3.1326   -0.8998   -0.5933 C   0  0  0  0  0  0  0  0  0  0  0  0
   -5.2898    0.7780   -0.0324 C   0  0  0  0  0  0  0  0  0  0  0  0
   -4.3395   -1.4402   -0.1496 C   0  0  0  0  0  0  0  0  0  0  0  0
   -5.4180   -0.6013    0.1309 C   0  0  0  0  0  0  0  0  0  0  0  0
   -6.7085   -1.1796    0.6052 C   0  0  0  0  0  0  0  0  0  0  0  0
    2.9378    0.6341    2.7517 H   0  0  0  0  0  0  0  0  0  0  0  0
    4.9234    0.9630    1.1855 H   0  0  0  0  0  0  0  0  0  0  0  0
    0.6773    2.4419   -0.0264 H   0  0  0  0  0  0  0  0  0  0  0  0
    1.3427   -0.2603    0.9844 H   0  0  0  0  0  0  0  0  0  0  0  0
    0.7005    1.1473    1.8165 H   0  0  0  0  0  0  0  0  0  0  0  0
    4.6600    1.5623   -0.9833 H   0  0  0  0  0  0  0  0  0  0  0  0
    3.4626    0.3518   -1.3258 H   0  0  0  0  0  0  0  0  0  0  0  0
    3.9728    2.8656    2.3555 H   0  0  0  0  0  0  0  0  0  0  0  0
    2.2184    3.0525    2.4195 H   0  0  0  0  0  0  0  0  0  0  0  0
    2.3690    4.0550    0.3578 H   0  0  0  0  0  0  0  0  0  0  0  0
    4.0474    3.6050    0.1845 H   0  0  0  0  0  0  0  0  0  0  0  0
    3.1361   -1.3745    0.3976 H   0  0  0  0  0  0  0  0  0  0  0  0
    4.1700   -1.3578    1.8148 H   0  0  0  0  0  0  0  0  0  0  0  0
    1.3268   -0.1488   -1.5103 H   0  0  0  0  0  0  0  0  0  0  0  0
    0.6840    1.3312   -2.2385 H   0  0  0  0  0  0  0  0  0  0  0  0
    6.8275   -0.2543    0.6465 H   0  0  0  0  0  0  0  0  0  0  0  0
    6.4538   -1.6981    1.6180 H   0  0  0  0  0  0  0  0  0  0  0  0
    4.8328   -3.4455    0.4442 H   0  0  0  0  0  0  0  0  0  0  0  0
    4.2859   -2.9844   -1.1866 H   0  0  0  0  0  0  0  0  0  0  0  0
    8.1495   -2.6387    0.3100 H   0  0  0  0  0  0  0  0  0  0  0  0
    7.8716   -1.5228   -1.0371 H   0  0  0  0  0  0  0  0  0  0  0  0
    6.4872   -3.0085   -2.0438 H   0  0  0  0  0  0  0  0  0  0  0  0
    6.7284   -4.1733   -0.7316 H   0  0  0  0  0  0  0  0  0  0  0  0
   -0.6313   -0.5344   -0.3988 H   0  0  0  0  0  0  0  0  0  0  0  0
   -4.0009    2.3959   -0.5927 H   0  0  0  0  0  0  0  0  0  0  0  0
   -2.3282   -1.5900   -0.8293 H   0  0  0  0  0  0  0  0  0  0  0  0
   -6.1174    1.4486    0.1815 H   0  0  0  0  0  0  0  0  0  0  0  0
   -4.4327   -2.5166   -0.0316 H   0  0  0  0  0  0  0  0  0  0  0  0
  1 28  1  0  0  0  0
  2 28  1  0  0  0  0
  3 28  1  0  0  0  0
  4 21  2  0  0  0  0
  5 10  1  0  0  0  0
  5 12  1  0  0  0  0
  5 14  1  0  0  0  0
  6 15  1  0  0  0  0
  6 17  1  0  0  0  0
  6 18  1  0  0  0  0
  7 16  1  0  0  0  0
  7 21  1  0  0  0  0
  7 52  1  0  0  0  0
  8  9  1  0  0  0  0
  8 11  1  0  0  0  0
  8 13  1  0  0  0  0
  8 29  1  0  0  0  0
  9 12  1  0  0  0  0
  9 15  1  0  0  0  0
  9 30  1  0  0  0  0
 10 11  1  0  0  0  0
 10 16  1  0  0  0  0
 10 31  1  0  0  0  0
 11 32  1  0  0  0  0
 11 33  1  0  0  0  0
 12 34  1  0  0  0  0
 12 35  1  0  0  0  0
 13 14  1  0  0  0  0
 13 36  1  0  0  0  0
 13 37  1  0  0  0  0
 14 38  1  0  0  0  0
 14 39  1  0  0  0  0
 15 40  1  0  0  0  0
 15 41  1  0  0  0  0
 16 42  1  0  0  0  0
 16 43  1  0  0  0  0
 17 19  1  0  0  0  0
 17 44  1  0  0  0  0
 17 45  1  0  0  0  0
 18 20  1  0  0  0  0
 18 46  1  0  0  0  0
 18 47  1  0  0  0  0
 19 20  1  0  0  0  0
 19 48  1  0  0  0  0
 19 49  1  0  0  0  0
 20 50  1  0  0  0  0
 20 51  1  0  0  0  0
 21 22  1  0  0  0  0
 22 23  2  0  0  0  0
 22 24  1  0  0  0  0
 23 25  1  0  0  0  0
 23 53  1  0  0  0  0
 24 26  2  0  0  0  0
 24 54  1  0  0  0  0
 25 27  2  0  0  0  0
 25 55  1  0  0  0  0
 26 27  1  0  0  0  0
 26 56  1  0  0  0  0
 27 28  1  0  0  0  0
M  END
> <PUBCHEM_COMPOUND_CID>
40779644

> <PUBCHEM_CONFORMER_RMSD>
1

> <PUBCHEM_CONFORMER_DIVERSEORDER>
1
16
13
10
15
17
12
11
6
9
8
4
18
2
7
5
3
14

> <PUBCHEM_MMFF94_PARTIAL_CHARGES>
27
1 -0.34
10 0.27
12 0.27
14 0.27
15 0.27
16 0.3
17 0.27
18 0.27
2 -0.34
21 0.54
22 0.09
23 -0.15
24 -0.15
25 -0.15
26 -0.15
27 -0.14
28 1.16
3 -0.34
4 -0.57
5 -0.81
52 0.37
53 0.15
54 0.15
55 0.15
56 0.15
6 -0.81
7 -0.73

> <PUBCHEM_EFFECTIVE_ROTOR_COUNT>
9.2

> <PUBCHEM_PHARMACOPHORE_FEATURES>
7
1 4 acceptor
1 5 cation
1 6 cation
1 7 donor
5 6 17 18 19 20 rings
6 22 23 24 25 26 27 rings
8 5 8 9 10 11 12 13 14 rings

> <PUBCHEM_HEAVY_ATOM_COUNT>
28

> <PUBCHEM_ATOM_DEF_STEREO_COUNT>
3

> <PUBCHEM_ATOM_UDEF_STEREO_COUNT>
0

> <PUBCHEM_BOND_DEF_STEREO_COUNT>
0

> <PUBCHEM_BOND_UDEF_STEREO_COUNT>
0

> <PUBCHEM_ISOTOPIC_ATOM_COUNT>
0

> <PUBCHEM_COMPONENT_COUNT>
1

> <PUBCHEM_CACTVS_TAUTO_COUNT>
2

> <PUBCHEM_CONFORMER_ID>
026E3F7C00000001

> <PUBCHEM_MMFF94_ENERGY>
60.5205

> <PUBCHEM_FEATURE_SELFOVERLAP>
35.522

> <PUBCHEM_SHAPE_FINGERPRINT>
10316853 100 18333453144706370034
10319926 262 18411976932425304461
10666366 153 17749382664633136063
10692045 39 17275110500654264647
11135609 127 8574438590609204639
11456790 92 17632305571169334395
11545043 162 18335132060175019885
11638347 137 18341053000022783675
12107183 9 17918273147152155255
12342043 65 18408318874118869788
12616971 3 17060333054815299973
13103583 49 15768908231263604980
13150687 139 12757438203318002994
13402501 40 18410009893238597294
13533116 47 18341050808381193793
13673619 4 18335138670277011148
13685833 64 18409729547795535106
13690498 29 18041274366421704356
13782708 43 18410290311489322735
13955234 65 18270954769675199848
14251740 57 18186801417442803613
14251764 30 18334011670552481476
14341114 176 18341889701462240984
14347424 109 18131632313549663889
14420673 8 18339080367675164679
14556957 393 14273739490978146927
14767858 380 14996289089431217822
14950920 106 17917430960353275499
15289351 153 7997974570949038270
15352257 5 18335141985717807654
15475509 35 18412823578032675106
15961568 22 10015860990173753922
16120349 189 8646181763847206794
1813 80 16660354909601745989
18222031 100 16443057322787269109
20465049 17 18187364316242058018
20505436 4 17272567498327841820
20511986 3 11311776142351618177
20715895 44 10375863091793030958
20721686 146 11455880383136177138
21049683 271 18408606964305611108
21130935 74 18269557294764824339
21150785 3 12901551247725330923
21298829 104 9943808902257571139
21365058 113 18260271824341885140
21521239 73 14635147860217736186
21716022 299 18337969930674682676
21987483 16 17485914544385416487
23522609 53 17898884316280275868
23559900 14 18333723607170214508
255183 451 18333454240096695196
3004659 81 16515682273535973981
3178227 256 18272371958263475694
3552219 110 17489307461485771560
437815 12 18411702045954370970
439807 62 18041280972145111278
46194498 28 18113615690869459028
465052 167 18343302552998484412
5104073 3 16557891467921299503
54039377 194 18411140191692896870
54076057 127 18189063151758749376
56633871 153 18341607153175996071
57307002 103 18340204219072861976
57634706 306 11747806243591330638
58260988 587 18264490775349556456
6058803 2 16125527259652832556
8863177 126 18409444804238104782
9831232 110 18334857190705127223
9962374 69 18270105924484988790
999808 66 18411700950252901078

> <PUBCHEM_SHAPE_MULTIPOLES>
533.59
20.94
3.31
1.42
17.12
0.1
0.2
19.69
4.08
-5.09
0.04
0.14
-0.5
2.63

> <PUBCHEM_SHAPE_SELFOVERLAP>
1136.877

> <PUBCHEM_SHAPE_VOLUME>
298.1

> <PUBCHEM_COORDINATE_TYPE>
2
5
10

$$$$
