75536781
  -OEChem-12032416303D

 49 51  0     1  0  0  0  0  0999 V2000
   -3.6091   -1.1233    0.9996 O   0  0  0  0  0  0  0  0  0  0  0  0
   -5.0961    1.6605    0.4451 O   0  0  0  0  0  0  0  0  0  0  0  0
   -1.5610   -2.8661   -0.2519 O   0  0  0  0  0  0  0  0  0  0  0  0
   -1.5088    1.0947    0.6638 N   0  0  0  0  0  0  0  0  0  0  0  0
   -2.0349   -0.8791   -1.3369 N   0  0  0  0  0  0  0  0  0  0  0  0
    0.1591   -1.3836   -0.8471 N   0  0  0  0  0  0  0  0  0  0  0  0
    4.7306    1.9875    1.8317 N   0  0  0  0  0  0  0  0  0  0  0  0
   -2.8858    1.1258    1.1523 C   0  0  1  0  0  0  0  0  0  0  0  0
   -3.8861    1.0334    0.0135 C   0  0  1  0  0  0  0  0  0  0  0  0
   -4.1364   -0.4634   -0.1663 C   0  0  1  0  0  0  0  0  0  0  0  0
   -3.2029   -0.1298    1.9483 C   0  0  0  0  0  0  0  0  0  0  0  0
   -3.4582   -1.0498   -1.3950 C   0  0  0  0  0  0  0  0  0  0  0  0
   -1.0457    2.4323    0.3142 C   0  0  0  0  0  0  0  0  0  0  0  0
    0.3668    2.4182   -0.2067 C   0  0  0  0  0  0  0  0  0  0  0  0
   -1.1663   -1.8180   -0.7576 C   0  0  0  0  0  0  0  0  0  0  0  0
    1.4363    2.2727    0.6770 C   0  0  0  0  0  0  0  0  0  0  0  0
    0.6056    2.5494   -1.5748 C   0  0  0  0  0  0  0  0  0  0  0  0
    2.7444    2.2585    0.1928 C   0  0  0  0  0  0  0  0  0  0  0  0
    1.9137    2.5348   -2.0591 C   0  0  0  0  0  0  0  0  0  0  0  0
    2.9830    2.3897   -1.1753 C   0  0  0  0  0  0  0  0  0  0  0  0
    1.3217   -2.0424   -0.3835 C   0  0  0  0  0  0  0  0  0  0  0  0
    2.5737   -1.4534   -0.5599 C   0  0  0  0  0  0  0  0  0  0  0  0
    1.2164   -3.2813    0.2488 C   0  0  0  0  0  0  0  0  0  0  0  0
    3.8403    2.1089    1.0972 C   0  0  0  0  0  0  0  0  0  0  0  0
    3.7208   -2.1033   -0.1038 C   0  0  0  0  0  0  0  0  0  0  0  0
    2.3633   -3.9312    0.7049 C   0  0  0  0  0  0  0  0  0  0  0  0
    3.6155   -3.3421    0.5287 C   0  0  0  0  0  0  0  0  0  0  0  0
   -3.0425    1.9957    1.8019 H   0  0  0  0  0  0  0  0  0  0  0  0
   -3.5822    1.5449   -0.9050 H   0  0  0  0  0  0  0  0  0  0  0  0
   -5.2087   -0.6860   -0.2128 H   0  0  0  0  0  0  0  0  0  0  0  0
   -2.3671   -0.5098    2.5442 H   0  0  0  0  0  0  0  0  0  0  0  0
   -4.0459    0.0432    2.6276 H   0  0  0  0  0  0  0  0  0  0  0  0
   -3.8173   -0.5640   -2.3078 H   0  0  0  0  0  0  0  0  0  0  0  0
   -3.6755   -2.1213   -1.4651 H   0  0  0  0  0  0  0  0  0  0  0  0
   -0.9009    0.7204    1.3927 H   0  0  0  0  0  0  0  0  0  0  0  0
   -1.0826    3.0959    1.1884 H   0  0  0  0  0  0  0  0  0  0  0  0
   -1.7024    2.8829   -0.4401 H   0  0  0  0  0  0  0  0  0  0  0  0
   -5.7432    1.5688   -0.2752 H   0  0  0  0  0  0  0  0  0  0  0  0
   -1.6375   -0.0298   -1.7267 H   0  0  0  0  0  0  0  0  0  0  0  0
    1.2470    2.1706    1.7437 H   0  0  0  0  0  0  0  0  0  0  0  0
   -0.2179    2.6592   -2.2754 H   0  0  0  0  0  0  0  0  0  0  0  0
    0.3153   -0.4863   -1.2989 H   0  0  0  0  0  0  0  0  0  0  0  0
    2.0994    2.6349   -3.1245 H   0  0  0  0  0  0  0  0  0  0  0  0
    3.9969    2.3789   -1.5682 H   0  0  0  0  0  0  0  0  0  0  0  0
    2.6712   -0.5005   -1.0682 H   0  0  0  0  0  0  0  0  0  0  0  0
    0.2842   -3.8000    0.4215 H   0  0  0  0  0  0  0  0  0  0  0  0
    4.6959   -1.6463   -0.2449 H   0  0  0  0  0  0  0  0  0  0  0  0
    2.2829   -4.8960    1.1973 H   0  0  0  0  0  0  0  0  0  0  0  0
    4.5086   -3.8484    0.8831 H   0  0  0  0  0  0  0  0  0  0  0  0
  1 10  1  0  0  0  0
  1 11  1  0  0  0  0
  2  9  1  0  0  0  0
  2 38  1  0  0  0  0
  3 15  2  0  0  0  0
  4  8  1  0  0  0  0
  4 13  1  0  0  0  0
  4 35  1  0  0  0  0
  5 12  1  0  0  0  0
  5 15  1  0  0  0  0
  5 39  1  0  0  0  0
  6 15  1  0  0  0  0
  6 21  1  0  0  0  0
  6 42  1  0  0  0  0
  7 24  3  0  0  0  0
  8  9  1  0  0  0  0
  8 11  1  0  0  0  0
  8 28  1  0  0  0  0
  9 10  1  0  0  0  0
  9 29  1  0  0  0  0
 10 12  1  0  0  0  0
 10 30  1  0  0  0  0
 11 31  1  0  0  0  0
 11 32  1  0  0  0  0
 12 33  1  0  0  0  0
 12 34  1  0  0  0  0
 13 14  1  0  0  0  0
 13 36  1  0  0  0  0
 13 37  1  0  0  0  0
 14 16  2  0  0  0  0
 14 17  1  0  0  0  0
 16 18  1  0  0  0  0
 16 40  1  0  0  0  0
 17 19  2  0  0  0  0
 17 41  1  0  0  0  0
 18 20  2  0  0  0  0
 18 24  1  0  0  0  0
 19 20  1  0  0  0  0
 19 43  1  0  0  0  0
 20 44  1  0  0  0  0
 21 22  2  0  0  0  0
 21 23  1  0  0  0  0
 22 25  1  0  0  0  0
 22 45  1  0  0  0  0
 23 26  2  0  0  0  0
 23 46  1  0  0  0  0
 25 27  2  0  0  0  0
 25 47  1  0  0  0  0
 26 27  1  0  0  0  0
 26 48  1  0  0  0  0
 27 49  1  0  0  0  0
M  END
> <PUBCHEM_COMPOUND_CID>
75536781

> <PUBCHEM_CONFORMER_RMSD>
1.2

> <PUBCHEM_CONFORMER_DIVERSEORDER>
4
78
144
122
140
12
57
15
137
93
77
3
103
102
101
149
114
115
2
7
123
62
139
108
152
150
10
47
14
20
53
110
146
94
61
56
126
148
65
11
92
46
125
96
147
74
132
38
83
141
100
59
88
1
29
84
48
19
118
35
67
45
97
95
111
41
153
73
99
117
82
143
135
36
138
58
128
127
98
21
104
54
39
71
60
131
23
6
42
109
75
51
26
17
129
112
63
31
80
151
28
90
89
49
33
87
43
119
5
22
50
25
120
34
27
30
105
55
145
81
133
72
113
40
130
106
64
32
91
107
121
13
86
66
52
134
116
8
124
70
44
142
9
69
76
136
24
79
18
16
37
68
85

> <PUBCHEM_MMFF94_PARTIAL_CHARGES>
40
1 -0.56
10 0.28
11 0.28
12 0.3
13 0.41
14 -0.14
15 0.69
16 -0.15
17 -0.15
18 0.07
19 -0.15
2 -0.68
20 -0.15
21 0.12
22 -0.15
23 -0.15
24 0.48
25 -0.15
26 -0.15
27 -0.15
3 -0.57
35 0.36
38 0.4
39 0.37
4 -0.9
40 0.15
41 0.15
42 0.37
43 0.15
44 0.15
45 0.15
46 0.15
47 0.15
48 0.15
49 0.15
5 -0.73
6 -0.55
7 -0.56
8 0.27
9 0.28

> <PUBCHEM_EFFECTIVE_ROTOR_COUNT>
9

> <PUBCHEM_PHARMACOPHORE_FEATURES>
12
1 1 acceptor
1 2 acceptor
1 2 donor
1 3 acceptor
1 4 cation
1 4 donor
1 5 donor
1 6 donor
1 7 acceptor
5 1 8 9 10 11 rings
6 14 16 17 18 19 20 rings
6 21 22 23 25 26 27 rings

> <PUBCHEM_HEAVY_ATOM_COUNT>
27

> <PUBCHEM_ATOM_DEF_STEREO_COUNT>
3

> <PUBCHEM_ATOM_UDEF_STEREO_COUNT>
0

> <PUBCHEM_BOND_DEF_STEREO_COUNT>
0

> <PUBCHEM_BOND_UDEF_STEREO_COUNT>
0

> <PUBCHEM_ISOTOPIC_ATOM_COUNT>
0

> <PUBCHEM_COMPONENT_COUNT>
1

> <PUBCHEM_CACTVS_TAUTO_COUNT>
3

> <PUBCHEM_CONFORMER_ID>
0480998D00000004

> <PUBCHEM_MMFF94_ENERGY>
61.7816

> <PUBCHEM_FEATURE_SELFOVERLAP>
60.951

> <PUBCHEM_SHAPE_FINGERPRINT>
1100329 8 18340771438154885247
11513181 2 17846493751490016222
12156800 1 15337395056650304205
12422481 6 18265870541966281008
12592029 89 18266469887340627753
12788726 201 17322393696594576747
13140716 1 18341332214796832387
14117953 113 17476362703941822349
14790565 3 18192998351483450228
16120349 306 18269257131947397200
18336668 15 18340485574111676464
20739085 24 18261386767876266960
23419403 2 18046049476427774356
23559900 14 18187938230787425897
338550 245 18337393846183151148
35225 105 17251769221510623154
4409770 3 17109870151034775158
469060 322 17408763697915638039
57091435 65 18412830178996274738

> <PUBCHEM_SHAPE_MULTIPOLES>
518.12
8.39
5.15
1.57
4.1
2.17
-0.05
-0.31
2.56
-5.97
-0.1
-0.08
-0.82
-0.58

> <PUBCHEM_SHAPE_SELFOVERLAP>
1099.944

> <PUBCHEM_SHAPE_VOLUME>
286.5

> <PUBCHEM_COORDINATE_TYPE>
2
5
10

$$$$
