40780422
  -OEChem-12032416353D

 53 55  0     1  0  0  0  0  0999 V2000
   -5.1759   -1.7818   -0.3640 O   0  0  0  0  0  0  0  0  0  0  0  0
    5.1734    2.2004   -0.1126 O   0  5  0  0  0  0  0  0  0  0  0  0
    4.6551    1.3918    1.8614 O   0  0  0  0  0  0  0  0  0  0  0  0
   -4.1308    0.0274    0.6505 N   0  0  0  0  0  0  0  0  0  0  0  0
    2.5294    0.0860   -0.4539 N   0  0  0  0  0  0  0  0  0  0  0  0
    2.4632    1.2532   -1.1168 N   0  0  0  0  0  0  0  0  0  0  0  0
   -6.2970    0.2336   -0.1102 N   0  0  0  0  0  0  0  0  0  0  0  0
    4.9076    1.2380    0.6440 N   0  3  0  0  0  0  0  0  0  0  0  0
   -0.9830    0.8240    0.2800 C   0  0  2  0  0  0  0  0  0  0  0  0
   -1.8372   -0.3712   -0.1912 C   0  0  0  0  0  0  0  0  0  0  0  0
   -2.8696   -0.6113    0.9173 C   0  0  1  0  0  0  0  0  0  0  0  0
    0.4647    0.7275   -0.1436 C   0  0  0  0  0  0  0  0  0  0  0  0
   -1.2047    0.8130    1.7647 C   0  0  0  0  0  0  0  0  0  0  0  0
   -2.2357    0.0328    2.1061 C   0  0  0  0  0  0  0  0  0  0  0  0
    1.3587   -0.2741    0.1465 C   0  0  0  0  0  0  0  0  0  0  0  0
    1.1995    1.6402   -0.9236 C   0  0  0  0  0  0  0  0  0  0  0  0
    1.1970   -1.5172    0.9277 C   0  0  0  0  0  0  0  0  0  0  0  0
    0.7319    2.9074   -1.5129 C   0  0  0  0  0  0  0  0  0  0  0  0
   -5.2002   -0.6142    0.0225 C   0  0  0  0  0  0  0  0  0  0  0  0
    3.7266   -0.6302   -0.4315 C   0  0  0  0  0  0  0  0  0  0  0  0
   -7.5359   -0.1802   -0.7258 C   0  0  0  0  0  0  0  0  0  0  0  0
    4.8917   -0.0783    0.1007 C   0  0  0  0  0  0  0  0  0  0  0  0
    3.7439   -1.9221   -0.9573 C   0  0  0  0  0  0  0  0  0  0  0  0
    6.0742   -0.8181    0.1070 C   0  0  0  0  0  0  0  0  0  0  0  0
   -8.2005    0.9997   -1.4233 C   0  0  0  0  0  0  0  0  0  0  0  0
   -8.4644   -0.8046    0.3083 C   0  0  0  0  0  0  0  0  0  0  0  0
    4.9264   -2.6619   -0.9511 C   0  0  0  0  0  0  0  0  0  0  0  0
    6.0917   -2.1099   -0.4189 C   0  0  0  0  0  0  0  0  0  0  0  0
   -1.4140    1.7535   -0.1142 H   0  0  0  0  0  0  0  0  0  0  0  0
   -2.3011   -0.1631   -1.1631 H   0  0  0  0  0  0  0  0  0  0  0  0
   -1.2373   -1.2788   -0.3262 H   0  0  0  0  0  0  0  0  0  0  0  0
   -3.0227   -1.6842    1.0732 H   0  0  0  0  0  0  0  0  0  0  0  0
   -0.6258    1.3928    2.4700 H   0  0  0  0  0  0  0  0  0  0  0  0
   -2.5820   -0.1020    3.1211 H   0  0  0  0  0  0  0  0  0  0  0  0
   -4.2409    1.0101    0.8851 H   0  0  0  0  0  0  0  0  0  0  0  0
    0.3627   -1.4574    1.6302 H   0  0  0  0  0  0  0  0  0  0  0  0
    2.0845   -1.7370    1.5304 H   0  0  0  0  0  0  0  0  0  0  0  0
    1.0068   -2.3681    0.2659 H   0  0  0  0  0  0  0  0  0  0  0  0
    0.3908    3.5922   -0.7297 H   0  0  0  0  0  0  0  0  0  0  0  0
    1.5239    3.4127   -2.0757 H   0  0  0  0  0  0  0  0  0  0  0  0
   -0.1018    2.7272   -2.1992 H   0  0  0  0  0  0  0  0  0  0  0  0
   -6.2470    1.1570    0.3097 H   0  0  0  0  0  0  0  0  0  0  0  0
   -7.3038   -0.9405   -1.4813 H   0  0  0  0  0  0  0  0  0  0  0  0
    2.8533   -2.3674   -1.3939 H   0  0  0  0  0  0  0  0  0  0  0  0
    6.9907   -0.4016    0.5180 H   0  0  0  0  0  0  0  0  0  0  0  0
   -8.4491    1.7948   -0.7115 H   0  0  0  0  0  0  0  0  0  0  0  0
   -7.5333    1.4302   -2.1782 H   0  0  0  0  0  0  0  0  0  0  0  0
   -9.1233    0.6896   -1.9241 H   0  0  0  0  0  0  0  0  0  0  0  0
   -8.7128   -0.0902    1.1011 H   0  0  0  0  0  0  0  0  0  0  0  0
   -7.9945   -1.6725    0.7838 H   0  0  0  0  0  0  0  0  0  0  0  0
   -9.3985   -1.1388   -0.1551 H   0  0  0  0  0  0  0  0  0  0  0  0
    4.9411   -3.6662   -1.3643 H   0  0  0  0  0  0  0  0  0  0  0  0
    7.0125   -2.6857   -0.4149 H   0  0  0  0  0  0  0  0  0  0  0  0
  1 19  2  0  0  0  0
  2  8  1  0  0  0  0
  3  8  2  0  0  0  0
  4 11  1  0  0  0  0
  4 19  1  0  0  0  0
  4 35  1  0  0  0  0
  5  6  1  0  0  0  0
  5 15  1  0  0  0  0
  5 20  1  0  0  0  0
  6 16  2  0  0  0  0
  7 19  1  0  0  0  0
  7 21  1  0  0  0  0
  7 42  1  0  0  0  0
  8 22  1  0  0  0  0
  9 10  1  0  0  0  0
  9 12  1  0  0  0  0
  9 13  1  0  0  0  0
  9 29  1  0  0  0  0
 10 11  1  0  0  0  0
 10 30  1  0  0  0  0
 10 31  1  0  0  0  0
 11 14  1  0  0  0  0
 11 32  1  0  0  0  0
 12 15  2  0  0  0  0
 12 16  1  0  0  0  0
 13 14  2  0  0  0  0
 13 33  1  0  0  0  0
 14 34  1  0  0  0  0
 15 17  1  0  0  0  0
 16 18  1  0  0  0  0
 17 36  1  0  0  0  0
 17 37  1  0  0  0  0
 17 38  1  0  0  0  0
 18 39  1  0  0  0  0
 18 40  1  0  0  0  0
 18 41  1  0  0  0  0
 20 22  1  0  0  0  0
 20 23  2  0  0  0  0
 21 25  1  0  0  0  0
 21 26  1  0  0  0  0
 21 43  1  0  0  0  0
 22 24  2  0  0  0  0
 23 27  1  0  0  0  0
 23 44  1  0  0  0  0
 24 28  1  0  0  0  0
 24 45  1  0  0  0  0
 25 46  1  0  0  0  0
 25 47  1  0  0  0  0
 25 48  1  0  0  0  0
 26 49  1  0  0  0  0
 26 50  1  0  0  0  0
 26 51  1  0  0  0  0
 27 28  2  0  0  0  0
 27 52  1  0  0  0  0
 28 53  1  0  0  0  0
M  CHG  2   2  -1   8   1
M  END
> <PUBCHEM_COMPOUND_CID>
40780422

> <PUBCHEM_CONFORMER_RMSD>
1

> <PUBCHEM_CONFORMER_DIVERSEORDER>
1
31
49
55
48
3
46
4
18
52
45
47
9
44
37
33
38
42
22
29
43
11
53
21
26
8
20
7
19
24
41
13
23
54
40
51
6
27
32
17
50
10
15
14
34
39
12
35
25
28
16
30
36
2
5

> <PUBCHEM_MMFF94_PARTIAL_CHARGES>
33
1 -0.57
11 0.44
12 -0.18
13 -0.29
14 -0.29
15 -0.33
16 0.11
17 0.18
18 0.18
19 0.69
2 -0.52
20 -0.02
21 0.3
22 0.13
23 -0.15
24 -0.15
27 -0.15
28 -0.15
3 -0.52
33 0.15
34 0.15
35 0.37
4 -0.73
42 0.37
44 0.15
45 0.15
5 0.59
52 0.15
53 0.15
6 -0.71
7 -0.73
8 0.91
9 0.32

> <PUBCHEM_EFFECTIVE_ROTOR_COUNT>
7.6

> <PUBCHEM_PHARMACOPHORE_FEATURES>
11
1 1 acceptor
1 2 acceptor
1 2 anion
1 3 acceptor
1 4 donor
1 6 acceptor
1 7 donor
3 21 25 26 hydrophobe
5 5 6 12 15 16 rings
5 9 10 11 13 14 rings
6 20 22 23 24 27 28 rings

> <PUBCHEM_HEAVY_ATOM_COUNT>
28

> <PUBCHEM_ATOM_DEF_STEREO_COUNT>
2

> <PUBCHEM_ATOM_UDEF_STEREO_COUNT>
0

> <PUBCHEM_BOND_DEF_STEREO_COUNT>
0

> <PUBCHEM_BOND_UDEF_STEREO_COUNT>
0

> <PUBCHEM_ISOTOPIC_ATOM_COUNT>
0

> <PUBCHEM_COMPONENT_COUNT>
1

> <PUBCHEM_CACTVS_TAUTO_COUNT>
3

> <PUBCHEM_CONFORMER_ID>
026E428600000001

> <PUBCHEM_MMFF94_ENERGY>
73.9756

> <PUBCHEM_FEATURE_SELFOVERLAP>
55.953

> <PUBCHEM_SHAPE_FINGERPRINT>
106641 1 14764336133600111906
10670039 82 15430027735265893711
10835480 77 18339642342744947273
11796584 16 15936419961331174474
12166972 35 18343305863917590361
12236239 1 18202005425888032355
12623949 98 17845386444660225766
12788726 201 14779545656545660740
13533116 47 18059858354983382322
13914758 101 18339645542965003321
14170010 4 18408322211397986369
14294032 229 16227164774568263277
15119646 104 17989213616539710047
15183329 4 17240203214433401009
15188451 53 17988644047603868250
15419008 91 18261375781350547861
15849732 13 18342455941766656951
16752209 62 16805609127668492504
18222031 100 18260836986150020456
20028762 73 18130509643796403254
20157964 124 18341897415523840640
20511986 3 18201991175028457679
21344244 78 17274815806448491458
22079108 93 10663815265384601165
221357 26 17967249785137460181
22224240 67 12175616270439635341
23559900 14 18272081764824453337
23569943 247 18046067055919444995
249057 3 18260550039664971975
29717793 49 18408326579347844295
3004659 81 18410291402722427531
3009799 131 18186240632120971505
3633792 109 18341612573625079475
4073 2 18261958565046093739
4339292 15 18264211306359989398
4340502 62 15769776827921551854
59682541 35 11599712992417787623
59755656 215 17822010869923052827
7495541 125 16559028290246773258
8988823 20 18060136552979186856
9689198 14 11025800877681121495

> <PUBCHEM_SHAPE_MULTIPOLES>
533.71
20.72
2.27
1.43
36.57
0.46
-0.48
-6.22
4.72
-3.41
0.87
0.32
0.38
1.42

> <PUBCHEM_SHAPE_SELFOVERLAP>
1136.145

> <PUBCHEM_SHAPE_VOLUME>
300.6

> <PUBCHEM_COORDINATE_TYPE>
2
5
10

$$$$
