38028822
  -OEChem-12032416143D

 63 65  0     1  0  0  0  0  0999 V2000
   -3.3759   -2.5936   -0.0648 O   0  0  0  0  0  0  0  0  0  0  0  0
    1.1180    3.1347   -1.6113 O   0  0  0  0  0  0  0  0  0  0  0  0
   -1.2433   -3.4637   -0.2458 N   0  0  0  0  0  0  0  0  0  0  0  0
    0.3421    2.6899    0.5302 N   0  0  0  0  0  0  0  0  0  0  0  0
    6.7142   -1.4290    0.5646 N   0  0  0  0  0  0  0  0  0  0  0  0
   -2.2525    1.5633   -0.4906 C   0  0  1  0  0  0  0  0  0  0  0  0
   -2.0913    2.5875    0.6605 C   0  0  1  0  0  0  0  0  0  0  0  0
   -3.2083    0.4347   -0.0742 C   0  0  0  0  0  0  0  0  0  0  0  0
   -2.7157   -0.3131    1.1791 C   0  0  2  0  0  0  0  0  0  0  0  0
   -2.7610    2.2262   -1.7747 C   0  0  0  0  0  0  0  0  0  0  0  0
   -2.2815    0.6433    2.2712 C   0  0  0  0  0  0  0  0  0  0  0  0
   -2.0198    1.9389    2.0232 C   0  0  0  0  0  0  0  0  0  0  0  0
   -1.5913   -1.2947    0.8302 C   0  0  0  0  0  0  0  0  0  0  0  0
   -0.8544    3.4677    0.4485 C   0  0  0  0  0  0  0  0  0  0  0  0
   -2.3553    1.4048   -2.9942 C   0  0  0  0  0  0  0  0  0  0  0  0
   -4.2752    2.4010   -1.7194 C   0  0  0  0  0  0  0  0  0  0  0  0
   -2.1630   -2.5026    0.1322 C   0  0  0  0  0  0  0  0  0  0  0  0
   -2.1987    0.0865    3.6652 C   0  0  0  0  0  0  0  0  0  0  0  0
   -1.6358   -4.6909   -0.9230 C   0  0  0  0  0  0  0  0  0  0  0  0
    0.2017   -3.4149   -0.0461 C   0  0  0  0  0  0  0  0  0  0  0  0
   -0.3289   -5.2791   -1.4322 C   0  0  0  0  0  0  0  0  0  0  0  0
    0.6793   -4.8196   -0.3866 C   0  0  0  0  0  0  0  0  0  0  0  0
    1.2501    2.5819   -0.5225 C   0  0  0  0  0  0  0  0  0  0  0  0
    2.4323    1.7134   -0.2881 C   0  0  0  0  0  0  0  0  0  0  0  0
    3.6231    1.9560   -0.9729 C   0  0  0  0  0  0  0  0  0  0  0  0
    2.3519    0.6560    0.6180 C   0  0  0  0  0  0  0  0  0  0  0  0
    4.7334    1.1414   -0.7515 C   0  0  0  0  0  0  0  0  0  0  0  0
    3.4622   -0.1587    0.8394 C   0  0  0  0  0  0  0  0  0  0  0  0
    4.6530    0.0840    0.1548 C   0  0  0  0  0  0  0  0  0  0  0  0
    5.7905   -0.7510    0.3810 C   0  0  0  0  0  0  0  0  0  0  0  0
   -1.2746    1.1162   -0.7030 H   0  0  0  0  0  0  0  0  0  0  0  0
   -2.9637    3.2525    0.6844 H   0  0  0  0  0  0  0  0  0  0  0  0
   -3.3715   -0.2625   -0.9013 H   0  0  0  0  0  0  0  0  0  0  0  0
   -4.1928    0.8405    0.1922 H   0  0  0  0  0  0  0  0  0  0  0  0
   -3.5785   -0.8663    1.5767 H   0  0  0  0  0  0  0  0  0  0  0  0
   -2.3101    3.2162   -1.8976 H   0  0  0  0  0  0  0  0  0  0  0  0
   -1.7573    2.5904    2.8545 H   0  0  0  0  0  0  0  0  0  0  0  0
   -1.1001   -1.6539    1.7408 H   0  0  0  0  0  0  0  0  0  0  0  0
   -0.8255   -0.8341    0.1989 H   0  0  0  0  0  0  0  0  0  0  0  0
   -0.7901    4.2249    1.2395 H   0  0  0  0  0  0  0  0  0  0  0  0
   -0.8979    4.0119   -0.4988 H   0  0  0  0  0  0  0  0  0  0  0  0
   -2.6876    1.8977   -3.9146 H   0  0  0  0  0  0  0  0  0  0  0  0
   -1.2663    1.3019   -3.0522 H   0  0  0  0  0  0  0  0  0  0  0  0
   -2.7905    0.4008   -2.9841 H   0  0  0  0  0  0  0  0  0  0  0  0
   -4.6104    2.8991   -0.8048 H   0  0  0  0  0  0  0  0  0  0  0  0
   -4.5940    3.0388   -2.5533 H   0  0  0  0  0  0  0  0  0  0  0  0
   -4.8220    1.4599   -1.8400 H   0  0  0  0  0  0  0  0  0  0  0  0
   -1.4090   -0.6663    3.7414 H   0  0  0  0  0  0  0  0  0  0  0  0
   -1.9814    0.8639    4.4056 H   0  0  0  0  0  0  0  0  0  0  0  0
   -3.1501   -0.3760    3.9472 H   0  0  0  0  0  0  0  0  0  0  0  0
   -2.3547   -4.4836   -1.7212 H   0  0  0  0  0  0  0  0  0  0  0  0
   -2.1091   -5.3435   -0.1810 H   0  0  0  0  0  0  0  0  0  0  0  0
    0.4539   -3.1252    0.9772 H   0  0  0  0  0  0  0  0  0  0  0  0
    0.6108   -2.6726   -0.7402 H   0  0  0  0  0  0  0  0  0  0  0  0
    0.5660    2.2787    1.4304 H   0  0  0  0  0  0  0  0  0  0  0  0
   -0.0753   -4.8447   -2.4067 H   0  0  0  0  0  0  0  0  0  0  0  0
   -0.3692   -6.3663   -1.5402 H   0  0  0  0  0  0  0  0  0  0  0  0
    0.6135   -5.4635    0.4988 H   0  0  0  0  0  0  0  0  0  0  0  0
    1.7108   -4.8377   -0.7484 H   0  0  0  0  0  0  0  0  0  0  0  0
    3.7062    2.7778   -1.6793 H   0  0  0  0  0  0  0  0  0  0  0  0
    1.4350    0.4165    1.1487 H   0  0  0  0  0  0  0  0  0  0  0  0
    5.6550    1.3436   -1.2922 H   0  0  0  0  0  0  0  0  0  0  0  0
    3.3819   -0.9836    1.5435 H   0  0  0  0  0  0  0  0  0  0  0  0
  1 17  2  0  0  0  0
  2 23  2  0  0  0  0
  3 17  1  0  0  0  0
  3 19  1  0  0  0  0
  3 20  1  0  0  0  0
  4 14  1  0  0  0  0
  4 23  1  0  0  0  0
  4 55  1  0  0  0  0
  5 30  3  0  0  0  0
  6  7  1  0  0  0  0
  6  8  1  0  0  0  0
  6 10  1  0  0  0  0
  6 31  1  0  0  0  0
  7 12  1  0  0  0  0
  7 14  1  0  0  0  0
  7 32  1  0  0  0  0
  8  9  1  0  0  0  0
  8 33  1  0  0  0  0
  8 34  1  0  0  0  0
  9 11  1  0  0  0  0
  9 13  1  0  0  0  0
  9 35  1  0  0  0  0
 10 15  1  0  0  0  0
 10 16  1  0  0  0  0
 10 36  1  0  0  0  0
 11 12  2  0  0  0  0
 11 18  1  0  0  0  0
 12 37  1  0  0  0  0
 13 17  1  0  0  0  0
 13 38  1  0  0  0  0
 13 39  1  0  0  0  0
 14 40  1  0  0  0  0
 14 41  1  0  0  0  0
 15 42  1  0  0  0  0
 15 43  1  0  0  0  0
 15 44  1  0  0  0  0
 16 45  1  0  0  0  0
 16 46  1  0  0  0  0
 16 47  1  0  0  0  0
 18 48  1  0  0  0  0
 18 49  1  0  0  0  0
 18 50  1  0  0  0  0
 19 21  1  0  0  0  0
 19 51  1  0  0  0  0
 19 52  1  0  0  0  0
 20 22  1  0  0  0  0
 20 53  1  0  0  0  0
 20 54  1  0  0  0  0
 21 22  1  0  0  0  0
 21 56  1  0  0  0  0
 21 57  1  0  0  0  0
 22 58  1  0  0  0  0
 22 59  1  0  0  0  0
 23 24  1  0  0  0  0
 24 25  2  0  0  0  0
 24 26  1  0  0  0  0
 25 27  1  0  0  0  0
 25 60  1  0  0  0  0
 26 28  2  0  0  0  0
 26 61  1  0  0  0  0
 27 29  2  0  0  0  0
 27 62  1  0  0  0  0
 28 29  1  0  0  0  0
 28 63  1  0  0  0  0
 29 30  1  0  0  0  0
M  END
> <PUBCHEM_COMPOUND_CID>
38028822

> <PUBCHEM_CONFORMER_RMSD>
1

> <PUBCHEM_CONFORMER_DIVERSEORDER>
1
117
242
213
215
198
186
58
256
41
110
88
154
125
60
66
225
49
194
57
90
241
195
231
61
139
71
153
26
40
56
202
216
132
2
247
162
133
93
118
140
111
30
119
128
98
64
129
7
137
207
165
240
114
180
222
63
104
174
166
12
178
108
147
4
8
55
70
185
173
239
248
103
13
149
3
144
217
17
9
34
83
145
5
234
212
84
179
223
219
116
190
249
136
254
243
127
80
172
235
135
161
69
91
177
182
124
43
152
237
142
143
183
187
220
92
18
175
126
37
134
171
48
211
113
44
138
227
23
16
205
22
82
255
206
50
157
228
46
51
159
160
123
210
218
151
101
150
89
99
169
32
79
72
155
253
87
245
25
176
59
120
181
193
75
105
184
244
81
85
201
197
24
209
251
252
141
164
146
95
96
35
53
39
115
76
65
246
204
229
188
208
6
203
250
31
86
163
191
230
156
54
121
238
38
232
233
167
78
94
131
29
109
47
158
28
74
45
199
148
102
221
107
11
106
73
214
236
10
97
36
100
19
62
112
68
189
21
42
122
15
196
77
130
224
52
226
192
14
27
20
200
168
33
170
67

> <PUBCHEM_MMFF94_PARTIAL_CHARGES>
29
1 -0.57
11 -0.28
12 -0.29
13 0.06
14 0.3
17 0.57
18 0.14
19 0.3
2 -0.57
20 0.3
23 0.54
24 0.09
25 -0.15
26 -0.15
27 -0.15
28 -0.15
29 0.07
3 -0.66
30 0.48
37 0.15
4 -0.73
5 -0.56
55 0.37
60 0.15
61 0.15
62 0.15
63 0.15
7 0.14
9 0.14

> <PUBCHEM_EFFECTIVE_ROTOR_COUNT>
9.8

> <PUBCHEM_PHARMACOPHORE_FEATURES>
8
1 1 acceptor
1 2 acceptor
1 4 donor
1 5 acceptor
3 10 15 16 hydrophobe
5 3 19 20 21 22 rings
6 24 25 26 27 28 29 rings
6 6 7 8 9 11 12 rings

> <PUBCHEM_HEAVY_ATOM_COUNT>
30

> <PUBCHEM_ATOM_DEF_STEREO_COUNT>
3

> <PUBCHEM_ATOM_UDEF_STEREO_COUNT>
0

> <PUBCHEM_BOND_DEF_STEREO_COUNT>
0

> <PUBCHEM_BOND_UDEF_STEREO_COUNT>
0

> <PUBCHEM_ISOTOPIC_ATOM_COUNT>
0

> <PUBCHEM_COMPONENT_COUNT>
1

> <PUBCHEM_CACTVS_TAUTO_COUNT>
2

> <PUBCHEM_CONFORMER_ID>
0244461600000001

> <PUBCHEM_MMFF94_ENERGY>
65.0756

> <PUBCHEM_FEATURE_SELFOVERLAP>
40.597

> <PUBCHEM_SHAPE_FINGERPRINT>
10483366 6 18338498834205427535
10928967 22 18120960522762867532
11285246 1 17910074179449204783
11763389 116 18051408471324092470
12156800 1 16965975238687900297
14117953 113 18413111671353854015
14279260 333 17386569047604916970
14363568 33 17262189941842472986
14674994 50 18338221743757102076
15444296 9 18041286466104394129
19930381 70 18050005489779534701
20764821 26 18266751181770839974
20775438 99 16975567485772216343
20775530 9 17693665118067592814
21344244 181 18123721375286018925
21344244 246 18193824956672567757
3027735 51 18124865760041824645
35225 105 18338519762731715335
463206 1 17761499483531896778
469060 322 17324356797312676068
5085150 59 18120915245143819344
66674814 147 18121182507672899494

> <PUBCHEM_SHAPE_MULTIPOLES>
590.7
9.11
6.69
2.32
17.36
11.06
-0.85
-2.32
0.04
-2.56
3.22
-3
-1.11
-0.07

> <PUBCHEM_SHAPE_SELFOVERLAP>
1233.7

> <PUBCHEM_SHAPE_VOLUME>
332.1

> <PUBCHEM_COORDINATE_TYPE>
2
5
10

$$$$
