28960252
  -OEChem-12032416353D

 53 55  0     1  0  0  0  0  0999 V2000
    0.6509   -2.1182   -1.6234 O   0  0  0  0  0  0  0  0  0  0  0  0
    0.9654   -4.0191   -0.3315 O   0  0  0  0  0  0  0  0  0  0  0  0
    1.8319   -2.5390    1.9836 O   0  0  0  0  0  0  0  0  0  0  0  0
   -5.4886    1.2183   -0.6841 O   0  0  0  0  0  0  0  0  0  0  0  0
   -4.1903    2.6936    0.5302 O   0  0  0  0  0  0  0  0  0  0  0  0
    3.5718    1.0712    1.0867 O   0  0  0  0  0  0  0  0  0  0  0  0
   -1.0592   -1.0027    0.3958 N   0  0  0  0  0  0  0  0  0  0  0  0
    2.0512    0.1630   -0.4140 N   0  0  0  0  0  0  0  0  0  0  0  0
    2.4190    2.4291   -0.4002 N   0  0  0  0  0  0  0  0  0  0  0  0
   -0.1298   -2.1032    0.6583 C   0  0  2  0  0  0  0  0  0  0  0  0
    1.2295   -1.5481    1.1405 C   0  0  2  0  0  0  0  0  0  0  0  0
    2.2032   -1.2190   -0.0124 C   0  0  1  0  0  0  0  0  0  0  0  0
    0.0525   -2.9465   -0.6171 C   0  0  1  0  0  0  0  0  0  0  0  0
    2.0285   -2.1409   -1.2368 C   0  0  1  0  0  0  0  0  0  0  0  0
    2.2057   -3.6166   -0.9327 C   0  0  0  0  0  0  0  0  0  0  0  0
   -2.1564   -1.4525   -0.4720 C   0  0  0  0  0  0  0  0  0  0  0  0
   -1.5727   -0.4516    1.6575 C   0  0  0  0  0  0  0  0  0  0  0  0
   -3.1067   -0.2998   -0.8008 C   0  0  0  0  0  0  0  0  0  0  0  0
   -2.5038    0.7349    1.4029 C   0  0  0  0  0  0  0  0  0  0  0  0
   -3.6507    0.3493    0.4704 C   0  0  0  0  0  0  0  0  0  0  0  0
   -4.4509    1.5677    0.1283 C   0  0  0  0  0  0  0  0  0  0  0  0
    2.7561    1.2068    0.1757 C   0  0  0  0  0  0  0  0  0  0  0  0
    3.0027    3.6805    0.0221 C   0  0  0  0  0  0  0  0  0  0  0  0
   -6.3402    2.2941   -1.0910 C   0  0  0  0  0  0  0  0  0  0  0  0
    4.2320    3.9413   -0.7831 C   0  0  0  0  0  0  0  0  0  0  0  0
    5.4491    4.1076   -0.2529 C   0  0  0  0  0  0  0  0  0  0  0  0
   -0.5352   -2.7748    1.4291 H   0  0  0  0  0  0  0  0  0  0  0  0
    1.1157   -0.6758    1.7897 H   0  0  0  0  0  0  0  0  0  0  0  0
    3.2346   -1.3375    0.3443 H   0  0  0  0  0  0  0  0  0  0  0  0
   -0.8521   -3.4321   -0.9907 H   0  0  0  0  0  0  0  0  0  0  0  0
    2.6594   -1.8140   -2.0698 H   0  0  0  0  0  0  0  0  0  0  0  0
    2.3171   -4.1959   -1.8556 H   0  0  0  0  0  0  0  0  0  0  0  0
    3.0461   -3.8391   -0.2698 H   0  0  0  0  0  0  0  0  0  0  0  0
   -2.7194   -2.2766   -0.0144 H   0  0  0  0  0  0  0  0  0  0  0  0
   -1.8158   -1.7663   -1.4624 H   0  0  0  0  0  0  0  0  0  0  0  0
   -0.7678   -0.0907    2.3044 H   0  0  0  0  0  0  0  0  0  0  0  0
   -2.1157   -1.2202    2.2241 H   0  0  0  0  0  0  0  0  0  0  0  0
   -3.9287   -0.6809   -1.4194 H   0  0  0  0  0  0  0  0  0  0  0  0
   -2.5828    0.4489   -1.4110 H   0  0  0  0  0  0  0  0  0  0  0  0
   -1.9181    1.5597    0.9738 H   0  0  0  0  0  0  0  0  0  0  0  0
   -2.9005    1.0986    2.3591 H   0  0  0  0  0  0  0  0  0  0  0  0
   -4.3111   -0.3506    0.9987 H   0  0  0  0  0  0  0  0  0  0  0  0
    1.3420    0.3888   -1.1050 H   0  0  0  0  0  0  0  0  0  0  0  0
    2.6590   -2.1652    2.3324 H   0  0  0  0  0  0  0  0  0  0  0  0
    1.7492    2.4409   -1.1634 H   0  0  0  0  0  0  0  0  0  0  0  0
    2.2644    4.4678   -0.1586 H   0  0  0  0  0  0  0  0  0  0  0  0
    3.2121    3.6414    1.0963 H   0  0  0  0  0  0  0  0  0  0  0  0
   -7.1243    1.8831   -1.7325 H   0  0  0  0  0  0  0  0  0  0  0  0
   -5.7702    3.0327   -1.6625 H   0  0  0  0  0  0  0  0  0  0  0  0
   -6.8081    2.7579   -0.2173 H   0  0  0  0  0  0  0  0  0  0  0  0
    4.1222    4.0145   -1.8623 H   0  0  0  0  0  0  0  0  0  0  0  0
    6.3042    4.3024   -0.8909 H   0  0  0  0  0  0  0  0  0  0  0  0
    5.6141    4.0519    0.8174 H   0  0  0  0  0  0  0  0  0  0  0  0
  1 13  1  0  0  0  0
  1 14  1  0  0  0  0
  2 13  1  0  0  0  0
  2 15  1  0  0  0  0
  3 11  1  0  0  0  0
  3 44  1  0  0  0  0
  4 21  1  0  0  0  0
  4 24  1  0  0  0  0
  5 21  2  0  0  0  0
  6 22  2  0  0  0  0
  7 10  1  0  0  0  0
  7 16  1  0  0  0  0
  7 17  1  0  0  0  0
  8 12  1  0  0  0  0
  8 22  1  0  0  0  0
  8 43  1  0  0  0  0
  9 22  1  0  0  0  0
  9 23  1  0  0  0  0
  9 45  1  0  0  0  0
 10 11  1  0  0  0  0
 10 13  1  0  0  0  0
 10 27  1  0  0  0  0
 11 12  1  0  0  0  0
 11 28  1  0  0  0  0
 12 14  1  0  0  0  0
 12 29  1  0  0  0  0
 13 30  1  0  0  0  0
 14 15  1  0  0  0  0
 14 31  1  0  0  0  0
 15 32  1  0  0  0  0
 15 33  1  0  0  0  0
 16 18  1  0  0  0  0
 16 34  1  0  0  0  0
 16 35  1  0  0  0  0
 17 19  1  0  0  0  0
 17 36  1  0  0  0  0
 17 37  1  0  0  0  0
 18 20  1  0  0  0  0
 18 38  1  0  0  0  0
 18 39  1  0  0  0  0
 19 20  1  0  0  0  0
 19 40  1  0  0  0  0
 19 41  1  0  0  0  0
 20 21  1  0  0  0  0
 20 42  1  0  0  0  0
 23 25  1  0  0  0  0
 23 46  1  0  0  0  0
 23 47  1  0  0  0  0
 24 48  1  0  0  0  0
 24 49  1  0  0  0  0
 24 50  1  0  0  0  0
 25 26  2  0  0  0  0
 25 51  1  0  0  0  0
 26 52  1  0  0  0  0
 26 53  1  0  0  0  0
M  END
> <PUBCHEM_COMPOUND_CID>
28960252

> <PUBCHEM_CONFORMER_RMSD>
1

> <PUBCHEM_CONFORMER_DIVERSEORDER>
1
5
55
26
23
96
42
6
83
95
9
65
44
72
105
59
85
47
51
78
43
53
76
103
35
94
39
99
58
49
80
75
69
4
13
34
11
41
67
56
14
50
17
57
102
54
31
74
36
92
88
70
24
2
82
73
61
91
3
63
37
62
86
30
20
48
40
84
97
7
33
106
15
10
8
89
90
93
71
104
12
45
29
22
52
79
100
81
64
38
101
18
19
28
21
60
32
25
87
77
68
27
107
16
46
66
98

> <PUBCHEM_MMFF94_PARTIAL_CHARGES>
30
1 -0.56
10 0.27
11 0.28
12 0.3
13 0.56
14 0.28
15 0.28
16 0.27
17 0.27
2 -0.56
20 0.06
21 0.66
22 0.69
23 0.44
24 0.28
25 -0.29
26 -0.3
3 -0.68
4 -0.43
43 0.37
44 0.4
45 0.37
5 -0.57
51 0.15
52 0.15
53 0.15
6 -0.57
7 -0.81
8 -0.73
9 -0.73

> <PUBCHEM_EFFECTIVE_ROTOR_COUNT>
10.4

> <PUBCHEM_PHARMACOPHORE_FEATURES>
12
1 1 acceptor
1 2 acceptor
1 26 hydrophobe
1 3 acceptor
1 3 donor
1 5 acceptor
1 6 acceptor
1 7 cation
1 8 donor
1 9 donor
6 7 16 17 18 19 20 rings
8 1 2 10 11 12 13 14 15 rings

> <PUBCHEM_HEAVY_ATOM_COUNT>
26

> <PUBCHEM_ATOM_DEF_STEREO_COUNT>
5

> <PUBCHEM_ATOM_UDEF_STEREO_COUNT>
0

> <PUBCHEM_BOND_DEF_STEREO_COUNT>
0

> <PUBCHEM_BOND_UDEF_STEREO_COUNT>
0

> <PUBCHEM_ISOTOPIC_ATOM_COUNT>
0

> <PUBCHEM_COMPONENT_COUNT>
1

> <PUBCHEM_CACTVS_TAUTO_COUNT>
3

> <PUBCHEM_CONFORMER_ID>
01B9E5FC00000001

> <PUBCHEM_MMFF94_ENERGY>
55.4031

> <PUBCHEM_FEATURE_SELFOVERLAP>
60.997

> <PUBCHEM_SHAPE_FINGERPRINT>
10937287 8 18339922739531853212
11477941 20 16613927228113559508
12107183 9 18336252553625249024
12166972 35 17842831127970708123
13134695 92 18049451339718939134
13583140 156 17969510312440975971
13590594 115 17763193440192671584
13944108 23 18191589644611714636
14142880 1 17900816359888117495
14251764 75 18341624736714928033
14468879 13 18261961850843476137
15064981 113 17914342531371480740
15163728 17 18340775947796582732
15210252 30 17980773640224292144
15475509 35 9799109908225592965
16988056 13 18193276282668803204
17980427 23 18053909975354637562
21033648 29 15285896075547416613
21304303 282 17626635522316180782
21388113 180 18334290964114009605
21475661 188 18334012787307333976
21860390 5 18267584602577579797
22149856 69 17703506603100711731
23559900 14 18196935470699420243
2838139 119 18337670931497407676
394222 165 18334846251628912770
474 4 18411698772904480755
5939293 188 18265615373099911058
6327066 14 18264767838519128612
7288768 16 17896597477980146024
9981440 41 18266178520484444568

> <PUBCHEM_SHAPE_MULTIPOLES>
484.91
10.4
5.86
1.38
8.06
0.97
-0.31
17.6
2.4
-7.05
1.49
0.21
-0.62
0.19

> <PUBCHEM_SHAPE_SELFOVERLAP>
1006.096

> <PUBCHEM_SHAPE_VOLUME>
272.6

> <PUBCHEM_COORDINATE_TYPE>
2
5
10

$$$$
