11913295
  -OEChem-12032416383D

 51 55  0     1  0  0  0  0  0999 V2000
   -3.8294    1.8050    0.9008 S   0  0  0  0  0  0  0  0  0  0  0  0
    0.4000    1.9145   -1.2009 O   0  0  0  0  0  0  0  0  0  0  0  0
   -1.1456   -0.5359   -2.3724 O   0  0  0  0  0  0  0  0  0  0  0  0
   -4.4387    2.8267    0.0710 O   0  0  0  0  0  0  0  0  0  0  0  0
   -3.8916    1.9062    2.3464 O   0  0  0  0  0  0  0  0  0  0  0  0
    4.9163    1.5313    0.0331 O   0  0  0  0  0  0  0  0  0  0  0  0
   -2.2101    1.5915    0.4370 N   0  0  0  0  0  0  0  0  0  0  0  0
    1.5790   -1.5384   -1.3104 N   0  0  0  0  0  0  0  0  0  0  0  0
    3.4929   -0.5920   -0.3365 N   0  0  0  0  0  0  0  0  0  0  0  0
    2.9970   -2.9349   -0.0679 N   0  0  0  0  0  0  0  0  0  0  0  0
   -2.5972   -0.9057    3.1690 N   0  0  0  0  0  0  0  0  0  0  0  0
   -1.0549    0.0371   -1.0574 C   0  0  1  0  0  0  0  0  0  0  0  0
    0.3717    0.5158   -0.8710 C   0  0  1  0  0  0  0  0  0  0  0  0
   -1.8809    1.2980   -0.9793 C   0  0  2  0  0  0  0  0  0  0  0  0
    1.1637   -0.2770   -1.8840 C   0  0  2  0  0  0  0  0  0  0  0  0
   -0.9309    2.3540   -1.5095 C   0  0  0  0  0  0  0  0  0  0  0  0
    0.1501   -0.5111   -2.9889 C   0  0  0  0  0  0  0  0  0  0  0  0
    2.7239   -1.6929   -0.5490 C   0  0  0  0  0  0  0  0  0  0  0  0
   -4.5432    0.2486    0.4618 C   0  0  0  0  0  0  0  0  0  0  0  0
   -4.2362   -0.9084    1.1625 C   0  0  0  0  0  0  0  0  0  0  0  0
   -5.4243    0.2243   -0.6101 C   0  0  0  0  0  0  0  0  0  0  0  0
    4.6008   -0.7790    0.4103 C   0  0  0  0  0  0  0  0  0  0  0  0
    4.1202   -3.0500    0.6707 C   0  0  0  0  0  0  0  0  0  0  0  0
   -4.8223   -2.1161    0.7835 C   0  0  0  0  0  0  0  0  0  0  0  0
   -6.0104   -0.9834   -0.9891 C   0  0  0  0  0  0  0  0  0  0  0  0
    4.9683   -1.9967    0.9455 C   0  0  0  0  0  0  0  0  0  0  0  0
   -5.7095   -2.1536   -0.2922 C   0  0  0  0  0  0  0  0  0  0  0  0
    5.3943    0.4032    0.6171 C   0  0  0  0  0  0  0  0  0  0  0  0
   -3.3305   -0.9069    2.2713 C   0  0  0  0  0  0  0  0  0  0  0  0
    6.5629    0.6608    1.2908 C   0  0  0  0  0  0  0  0  0  0  0  0
    6.8224    2.0403    1.1099 C   0  0  0  0  0  0  0  0  0  0  0  0
    5.7921    2.5246    0.3381 C   0  0  0  0  0  0  0  0  0  0  0  0
   -1.3415   -0.7392   -0.3415 H   0  0  0  0  0  0  0  0  0  0  0  0
    0.7194    0.4196    0.1625 H   0  0  0  0  0  0  0  0  0  0  0  0
   -2.7845    1.2661   -1.5942 H   0  0  0  0  0  0  0  0  0  0  0  0
    2.0237    0.2647   -2.2941 H   0  0  0  0  0  0  0  0  0  0  0  0
   -1.0020    2.4329   -2.5998 H   0  0  0  0  0  0  0  0  0  0  0  0
   -1.0917    3.3480   -1.0810 H   0  0  0  0  0  0  0  0  0  0  0  0
    0.1522    0.3198   -3.7032 H   0  0  0  0  0  0  0  0  0  0  0  0
    0.3044   -1.4410   -3.5448 H   0  0  0  0  0  0  0  0  0  0  0  0
   -1.4811    1.4254    1.1411 H   0  0  0  0  0  0  0  0  0  0  0  0
    0.9863   -2.3537   -1.4179 H   0  0  0  0  0  0  0  0  0  0  0  0
   -5.6769    1.1157   -1.1755 H   0  0  0  0  0  0  0  0  0  0  0  0
    4.3263   -4.0458    1.0484 H   0  0  0  0  0  0  0  0  0  0  0  0
   -4.5986   -3.0379    1.3154 H   0  0  0  0  0  0  0  0  0  0  0  0
   -6.7002   -1.0132   -1.8273 H   0  0  0  0  0  0  0  0  0  0  0  0
    5.8579   -2.1442    1.5444 H   0  0  0  0  0  0  0  0  0  0  0  0
   -6.1656   -3.0940   -0.5878 H   0  0  0  0  0  0  0  0  0  0  0  0
    7.1640   -0.0448    1.8467 H   0  0  0  0  0  0  0  0  0  0  0  0
    7.6561    2.6102    1.4939 H   0  0  0  0  0  0  0  0  0  0  0  0
    5.5495    3.4995   -0.0589 H   0  0  0  0  0  0  0  0  0  0  0  0
  1  4  2  0  0  0  0
  1  5  2  0  0  0  0
  1  7  1  0  0  0  0
  1 19  1  0  0  0  0
  2 13  1  0  0  0  0
  2 16  1  0  0  0  0
  3 12  1  0  0  0  0
  3 17  1  0  0  0  0
  6 28  1  0  0  0  0
  6 32  1  0  0  0  0
  7 14  1  0  0  0  0
  7 41  1  0  0  0  0
  8 15  1  0  0  0  0
  8 18  1  0  0  0  0
  8 42  1  0  0  0  0
  9 18  1  0  0  0  0
  9 22  2  0  0  0  0
 10 18  2  0  0  0  0
 10 23  1  0  0  0  0
 11 29  3  0  0  0  0
 12 13  1  0  0  0  0
 12 14  1  0  0  0  0
 12 33  1  0  0  0  0
 13 15  1  0  0  0  0
 13 34  1  0  0  0  0
 14 16  1  0  0  0  0
 14 35  1  0  0  0  0
 15 17  1  0  0  0  0
 15 36  1  0  0  0  0
 16 37  1  0  0  0  0
 16 38  1  0  0  0  0
 17 39  1  0  0  0  0
 17 40  1  0  0  0  0
 19 20  1  0  0  0  0
 19 21  2  0  0  0  0
 20 24  2  0  0  0  0
 20 29  1  0  0  0  0
 21 25  1  0  0  0  0
 21 43  1  0  0  0  0
 22 26  1  0  0  0  0
 22 28  1  0  0  0  0
 23 26  2  0  0  0  0
 23 44  1  0  0  0  0
 24 27  1  0  0  0  0
 24 45  1  0  0  0  0
 25 27  2  0  0  0  0
 25 46  1  0  0  0  0
 26 47  1  0  0  0  0
 27 48  1  0  0  0  0
 28 30  2  0  0  0  0
 30 31  1  0  0  0  0
 30 49  1  0  0  0  0
 31 32  2  0  0  0  0
 31 50  1  0  0  0  0
 32 51  1  0  0  0  0
M  END
> <PUBCHEM_COMPOUND_CID>
11913295

> <PUBCHEM_CONFORMER_RMSD>
1.2

> <PUBCHEM_CONFORMER_DIVERSEORDER>
1
16
185
192
112
119
124
218
162
232
70
95
81
67
171
137
146
86
109
41
156
205
129
80
51
35
12
175
167
213
40
164
194
222
138
39
169
173
48
73
24
223
179
220
180
103
104
215
101
115
225
106
125
102
227
49
228
214
139
20
176
186
147
90
100
152
130
172
210
59
96
77
113
204
28
165
166
99
142
177
134
123
32
91
231
189
121
226
230
191
181
74
76
69
43
198
217
17
224
120
209
178
151
54
160
50
71
183
122
212
202
149
140
92
84
8
159
208
199
117
187
197
13
144
221
83
184
31
114
155
9
145
154
19
53
143
216
207
108
127
4
229
132
62
161
10
68
136
34
7
97
89
195
126
188
45
116
47
118
163
211
11
150
174
33
87
5
38
88
60
64
141
157
133
110
170
201
6
63
36
75
18
196
72
85
57
42
107
153
93
27
44
82
158
15
65
190
94
66
25
58
206
135
37
128
79
30
22
111
61
29
98
55
219
148
105
26
168
52
182
2
46
200
203
78
193
56
14
21
131
23
3

> <PUBCHEM_MMFF94_PARTIAL_CHARGES>
43
1 1.45
10 -0.62
11 -0.56
12 0.28
13 0.28
14 0.36
15 0.37
16 0.28
17 0.28
18 0.72
19 -0.01
2 -0.56
20 0.07
21 -0.15
22 0.36
23 0.16
24 -0.15
25 -0.15
26 -0.15
27 -0.15
28 0.09
29 0.48
3 -0.56
30 -0.15
31 -0.15
32 -0.01
4 -0.65
41 0.42
42 0.4
43 0.15
44 0.15
45 0.15
46 0.15
47 0.15
48 0.15
49 0.15
5 -0.65
50 0.15
51 0.15
6 -0.28
7 -0.91
8 -0.87
9 -0.62

> <PUBCHEM_EFFECTIVE_ROTOR_COUNT>
7.2

> <PUBCHEM_PHARMACOPHORE_FEATURES>
15
1 11 acceptor
1 2 acceptor
1 3 acceptor
1 4 acceptor
1 5 acceptor
1 6 acceptor
1 7 donor
1 8 donor
1 9 acceptor
4 8 9 10 18 cation
5 2 12 13 14 16 rings
5 3 12 13 15 17 rings
5 6 28 30 31 32 rings
6 19 20 21 24 25 27 rings
6 9 10 18 22 23 26 rings

> <PUBCHEM_HEAVY_ATOM_COUNT>
32

> <PUBCHEM_ATOM_DEF_STEREO_COUNT>
4

> <PUBCHEM_ATOM_UDEF_STEREO_COUNT>
0

> <PUBCHEM_BOND_DEF_STEREO_COUNT>
0

> <PUBCHEM_BOND_UDEF_STEREO_COUNT>
0

> <PUBCHEM_ISOTOPIC_ATOM_COUNT>
0

> <PUBCHEM_COMPONENT_COUNT>
1

> <PUBCHEM_CACTVS_TAUTO_COUNT>
3

> <PUBCHEM_CONFORMER_ID>
00B5C84F00000001

> <PUBCHEM_MMFF94_ENERGY>
64.5096

> <PUBCHEM_FEATURE_SELFOVERLAP>
76.86

> <PUBCHEM_SHAPE_FINGERPRINT>
10010297 198 17846213319831928990
10165383 225 8862678910644110101
10613725 11 8070033272070098286
10670039 82 15123516887058744754
10794284 68 17484520392993667374
10842051 180 18198340847721112845
11135609 201 17987502879784185922
11578080 2 16486150383757609689
11720765 8 11602824627114789006
12373685 5 18273210899047540949
12596602 18 17989210347531488986
13627167 48 13686291379276367170
13782708 43 17241603902443784978
14279260 333 7925372730701362764
14289585 56 12678919929472588618
14415361 192 17346323747404171889
14848178 5 17385450916296814563
14950920 106 18267580200616111066
15183329 4 9655581803107156328
15575132 122 14620519982658683411
15684389 69 17845084250470920423
15975801 100 14404365892453821898
19377110 9 18271515468637970430
20511986 3 18187356594048842031
20737093 133 17836076050489903520
21133410 52 17054976397336753175
21458453 9 18189895490914583608
23559900 14 17897745183821059574
23572383 38 17822014228471655019
2838139 119 13254795703219496630
312425 54 17968940782069863448
339767 52 16370442267394664234
3459 110 18410573968156432208
38570 142 11887683883345406711
392239 28 18261673662748245274
4339292 15 11603637098500945992
437795 139 15647906001221102003
4394409 98 15502918788860829347
463206 1 13912327906009727408
5104073 3 18339081484308470432
57816373 69 17833266415680173686
6126387 218 8862952658990544764
613672 6 16370732504226029530
6443934 186 18409163329503688650

> <PUBCHEM_SHAPE_MULTIPOLES>
608.14
17.11
3.14
2.3
11.6
0.18
-0.02
-0.66
-7.66
1.51
-0.49
-1.66
0.12
0.45

> <PUBCHEM_SHAPE_SELFOVERLAP>
1326.97

> <PUBCHEM_SHAPE_VOLUME>
331

> <PUBCHEM_COORDINATE_TYPE>
2
5
10

$$$$
