11883015
  -OEChem-12032416123D

 72 74  0     1  0  0  0  0  0999 V2000
    0.2102    2.9773    0.2726 S   0  0  0  0  0  0  0  0  0  0  0  0
   -6.7925   -0.4615   -0.6009 O   0  0  0  0  0  0  0  0  0  0  0  0
   -6.7003    1.2808    1.0424 O   0  0  0  0  0  0  0  0  0  0  0  0
    1.0793   -1.9232   -1.6698 O   0  0  0  0  0  0  0  0  0  0  0  0
    4.0102    0.3897   -0.3631 O   0  0  0  0  0  0  0  0  0  0  0  0
    4.2024   -3.4987    1.0584 O   0  0  0  0  0  0  0  0  0  0  0  0
    1.0831    0.5778   -0.1435 N   0  0  0  0  0  0  0  0  0  0  0  0
    1.5725   -3.4823   -0.0182 N   0  0  0  0  0  0  0  0  0  0  0  0
    2.7365    2.3247    0.0122 N   0  0  0  0  0  0  0  0  0  0  0  0
   -2.5344   -0.6775    0.3101 C   0  0  2  0  0  0  0  0  0  0  0  0
   -3.1577    0.6699   -0.2655 C   0  0  1  0  0  0  0  0  0  0  0  0
   -4.7283    0.8085   -0.2207 C   0  0  1  0  0  0  0  0  0  0  0  0
   -1.0327   -0.7935   -0.2236 C   0  0  1  0  0  0  0  0  0  0  0  0
   -3.3392   -1.8891   -0.2278 C   0  0  0  0  0  0  0  0  0  0  0  0
   -5.3736   -0.5040   -0.7487 C   0  0  1  0  0  0  0  0  0  0  0  0
   -2.4023    1.9207    0.2710 C   0  0  0  0  0  0  0  0  0  0  0  0
   -4.8455   -1.7547   -0.0549 C   0  0  0  0  0  0  0  0  0  0  0  0
   -2.5360   -0.7276    1.8579 C   0  0  0  0  0  0  0  0  0  0  0  0
   -0.2949    0.5097   -0.0537 C   0  0  0  0  0  0  0  0  0  0  0  0
   -5.2990    1.1843    1.1647 C   0  0  0  0  0  0  0  0  0  0  0  0
   -5.1636    1.9550   -1.1769 C   0  0  0  0  0  0  0  0  0  0  0  0
   -0.9298    1.7182    0.1491 C   0  0  0  0  0  0  0  0  0  0  0  0
   -0.2375   -1.9694    0.3595 C   0  0  0  0  0  0  0  0  0  0  0  0
    0.8611   -2.4275   -0.5715 C   0  0  0  0  0  0  0  0  0  0  0  0
    1.4604    1.8272    0.0205 C   0  0  0  0  0  0  0  0  0  0  0  0
    2.6800   -4.1250   -0.6877 C   0  0  0  0  0  0  0  0  0  0  0  0
    3.9308    1.6020   -0.1749 C   0  0  0  0  0  0  0  0  0  0  0  0
    5.2073    2.4797   -0.1238 C   0  0  0  0  0  0  0  0  0  0  0  0
    4.0002   -3.4575   -0.3483 C   0  0  0  0  0  0  0  0  0  0  0  0
    6.4588    1.6084   -0.3138 C   0  0  0  0  0  0  0  0  0  0  0  0
    5.1478    3.5666   -1.2086 C   0  0  0  0  0  0  0  0  0  0  0  0
    5.3003    3.1700    1.2503 C   0  0  0  0  0  0  0  0  0  0  0  0
    5.4267   -2.8792    1.4275 C   0  0  0  0  0  0  0  0  0  0  0  0
   -2.9242    0.6297   -1.3438 H   0  0  0  0  0  0  0  0  0  0  0  0
   -1.1147   -0.9345   -1.3119 H   0  0  0  0  0  0  0  0  0  0  0  0
   -3.1295   -2.0236   -1.2973 H   0  0  0  0  0  0  0  0  0  0  0  0
   -3.0236   -2.8161    0.2640 H   0  0  0  0  0  0  0  0  0  0  0  0
   -5.1719   -0.5921   -1.8246 H   0  0  0  0  0  0  0  0  0  0  0  0
   -2.6512    2.1079    1.3209 H   0  0  0  0  0  0  0  0  0  0  0  0
   -2.6917    2.8092   -0.3000 H   0  0  0  0  0  0  0  0  0  0  0  0
   -5.3360   -2.6392   -0.4815 H   0  0  0  0  0  0  0  0  0  0  0  0
   -5.1273   -1.7594    1.0038 H   0  0  0  0  0  0  0  0  0  0  0  0
   -2.0755   -1.6515    2.2248 H   0  0  0  0  0  0  0  0  0  0  0  0
   -3.5375   -0.7223    2.2829 H   0  0  0  0  0  0  0  0  0  0  0  0
   -1.9804    0.1009    2.3057 H   0  0  0  0  0  0  0  0  0  0  0  0
   -4.9184    2.1489    1.5138 H   0  0  0  0  0  0  0  0  0  0  0  0
   -5.0950    0.4364    1.9266 H   0  0  0  0  0  0  0  0  0  0  0  0
   -6.2493    1.9898   -1.3204 H   0  0  0  0  0  0  0  0  0  0  0  0
   -4.7186    1.8270   -2.1705 H   0  0  0  0  0  0  0  0  0  0  0  0
   -4.8583    2.9371   -0.8011 H   0  0  0  0  0  0  0  0  0  0  0  0
    0.2090   -1.7063    1.3267 H   0  0  0  0  0  0  0  0  0  0  0  0
   -0.8807   -2.8410    0.5174 H   0  0  0  0  0  0  0  0  0  0  0  0
   -7.1536   -1.2784   -0.9852 H   0  0  0  0  0  0  0  0  0  0  0  0
   -7.0512    1.5271    1.9150 H   0  0  0  0  0  0  0  0  0  0  0  0
    1.3191   -3.8221    0.9051 H   0  0  0  0  0  0  0  0  0  0  0  0
    2.7935    3.3278    0.1598 H   0  0  0  0  0  0  0  0  0  0  0  0
    2.5116   -4.1090   -1.7693 H   0  0  0  0  0  0  0  0  0  0  0  0
    2.6839   -5.1658   -0.3474 H   0  0  0  0  0  0  0  0  0  0  0  0
    4.8178   -3.9844   -0.8534 H   0  0  0  0  0  0  0  0  0  0  0  0
    3.9924   -2.4144   -0.6845 H   0  0  0  0  0  0  0  0  0  0  0  0
    7.3740    2.2094   -0.2697 H   0  0  0  0  0  0  0  0  0  0  0  0
    6.4410    1.1000   -1.2846 H   0  0  0  0  0  0  0  0  0  0  0  0
    6.5278    0.8356    0.4606 H   0  0  0  0  0  0  0  0  0  0  0  0
    6.0779    4.1455   -1.2384 H   0  0  0  0  0  0  0  0  0  0  0  0
    4.3280    4.2745   -1.0472 H   0  0  0  0  0  0  0  0  0  0  0  0
    5.0000    3.1185   -2.1979 H   0  0  0  0  0  0  0  0  0  0  0  0
    6.2391    3.7266    1.3504 H   0  0  0  0  0  0  0  0  0  0  0  0
    5.2585    2.4327    2.0605 H   0  0  0  0  0  0  0  0  0  0  0  0
    4.4826    3.8796    1.4159 H   0  0  0  0  0  0  0  0  0  0  0  0
    5.5309   -2.9429    2.5139 H   0  0  0  0  0  0  0  0  0  0  0  0
    5.4253   -1.8237    1.1387 H   0  0  0  0  0  0  0  0  0  0  0  0
    6.2732   -3.3956    0.9646 H   0  0  0  0  0  0  0  0  0  0  0  0
  1 22  1  0  0  0  0
  1 25  1  0  0  0  0
  2 15  1  0  0  0  0
  2 53  1  0  0  0  0
  3 20  1  0  0  0  0
  3 54  1  0  0  0  0
  4 24  2  0  0  0  0
  5 27  2  0  0  0  0
  6 29  1  0  0  0  0
  6 33  1  0  0  0  0
  7 19  1  0  0  0  0
  7 25  2  0  0  0  0
  8 24  1  0  0  0  0
  8 26  1  0  0  0  0
  8 55  1  0  0  0  0
  9 25  1  0  0  0  0
  9 27  1  0  0  0  0
  9 56  1  0  0  0  0
 10 11  1  0  0  0  0
 10 13  1  0  0  0  0
 10 14  1  0  0  0  0
 10 18  1  0  0  0  0
 11 12  1  0  0  0  0
 11 16  1  0  0  0  0
 11 34  1  0  0  0  0
 12 15  1  0  0  0  0
 12 20  1  0  0  0  0
 12 21  1  0  0  0  0
 13 19  1  0  0  0  0
 13 23  1  0  0  0  0
 13 35  1  0  0  0  0
 14 17  1  0  0  0  0
 14 36  1  0  0  0  0
 14 37  1  0  0  0  0
 15 17  1  0  0  0  0
 15 38  1  0  0  0  0
 16 22  1  0  0  0  0
 16 39  1  0  0  0  0
 16 40  1  0  0  0  0
 17 41  1  0  0  0  0
 17 42  1  0  0  0  0
 18 43  1  0  0  0  0
 18 44  1  0  0  0  0
 18 45  1  0  0  0  0
 19 22  2  0  0  0  0
 20 46  1  0  0  0  0
 20 47  1  0  0  0  0
 21 48  1  0  0  0  0
 21 49  1  0  0  0  0
 21 50  1  0  0  0  0
 23 24  1  0  0  0  0
 23 51  1  0  0  0  0
 23 52  1  0  0  0  0
 26 29  1  0  0  0  0
 26 57  1  0  0  0  0
 26 58  1  0  0  0  0
 27 28  1  0  0  0  0
 28 30  1  0  0  0  0
 28 31  1  0  0  0  0
 28 32  1  0  0  0  0
 29 59  1  0  0  0  0
 29 60  1  0  0  0  0
 30 61  1  0  0  0  0
 30 62  1  0  0  0  0
 30 63  1  0  0  0  0
 31 64  1  0  0  0  0
 31 65  1  0  0  0  0
 31 66  1  0  0  0  0
 32 67  1  0  0  0  0
 32 68  1  0  0  0  0
 32 69  1  0  0  0  0
 33 70  1  0  0  0  0
 33 71  1  0  0  0  0
 33 72  1  0  0  0  0
M  END
> <PUBCHEM_COMPOUND_CID>
11883015

> <PUBCHEM_CONFORMER_RMSD>
1

> <PUBCHEM_CONFORMER_DIVERSEORDER>
1
31
28
14
18
26
27
25
22
4
11
12
13
17
19
30
7
20
29
6
23
15
5
9
8
3
21
10
16
2
24

> <PUBCHEM_MMFF94_PARTIAL_CHARGES>
27
1 -0.08
13 0.18
15 0.28
16 0.18
19 0.05
2 -0.68
20 0.28
22 -0.14
23 0.06
24 0.57
25 0.44
26 0.3
27 0.57
28 0.06
29 0.28
3 -0.68
33 0.28
4 -0.57
5 -0.57
53 0.4
54 0.4
55 0.37
56 0.37
6 -0.56
7 -0.57
8 -0.73
9 -0.49

> <PUBCHEM_EFFECTIVE_ROTOR_COUNT>
11.2

> <PUBCHEM_PHARMACOPHORE_FEATURES>
13
1 2 acceptor
1 2 donor
1 3 acceptor
1 3 donor
1 4 acceptor
1 5 acceptor
1 6 acceptor
1 8 donor
1 9 donor
4 28 30 31 32 hydrophobe
5 1 7 19 22 25 rings
6 10 11 12 14 15 17 rings
6 10 11 13 16 19 22 rings

> <PUBCHEM_HEAVY_ATOM_COUNT>
33

> <PUBCHEM_ATOM_DEF_STEREO_COUNT>
5

> <PUBCHEM_ATOM_UDEF_STEREO_COUNT>
0

> <PUBCHEM_BOND_DEF_STEREO_COUNT>
0

> <PUBCHEM_BOND_UDEF_STEREO_COUNT>
0

> <PUBCHEM_ISOTOPIC_ATOM_COUNT>
0

> <PUBCHEM_COMPONENT_COUNT>
1

> <PUBCHEM_CACTVS_TAUTO_COUNT>
6

> <PUBCHEM_CONFORMER_ID>
00B5520700000001

> <PUBCHEM_MMFF94_ENERGY>
98.8695

> <PUBCHEM_FEATURE_SELFOVERLAP>
66.118

> <PUBCHEM_SHAPE_FINGERPRINT>
10050765 1 18339361843448661533
10838868 158 17679319712772778211
10906281 52 18336281127293706009
1100329 8 17692257335246854377
11135926 11 18412260644932264077
11578080 2 17387390390847432863
11719270 70 18411412947553374920
11763715 3 17402355684394320982
11963148 33 18121210142047590195
12977781 61 17677350392715038258
13140716 1 18339091385015579451
13533116 47 18410291385500237008
14028597 1 17702688651420363747
140371 6 17982732965449561327
14466204 15 18338794623691313969
14790565 3 18267026239829273476
15183329 4 18261107525607947109
15400415 2 18194682803265716756
15815584 197 18265917884626166014
15927050 60 18268992158404478990
16067689 302 18340209691647505447
167882 2 18410012126304605750
17980427 23 17823140201709342637
20721686 56 18336550430697103338
21033648 29 18057597879267753232
21344244 246 18410848889493201327
21360443 120 18335424608278532884
23559900 14 18268138760928521051
244849 19 17896624858897954891
3298306 158 18340770441986022020
3411729 13 18408323298172411786
4017518 198 18200603626563152630
4073 2 18263931105790261136
5104073 3 18337119999147492995
5265222 85 18048606112015116228
5385378 56 18412554201551673601
59755656 215 18411703222300747613
6138700 20 18412830213525071556
67856867 119 18410571751816456302
9981440 41 18264494051554483275

> <PUBCHEM_SHAPE_MULTIPOLES>
638.68
15.56
5.2
1.16
2.63
3.45
0.21
-6.04
0.52
-9.7
-0.15
-0.04
0.1
-0.91

> <PUBCHEM_SHAPE_SELFOVERLAP>
1309.548

> <PUBCHEM_SHAPE_VOLUME>
372.9

> <PUBCHEM_COORDINATE_TYPE>
2
5
10

$$$$
