11884472
  -OEChem-12032416283D

 54 58  0     1  0  0  0  0  0999 V2000
    0.8507    2.1208    1.4958 O   0  0  0  0  0  0  0  0  0  0  0  0
   -3.4247   -0.6155    2.5036 O   0  0  0  0  0  0  0  0  0  0  0  0
    3.2321   -0.6107   -1.8475 O   0  0  0  0  0  0  0  0  0  0  0  0
   -3.7383    0.4720    0.4557 N   0  0  0  0  0  0  0  0  0  0  0  0
   -0.9377    1.8969    0.0152 N   0  0  0  0  0  0  0  0  0  0  0  0
    2.5299    0.5985   -0.0134 N   0  0  0  0  0  0  0  0  0  0  0  0
   -3.2448    2.9113    0.4782 C   0  0  1  0  0  0  0  0  0  0  0  0
   -2.8695    1.6069   -1.5751 C   0  0  2  0  0  0  0  0  0  0  0  0
   -3.3779    2.9448   -1.0403 C   0  0  0  0  0  0  0  0  0  0  0  0
   -4.0778    1.7574    1.0653 C   0  0  0  0  0  0  0  0  0  0  0  0
   -1.7591    2.7938    0.8414 C   0  0  0  0  0  0  0  0  0  0  0  0
   -3.7394    0.4631   -1.0163 C   0  0  0  0  0  0  0  0  0  0  0  0
   -1.4197    1.3812   -1.1901 C   0  0  0  0  0  0  0  0  0  0  0  0
   -0.6125    0.6591   -1.9831 C   0  0  0  0  0  0  0  0  0  0  0  0
    0.3833    1.6694    0.4482 C   0  0  0  0  0  0  0  0  0  0  0  0
   -3.4273   -0.6165    1.2738 C   0  0  0  0  0  0  0  0  0  0  0  0
    1.2580    0.8322   -0.4463 C   0  0  0  0  0  0  0  0  0  0  0  0
    0.7419    0.3848   -1.5988 C   0  0  0  0  0  0  0  0  0  0  0  0
   -3.0499   -1.8770    0.6260 C   0  0  0  0  0  0  0  0  0  0  0  0
   -1.7125   -2.1316    0.3328 C   0  0  0  0  0  0  0  0  0  0  0  0
   -4.0303   -2.8132    0.3077 C   0  0  0  0  0  0  0  0  0  0  0  0
    3.4779   -0.1237   -0.7424 C   0  0  0  0  0  0  0  0  0  0  0  0
   -1.3533   -3.3304   -0.2832 C   0  0  0  0  0  0  0  0  0  0  0  0
   -3.6709   -4.0122   -0.3080 C   0  0  0  0  0  0  0  0  0  0  0  0
   -2.3324   -4.2707   -0.6035 C   0  0  0  0  0  0  0  0  0  0  0  0
    4.8048   -0.2398   -0.1183 C   0  0  0  0  0  0  0  0  0  0  0  0
    5.9224   -0.4079   -0.9217 C   0  0  0  0  0  0  0  0  0  0  0  0
    4.9155   -0.1786    1.2625 C   0  0  0  0  0  0  0  0  0  0  0  0
    7.1808   -0.5179   -0.3301 C   0  0  0  0  0  0  0  0  0  0  0  0
    6.1740   -0.2884    1.8540 C   0  0  0  0  0  0  0  0  0  0  0  0
    7.3066   -0.4580    1.0577 C   0  0  0  0  0  0  0  0  0  0  0  0
   -3.6303    3.8470    0.9019 H   0  0  0  0  0  0  0  0  0  0  0  0
   -2.9670    1.6152   -2.6685 H   0  0  0  0  0  0  0  0  0  0  0  0
   -2.8001    3.7774   -1.4608 H   0  0  0  0  0  0  0  0  0  0  0  0
   -4.4242    3.1008   -1.3298 H   0  0  0  0  0  0  0  0  0  0  0  0
   -3.9534    1.7158    2.1525 H   0  0  0  0  0  0  0  0  0  0  0  0
   -5.1432    1.9296    0.8694 H   0  0  0  0  0  0  0  0  0  0  0  0
   -1.6431    2.5047    1.8936 H   0  0  0  0  0  0  0  0  0  0  0  0
   -1.2961    3.7858    0.7485 H   0  0  0  0  0  0  0  0  0  0  0  0
   -3.4076   -0.4974   -1.4177 H   0  0  0  0  0  0  0  0  0  0  0  0
   -4.7817    0.5953   -1.3323 H   0  0  0  0  0  0  0  0  0  0  0  0
   -0.9669    0.2361   -2.9175 H   0  0  0  0  0  0  0  0  0  0  0  0
    1.2432   -0.2242   -2.3343 H   0  0  0  0  0  0  0  0  0  0  0  0
    2.7814    1.0343    0.8685 H   0  0  0  0  0  0  0  0  0  0  0  0
   -0.9413   -1.4105    0.5877 H   0  0  0  0  0  0  0  0  0  0  0  0
   -5.0759   -2.6209    0.5334 H   0  0  0  0  0  0  0  0  0  0  0  0
   -0.3108   -3.5320   -0.5116 H   0  0  0  0  0  0  0  0  0  0  0  0
   -4.4333   -4.7443   -0.5577 H   0  0  0  0  0  0  0  0  0  0  0  0
   -2.0526   -5.2042   -1.0829 H   0  0  0  0  0  0  0  0  0  0  0  0
    5.8424   -0.4526   -2.0042 H   0  0  0  0  0  0  0  0  0  0  0  0
    4.0595   -0.0864    1.9233 H   0  0  0  0  0  0  0  0  0  0  0  0
    8.0629   -0.6494   -0.9499 H   0  0  0  0  0  0  0  0  0  0  0  0
    6.2718   -0.2507    2.9351 H   0  0  0  0  0  0  0  0  0  0  0  0
    8.2862   -0.5454    1.5184 H   0  0  0  0  0  0  0  0  0  0  0  0
  1 15  2  0  0  0  0
  2 16  2  0  0  0  0
  3 22  2  0  0  0  0
  4 10  1  0  0  0  0
  4 12  1  0  0  0  0
  4 16  1  0  0  0  0
  5 11  1  0  0  0  0
  5 13  1  0  0  0  0
  5 15  1  0  0  0  0
  6 17  1  0  0  0  0
  6 22  1  0  0  0  0
  6 44  1  0  0  0  0
  7  9  1  0  0  0  0
  7 10  1  0  0  0  0
  7 11  1  0  0  0  0
  7 32  1  0  0  0  0
  8  9  1  0  0  0  0
  8 12  1  0  0  0  0
  8 13  1  0  0  0  0
  8 33  1  0  0  0  0
  9 34  1  0  0  0  0
  9 35  1  0  0  0  0
 10 36  1  0  0  0  0
 10 37  1  0  0  0  0
 11 38  1  0  0  0  0
 11 39  1  0  0  0  0
 12 40  1  0  0  0  0
 12 41  1  0  0  0  0
 13 14  2  0  0  0  0
 14 18  1  0  0  0  0
 14 42  1  0  0  0  0
 15 17  1  0  0  0  0
 16 19  1  0  0  0  0
 17 18  2  0  0  0  0
 18 43  1  0  0  0  0
 19 20  2  0  0  0  0
 19 21  1  0  0  0  0
 20 23  1  0  0  0  0
 20 45  1  0  0  0  0
 21 24  2  0  0  0  0
 21 46  1  0  0  0  0
 22 26  1  0  0  0  0
 23 25  2  0  0  0  0
 23 47  1  0  0  0  0
 24 25  1  0  0  0  0
 24 48  1  0  0  0  0
 25 49  1  0  0  0  0
 26 27  2  0  0  0  0
 26 28  1  0  0  0  0
 27 29  1  0  0  0  0
 27 50  1  0  0  0  0
 28 30  2  0  0  0  0
 28 51  1  0  0  0  0
 29 31  2  0  0  0  0
 29 52  1  0  0  0  0
 30 31  1  0  0  0  0
 30 53  1  0  0  0  0
 31 54  1  0  0  0  0
M  END
> <PUBCHEM_COMPOUND_CID>
11884472

> <PUBCHEM_CONFORMER_RMSD>
0.8

> <PUBCHEM_CONFORMER_DIVERSEORDER>
1
9
11
5
7
3
10
4
6
8
2

> <PUBCHEM_MMFF94_PARTIAL_CHARGES>
42
1 -0.57
10 0.3
11 0.3
12 0.3
13 -0.03
14 -0.15
15 0.62
16 0.54
17 0.12
18 -0.15
19 0.09
2 -0.57
20 -0.15
21 -0.15
22 0.54
23 -0.15
24 -0.15
25 -0.15
26 0.09
27 -0.15
28 -0.15
29 -0.15
3 -0.57
30 -0.15
31 -0.15
4 -0.66
42 0.15
43 0.15
44 0.37
45 0.15
46 0.15
47 0.15
48 0.15
49 0.15
5 -0.47
50 0.15
51 0.15
52 0.15
53 0.15
54 0.15
6 -0.54
8 0.14

> <PUBCHEM_EFFECTIVE_ROTOR_COUNT>
6

> <PUBCHEM_PHARMACOPHORE_FEATURES>
9
1 1 acceptor
1 2 acceptor
1 3 acceptor
1 6 donor
6 19 20 21 23 24 25 rings
6 26 27 28 29 30 31 rings
6 4 7 8 9 10 12 rings
6 5 13 14 15 17 18 rings
6 5 7 8 9 11 13 rings

> <PUBCHEM_HEAVY_ATOM_COUNT>
31

> <PUBCHEM_ATOM_DEF_STEREO_COUNT>
2

> <PUBCHEM_ATOM_UDEF_STEREO_COUNT>
0

> <PUBCHEM_BOND_DEF_STEREO_COUNT>
0

> <PUBCHEM_BOND_UDEF_STEREO_COUNT>
0

> <PUBCHEM_ISOTOPIC_ATOM_COUNT>
0

> <PUBCHEM_COMPONENT_COUNT>
1

> <PUBCHEM_CACTVS_TAUTO_COUNT>
2

> <PUBCHEM_CONFORMER_ID>
00B557B800000001

> <PUBCHEM_MMFF94_ENERGY>
96.7467

> <PUBCHEM_FEATURE_SELFOVERLAP>
47.254

> <PUBCHEM_SHAPE_FINGERPRINT>
10483366 6 18337372926004283359
11112241 14 17774720853173689447
11135609 149 17334471188551487967
11524674 6 18339357470622873543
12422481 6 18041556911241501258
12523318 42 18411133641065488144
12633257 1 18057627506130735705
12712778 12 18409726279088091482
12788726 201 18191037887637842102
13004483 165 18124034791623760063
14020679 6 17988369156907235153
14068700 675 18261670501715787911
14114206 34 16588569998584042221
14844126 61 18408324406284504675
14856354 85 18413389839342494404
15021287 119 16877948226689808932
15348495 7 18272082812801897496
15484559 13 13634441447694779294
19611394 137 18201434814398744840
20511986 3 17604138243244171112
20554085 129 18124012556520364657
20775530 9 17763478600605354191
23559900 14 18337663238905583909
244849 19 17416990360374355358
3383291 50 18413108373119715619
3459 110 18199463436677727272
3882209 13 17194294437608661158
397830 11 18270952566620273064
4073 2 18343580712677284094
4409770 3 18408037399574344541
484985 159 18334565872085399799
5080951 261 18043224947647381662
5364581 5 18198894985119639688
9981440 41 18193558866100165881

> <PUBCHEM_SHAPE_MULTIPOLES>
605.41
14.18
4.21
1.76
34.25
3.64
-0.13
3.69
-3.62
-8.72
0.18
0.13
-0.38
0.23

> <PUBCHEM_SHAPE_SELFOVERLAP>
1340.317

> <PUBCHEM_SHAPE_VOLUME>
316.1

> <PUBCHEM_COORDINATE_TYPE>
2
5
10

$$$$
