51137826
  -OEChem-12032416143D

 43 46  0     1  0  0  0  0  0999 V2000
    1.4230   -1.3036    0.0924 O   0  0  0  0  0  0  0  0  0  0  0  0
   -2.8007   -0.7685    2.2537 O   0  0  0  0  0  0  0  0  0  0  0  0
   -1.7397   -1.7205    0.4202 N   0  0  0  0  0  0  0  0  0  0  0  0
    2.3809   -2.9348   -1.1018 N   0  0  0  0  0  0  0  0  0  0  0  0
    3.3862   -2.1723   -0.5367 N   0  0  0  0  0  0  0  0  0  0  0  0
   -4.0100    1.4100   -1.5908 N   0  0  0  0  0  0  0  0  0  0  0  0
   -0.1775   -2.8007   -1.0137 C   0  0  1  0  0  0  0  0  0  0  0  0
   -0.7125   -3.8061    0.0178 C   0  0  0  0  0  0  0  0  0  0  0  0
   -1.2365   -1.6908   -0.9541 C   0  0  0  0  0  0  0  0  0  0  0  0
   -1.3106   -2.9280    1.1085 C   0  0  0  0  0  0  0  0  0  0  0  0
    1.2529   -2.3915   -0.7077 C   0  0  0  0  0  0  0  0  0  0  0  0
   -2.4606   -0.7326    1.0729 C   0  0  0  0  0  0  0  0  0  0  0  0
   -2.8362    0.4595    0.2970 C   0  0  0  0  0  0  0  0  0  0  0  0
    2.7809   -1.2322    0.1509 C   0  0  0  0  0  0  0  0  0  0  0  0
    3.3538   -0.1458    0.9553 C   0  0  0  0  0  0  0  0  0  0  0  0
   -2.4078    1.7264    0.6777 C   0  0  0  0  0  0  0  0  0  0  0  0
   -3.6285    0.3560   -0.8350 C   0  0  0  0  0  0  0  0  0  0  0  0
    2.9163    1.2548    0.5396 C   0  0  0  0  0  0  0  0  0  0  0  0
   -2.7796    2.8352   -0.0744 C   0  0  0  0  0  0  0  0  0  0  0  0
    3.5213    1.8798   -0.5508 C   0  0  0  0  0  0  0  0  0  0  0  0
    1.9112    1.9108    1.2500 C   0  0  0  0  0  0  0  0  0  0  0  0
   -3.5744    2.6253   -1.1898 C   0  0  0  0  0  0  0  0  0  0  0  0
    3.1212    3.1609   -0.9309 C   0  0  0  0  0  0  0  0  0  0  0  0
    1.5109    3.1918    0.8701 C   0  0  0  0  0  0  0  0  0  0  0  0
    2.1160    3.8170   -0.2203 C   0  0  0  0  0  0  0  0  0  0  0  0
   -0.1650   -3.2485   -2.0149 H   0  0  0  0  0  0  0  0  0  0  0  0
   -1.5099   -4.4041   -0.4416 H   0  0  0  0  0  0  0  0  0  0  0  0
    0.0434   -4.4945    0.4081 H   0  0  0  0  0  0  0  0  0  0  0  0
   -0.8512   -0.7008   -1.2156 H   0  0  0  0  0  0  0  0  0  0  0  0
   -2.0754   -1.9386   -1.6135 H   0  0  0  0  0  0  0  0  0  0  0  0
   -0.5617   -2.6423    1.8556 H   0  0  0  0  0  0  0  0  0  0  0  0
   -2.1549   -3.3979    1.6219 H   0  0  0  0  0  0  0  0  0  0  0  0
    3.0992   -0.3069    2.0106 H   0  0  0  0  0  0  0  0  0  0  0  0
    4.4496   -0.1907    0.9120 H   0  0  0  0  0  0  0  0  0  0  0  0
   -1.7825    1.8611    1.5563 H   0  0  0  0  0  0  0  0  0  0  0  0
   -4.0140   -0.6001   -1.1752 H   0  0  0  0  0  0  0  0  0  0  0  0
   -2.4560    3.8319    0.2029 H   0  0  0  0  0  0  0  0  0  0  0  0
    4.3052    1.3781   -1.1119 H   0  0  0  0  0  0  0  0  0  0  0  0
    1.4290    1.4336    2.0990 H   0  0  0  0  0  0  0  0  0  0  0  0
   -3.8913    3.4571   -1.8102 H   0  0  0  0  0  0  0  0  0  0  0  0
    3.5919    3.6474   -1.7801 H   0  0  0  0  0  0  0  0  0  0  0  0
    0.7267    3.7018    1.4220 H   0  0  0  0  0  0  0  0  0  0  0  0
    1.8037    4.8141   -0.5165 H   0  0  0  0  0  0  0  0  0  0  0  0
  1 11  1  0  0  0  0
  1 14  1  0  0  0  0
  2 12  2  0  0  0  0
  3  9  1  0  0  0  0
  3 10  1  0  0  0  0
  3 12  1  0  0  0  0
  4  5  1  0  0  0  0
  4 11  2  0  0  0  0
  5 14  2  0  0  0  0
  6 17  1  0  0  0  0
  6 22  2  0  0  0  0
  7  8  1  0  0  0  0
  7  9  1  0  0  0  0
  7 11  1  0  0  0  0
  7 26  1  0  0  0  0
  8 10  1  0  0  0  0
  8 27  1  0  0  0  0
  8 28  1  0  0  0  0
  9 29  1  0  0  0  0
  9 30  1  0  0  0  0
 10 31  1  0  0  0  0
 10 32  1  0  0  0  0
 12 13  1  0  0  0  0
 13 16  1  0  0  0  0
 13 17  2  0  0  0  0
 14 15  1  0  0  0  0
 15 18  1  0  0  0  0
 15 33  1  0  0  0  0
 15 34  1  0  0  0  0
 16 19  2  0  0  0  0
 16 35  1  0  0  0  0
 17 36  1  0  0  0  0
 18 20  2  0  0  0  0
 18 21  1  0  0  0  0
 19 22  1  0  0  0  0
 19 37  1  0  0  0  0
 20 23  1  0  0  0  0
 20 38  1  0  0  0  0
 21 24  2  0  0  0  0
 21 39  1  0  0  0  0
 22 40  1  0  0  0  0
 23 25  2  0  0  0  0
 23 41  1  0  0  0  0
 24 25  1  0  0  0  0
 24 42  1  0  0  0  0
 25 43  1  0  0  0  0
M  END
> <PUBCHEM_COMPOUND_CID>
51137826

> <PUBCHEM_CONFORMER_RMSD>
1

> <PUBCHEM_CONFORMER_DIVERSEORDER>
1
72
20
19
147
160
107
84
95
134
163
140
117
34
44
176
159
104
123
149
97
9
130
63
100
45
144
92
141
85
69
37
47
129
139
168
94
106
18
42
108
6
43
66
151
174
116
22
55
53
155
67
113
40
31
115
70
138
135
164
82
75
17
38
150
90
158
13
154
152
114
170
173
26
157
60
81
58
109
11
74
103
172
86
122
77
7
28
71
25
167
29
118
169
148
16
120
87
166
3
175
33
111
98
142
93
2
62
88
131
102
57
162
145
78
177
126
124
83
119
49
54
156
136
161
132
65
89
8
112
14
36
61
35
27
146
32
143
76
128
171
96
127
4
125
15
105
153
56
91
110
121
137
165
73
30
68
80
21
46
52
41
50
24
99
5
12
48
133
39
101
64
79
23
59
10
51

> <PUBCHEM_MMFF94_PARTIAL_CHARGES>
33
1 -0.28
10 0.3
11 0.3
12 0.54
13 0.09
14 0.3
15 0.32
16 -0.15
17 0.16
18 -0.14
19 -0.15
2 -0.57
20 -0.15
21 -0.15
22 0.16
23 -0.15
24 -0.15
25 -0.15
3 -0.66
35 0.15
36 0.15
37 0.15
38 0.15
39 0.15
4 -0.34
40 0.15
41 0.15
42 0.15
43 0.15
5 -0.34
6 -0.62
7 0.18
9 0.3

> <PUBCHEM_EFFECTIVE_ROTOR_COUNT>
6

> <PUBCHEM_PHARMACOPHORE_FEATURES>
6
1 2 acceptor
1 6 acceptor
5 1 4 5 11 14 rings
5 3 7 8 9 10 rings
6 18 20 21 23 24 25 rings
6 6 13 16 17 19 22 rings

> <PUBCHEM_HEAVY_ATOM_COUNT>
25

> <PUBCHEM_ATOM_DEF_STEREO_COUNT>
1

> <PUBCHEM_ATOM_UDEF_STEREO_COUNT>
0

> <PUBCHEM_BOND_DEF_STEREO_COUNT>
0

> <PUBCHEM_BOND_UDEF_STEREO_COUNT>
0

> <PUBCHEM_ISOTOPIC_ATOM_COUNT>
0

> <PUBCHEM_COMPONENT_COUNT>
1

> <PUBCHEM_CACTVS_TAUTO_COUNT>
1

> <PUBCHEM_CONFORMER_ID>
030C4D2200000001

> <PUBCHEM_MMFF94_ENERGY>
58.0856

> <PUBCHEM_FEATURE_SELFOVERLAP>
30.449

> <PUBCHEM_SHAPE_FINGERPRINT>
10498660 4 17618778502191390990
10616163 171 18192432089487485064
10670039 82 17760658366439343572
10871710 139 17545044165584525605
11221954 11 18408603681805260827
11370993 70 18339346526724871889
12038231 1 17258781417125739536
12100795 323 18262797492149029005
12156800 1 14812095783036292300
12539773 59 15972465534033654815
12553582 1 17762629386496134216
128993 33 18125730238263471320
13122387 1 18340207379957645612
13402501 40 18264764350952442892
13583140 156 17968095291919757731
1361 2 18267010851541382549
13773456 30 18194940028356005245
14251751 93 18121790679743538140
14251764 3 17387948925326787773
14251764 38 18335695023271572069
14466204 15 18047741616565419458
14468879 13 18188483696382873945
151778 21 18339942483618092353
15210252 30 17757282483167923132
17093844 170 17762609595624704184
17921350 177 18042112198614245592
19930381 70 18412257316575079061
20567600 299 18128805357322081848
20621476 13 18266172829621414340
20764821 26 18266748986594158396
21860390 5 18128532670043177270
22749437 52 18341322349103992296
238 59 18341878689392694101
3052486 1 15740220503177922179
35225 105 18055347200149959564
469060 322 17254841287047576650
474 4 18267579105431046645
5081480 168 17629512733761070758
5252454 2 18126300867397060472
54672768 99 18335979783666493300

> <PUBCHEM_SHAPE_MULTIPOLES>
482.83
7.16
5.63
1.41
0.48
0.44
-0.24
-4.84
0.74
0.85
1.18
-0.72
-0.03
1.23

> <PUBCHEM_SHAPE_SELFOVERLAP>
1052.131

> <PUBCHEM_SHAPE_VOLUME>
261.9

> <PUBCHEM_COORDINATE_TYPE>
2
5
10

$$$$
