45784302
  -OEChem-12032416293D

 47 50  0     1  0  0  0  0  0999 V2000
   -7.6672   -0.1139    1.6643 F   0  0  0  0  0  0  0  0  0  0  0  0
   -7.9157   -1.4635   -0.0223 F   0  0  0  0  0  0  0  0  0  0  0  0
   -8.3015    0.6633   -0.2586 F   0  0  0  0  0  0  0  0  0  0  0  0
    8.4367   -0.2514   -0.1149 O   0  0  0  0  0  0  0  0  0  0  0  0
   -1.0040   -0.1533   -0.2808 N   0  0  1  0  0  0  0  0  0  0  0  0
    3.6444   -1.1855    0.2571 N   0  0  0  0  0  0  0  0  0  0  0  0
    3.0604    0.9526    0.0909 N   0  0  0  0  0  0  0  0  0  0  0  0
    1.1809   -0.7151    0.3596 C   0  0  1  0  0  0  0  0  0  0  0  0
    0.4287   -0.1203    1.5628 C   0  0  0  0  0  0  0  0  0  0  0  0
    0.3297   -0.3322   -0.8586 C   0  0  0  0  0  0  0  0  0  0  0  0
   -0.7805    0.5849    0.9622 C   0  0  0  0  0  0  0  0  0  0  0  0
    2.6220   -0.2781    0.2323 C   0  0  0  0  0  0  0  0  0  0  0  0
   -1.9111    0.5415   -1.1824 C   0  0  0  0  0  0  0  0  0  0  0  0
   -3.3515    0.3418   -0.7921 C   0  0  0  0  0  0  0  0  0  0  0  0
    4.8209   -0.4941    0.1224 C   0  0  0  0  0  0  0  0  0  0  0  0
    4.4298    0.8381    0.0205 C   0  0  0  0  0  0  0  0  0  0  0  0
   -3.9889   -0.8665   -1.0736 C   0  0  0  0  0  0  0  0  0  0  0  0
   -4.0483    1.3646   -0.1486 C   0  0  0  0  0  0  0  0  0  0  0  0
    6.1531   -0.9070    0.0821 C   0  0  0  0  0  0  0  0  0  0  0  0
    5.4126    1.8307   -0.1309 C   0  0  0  0  0  0  0  0  0  0  0  0
    7.1181    0.0942   -0.0691 C   0  0  0  0  0  0  0  0  0  0  0  0
   -5.3230   -1.0522   -0.7117 C   0  0  0  0  0  0  0  0  0  0  0  0
   -5.3825    1.1790    0.2133 C   0  0  0  0  0  0  0  0  0  0  0  0
    6.7566    1.4393   -0.1737 C   0  0  0  0  0  0  0  0  0  0  0  0
   -6.0199   -0.0293   -0.0682 C   0  0  0  0  0  0  0  0  0  0  0  0
   -7.4454   -0.2291    0.3215 C   0  0  0  0  0  0  0  0  0  0  0  0
    8.7455   -1.6386   -0.0031 C   0  0  0  0  0  0  0  0  0  0  0  0
    1.1571   -1.8094    0.4672 H   0  0  0  0  0  0  0  0  0  0  0  0
    0.1013   -0.9319    2.2246 H   0  0  0  0  0  0  0  0  0  0  0  0
    1.0367    0.5689    2.1585 H   0  0  0  0  0  0  0  0  0  0  0  0
    0.3413   -1.1237   -1.6159 H   0  0  0  0  0  0  0  0  0  0  0  0
    0.6916    0.5942   -1.3245 H   0  0  0  0  0  0  0  0  0  0  0  0
   -0.5366    1.6387    0.7757 H   0  0  0  0  0  0  0  0  0  0  0  0
   -1.6381    0.5384    1.6406 H   0  0  0  0  0  0  0  0  0  0  0  0
   -1.6715    1.6101   -1.2679 H   0  0  0  0  0  0  0  0  0  0  0  0
   -1.8017    0.1419   -2.2007 H   0  0  0  0  0  0  0  0  0  0  0  0
    3.5534   -2.1879    0.3567 H   0  0  0  0  0  0  0  0  0  0  0  0
   -3.4564   -1.6710   -1.5743 H   0  0  0  0  0  0  0  0  0  0  0  0
   -3.5629    2.3101    0.0781 H   0  0  0  0  0  0  0  0  0  0  0  0
    6.3663   -1.9643    0.1686 H   0  0  0  0  0  0  0  0  0  0  0  0
    5.1419    2.8785   -0.2132 H   0  0  0  0  0  0  0  0  0  0  0  0
   -5.8008   -2.0010   -0.9395 H   0  0  0  0  0  0  0  0  0  0  0  0
   -5.9170    1.9813    0.7152 H   0  0  0  0  0  0  0  0  0  0  0  0
    7.5251    2.1999   -0.2906 H   0  0  0  0  0  0  0  0  0  0  0  0
    8.4411   -2.0430    0.9683 H   0  0  0  0  0  0  0  0  0  0  0  0
    8.3338   -2.2125   -0.8404 H   0  0  0  0  0  0  0  0  0  0  0  0
    9.8351   -1.7323   -0.0590 H   0  0  0  0  0  0  0  0  0  0  0  0
  1 26  1  0  0  0  0
  2 26  1  0  0  0  0
  3 26  1  0  0  0  0
  4 21  1  0  0  0  0
  4 27  1  0  0  0  0
  5 10  1  0  0  0  0
  5 11  1  0  0  0  0
  5 13  1  0  0  0  0
  6 12  1  0  0  0  0
  6 15  1  0  0  0  0
  6 37  1  0  0  0  0
  7 12  2  0  0  0  0
  7 16  1  0  0  0  0
  8  9  1  0  0  0  0
  8 10  1  0  0  0  0
  8 12  1  0  0  0  0
  8 28  1  0  0  0  0
  9 11  1  0  0  0  0
  9 29  1  0  0  0  0
  9 30  1  0  0  0  0
 10 31  1  0  0  0  0
 10 32  1  0  0  0  0
 11 33  1  0  0  0  0
 11 34  1  0  0  0  0
 13 14  1  0  0  0  0
 13 35  1  0  0  0  0
 13 36  1  0  0  0  0
 14 17  2  0  0  0  0
 14 18  1  0  0  0  0
 15 16  2  0  0  0  0
 15 19  1  0  0  0  0
 16 20  1  0  0  0  0
 17 22  1  0  0  0  0
 17 38  1  0  0  0  0
 18 23  2  0  0  0  0
 18 39  1  0  0  0  0
 19 21  2  0  0  0  0
 19 40  1  0  0  0  0
 20 24  2  0  0  0  0
 20 41  1  0  0  0  0
 21 24  1  0  0  0  0
 22 25  2  0  0  0  0
 22 42  1  0  0  0  0
 23 25  1  0  0  0  0
 23 43  1  0  0  0  0
 24 44  1  0  0  0  0
 25 26  1  0  0  0  0
 27 45  1  0  0  0  0
 27 46  1  0  0  0  0
 27 47  1  0  0  0  0
M  END
> <PUBCHEM_COMPOUND_CID>
45784302

> <PUBCHEM_CONFORMER_RMSD>
0.8

> <PUBCHEM_CONFORMER_DIVERSEORDER>
1
55
18
64
38
39
45
11
57
36
63
48
65
53
27
51
43
16
40
56
33
61
24
46
21
49
37
13
2
26
44
41
32
34
62
8
50
58
52
54
35
47
9
60
42
15
14
5
17
7
6
19
30
59
4
22
25
29
28
31
23
66
12
10
20
3

> <PUBCHEM_MMFF94_PARTIAL_CHARGES>
34
1 -0.34
10 0.27
11 0.27
12 0.01
13 0.41
14 -0.14
15 -0.15
16 0.23
17 -0.15
18 -0.15
19 -0.15
2 -0.34
20 -0.15
21 0.08
22 -0.15
23 -0.15
24 -0.15
25 -0.14
26 1.16
27 0.28
3 -0.34
37 0.27
38 0.15
39 0.15
4 -0.36
40 0.15
41 0.15
42 0.15
43 0.15
44 0.15
5 -0.81
6 0.03
7 -0.57
8 0.18

> <PUBCHEM_EFFECTIVE_ROTOR_COUNT>
6

> <PUBCHEM_PHARMACOPHORE_FEATURES>
8
1 4 acceptor
1 5 cation
1 6 donor
3 6 7 12 cation
5 5 8 9 10 11 rings
5 6 7 12 15 16 rings
6 14 17 18 22 23 25 rings
6 15 16 19 20 21 24 rings

> <PUBCHEM_HEAVY_ATOM_COUNT>
27

> <PUBCHEM_ATOM_DEF_STEREO_COUNT>
1

> <PUBCHEM_ATOM_UDEF_STEREO_COUNT>
0

> <PUBCHEM_BOND_DEF_STEREO_COUNT>
0

> <PUBCHEM_BOND_UDEF_STEREO_COUNT>
0

> <PUBCHEM_ISOTOPIC_ATOM_COUNT>
0

> <PUBCHEM_COMPONENT_COUNT>
1

> <PUBCHEM_CACTVS_TAUTO_COUNT>
2

> <PUBCHEM_CONFORMER_ID>
02BA9CEE00000001

> <PUBCHEM_MMFF94_ENERGY>
61.6387

> <PUBCHEM_FEATURE_SELFOVERLAP>
40.704

> <PUBCHEM_SHAPE_FINGERPRINT>
10 15 18342459240670590639
10299344 5 18272931635187722615
11135609 127 11959429225151431810
11135926 11 17346310466879326535
11315181 36 18409449181664269825
11524674 6 15769773589716567295
12089408 11 18131350821160572396
12166972 35 18334294275860699324
12236239 1 18131066044176911388
12730499 353 18040150704604513090
13533116 47 17096073698699938026
14123256 10 17095241414982974507
14251764 18 17846497050098186559
14251764 46 18410292505885060943
14849402 71 18337394970943090349
14856354 85 17703509978369707685
14933364 13 18412261739800595828
15183329 4 18343014484656143268
15419008 47 16370718249050389764
15461852 350 14201403798123644347
15510794 2 18186804673893268163
15716309 27 18410291415422375287
15849732 13 12251904793563409498
17093844 174 13182734858233821055
18006028 8 10592045760568056794
18335252 98 18410577270875714371
21095086 128 18408602565198361239
21150785 3 13479134592235844070
21267235 1 18410575064032430332
21315763 28 18410573981210230068
21521721 280 18334576875363707635
21792934 111 15841545267670979874
21792961 116 17703507696945656933
22224240 67 16443063910850077441
23035841 295 18060699498542428967
232437 2 18410292519698696023
23516275 137 18200050446796445507
23536379 177 18342173358577470708
23569943 247 17098325403529101202
249057 3 18341893013145419710
2747138 104 17313108565964260653
28498 318 11959737062083074824
3545911 37 17894346679531890502
4073 2 18187367683317011306
4325135 7 18409166614816176877
4339292 15 13182440211305213893
5283156 175 17561084688168411486
5385378 56 15697731332933065111
5758199 1 17458062655778942897
59682541 35 16950286242868104441
59755656 520 18187639228508850238
6009941 240 11815891275688605229
9663363 56 15339114628501098843

> <PUBCHEM_SHAPE_MULTIPOLES>
513.01
27.84
1.39
1
1.41
0.15
-0.16
-3.73
-0.93
-1.21
0.08
1.05
-0.03
-0.38

> <PUBCHEM_SHAPE_SELFOVERLAP>
1123.025

> <PUBCHEM_SHAPE_VOLUME>
283.6

> <PUBCHEM_COORDINATE_TYPE>
2
5
10

$$$$
