75537080
  -OEChem-12032416333D

 47 50  0     1  0  0  0  0  0999 V2000
    6.3437   -2.8408    0.9120 F   0  0  0  0  0  0  0  0  0  0  0  0
    1.7132    2.4533    1.4204 O   0  0  0  0  0  0  0  0  0  0  0  0
   -0.0331    1.4629    0.2003 N   0  0  0  0  0  0  0  0  0  0  0  0
   -2.3109   -0.1017   -0.3237 N   0  0  2  0  0  0  0  0  0  0  0  0
    2.0227    1.4754   -0.7038 N   0  0  0  0  0  0  0  0  0  0  0  0
   -0.2163    0.9116   -1.1260 C   0  0  2  0  0  0  0  0  0  0  0  0
   -1.0577   -0.3626   -1.0607 C   0  0  0  0  0  0  0  0  0  0  0  0
    1.2097    0.7138   -1.6364 C   0  0  0  0  0  0  0  0  0  0  0  0
   -1.1826    1.6225    1.0665 C   0  0  0  0  0  0  0  0  0  0  0  0
   -2.0275    0.3461    1.0549 C   0  0  0  0  0  0  0  0  0  0  0  0
    1.2865    1.8746    0.4299 C   0  0  0  0  0  0  0  0  0  0  0  0
   -3.1509   -1.2990   -0.3078 C   0  0  0  0  0  0  0  0  0  0  0  0
    3.4470    1.6442   -0.8893 C   0  0  0  0  0  0  0  0  0  0  0  0
   -4.6015   -0.9633   -0.0843 C   0  0  0  0  0  0  0  0  0  0  0  0
    4.2210    0.4458   -0.4079 C   0  0  0  0  0  0  0  0  0  0  0  0
   -5.4344   -0.7104   -1.1741 C   0  0  0  0  0  0  0  0  0  0  0  0
   -5.1123   -0.9051    1.2124 C   0  0  0  0  0  0  0  0  0  0  0  0
    4.6639    0.3863    0.9136 C   0  0  0  0  0  0  0  0  0  0  0  0
    4.4952   -0.6049   -1.2833 C   0  0  0  0  0  0  0  0  0  0  0  0
   -6.7783   -0.3994   -0.9673 C   0  0  0  0  0  0  0  0  0  0  0  0
   -6.4563   -0.5941    1.4193 C   0  0  0  0  0  0  0  0  0  0  0  0
    5.3809   -0.7239    1.3595 C   0  0  0  0  0  0  0  0  0  0  0  0
    5.2122   -1.7151   -0.8374 C   0  0  0  0  0  0  0  0  0  0  0  0
   -7.2893   -0.3413    0.3294 C   0  0  0  0  0  0  0  0  0  0  0  0
    5.6551   -1.7747    0.4838 C   0  0  0  0  0  0  0  0  0  0  0  0
   -0.7266    1.6781   -1.7239 H   0  0  0  0  0  0  0  0  0  0  0  0
   -1.2773   -0.6852   -2.0858 H   0  0  0  0  0  0  0  0  0  0  0  0
   -0.4963   -1.1706   -0.5722 H   0  0  0  0  0  0  0  0  0  0  0  0
    1.5228   -0.3342   -1.6011 H   0  0  0  0  0  0  0  0  0  0  0  0
    1.3396    1.1012   -2.6513 H   0  0  0  0  0  0  0  0  0  0  0  0
   -1.7614    2.4718    0.6855 H   0  0  0  0  0  0  0  0  0  0  0  0
   -0.8471    1.8676    2.0792 H   0  0  0  0  0  0  0  0  0  0  0  0
   -2.9465    0.5777    1.5996 H   0  0  0  0  0  0  0  0  0  0  0  0
   -1.4999   -0.4409    1.6103 H   0  0  0  0  0  0  0  0  0  0  0  0
   -2.8063   -2.0354    0.4314 H   0  0  0  0  0  0  0  0  0  0  0  0
   -3.0891   -1.8206   -1.2734 H   0  0  0  0  0  0  0  0  0  0  0  0
    3.7675    2.5320   -0.3309 H   0  0  0  0  0  0  0  0  0  0  0  0
    3.6459    1.8457   -1.9482 H   0  0  0  0  0  0  0  0  0  0  0  0
   -5.0488   -0.7501   -2.1894 H   0  0  0  0  0  0  0  0  0  0  0  0
   -4.4822   -1.1171    2.0719 H   0  0  0  0  0  0  0  0  0  0  0  0
    4.4568    1.1977    1.6061 H   0  0  0  0  0  0  0  0  0  0  0  0
    4.1563   -0.5702   -2.3153 H   0  0  0  0  0  0  0  0  0  0  0  0
   -7.4270   -0.2022   -1.8158 H   0  0  0  0  0  0  0  0  0  0  0  0
   -6.8552   -0.5529    2.4286 H   0  0  0  0  0  0  0  0  0  0  0  0
    5.7257   -0.7708    2.3882 H   0  0  0  0  0  0  0  0  0  0  0  0
    5.4259   -2.5333   -1.5187 H   0  0  0  0  0  0  0  0  0  0  0  0
   -8.3359   -0.1000    0.4903 H   0  0  0  0  0  0  0  0  0  0  0  0
  1 25  1  0  0  0  0
  2 11  2  0  0  0  0
  3  6  1  0  0  0  0
  3  9  1  0  0  0  0
  3 11  1  0  0  0  0
  4  7  1  0  0  0  0
  4 10  1  0  0  0  0
  4 12  1  0  0  0  0
  5  8  1  0  0  0  0
  5 11  1  0  0  0  0
  5 13  1  0  0  0  0
  6  7  1  0  0  0  0
  6  8  1  0  0  0  0
  6 26  1  0  0  0  0
  7 27  1  0  0  0  0
  7 28  1  0  0  0  0
  8 29  1  0  0  0  0
  8 30  1  0  0  0  0
  9 10  1  0  0  0  0
  9 31  1  0  0  0  0
  9 32  1  0  0  0  0
 10 33  1  0  0  0  0
 10 34  1  0  0  0  0
 12 14  1  0  0  0  0
 12 35  1  0  0  0  0
 12 36  1  0  0  0  0
 13 15  1  0  0  0  0
 13 37  1  0  0  0  0
 13 38  1  0  0  0  0
 14 16  2  0  0  0  0
 14 17  1  0  0  0  0
 15 18  2  0  0  0  0
 15 19  1  0  0  0  0
 16 20  1  0  0  0  0
 16 39  1  0  0  0  0
 17 21  2  0  0  0  0
 17 40  1  0  0  0  0
 18 22  1  0  0  0  0
 18 41  1  0  0  0  0
 19 23  2  0  0  0  0
 19 42  1  0  0  0  0
 20 24  2  0  0  0  0
 20 43  1  0  0  0  0
 21 24  1  0  0  0  0
 21 44  1  0  0  0  0
 22 25  2  0  0  0  0
 22 45  1  0  0  0  0
 23 25  1  0  0  0  0
 23 46  1  0  0  0  0
 24 47  1  0  0  0  0
M  END
> <PUBCHEM_COMPOUND_CID>
75537080

> <PUBCHEM_CONFORMER_RMSD>
0.8

> <PUBCHEM_CONFORMER_DIVERSEORDER>
2
53
46
36
40
38
24
10
37
4
48
31
29
52
28
44
27
22
21
50
19
26
33
7
23
49
51
12
13
17
16
35
5
34
32
45
47
20
43
11
15
6
41
14
1
18
39
42
30
9
25
3
8

> <PUBCHEM_MMFF94_PARTIAL_CHARGES>
34
1 -0.19
10 0.27
11 0.69
12 0.41
13 0.44
14 -0.14
15 -0.14
16 -0.15
17 -0.15
18 -0.15
19 -0.15
2 -0.57
20 -0.15
21 -0.15
22 -0.15
23 -0.15
24 -0.15
25 0.19
3 -0.66
39 0.15
4 -0.81
40 0.15
41 0.15
42 0.15
43 0.15
44 0.15
45 0.15
46 0.15
47 0.15
5 -0.66
6 0.3
7 0.27
8 0.3
9 0.3

> <PUBCHEM_EFFECTIVE_ROTOR_COUNT>
5.2

> <PUBCHEM_PHARMACOPHORE_FEATURES>
6
1 2 acceptor
1 4 cation
5 3 5 6 8 11 rings
6 14 16 17 20 21 24 rings
6 15 18 19 22 23 25 rings
6 3 4 6 7 9 10 rings

> <PUBCHEM_HEAVY_ATOM_COUNT>
25

> <PUBCHEM_ATOM_DEF_STEREO_COUNT>
1

> <PUBCHEM_ATOM_UDEF_STEREO_COUNT>
0

> <PUBCHEM_BOND_DEF_STEREO_COUNT>
0

> <PUBCHEM_BOND_UDEF_STEREO_COUNT>
0

> <PUBCHEM_ISOTOPIC_ATOM_COUNT>
0

> <PUBCHEM_COMPONENT_COUNT>
1

> <PUBCHEM_CACTVS_TAUTO_COUNT>
1

> <PUBCHEM_CONFORMER_ID>
04809AB800000002

> <PUBCHEM_MMFF94_ENERGY>
60.9379

> <PUBCHEM_FEATURE_SELFOVERLAP>
30.543

> <PUBCHEM_SHAPE_FINGERPRINT>
10 15 13758351172158130070
10670039 82 11170176649897034206
10753850 27 18114177510971986106
11476731 118 11743845724945620235
117089 54 18050575041426101878
11719270 70 17132121251524676511
11796584 16 18188212112272851147
12422481 6 16988852661273980565
12596602 18 15698000742751074254
12730499 353 8142093073542459589
12760667 363 18412262822443369823
13533116 47 18411419535853794128
13685833 64 18040997349594633494
13782708 43 18116157851984425171
13914758 101 18342739594787619409
14251752 14 18334575725045967893
14347424 109 18201998841661190848
14359421 15 17023744482119822314
14461889 52 13686293608422110653
14528608 73 11530478947574872527
14705955 166 16343422795866490018
14767858 380 11963389652489992759
15183329 4 17095240302649826349
15188451 53 18271802385438361242
15301273 46 16415487051836231260
15352257 5 17531251694785488411
15475509 8 16081087052562076461
17857418 61 18202566198208573485
19784866 240 18114184120435972676
1979834 28 17131840845894784022
20105231 36 14996292414268961017
20511986 3 15482397461322615093
20567600 234 14045738244397549979
20832881 197 18409729581933688825
21315764 119 16950562160199403647
21344244 181 16443070499403646370
21641784 216 12180111065068240127
22061861 79 17821729455186413751
22079108 93 12823295701798185909
2303208 19 17168148979091469321
23559900 14 18041562558959581749
23845131 108 16265205587134005089
23929065 36 16988286353109867185
270888 7 10879407531957463290
2838139 119 10303813151370883418
3004659 81 18411145753100226932
3014965 18 18334574659450720047
3411729 13 16915652799699793720
345986 75 18270957939049315050
3472631 163 8862650318572242666
34797466 226 15647060411953697830
3680242 22 18413109467798371022
3886686 26 16908644164385776066
4072396 5 17632583764020910061
4325135 7 10879996861056177781
46194498 28 16805603702955824492
465052 167 18260834804138141174
474113 269 18129934586202865927
5104073 3 17416412167893262291
531348 171 18409725171878040671
53794403 172 8069156931402533910
5718773 13 17896592896205323754
59755656 215 17530959177421108531
8509985 295 17988928906924962124
8988823 20 18059852913381300088
960060 61 16660369182052097430

> <PUBCHEM_SHAPE_MULTIPOLES>
486.4
18.88
2.08
1.54
13.26
0.01
-0.03
-11.99
-2.87
-3.48
-0.47
-0.07
0.06
-0.62

> <PUBCHEM_SHAPE_SELFOVERLAP>
1047.79

> <PUBCHEM_SHAPE_VOLUME>
269

> <PUBCHEM_COORDINATE_TYPE>
2
5
10

$$$$
