11912948
  -OEChem-12032416373D

 54 56  0     1  0  0  0  0  0999 V2000
    5.6497    0.7135   -1.1361 S   0  0  0  0  0  0  0  0  0  0  0  0
    0.0057   -3.6160    0.6143 O   0  0  0  0  0  0  0  0  0  0  0  0
    0.4715   -0.6517    1.4701 O   0  0  0  0  0  0  0  0  0  0  0  0
    4.7960   -2.0649   -0.0310 O   0  0  0  0  0  0  0  0  0  0  0  0
    4.3629    3.5585    1.1782 O   0  0  0  0  0  0  0  0  0  0  0  0
    6.1963    3.4436   -0.1601 O   0  0  0  0  0  0  0  0  0  0  0  0
   -2.5242   -1.9946   -0.1271 N   0  0  0  0  0  0  0  0  0  0  0  0
    2.6461   -1.4048   -0.6191 N   0  0  0  0  0  0  0  0  0  0  0  0
   -3.2563    0.1943    0.1277 N   0  0  0  0  0  0  0  0  0  0  0  0
   -4.2111   -1.2572   -1.5423 N   0  0  0  0  0  0  0  0  0  0  0  0
   -0.2771   -1.2626    0.4057 C   0  0  1  0  0  0  0  0  0  0  0  0
    0.5179   -2.4620   -0.0725 C   0  0  1  0  0  0  0  0  0  0  0  0
   -1.5581   -1.8578    0.9408 C   0  0  2  0  0  0  0  0  0  0  0  0
    1.9316   -2.1684    0.3750 C   0  0  2  0  0  0  0  0  0  0  0  0
   -1.1129   -3.2258    1.4245 C   0  0  0  0  0  0  0  0  0  0  0  0
    1.7104   -1.3564    1.6388 C   0  0  0  0  0  0  0  0  0  0  0  0
   -3.3672   -0.9748   -0.5315 C   0  0  0  0  0  0  0  0  0  0  0  0
    4.0277   -1.4168   -0.7398 C   0  0  0  0  0  0  0  0  0  0  0  0
   -4.0032    2.4787    0.4108 C   0  0  0  0  0  0  0  0  0  0  0  0
    4.5329   -0.5199   -1.8454 C   0  0  0  0  0  0  0  0  0  0  0  0
   -4.0925    1.1661   -0.2925 C   0  0  0  0  0  0  0  0  0  0  0  0
   -5.0028    1.0045   -1.3171 C   0  0  0  0  0  0  0  0  0  0  0  0
   -5.3609    2.8545    1.0808 C   0  0  0  0  0  0  0  0  0  0  0  0
   -3.6329    3.6265   -0.5787 C   0  0  0  0  0  0  0  0  0  0  0  0
   -2.9387    2.5558    1.5550 C   0  0  0  0  0  0  0  0  0  0  0  0
   -5.0180   -0.2407   -1.9113 C   0  0  0  0  0  0  0  0  0  0  0  0
    4.4093    1.8602   -0.4906 C   0  0  0  0  0  0  0  0  0  0  0  0
    5.0975    3.0183    0.1731 C   0  0  0  0  0  0  0  0  0  0  0  0
   -0.4106   -0.5047   -0.3728 H   0  0  0  0  0  0  0  0  0  0  0  0
    0.4136   -2.6461   -1.1466 H   0  0  0  0  0  0  0  0  0  0  0  0
   -1.9853   -1.3021    1.7835 H   0  0  0  0  0  0  0  0  0  0  0  0
    2.5059   -3.0736    0.6001 H   0  0  0  0  0  0  0  0  0  0  0  0
   -1.8898   -3.9941    1.3631 H   0  0  0  0  0  0  0  0  0  0  0  0
   -0.7600   -3.1778    2.4606 H   0  0  0  0  0  0  0  0  0  0  0  0
    2.5086   -0.6385    1.8511 H   0  0  0  0  0  0  0  0  0  0  0  0
    1.5953   -2.0111    2.5097 H   0  0  0  0  0  0  0  0  0  0  0  0
   -2.5659   -2.8600   -0.6534 H   0  0  0  0  0  0  0  0  0  0  0  0
    2.1065   -0.7860   -1.2177 H   0  0  0  0  0  0  0  0  0  0  0  0
    3.7254   -0.0350   -2.4011 H   0  0  0  0  0  0  0  0  0  0  0  0
    5.0918   -1.1434   -2.5505 H   0  0  0  0  0  0  0  0  0  0  0  0
   -5.6732    1.7841   -1.6538 H   0  0  0  0  0  0  0  0  0  0  0  0
   -5.6698    2.0813    1.7941 H   0  0  0  0  0  0  0  0  0  0  0  0
   -6.1644    2.9649    0.3443 H   0  0  0  0  0  0  0  0  0  0  0  0
   -5.2879    3.8038    1.6242 H   0  0  0  0  0  0  0  0  0  0  0  0
   -3.5364    4.5861   -0.0577 H   0  0  0  0  0  0  0  0  0  0  0  0
   -2.6794    3.4169   -1.0779 H   0  0  0  0  0  0  0  0  0  0  0  0
   -4.3921    3.7569   -1.3576 H   0  0  0  0  0  0  0  0  0  0  0  0
   -2.9241    3.5440    2.0285 H   0  0  0  0  0  0  0  0  0  0  0  0
   -3.1477    1.8142    2.3350 H   0  0  0  0  0  0  0  0  0  0  0  0
   -1.9326    2.3554    1.1679 H   0  0  0  0  0  0  0  0  0  0  0  0
   -5.6999   -0.4625   -2.7252 H   0  0  0  0  0  0  0  0  0  0  0  0
    3.7778    2.2449   -1.2960 H   0  0  0  0  0  0  0  0  0  0  0  0
    3.7958    1.3399    0.2505 H   0  0  0  0  0  0  0  0  0  0  0  0
    4.8202    4.3178    1.5985 H   0  0  0  0  0  0  0  0  0  0  0  0
  1 20  1  0  0  0  0
  1 27  1  0  0  0  0
  2 12  1  0  0  0  0
  2 15  1  0  0  0  0
  3 11  1  0  0  0  0
  3 16  1  0  0  0  0
  4 18  2  0  0  0  0
  5 28  1  0  0  0  0
  5 54  1  0  0  0  0
  6 28  2  0  0  0  0
  7 13  1  0  0  0  0
  7 17  1  0  0  0  0
  7 37  1  0  0  0  0
  8 14  1  0  0  0  0
  8 18  1  0  0  0  0
  8 38  1  0  0  0  0
  9 17  1  0  0  0  0
  9 21  2  0  0  0  0
 10 17  2  0  0  0  0
 10 26  1  0  0  0  0
 11 12  1  0  0  0  0
 11 13  1  0  0  0  0
 11 29  1  0  0  0  0
 12 14  1  0  0  0  0
 12 30  1  0  0  0  0
 13 15  1  0  0  0  0
 13 31  1  0  0  0  0
 14 16  1  0  0  0  0
 14 32  1  0  0  0  0
 15 33  1  0  0  0  0
 15 34  1  0  0  0  0
 16 35  1  0  0  0  0
 16 36  1  0  0  0  0
 18 20  1  0  0  0  0
 19 21  1  0  0  0  0
 19 23  1  0  0  0  0
 19 24  1  0  0  0  0
 19 25  1  0  0  0  0
 20 39  1  0  0  0  0
 20 40  1  0  0  0  0
 21 22  1  0  0  0  0
 22 26  2  0  0  0  0
 22 41  1  0  0  0  0
 23 42  1  0  0  0  0
 23 43  1  0  0  0  0
 23 44  1  0  0  0  0
 24 45  1  0  0  0  0
 24 46  1  0  0  0  0
 24 47  1  0  0  0  0
 25 48  1  0  0  0  0
 25 49  1  0  0  0  0
 25 50  1  0  0  0  0
 26 51  1  0  0  0  0
 27 28  1  0  0  0  0
 27 52  1  0  0  0  0
 27 53  1  0  0  0  0
M  END
> <PUBCHEM_COMPOUND_CID>
11912948

> <PUBCHEM_CONFORMER_RMSD>
1

> <PUBCHEM_CONFORMER_DIVERSEORDER>
1
106
66
107
47
53
10
102
77
52
54
64
13
34
104
93
69
105
71
103
84
42
79
48
88
92
4
41
97
40
90
75
74
85
80
89
55
86
63
5
96
32
76
65
98
60
23
20
35
11
51
78
17
70
67
83
12
58
26
43
56
19
18
25
33
87
91
37
3
82
46
39
29
38
100
14
99
24
15
50
62
81
49
72
9
94
44
101
59
30
6
16
57
27
95
22
73
21
7
8
2
61
68
36
45
31
28

> <PUBCHEM_MMFF94_PARTIAL_CHARGES>
30
1 -0.46
10 -0.62
11 0.28
12 0.28
13 0.37
14 0.3
15 0.28
16 0.28
17 0.72
18 0.57
19 0.14
2 -0.56
20 0.29
21 0.17
22 -0.15
26 0.16
27 0.29
28 0.66
3 -0.56
37 0.4
38 0.37
4 -0.57
41 0.15
5 -0.65
51 0.15
54 0.5
6 -0.57
7 -0.87
8 -0.73
9 -0.62

> <PUBCHEM_EFFECTIVE_ROTOR_COUNT>
10.2

> <PUBCHEM_PHARMACOPHORE_FEATURES>
14
1 2 acceptor
1 3 acceptor
1 4 acceptor
1 5 acceptor
1 6 acceptor
1 7 donor
1 8 donor
1 9 acceptor
3 5 6 28 anion
4 19 23 24 25 hydrophobe
4 7 9 10 17 cation
5 2 11 12 13 15 rings
5 3 11 12 14 16 rings
6 9 10 17 21 22 26 rings

> <PUBCHEM_HEAVY_ATOM_COUNT>
28

> <PUBCHEM_ATOM_DEF_STEREO_COUNT>
4

> <PUBCHEM_ATOM_UDEF_STEREO_COUNT>
0

> <PUBCHEM_BOND_DEF_STEREO_COUNT>
0

> <PUBCHEM_BOND_UDEF_STEREO_COUNT>
0

> <PUBCHEM_ISOTOPIC_ATOM_COUNT>
0

> <PUBCHEM_COMPONENT_COUNT>
1

> <PUBCHEM_CACTVS_TAUTO_COUNT>
6

> <PUBCHEM_CONFORMER_ID>
00B5C6F400000001

> <PUBCHEM_MMFF94_ENERGY>
75.7349

> <PUBCHEM_FEATURE_SELFOVERLAP>
71.811

> <PUBCHEM_SHAPE_FINGERPRINT>
10042902 136 10159702404280531992
11331351 85 17399786113104494042
12422481 6 16298646336176980662
131258 43 17558256899207876311
13590594 115 16967175514433482370
14187579 7 18272653462861865153
14251764 38 18412825802678054368
14415361 349 16409823673663811807
14739800 52 18261379092606140266
14790565 3 18336831866475275921
14848178 96 18333450945750783382
14950920 106 12324233971199787558
15082195 135 18269822139147922383
15289351 153 18411694427495076432
16067690 210 17845942818370246229
1813 80 13254794655047094658
21033648 144 18127988601167187886
21388113 180 18125159592177619904
21968339 14 17846221094708423836
2838139 119 18410857664058451046
3089732 80 9655312435954794996
312425 83 17988651774250060630
325973 47 18123472940934683008
38570 142 17977689527462628119
393628 179 17912353527774943896
437795 96 17263552705307359696
46194498 28 16844424146838918023
474 4 18042407920219289267
5104073 3 17748829622584055106

> <PUBCHEM_SHAPE_MULTIPOLES>
530.81
14.75
5.11
1.61
8.28
2.61
-0.15
14.5
-5.15
1.98
1.82
-0.72
-0.11
-0.47

> <PUBCHEM_SHAPE_SELFOVERLAP>
1097.143

> <PUBCHEM_SHAPE_VOLUME>
308

> <PUBCHEM_COORDINATE_TYPE>
2
5
10

$$$$
