40724251
  -OEChem-12032416153D

 53 56  0     1  0  0  0  0  0999 V2000
    3.4222   -1.3592   -0.3561 S   0  0  0  0  0  0  0  0  0  0  0  0
    3.5128   -1.7001   -1.7591 O   0  0  0  0  0  0  0  0  0  0  0  0
    2.9074   -2.2932    0.6214 O   0  0  0  0  0  0  0  0  0  0  0  0
   -2.0759    0.8229   -1.8402 O   0  0  0  0  0  0  0  0  0  0  0  0
    2.5785    0.1215   -0.2019 N   0  0  2  0  0  0  0  0  0  0  0  0
   -0.3368    1.3271   -0.3703 N   0  0  0  0  0  0  0  0  0  0  0  0
    1.8883    2.3232   -1.1557 C   0  0  1  0  0  0  0  0  0  0  0  0
    1.5325    1.8641    1.2305 C   0  0  2  0  0  0  0  0  0  0  0  0
    1.9383    2.9457    0.2332 C   0  0  0  0  0  0  0  0  0  0  0  0
    2.8645    1.1394   -1.2528 C   0  0  0  0  0  0  0  0  0  0  0  0
    2.5439    0.7048    1.1726 C   0  0  0  0  0  0  0  0  0  0  0  0
    0.4425    1.9170   -1.4673 C   0  0  0  0  0  0  0  0  0  0  0  0
    0.1312    1.3565    0.9454 C   0  0  0  0  0  0  0  0  0  0  0  0
   -0.6478    0.9180    1.9471 C   0  0  0  0  0  0  0  0  0  0  0  0
   -1.6152    0.8330   -0.6973 C   0  0  0  0  0  0  0  0  0  0  0  0
    5.0274   -0.8298    0.1840 C   0  0  0  0  0  0  0  0  0  0  0  0
   -2.4508    0.3149    0.4423 C   0  0  0  0  0  0  0  0  0  0  0  0
   -1.9547    0.3847    1.6866 C   0  0  0  0  0  0  0  0  0  0  0  0
    6.0269   -1.9741    0.1531 C   0  0  0  0  0  0  0  0  0  0  0  0
   -3.7840   -0.2667    0.2085 C   0  0  0  0  0  0  0  0  0  0  0  0
    7.3976   -1.5282    0.6340 C   0  0  0  0  0  0  0  0  0  0  0  0
   -3.9467   -1.6288   -0.0439 C   0  0  0  0  0  0  0  0  0  0  0  0
   -4.8966    0.5741    0.2422 C   0  0  0  0  0  0  0  0  0  0  0  0
   -5.2218   -2.1503   -0.2627 C   0  0  0  0  0  0  0  0  0  0  0  0
   -2.7776   -2.5596   -0.0877 C   0  0  0  0  0  0  0  0  0  0  0  0
   -6.1718    0.0526    0.0234 C   0  0  0  0  0  0  0  0  0  0  0  0
   -6.3344   -1.3095   -0.2290 C   0  0  0  0  0  0  0  0  0  0  0  0
    2.2007    3.0671   -1.8994 H   0  0  0  0  0  0  0  0  0  0  0  0
    1.5671    2.3010    2.2372 H   0  0  0  0  0  0  0  0  0  0  0  0
    1.2619    3.8074    0.2956 H   0  0  0  0  0  0  0  0  0  0  0  0
    2.9479    3.3136    0.4532 H   0  0  0  0  0  0  0  0  0  0  0  0
    2.7728    0.6873   -2.2460 H   0  0  0  0  0  0  0  0  0  0  0  0
    3.8888    1.5110   -1.1407 H   0  0  0  0  0  0  0  0  0  0  0  0
    3.5300    1.0948    1.4451 H   0  0  0  0  0  0  0  0  0  0  0  0
    2.2646   -0.0669    1.8986 H   0  0  0  0  0  0  0  0  0  0  0  0
   -0.1136    2.8133   -1.7750 H   0  0  0  0  0  0  0  0  0  0  0  0
    0.4102    1.2341   -2.3256 H   0  0  0  0  0  0  0  0  0  0  0  0
   -0.3060    0.9230    2.9768 H   0  0  0  0  0  0  0  0  0  0  0  0
    4.9480   -0.4676    1.2113 H   0  0  0  0  0  0  0  0  0  0  0  0
    5.3671   -0.0223   -0.4691 H   0  0  0  0  0  0  0  0  0  0  0  0
   -2.5154    0.0236    2.5438 H   0  0  0  0  0  0  0  0  0  0  0  0
    5.6761   -2.7997    0.7833 H   0  0  0  0  0  0  0  0  0  0  0  0
    6.1138   -2.3707   -0.8653 H   0  0  0  0  0  0  0  0  0  0  0  0
    7.3524   -1.1624    1.6648 H   0  0  0  0  0  0  0  0  0  0  0  0
    8.1015   -2.3656    0.6018 H   0  0  0  0  0  0  0  0  0  0  0  0
    7.7938   -0.7271    0.0018 H   0  0  0  0  0  0  0  0  0  0  0  0
   -4.7878    1.6385    0.4363 H   0  0  0  0  0  0  0  0  0  0  0  0
   -5.3676   -3.2089   -0.4606 H   0  0  0  0  0  0  0  0  0  0  0  0
   -2.0570   -2.2422   -0.8487 H   0  0  0  0  0  0  0  0  0  0  0  0
   -2.2825   -2.6034    0.8878 H   0  0  0  0  0  0  0  0  0  0  0  0
   -3.0811   -3.5811   -0.3422 H   0  0  0  0  0  0  0  0  0  0  0  0
   -7.0380    0.7072    0.0494 H   0  0  0  0  0  0  0  0  0  0  0  0
   -7.3273   -1.7153   -0.3993 H   0  0  0  0  0  0  0  0  0  0  0  0
  1  2  2  0  0  0  0
  1  3  2  0  0  0  0
  1  5  1  0  0  0  0
  1 16  1  0  0  0  0
  4 15  2  0  0  0  0
  5 10  1  0  0  0  0
  5 11  1  0  0  0  0
  6 12  1  0  0  0  0
  6 13  1  0  0  0  0
  6 15  1  0  0  0  0
  7  9  1  0  0  0  0
  7 10  1  0  0  0  0
  7 12  1  0  0  0  0
  7 28  1  0  0  0  0
  8  9  1  0  0  0  0
  8 11  1  0  0  0  0
  8 13  1  0  0  0  0
  8 29  1  0  0  0  0
  9 30  1  0  0  0  0
  9 31  1  0  0  0  0
 10 32  1  0  0  0  0
 10 33  1  0  0  0  0
 11 34  1  0  0  0  0
 11 35  1  0  0  0  0
 12 36  1  0  0  0  0
 12 37  1  0  0  0  0
 13 14  2  0  0  0  0
 14 18  1  0  0  0  0
 14 38  1  0  0  0  0
 15 17  1  0  0  0  0
 16 19  1  0  0  0  0
 16 39  1  0  0  0  0
 16 40  1  0  0  0  0
 17 18  2  0  0  0  0
 17 20  1  0  0  0  0
 18 41  1  0  0  0  0
 19 21  1  0  0  0  0
 19 42  1  0  0  0  0
 19 43  1  0  0  0  0
 20 22  1  0  0  0  0
 20 23  2  0  0  0  0
 21 44  1  0  0  0  0
 21 45  1  0  0  0  0
 21 46  1  0  0  0  0
 22 24  2  0  0  0  0
 22 25  1  0  0  0  0
 23 26  1  0  0  0  0
 23 47  1  0  0  0  0
 24 27  1  0  0  0  0
 24 48  1  0  0  0  0
 25 49  1  0  0  0  0
 25 50  1  0  0  0  0
 25 51  1  0  0  0  0
 26 27  2  0  0  0  0
 26 52  1  0  0  0  0
 27 53  1  0  0  0  0
M  END
> <PUBCHEM_COMPOUND_CID>
40724251

> <PUBCHEM_CONFORMER_RMSD>
0.8

> <PUBCHEM_CONFORMER_DIVERSEORDER>
2
9
8
11
5
4
12
13
10
7
1
3
6

> <PUBCHEM_MMFF94_PARTIAL_CHARGES>
29
1 1.33
10 0.36
11 0.36
12 0.3
13 -0.03
14 -0.15
15 0.62
16 0.11
17 -0.01
18 -0.15
2 -0.65
20 0.03
22 -0.14
23 -0.15
24 -0.15
25 0.14
26 -0.15
27 -0.15
3 -0.65
38 0.15
4 -0.57
41 0.15
47 0.15
48 0.15
5 -0.85
52 0.15
53 0.15
6 -0.47
8 0.14

> <PUBCHEM_EFFECTIVE_ROTOR_COUNT>
5

> <PUBCHEM_PHARMACOPHORE_FEATURES>
8
1 2 acceptor
1 21 hydrophobe
1 3 acceptor
1 4 acceptor
6 20 22 23 24 26 27 rings
6 5 7 8 9 10 11 rings
6 6 13 14 15 17 18 rings
6 6 7 8 9 12 13 rings

> <PUBCHEM_HEAVY_ATOM_COUNT>
27

> <PUBCHEM_ATOM_DEF_STEREO_COUNT>
2

> <PUBCHEM_ATOM_UDEF_STEREO_COUNT>
0

> <PUBCHEM_BOND_DEF_STEREO_COUNT>
0

> <PUBCHEM_BOND_UDEF_STEREO_COUNT>
0

> <PUBCHEM_ISOTOPIC_ATOM_COUNT>
0

> <PUBCHEM_COMPONENT_COUNT>
1

> <PUBCHEM_CACTVS_TAUTO_COUNT>
3

> <PUBCHEM_CONFORMER_ID>
026D671B00000002

> <PUBCHEM_MMFF94_ENERGY>
62.6775

> <PUBCHEM_FEATURE_SELFOVERLAP>
42.198

> <PUBCHEM_SHAPE_FINGERPRINT>
10670039 82 14851597752777711951
11135609 12 18412256255733831826
11796584 16 18059306464908144295
12107183 9 18268719316454152921
12166972 35 17967817116110620990
12788726 201 17202782487101587625
12892183 10 16414642540848224708
12895836 83 12757158999292431434
13402501 40 18412262826517544566
13533116 47 18271245040686208483
13583140 156 17701817915752905169
14068700 675 18412262822649299912
14251751 18 18411135839914754751
1454969 45 18408611362367355070
14910302 57 18336817689268318789
15183329 4 18187359909900322237
15664445 248 18045227282396436429
17349148 13 15338848607529037661
17492 89 18119250816589549747
17857418 61 18342741836248715047
1813 80 18270412589945913916
19784866 240 18413111649430202249
20028762 73 18341614790024344422
20567600 70 18412824703251024226
20775530 9 18267297621596084334
21033648 29 14333143952975035433
21033650 10 16732975380536634749
21641784 216 14924209522710090607
23559900 14 18341044237519308377
25222932 49 17057236963352372463
2838139 119 8070016762522124978
3004659 81 18408600374759687923
3009799 131 16660649553433157304
338550 245 18338796844220846695
339767 52 18059857246597048162
376196 1 15796538077432479004
4098825 35 17967814929334184988
4280585 95 18259700099669680538
46194498 28 17749107837221229916
463206 1 18334018327778638530
5104073 3 17702956954064608795
559249 180 18411981343620182251
59682541 35 18059845170235689442
633830 44 17023462066591991569
6695519 79 17190119630258481552
7970288 3 18128263294021786622
960060 61 17968386726840666349

> <PUBCHEM_SHAPE_MULTIPOLES>
531.93
14.44
2.9
1.46
1.33
0.16
0.01
12.55
-0.28
1.9
0.31
0.46
-0.6
-0.49

> <PUBCHEM_SHAPE_SELFOVERLAP>
1131.359

> <PUBCHEM_SHAPE_VOLUME>
297.9

> <PUBCHEM_COORDINATE_TYPE>
2
5
10

$$$$
