56774253
  -OEChem-12032416393D

 59 62  0     1  0  0  0  0  0999 V2000
    3.6951    2.3326    0.0684 O   0  0  0  0  0  0  0  0  0  0  0  0
   -3.4040   -0.2078    0.0778 N   0  0  0  0  0  0  0  0  0  0  0  0
    2.4259    2.7830    0.4109 N   0  0  0  0  0  0  0  0  0  0  0  0
   -6.1042   -2.1634    0.0842 N   0  0  0  0  0  0  0  0  0  0  0  0
    5.5928    0.1518   -0.4396 N   0  0  3  0  0  0  0  0  0  0  0  0
   -2.0162    1.6700    0.9181 C   0  0  0  0  0  0  0  0  0  0  0  0
   -0.5307    1.4195    0.5841 C   0  0  1  0  0  0  0  0  0  0  0  0
   -2.2102    0.1410    0.8494 C   0  0  2  0  0  0  0  0  0  0  0  0
   -0.9824    0.1041   -0.0841 C   0  0  0  0  0  0  0  0  0  0  0  0
    0.1510    2.4159   -0.3631 C   0  0  0  0  0  0  0  0  0  0  0  0
   -2.2353    2.3440    2.2556 C   0  0  0  0  0  0  0  0  0  0  0  0
   -2.8152    2.3944   -0.1519 C   0  0  0  0  0  0  0  0  0  0  0  0
    1.5997    2.1689   -0.4407 C   0  0  0  0  0  0  0  0  0  0  0  0
   -4.4750   -0.5986    0.9876 C   0  0  0  0  0  0  0  0  0  0  0  0
    2.2838    1.3273   -1.3348 C   0  0  0  0  0  0  0  0  0  0  0  0
   -5.7628   -0.8666    0.2553 C   0  0  0  0  0  0  0  0  0  0  0  0
    3.5974    1.4663   -0.9724 C   0  0  0  0  0  0  0  0  0  0  0  0
   -6.5207    0.2014   -0.1975 C   0  0  0  0  0  0  0  0  0  0  0  0
    4.8865    0.8753   -1.4782 C   0  0  0  0  0  0  0  0  0  0  0  0
   -7.7054   -0.0799   -0.8690 C   0  0  0  0  0  0  0  0  0  0  0  0
   -7.2622   -2.3979   -0.5730 C   0  0  0  0  0  0  0  0  0  0  0  0
   -8.0904   -1.4017   -1.0644 C   0  0  0  0  0  0  0  0  0  0  0  0
    5.2276   -1.1716   -0.1165 C   0  0  0  0  0  0  0  0  0  0  0  0
    6.6840    0.8030    0.2574 C   0  0  0  0  0  0  0  0  0  0  0  0
    4.1760   -1.7899   -0.7928 C   0  0  0  0  0  0  0  0  0  0  0  0
    5.9181   -1.8620    0.8796 C   0  0  0  0  0  0  0  0  0  0  0  0
    3.8148   -3.0989   -0.4731 C   0  0  0  0  0  0  0  0  0  0  0  0
    5.5569   -3.1709    1.1993 C   0  0  0  0  0  0  0  0  0  0  0  0
    4.5052   -3.7893    0.5230 C   0  0  0  0  0  0  0  0  0  0  0  0
    0.0671    1.2432    1.4920 H   0  0  0  0  0  0  0  0  0  0  0  0
   -2.0486   -0.4083    1.7855 H   0  0  0  0  0  0  0  0  0  0  0  0
   -1.1868    0.1790   -1.1597 H   0  0  0  0  0  0  0  0  0  0  0  0
   -0.3092   -0.7455    0.0704 H   0  0  0  0  0  0  0  0  0  0  0  0
   -0.0155    3.4353    0.0096 H   0  0  0  0  0  0  0  0  0  0  0  0
   -0.2890    2.3816   -1.3669 H   0  0  0  0  0  0  0  0  0  0  0  0
   -1.6996    1.8264    3.0591 H   0  0  0  0  0  0  0  0  0  0  0  0
   -1.8835    3.3815    2.2409 H   0  0  0  0  0  0  0  0  0  0  0  0
   -3.2966    2.3516    2.5274 H   0  0  0  0  0  0  0  0  0  0  0  0
   -2.5157    3.4482   -0.2092 H   0  0  0  0  0  0  0  0  0  0  0  0
   -2.6866    1.9840   -1.1596 H   0  0  0  0  0  0  0  0  0  0  0  0
   -3.8878    2.3981    0.0756 H   0  0  0  0  0  0  0  0  0  0  0  0
   -3.2483   -0.9703   -0.5825 H   0  0  0  0  0  0  0  0  0  0  0  0
   -4.6579    0.1836    1.7356 H   0  0  0  0  0  0  0  0  0  0  0  0
   -4.1868   -1.5023    1.5402 H   0  0  0  0  0  0  0  0  0  0  0  0
    1.8828    0.7104   -2.1254 H   0  0  0  0  0  0  0  0  0  0  0  0
   -6.2135    1.2293   -0.0386 H   0  0  0  0  0  0  0  0  0  0  0  0
    4.7239    0.2702   -2.3778 H   0  0  0  0  0  0  0  0  0  0  0  0
    5.5024    1.7122   -1.8347 H   0  0  0  0  0  0  0  0  0  0  0  0
   -8.3277    0.7294   -1.2389 H   0  0  0  0  0  0  0  0  0  0  0  0
   -7.5173   -3.4449   -0.6995 H   0  0  0  0  0  0  0  0  0  0  0  0
   -9.0097   -1.6444   -1.5849 H   0  0  0  0  0  0  0  0  0  0  0  0
    6.8293    1.8316   -0.0919 H   0  0  0  0  0  0  0  0  0  0  0  0
    7.6305    0.2773    0.0897 H   0  0  0  0  0  0  0  0  0  0  0  0
    6.4847    0.8684    1.3329 H   0  0  0  0  0  0  0  0  0  0  0  0
    3.6021   -1.3140   -1.5788 H   0  0  0  0  0  0  0  0  0  0  0  0
    6.7434   -1.4260    1.4336 H   0  0  0  0  0  0  0  0  0  0  0  0
    2.9966   -3.5815   -0.9998 H   0  0  0  0  0  0  0  0  0  0  0  0
    6.0943   -3.7093    1.9746 H   0  0  0  0  0  0  0  0  0  0  0  0
    4.2242   -4.8084    0.7719 H   0  0  0  0  0  0  0  0  0  0  0  0
  1  3  1  0  0  0  0
  1 17  1  0  0  0  0
  2  8  1  0  0  0  0
  2 14  1  0  0  0  0
  2 42  1  0  0  0  0
  3 13  2  0  0  0  0
  4 16  1  0  0  0  0
  4 21  2  0  0  0  0
  5 19  1  0  0  0  0
  5 23  1  0  0  0  0
  5 24  1  0  0  0  0
  6  7  1  0  0  0  0
  6  8  1  0  0  0  0
  6 11  1  0  0  0  0
  6 12  1  0  0  0  0
  7  9  1  0  0  0  0
  7 10  1  0  0  0  0
  7 30  1  0  0  0  0
  8  9  1  0  0  0  0
  8 31  1  0  0  0  0
  9 32  1  0  0  0  0
  9 33  1  0  0  0  0
 10 13  1  0  0  0  0
 10 34  1  0  0  0  0
 10 35  1  0  0  0  0
 11 36  1  0  0  0  0
 11 37  1  0  0  0  0
 11 38  1  0  0  0  0
 12 39  1  0  0  0  0
 12 40  1  0  0  0  0
 12 41  1  0  0  0  0
 13 15  1  0  0  0  0
 14 16  1  0  0  0  0
 14 43  1  0  0  0  0
 14 44  1  0  0  0  0
 15 17  2  0  0  0  0
 15 45  1  0  0  0  0
 16 18  2  0  0  0  0
 17 19  1  0  0  0  0
 18 20  1  0  0  0  0
 18 46  1  0  0  0  0
 19 47  1  0  0  0  0
 19 48  1  0  0  0  0
 20 22  2  0  0  0  0
 20 49  1  0  0  0  0
 21 22  1  0  0  0  0
 21 50  1  0  0  0  0
 22 51  1  0  0  0  0
 23 25  2  0  0  0  0
 23 26  1  0  0  0  0
 24 52  1  0  0  0  0
 24 53  1  0  0  0  0
 24 54  1  0  0  0  0
 25 27  1  0  0  0  0
 25 55  1  0  0  0  0
 26 28  2  0  0  0  0
 26 56  1  0  0  0  0
 27 29  2  0  0  0  0
 27 57  1  0  0  0  0
 28 29  1  0  0  0  0
 28 58  1  0  0  0  0
 29 59  1  0  0  0  0
M  END
> <PUBCHEM_COMPOUND_CID>
56774253

> <PUBCHEM_CONFORMER_RMSD>
1.2

> <PUBCHEM_CONFORMER_DIVERSEORDER>
2
46
145
108
41
140
78
115
23
127
150
122
119
40
17
151
135
147
31
114
144
65
74
120
64
60
121
34
56
87
33
102
146
148
95
153
76
94
58
38
106
105
67
39
157
28
129
13
61
101
139
159
123
55
69
138
113
51
9
136
149
36
124
88
98
133
16
118
62
155
79
132
26
103
134
80
156
1
35
71
93
89
86
52
99
47
128
85
68
154
4
84
5
45
63
15
158
81
100
92
59
57
143
137
3
97
83
109
110
53
75
20
30
90
107
126
10
91
29
73
141
7
152
8
104
19
130
32
116
50
131
70
11
54
72
66
96
117
43
77
18
125
112
12
21
25
142
82
111
44
6
49
48
14
42
22
24
37
27

> <PUBCHEM_MMFF94_PARTIAL_CHARGES>
35
1 -0.02
10 0.18
13 0.11
14 0.41
15 -0.15
16 0.17
17 -0.04
18 -0.15
19 0.55
2 -0.84
20 -0.15
21 0.16
22 -0.15
23 0.1
24 0.37
25 -0.15
26 -0.15
27 -0.15
28 -0.15
29 -0.15
3 -0.41
4 -0.62
42 0.36
45 0.15
46 0.15
49 0.15
5 -0.84
50 0.15
51 0.15
55 0.15
56 0.15
57 0.15
58 0.15
59 0.15
8 0.21

> <PUBCHEM_EFFECTIVE_ROTOR_COUNT>
8.8

> <PUBCHEM_PHARMACOPHORE_FEATURES>
10
1 2 cation
1 2 donor
1 3 acceptor
1 4 acceptor
1 5 cation
3 6 11 12 hydrophobe
4 6 7 8 9 rings
5 1 3 13 15 17 rings
6 23 25 26 27 28 29 rings
6 4 16 18 20 21 22 rings

> <PUBCHEM_HEAVY_ATOM_COUNT>
29

> <PUBCHEM_ATOM_DEF_STEREO_COUNT>
2

> <PUBCHEM_ATOM_UDEF_STEREO_COUNT>
0

> <PUBCHEM_BOND_DEF_STEREO_COUNT>
0

> <PUBCHEM_BOND_UDEF_STEREO_COUNT>
0

> <PUBCHEM_ISOTOPIC_ATOM_COUNT>
0

> <PUBCHEM_COMPONENT_COUNT>
1

> <PUBCHEM_CACTVS_TAUTO_COUNT>
1

> <PUBCHEM_CONFORMER_ID>
03624E6D00000002

> <PUBCHEM_MMFF94_ENERGY>
85.3782

> <PUBCHEM_FEATURE_SELFOVERLAP>
50.746

> <PUBCHEM_SHAPE_FINGERPRINT>
10 15 10159708997546006949
10693767 8 18334570248398442627
12047536 79 17131822149485745000
12559416 138 18121483680114713622
12838863 1 18115016412949410986
13533116 47 18410295821605075208
1361 2 18409169900619860386
13782708 43 18335420171319002797
13885169 86 9151174255543229487
14251740 57 18058178232966416022
14347332 77 18411982434199276361
14784336 7 18342741805788890521
15119646 104 18410297986558781787
15183329 4 18260831514372546749
15350500 16 17604137131185427626
15475509 35 18272365386984287464
17134984 74 18337958990743456966
17492 89 18121220884023807502
17857418 61 18411426106678899336
19301676 85 18187086105103538651
19841028 212 18261950761370176298
19958102 18 18113899368963561869
20028762 73 18340489959152960262
20156587 161 17701791428511140343
20567600 247 18413108385566358475
21133410 58 18186797015276074147
21315764 119 17603587448026721647
21458453 9 12535342441774646551
21585483 132 17914599786880176015
21703447 108 18130506430907541488
23559900 14 18187928421688991425
25222932 49 18341342123961267374
3504750 166 18124882248484499897
3711267 37 12468630609036841439
397830 11 11527944595618123845
3986486 107 7997400703046586266
4173938 188 18201713003582984152
439807 62 18409166606595397071
474113 269 18341325605148061007
50009960 94 17896589601796654922
5364581 5 10592038081994589807
5718773 13 18411136922235846948
5951187 136 8069736434570864194
59682541 52 18187082879729492303
6697151 62 17703213110289022785
9555976 147 17487058851608863050
96874 4 18412539899411057783

> <PUBCHEM_SHAPE_MULTIPOLES>
571.01
22.45
4.06
1.3
25.9
1.84
0.27
17.97
-3.82
-4.42
0.6
0
-0.34
-2.68

> <PUBCHEM_SHAPE_SELFOVERLAP>
1218.001

> <PUBCHEM_SHAPE_VOLUME>
320

> <PUBCHEM_COORDINATE_TYPE>
2
5
10

$$$$
