11879570
  -OEChem-12032416253D

 64 69  0     1  0  0  0  0  0999 V2000
    3.3176   -1.8068    1.6144 O   0  0  0  0  0  0  0  0  0  0  0  0
    2.7333   -3.2685   -1.1084 O   0  0  0  0  0  0  0  0  0  0  0  0
    2.9916    1.0449    0.5757 O   0  0  0  0  0  0  0  0  0  0  0  0
   -0.5611   -1.2792    1.9532 O   0  0  0  0  0  0  0  0  0  0  0  0
    4.4711   -0.0622   -0.9117 N   0  0  0  0  0  0  0  0  0  0  0  0
    0.0452   -2.8428    0.3616 N   0  0  0  0  0  0  0  0  0  0  0  0
    5.3401    0.2757   -1.8688 N   0  0  0  0  0  0  0  0  0  0  0  0
    4.3849    2.0951   -1.0037 N   0  0  0  0  0  0  0  0  0  0  0  0
   -2.0772   -1.9666    0.2980 N   0  0  0  0  0  0  0  0  0  0  0  0
    5.2836    1.6010   -1.9220 N   0  0  0  0  0  0  0  0  0  0  0  0
   -1.4252    2.6415   -0.4897 N   0  0  0  0  0  0  0  0  0  0  0  0
    2.8025   -1.8867   -0.7120 C   0  0  1  0  0  0  0  0  0  0  0  0
    2.2221   -1.7918    0.6856 C   0  0  1  0  0  0  0  0  0  0  0  0
    4.2519   -1.4668   -0.5568 C   0  0  2  0  0  0  0  0  0  0  0  0
    1.3936   -3.0483    0.8323 C   0  0  2  0  0  0  0  0  0  0  0  0
    4.5578   -1.8214    0.8943 C   0  0  0  0  0  0  0  0  0  0  0  0
    2.1394   -4.0325   -0.0494 C   0  0  0  0  0  0  0  0  0  0  0  0
    3.8929    1.0442   -0.3888 C   0  0  0  0  0  0  0  0  0  0  0  0
   -0.8511   -1.9552    0.9690 C   0  0  0  0  0  0  0  0  0  0  0  0
   -3.2375   -1.2151    0.5972 C   0  0  0  0  0  0  0  0  0  0  0  0
    2.0126    2.0229    0.6833 C   0  0  0  0  0  0  0  0  0  0  0  0
   -4.1306   -0.8293   -0.4053 C   0  0  0  0  0  0  0  0  0  0  0  0
   -3.4455   -0.8797    1.9286 C   0  0  0  0  0  0  0  0  0  0  0  0
    0.8018    1.8321    0.0459 C   0  0  0  0  0  0  0  0  0  0  0  0
    2.2775    3.1582    1.4244 C   0  0  0  0  0  0  0  0  0  0  0  0
   -5.2746   -0.0776   -0.0460 C   0  0  0  0  0  0  0  0  0  0  0  0
   -4.5706   -0.1408    2.2820 C   0  0  0  0  0  0  0  0  0  0  0  0
   -3.9254   -1.1655   -1.7534 C   0  0  0  0  0  0  0  0  0  0  0  0
   -0.1820    2.8149    0.1538 C   0  0  0  0  0  0  0  0  0  0  0  0
   -5.4802    0.2585    1.3021 C   0  0  0  0  0  0  0  0  0  0  0  0
    1.2936    4.1411    1.5323 C   0  0  0  0  0  0  0  0  0  0  0  0
   -6.1796    0.3157   -1.0453 C   0  0  0  0  0  0  0  0  0  0  0  0
    0.0638    3.9695    0.8969 C   0  0  0  0  0  0  0  0  0  0  0  0
   -4.8348   -0.7660   -2.7331 C   0  0  0  0  0  0  0  0  0  0  0  0
   -5.9598   -0.0267   -2.3797 C   0  0  0  0  0  0  0  0  0  0  0  0
   -1.5137    1.8861   -1.7235 C   0  0  0  0  0  0  0  0  0  0  0  0
   -2.6279    3.2282    0.0670 C   0  0  0  0  0  0  0  0  0  0  0  0
    2.2370   -1.3102   -1.4513 H   0  0  0  0  0  0  0  0  0  0  0  0
    1.6560   -0.8809    0.8626 H   0  0  0  0  0  0  0  0  0  0  0  0
    4.9143   -2.0430   -1.2152 H   0  0  0  0  0  0  0  0  0  0  0  0
    1.3336   -3.4061    1.8656 H   0  0  0  0  0  0  0  0  0  0  0  0
    5.2637   -1.1374    1.3750 H   0  0  0  0  0  0  0  0  0  0  0  0
    4.9605   -2.8376    0.9672 H   0  0  0  0  0  0  0  0  0  0  0  0
    2.9557   -4.5108    0.5033 H   0  0  0  0  0  0  0  0  0  0  0  0
    1.5086   -4.8178   -0.4766 H   0  0  0  0  0  0  0  0  0  0  0  0
   -0.2884   -3.3972   -0.4211 H   0  0  0  0  0  0  0  0  0  0  0  0
   -2.0606   -2.4407   -0.5982 H   0  0  0  0  0  0  0  0  0  0  0  0
   -2.7888   -1.2032    2.7290 H   0  0  0  0  0  0  0  0  0  0  0  0
    0.6355    0.9196   -0.5185 H   0  0  0  0  0  0  0  0  0  0  0  0
    3.2340    3.2935    1.9203 H   0  0  0  0  0  0  0  0  0  0  0  0
   -3.0626   -1.7293   -2.0944 H   0  0  0  0  0  0  0  0  0  0  0  0
   -4.7467    0.1182    3.3220 H   0  0  0  0  0  0  0  0  0  0  0  0
   -6.3536    0.8342    1.6013 H   0  0  0  0  0  0  0  0  0  0  0  0
    1.4865    5.0410    2.1090 H   0  0  0  0  0  0  0  0  0  0  0  0
   -7.0655    0.8945   -0.7920 H   0  0  0  0  0  0  0  0  0  0  0  0
   -0.6760    4.7592    0.9913 H   0  0  0  0  0  0  0  0  0  0  0  0
   -4.6633   -1.0295   -3.7728 H   0  0  0  0  0  0  0  0  0  0  0  0
   -6.6668    0.2848   -3.1430 H   0  0  0  0  0  0  0  0  0  0  0  0
   -1.4553    0.8109   -1.5275 H   0  0  0  0  0  0  0  0  0  0  0  0
   -2.4617    2.0753   -2.2394 H   0  0  0  0  0  0  0  0  0  0  0  0
   -0.7140    2.1656   -2.4186 H   0  0  0  0  0  0  0  0  0  0  0  0
   -3.5264    2.7547   -0.3438 H   0  0  0  0  0  0  0  0  0  0  0  0
   -2.6719    3.0953    1.1540 H   0  0  0  0  0  0  0  0  0  0  0  0
   -2.6842    4.2963   -0.1674 H   0  0  0  0  0  0  0  0  0  0  0  0
  1 13  1  0  0  0  0
  1 16  1  0  0  0  0
  2 12  1  0  0  0  0
  2 17  1  0  0  0  0
  3 18  1  0  0  0  0
  3 21  1  0  0  0  0
  4 19  2  0  0  0  0
  5  7  1  0  0  0  0
  5 14  1  0  0  0  0
  5 18  1  0  0  0  0
  6 15  1  0  0  0  0
  6 19  1  0  0  0  0
  6 46  1  0  0  0  0
  7 10  2  0  0  0  0
  8 10  1  0  0  0  0
  8 18  2  0  0  0  0
  9 19  1  0  0  0  0
  9 20  1  0  0  0  0
  9 47  1  0  0  0  0
 11 29  1  0  0  0  0
 11 36  1  0  0  0  0
 11 37  1  0  0  0  0
 12 13  1  0  0  0  0
 12 14  1  0  0  0  0
 12 38  1  0  0  0  0
 13 15  1  0  0  0  0
 13 39  1  0  0  0  0
 14 16  1  0  0  0  0
 14 40  1  0  0  0  0
 15 17  1  0  0  0  0
 15 41  1  0  0  0  0
 16 42  1  0  0  0  0
 16 43  1  0  0  0  0
 17 44  1  0  0  0  0
 17 45  1  0  0  0  0
 20 22  1  0  0  0  0
 20 23  2  0  0  0  0
 21 24  1  0  0  0  0
 21 25  2  0  0  0  0
 22 26  1  0  0  0  0
 22 28  2  0  0  0  0
 23 27  1  0  0  0  0
 23 48  1  0  0  0  0
 24 29  2  0  0  0  0
 24 49  1  0  0  0  0
 25 31  1  0  0  0  0
 25 50  1  0  0  0  0
 26 30  1  0  0  0  0
 26 32  2  0  0  0  0
 27 30  2  0  0  0  0
 27 52  1  0  0  0  0
 28 34  1  0  0  0  0
 28 51  1  0  0  0  0
 29 33  1  0  0  0  0
 30 53  1  0  0  0  0
 31 33  2  0  0  0  0
 31 54  1  0  0  0  0
 32 35  1  0  0  0  0
 32 55  1  0  0  0  0
 33 56  1  0  0  0  0
 34 35  2  0  0  0  0
 34 57  1  0  0  0  0
 35 58  1  0  0  0  0
 36 59  1  0  0  0  0
 36 60  1  0  0  0  0
 36 61  1  0  0  0  0
 37 62  1  0  0  0  0
 37 63  1  0  0  0  0
 37 64  1  0  0  0  0
M  END
> <PUBCHEM_COMPOUND_CID>
11879570

> <PUBCHEM_CONFORMER_RMSD>
1.2

> <PUBCHEM_CONFORMER_DIVERSEORDER>
6
274
133
115
350
177
14
106
116
219
334
328
231
173
34
104
263
255
364
168
287
66
341
325
126
161
83
62
199
266
329
192
276
13
320
22
129
64
68
167
245
307
249
366
339
114
125
150
254
372
252
95
143
370
135
223
28
127
67
165
220
156
189
215
175
229
270
251
218
322
224
302
351
331
314
290
242
12
230
80
204
323
97
141
360
122
158
335
362
96
49
357
269
337
16
2
105
358
124
73
309
332
267
110
36
134
256
170
347
301
284
120
179
131
281
209
57
352
45
82
234
23
246
90
10
159
208
292
63
210
153
15
178
299
182
47
354
271
43
41
149
69
313
355
142
226
194
128
353
279
285
236
180
58
52
174
295
146
74
132
197
333
147
260
198
35
86
258
346
92
71
312
235
11
272
244
85
206
148
81
214
318
42
237
118
303
310
190
213
88
100
356
336
61
130
369
227
48
304
51
140
338
311
277
349
50
181
72
232
37
138
65
172
30
98
166
319
31
183
216
324
200
76
136
5
308
196
38
345
117
44
315
250
342
368
195
243
78
3
26
191
163
371
103
217
111
316
222
145
152
87
253
257
239
247
273
155
203
348
99
280
221
119
108
365
293
344
367
7
112
240
305
265
340
326
238
261
268
18
294
84
248
151
89
187
53
259
70
300
207
137
211
283
157
21
20
201
139
19
296
113
288
17
101
185
298
205
184
212
107
27
202
327
75
56
171
264
225
330
79
363
32
24
94
154
102
93
262
4
25
188
121
8
291
144
59
169
321
233
55
29
176
54
186
286
282
109
39
91
160
9
241
123
297
275
40
164
361
359
343
1
46
317
278
162
77
60
33
289
193
228
306

> <PUBCHEM_MMFF94_PARTIAL_CHARGES>
47
1 -0.56
11 -0.84
12 0.28
13 0.28
14 0.26
15 0.3
16 0.28
17 0.28
18 0.25
19 0.69
2 -0.56
20 0.12
21 0.08
23 -0.15
24 -0.15
25 -0.15
27 -0.15
28 -0.15
29 0.1
3 -0.15
30 -0.15
31 -0.15
32 -0.15
33 -0.15
34 -0.15
35 -0.15
36 0.37
37 0.37
4 -0.57
46 0.37
47 0.37
48 0.15
49 0.15
5 0.31
50 0.15
51 0.15
52 0.15
53 0.15
54 0.15
55 0.15
56 0.15
57 0.15
58 0.15
6 -0.73
7 -0.42
8 -0.34
9 -0.55

> <PUBCHEM_EFFECTIVE_ROTOR_COUNT>
9.2

> <PUBCHEM_PHARMACOPHORE_FEATURES>
13
1 1 acceptor
1 11 cation
1 2 acceptor
1 4 acceptor
1 6 donor
1 9 donor
3 5 8 18 cation
5 1 12 13 14 16 rings
5 2 12 13 15 17 rings
5 5 7 8 10 18 rings
6 20 22 23 26 27 30 rings
6 21 24 25 29 31 33 rings
6 22 26 28 32 34 35 rings

> <PUBCHEM_HEAVY_ATOM_COUNT>
37

> <PUBCHEM_ATOM_DEF_STEREO_COUNT>
4

> <PUBCHEM_ATOM_UDEF_STEREO_COUNT>
0

> <PUBCHEM_BOND_DEF_STEREO_COUNT>
0

> <PUBCHEM_BOND_UDEF_STEREO_COUNT>
0

> <PUBCHEM_ISOTOPIC_ATOM_COUNT>
0

> <PUBCHEM_COMPONENT_COUNT>
1

> <PUBCHEM_CACTVS_TAUTO_COUNT>
3

> <PUBCHEM_CONFORMER_ID>
00B5449200000006

> <PUBCHEM_MMFF94_ENERGY>
125.7858

> <PUBCHEM_FEATURE_SELFOVERLAP>
66.743

> <PUBCHEM_SHAPE_FINGERPRINT>
11513181 2 17984992496241686655
12655364 131 17628901624661821144
12769317 202 18334010601243378994
12788726 201 18338524045109443176
13402501 40 18333735744631332323
13726171 33 16370723729945883813
14114211 80 18122933033427245222
14395042 70 15257535011055424457
14840074 17 18341901783785324791
14931854 50 18336272267028914892
15001296 14 17844512500329527981
15328829 1 17704078413318411803
15968369 153 18341607080304490097
20764821 26 18265615377215413672
21814621 53 15864069840980580656
354706 35 17326587694126901109
3882209 13 17828745262937897442
45266715 3 17982714566279501557
463206 1 18340768229645471055
513532 50 17845646071074360570
86090 222 18264764531541315241

> <PUBCHEM_SHAPE_MULTIPOLES>
703.1
12.93
5.03
2.16
7.89
2.3
0.5
-2.27
5.67
-4.7
-1.4
1.97
-0.05
-0.35

> <PUBCHEM_SHAPE_SELFOVERLAP>
1551.585

> <PUBCHEM_SHAPE_VOLUME>
377.8

> <PUBCHEM_COORDINATE_TYPE>
2
5
10

$$$$
