51138058
  -OEChem-12032416223D

 67 70  0     1  0  0  0  0  0999 V2000
   -2.9139    2.2950   -0.6726 O   0  0  0  0  0  0  0  0  0  0  0  0
   -1.5778   -0.4581   -0.3245 N   0  0  0  0  0  0  0  0  0  0  0  0
    3.1115    0.8963    0.9717 N   0  0  0  0  0  0  0  0  0  0  0  0
   -3.8895    1.0399    1.0280 N   0  0  0  0  0  0  0  0  0  0  0  0
    6.4772    0.2940    0.2609 N   0  0  0  0  0  0  0  0  0  0  0  0
   -7.4309    1.3630   -0.0788 N   0  0  0  0  0  0  0  0  0  0  0  0
   -0.9725   -1.6509    0.2829 C   0  0  2  0  0  0  0  0  0  0  0  0
    0.5236   -1.5552    0.5986 C   0  0  0  0  0  0  0  0  0  0  0  0
   -1.5705    0.7260    0.5225 C   0  0  1  0  0  0  0  0  0  0  0  0
    1.2709   -0.3441    0.6713 C   0  0  0  0  0  0  0  0  0  0  0  0
   -1.2970   -2.7936   -0.6961 C   0  0  0  0  0  0  0  0  0  0  0  0
    0.9402    1.0461    0.5107 C   0  0  0  0  0  0  0  0  0  0  0  0
   -0.3917    1.6412    0.1973 C   0  0  0  0  0  0  0  0  0  0  0  0
    2.6345   -0.3931    0.9835 C   0  0  0  0  0  0  0  0  0  0  0  0
   -2.7481   -3.2738   -0.5952 C   0  0  0  0  0  0  0  0  0  0  0  0
    2.1014    1.7693    0.6946 C   0  0  0  0  0  0  0  0  0  0  0  0
    1.2261   -2.7437    0.9230 C   0  0  0  0  0  0  0  0  0  0  0  0
   -2.8487    1.4417    0.2083 C   0  0  0  0  0  0  0  0  0  0  0  0
    3.3190   -1.5790    1.2543 C   0  0  0  0  0  0  0  0  0  0  0  0
    4.4792    1.2912    1.2331 C   0  0  0  0  0  0  0  0  0  0  0  0
    2.5850   -2.7579    1.2313 C   0  0  0  0  0  0  0  0  0  0  0  0
   -2.9612   -4.4423   -1.5605 C   0  0  0  0  0  0  0  0  0  0  0  0
   -3.7579   -2.1651   -0.8951 C   0  0  0  0  0  0  0  0  0  0  0  0
    5.3976    1.0812    0.0551 C   0  0  0  0  0  0  0  0  0  0  0  0
   -5.2214    1.5939    0.9436 C   0  0  0  0  0  0  0  0  0  0  0  0
   -6.0853    0.8060   -0.0302 C   0  0  0  0  0  0  0  0  0  0  0  0
    5.0997    1.6888   -1.1541 C   0  0  0  0  0  0  0  0  0  0  0  0
    5.9656    1.4744   -2.2207 C   0  0  0  0  0  0  0  0  0  0  0  0
    7.2959    0.1086   -0.7988 C   0  0  0  0  0  0  0  0  0  0  0  0
   -7.4638    2.5612   -0.9201 C   0  0  0  0  0  0  0  0  0  0  0  0
   -8.3838    0.3686   -0.5758 C   0  0  0  0  0  0  0  0  0  0  0  0
    7.0868    0.6704   -2.0480 C   0  0  0  0  0  0  0  0  0  0  0  0
   -1.4736   -1.8583    1.2384 H   0  0  0  0  0  0  0  0  0  0  0  0
   -1.5609    0.4674    1.5899 H   0  0  0  0  0  0  0  0  0  0  0  0
   -0.6695   -3.6724   -0.5223 H   0  0  0  0  0  0  0  0  0  0  0  0
   -1.0635   -2.4933   -1.7284 H   0  0  0  0  0  0  0  0  0  0  0  0
   -0.3944    1.9249   -0.8646 H   0  0  0  0  0  0  0  0  0  0  0  0
   -0.5019    2.5786    0.7601 H   0  0  0  0  0  0  0  0  0  0  0  0
   -1.1626   -0.2626   -1.2347 H   0  0  0  0  0  0  0  0  0  0  0  0
   -2.9347   -3.6447    0.4207 H   0  0  0  0  0  0  0  0  0  0  0  0
    2.2771    2.8363    0.6517 H   0  0  0  0  0  0  0  0  0  0  0  0
    0.7057   -3.6973    0.9740 H   0  0  0  0  0  0  0  0  0  0  0  0
    4.3755   -1.5940    1.4982 H   0  0  0  0  0  0  0  0  0  0  0  0
    4.8280    0.7317    2.1090 H   0  0  0  0  0  0  0  0  0  0  0  0
    4.4863    2.3514    1.5140 H   0  0  0  0  0  0  0  0  0  0  0  0
    3.0732   -3.6998    1.4669 H   0  0  0  0  0  0  0  0  0  0  0  0
   -2.8046   -4.1338   -2.5999 H   0  0  0  0  0  0  0  0  0  0  0  0
   -3.9791   -4.8375   -1.4750 H   0  0  0  0  0  0  0  0  0  0  0  0
   -2.2696   -5.2628   -1.3414 H   0  0  0  0  0  0  0  0  0  0  0  0
   -3.5107   -1.6154   -1.8090 H   0  0  0  0  0  0  0  0  0  0  0  0
   -3.8514   -1.4762   -0.0545 H   0  0  0  0  0  0  0  0  0  0  0  0
   -4.7584   -2.5909   -1.0373 H   0  0  0  0  0  0  0  0  0  0  0  0
   -3.7293    0.3111    1.7173 H   0  0  0  0  0  0  0  0  0  0  0  0
   -5.1295    2.6444    0.6512 H   0  0  0  0  0  0  0  0  0  0  0  0
   -5.6456    1.5599    1.9534 H   0  0  0  0  0  0  0  0  0  0  0  0
   -5.6232    0.7580   -1.0253 H   0  0  0  0  0  0  0  0  0  0  0  0
   -6.1202   -0.2293    0.3360 H   0  0  0  0  0  0  0  0  0  0  0  0
    4.2312    2.3244   -1.2850 H   0  0  0  0  0  0  0  0  0  0  0  0
    5.7684    1.9348   -3.1841 H   0  0  0  0  0  0  0  0  0  0  0  0
    8.1558   -0.5262   -0.6122 H   0  0  0  0  0  0  0  0  0  0  0  0
   -6.8282    3.3566   -0.5195 H   0  0  0  0  0  0  0  0  0  0  0  0
   -8.4786    2.9747   -0.9515 H   0  0  0  0  0  0  0  0  0  0  0  0
   -7.1516    2.3535   -1.9503 H   0  0  0  0  0  0  0  0  0  0  0  0
   -9.3990    0.7808   -0.5896 H   0  0  0  0  0  0  0  0  0  0  0  0
   -8.1349    0.0284   -1.5876 H   0  0  0  0  0  0  0  0  0  0  0  0
   -8.4120   -0.5043    0.0861 H   0  0  0  0  0  0  0  0  0  0  0  0
    7.7756    0.4897   -2.8653 H   0  0  0  0  0  0  0  0  0  0  0  0
  1 18  2  0  0  0  0
  2  7  1  0  0  0  0
  2  9  1  0  0  0  0
  2 39  1  0  0  0  0
  3 14  1  0  0  0  0
  3 16  1  0  0  0  0
  3 20  1  0  0  0  0
  4 18  1  0  0  0  0
  4 25  1  0  0  0  0
  4 53  1  0  0  0  0
  5 24  1  0  0  0  0
  5 29  2  0  0  0  0
  6 26  1  0  0  0  0
  6 30  1  0  0  0  0
  6 31  1  0  0  0  0
  7  8  1  0  0  0  0
  7 11  1  0  0  0  0
  7 33  1  0  0  0  0
  8 10  2  0  0  0  0
  8 17  1  0  0  0  0
  9 13  1  0  0  0  0
  9 18  1  0  0  0  0
  9 34  1  0  0  0  0
 10 12  1  0  0  0  0
 10 14  1  0  0  0  0
 11 15  1  0  0  0  0
 11 35  1  0  0  0  0
 11 36  1  0  0  0  0
 12 13  1  0  0  0  0
 12 16  2  0  0  0  0
 13 37  1  0  0  0  0
 13 38  1  0  0  0  0
 14 19  2  0  0  0  0
 15 22  1  0  0  0  0
 15 23  1  0  0  0  0
 15 40  1  0  0  0  0
 16 41  1  0  0  0  0
 17 21  2  0  0  0  0
 17 42  1  0  0  0  0
 19 21  1  0  0  0  0
 19 43  1  0  0  0  0
 20 24  1  0  0  0  0
 20 44  1  0  0  0  0
 20 45  1  0  0  0  0
 21 46  1  0  0  0  0
 22 47  1  0  0  0  0
 22 48  1  0  0  0  0
 22 49  1  0  0  0  0
 23 50  1  0  0  0  0
 23 51  1  0  0  0  0
 23 52  1  0  0  0  0
 24 27  2  0  0  0  0
 25 26  1  0  0  0  0
 25 54  1  0  0  0  0
 25 55  1  0  0  0  0
 26 56  1  0  0  0  0
 26 57  1  0  0  0  0
 27 28  1  0  0  0  0
 27 58  1  0  0  0  0
 28 32  2  0  0  0  0
 28 59  1  0  0  0  0
 29 32  1  0  0  0  0
 29 60  1  0  0  0  0
 30 61  1  0  0  0  0
 30 62  1  0  0  0  0
 30 63  1  0  0  0  0
 31 64  1  0  0  0  0
 31 65  1  0  0  0  0
 31 66  1  0  0  0  0
 32 67  1  0  0  0  0
M  END
> <PUBCHEM_COMPOUND_CID>
51138058

> <PUBCHEM_CONFORMER_RMSD>
1.2

> <PUBCHEM_CONFORMER_DIVERSEORDER>
1
59
96
45
50
76
93
87
7
63
44
38
105
86
67
104
21
30
113
22
80
70
39
74
117
32
83
81
77
48
15
14
2
61
69
79
107
41
51
123
34
115
95
88
5
120
54
98
110
122
72
116
18
85
8
121
10
103
66
17
60
82
16
36
92
99
65
114
109
112
6
42
24
100
101
84
52
55
27
47
26
75
78
40
12
62
106
119
31
13
33
19
46
29
28
111
43
23
58
94
3
20
71
73
56
90
53
68
64
49
97
118
102
4
108
25
35
11
37
91
89
9
57

> <PUBCHEM_MMFF94_PARTIAL_CHARGES>
37
1 -0.57
12 -0.18
13 0.18
14 -0.15
16 -0.3
17 -0.15
18 0.57
19 -0.15
2 -0.9
20 0.4
21 -0.15
24 0.17
25 0.3
26 0.27
27 -0.15
28 -0.15
29 0.16
3 0.05
30 0.27
31 0.27
32 -0.15
39 0.36
4 -0.73
41 0.15
42 0.15
43 0.15
46 0.15
5 -0.62
53 0.37
58 0.15
59 0.15
6 -0.81
60 0.15
67 0.15
7 0.41
8 -0.14
9 0.33

> <PUBCHEM_EFFECTIVE_ROTOR_COUNT>
9.8

> <PUBCHEM_PHARMACOPHORE_FEATURES>
12
1 1 acceptor
1 2 cation
1 2 donor
1 3 cation
1 4 donor
1 5 acceptor
1 6 cation
3 15 22 23 hydrophobe
5 3 10 12 14 16 rings
6 5 24 27 28 29 32 rings
6 8 10 14 17 19 21 rings
7 2 7 8 9 10 12 13 rings

> <PUBCHEM_HEAVY_ATOM_COUNT>
32

> <PUBCHEM_ATOM_DEF_STEREO_COUNT>
2

> <PUBCHEM_ATOM_UDEF_STEREO_COUNT>
0

> <PUBCHEM_BOND_DEF_STEREO_COUNT>
0

> <PUBCHEM_BOND_UDEF_STEREO_COUNT>
0

> <PUBCHEM_ISOTOPIC_ATOM_COUNT>
0

> <PUBCHEM_COMPONENT_COUNT>
1

> <PUBCHEM_CACTVS_TAUTO_COUNT>
2

> <PUBCHEM_CONFORMER_ID>
030C4E0A00000001

> <PUBCHEM_MMFF94_ENERGY>
74.0118

> <PUBCHEM_FEATURE_SELFOVERLAP>
61.027

> <PUBCHEM_SHAPE_FINGERPRINT>
10190108 129 18191321570175314123
11578080 2 13190599664533055212
12954195 1 18200881772212376602
13540713 4 17701527639844743624
13540713 5 18263625368897509602
13617811 41 18333455326570907620
13782708 43 16772675592920271550
14294032 229 18260824869847598589
1454969 45 18259706688038996005
14790565 3 18334863848399723480
14840074 17 17967814959324888541
15131766 46 16371868420482105516
15183329 4 17846226531720347416
15629462 23 16199885998319717747
16752209 62 18264207084211120538
19319366 153 18186801340270913010
21583282 1 18114193998940180886
22393880 68 18271239521553071554
23576562 1 18191030195130310877
244849 19 16772941657780748962
25147074 1 18334282176726589858
350125 39 18411129230350463523
3610482 184 18115888437164547140
45377200 153 16773222007950554743
5486654 2 18342736304552747873
563151 40 18410019852782356363
59755656 215 18130793351812300156
59755656 520 18342737421001365805

> <PUBCHEM_SHAPE_MULTIPOLES>
627.77
19.68
3.89
1.51
10.06
4.36
-0.53
-14.37
-8.73
4.51
-1.02
-2.04
0.12
-2.27

> <PUBCHEM_SHAPE_SELFOVERLAP>
1333.072

> <PUBCHEM_SHAPE_VOLUME>
351.1

> <PUBCHEM_COORDINATE_TYPE>
2
5
10

$$$$
