11884481
  -OEChem-12032416113D

 61 65  0     1  0  0  0  0  0999 V2000
   -0.3668    2.8292    1.5178 O   0  0  0  0  0  0  0  0  0  0  0  0
   -3.9265   -0.7587    2.6117 O   0  0  0  0  0  0  0  0  0  0  0  0
    2.5348    0.5341   -1.8214 O   0  0  0  0  0  0  0  0  0  0  0  0
    5.0227    0.7747   -0.8266 O   0  0  0  0  0  0  0  0  0  0  0  0
    0.8193   -2.1561    0.4210 O   0  0  0  0  0  0  0  0  0  0  0  0
    0.6748   -3.5580   -1.3623 O   0  0  0  0  0  0  0  0  0  0  0  0
   -4.4791    0.1795    0.5406 N   0  0  0  0  0  0  0  0  0  0  0  0
   -2.0682    2.1816    0.0530 N   0  0  0  0  0  0  0  0  0  0  0  0
    1.5980    1.6647   -0.0102 N   0  0  0  0  0  0  0  0  0  0  0  0
   -4.5427    2.6671    0.5043 C   0  0  1  0  0  0  0  0  0  0  0  0
   -3.8863    1.4307   -1.5209 C   0  0  2  0  0  0  0  0  0  0  0  0
   -4.6798    2.6340   -1.0140 C   0  0  0  0  0  0  0  0  0  0  0  0
   -5.0977    1.3706    1.1219 C   0  0  0  0  0  0  0  0  0  0  0  0
   -3.0683    2.8919    0.8627 C   0  0  0  0  0  0  0  0  0  0  0  0
   -4.4789    0.1352   -0.9306 C   0  0  0  0  0  0  0  0  0  0  0  0
   -2.4223    1.5428   -1.1399 C   0  0  0  0  0  0  0  0  0  0  0  0
   -1.4753    1.0001   -1.9235 C   0  0  0  0  0  0  0  0  0  0  0  0
   -0.7290    2.2641    0.4849 C   0  0  0  0  0  0  0  0  0  0  0  0
   -3.9293   -0.7903    1.3824 C   0  0  0  0  0  0  0  0  0  0  0  0
    0.2926    1.6226   -0.4024 C   0  0  0  0  0  0  0  0  0  0  0  0
   -0.0914    1.0414   -1.5438 C   0  0  0  0  0  0  0  0  0  0  0  0
   -3.2758   -1.9476    0.7626 C   0  0  0  0  0  0  0  0  0  0  0  0
   -1.9161   -1.8994    0.4660 C   0  0  0  0  0  0  0  0  0  0  0  0
   -4.0192   -3.0886    0.4718 C   0  0  0  0  0  0  0  0  0  0  0  0
    2.6406    1.1173   -0.7454 C   0  0  0  0  0  0  0  0  0  0  0  0
   -1.2955   -2.9997   -0.1253 C   0  0  0  0  0  0  0  0  0  0  0  0
   -3.3985   -4.1888   -0.1197 C   0  0  0  0  0  0  0  0  0  0  0  0
   -2.0367   -4.1444   -0.4182 C   0  0  0  0  0  0  0  0  0  0  0  0
    3.9735    1.3208   -0.0556 C   0  0  0  0  0  0  0  0  0  0  0  0
    0.1246   -2.9547   -0.4351 C   0  0  0  0  0  0  0  0  0  0  0  0
    6.1331    0.3291   -0.1492 C   0  0  0  0  0  0  0  0  0  0  0  0
    6.4945    0.9361    1.0455 C   0  0  0  0  0  0  0  0  0  0  0  0
    6.8760   -0.7212   -0.6704 C   0  0  0  0  0  0  0  0  0  0  0  0
    7.6209    0.4840    1.7327 C   0  0  0  0  0  0  0  0  0  0  0  0
    8.0025   -1.1733    0.0168 C   0  0  0  0  0  0  0  0  0  0  0  0
    8.3751   -0.5708    1.2184 C   0  0  0  0  0  0  0  0  0  0  0  0
   -5.1271    3.5029    0.9082 H   0  0  0  0  0  0  0  0  0  0  0  0
   -3.9843    1.3910   -2.6136 H   0  0  0  0  0  0  0  0  0  0  0  0
   -5.7347    2.5463   -1.3013 H   0  0  0  0  0  0  0  0  0  0  0  0
   -4.3021    3.5642   -1.4567 H   0  0  0  0  0  0  0  0  0  0  0  0
   -6.1745    1.2960    0.9269 H   0  0  0  0  0  0  0  0  0  0  0  0
   -4.9679    1.3836    2.2093 H   0  0  0  0  0  0  0  0  0  0  0  0
   -2.8905    2.6606    1.9205 H   0  0  0  0  0  0  0  0  0  0  0  0
   -2.8378    3.9597    0.7448 H   0  0  0  0  0  0  0  0  0  0  0  0
   -5.5244    0.0240   -1.2437 H   0  0  0  0  0  0  0  0  0  0  0  0
   -3.9411   -0.7364   -1.3113 H   0  0  0  0  0  0  0  0  0  0  0  0
   -1.7292    0.4880   -2.8460 H   0  0  0  0  0  0  0  0  0  0  0  0
    0.5248    0.5472   -2.2759 H   0  0  0  0  0  0  0  0  0  0  0  0
    1.8033    2.1281    0.8713 H   0  0  0  0  0  0  0  0  0  0  0  0
   -1.3549   -0.9989    0.7013 H   0  0  0  0  0  0  0  0  0  0  0  0
   -5.0808   -3.1328    0.6998 H   0  0  0  0  0  0  0  0  0  0  0  0
   -3.9756   -5.0803   -0.3474 H   0  0  0  0  0  0  0  0  0  0  0  0
   -1.5679   -5.0113   -0.8764 H   0  0  0  0  0  0  0  0  0  0  0  0
    4.1358    2.3971    0.0734 H   0  0  0  0  0  0  0  0  0  0  0  0
    3.8880    0.8328    0.9247 H   0  0  0  0  0  0  0  0  0  0  0  0
    1.7748   -2.1278    0.2004 H   0  0  0  0  0  0  0  0  0  0  0  0
    5.9497    1.7763    1.4647 H   0  0  0  0  0  0  0  0  0  0  0  0
    6.5886   -1.1927   -1.6056 H   0  0  0  0  0  0  0  0  0  0  0  0
    7.9149    0.9568    2.6652 H   0  0  0  0  0  0  0  0  0  0  0  0
    8.5898   -1.9944   -0.3839 H   0  0  0  0  0  0  0  0  0  0  0  0
    9.2530   -0.9219    1.7527 H   0  0  0  0  0  0  0  0  0  0  0  0
  1 18  2  0  0  0  0
  2 19  2  0  0  0  0
  3 25  2  0  0  0  0
  4 29  1  0  0  0  0
  4 31  1  0  0  0  0
  5 30  1  0  0  0  0
  5 56  1  0  0  0  0
  6 30  2  0  0  0  0
  7 13  1  0  0  0  0
  7 15  1  0  0  0  0
  7 19  1  0  0  0  0
  8 14  1  0  0  0  0
  8 16  1  0  0  0  0
  8 18  1  0  0  0  0
  9 20  1  0  0  0  0
  9 25  1  0  0  0  0
  9 49  1  0  0  0  0
 10 12  1  0  0  0  0
 10 13  1  0  0  0  0
 10 14  1  0  0  0  0
 10 37  1  0  0  0  0
 11 12  1  0  0  0  0
 11 15  1  0  0  0  0
 11 16  1  0  0  0  0
 11 38  1  0  0  0  0
 12 39  1  0  0  0  0
 12 40  1  0  0  0  0
 13 41  1  0  0  0  0
 13 42  1  0  0  0  0
 14 43  1  0  0  0  0
 14 44  1  0  0  0  0
 15 45  1  0  0  0  0
 15 46  1  0  0  0  0
 16 17  2  0  0  0  0
 17 21  1  0  0  0  0
 17 47  1  0  0  0  0
 18 20  1  0  0  0  0
 19 22  1  0  0  0  0
 20 21  2  0  0  0  0
 21 48  1  0  0  0  0
 22 23  2  0  0  0  0
 22 24  1  0  0  0  0
 23 26  1  0  0  0  0
 23 50  1  0  0  0  0
 24 27  2  0  0  0  0
 24 51  1  0  0  0  0
 25 29  1  0  0  0  0
 26 28  2  0  0  0  0
 26 30  1  0  0  0  0
 27 28  1  0  0  0  0
 27 52  1  0  0  0  0
 28 53  1  0  0  0  0
 29 54  1  0  0  0  0
 29 55  1  0  0  0  0
 31 32  2  0  0  0  0
 31 33  1  0  0  0  0
 32 34  1  0  0  0  0
 32 57  1  0  0  0  0
 33 35  2  0  0  0  0
 33 58  1  0  0  0  0
 34 36  2  0  0  0  0
 34 59  1  0  0  0  0
 35 36  1  0  0  0  0
 35 60  1  0  0  0  0
 36 61  1  0  0  0  0
M  END
> <PUBCHEM_COMPOUND_CID>
11884481

> <PUBCHEM_CONFORMER_RMSD>
1

> <PUBCHEM_CONFORMER_DIVERSEORDER>
1
142
54
112
129
88
114
84
56
36
38
83
135
92
86
109
119
52
67
144
40
132
140
20
123
61
104
99
125
37
60
34
74
128
32
30
90
121
81
139
62
29
103
134
5
110
69
46
115
89
147
95
85
102
82
43
96
126
68
113
53
70
78
111
18
28
124
45
50
80
105
77
47
122
55
33
136
2
35
7
93
130
57
138
91
106
24
107
3
11
58
131
76
16
133
48
143
71
146
97
145
49
44
31
141
65
64
59
94
39
98
79
4
15
100
63
117
66
116
118
21
17
75
72
87
25
27
8
12
127
41
101
6
137
42
9
73
51
23
10
19
22
13
120
108
26
14

> <PUBCHEM_MMFF94_PARTIAL_CHARGES>
47
1 -0.57
11 0.14
13 0.3
14 0.3
15 0.3
16 -0.03
17 -0.15
18 0.62
19 0.54
2 -0.57
20 0.12
21 -0.15
22 0.09
23 -0.15
24 -0.15
25 0.57
26 0.09
27 -0.15
28 -0.15
29 0.34
3 -0.57
30 0.63
31 0.08
32 -0.15
33 -0.15
34 -0.15
35 -0.15
36 -0.15
4 -0.36
47 0.15
48 0.15
49 0.37
5 -0.65
50 0.15
51 0.15
52 0.15
53 0.15
56 0.5
57 0.15
58 0.15
59 0.15
6 -0.57
60 0.15
61 0.15
7 -0.66
8 -0.47
9 -0.54

> <PUBCHEM_EFFECTIVE_ROTOR_COUNT>
9

> <PUBCHEM_PHARMACOPHORE_FEATURES>
13
1 1 acceptor
1 2 acceptor
1 3 acceptor
1 4 acceptor
1 5 acceptor
1 6 acceptor
1 9 donor
3 5 6 30 anion
6 22 23 24 26 27 28 rings
6 31 32 33 34 35 36 rings
6 7 10 11 12 13 15 rings
6 8 10 11 12 14 16 rings
6 8 16 17 18 20 21 rings

> <PUBCHEM_HEAVY_ATOM_COUNT>
36

> <PUBCHEM_ATOM_DEF_STEREO_COUNT>
2

> <PUBCHEM_ATOM_UDEF_STEREO_COUNT>
0

> <PUBCHEM_BOND_DEF_STEREO_COUNT>
0

> <PUBCHEM_BOND_UDEF_STEREO_COUNT>
0

> <PUBCHEM_ISOTOPIC_ATOM_COUNT>
0

> <PUBCHEM_COMPONENT_COUNT>
1

> <PUBCHEM_CACTVS_TAUTO_COUNT>
2

> <PUBCHEM_CONFORMER_ID>
00B557C100000001

> <PUBCHEM_MMFF94_ENERGY>
114.0196

> <PUBCHEM_FEATURE_SELFOVERLAP>
67.621

> <PUBCHEM_SHAPE_FINGERPRINT>
10675989 125 17326042954671628597
10864689 126 18050014294494504478
11135926 11 18338513019965720485
11524674 6 18342453729420532702
12422481 6 18334863814130084510
12712778 12 18411140268052345860
14725015 67 18267302230533589331
14866123 147 18336829787632567979
14904385 31 18270391695019825970
15021287 119 17167865283495692164
15183329 4 15719390642711832624
15320294 125 18186523215109989678
15348495 7 18271520992398845496
15439362 3 17975691685129092245
21987440 362 17754170877819405732
244849 19 17631473210591463846
3383291 50 18412823611833614631
373842 8 18265892450653200538
392239 28 18272098231006691080
397830 11 18269827774757353768
4073 2 18342168978523218496
484985 159 18335413625678262327
5080951 261 18116409562589348036
5085150 59 18413387627176029486
513202 73 18041279983948964871

> <PUBCHEM_SHAPE_MULTIPOLES>
690.7
17.94
4.76
1.64
51.1
4.73
-0.17
-1.04
-5.83
-7.28
0.19
-0.47
-0.4
0.69

> <PUBCHEM_SHAPE_SELFOVERLAP>
1518.04

> <PUBCHEM_SHAPE_VOLUME>
364.7

> <PUBCHEM_COORDINATE_TYPE>
2
5
10

$$$$
