75367690
  -OEChem-12032416403D

 46 48  0     1  0  0  0  0  0999 V2000
   -6.0555    0.7197    0.6201 S   0  0  0  0  0  0  0  0  0  0  0  0
    0.9044   -3.5162   -0.6019 O   0  0  0  0  0  0  0  0  0  0  0  0
   -0.5409   -0.2559   -1.2471 O   0  0  0  0  0  0  0  0  0  0  0  0
    4.7493   -1.3338    1.3372 O   0  0  0  0  0  0  0  0  0  0  0  0
    5.1153    2.1490   -0.8789 O   0  0  0  0  0  0  0  0  0  0  0  0
   -6.5975   -0.5217    1.1556 O   0  0  0  0  0  0  0  0  0  0  0  0
   -6.0426    1.9185    1.4462 O   0  0  0  0  0  0  0  0  0  0  0  0
    2.4960   -1.1600    0.7164 N   0  0  0  0  0  0  0  0  0  0  0  0
    5.0572    0.7814   -0.6397 N   0  0  0  0  0  0  0  0  0  0  0  0
    0.2397   -1.1718   -0.4778 C   0  0  2  0  0  0  0  0  0  0  0  0
    1.4302   -0.3821    0.0736 C   0  0  0  0  0  0  0  0  0  0  0  0
    2.1728   -2.4939    1.2255 C   0  0  0  0  0  0  0  0  0  0  0  0
    0.6546   -2.3417   -1.3677 C   0  0  0  0  0  0  0  0  0  0  0  0
    2.1439   -3.5181    0.0983 C   0  0  0  0  0  0  0  0  0  0  0  0
    3.8192   -0.7035    0.8352 C   0  0  0  0  0  0  0  0  0  0  0  0
   -1.8187   -0.0297   -0.8155 C   0  0  0  0  0  0  0  0  0  0  0  0
    4.1434    0.6377    0.3243 C   0  0  0  0  0  0  0  0  0  0  0  0
   -2.7241   -1.0875   -0.7313 C   0  0  0  0  0  0  0  0  0  0  0  0
   -2.2165    1.2588   -0.4591 C   0  0  0  0  0  0  0  0  0  0  0  0
   -4.4250    0.4319    0.0652 C   0  0  0  0  0  0  0  0  0  0  0  0
   -4.0272   -0.8568   -0.2909 C   0  0  0  0  0  0  0  0  0  0  0  0
   -3.5197    1.4897   -0.0189 C   0  0  0  0  0  0  0  0  0  0  0  0
    3.5964    1.8677    0.7289 C   0  0  0  0  0  0  0  0  0  0  0  0
    4.2411    2.7852   -0.0579 C   0  0  0  0  0  0  0  0  0  0  0  0
   -6.9686    1.0864   -0.8615 C   0  0  0  0  0  0  0  0  0  0  0  0
    4.1727    4.2467   -0.1783 C   0  0  0  0  0  0  0  0  0  0  0  0
   -0.3338   -1.5585    0.3759 H   0  0  0  0  0  0  0  0  0  0  0  0
    1.8609    0.2121   -0.7407 H   0  0  0  0  0  0  0  0  0  0  0  0
    1.0659    0.3391    0.8159 H   0  0  0  0  0  0  0  0  0  0  0  0
    1.2231   -2.4450    1.7682 H   0  0  0  0  0  0  0  0  0  0  0  0
    2.9429   -2.7914    1.9455 H   0  0  0  0  0  0  0  0  0  0  0  0
    1.5178   -2.0973   -1.9989 H   0  0  0  0  0  0  0  0  0  0  0  0
   -0.1624   -2.5882   -2.0550 H   0  0  0  0  0  0  0  0  0  0  0  0
    2.9728   -3.3859   -0.6070 H   0  0  0  0  0  0  0  0  0  0  0  0
    2.2429   -4.5185    0.5329 H   0  0  0  0  0  0  0  0  0  0  0  0
   -2.4330   -2.0951   -1.0147 H   0  0  0  0  0  0  0  0  0  0  0  0
   -1.5152    2.0864   -0.5235 H   0  0  0  0  0  0  0  0  0  0  0  0
   -4.7182   -1.6935   -0.2404 H   0  0  0  0  0  0  0  0  0  0  0  0
   -3.8093    2.5023    0.2472 H   0  0  0  0  0  0  0  0  0  0  0  0
    2.8490    2.0643    1.4834 H   0  0  0  0  0  0  0  0  0  0  0  0
   -8.0056    1.2825   -0.5807 H   0  0  0  0  0  0  0  0  0  0  0  0
   -6.5376    1.9710   -1.3342 H   0  0  0  0  0  0  0  0  0  0  0  0
   -6.9205    0.2256   -1.5311 H   0  0  0  0  0  0  0  0  0  0  0  0
    5.1464    4.6968    0.0385 H   0  0  0  0  0  0  0  0  0  0  0  0
    3.8777    4.5360   -1.1916 H   0  0  0  0  0  0  0  0  0  0  0  0
    3.4421    4.6669    0.5201 H   0  0  0  0  0  0  0  0  0  0  0  0
  1  6  2  0  0  0  0
  1  7  2  0  0  0  0
  1 20  1  0  0  0  0
  1 25  1  0  0  0  0
  2 13  1  0  0  0  0
  2 14  1  0  0  0  0
  3 10  1  0  0  0  0
  3 16  1  0  0  0  0
  4 15  2  0  0  0  0
  5  9  1  0  0  0  0
  5 24  1  0  0  0  0
  8 11  1  0  0  0  0
  8 12  1  0  0  0  0
  8 15  1  0  0  0  0
  9 17  2  0  0  0  0
 10 11  1  0  0  0  0
 10 13  1  0  0  0  0
 10 27  1  0  0  0  0
 11 28  1  0  0  0  0
 11 29  1  0  0  0  0
 12 14  1  0  0  0  0
 12 30  1  0  0  0  0
 12 31  1  0  0  0  0
 13 32  1  0  0  0  0
 13 33  1  0  0  0  0
 14 34  1  0  0  0  0
 14 35  1  0  0  0  0
 15 17  1  0  0  0  0
 16 18  2  0  0  0  0
 16 19  1  0  0  0  0
 17 23  1  0  0  0  0
 18 21  1  0  0  0  0
 18 36  1  0  0  0  0
 19 22  2  0  0  0  0
 19 37  1  0  0  0  0
 20 21  2  0  0  0  0
 20 22  1  0  0  0  0
 21 38  1  0  0  0  0
 22 39  1  0  0  0  0
 23 24  2  0  0  0  0
 23 40  1  0  0  0  0
 24 26  1  0  0  0  0
 25 41  1  0  0  0  0
 25 42  1  0  0  0  0
 25 43  1  0  0  0  0
 26 44  1  0  0  0  0
 26 45  1  0  0  0  0
 26 46  1  0  0  0  0
M  END
> <PUBCHEM_COMPOUND_CID>
75367690

> <PUBCHEM_CONFORMER_RMSD>
1

> <PUBCHEM_CONFORMER_DIVERSEORDER>
1
143
148
67
80
122
145
95
54
52
105
131
75
55
120
150
135
61
33
153
83
86
39
129
13
76
108
125
89
111
154
149
146
115
30
47
87
113
112
45
90
152
53
151
26
81
35
140
139
85
142
116
136
127
24
29
77
27
31
37
128
36
107
106
74
11
49
133
155
72
84
101
17
56
32
132
9
63
7
91
25
48
43
22
3
119
5
103
42
50
121
97
102
98
79
130
15
141
70
144
18
40
44
147
92
66
137
109
69
34
104
51
93
20
124
19
123
2
64
117
68
118
134
58
38
14
8
16
60
73
96
41
114
6
126
28
46
110
4
12
138
71
82
99
65
94
78
10
88
21
57
62
100
59
23

> <PUBCHEM_MMFF94_PARTIAL_CHARGES>
31
1 1.2
10 0.28
11 0.3
12 0.3
13 0.28
14 0.28
15 0.72
16 0.08
17 0.2
18 -0.15
19 -0.15
2 -0.56
20 -0.01
21 -0.15
22 -0.15
23 -0.15
24 -0.04
25 0.11
26 0.18
3 -0.36
36 0.15
37 0.15
38 0.15
39 0.15
4 -0.57
40 0.15
5 -0.02
6 -0.65
7 -0.65
8 -0.66
9 -0.41

> <PUBCHEM_EFFECTIVE_ROTOR_COUNT>
6.4

> <PUBCHEM_PHARMACOPHORE_FEATURES>
9
1 2 acceptor
1 3 acceptor
1 4 acceptor
1 6 acceptor
1 7 acceptor
1 9 acceptor
5 5 9 17 23 24 rings
6 16 18 19 20 21 22 rings
7 2 8 10 11 12 13 14 rings

> <PUBCHEM_HEAVY_ATOM_COUNT>
26

> <PUBCHEM_ATOM_DEF_STEREO_COUNT>
1

> <PUBCHEM_ATOM_UDEF_STEREO_COUNT>
0

> <PUBCHEM_BOND_DEF_STEREO_COUNT>
0

> <PUBCHEM_BOND_UDEF_STEREO_COUNT>
0

> <PUBCHEM_ISOTOPIC_ATOM_COUNT>
0

> <PUBCHEM_COMPONENT_COUNT>
1

> <PUBCHEM_CACTVS_TAUTO_COUNT>
1

> <PUBCHEM_CONFORMER_ID>
047E050A00000001

> <PUBCHEM_MMFF94_ENERGY>
66.9596

> <PUBCHEM_FEATURE_SELFOVERLAP>
45.696

> <PUBCHEM_SHAPE_FINGERPRINT>
10165383 225 17894918460365535780
10378564 45 10663819646610270707
10670039 82 16415209927118086041
10674148 151 18202012045229656212
10835480 77 18262511495510713517
10904742 90 18335986471479140980
12596602 18 18186802478985216665
12616971 3 18340193142214685126
12788726 201 17203053967842342537
13583140 156 17751620079541251543
13955234 65 18335983060779404714
14251764 75 18265899244895687332
14341114 328 18410853261442691931
14347332 77 8286201643880430879
1454969 45 18270396230737470791
146900 427 18335701658542175264
14790565 3 18268712877643950597
14840074 17 18260830440335519213
14849402 71 18261108600293789488
14955137 171 18263350410061166794
15142526 21 18261953067355547002
151778 21 18410566302003688716
15183329 4 10809345521226575427
15475509 35 16009573687147747720
16126227 98 18122066674416254324
17349148 13 12685091454147574815
17857418 61 7781515910704629705
18222031 100 11963390713436618114
18785283 64 18338232661801871254
20465049 17 18340216219749096062
20626108 58 11314303945216262758
21250096 35 8718835301254493230
21365058 113 17840886083227232270
21716022 299 14762687879770295868
21756936 100 18199460155491297246
21859007 373 17097199547141357685
23559900 14 17985844644108488455
23569914 152 9797196573578357505
23845131 108 18188205511050834602
245318 6 17897738784083048556
2637199 183 18412263961063468462
3178227 256 18260825961217405242
38570 142 18336559317110851044
394071 54 18336836312151886949
397830 11 18041289841842928049
437795 163 18196081361045466759
5104073 3 18114454664858325594
57527585 21 17118872394309038724
633830 44 18272085037172976982

> <PUBCHEM_SHAPE_MULTIPOLES>
493.74
15.79
3.98
1.17
19.34
0.3
-0.09
11.1
-3.23
-6.74
0.22
0.29
-0.25
-1.34

> <PUBCHEM_SHAPE_SELFOVERLAP>
1031.081

> <PUBCHEM_SHAPE_VOLUME>
280.9

> <PUBCHEM_COORDINATE_TYPE>
2
5
10

$$$$
