38027879
  -OEChem-12032416143D

 69 70  0     1  0  0  0  0  0999 V2000
   -2.3874    2.2959    2.2342 O   0  0  0  0  0  0  0  0  0  0  0  0
    2.5278   -0.8018   -2.1288 O   0  0  0  0  0  0  0  0  0  0  0  0
    3.4367   -2.3176   -0.0981 O   0  0  0  0  0  0  0  0  0  0  0  0
   -4.5390   -2.8111   -1.8923 O   0  0  0  0  0  0  0  0  0  0  0  0
    4.3384   -5.1716    1.8759 O   0  0  0  0  0  0  0  0  0  0  0  0
    3.3656   -5.0390   -0.1793 O   0  0  0  0  0  0  0  0  0  0  0  0
    3.0488    1.1828   -1.0298 N   0  0  0  0  0  0  0  0  0  0  0  0
   -1.2578    0.2903    2.5541 N   0  0  0  0  0  0  0  0  0  0  0  0
    0.2202    2.1941   -1.1695 C   0  0  1  0  0  0  0  0  0  0  0  0
    1.4973    3.0028   -1.5083 C   0  0  1  0  0  0  0  0  0  0  0  0
   -0.7077    3.0135   -0.2595 C   0  0  0  0  0  0  0  0  0  0  0  0
   -0.0219    3.4180    1.0591 C   0  0  2  0  0  0  0  0  0  0  0  0
   -0.5354    1.7685   -2.4323 C   0  0  0  0  0  0  0  0  0  0  0  0
    1.3646    3.9817    0.8229 C   0  0  0  0  0  0  0  0  0  0  0  0
    2.0224    3.7973   -0.3356 C   0  0  0  0  0  0  0  0  0  0  0  0
    2.6054    2.0884   -2.0429 C   0  0  0  0  0  0  0  0  0  0  0  0
    0.0237    2.2423    2.0413 C   0  0  0  0  0  0  0  0  0  0  0  0
   -1.3859    0.5335   -2.1528 C   0  0  0  0  0  0  0  0  0  0  0  0
   -1.3994    2.9153   -2.9471 C   0  0  0  0  0  0  0  0  0  0  0  0
    1.9603    4.8019    1.9332 C   0  0  0  0  0  0  0  0  0  0  0  0
   -1.3457    1.6473    2.2798 C   0  0  0  0  0  0  0  0  0  0  0  0
    2.9745   -0.2043   -1.1534 C   0  0  0  0  0  0  0  0  0  0  0  0
   -2.4115   -0.5364    2.8246 C   0  0  0  0  0  0  0  0  0  0  0  0
    3.5152   -0.9178    0.0673 C   0  0  0  0  0  0  0  0  0  0  0  0
   -2.9764   -1.1402    1.5713 C   0  0  0  0  0  0  0  0  0  0  0  0
   -4.2939   -0.8714    1.2002 C   0  0  0  0  0  0  0  0  0  0  0  0
   -2.1840   -1.9703    0.7785 C   0  0  0  0  0  0  0  0  0  0  0  0
    3.9395   -3.0157    1.0374 C   0  0  0  0  0  0  0  0  0  0  0  0
   -4.8187   -1.4327    0.0361 C   0  0  0  0  0  0  0  0  0  0  0  0
   -2.7090   -2.5319   -0.3854 C   0  0  0  0  0  0  0  0  0  0  0  0
   -4.0265   -2.2630   -0.7566 C   0  0  0  0  0  0  0  0  0  0  0  0
    3.8337   -4.4984    0.8114 C   0  0  0  0  0  0  0  0  0  0  0  0
   -3.6738   -3.6504   -2.6557 C   0  0  0  0  0  0  0  0  0  0  0  0
    0.5086    1.2892   -0.6205 H   0  0  0  0  0  0  0  0  0  0  0  0
    1.2707    3.7334   -2.2951 H   0  0  0  0  0  0  0  0  0  0  0  0
   -1.6508    2.4908   -0.0851 H   0  0  0  0  0  0  0  0  0  0  0  0
   -0.9757    3.9606   -0.7471 H   0  0  0  0  0  0  0  0  0  0  0  0
   -0.6414    4.2113    1.5009 H   0  0  0  0  0  0  0  0  0  0  0  0
    0.1688    1.4931   -3.2241 H   0  0  0  0  0  0  0  0  0  0  0  0
    2.9962    4.2652   -0.4671 H   0  0  0  0  0  0  0  0  0  0  0  0
    3.4789    2.6843   -2.3344 H   0  0  0  0  0  0  0  0  0  0  0  0
    2.2898    1.5412   -2.9352 H   0  0  0  0  0  0  0  0  0  0  0  0
    0.3974    2.5713    3.0187 H   0  0  0  0  0  0  0  0  0  0  0  0
    0.7156    1.4711    1.6809 H   0  0  0  0  0  0  0  0  0  0  0  0
   -2.1509    0.7190   -1.3929 H   0  0  0  0  0  0  0  0  0  0  0  0
   -0.7621   -0.2999   -1.8125 H   0  0  0  0  0  0  0  0  0  0  0  0
   -1.8999    0.2076   -3.0637 H   0  0  0  0  0  0  0  0  0  0  0  0
   -2.2835    3.1006   -2.3280 H   0  0  0  0  0  0  0  0  0  0  0  0
   -1.7825    2.6576   -3.9424 H   0  0  0  0  0  0  0  0  0  0  0  0
   -0.8388    3.8474   -3.0646 H   0  0  0  0  0  0  0  0  0  0  0  0
    1.2912    5.6274    2.1967 H   0  0  0  0  0  0  0  0  0  0  0  0
    2.9253    5.2372    1.6523 H   0  0  0  0  0  0  0  0  0  0  0  0
    2.1235    4.1872    2.8234 H   0  0  0  0  0  0  0  0  0  0  0  0
    3.4902    1.5701   -0.2005 H   0  0  0  0  0  0  0  0  0  0  0  0
   -0.3475   -0.1603    2.5670 H   0  0  0  0  0  0  0  0  0  0  0  0
   -3.1625    0.0670    3.3470 H   0  0  0  0  0  0  0  0  0  0  0  0
   -2.0978   -1.3340    3.5073 H   0  0  0  0  0  0  0  0  0  0  0  0
    4.5590   -0.6158    0.2114 H   0  0  0  0  0  0  0  0  0  0  0  0
    2.9226   -0.6096    0.9368 H   0  0  0  0  0  0  0  0  0  0  0  0
   -4.9228   -0.2257    1.8072 H   0  0  0  0  0  0  0  0  0  0  0  0
   -1.1568   -2.1902    1.0580 H   0  0  0  0  0  0  0  0  0  0  0  0
    4.9935   -2.7585    1.1860 H   0  0  0  0  0  0  0  0  0  0  0  0
    3.3468   -2.7535    1.9201 H   0  0  0  0  0  0  0  0  0  0  0  0
   -5.8455   -1.2192   -0.2483 H   0  0  0  0  0  0  0  0  0  0  0  0
   -2.0386   -3.1668   -0.9544 H   0  0  0  0  0  0  0  0  0  0  0  0
    4.2822   -6.1435    1.7546 H   0  0  0  0  0  0  0  0  0  0  0  0
   -4.2441   -3.9989   -3.5230 H   0  0  0  0  0  0  0  0  0  0  0  0
   -3.3749   -4.5401   -2.0910 H   0  0  0  0  0  0  0  0  0  0  0  0
   -2.8124   -3.0947   -3.0417 H   0  0  0  0  0  0  0  0  0  0  0  0
  1 21  2  0  0  0  0
  2 22  2  0  0  0  0
  3 24  1  0  0  0  0
  3 28  1  0  0  0  0
  4 31  1  0  0  0  0
  4 33  1  0  0  0  0
  5 32  1  0  0  0  0
  5 66  1  0  0  0  0
  6 32  2  0  0  0  0
  7 16  1  0  0  0  0
  7 22  1  0  0  0  0
  7 54  1  0  0  0  0
  8 21  1  0  0  0  0
  8 23  1  0  0  0  0
  8 55  1  0  0  0  0
  9 10  1  0  0  0  0
  9 11  1  0  0  0  0
  9 13  1  0  0  0  0
  9 34  1  0  0  0  0
 10 15  1  0  0  0  0
 10 16  1  0  0  0  0
 10 35  1  0  0  0  0
 11 12  1  0  0  0  0
 11 36  1  0  0  0  0
 11 37  1  0  0  0  0
 12 14  1  0  0  0  0
 12 17  1  0  0  0  0
 12 38  1  0  0  0  0
 13 18  1  0  0  0  0
 13 19  1  0  0  0  0
 13 39  1  0  0  0  0
 14 15  2  0  0  0  0
 14 20  1  0  0  0  0
 15 40  1  0  0  0  0
 16 41  1  0  0  0  0
 16 42  1  0  0  0  0
 17 21  1  0  0  0  0
 17 43  1  0  0  0  0
 17 44  1  0  0  0  0
 18 45  1  0  0  0  0
 18 46  1  0  0  0  0
 18 47  1  0  0  0  0
 19 48  1  0  0  0  0
 19 49  1  0  0  0  0
 19 50  1  0  0  0  0
 20 51  1  0  0  0  0
 20 52  1  0  0  0  0
 20 53  1  0  0  0  0
 22 24  1  0  0  0  0
 23 25  1  0  0  0  0
 23 56  1  0  0  0  0
 23 57  1  0  0  0  0
 24 58  1  0  0  0  0
 24 59  1  0  0  0  0
 25 26  2  0  0  0  0
 25 27  1  0  0  0  0
 26 29  1  0  0  0  0
 26 60  1  0  0  0  0
 27 30  2  0  0  0  0
 27 61  1  0  0  0  0
 28 32  1  0  0  0  0
 28 62  1  0  0  0  0
 28 63  1  0  0  0  0
 29 31  2  0  0  0  0
 29 64  1  0  0  0  0
 30 31  1  0  0  0  0
 30 65  1  0  0  0  0
 33 67  1  0  0  0  0
 33 68  1  0  0  0  0
 33 69  1  0  0  0  0
M  END
> <PUBCHEM_COMPOUND_CID>
38027879

> <PUBCHEM_CONFORMER_RMSD>
1.2

> <PUBCHEM_CONFORMER_DIVERSEORDER>
1
44
67
31
92
69
61
55
89
93
75
49
20
45
24
53
35
52
81
83
80
16
94
84
74
97
47
22
77
79
51
33
82
70
87
23
90
40
26
38
85
100
34
48
78
19
62
66
43
10
36
96
17
60
68
15
29
91
28
86
12
11
30
59
58
37
18
50
88
13
32
72
71
9
25
54
27
46
21
63
76
3
6
8
39
5
7
64
56
42
73
65
98
2
14
57
99
41
95
4

> <PUBCHEM_MMFF94_PARTIAL_CHARGES>
36
1 -0.57
10 0.14
12 0.14
14 -0.28
15 -0.29
16 0.3
17 0.06
2 -0.57
20 0.14
21 0.57
22 0.57
23 0.44
24 0.34
25 -0.14
26 -0.15
27 -0.15
28 0.34
29 -0.15
3 -0.56
30 -0.15
31 0.08
32 0.66
33 0.28
4 -0.36
40 0.15
5 -0.65
54 0.37
55 0.37
6 -0.57
60 0.15
61 0.15
64 0.15
65 0.15
66 0.5
7 -0.73
8 -0.73

> <PUBCHEM_EFFECTIVE_ROTOR_COUNT>
14.8

> <PUBCHEM_PHARMACOPHORE_FEATURES>
12
1 1 acceptor
1 2 acceptor
1 3 acceptor
1 4 acceptor
1 5 acceptor
1 6 acceptor
1 7 donor
1 8 donor
3 13 18 19 hydrophobe
3 5 6 32 anion
6 25 26 27 29 30 31 rings
6 9 10 11 12 14 15 rings

> <PUBCHEM_HEAVY_ATOM_COUNT>
33

> <PUBCHEM_ATOM_DEF_STEREO_COUNT>
3

> <PUBCHEM_ATOM_UDEF_STEREO_COUNT>
0

> <PUBCHEM_BOND_DEF_STEREO_COUNT>
0

> <PUBCHEM_BOND_UDEF_STEREO_COUNT>
0

> <PUBCHEM_ISOTOPIC_ATOM_COUNT>
0

> <PUBCHEM_COMPONENT_COUNT>
1

> <PUBCHEM_CACTVS_TAUTO_COUNT>
4

> <PUBCHEM_CONFORMER_ID>
0244426700000001

> <PUBCHEM_MMFF94_ENERGY>
70.2575

> <PUBCHEM_FEATURE_SELFOVERLAP>
60.967

> <PUBCHEM_SHAPE_FINGERPRINT>
11285246 1 17604702244878751159
12156800 1 17535990477741059193
13165053 137 16097394699878068043
14251757 17 17096087029830070237
14674994 50 17902504892221429796
19315092 285 17841977077860779711
20775530 9 18336552620824345570
35225 105 17833299448288783149

> <PUBCHEM_SHAPE_MULTIPOLES>
633.95
8.52
7.71
3.29
10.49
21.1
-0.29
-3.57
-2.43
-6.77
3.61
0.9
-2.02
-0.54

> <PUBCHEM_SHAPE_SELFOVERLAP>
1295.261

> <PUBCHEM_SHAPE_VOLUME>
364.5

> <PUBCHEM_COORDINATE_TYPE>
2
5
10

$$$$
