11886263
  -OEChem-12032416373D

 59 64  0     1  0  0  0  0  0999 V2000
   -8.0669    4.0949    0.1136 F   0  0  0  0  0  0  0  0  0  0  0  0
  -10.0424    3.2432    0.3893 F   0  0  0  0  0  0  0  0  0  0  0  0
   -9.0674    3.1153   -1.5502 F   0  0  0  0  0  0  0  0  0  0  0  0
   -0.6077   -3.4684    0.4561 O   0  0  0  0  0  0  0  0  0  0  0  0
   -0.3709   -1.7266   -2.1518 O   0  0  0  0  0  0  0  0  0  0  0  0
    3.9197   -0.7906   -0.2972 O   0  0  0  0  0  0  0  0  0  0  0  0
   -4.7709   -2.3575    0.4217 O   0  0  0  0  0  0  0  0  0  0  0  0
    1.8392   -1.3015    0.7247 N   0  0  0  0  0  0  0  0  0  0  0  0
   -3.2415   -1.4247   -1.0399 N   0  0  0  0  0  0  0  0  0  0  0  0
    1.2365   -1.0558    1.8963 N   0  0  0  0  0  0  0  0  0  0  0  0
    3.2632   -0.1274    1.8632 N   0  0  0  0  0  0  0  0  0  0  0  0
    2.1124   -0.3378    2.5887 N   0  0  0  0  0  0  0  0  0  0  0  0
   -5.1582   -0.2568   -0.5518 N   0  0  0  0  0  0  0  0  0  0  0  0
    8.9300    1.6167   -0.1479 N   0  0  0  0  0  0  0  0  0  0  0  0
    9.1194    2.8801   -0.5578 N   0  0  0  0  0  0  0  0  0  0  0  0
   11.0690    1.9308    0.1707 N   0  0  0  0  0  0  0  0  0  0  0  0
   -0.1453   -1.4672   -0.7542 C   0  0  1  0  0  0  0  0  0  0  0  0
   -1.1994   -2.2346    0.0197 C   0  0  1  0  0  0  0  0  0  0  0  0
    1.1730   -2.0807   -0.3222 C   0  0  2  0  0  0  0  0  0  0  0  0
   -2.2861   -2.5052   -0.9964 C   0  0  2  0  0  0  0  0  0  0  0  0
    0.7761   -3.4967    0.0808 C   0  0  0  0  0  0  0  0  0  0  0  0
   -1.5018   -2.5977   -2.2921 C   0  0  0  0  0  0  0  0  0  0  0  0
    3.0727   -0.7326    0.7135 C   0  0  0  0  0  0  0  0  0  0  0  0
   -4.4379   -1.4304   -0.3127 C   0  0  0  0  0  0  0  0  0  0  0  0
   -6.4099    0.1190   -0.0107 C   0  0  0  0  0  0  0  0  0  0  0  0
    5.1704   -0.1897   -0.2600 C   0  0  0  0  0  0  0  0  0  0  0  0
   -6.9859    1.3389   -0.3649 C   0  0  0  0  0  0  0  0  0  0  0  0
   -7.0682   -0.7312    0.8779 C   0  0  0  0  0  0  0  0  0  0  0  0
    6.2724   -0.9015    0.2139 C   0  0  0  0  0  0  0  0  0  0  0  0
    5.3253    1.1261   -0.6965 C   0  0  0  0  0  0  0  0  0  0  0  0
   -8.2202    1.7086    0.1695 C   0  0  0  0  0  0  0  0  0  0  0  0
   -8.3025   -0.3616    1.4121 C   0  0  0  0  0  0  0  0  0  0  0  0
    7.5293   -0.2977    0.2513 C   0  0  0  0  0  0  0  0  0  0  0  0
    6.5820    1.7300   -0.6590 C   0  0  0  0  0  0  0  0  0  0  0  0
    7.6840    1.0180   -0.1851 C   0  0  0  0  0  0  0  0  0  0  0  0
   -8.8784    0.8584    1.0579 C   0  0  0  0  0  0  0  0  0  0  0  0
   -8.8359    3.0130   -0.2089 C   0  0  0  0  0  0  0  0  0  0  0  0
   10.0935    1.0595    0.2833 C   0  0  0  0  0  0  0  0  0  0  0  0
   10.4294    3.0216   -0.3450 C   0  0  0  0  0  0  0  0  0  0  0  0
   -0.2120   -0.3836   -0.6120 H   0  0  0  0  0  0  0  0  0  0  0  0
   -1.5445   -1.7039    0.9129 H   0  0  0  0  0  0  0  0  0  0  0  0
    1.8869   -2.1319   -1.1528 H   0  0  0  0  0  0  0  0  0  0  0  0
   -2.8224   -3.4407   -0.8046 H   0  0  0  0  0  0  0  0  0  0  0  0
    0.8651   -4.1803   -0.7706 H   0  0  0  0  0  0  0  0  0  0  0  0
    1.3676   -3.9003    0.9082 H   0  0  0  0  0  0  0  0  0  0  0  0
   -1.1154   -3.6114   -2.4454 H   0  0  0  0  0  0  0  0  0  0  0  0
   -2.0752   -2.3091   -3.1783 H   0  0  0  0  0  0  0  0  0  0  0  0
   -3.0056   -0.5923   -1.5718 H   0  0  0  0  0  0  0  0  0  0  0  0
   -4.7396    0.4132   -1.1921 H   0  0  0  0  0  0  0  0  0  0  0  0
   -6.4754    2.0045   -1.0574 H   0  0  0  0  0  0  0  0  0  0  0  0
   -6.6873   -1.6900    1.2001 H   0  0  0  0  0  0  0  0  0  0  0  0
    6.1577   -1.9271    0.5545 H   0  0  0  0  0  0  0  0  0  0  0  0
    4.4706    1.6853   -1.0675 H   0  0  0  0  0  0  0  0  0  0  0  0
   -8.8160   -1.0229    2.1042 H   0  0  0  0  0  0  0  0  0  0  0  0
    8.3498   -0.8986    0.6292 H   0  0  0  0  0  0  0  0  0  0  0  0
    6.6603    2.7563   -1.0082 H   0  0  0  0  0  0  0  0  0  0  0  0
   -9.8403    1.1288    1.4847 H   0  0  0  0  0  0  0  0  0  0  0  0
   10.2144    0.0552    0.6638 H   0  0  0  0  0  0  0  0  0  0  0  0
   10.9337    3.9489   -0.5724 H   0  0  0  0  0  0  0  0  0  0  0  0
  1 37  1  0  0  0  0
  2 37  1  0  0  0  0
  3 37  1  0  0  0  0
  4 18  1  0  0  0  0
  4 21  1  0  0  0  0
  5 17  1  0  0  0  0
  5 22  1  0  0  0  0
  6 23  1  0  0  0  0
  6 26  1  0  0  0  0
  7 24  2  0  0  0  0
  8 10  1  0  0  0  0
  8 19  1  0  0  0  0
  8 23  1  0  0  0  0
  9 20  1  0  0  0  0
  9 24  1  0  0  0  0
  9 48  1  0  0  0  0
 10 12  2  0  0  0  0
 11 12  1  0  0  0  0
 11 23  2  0  0  0  0
 13 24  1  0  0  0  0
 13 25  1  0  0  0  0
 13 49  1  0  0  0  0
 14 15  1  0  0  0  0
 14 35  1  0  0  0  0
 14 38  1  0  0  0  0
 15 39  2  0  0  0  0
 16 38  2  0  0  0  0
 16 39  1  0  0  0  0
 17 18  1  0  0  0  0
 17 19  1  0  0  0  0
 17 40  1  0  0  0  0
 18 20  1  0  0  0  0
 18 41  1  0  0  0  0
 19 21  1  0  0  0  0
 19 42  1  0  0  0  0
 20 22  1  0  0  0  0
 20 43  1  0  0  0  0
 21 44  1  0  0  0  0
 21 45  1  0  0  0  0
 22 46  1  0  0  0  0
 22 47  1  0  0  0  0
 25 27  1  0  0  0  0
 25 28  2  0  0  0  0
 26 29  2  0  0  0  0
 26 30  1  0  0  0  0
 27 31  2  0  0  0  0
 27 50  1  0  0  0  0
 28 32  1  0  0  0  0
 28 51  1  0  0  0  0
 29 33  1  0  0  0  0
 29 52  1  0  0  0  0
 30 34  2  0  0  0  0
 30 53  1  0  0  0  0
 31 36  1  0  0  0  0
 31 37  1  0  0  0  0
 32 36  2  0  0  0  0
 32 54  1  0  0  0  0
 33 35  2  0  0  0  0
 33 55  1  0  0  0  0
 34 35  1  0  0  0  0
 34 56  1  0  0  0  0
 36 57  1  0  0  0  0
 38 58  1  0  0  0  0
 39 59  1  0  0  0  0
M  END
> <PUBCHEM_COMPOUND_CID>
11886263

> <PUBCHEM_CONFORMER_RMSD>
1.4

> <PUBCHEM_CONFORMER_DIVERSEORDER>
1
75
69
97
184
32
70
130
161
194
34
197
183
173
151
152
166
177
61
59
162
73
65
52
124
163
122
24
58
27
44
121
204
140
94
76
188
72
158
189
176
55
138
178
180
48
5
192
78
171
35
93
82
33
142
110
86
118
174
106
105
165
102
11
37
74
60
170
36
203
119
103
31
190
131
96
22
50
109
187
185
175
45
83
15
51
146
4
167
123
159
54
125
186
42
157
79
108
129
201
12
62
153
134
64
145
182
135
84
30
148
147
49
195
71
46
39
104
117
160
132
205
43
57
198
128
196
40
47
17
28
168
100
107
126
141
56
16
115
85
68
149
150
112
23
99
114
154
21
164
136
156
98
41
116
95
191
53
193
20
13
111
2
91
169
88
8
181
80
7
6
133
92
200
63
137
202
87
199
155
101
66
113
120
81
172
3
67
38
10
9
14
90
89
18
144
25
26
143
127
77
19
139
179
29

> <PUBCHEM_MMFF94_PARTIAL_CHARGES>
50
1 -0.34
10 -0.42
11 -0.34
13 -0.55
14 0.59
15 -0.71
16 -0.57
17 0.28
18 0.28
19 0.26
2 -0.34
20 0.3
21 0.28
22 0.28
23 0.25
24 0.69
25 0.12
26 0.08
27 -0.15
28 -0.15
29 -0.15
3 -0.34
30 -0.15
31 -0.14
32 -0.15
33 -0.15
34 -0.15
35 -0.02
36 -0.15
37 1.16
38 0.04
39 0.37
4 -0.56
48 0.37
49 0.37
5 -0.56
50 0.15
51 0.15
52 0.15
53 0.15
54 0.15
55 0.15
56 0.15
57 0.15
58 0.15
59 0.15
6 -0.15
7 -0.57
8 0.31
9 -0.73

> <PUBCHEM_EFFECTIVE_ROTOR_COUNT>
10.2

> <PUBCHEM_PHARMACOPHORE_FEATURES>
14
1 13 donor
1 4 acceptor
1 5 acceptor
1 7 acceptor
1 9 donor
3 14 16 38 cation
3 15 16 39 cation
3 8 11 23 cation
5 14 15 16 38 39 rings
5 4 17 18 19 21 rings
5 5 17 18 20 22 rings
5 8 10 11 12 23 rings
6 25 27 28 31 32 36 rings
6 26 29 30 33 34 35 rings

> <PUBCHEM_HEAVY_ATOM_COUNT>
39

> <PUBCHEM_ATOM_DEF_STEREO_COUNT>
4

> <PUBCHEM_ATOM_UDEF_STEREO_COUNT>
0

> <PUBCHEM_BOND_DEF_STEREO_COUNT>
0

> <PUBCHEM_BOND_UDEF_STEREO_COUNT>
0

> <PUBCHEM_ISOTOPIC_ATOM_COUNT>
0

> <PUBCHEM_COMPONENT_COUNT>
1

> <PUBCHEM_CACTVS_TAUTO_COUNT>
3

> <PUBCHEM_CONFORMER_ID>
00B55EB700000001

> <PUBCHEM_MMFF94_ENERGY>
95.8613

> <PUBCHEM_FEATURE_SELFOVERLAP>
74.541

> <PUBCHEM_SHAPE_FINGERPRINT>
10190206 1 17417820517428112433
10533779 47 16660629754150920968
10625338 86 18335989693041612569
10952577 141 18272370880136520303
11135609 99 8430311333817711122
11607047 141 18115303351230108010
11607047 74 10159109763741466058
11621639 179 18131066018111695544
11621639 336 18266740186576018864
12838862 33 15913328010173348678
13383668 90 12463573955513827609
13530399 1 18337956813807662900
13974486 7 7925330911154305257
14201967 126 18409729573434587461
15183329 4 16415485960471880954
15198563 99 15051466993655086490
15347590 135 15430028855608889268
15350500 55 18339358566509381823
15890870 6 18342175553622140201
19302320 297 18187649132930022292
19303781 99 7925620078453502595
19315958 150 18342462530521094566
2026 5 9583519819934938229
20721686 146 18342739581570278965
21095123 293 18409731785373587900
21360443 89 9007063448893184876
21362267 313 18411694410721162224
21585482 111 18409448047376484229
21781055 127 18336533990073809642
22149856 69 15068900789874336767
23516275 100 18193838138223845677
23528940 14 9078848364211773244
23569943 247 8213839507182528141
23576562 1 15984243266356393777
24771293 8 18335138721700919127
2835820 83 9223221954357056181
2851757 41 9655568626564841061
3383291 50 12107798380844640169
3633792 109 18343306994754804126
3711267 37 18336838545002462405
3918712 181 18411699842757967513
3986486 107 16343705434773607537
437795 150 13901607677057158205
44426699 302 18412825756077862938
4516262 110 18343302530891248999
54039377 194 9007053565798987633
6201320 82 18058742299674962617
6698420 124 18113338631003448058
9689198 14 18335424568922713691

> <PUBCHEM_SHAPE_MULTIPOLES>
712.47
40.58
4.18
1.45
16.12
1.57
0.15
55.08
1.57
-5.49
-1.1
-0.84
-0.6
-0.59

> <PUBCHEM_SHAPE_SELFOVERLAP>
1574.168

> <PUBCHEM_SHAPE_VOLUME>
385.5

> <PUBCHEM_COORDINATE_TYPE>
2
5
10

$$$$
