40777064
  -OEChem-12032416183D

 59 63  0     1  0  0  0  0  0999 V2000
    7.0922    2.6533    0.0347 S   0  0  0  0  0  0  0  0  0  0  0  0
   -8.5971    1.2552   -0.5743 F   0  0  0  0  0  0  0  0  0  0  0  0
   -7.8587    2.8868    0.6586 F   0  0  0  0  0  0  0  0  0  0  0  0
   -7.2398    2.7317   -1.4142 F   0  0  0  0  0  0  0  0  0  0  0  0
   -3.2291   -2.4049    1.7903 O   0  0  0  0  0  0  0  0  0  0  0  0
    1.0818   -3.2078    0.4884 N   0  0  2  0  0  0  0  0  0  0  0  0
   -1.7460   -0.7907    1.0287 N   0  0  0  0  0  0  0  0  0  0  0  0
    2.7002    0.4891   -1.6411 N   0  0  0  0  0  0  0  0  0  0  0  0
    4.3706    2.0427   -0.8641 N   0  0  0  0  0  0  0  0  0  0  0  0
    1.4176   -2.0683   -1.8293 C   0  0  2  0  0  0  0  0  0  0  0  0
    2.6665   -1.8514   -0.9306 C   0  0  2  0  0  0  0  0  0  0  0  0
   -0.0989   -2.3662    0.1599 C   0  0  2  0  0  0  0  0  0  0  0  0
    0.1679   -1.5237   -1.1059 C   0  0  0  0  0  0  0  0  0  0  0  0
    1.2308   -3.5942   -1.9710 C   0  0  0  0  0  0  0  0  0  0  0  0
    2.3128   -2.3785    0.4894 C   0  0  0  0  0  0  0  0  0  0  0  0
    1.2168   -4.2349   -0.5722 C   0  0  0  0  0  0  0  0  0  0  0  0
   -0.5423   -1.4983    1.3396 C   0  0  0  0  0  0  0  0  0  0  0  0
    3.2921   -0.4644   -0.8924 C   0  0  0  0  0  0  0  0  0  0  0  0
    4.4104   -0.2442   -0.1144 C   0  0  0  0  0  0  0  0  0  0  0  0
    4.9114    1.0414   -0.1392 C   0  0  0  0  0  0  0  0  0  0  0  0
    3.2829    1.7017   -1.5813 C   0  0  0  0  0  0  0  0  0  0  0  0
   -3.0155   -1.3072    1.2822 C   0  0  0  0  0  0  0  0  0  0  0  0
    6.0741    1.4090    0.6242 C   0  0  0  0  0  0  0  0  0  0  0  0
   -4.1656   -0.4591    0.8765 C   0  0  0  0  0  0  0  0  0  0  0  0
    2.6560    2.7831   -2.3947 C   0  0  0  0  0  0  0  0  0  0  0  0
    6.5263    0.8938    1.8191 C   0  0  0  0  0  0  0  0  0  0  0  0
   -5.3886   -1.0484    0.5556 C   0  0  0  0  0  0  0  0  0  0  0  0
   -4.0223    0.9271    0.8159 C   0  0  0  0  0  0  0  0  0  0  0  0
    7.7244    1.5290    2.2564 C   0  0  0  0  0  0  0  0  0  0  0  0
    8.1422    2.5054    1.3791 C   0  0  0  0  0  0  0  0  0  0  0  0
   -6.4679   -0.2517    0.1739 C   0  0  0  0  0  0  0  0  0  0  0  0
   -5.1016    1.7239    0.4341 C   0  0  0  0  0  0  0  0  0  0  0  0
   -6.3244    1.1345    0.1132 C   0  0  0  0  0  0  0  0  0  0  0  0
   -7.4789    1.9860   -0.2951 C   0  0  0  0  0  0  0  0  0  0  0  0
    1.5343   -1.6045   -2.8144 H   0  0  0  0  0  0  0  0  0  0  0  0
    3.4580   -2.4977   -1.3407 H   0  0  0  0  0  0  0  0  0  0  0  0
   -0.9388   -3.0433   -0.0563 H   0  0  0  0  0  0  0  0  0  0  0  0
    0.3107   -0.4643   -0.8657 H   0  0  0  0  0  0  0  0  0  0  0  0
   -0.6999   -1.5857   -1.7743 H   0  0  0  0  0  0  0  0  0  0  0  0
    2.0417   -4.0252   -2.5697 H   0  0  0  0  0  0  0  0  0  0  0  0
    0.2912   -3.8077   -2.4950 H   0  0  0  0  0  0  0  0  0  0  0  0
    3.1471   -2.9855    0.8659 H   0  0  0  0  0  0  0  0  0  0  0  0
    2.2105   -1.5624    1.2141 H   0  0  0  0  0  0  0  0  0  0  0  0
    0.3942   -4.9572   -0.5014 H   0  0  0  0  0  0  0  0  0  0  0  0
    2.1332   -4.8171   -0.4113 H   0  0  0  0  0  0  0  0  0  0  0  0
    0.2071   -0.7436    1.5981 H   0  0  0  0  0  0  0  0  0  0  0  0
   -0.7103   -2.1203    2.2266 H   0  0  0  0  0  0  0  0  0  0  0  0
   -1.6416    0.0970    0.5494 H   0  0  0  0  0  0  0  0  0  0  0  0
    4.8664   -1.0389    0.4636 H   0  0  0  0  0  0  0  0  0  0  0  0
    3.1057    2.8029   -3.3916 H   0  0  0  0  0  0  0  0  0  0  0  0
    1.5792    2.6165   -2.4985 H   0  0  0  0  0  0  0  0  0  0  0  0
    2.8042    3.7596   -1.9231 H   0  0  0  0  0  0  0  0  0  0  0  0
    6.0306    0.1033    2.3690 H   0  0  0  0  0  0  0  0  0  0  0  0
   -5.5186   -2.1267    0.5924 H   0  0  0  0  0  0  0  0  0  0  0  0
   -3.0976    1.4278    1.0867 H   0  0  0  0  0  0  0  0  0  0  0  0
    8.2522    1.2833    3.1686 H   0  0  0  0  0  0  0  0  0  0  0  0
    9.0137    3.1392    1.4637 H   0  0  0  0  0  0  0  0  0  0  0  0
   -7.4114   -0.7304   -0.0730 H   0  0  0  0  0  0  0  0  0  0  0  0
   -4.9828    2.8035    0.3958 H   0  0  0  0  0  0  0  0  0  0  0  0
  1 23  1  0  0  0  0
  1 30  1  0  0  0  0
  2 34  1  0  0  0  0
  3 34  1  0  0  0  0
  4 34  1  0  0  0  0
  5 22  2  0  0  0  0
  6 12  1  0  0  0  0
  6 15  1  0  0  0  0
  6 16  1  0  0  0  0
  7 17  1  0  0  0  0
  7 22  1  0  0  0  0
  7 48  1  0  0  0  0
  8 18  2  0  0  0  0
  8 21  1  0  0  0  0
  9 20  1  0  0  0  0
  9 21  2  0  0  0  0
 10 11  1  0  0  0  0
 10 13  1  0  0  0  0
 10 14  1  0  0  0  0
 10 35  1  0  0  0  0
 11 15  1  0  0  0  0
 11 18  1  0  0  0  0
 11 36  1  0  0  0  0
 12 13  1  0  0  0  0
 12 17  1  0  0  0  0
 12 37  1  0  0  0  0
 13 38  1  0  0  0  0
 13 39  1  0  0  0  0
 14 16  1  0  0  0  0
 14 40  1  0  0  0  0
 14 41  1  0  0  0  0
 15 42  1  0  0  0  0
 15 43  1  0  0  0  0
 16 44  1  0  0  0  0
 16 45  1  0  0  0  0
 17 46  1  0  0  0  0
 17 47  1  0  0  0  0
 18 19  1  0  0  0  0
 19 20  2  0  0  0  0
 19 49  1  0  0  0  0
 20 23  1  0  0  0  0
 21 25  1  0  0  0  0
 22 24  1  0  0  0  0
 23 26  2  0  0  0  0
 24 27  2  0  0  0  0
 24 28  1  0  0  0  0
 25 50  1  0  0  0  0
 25 51  1  0  0  0  0
 25 52  1  0  0  0  0
 26 29  1  0  0  0  0
 26 53  1  0  0  0  0
 27 31  1  0  0  0  0
 27 54  1  0  0  0  0
 28 32  2  0  0  0  0
 28 55  1  0  0  0  0
 29 30  2  0  0  0  0
 29 56  1  0  0  0  0
 30 57  1  0  0  0  0
 31 33  2  0  0  0  0
 31 58  1  0  0  0  0
 32 33  1  0  0  0  0
 32 59  1  0  0  0  0
 33 34  1  0  0  0  0
M  END
> <PUBCHEM_COMPOUND_CID>
40777064

> <PUBCHEM_CONFORMER_RMSD>
1

> <PUBCHEM_CONFORMER_DIVERSEORDER>
1
61
44
69
3
57
19
24
75
47
67
49
27
55
65
12
21
51
25
70
71
33
18
29
40
52
60
50
20
62
42
74
28
37
32
56
64
14
76
58
23
35
31
11
38
43
30
59
73
46
45
41
13
15
39
68
26
34
7
53
2
48
36
10
54
72
16
8
6
17
66
22
63
4
5
9

> <PUBCHEM_MMFF94_PARTIAL_CHARGES>
40
1 -0.08
11 0.14
12 0.27
15 0.27
16 0.27
17 0.3
18 0.17
19 -0.15
2 -0.34
20 0.36
21 0.48
22 0.54
23 -0.01
24 0.09
25 0.14
26 -0.15
27 -0.15
28 -0.15
29 -0.15
3 -0.34
30 -0.11
31 -0.15
32 -0.15
33 -0.14
34 1.16
4 -0.34
48 0.37
49 0.15
5 -0.57
53 0.15
54 0.15
55 0.15
56 0.15
57 0.15
58 0.15
59 0.15
6 -0.81
7 -0.73
8 -0.62
9 -0.62

> <PUBCHEM_EFFECTIVE_ROTOR_COUNT>
8.2

> <PUBCHEM_PHARMACOPHORE_FEATURES>
9
1 5 acceptor
1 6 cation
1 7 donor
1 8 acceptor
3 8 9 21 cation
5 1 23 26 29 30 rings
6 24 27 28 31 32 33 rings
6 8 9 18 19 20 21 rings
8 6 10 11 12 13 14 15 16 rings

> <PUBCHEM_HEAVY_ATOM_COUNT>
34

> <PUBCHEM_ATOM_DEF_STEREO_COUNT>
3

> <PUBCHEM_ATOM_UDEF_STEREO_COUNT>
0

> <PUBCHEM_BOND_DEF_STEREO_COUNT>
0

> <PUBCHEM_BOND_UDEF_STEREO_COUNT>
0

> <PUBCHEM_ISOTOPIC_ATOM_COUNT>
0

> <PUBCHEM_COMPONENT_COUNT>
1

> <PUBCHEM_CACTVS_TAUTO_COUNT>
2

> <PUBCHEM_CONFORMER_ID>
026E356800000001

> <PUBCHEM_MMFF94_ENERGY>
82.1054

> <PUBCHEM_FEATURE_SELFOVERLAP>
45.672

> <PUBCHEM_SHAPE_FINGERPRINT>
10305334 12 17603864567500932842
10673678 19 18343868796712260643
10675989 125 18120663435659729347
11135609 127 18269269067893730891
11476731 99 17755848724691668157
12107183 9 17604147142247388912
12403259 118 18188779490638397298
131258 43 10735870686017032906
13150687 139 17489598865820260950
13673619 4 9799690394187352155
13782708 43 8718533988267012651
14040221 275 16009849646838044516
14251764 30 8286211530515117490
14294032 229 18057047019699945646
14950920 106 17170679062821755306
15289351 153 18130790019671851376
15350500 185 17988916799770968128
15350500 55 18410572907637165808
15669420 48 15698000781574019603
16120349 189 18343021142440956270
19053607 189 18335150781747669756
19246450 95 18262795285363812810
19302320 297 17894640278906756141
19304144 158 18411981373706273127
195137 95 18408035217346284536
20511986 3 18413105044372128071
20554085 129 18202556294145787002
20567600 254 18131073757695607938
20587220 17 18129660773342621821
20715895 44 18333739004690819067
208703 8 11602535420800507423
21033648 29 18187369835005942518
21304303 282 17844520209786327654
21403212 168 18411134732715525810
23522609 53 16844464713506377035
23569914 2 16555635356916310664
25269216 80 14979959186228454619
2851757 15 18410857676421405882
3388396 114 16773251638550238448
3862424 121 11455598937512112841
3918712 181 18272085024272907064
393628 179 17988636437175508984
4112364 45 18334568002183483018
4330586 98 12391508746024564728
4366758 6 18342454855023723736
44249763 50 18334297565931787399
44880168 125 12757148021372120601
5372103 7 18131348635328563944
6327066 14 18272651294477951946
6371009 1 18336829800485665621
6695519 79 18055103005970277475
6697151 62 16341490993650820956
9555976 147 17241338013127873323
99344 41 18335700563346821657

> <PUBCHEM_SHAPE_MULTIPOLES>
655.94
23.84
4.51
1.94
18.61
2.65
-0.32
-31.13
7.42
-0.47
-1.32
-2.28
-0.22
2.48

> <PUBCHEM_SHAPE_SELFOVERLAP>
1421.485

> <PUBCHEM_SHAPE_VOLUME>
364.3

> <PUBCHEM_COORDINATE_TYPE>
2
5
10

$$$$
