11884350
  -OEChem-12032416283D

 45 47  0     1  0  0  0  0  0999 V2000
   -3.7033    0.2923   -1.4471 O   0  0  0  0  0  0  0  0  0  0  0  0
   -4.7519    0.2521    1.4221 O   0  0  0  0  0  0  0  0  0  0  0  0
   -6.0142   -1.2439   -1.5777 O   0  0  0  0  0  0  0  0  0  0  0  0
   -0.1936    2.4766    0.9524 O   0  0  0  0  0  0  0  0  0  0  0  0
    2.7930   -2.5807    0.5159 O   0  0  0  0  0  0  0  0  0  0  0  0
    4.5724    1.7412   -0.5298 O   0  0  0  0  0  0  0  0  0  0  0  0
    4.9370   -0.9862   -0.2149 O   0  0  0  0  0  0  0  0  0  0  0  0
   -1.2039    0.4606    0.4100 N   0  0  0  0  0  0  0  0  0  0  0  0
   -3.5196   -0.2412    0.8532 C   0  0  1  0  0  0  0  0  0  0  0  0
   -3.8613   -0.7928   -0.5163 C   0  0  1  0  0  0  0  0  0  0  0  0
   -2.5852    0.9136    0.5637 C   0  0  2  0  0  0  0  0  0  0  0  0
   -5.3108   -1.1844   -0.3575 C   0  0  1  0  0  0  0  0  0  0  0  0
   -3.1169    1.4154   -0.7712 C   0  0  0  0  0  0  0  0  0  0  0  0
   -5.8378   -0.0962    0.5506 C   0  0  0  0  0  0  0  0  0  0  0  0
   -0.1160    1.2964    0.6216 C   0  0  0  0  0  0  0  0  0  0  0  0
    1.2225    0.6916    0.3985 C   0  0  0  0  0  0  0  0  0  0  0  0
    2.2717    1.5105    0.0362 C   0  0  0  0  0  0  0  0  0  0  0  0
    1.3736   -0.6697    0.5629 C   0  0  0  0  0  0  0  0  0  0  0  0
    2.6307   -1.2376    0.3555 C   0  0  0  0  0  0  0  0  0  0  0  0
    3.5287    0.9424   -0.1712 C   0  0  0  0  0  0  0  0  0  0  0  0
    3.7082   -0.4316   -0.0115 C   0  0  0  0  0  0  0  0  0  0  0  0
    2.5875   -3.4001   -0.6333 C   0  0  0  0  0  0  0  0  0  0  0  0
    4.7851    1.9417   -1.9258 C   0  0  0  0  0  0  0  0  0  0  0  0
    5.8039   -1.0699    0.9139 C   0  0  0  0  0  0  0  0  0  0  0  0
   -3.1133   -0.9935    1.5366 H   0  0  0  0  0  0  0  0  0  0  0  0
   -3.2173   -1.6125   -0.8471 H   0  0  0  0  0  0  0  0  0  0  0  0
   -2.6189    1.7051    1.3194 H   0  0  0  0  0  0  0  0  0  0  0  0
   -5.3822   -2.1553    0.1462 H   0  0  0  0  0  0  0  0  0  0  0  0
   -3.9140    2.1517   -0.6199 H   0  0  0  0  0  0  0  0  0  0  0  0
   -2.3534    1.8649   -1.4137 H   0  0  0  0  0  0  0  0  0  0  0  0
   -6.1483    0.7983   -0.0007 H   0  0  0  0  0  0  0  0  0  0  0  0
   -6.6919   -0.4319    1.1465 H   0  0  0  0  0  0  0  0  0  0  0  0
   -1.0692   -0.4700    0.0291 H   0  0  0  0  0  0  0  0  0  0  0  0
   -5.8920   -0.3956   -2.0370 H   0  0  0  0  0  0  0  0  0  0  0  0
    2.1404    2.5810   -0.0945 H   0  0  0  0  0  0  0  0  0  0  0  0
    0.5648   -1.3196    0.8818 H   0  0  0  0  0  0  0  0  0  0  0  0
    1.5587   -3.3027   -0.9944 H   0  0  0  0  0  0  0  0  0  0  0  0
    2.7608   -4.4410   -0.3473 H   0  0  0  0  0  0  0  0  0  0  0  0
    3.2917   -3.1335   -1.4278 H   0  0  0  0  0  0  0  0  0  0  0  0
    5.6556    2.5918   -2.0497 H   0  0  0  0  0  0  0  0  0  0  0  0
    3.9165    2.4291   -2.3797 H   0  0  0  0  0  0  0  0  0  0  0  0
    4.9858    0.9891   -2.4261 H   0  0  0  0  0  0  0  0  0  0  0  0
    6.7406   -1.5332    0.5923 H   0  0  0  0  0  0  0  0  0  0  0  0
    5.3578   -1.6907    1.6973 H   0  0  0  0  0  0  0  0  0  0  0  0
    6.0241   -0.0718    1.3056 H   0  0  0  0  0  0  0  0  0  0  0  0
  1 10  1  0  0  0  0
  1 13  1  0  0  0  0
  2  9  1  0  0  0  0
  2 14  1  0  0  0  0
  3 12  1  0  0  0  0
  3 34  1  0  0  0  0
  4 15  2  0  0  0  0
  5 19  1  0  0  0  0
  5 22  1  0  0  0  0
  6 20  1  0  0  0  0
  6 23  1  0  0  0  0
  7 21  1  0  0  0  0
  7 24  1  0  0  0  0
  8 11  1  0  0  0  0
  8 15  1  0  0  0  0
  8 33  1  0  0  0  0
  9 10  1  0  0  0  0
  9 11  1  0  0  0  0
  9 25  1  0  0  0  0
 10 12  1  0  0  0  0
 10 26  1  0  0  0  0
 11 13  1  0  0  0  0
 11 27  1  0  0  0  0
 12 14  1  0  0  0  0
 12 28  1  0  0  0  0
 13 29  1  0  0  0  0
 13 30  1  0  0  0  0
 14 31  1  0  0  0  0
 14 32  1  0  0  0  0
 15 16  1  0  0  0  0
 16 17  2  0  0  0  0
 16 18  1  0  0  0  0
 17 20  1  0  0  0  0
 17 35  1  0  0  0  0
 18 19  2  0  0  0  0
 18 36  1  0  0  0  0
 19 21  1  0  0  0  0
 20 21  2  0  0  0  0
 22 37  1  0  0  0  0
 22 38  1  0  0  0  0
 22 39  1  0  0  0  0
 23 40  1  0  0  0  0
 23 41  1  0  0  0  0
 23 42  1  0  0  0  0
 24 43  1  0  0  0  0
 24 44  1  0  0  0  0
 24 45  1  0  0  0  0
M  END
> <PUBCHEM_COMPOUND_CID>
11884350

> <PUBCHEM_CONFORMER_RMSD>
0.8

> <PUBCHEM_CONFORMER_DIVERSEORDER>
1
20
9
16
11
4
23
19
6
12
22
18
2
10
15
8
17
21
3
7
5
13
14

> <PUBCHEM_MMFF94_PARTIAL_CHARGES>
28
1 -0.56
10 0.28
11 0.3
12 0.28
13 0.28
14 0.28
15 0.54
16 0.09
17 -0.15
18 -0.15
19 0.08
2 -0.56
20 0.08
21 0.08
22 0.28
23 0.28
24 0.28
3 -0.68
33 0.37
34 0.4
35 0.15
36 0.15
4 -0.57
5 -0.36
6 -0.36
7 -0.36
8 -0.73
9 0.28

> <PUBCHEM_EFFECTIVE_ROTOR_COUNT>
7.2

> <PUBCHEM_PHARMACOPHORE_FEATURES>
12
1 1 acceptor
1 2 acceptor
1 3 acceptor
1 3 donor
1 4 acceptor
1 5 acceptor
1 6 acceptor
1 7 acceptor
1 8 donor
5 1 9 10 11 13 rings
5 2 9 10 12 14 rings
6 16 17 18 19 20 21 rings

> <PUBCHEM_HEAVY_ATOM_COUNT>
24

> <PUBCHEM_ATOM_DEF_STEREO_COUNT>
4

> <PUBCHEM_ATOM_UDEF_STEREO_COUNT>
0

> <PUBCHEM_BOND_DEF_STEREO_COUNT>
0

> <PUBCHEM_BOND_UDEF_STEREO_COUNT>
0

> <PUBCHEM_ISOTOPIC_ATOM_COUNT>
0

> <PUBCHEM_COMPONENT_COUNT>
1

> <PUBCHEM_CACTVS_TAUTO_COUNT>
2

> <PUBCHEM_CONFORMER_ID>
00B5573E00000001

> <PUBCHEM_MMFF94_ENERGY>
102.3686

> <PUBCHEM_FEATURE_SELFOVERLAP>
61.633

> <PUBCHEM_SHAPE_FINGERPRINT>
10090160 65 18333452062547762280
10693767 8 18200326429289816998
12107183 9 17623865526134530177
12236239 1 17917994988222285673
12553582 1 18131061624043686065
12596602 18 16917344853030400331
12616971 3 18411983550616096432
12788726 201 17702963451986566073
13150687 139 18191607422578053500
13167823 11 18202283606624710017
13836976 161 18407763647107236926
13862211 1 18410570652964049314
13911987 19 18118423953596237420
14576447 43 18343017808913344666
14767858 380 18339089284591903660
14863182 85 18201721718003503958
15188451 53 15913032267051121101
15250474 111 18272083916207936031
15537594 2 18202285831412696239
15788980 27 18335419049762871513
15961568 22 16371014056871108836
17349148 13 18334014961009237592
17492 89 18197218040307254894
17844677 252 18041283192490274709
17857418 61 18341889684545979595
1813 80 17418099831520054792
18681886 176 18411132533786728864
200 152 18411698755777554200
20028762 73 18272649031099519022
20281475 54 18272087154412414521
20645477 70 18334018268160286002
21033650 10 14852449796884692854
21054139 6 18413105057251858950
21267235 1 18412270506182229402
21315763 178 18131067121649343171
21623969 137 18261969513028364939
21709351 56 18187081703161875412
21860390 5 15792024436471360894
22950370 63 18273218599317299361
235170 7 17676200264986848831
23522609 53 18197527140957063281
23557571 272 17385724664759118517
23559900 14 18266731381834039384
2838139 119 9510920124253141675
3004659 81 18333727992452765970
314194 84 18342741836259440267
329604 57 18409167727033423336
34797466 226 16878230856717426645
351380 3 17917991698335268231
46194498 28 17749388225814041725
463206 1 18341047523016483911
5281201 14 17894633621348062445
602551 16 15913037755159521220
7164475 11 18338803290972234032
9709674 26 18262809458043791322

> <PUBCHEM_SHAPE_MULTIPOLES>
447.84
14.45
2.53
1.24
8.45
1.18
-0.36
3.15
-2.41
-3.16
-0.49
0.38
-0.24
-1.52

> <PUBCHEM_SHAPE_SELFOVERLAP>
955.69

> <PUBCHEM_SHAPE_VOLUME>
251.5

> <PUBCHEM_COORDINATE_TYPE>
2
5
10

$$$$
