11867599
  -OEChem-12032416133D

 62 64  0     1  0  0  0  0  0999 V2000
   -4.7136    0.1624   -2.9342 F   0  0  0  0  0  0  0  0  0  0  0  0
    1.1219    0.2478   -1.0224 O   0  0  0  0  0  0  0  0  0  0  0  0
    3.5034    2.6954    0.3863 O   0  0  0  0  0  0  0  0  0  0  0  0
   -2.5640   -0.3418    2.3027 O   0  0  0  0  0  0  0  0  0  0  0  0
    3.6397    5.0094   -0.6367 O   0  0  0  0  0  0  0  0  0  0  0  0
    4.4620   -3.2108   -0.9168 O   0  0  0  0  0  0  0  0  0  0  0  0
    4.8648   -1.4071    0.4516 O   0  0  0  0  0  0  0  0  0  0  0  0
    1.1819    2.5378    0.3810 N   0  0  0  0  0  0  0  0  0  0  0  0
   -1.3071    1.1479    1.0144 N   0  0  0  0  0  0  0  0  0  0  0  0
    2.1856   -0.8610    0.7264 N   0  0  0  0  0  0  0  0  0  0  0  0
   -1.8430   -3.1106    0.8017 N   0  0  0  0  0  0  0  0  0  0  0  0
    1.1856    1.2797    1.1321 C   0  0  1  0  0  0  0  0  0  0  0  0
   -0.1256    1.0215    1.8699 C   0  0  0  0  0  0  0  0  0  0  0  0
   -0.1275    3.1240    0.0690 C   0  0  0  0  0  0  0  0  0  0  0  0
   -1.2109    2.0704   -0.1231 C   0  0  0  0  0  0  0  0  0  0  0  0
    1.4886    0.1860    0.1482 C   0  0  0  0  0  0  0  0  0  0  0  0
    2.3990    3.1803    0.1276 C   0  0  0  0  0  0  0  0  0  0  0  0
   -2.4628    0.4355    1.3545 C   0  0  0  0  0  0  0  0  0  0  0  0
    2.5787   -2.0461   -0.0010 C   0  0  2  0  0  0  0  0  0  0  0  0
    2.3176    4.5453   -0.5101 C   0  0  0  0  0  0  0  0  0  0  0  0
    1.9368   -3.3138    0.5819 C   0  0  0  0  0  0  0  0  0  0  0  0
   -3.6609    0.6152    0.5186 C   0  0  0  0  0  0  0  0  0  0  0  0
    4.0922   -2.1740   -0.1138 C   0  0  0  0  0  0  0  0  0  0  0  0
    0.4760   -3.4975    0.2381 C   0  0  0  0  0  0  0  0  0  0  0  0
   -3.6185    0.2975   -0.8389 C   0  0  0  0  0  0  0  0  0  0  0  0
   -4.8388    1.1034    1.0842 C   0  0  0  0  0  0  0  0  0  0  0  0
    0.0904   -4.1913   -0.9036 C   0  0  0  0  0  0  0  0  0  0  0  0
   -4.7540    0.4677   -1.6307 C   0  0  0  0  0  0  0  0  0  0  0  0
   -5.9744    1.2738    0.2923 C   0  0  0  0  0  0  0  0  0  0  0  0
   -0.5205   -2.9813    1.0507 C   0  0  0  0  0  0  0  0  0  0  0  0
   -5.9320    0.9559   -1.0651 C   0  0  0  0  0  0  0  0  0  0  0  0
    3.6987    6.3042   -1.2323 C   0  0  0  0  0  0  0  0  0  0  0  0
   -1.2609   -4.3453   -1.1937 C   0  0  0  0  0  0  0  0  0  0  0  0
    5.8712   -3.3892   -1.0917 C   0  0  0  0  0  0  0  0  0  0  0  0
   -2.1795   -3.7912   -0.3169 C   0  0  0  0  0  0  0  0  0  0  0  0
    2.0000    1.3299    1.8660 H   0  0  0  0  0  0  0  0  0  0  0  0
   -0.2508    1.7631    2.6691 H   0  0  0  0  0  0  0  0  0  0  0  0
   -0.1203    0.0358    2.3474 H   0  0  0  0  0  0  0  0  0  0  0  0
   -0.3826    3.7816    0.9090 H   0  0  0  0  0  0  0  0  0  0  0  0
   -0.0666    3.7458   -0.8275 H   0  0  0  0  0  0  0  0  0  0  0  0
   -2.1681    2.5807   -0.2684 H   0  0  0  0  0  0  0  0  0  0  0  0
   -1.0110    1.4778   -1.0203 H   0  0  0  0  0  0  0  0  0  0  0  0
    2.4609   -0.7978    1.7022 H   0  0  0  0  0  0  0  0  0  0  0  0
    2.2367   -1.9232   -1.0375 H   0  0  0  0  0  0  0  0  0  0  0  0
    1.8649    4.4582   -1.5026 H   0  0  0  0  0  0  0  0  0  0  0  0
    1.7365    5.2173    0.1296 H   0  0  0  0  0  0  0  0  0  0  0  0
    2.0506   -3.3209    1.6749 H   0  0  0  0  0  0  0  0  0  0  0  0
    2.4712   -4.2108    0.2426 H   0  0  0  0  0  0  0  0  0  0  0  0
   -2.7189   -0.1091   -1.2928 H   0  0  0  0  0  0  0  0  0  0  0  0
   -4.8837    1.3567    2.1403 H   0  0  0  0  0  0  0  0  0  0  0  0
    0.8335   -4.6133   -1.5745 H   0  0  0  0  0  0  0  0  0  0  0  0
   -6.8914    1.6545    0.7325 H   0  0  0  0  0  0  0  0  0  0  0  0
   -0.2826   -2.4352    1.9578 H   0  0  0  0  0  0  0  0  0  0  0  0
   -6.8158    1.0885   -1.6820 H   0  0  0  0  0  0  0  0  0  0  0  0
    4.7480    6.6032   -1.2997 H   0  0  0  0  0  0  0  0  0  0  0  0
    3.1642    7.0322   -0.6146 H   0  0  0  0  0  0  0  0  0  0  0  0
    3.2744    6.2793   -2.2406 H   0  0  0  0  0  0  0  0  0  0  0  0
   -1.5846   -4.8811   -2.0786 H   0  0  0  0  0  0  0  0  0  0  0  0
    6.3101   -2.5025   -1.5589 H   0  0  0  0  0  0  0  0  0  0  0  0
    6.3488   -3.5967   -0.1295 H   0  0  0  0  0  0  0  0  0  0  0  0
    6.0257   -4.2466   -1.7522 H   0  0  0  0  0  0  0  0  0  0  0  0
   -3.2454   -3.8819   -0.4984 H   0  0  0  0  0  0  0  0  0  0  0  0
  1 28  1  0  0  0  0
  2 16  2  0  0  0  0
  3 17  2  0  0  0  0
  4 18  2  0  0  0  0
  5 20  1  0  0  0  0
  5 32  1  0  0  0  0
  6 23  1  0  0  0  0
  6 34  1  0  0  0  0
  7 23  2  0  0  0  0
  8 12  1  0  0  0  0
  8 14  1  0  0  0  0
  8 17  1  0  0  0  0
  9 13  1  0  0  0  0
  9 15  1  0  0  0  0
  9 18  1  0  0  0  0
 10 16  1  0  0  0  0
 10 19  1  0  0  0  0
 10 43  1  0  0  0  0
 11 30  1  0  0  0  0
 11 35  2  0  0  0  0
 12 13  1  0  0  0  0
 12 16  1  0  0  0  0
 12 36  1  0  0  0  0
 13 37  1  0  0  0  0
 13 38  1  0  0  0  0
 14 15  1  0  0  0  0
 14 39  1  0  0  0  0
 14 40  1  0  0  0  0
 15 41  1  0  0  0  0
 15 42  1  0  0  0  0
 17 20  1  0  0  0  0
 18 22  1  0  0  0  0
 19 21  1  0  0  0  0
 19 23  1  0  0  0  0
 19 44  1  0  0  0  0
 20 45  1  0  0  0  0
 20 46  1  0  0  0  0
 21 24  1  0  0  0  0
 21 47  1  0  0  0  0
 21 48  1  0  0  0  0
 22 25  2  0  0  0  0
 22 26  1  0  0  0  0
 24 27  1  0  0  0  0
 24 30  2  0  0  0  0
 25 28  1  0  0  0  0
 25 49  1  0  0  0  0
 26 29  2  0  0  0  0
 26 50  1  0  0  0  0
 27 33  2  0  0  0  0
 27 51  1  0  0  0  0
 28 31  2  0  0  0  0
 29 31  1  0  0  0  0
 29 52  1  0  0  0  0
 30 53  1  0  0  0  0
 31 54  1  0  0  0  0
 32 55  1  0  0  0  0
 32 56  1  0  0  0  0
 32 57  1  0  0  0  0
 33 35  1  0  0  0  0
 33 58  1  0  0  0  0
 34 59  1  0  0  0  0
 34 60  1  0  0  0  0
 34 61  1  0  0  0  0
 35 62  1  0  0  0  0
M  END
> <PUBCHEM_COMPOUND_CID>
11867599

> <PUBCHEM_CONFORMER_RMSD>
1.2

> <PUBCHEM_CONFORMER_DIVERSEORDER>
5
82
72
3
44
84
55
19
41
31
22
58
57
24
13
16
20
74
46
39
48
100
101
85
29
28
81
43
61
53
70
23
106
75
10
51
49
17
95
80
87
25
37
12
26
54
93
34
36
96
9
8
27
79
64
62
42
33
11
30
38
91
14
89
15
98
94
83
76
52
105
77
102
18
103
45
99
97
47
40
86
104
32
71
21
69
63
90
67
68
92
7
78
60
59
4
65
6
73
50
88
1
35
56
66
2

> <PUBCHEM_MMFF94_PARTIAL_CHARGES>
44
1 -0.19
10 -0.73
11 -0.62
12 0.36
13 0.3
14 0.3
15 0.3
16 0.57
17 0.57
18 0.54
19 0.36
2 -0.57
20 0.34
21 0.14
22 0.09
23 0.66
24 -0.14
25 -0.15
26 -0.15
27 -0.15
28 0.19
29 -0.15
3 -0.57
30 0.16
31 -0.15
32 0.28
33 -0.15
34 0.28
35 0.16
4 -0.57
43 0.37
49 0.15
5 -0.56
50 0.15
51 0.15
52 0.15
53 0.15
54 0.15
58 0.15
6 -0.43
62 0.15
7 -0.57
8 -0.66
9 -0.66

> <PUBCHEM_EFFECTIVE_ROTOR_COUNT>
13.2

> <PUBCHEM_PHARMACOPHORE_FEATURES>
10
1 10 donor
1 11 acceptor
1 2 acceptor
1 3 acceptor
1 4 acceptor
1 5 acceptor
1 7 acceptor
6 11 24 27 30 33 35 rings
6 22 25 26 28 29 31 rings
6 8 9 12 13 14 15 rings

> <PUBCHEM_HEAVY_ATOM_COUNT>
35

> <PUBCHEM_ATOM_DEF_STEREO_COUNT>
2

> <PUBCHEM_ATOM_UDEF_STEREO_COUNT>
0

> <PUBCHEM_BOND_DEF_STEREO_COUNT>
0

> <PUBCHEM_BOND_UDEF_STEREO_COUNT>
0

> <PUBCHEM_ISOTOPIC_ATOM_COUNT>
0

> <PUBCHEM_COMPONENT_COUNT>
1

> <PUBCHEM_CACTVS_TAUTO_COUNT>
2

> <PUBCHEM_CONFORMER_ID>
00B515CF00000005

> <PUBCHEM_MMFF94_ENERGY>
94.6982

> <PUBCHEM_FEATURE_SELFOVERLAP>
50.767

> <PUBCHEM_SHAPE_FINGERPRINT>
10930396 42 18121469433976381242
1100329 8 18411699881011805130
12553582 1 18195238923888198227
1361 2 18340481167116794699
13690498 29 17190680974121396046
14068700 675 18057881346976692488
14394314 77 18051421664465859545
14725015 67 13293915876154734827
14840074 17 18127691526779626255
15439362 3 18410292544540734572
15927050 60 18196660806838688598
17492 54 18264766554592880403
21796203 349 17833595303058393090
22113638 7 18412263895911478458
23559900 14 18335143080855353840
463206 1 18270392781694030795
9982175 49 18199484176911509977

> <PUBCHEM_SHAPE_MULTIPOLES>
657.87
10.77
8.12
1.6
5.63
5.68
0.24
0.77
3.98
-12.16
3.05
1.63
0
-0.49

> <PUBCHEM_SHAPE_SELFOVERLAP>
1385.768

> <PUBCHEM_SHAPE_VOLUME>
367.6

> <PUBCHEM_COORDINATE_TYPE>
2
5
10

$$$$
