40777111
  -OEChem-12032416183D

 62 66  0     1  0  0  0  0  0999 V2000
   -3.5446   -2.2679    2.1190 Br  0  0  0  0  0  0  0  0  0  0  0  0
    4.5620    1.2624    2.0279 O   0  0  0  0  0  0  0  0  0  0  0  0
    0.4247    2.9241    1.0054 N   0  0  2  0  0  0  0  0  0  0  0  0
    2.8853    0.0831    0.9400 N   0  0  0  0  0  0  0  0  0  0  0  0
   -1.6473    0.0678   -1.8876 N   0  0  0  0  0  0  0  0  0  0  0  0
   -3.5280   -1.3777   -1.4622 N   0  0  0  0  0  0  0  0  0  0  0  0
   -0.0236    2.3993   -1.5059 C   0  0  2  0  0  0  0  0  0  0  0  0
   -1.3058    2.1569   -0.6623 C   0  0  2  0  0  0  0  0  0  0  0  0
    1.4847    2.0256    0.4769 C   0  0  2  0  0  0  0  0  0  0  0  0
    1.1271    1.5381   -0.9437 C   0  0  0  0  0  0  0  0  0  0  0  0
    0.3727    3.8769   -1.2989 C   0  0  0  0  0  0  0  0  0  0  0  0
   -0.9080    2.2933    0.8352 C   0  0  0  0  0  0  0  0  0  0  0  0
    0.4500    4.1743    0.2088 C   0  0  0  0  0  0  0  0  0  0  0  0
    1.7846    0.8596    1.4212 C   0  0  0  0  0  0  0  0  0  0  0  0
   -2.1159    0.8970   -0.9321 C   0  0  0  0  0  0  0  0  0  0  0  0
   -3.2672    0.6606   -0.2089 C   0  0  0  0  0  0  0  0  0  0  0  0
   -3.9391   -0.5041   -0.5198 C   0  0  0  0  0  0  0  0  0  0  0  0
   -2.3916   -1.0346   -2.0981 C   0  0  0  0  0  0  0  0  0  0  0  0
    4.2090    0.3491    1.2862 C   0  0  0  0  0  0  0  0  0  0  0  0
   -5.1577   -0.8666    0.1636 C   0  0  0  0  0  0  0  0  0  0  0  0
   -1.9065   -1.9751   -3.1488 C   0  0  0  0  0  0  0  0  0  0  0  0
    5.2391   -0.5339    0.6813 C   0  0  0  0  0  0  0  0  0  0  0  0
   -5.1527   -1.6332    1.3288 C   0  0  0  0  0  0  0  0  0  0  0  0
   -6.3661   -0.4257   -0.3760 C   0  0  0  0  0  0  0  0  0  0  0  0
    6.5364   -0.0599    0.4856 C   0  0  0  0  0  0  0  0  0  0  0  0
    4.9090   -1.8368    0.3084 C   0  0  0  0  0  0  0  0  0  0  0  0
   -6.3560   -1.9588    1.9546 C   0  0  0  0  0  0  0  0  0  0  0  0
   -7.5694   -0.7513    0.2497 C   0  0  0  0  0  0  0  0  0  0  0  0
    7.5034   -0.8888   -0.0832 C   0  0  0  0  0  0  0  0  0  0  0  0
    5.8759   -2.6657   -0.2603 C   0  0  0  0  0  0  0  0  0  0  0  0
    7.1731   -2.1917   -0.4561 C   0  0  0  0  0  0  0  0  0  0  0  0
   -7.5645   -1.5178    1.4151 C   0  0  0  0  0  0  0  0  0  0  0  0
    8.2069   -3.0784   -1.0642 C   0  0  0  0  0  0  0  0  0  0  0  0
   -0.1855    2.1924   -2.5689 H   0  0  0  0  0  0  0  0  0  0  0  0
   -1.9943    2.9820   -0.9028 H   0  0  0  0  0  0  0  0  0  0  0  0
    2.4129    2.6124    0.4085 H   0  0  0  0  0  0  0  0  0  0  0  0
    0.8365    0.4818   -0.9491 H   0  0  0  0  0  0  0  0  0  0  0  0
    2.0068    1.6309   -1.5928 H   0  0  0  0  0  0  0  0  0  0  0  0
   -0.3611    4.5400   -1.7719 H   0  0  0  0  0  0  0  0  0  0  0  0
    1.3416    4.0731   -1.7739 H   0  0  0  0  0  0  0  0  0  0  0  0
   -1.6579    2.9072    1.3521 H   0  0  0  0  0  0  0  0  0  0  0  0
   -0.9311    1.3276    1.3533 H   0  0  0  0  0  0  0  0  0  0  0  0
    1.3623    4.7416    0.4304 H   0  0  0  0  0  0  0  0  0  0  0  0
   -0.3808    4.8246    0.5113 H   0  0  0  0  0  0  0  0  0  0  0  0
    0.9345    0.1761    1.5118 H   0  0  0  0  0  0  0  0  0  0  0  0
    2.0206    1.2342    2.4241 H   0  0  0  0  0  0  0  0  0  0  0  0
    2.6689   -0.6495    0.2727 H   0  0  0  0  0  0  0  0  0  0  0  0
   -3.6243    1.3477    0.5491 H   0  0  0  0  0  0  0  0  0  0  0  0
   -2.3982   -1.7515   -4.1001 H   0  0  0  0  0  0  0  0  0  0  0  0
   -0.8240   -1.8851   -3.2841 H   0  0  0  0  0  0  0  0  0  0  0  0
   -2.1288   -3.0106   -2.8726 H   0  0  0  0  0  0  0  0  0  0  0  0
   -6.3908    0.1725   -1.2842 H   0  0  0  0  0  0  0  0  0  0  0  0
    6.8120    0.9534    0.7655 H   0  0  0  0  0  0  0  0  0  0  0  0
    3.9201   -2.2547    0.4716 H   0  0  0  0  0  0  0  0  0  0  0  0
   -6.3734   -2.5551    2.8634 H   0  0  0  0  0  0  0  0  0  0  0  0
   -8.5104   -0.4081   -0.1703 H   0  0  0  0  0  0  0  0  0  0  0  0
    8.5109   -0.5084   -0.2300 H   0  0  0  0  0  0  0  0  0  0  0  0
    5.6092   -3.6817   -0.5391 H   0  0  0  0  0  0  0  0  0  0  0  0
   -8.5015   -1.7713    1.9022 H   0  0  0  0  0  0  0  0  0  0  0  0
    8.7287   -3.6383   -0.2818 H   0  0  0  0  0  0  0  0  0  0  0  0
    7.7550   -3.7901   -1.7634 H   0  0  0  0  0  0  0  0  0  0  0  0
    8.9429   -2.4971   -1.6301 H   0  0  0  0  0  0  0  0  0  0  0  0
  1 23  1  0  0  0  0
  2 19  2  0  0  0  0
  3  9  1  0  0  0  0
  3 12  1  0  0  0  0
  3 13  1  0  0  0  0
  4 14  1  0  0  0  0
  4 19  1  0  0  0  0
  4 47  1  0  0  0  0
  5 15  2  0  0  0  0
  5 18  1  0  0  0  0
  6 17  1  0  0  0  0
  6 18  2  0  0  0  0
  7  8  1  0  0  0  0
  7 10  1  0  0  0  0
  7 11  1  0  0  0  0
  7 34  1  0  0  0  0
  8 12  1  0  0  0  0
  8 15  1  0  0  0  0
  8 35  1  0  0  0  0
  9 10  1  0  0  0  0
  9 14  1  0  0  0  0
  9 36  1  0  0  0  0
 10 37  1  0  0  0  0
 10 38  1  0  0  0  0
 11 13  1  0  0  0  0
 11 39  1  0  0  0  0
 11 40  1  0  0  0  0
 12 41  1  0  0  0  0
 12 42  1  0  0  0  0
 13 43  1  0  0  0  0
 13 44  1  0  0  0  0
 14 45  1  0  0  0  0
 14 46  1  0  0  0  0
 15 16  1  0  0  0  0
 16 17  2  0  0  0  0
 16 48  1  0  0  0  0
 17 20  1  0  0  0  0
 18 21  1  0  0  0  0
 19 22  1  0  0  0  0
 20 23  1  0  0  0  0
 20 24  2  0  0  0  0
 21 49  1  0  0  0  0
 21 50  1  0  0  0  0
 21 51  1  0  0  0  0
 22 25  2  0  0  0  0
 22 26  1  0  0  0  0
 23 27  2  0  0  0  0
 24 28  1  0  0  0  0
 24 52  1  0  0  0  0
 25 29  1  0  0  0  0
 25 53  1  0  0  0  0
 26 30  2  0  0  0  0
 26 54  1  0  0  0  0
 27 32  1  0  0  0  0
 27 55  1  0  0  0  0
 28 32  2  0  0  0  0
 28 56  1  0  0  0  0
 29 31  2  0  0  0  0
 29 57  1  0  0  0  0
 30 31  1  0  0  0  0
 30 58  1  0  0  0  0
 31 33  1  0  0  0  0
 32 59  1  0  0  0  0
 33 60  1  0  0  0  0
 33 61  1  0  0  0  0
 33 62  1  0  0  0  0
M  END
> <PUBCHEM_COMPOUND_CID>
40777111

> <PUBCHEM_CONFORMER_RMSD>
1

> <PUBCHEM_CONFORMER_DIVERSEORDER>
1
89
14
73
77
49
61
105
88
104
86
114
107
90
12
92
41
54
11
69
82
109
76
72
112
87
91
111
110
80
96
36
100
56
84
93
38
48
70
103
44
99
78
27
94
26
43
47
95
24
53
101
22
50
68
32
20
51
102
45
52
29
74
63
39
97
18
28
98
15
66
64
55
81
37
85
75
62
23
34
42
10
79
65
17
7
83
19
106
8
67
59
33
46
30
58
71
60
4
6
57
108
40
2
25
35
3
9
21
13
113
31
16
5

> <PUBCHEM_MMFF94_PARTIAL_CHARGES>
39
1 -0.11
12 0.27
13 0.27
14 0.3
15 0.17
16 -0.15
17 0.31
18 0.48
19 0.54
2 -0.57
21 0.14
22 0.09
23 0.11
24 -0.15
25 -0.15
26 -0.15
27 -0.15
28 -0.15
29 -0.15
3 -0.81
30 -0.15
31 -0.14
32 -0.15
33 0.14
4 -0.73
47 0.37
48 0.15
5 -0.62
52 0.15
53 0.15
54 0.15
55 0.15
56 0.15
57 0.15
58 0.15
59 0.15
6 -0.62
8 0.14
9 0.27

> <PUBCHEM_EFFECTIVE_ROTOR_COUNT>
7.2

> <PUBCHEM_PHARMACOPHORE_FEATURES>
10
1 1 hydrophobe
1 2 acceptor
1 3 cation
1 4 donor
1 5 acceptor
3 5 6 18 cation
6 20 23 24 27 28 32 rings
6 22 25 26 29 30 31 rings
6 5 6 15 16 17 18 rings
8 3 7 8 9 10 11 12 13 rings

> <PUBCHEM_HEAVY_ATOM_COUNT>
33

> <PUBCHEM_ATOM_DEF_STEREO_COUNT>
3

> <PUBCHEM_ATOM_UDEF_STEREO_COUNT>
0

> <PUBCHEM_BOND_DEF_STEREO_COUNT>
0

> <PUBCHEM_BOND_UDEF_STEREO_COUNT>
0

> <PUBCHEM_ISOTOPIC_ATOM_COUNT>
0

> <PUBCHEM_COMPONENT_COUNT>
1

> <PUBCHEM_CACTVS_TAUTO_COUNT>
5

> <PUBCHEM_CONFORMER_ID>
026E359700000001

> <PUBCHEM_MMFF94_ENERGY>
98.2385

> <PUBCHEM_FEATURE_SELFOVERLAP>
50.746

> <PUBCHEM_SHAPE_FINGERPRINT>
10692045 39 16916797287918657159
11135926 11 17974559505769241932
11211813 15 7925618995457293406
11513181 2 17319592570785564691
11607047 141 18189347912897287329
117089 54 18336557035781882538
12107183 9 17417809586451532547
12422481 6 17988921171530379198
12633257 1 16773792644861817137
13103583 49 16988555849011013276
13150687 139 11242246325662135488
13673619 4 17603583062902217517
13690498 29 18113328696237423749
13947930 73 17969230095378480171
14251764 30 18334857229512443138
14767858 380 12757144688793781871
14950920 106 16128076958392341082
14955137 171 18411699919613555337
15064981 194 18124041135760779596
15274700 34 12174469570248849261
15510800 12 18335136488623633146
15669420 48 16081371882135078468
15684393 108 18334582330996118942
15721738 202 18113340817172800486
16120349 189 10519694610094985288
18335252 98 18413106161622495392
19246450 95 17560530482652445529
20501277 279 18201710813482551160
20775530 9 18338499881712931060
208703 8 18259706679707030972
21365058 113 17968098655005770485
21585481 104 14635417226801359303
21716022 299 17823153352852191868
23559900 14 17750517463501193069
25269216 80 17313391088669859359
255183 451 18114464556310751117
2838139 119 10592045739003413425
312425 54 16916491666688672474
335507 130 18342452661134348324
354706 132 17752497456188524470
4058900 60 17259613747544757676
4107672 100 17095515138023972453
437815 12 18333453166227835147
44880168 125 17917698090076570310
474113 269 18271234041697613391
513202 73 18272650100054998568
54039377 194 18411423886977600510
56633871 153 18130498708371051199
57527293 21 17346025775478987220
57816373 69 18116714213405026343
6009941 240 18115302272612411789
6058803 2 17270308044718469933
6679774 75 18270413800779247023
9896288 288 17985271776690529921
999808 66 18412546491932415706

> <PUBCHEM_SHAPE_MULTIPOLES>
659.27
21.48
4.16
2.16
15.41
3.38
-0.82
-25.43
4.23
2.65
-0.22
-1.69
-0.87
3.05

> <PUBCHEM_SHAPE_SELFOVERLAP>
1422.419

> <PUBCHEM_SHAPE_VOLUME>
372.4

> <PUBCHEM_COORDINATE_TYPE>
2
5
10

$$$$
