40780204
  -OEChem-12032416353D

 74 79  0     1  0  0  0  0  0999 V2000
    5.0027    2.3186   -2.8786 O   0  0  0  0  0  0  0  0  0  0  0  0
   -3.7693   -2.3070   -0.0021 O   0  0  0  0  0  0  0  0  0  0  0  0
   -9.7124    1.1133   -1.3822 O   0  0  0  0  0  0  0  0  0  0  0  0
    0.5469   -3.6432   -0.6456 N   0  0  2  0  0  0  0  0  0  0  0  0
    4.0755   -0.7391    0.9931 N   0  0  2  0  0  0  0  0  0  0  0  0
    5.0788    1.8446   -0.5868 N   0  0  0  0  0  0  0  0  0  0  0  0
   -1.9317   -1.3918    1.0644 N   0  0  0  0  0  0  0  0  0  0  0  0
   -3.8567   -0.1322    0.8773 N   0  0  0  0  0  0  0  0  0  0  0  0
    1.9965   -1.5107   -0.9895 C   0  0  2  0  0  0  0  0  0  0  0  0
    2.6884   -2.4980   -0.0222 C   0  0  2  0  0  0  0  0  0  0  0  0
    0.6031   -1.1517   -0.4412 C   0  0  0  0  0  0  0  0  0  0  0  0
   -0.2693   -2.4257   -0.3903 C   0  0  2  0  0  0  0  0  0  0  0  0
    1.7234   -3.6722    0.2568 C   0  0  0  0  0  0  0  0  0  0  0  0
    1.7844   -2.2608   -2.3184 C   0  0  0  0  0  0  0  0  0  0  0  0
    3.1603   -1.8458    1.2608 C   0  0  0  0  0  0  0  0  0  0  0  0
    1.0385   -3.5785   -2.0435 C   0  0  0  0  0  0  0  0  0  0  0  0
    6.4262   -0.0946    0.4059 C   0  0  2  0  0  0  0  0  0  0  0  0
    5.1130    1.3530    1.8825 C   0  0  1  0  0  0  0  0  0  0  0  0
    5.4127   -1.2341    0.6434 C   0  0  0  0  0  0  0  0  0  0  0  0
    4.1268    0.1893    2.1326 C   0  0  0  0  0  0  0  0  0  0  0  0
    6.5121    0.7928    1.6410 C   0  0  0  0  0  0  0  0  0  0  0  0
   -1.0639   -2.5187    0.9144 C   0  0  0  0  0  0  0  0  0  0  0  0
    6.0620    0.7752   -0.8050 C   0  0  0  0  0  0  0  0  0  0  0  0
    4.6577    2.1906    0.7019 C   0  0  0  0  0  0  0  0  0  0  0  0
    3.8424    3.2433    0.8863 C   0  0  0  0  0  0  0  0  0  0  0  0
    4.6584    2.5620   -1.7220 C   0  0  0  0  0  0  0  0  0  0  0  0
    3.3741    4.0143   -0.2306 C   0  0  0  0  0  0  0  0  0  0  0  0
    3.7369    3.7070   -1.4785 C   0  0  0  0  0  0  0  0  0  0  0  0
   -3.2543   -1.3595    0.5865 C   0  0  0  0  0  0  0  0  0  0  0  0
   -5.1713    0.2853    0.5640 C   0  0  0  0  0  0  0  0  0  0  0  0
   -5.6051    1.5581    0.9350 C   0  0  0  0  0  0  0  0  0  0  0  0
   -6.0339   -0.5751   -0.1152 C   0  0  0  0  0  0  0  0  0  0  0  0
   -6.9015    1.9704    0.6268 C   0  0  0  0  0  0  0  0  0  0  0  0
   -7.3304   -0.1629   -0.4232 C   0  0  0  0  0  0  0  0  0  0  0  0
   -7.7643    1.1099   -0.0521 C   0  0  0  0  0  0  0  0  0  0  0  0
   -9.1160    1.5397   -0.3733 C   0  0  0  0  0  0  0  0  0  0  0  0
   -9.8409    2.5341    0.5276 C   0  0  0  0  0  0  0  0  0  0  0  0
    2.5893   -0.6077   -1.1661 H   0  0  0  0  0  0  0  0  0  0  0  0
    3.5558   -2.9245   -0.5434 H   0  0  0  0  0  0  0  0  0  0  0  0
    0.6955   -0.6717    0.5386 H   0  0  0  0  0  0  0  0  0  0  0  0
    0.1297   -0.4165   -1.1044 H   0  0  0  0  0  0  0  0  0  0  0  0
   -1.0128   -2.3544   -1.1982 H   0  0  0  0  0  0  0  0  0  0  0  0
    2.2582   -4.6205    0.1134 H   0  0  0  0  0  0  0  0  0  0  0  0
    1.3991   -3.6946    1.3032 H   0  0  0  0  0  0  0  0  0  0  0  0
    2.7484   -2.4709   -2.7963 H   0  0  0  0  0  0  0  0  0  0  0  0
    1.2066   -1.6380   -3.0120 H   0  0  0  0  0  0  0  0  0  0  0  0
    3.6279   -2.5906    1.9192 H   0  0  0  0  0  0  0  0  0  0  0  0
    2.2859   -1.4812    1.8140 H   0  0  0  0  0  0  0  0  0  0  0  0
    0.1980   -3.6838   -2.7407 H   0  0  0  0  0  0  0  0  0  0  0  0
    1.6952   -4.4342   -2.2457 H   0  0  0  0  0  0  0  0  0  0  0  0
    7.4040   -0.5555    0.2175 H   0  0  0  0  0  0  0  0  0  0  0  0
    5.1466    1.9764    2.7858 H   0  0  0  0  0  0  0  0  0  0  0  0
    5.3756   -1.8378   -0.2698 H   0  0  0  0  0  0  0  0  0  0  0  0
    5.8002   -1.8837    1.4403 H   0  0  0  0  0  0  0  0  0  0  0  0
    4.4239   -0.3435    3.0462 H   0  0  0  0  0  0  0  0  0  0  0  0
    3.1267    0.6039    2.3143 H   0  0  0  0  0  0  0  0  0  0  0  0
    7.2397    1.6003    1.4918 H   0  0  0  0  0  0  0  0  0  0  0  0
    6.8485    0.2121    2.5086 H   0  0  0  0  0  0  0  0  0  0  0  0
   -0.4099   -2.5294    1.7920 H   0  0  0  0  0  0  0  0  0  0  0  0
   -1.6627   -3.4365    0.9307 H   0  0  0  0  0  0  0  0  0  0  0  0
    6.9717    1.2788   -1.1596 H   0  0  0  0  0  0  0  0  0  0  0  0
    5.7189    0.1514   -1.6401 H   0  0  0  0  0  0  0  0  0  0  0  0
   -1.5726   -0.5692    1.5392 H   0  0  0  0  0  0  0  0  0  0  0  0
    3.4956    3.5286    1.8739 H   0  0  0  0  0  0  0  0  0  0  0  0
    2.7088    4.8476   -0.0347 H   0  0  0  0  0  0  0  0  0  0  0  0
    3.3879    4.2771   -2.3313 H   0  0  0  0  0  0  0  0  0  0  0  0
   -3.2874    0.5489    1.3733 H   0  0  0  0  0  0  0  0  0  0  0  0
   -4.9418    2.2392    1.4622 H   0  0  0  0  0  0  0  0  0  0  0  0
   -5.7716   -1.5739   -0.4340 H   0  0  0  0  0  0  0  0  0  0  0  0
   -7.2088    2.9715    0.9164 H   0  0  0  0  0  0  0  0  0  0  0  0
   -7.9908   -0.8477   -0.9493 H   0  0  0  0  0  0  0  0  0  0  0  0
   -9.6270    3.5526    0.1946 H   0  0  0  0  0  0  0  0  0  0  0  0
   -9.5406    2.4036    1.5708 H   0  0  0  0  0  0  0  0  0  0  0  0
  -10.9177    2.3484    0.4701 H   0  0  0  0  0  0  0  0  0  0  0  0
  1 26  2  0  0  0  0
  2 29  2  0  0  0  0
  3 36  2  0  0  0  0
  4 12  1  0  0  0  0
  4 13  1  0  0  0  0
  4 16  1  0  0  0  0
  5 15  1  0  0  0  0
  5 19  1  0  0  0  0
  5 20  1  0  0  0  0
  6 23  1  0  0  0  0
  6 24  1  0  0  0  0
  6 26  1  0  0  0  0
  7 22  1  0  0  0  0
  7 29  1  0  0  0  0
  7 63  1  0  0  0  0
  8 29  1  0  0  0  0
  8 30  1  0  0  0  0
  8 67  1  0  0  0  0
  9 10  1  0  0  0  0
  9 11  1  0  0  0  0
  9 14  1  0  0  0  0
  9 38  1  0  0  0  0
 10 13  1  0  0  0  0
 10 15  1  0  0  0  0
 10 39  1  0  0  0  0
 11 12  1  0  0  0  0
 11 40  1  0  0  0  0
 11 41  1  0  0  0  0
 12 22  1  0  0  0  0
 12 42  1  0  0  0  0
 13 43  1  0  0  0  0
 13 44  1  0  0  0  0
 14 16  1  0  0  0  0
 14 45  1  0  0  0  0
 14 46  1  0  0  0  0
 15 47  1  0  0  0  0
 15 48  1  0  0  0  0
 16 49  1  0  0  0  0
 16 50  1  0  0  0  0
 17 19  1  0  0  0  0
 17 21  1  0  0  0  0
 17 23  1  0  0  0  0
 17 51  1  0  0  0  0
 18 20  1  0  0  0  0
 18 21  1  0  0  0  0
 18 24  1  0  0  0  0
 18 52  1  0  0  0  0
 19 53  1  0  0  0  0
 19 54  1  0  0  0  0
 20 55  1  0  0  0  0
 20 56  1  0  0  0  0
 21 57  1  0  0  0  0
 21 58  1  0  0  0  0
 22 59  1  0  0  0  0
 22 60  1  0  0  0  0
 23 61  1  0  0  0  0
 23 62  1  0  0  0  0
 24 25  2  0  0  0  0
 25 27  1  0  0  0  0
 25 64  1  0  0  0  0
 26 28  1  0  0  0  0
 27 28  2  0  0  0  0
 27 65  1  0  0  0  0
 28 66  1  0  0  0  0
 30 31  2  0  0  0  0
 30 32  1  0  0  0  0
 31 33  1  0  0  0  0
 31 68  1  0  0  0  0
 32 34  2  0  0  0  0
 32 69  1  0  0  0  0
 33 35  2  0  0  0  0
 33 70  1  0  0  0  0
 34 35  1  0  0  0  0
 34 71  1  0  0  0  0
 35 36  1  0  0  0  0
 36 37  1  0  0  0  0
 37 72  1  0  0  0  0
 37 73  1  0  0  0  0
 37 74  1  0  0  0  0
M  END
> <PUBCHEM_COMPOUND_CID>
40780204

> <PUBCHEM_CONFORMER_RMSD>
1

> <PUBCHEM_CONFORMER_DIVERSEORDER>
1
97
153
129
82
113
124
152
33
19
133
42
121
87
102
158
98
84
130
163
43
78
24
146
160
132
93
139
62
95
92
105
116
65
26
144
46
134
167
74
10
83
60
32
79
4
148
162
157
106
57
27
156
56
112
44
147
23
31
101
12
58
69
30
107
99
5
96
135
20
45
3
103
90
94
128
125
66
52
22
54
123
137
18
161
140
115
61
68
15
70
165
145
118
108
122
88
11
166
37
86
28
36
100
81
104
53
149
114
77
131
48
59
126
29
155
110
55
25
63
2
85
142
38
72
89
120
127
73
7
80
40
75
16
141
150
117
41
143
8
151
13
21
9
64
119
67
136
39
50
138
14
111
154
51
159
49
47
34
35
6
91
71
164
76
109
17

> <PUBCHEM_MMFF94_PARTIAL_CHARGES>
40
1 -0.57
12 0.27
13 0.27
15 0.27
16 0.27
18 0.14
19 0.27
2 -0.57
20 0.27
22 0.3
23 0.3
24 -0.03
25 -0.15
26 0.62
27 -0.15
28 -0.14
29 0.69
3 -0.57
30 0.12
31 -0.15
32 -0.15
33 -0.15
34 -0.15
35 0.09
36 0.42
37 0.06
4 -0.81
5 -0.81
6 -0.47
63 0.37
64 0.15
65 0.15
66 0.15
67 0.37
68 0.15
69 0.15
7 -0.73
70 0.15
71 0.15
8 -0.55

> <PUBCHEM_EFFECTIVE_ROTOR_COUNT>
10.2

> <PUBCHEM_PHARMACOPHORE_FEATURES>
12
1 1 acceptor
1 2 acceptor
1 3 acceptor
1 4 cation
1 5 cation
1 7 donor
1 8 donor
6 30 31 32 33 34 35 rings
6 5 17 18 19 20 21 rings
6 6 17 18 21 23 24 rings
6 6 24 25 26 27 28 rings
8 4 9 10 11 12 13 14 16 rings

> <PUBCHEM_HEAVY_ATOM_COUNT>
37

> <PUBCHEM_ATOM_DEF_STEREO_COUNT>
5

> <PUBCHEM_ATOM_UDEF_STEREO_COUNT>
0

> <PUBCHEM_BOND_DEF_STEREO_COUNT>
0

> <PUBCHEM_BOND_UDEF_STEREO_COUNT>
0

> <PUBCHEM_ISOTOPIC_ATOM_COUNT>
0

> <PUBCHEM_COMPONENT_COUNT>
1

> <PUBCHEM_CACTVS_TAUTO_COUNT>
48

> <PUBCHEM_CONFORMER_ID>
026E41AC00000001

> <PUBCHEM_MMFF94_ENERGY>
99.1966

> <PUBCHEM_FEATURE_SELFOVERLAP>
62.499

> <PUBCHEM_SHAPE_FINGERPRINT>
10673678 19 18202281415996665315
10763959 59 18411704296760236514
10811444 77 18411420617985326705
10816530 90 18336555953576153132
11505856 67 17690567802824589070
11578821 258 18266737971396436165
11828532 37 16486687090622114418
12047536 79 14779538023993663607
12422481 6 17749103434800552421
12925494 130 18336827605735875971
13553644 42 11455624149861937105
14040221 304 17060048246769822829
14117953 113 18412831270250537020
14142895 15 18343294878461865591
14395042 70 15575294185183339348
15064981 194 18272939362641146387
15082195 135 18130517340118658831
15444296 9 18260261924278665893
15475509 35 8214140733431710694
16096371 109 17677330503148881787
20691028 202 18410852196438722819
22122407 14 18189621707960296058
27425 322 18259983782191698523
3918712 181 18341055215060655773
4112364 45 17676492761087238487
444735 82 18339643331399841049
5109719 28 18337403703328079883

> <PUBCHEM_SHAPE_MULTIPOLES>
718.93
26.22
5.03
1.87
73.08
0.06
0.72
24.85
-0.95
-4.81
1.75
-3.17
0.3
-1.12

> <PUBCHEM_SHAPE_SELFOVERLAP>
1555.155

> <PUBCHEM_SHAPE_VOLUME>
382.2

> <PUBCHEM_COORDINATE_TYPE>
2
5
10

$$$$
