28960198
  -OEChem-12032416333D

 76 79  0     1  0  0  0  0  0999 V2000
    0.7472    5.1830    0.0830 O   0  0  0  0  0  0  0  0  0  0  0  0
    5.0748   -1.8173    0.0258 O   0  0  0  0  0  0  0  0  0  0  0  0
    4.0152   -1.4557   -1.9559 O   0  0  0  0  0  0  0  0  0  0  0  0
   -5.2453   -3.4477   -1.5987 O   0  0  0  0  0  0  0  0  0  0  0  0
   -4.4780    2.0144    1.4326 O   0  0  0  0  0  0  0  0  0  0  0  0
    1.3682    3.1507   -0.8957 N   0  0  0  0  0  0  0  0  0  0  0  0
    0.4126   -1.1589    0.6535 N   0  0  3  0  0  0  0  0  0  0  0  0
   -3.0183   -2.0411   -0.5200 N   0  0  0  0  0  0  0  0  0  0  0  0
    2.1617    0.8071   -0.6643 C   0  0  2  0  0  0  0  0  0  0  0  0
    3.5670    1.2795   -1.1167 C   0  0  1  0  0  0  0  0  0  0  0  0
    3.7988    2.7635   -0.7854 C   0  0  0  0  0  0  0  0  0  0  0  0
    1.0838    1.7486   -1.2323 C   0  0  0  0  0  0  0  0  0  0  0  0
    2.0080    0.6777    0.8564 C   0  0  0  0  0  0  0  0  0  0  0  0
    2.6744    3.6353   -1.3377 C   0  0  0  0  0  0  0  0  0  0  0  0
    4.6993    0.4192   -0.5565 C   0  0  0  0  0  0  0  0  0  0  0  0
    0.6469    0.1306    1.2573 C   0  0  0  0  0  0  0  0  0  0  0  0
    0.5110    4.0109   -0.2055 C   0  0  0  0  0  0  0  0  0  0  0  0
    4.5400   -1.0262   -0.9396 C   0  0  0  0  0  0  0  0  0  0  0  0
   -0.6941   -1.2978   -0.2950 C   0  0  0  0  0  0  0  0  0  0  0  0
   -1.9006   -1.9027    0.4113 C   0  0  0  0  0  0  0  0  0  0  0  0
    1.2222   -2.2642    0.9516 C   0  0  0  0  0  0  0  0  0  0  0  0
   -0.7917    3.4893    0.2226 C   0  0  0  0  0  0  0  0  0  0  0  0
   -4.2932   -2.1335    0.2051 C   0  0  0  0  0  0  0  0  0  0  0  0
   -2.8400   -3.2210   -1.3775 C   0  0  0  0  0  0  0  0  0  0  0  0
    1.8254   -2.3693    2.2050 C   0  0  0  0  0  0  0  0  0  0  0  0
    1.4246   -3.2587   -0.0053 C   0  0  0  0  0  0  0  0  0  0  0  0
   -1.6976    3.0133   -0.7254 C   0  0  0  0  0  0  0  0  0  0  0  0
   -1.1247    3.4694    1.5770 C   0  0  0  0  0  0  0  0  0  0  0  0
   -5.4428   -2.2899   -0.7862 C   0  0  0  0  0  0  0  0  0  0  0  0
   -4.0237   -3.3507   -2.3319 C   0  0  0  0  0  0  0  0  0  0  0  0
    2.6310   -3.4689    2.5014 C   0  0  0  0  0  0  0  0  0  0  0  0
    2.2300   -4.3583    0.2911 C   0  0  0  0  0  0  0  0  0  0  0  0
   -2.9365    2.5176   -0.3188 C   0  0  0  0  0  0  0  0  0  0  0  0
   -2.3633    2.9736    1.9835 C   0  0  0  0  0  0  0  0  0  0  0  0
    2.8332   -4.4633    1.5444 C   0  0  0  0  0  0  0  0  0  0  0  0
   -3.2693    2.4978    1.0357 C   0  0  0  0  0  0  0  0  0  0  0  0
   -5.3563    1.5439    0.4111 C   0  0  0  0  0  0  0  0  0  0  0  0
    1.9836   -0.1735   -1.1191 H   0  0  0  0  0  0  0  0  0  0  0  0
    3.5947    1.1899   -2.2132 H   0  0  0  0  0  0  0  0  0  0  0  0
    1.1011    1.6910   -2.3288 H   0  0  0  0  0  0  0  0  0  0  0  0
    0.0928    1.4349   -0.9437 H   0  0  0  0  0  0  0  0  0  0  0  0
    4.7544    3.0978   -1.2063 H   0  0  0  0  0  0  0  0  0  0  0  0
    3.8656    2.8991    0.3010 H   0  0  0  0  0  0  0  0  0  0  0  0
    2.7913    0.0345    1.2657 H   0  0  0  0  0  0  0  0  0  0  0  0
    2.1419    1.6525    1.3403 H   0  0  0  0  0  0  0  0  0  0  0  0
    2.8284    4.6747   -1.0305 H   0  0  0  0  0  0  0  0  0  0  0  0
    2.6774    3.6152   -2.4339 H   0  0  0  0  0  0  0  0  0  0  0  0
    5.6615    0.7537   -0.9626 H   0  0  0  0  0  0  0  0  0  0  0  0
    4.7628    0.5160    0.5324 H   0  0  0  0  0  0  0  0  0  0  0  0
   -0.1537    0.8278    1.0099 H   0  0  0  0  0  0  0  0  0  0  0  0
    0.5862    0.0657    2.3503 H   0  0  0  0  0  0  0  0  0  0  0  0
   -0.9966   -0.3137   -0.6678 H   0  0  0  0  0  0  0  0  0  0  0  0
   -0.4041   -1.8371   -1.1982 H   0  0  0  0  0  0  0  0  0  0  0  0
   -1.6544   -2.8605    0.8878 H   0  0  0  0  0  0  0  0  0  0  0  0
   -2.1770   -1.2202    1.2271 H   0  0  0  0  0  0  0  0  0  0  0  0
   -4.4595   -1.2423    0.8176 H   0  0  0  0  0  0  0  0  0  0  0  0
   -4.2774   -3.0003    0.8793 H   0  0  0  0  0  0  0  0  0  0  0  0
   -2.7694   -4.1298   -0.7654 H   0  0  0  0  0  0  0  0  0  0  0  0
   -1.9282   -3.1481   -1.9779 H   0  0  0  0  0  0  0  0  0  0  0  0
    4.9861   -2.7697   -0.1916 H   0  0  0  0  0  0  0  0  0  0  0  0
    1.6825   -1.6293    2.9857 H   0  0  0  0  0  0  0  0  0  0  0  0
    1.0064   -3.2175   -1.0043 H   0  0  0  0  0  0  0  0  0  0  0  0
   -1.4651    3.0441   -1.7871 H   0  0  0  0  0  0  0  0  0  0  0  0
   -0.4257    3.8337    2.3255 H   0  0  0  0  0  0  0  0  0  0  0  0
   -6.3857   -2.4202   -0.2454 H   0  0  0  0  0  0  0  0  0  0  0  0
   -5.5482   -1.4072   -1.4283 H   0  0  0  0  0  0  0  0  0  0  0  0
   -4.0790   -2.5030   -3.0257 H   0  0  0  0  0  0  0  0  0  0  0  0
   -3.9222   -4.2620   -2.9299 H   0  0  0  0  0  0  0  0  0  0  0  0
    3.0985   -3.5528    3.4781 H   0  0  0  0  0  0  0  0  0  0  0  0
    2.3939   -5.1295   -0.4560 H   0  0  0  0  0  0  0  0  0  0  0  0
   -3.5957    2.1748   -1.1088 H   0  0  0  0  0  0  0  0  0  0  0  0
   -2.6164    2.9593    3.0401 H   0  0  0  0  0  0  0  0  0  0  0  0
    3.4616   -5.3187    1.7746 H   0  0  0  0  0  0  0  0  0  0  0  0
   -4.9109    0.7388   -0.1784 H   0  0  0  0  0  0  0  0  0  0  0  0
   -6.2408    1.1309    0.9064 H   0  0  0  0  0  0  0  0  0  0  0  0
   -5.6959    2.3689   -0.2245 H   0  0  0  0  0  0  0  0  0  0  0  0
  1 17  2  0  0  0  0
  2 18  1  0  0  0  0
  2 60  1  0  0  0  0
  3 18  2  0  0  0  0
  4 29  1  0  0  0  0
  4 30  1  0  0  0  0
  5 36  1  0  0  0  0
  5 37  1  0  0  0  0
  6 12  1  0  0  0  0
  6 14  1  0  0  0  0
  6 17  1  0  0  0  0
  7 16  1  0  0  0  0
  7 19  1  0  0  0  0
  7 21  1  0  0  0  0
  8 20  1  0  0  0  0
  8 23  1  0  0  0  0
  8 24  1  0  0  0  0
  9 10  1  0  0  0  0
  9 12  1  0  0  0  0
  9 13  1  0  0  0  0
  9 38  1  0  0  0  0
 10 11  1  0  0  0  0
 10 15  1  0  0  0  0
 10 39  1  0  0  0  0
 11 14  1  0  0  0  0
 11 42  1  0  0  0  0
 11 43  1  0  0  0  0
 12 40  1  0  0  0  0
 12 41  1  0  0  0  0
 13 16  1  0  0  0  0
 13 44  1  0  0  0  0
 13 45  1  0  0  0  0
 14 46  1  0  0  0  0
 14 47  1  0  0  0  0
 15 18  1  0  0  0  0
 15 48  1  0  0  0  0
 15 49  1  0  0  0  0
 16 50  1  0  0  0  0
 16 51  1  0  0  0  0
 17 22  1  0  0  0  0
 19 20  1  0  0  0  0
 19 52  1  0  0  0  0
 19 53  1  0  0  0  0
 20 54  1  0  0  0  0
 20 55  1  0  0  0  0
 21 25  2  0  0  0  0
 21 26  1  0  0  0  0
 22 27  2  0  0  0  0
 22 28  1  0  0  0  0
 23 29  1  0  0  0  0
 23 56  1  0  0  0  0
 23 57  1  0  0  0  0
 24 30  1  0  0  0  0
 24 58  1  0  0  0  0
 24 59  1  0  0  0  0
 25 31  1  0  0  0  0
 25 61  1  0  0  0  0
 26 32  2  0  0  0  0
 26 62  1  0  0  0  0
 27 33  1  0  0  0  0
 27 63  1  0  0  0  0
 28 34  2  0  0  0  0
 28 64  1  0  0  0  0
 29 65  1  0  0  0  0
 29 66  1  0  0  0  0
 30 67  1  0  0  0  0
 30 68  1  0  0  0  0
 31 35  2  0  0  0  0
 31 69  1  0  0  0  0
 32 35  1  0  0  0  0
 32 70  1  0  0  0  0
 33 36  2  0  0  0  0
 33 71  1  0  0  0  0
 34 36  1  0  0  0  0
 34 72  1  0  0  0  0
 35 73  1  0  0  0  0
 37 74  1  0  0  0  0
 37 75  1  0  0  0  0
 37 76  1  0  0  0  0
M  END
> <PUBCHEM_COMPOUND_CID>
28960198

> <PUBCHEM_CONFORMER_RMSD>
1.2

> <PUBCHEM_CONFORMER_DIVERSEORDER>
6
102
29
35
21
142
61
100
114
153
34
133
83
151
58
139
32
118
89
132
69
73
140
44
156
125
66
42
105
38
81
121
79
62
117
85
65
39
77
17
124
95
141
113
137
150
154
47
98
88
119
145
59
14
152
96
92
33
146
84
28
107
147
74
101
76
99
157
148
57
128
9
130
50
11
78
136
46
15
144
68
115
25
129
64
82
3
36
104
23
138
91
48
4
110
135
37
60
108
120
51
75
20
94
131
72
123
134
70
41
71
80
155
53
143
27
97
93
49
116
87
52
103
24
149
31
109
122
126
43
112
8
30
10
54
1
7
16
55
18
5
63
111
19
12
56
13
26
2
106
67
90
127
45
22
86
40

> <PUBCHEM_MMFF94_PARTIAL_CHARGES>
43
1 -0.57
12 0.3
14 0.3
15 0.06
16 0.37
17 0.54
18 0.66
19 0.37
2 -0.65
20 0.27
21 0.1
22 0.09
23 0.27
24 0.27
25 -0.15
26 -0.15
27 -0.15
28 -0.15
29 0.28
3 -0.57
30 0.28
31 -0.15
32 -0.15
33 -0.15
34 -0.15
35 -0.15
36 0.08
37 0.28
4 -0.56
5 -0.36
6 -0.66
60 0.5
61 0.15
62 0.15
63 0.15
64 0.15
69 0.15
7 -0.84
70 0.15
71 0.15
72 0.15
73 0.15
8 -0.81

> <PUBCHEM_EFFECTIVE_ROTOR_COUNT>
14.4

> <PUBCHEM_PHARMACOPHORE_FEATURES>
12
1 1 acceptor
1 2 acceptor
1 3 acceptor
1 4 acceptor
1 5 acceptor
1 7 cation
1 8 cation
3 2 3 18 anion
6 21 25 26 31 32 35 rings
6 22 27 28 33 34 36 rings
6 4 8 23 24 29 30 rings
6 6 9 10 11 12 14 rings

> <PUBCHEM_HEAVY_ATOM_COUNT>
37

> <PUBCHEM_ATOM_DEF_STEREO_COUNT>
2

> <PUBCHEM_ATOM_UDEF_STEREO_COUNT>
0

> <PUBCHEM_BOND_DEF_STEREO_COUNT>
0

> <PUBCHEM_BOND_UDEF_STEREO_COUNT>
0

> <PUBCHEM_ISOTOPIC_ATOM_COUNT>
0

> <PUBCHEM_COMPONENT_COUNT>
1

> <PUBCHEM_CACTVS_TAUTO_COUNT>
1

> <PUBCHEM_CONFORMER_ID>
01B9E5C600000006

> <PUBCHEM_MMFF94_ENERGY>
113.6337

> <PUBCHEM_FEATURE_SELFOVERLAP>
60.955

> <PUBCHEM_SHAPE_FINGERPRINT>
10653451 467 15096464111911973915
10675989 125 18192149511088885366
1100329 8 18410584980484740789
11285246 1 18122643900302312926
11421498 54 18338794649550710683
11513181 2 18127709324548952228
12788726 201 18124044682812181708
13140716 1 18334591131057008176
13757389 114 17691122630889287046
14117953 113 17617935838847353213
15297060 5 17414447086667816633
15351339 4 18195240255586366905
15484559 13 17476335671502563967
15927050 60 18048605820505147678
20028762 73 18410302380584918044
20600515 1 16455377225647862155
20642791 13 18340490058279410852
20764821 26 18263381277447615548
354706 35 15809729450974625389
437795 70 17981919396155542806
4403749 210 16966022144638293402
463206 1 18336559234947634313
508706 21 16318363134841198519

> <PUBCHEM_SHAPE_MULTIPOLES>
717.15
9.84
7.95
1.96
6.01
0.73
-0.36
-5.49
2.83
0.64
-0.36
0.03
-1.09
-5.46

> <PUBCHEM_SHAPE_SELFOVERLAP>
1505.925

> <PUBCHEM_SHAPE_VOLUME>
401.4

> <PUBCHEM_COORDINATE_TYPE>
2
5
10

$$$$
