75536581
  -OEChem-12032416333D

 44 45  0     1  0  0  0  0  0999 V2000
    1.4184    1.1350    0.2170 O   0  0  0  0  0  0  0  0  0  0  0  0
    0.5057   -2.2476   -0.5773 O   0  0  0  0  0  0  0  0  0  0  0  0
    5.0835   -1.4331   -0.1242 O   0  0  0  0  0  0  0  0  0  0  0  0
   -4.0781    2.0842   -0.5111 O   0  0  0  0  0  0  0  0  0  0  0  0
    7.2663   -0.0691    0.6647 O   0  0  0  0  0  0  0  0  0  0  0  0
   -1.9108   -0.2924   -0.1151 N   0  0  0  0  0  0  0  0  0  0  0  0
    4.0095    0.4971   -0.8561 N   0  0  0  0  0  0  0  0  0  0  0  0
   -0.5257   -0.2256    0.3216 C   0  0  1  0  0  0  0  0  0  0  0  0
    0.4536   -0.8368   -0.6634 C   0  0  1  0  0  0  0  0  0  0  0  0
    1.7590   -0.1922   -0.2174 C   0  0  1  0  0  0  0  0  0  0  0  0
   -0.0042    1.1986    0.4197 C   0  0  0  0  0  0  0  0  0  0  0  0
    2.8004   -0.1200   -1.3200 C   0  0  0  0  0  0  0  0  0  0  0  0
   -2.8230   -0.0096    0.9866 C   0  0  0  0  0  0  0  0  0  0  0  0
   -4.2627   -0.0580    0.5488 C   0  0  0  0  0  0  0  0  0  0  0  0
    5.0621   -0.2166   -0.2909 C   0  0  0  0  0  0  0  0  0  0  0  0
   -4.8220    0.9918   -0.1796 C   0  0  0  0  0  0  0  0  0  0  0  0
   -5.0391   -1.1685    0.8799 C   0  0  0  0  0  0  0  0  0  0  0  0
    6.2108    0.6851    0.1078 C   0  0  0  0  0  0  0  0  0  0  0  0
   -6.1576    0.9311   -0.5771 C   0  0  0  0  0  0  0  0  0  0  0  0
   -6.3748   -1.2292    0.4825 C   0  0  0  0  0  0  0  0  0  0  0  0
   -6.9341   -0.1794   -0.2460 C   0  0  0  0  0  0  0  0  0  0  0  0
    8.3628    0.7552    1.0496 C   0  0  0  0  0  0  0  0  0  0  0  0
   -0.4058   -0.7425    1.2843 H   0  0  0  0  0  0  0  0  0  0  0  0
    0.2048   -0.5544   -1.6940 H   0  0  0  0  0  0  0  0  0  0  0  0
    2.1777   -0.7218    0.6485 H   0  0  0  0  0  0  0  0  0  0  0  0
   -0.4132    1.8470   -0.3640 H   0  0  0  0  0  0  0  0  0  0  0  0
   -0.2114    1.6587    1.3905 H   0  0  0  0  0  0  0  0  0  0  0  0
    2.4401    0.4965   -2.1508 H   0  0  0  0  0  0  0  0  0  0  0  0
    3.0283   -1.1207   -1.7021 H   0  0  0  0  0  0  0  0  0  0  0  0
   -2.1031   -1.2293   -0.4707 H   0  0  0  0  0  0  0  0  0  0  0  0
   -2.6269    0.9810    1.4164 H   0  0  0  0  0  0  0  0  0  0  0  0
   -2.6670   -0.7286    1.8017 H   0  0  0  0  0  0  0  0  0  0  0  0
    0.7251   -2.4902    0.3382 H   0  0  0  0  0  0  0  0  0  0  0  0
    4.0883    1.5066   -0.9390 H   0  0  0  0  0  0  0  0  0  0  0  0
   -4.6174   -1.9956    1.4449 H   0  0  0  0  0  0  0  0  0  0  0  0
    6.5613    1.2157   -0.7852 H   0  0  0  0  0  0  0  0  0  0  0  0
    5.8421    1.4109    0.8419 H   0  0  0  0  0  0  0  0  0  0  0  0
   -6.6064    1.7417   -1.1450 H   0  0  0  0  0  0  0  0  0  0  0  0
   -6.9793   -2.0941    0.7398 H   0  0  0  0  0  0  0  0  0  0  0  0
   -7.9741   -0.2268   -0.5554 H   0  0  0  0  0  0  0  0  0  0  0  0
   -4.6325    2.7051   -1.0141 H   0  0  0  0  0  0  0  0  0  0  0  0
    8.0500    1.4753    1.8118 H   0  0  0  0  0  0  0  0  0  0  0  0
    8.7709    1.2786    0.1796 H   0  0  0  0  0  0  0  0  0  0  0  0
    9.1422    0.1149    1.4710 H   0  0  0  0  0  0  0  0  0  0  0  0
  1 10  1  0  0  0  0
  1 11  1  0  0  0  0
  2  9  1  0  0  0  0
  2 33  1  0  0  0  0
  3 15  2  0  0  0  0
  4 16  1  0  0  0  0
  4 41  1  0  0  0  0
  5 18  1  0  0  0  0
  5 22  1  0  0  0  0
  6  8  1  0  0  0  0
  6 13  1  0  0  0  0
  6 30  1  0  0  0  0
  7 12  1  0  0  0  0
  7 15  1  0  0  0  0
  7 34  1  0  0  0  0
  8  9  1  0  0  0  0
  8 11  1  0  0  0  0
  8 23  1  0  0  0  0
  9 10  1  0  0  0  0
  9 24  1  0  0  0  0
 10 12  1  0  0  0  0
 10 25  1  0  0  0  0
 11 26  1  0  0  0  0
 11 27  1  0  0  0  0
 12 28  1  0  0  0  0
 12 29  1  0  0  0  0
 13 14  1  0  0  0  0
 13 31  1  0  0  0  0
 13 32  1  0  0  0  0
 14 16  1  0  0  0  0
 14 17  2  0  0  0  0
 15 18  1  0  0  0  0
 16 19  2  0  0  0  0
 17 20  1  0  0  0  0
 17 35  1  0  0  0  0
 18 36  1  0  0  0  0
 18 37  1  0  0  0  0
 19 21  1  0  0  0  0
 19 38  1  0  0  0  0
 20 21  2  0  0  0  0
 20 39  1  0  0  0  0
 21 40  1  0  0  0  0
 22 42  1  0  0  0  0
 22 43  1  0  0  0  0
 22 44  1  0  0  0  0
M  END
> <PUBCHEM_COMPOUND_CID>
75536581

> <PUBCHEM_CONFORMER_RMSD>
0.8

> <PUBCHEM_CONFORMER_DIVERSEORDER>
1
274
173
164
230
256
90
96
193
83
198
27
257
202
264
240
126
280
258
82
102
130
245
188
190
272
140
110
169
250
179
266
22
151
270
225
267
247
204
284
176
216
244
233
116
217
223
167
184
275
248
214
97
159
108
95
29
98
142
124
213
243
260
131
148
9
210
206
194
236
63
153
226
99
33
189
177
19
286
207
162
32
287
271
156
26
92
35
10
56
67
61
112
43
192
249
238
135
150
281
100
209
161
285
15
282
262
220
235
211
168
182
170
200
178
196
94
234
106
136
165
71
73
4
195
232
253
18
123
59
107
80
158
145
125
133
24
113
180
197
155
199
215
62
79
70
39
101
137
203
218
268
139
154
117
171
174
242
38
23
103
115
85
109
3
283
55
269
157
114
228
208
144
69
47
72
237
229
186
172
152
57
66
261
45
87
222
201
146
91
120
88
21
76
128
147
259
276
279
278
28
254
40
86
17
255
77
251
46
84
132
75
13
160
212
191
93
134
74
277
34
68
118
221
239
263
231
60
16
36
119
252
81
185
265
49
121
166
273
53
64
25
183
219
149
50
65
78
129
138
246
181
41
227
122
48
111
89
7
205
175
241
163
44
104
11
105
42
143
54
51
224
20
31
58
37
127
187
141
6
30
2
14
52
12
8
5

> <PUBCHEM_MMFF94_PARTIAL_CHARGES>
30
1 -0.56
10 0.28
11 0.28
12 0.3
13 0.41
14 -0.14
15 0.57
16 0.08
17 -0.15
18 0.34
19 -0.15
2 -0.68
20 -0.15
21 -0.15
22 0.28
3 -0.57
30 0.36
33 0.4
34 0.37
35 0.15
38 0.15
39 0.15
4 -0.53
40 0.15
41 0.45
5 -0.56
6 -0.9
7 -0.73
8 0.27
9 0.28

> <PUBCHEM_EFFECTIVE_ROTOR_COUNT>
9

> <PUBCHEM_PHARMACOPHORE_FEATURES>
11
1 1 acceptor
1 2 acceptor
1 2 donor
1 3 acceptor
1 4 donor
1 5 acceptor
1 6 cation
1 6 donor
1 7 donor
5 1 8 9 10 11 rings
6 14 16 17 19 20 21 rings

> <PUBCHEM_HEAVY_ATOM_COUNT>
22

> <PUBCHEM_ATOM_DEF_STEREO_COUNT>
3

> <PUBCHEM_ATOM_UDEF_STEREO_COUNT>
0

> <PUBCHEM_BOND_DEF_STEREO_COUNT>
0

> <PUBCHEM_BOND_UDEF_STEREO_COUNT>
0

> <PUBCHEM_ISOTOPIC_ATOM_COUNT>
0

> <PUBCHEM_COMPONENT_COUNT>
1

> <PUBCHEM_CACTVS_TAUTO_COUNT>
6

> <PUBCHEM_CONFORMER_ID>
048098C500000001

> <PUBCHEM_MMFF94_ENERGY>
45.534

> <PUBCHEM_FEATURE_SELFOVERLAP>
55.83

> <PUBCHEM_SHAPE_FINGERPRINT>
10 15 18411697716875321424
106641 1 18131350851752948794
10968037 39 15052014563678304733
11089746 13 16153712037528666301
11315181 36 17240489130511829749
11719270 70 18412825759322725846
12091667 2 17894353285244300515
12236239 1 15575002801205366087
13073987 5 17988652834885046091
13533116 47 18187365364562185722
13885169 127 17749385944964659404
14123256 10 16272208591913713072
14251764 18 17312824892417364588
14251764 46 18410573993741392241
14849402 71 15482383261638541394
15183329 4 16877949312884023958
15419008 47 18272364270003536792
15716309 27 14692576494264592845
15849732 13 18411419523058335942
19489759 90 17894353276517410593
200 152 17775571919041061449
21150785 3 16773792610422788644
21365058 27 14836406942898930933
21521721 280 17203610406340505626
22224240 67 17346877867020291366
23035841 295 10735879456323659724
23402539 116 17748829626899516855
23536379 177 17749111084153026073
23559900 14 18335980956883349785
28498 318 14273728552212732202
34797466 226 14692576537457248680
4325135 7 13614522960864371745
5207 217 16702020889666525942
5758199 1 15051735296082662878
59682541 35 17346316037431063098
59755656 520 15502377855273381411

> <PUBCHEM_SHAPE_MULTIPOLES>
413.44
22.05
1.45
0.97
19.81
0.1
0.01
-1.86
-4.05
-0.96
0.12
0.38
0.02
1.15

> <PUBCHEM_SHAPE_SELFOVERLAP>
848.653

> <PUBCHEM_SHAPE_VOLUME>
238.7

> <PUBCHEM_COORDINATE_TYPE>
2
5
10

$$$$
