11884148
  -OEChem-12032416373D

 55 58  0     1  0  0  0  0  0999 V2000
   -7.9880    3.1961    1.4009 F   0  0  0  0  0  0  0  0  0  0  0  0
   -8.3004    3.3167   -0.7418 F   0  0  0  0  0  0  0  0  0  0  0  0
   -6.5702    4.2790    0.1575 F   0  0  0  0  0  0  0  0  0  0  0  0
    0.0176   -1.8927   -1.0466 O   0  0  0  0  0  0  0  0  0  0  0  0
   -0.3975   -4.0255    1.1173 O   0  0  0  0  0  0  0  0  0  0  0  0
    2.5227   -2.2140    0.1056 O   0  0  0  0  0  0  0  0  0  0  0  0
   -4.7140   -2.6078   -1.1077 O   0  0  0  0  0  0  0  0  0  0  0  0
    3.0435   -0.4843    1.5080 O   0  0  0  0  0  0  0  0  0  0  0  0
    8.3483    3.9549    0.3675 O   0  0  0  0  0  0  0  0  0  0  0  0
   -2.9225   -1.6198   -0.0152 N   0  0  0  0  0  0  0  0  0  0  0  0
    4.3751   -1.0085   -0.3447 N   0  0  0  0  0  0  0  0  0  0  0  0
   -0.9669   -2.7102    0.9498 C   0  0  1  0  0  0  0  0  0  0  0  0
    0.1272   -1.8267    0.3851 C   0  0  1  0  0  0  0  0  0  0  0  0
   -2.0132   -2.7327   -0.1400 C   0  0  2  0  0  0  0  0  0  0  0  0
    1.3822   -2.5033    0.8819 C   0  0  1  0  0  0  0  0  0  0  0  0
   -1.1700   -2.6191   -1.3984 C   0  0  0  0  0  0  0  0  0  0  0  0
    1.0041   -3.9658    0.8150 C   0  0  0  0  0  0  0  0  0  0  0  0
   -4.2158   -1.6528   -0.5176 C   0  0  0  0  0  0  0  0  0  0  0  0
    3.3060   -1.1558    0.5177 C   0  0  0  0  0  0  0  0  0  0  0  0
   -5.0178   -0.4162   -0.3312 C   0  0  0  0  0  0  0  0  0  0  0  0
   -6.0448   -0.1102   -1.2242 C   0  0  0  0  0  0  0  0  0  0  0  0
   -4.7442    0.4388    0.7364 C   0  0  0  0  0  0  0  0  0  0  0  0
    5.4136   -0.0513   -0.2880 C   0  0  0  0  0  0  0  0  0  0  0  0
   -6.7979    1.0508   -1.0497 C   0  0  0  0  0  0  0  0  0  0  0  0
   -5.4972    1.5998    0.9110 C   0  0  0  0  0  0  0  0  0  0  0  0
   -6.5241    1.9058    0.0179 C   0  0  0  0  0  0  0  0  0  0  0  0
    6.4189   -0.0550   -1.2551 C   0  0  0  0  0  0  0  0  0  0  0  0
    5.4338    0.8961    0.7355 C   0  0  0  0  0  0  0  0  0  0  0  0
   -7.3303    3.1462    0.2047 C   0  0  0  0  0  0  0  0  0  0  0  0
    7.4443    0.8888   -1.1984 C   0  0  0  0  0  0  0  0  0  0  0  0
    6.4593    1.8399    0.7921 C   0  0  0  0  0  0  0  0  0  0  0  0
    7.4645    1.8363   -0.1749 C   0  0  0  0  0  0  0  0  0  0  0  0
    8.5335    2.8205   -0.1167 C   0  0  0  0  0  0  0  0  0  0  0  0
    9.9200    2.4821   -0.6538 C   0  0  0  0  0  0  0  0  0  0  0  0
   -1.3323   -2.3790    1.9270 H   0  0  0  0  0  0  0  0  0  0  0  0
    0.0498   -0.7752    0.6764 H   0  0  0  0  0  0  0  0  0  0  0  0
   -2.5931   -3.6619   -0.1544 H   0  0  0  0  0  0  0  0  0  0  0  0
    1.5353   -2.2551    1.9414 H   0  0  0  0  0  0  0  0  0  0  0  0
   -1.6731   -2.1097   -2.2259 H   0  0  0  0  0  0  0  0  0  0  0  0
   -0.8516   -3.6081   -1.7460 H   0  0  0  0  0  0  0  0  0  0  0  0
    1.1700   -4.3935   -0.1802 H   0  0  0  0  0  0  0  0  0  0  0  0
    1.5612   -4.5732    1.5347 H   0  0  0  0  0  0  0  0  0  0  0  0
   -2.5465   -0.7574    0.3650 H   0  0  0  0  0  0  0  0  0  0  0  0
    4.4239   -1.6685   -1.1170 H   0  0  0  0  0  0  0  0  0  0  0  0
   -6.2705   -0.7613   -2.0646 H   0  0  0  0  0  0  0  0  0  0  0  0
   -3.9745    0.2221    1.4712 H   0  0  0  0  0  0  0  0  0  0  0  0
   -7.5931    1.2726   -1.7561 H   0  0  0  0  0  0  0  0  0  0  0  0
   -5.2814    2.2567    1.7495 H   0  0  0  0  0  0  0  0  0  0  0  0
    6.4132   -0.7864   -2.0593 H   0  0  0  0  0  0  0  0  0  0  0  0
    4.6911    0.9594    1.5187 H   0  0  0  0  0  0  0  0  0  0  0  0
    8.2072    0.8710   -1.9718 H   0  0  0  0  0  0  0  0  0  0  0  0
    6.4617    2.5685    1.5989 H   0  0  0  0  0  0  0  0  0  0  0  0
   10.6679    3.0534   -0.0958 H   0  0  0  0  0  0  0  0  0  0  0  0
   10.1436    1.4214   -0.5110 H   0  0  0  0  0  0  0  0  0  0  0  0
    9.9758    2.7436   -1.7132 H   0  0  0  0  0  0  0  0  0  0  0  0
  1 29  1  0  0  0  0
  2 29  1  0  0  0  0
  3 29  1  0  0  0  0
  4 13  1  0  0  0  0
  4 16  1  0  0  0  0
  5 12  1  0  0  0  0
  5 17  1  0  0  0  0
  6 15  1  0  0  0  0
  6 19  1  0  0  0  0
  7 18  2  0  0  0  0
  8 19  2  0  0  0  0
  9 33  2  0  0  0  0
 10 14  1  0  0  0  0
 10 18  1  0  0  0  0
 10 43  1  0  0  0  0
 11 19  1  0  0  0  0
 11 23  1  0  0  0  0
 11 44  1  0  0  0  0
 12 13  1  0  0  0  0
 12 14  1  0  0  0  0
 12 35  1  0  0  0  0
 13 15  1  0  0  0  0
 13 36  1  0  0  0  0
 14 16  1  0  0  0  0
 14 37  1  0  0  0  0
 15 17  1  0  0  0  0
 15 38  1  0  0  0  0
 16 39  1  0  0  0  0
 16 40  1  0  0  0  0
 17 41  1  0  0  0  0
 17 42  1  0  0  0  0
 18 20  1  0  0  0  0
 20 21  2  0  0  0  0
 20 22  1  0  0  0  0
 21 24  1  0  0  0  0
 21 45  1  0  0  0  0
 22 25  2  0  0  0  0
 22 46  1  0  0  0  0
 23 27  2  0  0  0  0
 23 28  1  0  0  0  0
 24 26  2  0  0  0  0
 24 47  1  0  0  0  0
 25 26  1  0  0  0  0
 25 48  1  0  0  0  0
 26 29  1  0  0  0  0
 27 30  1  0  0  0  0
 27 49  1  0  0  0  0
 28 31  2  0  0  0  0
 28 50  1  0  0  0  0
 30 32  2  0  0  0  0
 30 51  1  0  0  0  0
 31 32  1  0  0  0  0
 31 52  1  0  0  0  0
 32 33  1  0  0  0  0
 33 34  1  0  0  0  0
 34 53  1  0  0  0  0
 34 54  1  0  0  0  0
 34 55  1  0  0  0  0
M  END
> <PUBCHEM_COMPOUND_CID>
11884148

> <PUBCHEM_CONFORMER_RMSD>
1

> <PUBCHEM_CONFORMER_DIVERSEORDER>
1
22
40
27
20
50
9
43
17
29
5
26
41
33
2
47
28
30
31
37
39
36
46
24
44
3
14
48
32
8
53
55
38
52
54
21
34
51
7
23
45
11
10
6
15
42
16
19
4
49
13
12
35
25
18

> <PUBCHEM_MMFF94_PARTIAL_CHARGES>
44
1 -0.34
10 -0.73
11 -0.55
12 0.28
13 0.28
14 0.3
15 0.28
16 0.28
17 0.28
18 0.54
19 0.78
2 -0.34
20 0.09
21 -0.15
22 -0.15
23 0.12
24 -0.15
25 -0.15
26 -0.14
27 -0.15
28 -0.15
29 1.16
3 -0.34
30 -0.15
31 -0.15
32 0.09
33 0.42
34 0.06
4 -0.56
43 0.37
44 0.37
45 0.15
46 0.15
47 0.15
48 0.15
49 0.15
5 -0.56
50 0.15
51 0.15
52 0.15
6 -0.43
7 -0.57
8 -0.57
9 -0.57

> <PUBCHEM_EFFECTIVE_ROTOR_COUNT>
10.2

> <PUBCHEM_PHARMACOPHORE_FEATURES>
11
1 10 donor
1 11 donor
1 4 acceptor
1 5 acceptor
1 7 acceptor
1 8 acceptor
1 9 acceptor
5 4 12 13 14 16 rings
5 5 12 13 15 17 rings
6 20 21 22 24 25 26 rings
6 23 27 28 30 31 32 rings

> <PUBCHEM_HEAVY_ATOM_COUNT>
34

> <PUBCHEM_ATOM_DEF_STEREO_COUNT>
4

> <PUBCHEM_ATOM_UDEF_STEREO_COUNT>
0

> <PUBCHEM_BOND_DEF_STEREO_COUNT>
0

> <PUBCHEM_BOND_UDEF_STEREO_COUNT>
0

> <PUBCHEM_ISOTOPIC_ATOM_COUNT>
0

> <PUBCHEM_COMPONENT_COUNT>
1

> <PUBCHEM_CACTVS_TAUTO_COUNT>
18

> <PUBCHEM_CONFORMER_ID>
00B5567400000001

> <PUBCHEM_MMFF94_ENERGY>
93.9052

> <PUBCHEM_FEATURE_SELFOVERLAP>
56.54

> <PUBCHEM_SHAPE_FINGERPRINT>
10055352 69 18272932731395952521
10190206 1 17703798002422647377
10280341 67 18271508849983020128
10533779 1 18261663818462403861
10625338 131 18410004447499244976
10930396 42 16153425040025866469
11181472 205 18187364364451632980
11421887 103 18335409188730152260
11421887 45 18340472439549304376
11476731 99 17985536991396487672
11497681 19 10087644810717890706
11578821 258 17902514024430983092
1200032 147 18113899347325643818
12013929 27 11167644491866506049
12013929 29 18198624324485139605
12124843 1 17917990564142499445
12133447 93 18337120042292241196
12522641 68 18272368702309618014
12895837 130 18341891892697272471
13248334 5 18120932811519310690
13627175 4 10159412184534317429
13782708 43 8790889575325594638
13944108 23 18340486652148441858
14150022 121 17968950820063205459
14359421 15 12751242480116606973
14394314 77 18334857233744646372
14428016 167 9655577409176647853
14931854 50 17846779589646629473
15131766 46 18335691695104317527
15145344 64 18411989052465396296
15152005 77 10809341165692687217
15183329 4 17132124554276002674
15347591 1 18410575067711381755
15439362 3 18410857647132854646
15685185 35 18410292506919360585
15803439 3 17060618910231859934
15980000 95 17545882625381421642
16126227 98 18407760356386665767
16728433 281 18131357401214455313
16992727 255 18411984680572797360
16994733 274 18261388975178117392
18339144 43 16953680543297376028
19053607 189 18341601638533206578
19303781 99 8862652470060772921
19304671 126 18200320909507592614
2026 5 9943807785729591725
20691028 202 18334579061855560406
20766409 102 18412261745504090965
20982279 24 12750657618442724093
21223535 225 18341890861720355844
21298829 104 18407760330638266420
21424621 283 18408323306752206282
21585482 111 18409448077072126660
22002106 203 9871746871892641908
23516275 100 18263361387518196845
23522609 53 17024885990432670374
23569914 152 17700149707764403622
24771293 8 18334011717876360692
25025965 108 11815081988550892204
2748736 6 18336256894734547275
2835820 40 18193555567634731069
3504750 166 9439135260105902223
3711267 37 17896323683339098876
3918712 181 18410290294373257232
393628 194 18334857272320023165
406291 66 9727631704563582901
42767 28 17775280564980213905
4366758 26 18196094335493094129
44802255 64 17560524018052042870
44880568 143 18195254532526917124
4516262 110 18262509313598638639
54583773 228 18411692164274009325
5718773 13 9583514317622538571
57303763 176 18411699860770987856
57634706 229 18114467854777186210
5776283 40 18341610447200277745
5874358 3 11599723922624337444
5937810 71 18201726158524758945
6036956 94 18053101714893689417
6201320 82 18271259256374740192
6289498 60 18114169814001045840
636775 72 18265331901454102516
6673363 416 18197496432135627463
6698420 124 18186802487528503322
9980921 7 18113891672799003461

> <PUBCHEM_SHAPE_MULTIPOLES>
632.7
30.84
5.56
1.23
25.88
1.06
-0.07
48.71
-4.55
-4.94
1.14
-0.27
-0.26
-1.53

> <PUBCHEM_SHAPE_SELFOVERLAP>
1374.296

> <PUBCHEM_SHAPE_VOLUME>
346

> <PUBCHEM_COORDINATE_TYPE>
2
5
10

$$$$
