40780260
  -OEChem-12032416163D

 62 65  0     1  0  0  0  0  0999 V2000
    4.1667    3.7755    0.0888 O   0  0  0  0  0  0  0  0  0  0  0  0
   -3.3080   -0.6272    1.5329 O   0  0  0  0  0  0  0  0  0  0  0  0
    0.9483   -2.2416    1.2039 N   0  0  2  0  0  0  0  0  0  0  0  0
    4.4024    0.0835   -0.2185 N   0  0  2  0  0  0  0  0  0  0  0  0
   -1.6322    0.3215    0.2509 N   0  0  0  0  0  0  0  0  0  0  0  0
   -3.8337    0.7438   -0.2986 N   0  0  0  0  0  0  0  0  0  0  0  0
    1.5855   -2.2959   -1.3176 C   0  0  2  0  0  0  0  0  0  0  0  0
    2.7382   -1.7112   -0.4697 C   0  0  2  0  0  0  0  0  0  0  0  0
    0.3098   -1.4653   -1.0856 C   0  0  0  0  0  0  0  0  0  0  0  0
   -0.1118   -1.5801    0.3962 C   0  0  2  0  0  0  0  0  0  0  0  0
    2.2527   -1.5690    0.9904 C   0  0  0  0  0  0  0  0  0  0  0  0
    1.3104   -3.7139   -0.7815 C   0  0  0  0  0  0  0  0  0  0  0  0
    1.0698   -3.6440    0.7369 C   0  0  0  0  0  0  0  0  0  0  0  0
    3.2773   -0.3908   -1.0151 C   0  0  0  0  0  0  0  0  0  0  0  0
   -0.5273   -0.2258    0.9755 C   0  0  0  0  0  0  0  0  0  0  0  0
    4.7052    1.5061   -0.4282 C   0  0  2  0  0  0  0  0  0  0  0  0
    5.6396   -0.6206   -0.5642 C   0  0  0  0  0  0  0  0  0  0  0  0
    6.1132    1.6392    0.1557 C   0  0  0  0  0  0  0  0  0  0  0  0
    6.7218    0.2444    0.0605 C   0  0  0  0  0  0  0  0  0  0  0  0
    3.7183    2.4425    0.2575 C   0  0  0  0  0  0  0  0  0  0  0  0
   -2.9771    0.0798    0.5840 C   0  0  0  0  0  0  0  0  0  0  0  0
    3.2883    4.7087    0.7071 C   0  0  0  0  0  0  0  0  0  0  0  0
   -5.2480    0.7496   -0.2963 C   0  0  0  0  0  0  0  0  0  0  0  0
   -5.9437    1.4748   -1.2638 C   0  0  0  0  0  0  0  0  0  0  0  0
   -5.9471    0.0317    0.6741 C   0  0  0  0  0  0  0  0  0  0  0  0
   -7.3386    1.4818   -1.2611 C   0  0  0  0  0  0  0  0  0  0  0  0
   -7.3421    0.0388    0.6768 C   0  0  0  0  0  0  0  0  0  0  0  0
   -8.0378    0.7636   -0.2909 C   0  0  0  0  0  0  0  0  0  0  0  0
    1.8442   -2.3288   -2.3811 H   0  0  0  0  0  0  0  0  0  0  0  0
    3.5504   -2.4513   -0.4907 H   0  0  0  0  0  0  0  0  0  0  0  0
    0.4744   -0.4270   -1.3908 H   0  0  0  0  0  0  0  0  0  0  0  0
   -0.4968   -1.8524   -1.7213 H   0  0  0  0  0  0  0  0  0  0  0  0
   -1.0054   -2.2204    0.4412 H   0  0  0  0  0  0  0  0  0  0  0  0
    2.9972   -2.0161    1.6626 H   0  0  0  0  0  0  0  0  0  0  0  0
    2.1856   -0.5223    1.3065 H   0  0  0  0  0  0  0  0  0  0  0  0
    2.1592   -4.3743   -0.9940 H   0  0  0  0  0  0  0  0  0  0  0  0
    0.4334   -4.1404   -1.2833 H   0  0  0  0  0  0  0  0  0  0  0  0
    0.1634   -4.2047    0.9971 H   0  0  0  0  0  0  0  0  0  0  0  0
    1.8867   -4.1439    1.2728 H   0  0  0  0  0  0  0  0  0  0  0  0
    2.4688    0.3459   -0.9867 H   0  0  0  0  0  0  0  0  0  0  0  0
    3.5491   -0.4942   -2.0738 H   0  0  0  0  0  0  0  0  0  0  0  0
    0.2810    0.5101    0.9166 H   0  0  0  0  0  0  0  0  0  0  0  0
   -0.8078   -0.3325    2.0297 H   0  0  0  0  0  0  0  0  0  0  0  0
    4.7577    1.7437   -1.5006 H   0  0  0  0  0  0  0  0  0  0  0  0
    5.7942   -0.6706   -1.6498 H   0  0  0  0  0  0  0  0  0  0  0  0
    5.6736   -1.6372   -0.1609 H   0  0  0  0  0  0  0  0  0  0  0  0
    6.0989    1.9587    1.2049 H   0  0  0  0  0  0  0  0  0  0  0  0
    6.7079    2.3686   -0.4052 H   0  0  0  0  0  0  0  0  0  0  0  0
    7.6369    0.2408   -0.5403 H   0  0  0  0  0  0  0  0  0  0  0  0
    6.9770   -0.1170    1.0637 H   0  0  0  0  0  0  0  0  0  0  0  0
    3.6470    2.2116    1.3280 H   0  0  0  0  0  0  0  0  0  0  0  0
    2.7189    2.3459   -0.1805 H   0  0  0  0  0  0  0  0  0  0  0  0
   -1.4349    0.9147   -0.5493 H   0  0  0  0  0  0  0  0  0  0  0  0
    3.6857    5.7141    0.5447 H   0  0  0  0  0  0  0  0  0  0  0  0
    3.2312    4.5250    1.7844 H   0  0  0  0  0  0  0  0  0  0  0  0
    2.2911    4.6504    0.2604 H   0  0  0  0  0  0  0  0  0  0  0  0
   -3.3948    1.2905   -1.0353 H   0  0  0  0  0  0  0  0  0  0  0  0
   -5.4111    2.0386   -2.0253 H   0  0  0  0  0  0  0  0  0  0  0  0
   -5.4803   -0.5520    1.4547 H   0  0  0  0  0  0  0  0  0  0  0  0
   -7.8805    2.0464   -2.0143 H   0  0  0  0  0  0  0  0  0  0  0  0
   -7.8879   -0.5198    1.4318 H   0  0  0  0  0  0  0  0  0  0  0  0
   -9.1239    0.7691   -0.2889 H   0  0  0  0  0  0  0  0  0  0  0  0
  1 20  1  0  0  0  0
  1 22  1  0  0  0  0
  2 21  2  0  0  0  0
  3 10  1  0  0  0  0
  3 11  1  0  0  0  0
  3 13  1  0  0  0  0
  4 14  1  0  0  0  0
  4 16  1  0  0  0  0
  4 17  1  0  0  0  0
  5 15  1  0  0  0  0
  5 21  1  0  0  0  0
  5 53  1  0  0  0  0
  6 21  1  0  0  0  0
  6 23  1  0  0  0  0
  6 57  1  0  0  0  0
  7  8  1  0  0  0  0
  7  9  1  0  0  0  0
  7 12  1  0  0  0  0
  7 29  1  0  0  0  0
  8 11  1  0  0  0  0
  8 14  1  0  0  0  0
  8 30  1  0  0  0  0
  9 10  1  0  0  0  0
  9 31  1  0  0  0  0
  9 32  1  0  0  0  0
 10 15  1  0  0  0  0
 10 33  1  0  0  0  0
 11 34  1  0  0  0  0
 11 35  1  0  0  0  0
 12 13  1  0  0  0  0
 12 36  1  0  0  0  0
 12 37  1  0  0  0  0
 13 38  1  0  0  0  0
 13 39  1  0  0  0  0
 14 40  1  0  0  0  0
 14 41  1  0  0  0  0
 15 42  1  0  0  0  0
 15 43  1  0  0  0  0
 16 18  1  0  0  0  0
 16 20  1  0  0  0  0
 16 44  1  0  0  0  0
 17 19  1  0  0  0  0
 17 45  1  0  0  0  0
 17 46  1  0  0  0  0
 18 19  1  0  0  0  0
 18 47  1  0  0  0  0
 18 48  1  0  0  0  0
 19 49  1  0  0  0  0
 19 50  1  0  0  0  0
 20 51  1  0  0  0  0
 20 52  1  0  0  0  0
 22 54  1  0  0  0  0
 22 55  1  0  0  0  0
 22 56  1  0  0  0  0
 23 24  2  0  0  0  0
 23 25  1  0  0  0  0
 24 26  1  0  0  0  0
 24 58  1  0  0  0  0
 25 27  2  0  0  0  0
 25 59  1  0  0  0  0
 26 28  2  0  0  0  0
 26 60  1  0  0  0  0
 27 28  1  0  0  0  0
 27 61  1  0  0  0  0
 28 62  1  0  0  0  0
M  END
> <PUBCHEM_COMPOUND_CID>
40780260

> <PUBCHEM_CONFORMER_RMSD>
1

> <PUBCHEM_CONFORMER_DIVERSEORDER>
1
3
39
47
65
18
50
15
24
51
7
23
30
31
57
4
12
26
61
54
52
53
63
70
49
19
40
55
48
60
28
20
69
41
25
21
34
62
59
32
42
37
36
16
8
22
33
44
17
67
13
43
5
6
45
46
64
38
68
10
11
66
29
9
14
27
35
71
56
58
2

> <PUBCHEM_MMFF94_PARTIAL_CHARGES>
29
1 -0.56
10 0.27
11 0.27
13 0.27
14 0.27
15 0.3
16 0.27
17 0.27
2 -0.57
20 0.28
21 0.69
22 0.28
23 0.12
24 -0.15
25 -0.15
26 -0.15
27 -0.15
28 -0.15
3 -0.81
4 -0.81
5 -0.73
53 0.37
57 0.37
58 0.15
59 0.15
6 -0.55
60 0.15
61 0.15
62 0.15

> <PUBCHEM_EFFECTIVE_ROTOR_COUNT>
11.2

> <PUBCHEM_PHARMACOPHORE_FEATURES>
9
1 1 acceptor
1 2 acceptor
1 3 cation
1 4 cation
1 5 donor
1 6 donor
5 4 16 17 18 19 rings
6 23 24 25 26 27 28 rings
8 3 7 8 9 10 11 12 13 rings

> <PUBCHEM_HEAVY_ATOM_COUNT>
28

> <PUBCHEM_ATOM_DEF_STEREO_COUNT>
4

> <PUBCHEM_ATOM_UDEF_STEREO_COUNT>
0

> <PUBCHEM_BOND_DEF_STEREO_COUNT>
0

> <PUBCHEM_BOND_UDEF_STEREO_COUNT>
0

> <PUBCHEM_ISOTOPIC_ATOM_COUNT>
0

> <PUBCHEM_COMPONENT_COUNT>
1

> <PUBCHEM_CACTVS_TAUTO_COUNT>
3

> <PUBCHEM_CONFORMER_ID>
026E41E400000001

> <PUBCHEM_MMFF94_ENERGY>
69.8896

> <PUBCHEM_FEATURE_SELFOVERLAP>
45.72

> <PUBCHEM_SHAPE_FINGERPRINT>
10673678 19 18342177795178506169
10835480 77 18262515889256690141
12838862 33 18271234007153258336
13150687 139 18131642166684838638
13402501 40 18259703393440423012
13673619 4 11815893453337374259
13911852 28 8718565894809265361
14117953 113 18342462556459833060
14461889 52 17603878805945071291
14556957 393 17418385675248730433
14681490 219 18272651221226923913
14725015 67 18409722942505677536
14767858 380 17561365067432531283
15003188 100 18413393141913972532
15183329 4 13326856617456964295
15276724 80 18194401092477242237
15328829 1 17274560754089636249
15890870 6 18408608085033255068
18335252 114 18341328920936484508
19304152 47 17179414785842153632
20157964 124 18341615884881795614
20554085 129 16877659054905194881
20567600 254 18334579036027922510
20715895 44 18343303704107780672
20737093 193 14684640472902674753
21033648 29 18115302405962158232
21049683 118 17969488467815159930
21150785 3 18060697282930109111
21344244 78 18047452462714646570
21403212 168 18334008372899021138
21475661 188 18335422426197814928
21521239 73 17346325843564307646
21716022 299 14619413818195378454
23522609 53 17131009593993144601
23845131 108 18261394476863418810
255183 451 17627801816285714630
2838139 119 18409442617772340070
335352 9 18341621400284208326
3459 39 16660633060431706293
34797466 226 18271248227641769199
394071 54 18339653265332174929
4340502 62 18187088334270016495
5104073 3 13046817624623122317
5109719 28 18337117851553029561
57091435 61 18410854356490878801
57527585 21 16412422798633754736
58902169 19 17917987278413312948
59755656 215 18259983751857401357
6327066 14 18338801234167734876
6371009 1 18343584045055435160

> <PUBCHEM_SHAPE_MULTIPOLES>
544.56
20.19
4.24
1.2
33.17
1.82
0.04
14.57
2.9
-7.36
-0.38
0.74
-0.34
1.72

> <PUBCHEM_SHAPE_SELFOVERLAP>
1139.026

> <PUBCHEM_SHAPE_VOLUME>
304.9

> <PUBCHEM_COORDINATE_TYPE>
2
5
10

$$$$
