26744622
  -OEChem-12032416183D

 33 35  0     1  0  0  0  0  0999 V2000
    1.7101    1.6335    1.9628 Cl  0  0  0  0  0  0  0  0  0  0  0  0
    5.6368    1.5208   -1.2200 F   0  0  0  0  0  0  0  0  0  0  0  0
   -5.4996    1.5294   -1.4249 O   0  0  0  0  0  0  0  0  0  0  0  0
   -1.3702   -1.7209   -1.0485 O   0  0  0  0  0  0  0  0  0  0  0  0
   -4.1009   -0.5742    0.8191 N   0  0  0  0  0  0  0  0  0  0  0  0
   -0.9224   -0.5260    0.7924 N   0  0  0  0  0  0  0  0  0  0  0  0
   -0.0636   -2.0585   -0.6733 N   0  0  0  0  0  0  0  0  0  0  0  0
   -3.2058   -0.2863   -0.3179 C   0  0  1  0  0  0  0  0  0  0  0  0
   -3.3085    1.2308   -0.4605 C   0  0  0  0  0  0  0  0  0  0  0  0
   -4.7838    1.4971   -0.1957 C   0  0  2  0  0  0  0  0  0  0  0  0
   -5.2653    0.3070    0.6295 C   0  0  0  0  0  0  0  0  0  0  0  0
   -1.8020   -0.8138   -0.1336 C   0  0  0  0  0  0  0  0  0  0  0  0
    0.1277   -1.3137    0.4196 C   0  0  0  0  0  0  0  0  0  0  0  0
    1.3879   -1.3439    1.1700 C   0  0  0  0  0  0  0  0  0  0  0  0
    2.5253   -0.5447    0.5417 C   0  0  0  0  0  0  0  0  0  0  0  0
    2.7321    0.8002    0.8491 C   0  0  0  0  0  0  0  0  0  0  0  0
    3.3700   -1.1918   -0.3605 C   0  0  0  0  0  0  0  0  0  0  0  0
    3.7834    1.4979    0.2542 C   0  0  0  0  0  0  0  0  0  0  0  0
    4.4211   -0.4939   -0.9555 C   0  0  0  0  0  0  0  0  0  0  0  0
    4.6278    0.8509   -0.6480 C   0  0  0  0  0  0  0  0  0  0  0  0
   -3.6323   -0.7622   -1.2120 H   0  0  0  0  0  0  0  0  0  0  0  0
   -2.6949    1.7318    0.2991 H   0  0  0  0  0  0  0  0  0  0  0  0
   -2.9823    1.5683   -1.4497 H   0  0  0  0  0  0  0  0  0  0  0  0
   -4.9278    2.4543    0.3153 H   0  0  0  0  0  0  0  0  0  0  0  0
   -5.6374    0.6311    1.6072 H   0  0  0  0  0  0  0  0  0  0  0  0
   -6.0696   -0.2460    0.1319 H   0  0  0  0  0  0  0  0  0  0  0  0
   -3.6293   -0.2912    1.6799 H   0  0  0  0  0  0  0  0  0  0  0  0
   -6.4365    1.6798   -1.2120 H   0  0  0  0  0  0  0  0  0  0  0  0
    1.7182   -2.3875    1.2733 H   0  0  0  0  0  0  0  0  0  0  0  0
    1.2238   -1.0251    2.2061 H   0  0  0  0  0  0  0  0  0  0  0  0
    3.2215   -2.2389   -0.6109 H   0  0  0  0  0  0  0  0  0  0  0  0
    3.9584    2.5461    0.4830 H   0  0  0  0  0  0  0  0  0  0  0  0
    5.0785   -0.9971   -1.6584 H   0  0  0  0  0  0  0  0  0  0  0  0
  1 16  1  0  0  0  0
  2 20  1  0  0  0  0
  3 10  1  0  0  0  0
  3 28  1  0  0  0  0
  4  7  1  0  0  0  0
  4 12  1  0  0  0  0
  5  8  1  0  0  0  0
  5 11  1  0  0  0  0
  5 27  1  0  0  0  0
  6 12  2  0  0  0  0
  6 13  1  0  0  0  0
  7 13  2  0  0  0  0
  8  9  1  0  0  0  0
  8 12  1  0  0  0  0
  8 21  1  0  0  0  0
  9 10  1  0  0  0  0
  9 22  1  0  0  0  0
  9 23  1  0  0  0  0
 10 11  1  0  0  0  0
 10 24  1  0  0  0  0
 11 25  1  0  0  0  0
 11 26  1  0  0  0  0
 13 14  1  0  0  0  0
 14 15  1  0  0  0  0
 14 29  1  0  0  0  0
 14 30  1  0  0  0  0
 15 16  2  0  0  0  0
 15 17  1  0  0  0  0
 16 18  1  0  0  0  0
 17 19  2  0  0  0  0
 17 31  1  0  0  0  0
 18 20  2  0  0  0  0
 18 32  1  0  0  0  0
 19 20  1  0  0  0  0
 19 33  1  0  0  0  0
M  END
> <PUBCHEM_COMPOUND_CID>
26744622

> <PUBCHEM_CONFORMER_RMSD>
0.6

> <PUBCHEM_CONFORMER_DIVERSEORDER>
1
92
105
124
33
77
16
131
102
81
24
53
6
151
172
93
145
39
72
119
37
44
176
158
154
120
8
73
65
136
169
153
156
20
144
76
30
59
90
46
22
139
11
142
18
159
128
42
178
21
49
101
25
125
35
109
48
127
91
45
157
71
161
13
79
134
160
152
112
23
166
51
31
150
14
3
58
15
50
143
19
116
75
84
170
107
155
54
89
140
74
70
63
41
2
115
66
96
103
5
114
64
52
10
34
137
135
162
9
95
133
94
4
165
40
12
111
26
98
69
36
27
38
175
132
164
141
121
163
62
83
67
78
87
173
56
171
97
17
113
88
108
129
47
126
110
55
68
147
123
99
106
146
57
118
86
7
177
85
148
122
117
29
28
168
61
167
100
104
174
43
80
32
82
138
130
60
149

> <PUBCHEM_MMFF94_PARTIAL_CHARGES>
24
1 -0.18
10 0.28
11 0.27
12 0.3
13 0.34
14 0.32
15 -0.14
16 0.18
17 -0.15
18 -0.15
19 -0.15
2 -0.19
20 0.19
27 0.36
28 0.4
3 -0.68
31 0.15
32 0.15
33 0.15
4 -0.02
5 -0.9
6 -0.57
7 -0.41
8 0.45

> <PUBCHEM_EFFECTIVE_ROTOR_COUNT>
4

> <PUBCHEM_PHARMACOPHORE_FEATURES>
8
1 3 acceptor
1 3 donor
1 5 cation
1 5 donor
3 6 7 13 cation
5 4 6 7 12 13 rings
5 5 8 9 10 11 rings
6 15 16 17 18 19 20 rings

> <PUBCHEM_HEAVY_ATOM_COUNT>
20

> <PUBCHEM_ATOM_DEF_STEREO_COUNT>
2

> <PUBCHEM_ATOM_UDEF_STEREO_COUNT>
0

> <PUBCHEM_BOND_DEF_STEREO_COUNT>
0

> <PUBCHEM_BOND_UDEF_STEREO_COUNT>
0

> <PUBCHEM_ISOTOPIC_ATOM_COUNT>
0

> <PUBCHEM_COMPONENT_COUNT>
1

> <PUBCHEM_CACTVS_TAUTO_COUNT>
1

> <PUBCHEM_CONFORMER_ID>
0198172E00000001

> <PUBCHEM_MMFF94_ENERGY>
35.1985

> <PUBCHEM_FEATURE_SELFOVERLAP>
40.596

> <PUBCHEM_SHAPE_FINGERPRINT>
10447042 23 8862937251961639618
10498660 4 18335697239121444057
10670039 82 18342461383095088336
11595378 159 15792005624319665333
11796584 16 11743838041237518397
12363563 72 11240001199800028238
12403259 415 18272367616035267265
12596602 18 16225768523391568385
12730499 353 18336275582258922514
12892183 10 14057267684655950582
13544653 18 8142084269196697027
1420 369 9367343760317579981
14251751 18 11671769482211653573
14251752 14 18411704262410690286
14252887 29 13768209341783472314
14341114 328 15285365037042541172
14528608 73 18341601612826374605
14848178 5 10664101146918876677
14863182 85 11674881035587937584
15183329 4 17917440800149704782
15210252 30 18334579075015632644
15238133 3 18260817186292978728
15788980 27 13614522965444175307
15880784 105 15213014938647098857
1601671 61 18259703397803818996
16752209 62 17632015238988805769
17834072 14 8502658112367230587
17857418 61 10737870694221860809
18186145 218 17632289103468265803
193927 3 10087641541366283877
19784866 240 12103852266964097666
1979834 28 12468640465501403905
19862831 5 17704353281596099914
20374829 77 11887957640139090595
20645477 70 16486700285262697102
21033648 29 18411412938636471241
21069387 34 12895074045826574374
21250096 35 8430313541525865935
212847 35 18409726240623101698
21637258 2 14045477600919781348
21652331 79 18261109651858955645
21756936 100 18041559264698469474
21857420 4 13750681073807002557
22079108 93 17530971310308178627
221357 26 17988923344995379737
22289505 5 18343582906830591820
23253445 4 13479136804223070967
23402655 69 18272654567132112202
23559900 14 17168993262056208651
251288 83 8142089767018339714
2637199 183 18342740710545349066
26918003 58 8862950450264420595
3004659 81 18342463600189360526
3009799 131 18060144258894158404
3060560 45 17704065175432698158
392239 28 13407080357289726812
463206 1 14045747006146814764
465052 167 9367348137506433096
5104073 3 17313386665412766185
59755656 520 17240483645812576946
633830 44 18187358809624465971
6442390 28 17676493860335538274
7399639 24 16765616874187788338
76465 3 12031795751379711910
7808743 9 18114746052730077548
8988823 20 11963681048825566591
960060 61 15410897375013429624
9882013 296 14923942344983090523

> <PUBCHEM_SHAPE_MULTIPOLES>
379.51
12.39
1.98
1.32
6.31
0.01
-0.18
6.25
4.22
-0.41
0.05
-0.41
0.37
0.53

> <PUBCHEM_SHAPE_SELFOVERLAP>
805.544

> <PUBCHEM_SHAPE_VOLUME>
215

> <PUBCHEM_COORDINATE_TYPE>
2
5
10

$$$$
