56775461
  -OEChem-12032416323D

 52 54  0     0  0  0  0  0  0999 V2000
    0.9829   -3.7954    0.6421 O   0  0  0  0  0  0  0  0  0  0  0  0
   -3.7431   -0.7426    0.0095 O   0  0  0  0  0  0  0  0  0  0  0  0
    1.0803   -0.6916    0.4277 N   0  0  0  0  0  0  0  0  0  0  0  0
   -2.7816   -1.6508   -0.4167 N   0  0  0  0  0  0  0  0  0  0  0  0
    0.4646   -1.8869   -0.1611 C   0  0  0  0  0  0  0  0  0  0  0  0
    2.8745    0.9268   -0.0131 C   0  0  0  0  0  0  0  0  0  0  0  0
    1.7656    0.0626   -0.6103 C   0  0  0  0  0  0  0  0  0  0  0  0
    1.5459   -2.9395   -0.3782 C   0  0  0  0  0  0  0  0  0  0  0  0
   -0.0133   -2.7981    0.9637 C   0  0  0  0  0  0  0  0  0  0  0  0
    3.9251    0.0536    0.6863 C   0  0  0  0  0  0  0  0  0  0  0  0
    3.5230    1.8005   -1.0952 C   0  0  0  0  0  0  0  0  0  0  0  0
   -0.4724   -1.5671   -1.2853 C   0  0  0  0  0  0  0  0  0  0  0  0
    5.0725    0.8915    1.2459 C   0  0  0  0  0  0  0  0  0  0  0  0
    4.6712    2.6353   -0.5328 C   0  0  0  0  0  0  0  0  0  0  0  0
    5.7089    1.7649    0.1692 C   0  0  0  0  0  0  0  0  0  0  0  0
   -1.7305   -0.9033   -0.7652 C   0  0  0  0  0  0  0  0  0  0  0  0
   -1.9681    0.4698   -0.5823 C   0  0  0  0  0  0  0  0  0  0  0  0
   -4.1379    1.6080    0.3183 C   0  0  0  0  0  0  0  0  0  0  0  0
   -3.2469    0.5168   -0.0937 C   0  0  0  0  0  0  0  0  0  0  0  0
   -5.5649    1.1835    0.8326 C   0  0  0  0  0  0  0  0  0  0  0  0
   -4.4243    2.6097   -0.8547 C   0  0  0  0  0  0  0  0  0  0  0  0
   -3.5315    2.4524    1.4935 C   0  0  0  0  0  0  0  0  0  0  0  0
    2.4304    1.5972    0.7367 H   0  0  0  0  0  0  0  0  0  0  0  0
    2.2168   -0.5869   -1.3720 H   0  0  0  0  0  0  0  0  0  0  0  0
    1.0569    0.7191   -1.1282 H   0  0  0  0  0  0  0  0  0  0  0  0
    2.5813   -2.6799   -0.1341 H   0  0  0  0  0  0  0  0  0  0  0  0
    1.5313   -3.4365   -1.3539 H   0  0  0  0  0  0  0  0  0  0  0  0
   -1.0141   -3.2271    0.8620 H   0  0  0  0  0  0  0  0  0  0  0  0
    0.1080   -2.4387    1.9916 H   0  0  0  0  0  0  0  0  0  0  0  0
    0.4454   -0.0819    0.9408 H   0  0  0  0  0  0  0  0  0  0  0  0
    4.3307   -0.6820   -0.0203 H   0  0  0  0  0  0  0  0  0  0  0  0
    3.4772   -0.5113    1.5119 H   0  0  0  0  0  0  0  0  0  0  0  0
    2.7738    2.4690   -1.5360 H   0  0  0  0  0  0  0  0  0  0  0  0
    3.9026    1.1687   -1.9085 H   0  0  0  0  0  0  0  0  0  0  0  0
   -0.0308   -0.9602   -2.0829 H   0  0  0  0  0  0  0  0  0  0  0  0
   -0.7765   -2.4971   -1.7872 H   0  0  0  0  0  0  0  0  0  0  0  0
    5.8319    0.2321    1.6812 H   0  0  0  0  0  0  0  0  0  0  0  0
    4.6979    1.5271    2.0577 H   0  0  0  0  0  0  0  0  0  0  0  0
    4.2732    3.3722    0.1757 H   0  0  0  0  0  0  0  0  0  0  0  0
    5.1491    3.1974   -1.3430 H   0  0  0  0  0  0  0  0  0  0  0  0
    6.4808    2.4002    0.6179 H   0  0  0  0  0  0  0  0  0  0  0  0
    6.2094    1.1267   -0.5694 H   0  0  0  0  0  0  0  0  0  0  0  0
   -1.3121    1.3050   -0.7771 H   0  0  0  0  0  0  0  0  0  0  0  0
   -6.1686    2.0515    1.1205 H   0  0  0  0  0  0  0  0  0  0  0  0
   -6.1083    0.6353    0.0543 H   0  0  0  0  0  0  0  0  0  0  0  0
   -5.4806    0.5245    1.7045 H   0  0  0  0  0  0  0  0  0  0  0  0
   -5.0808    3.4276   -0.5374 H   0  0  0  0  0  0  0  0  0  0  0  0
   -3.4929    3.0529   -1.2257 H   0  0  0  0  0  0  0  0  0  0  0  0
   -4.9025    2.0938   -1.6955 H   0  0  0  0  0  0  0  0  0  0  0  0
   -4.1965    3.2719    1.7883 H   0  0  0  0  0  0  0  0  0  0  0  0
   -3.3559    1.8212    2.3724 H   0  0  0  0  0  0  0  0  0  0  0  0
   -2.5692    2.8900    1.2036 H   0  0  0  0  0  0  0  0  0  0  0  0
  1  8  1  0  0  0  0
  1  9  1  0  0  0  0
  2  4  1  0  0  0  0
  2 19  1  0  0  0  0
  3  5  1  0  0  0  0
  3  7  1  0  0  0  0
  3 30  1  0  0  0  0
  4 16  2  0  0  0  0
  5  8  1  0  0  0  0
  5  9  1  0  0  0  0
  5 12  1  0  0  0  0
  6  7  1  0  0  0  0
  6 10  1  0  0  0  0
  6 11  1  0  0  0  0
  6 23  1  0  0  0  0
  7 24  1  0  0  0  0
  7 25  1  0  0  0  0
  8 26  1  0  0  0  0
  8 27  1  0  0  0  0
  9 28  1  0  0  0  0
  9 29  1  0  0  0  0
 10 13  1  0  0  0  0
 10 31  1  0  0  0  0
 10 32  1  0  0  0  0
 11 14  1  0  0  0  0
 11 33  1  0  0  0  0
 11 34  1  0  0  0  0
 12 16  1  0  0  0  0
 12 35  1  0  0  0  0
 12 36  1  0  0  0  0
 13 15  1  0  0  0  0
 13 37  1  0  0  0  0
 13 38  1  0  0  0  0
 14 15  1  0  0  0  0
 14 39  1  0  0  0  0
 14 40  1  0  0  0  0
 15 41  1  0  0  0  0
 15 42  1  0  0  0  0
 16 17  1  0  0  0  0
 17 19  2  0  0  0  0
 17 43  1  0  0  0  0
 18 19  1  0  0  0  0
 18 20  1  0  0  0  0
 18 21  1  0  0  0  0
 18 22  1  0  0  0  0
 20 44  1  0  0  0  0
 20 45  1  0  0  0  0
 20 46  1  0  0  0  0
 21 47  1  0  0  0  0
 21 48  1  0  0  0  0
 21 49  1  0  0  0  0
 22 50  1  0  0  0  0
 22 51  1  0  0  0  0
 22 52  1  0  0  0  0
M  END
> <PUBCHEM_COMPOUND_CID>
56775461

> <PUBCHEM_CONFORMER_RMSD>
0.8

> <PUBCHEM_CONFORMER_DIVERSEORDER>
1
21
219
160
146
199
147
9
172
227
72
221
164
208
96
180
169
59
215
220
109
135
92
212
150
168
106
140
210
158
87
192
124
139
18
138
90
175
190
211
104
86
193
224
205
230
185
76
49
98
127
229
19
148
108
182
99
77
136
22
83
173
41
214
26
217
163
207
189
195
200
64
112
120
181
130
159
222
13
117
85
213
174
82
178
204
52
63
102
44
149
115
141
161
71
165
232
171
153
68
35
65
129
202
131
46
145
67
123
226
187
144
36
10
97
228
166
105
118
23
201
37
206
58
62
12
39
234
57
101
152
91
94
186
89
8
197
216
209
121
30
183
6
24
56
66
5
29
17
176
111
218
54
15
75
223
78
40
233
196
191
53
225
55
157
113
110
114
7
122
69
93
33
42
162
156
103
31
128
194
179
95
231
154
61
188
119
51
25
107
50
203
155
84
27
151
143
16
74
80
14
4
47
20
11
170
167
3
116
81
132
48
177
34
100
88
43
60
79
70
125
137
73
28
2
38
45
184
32
142
198
126
133
134

> <PUBCHEM_MMFF94_PARTIAL_CHARGES>
15
1 -0.52
12 0.18
16 0.11
17 -0.15
18 0.18
19 -0.04
2 -0.02
3 -0.84
30 0.36
4 -0.41
43 0.15
5 0.21
7 0.27
8 0.26
9 0.26

> <PUBCHEM_EFFECTIVE_ROTOR_COUNT>
8

> <PUBCHEM_PHARMACOPHORE_FEATURES>
8
1 1 acceptor
1 3 cation
1 3 donor
1 4 acceptor
4 1 5 8 9 rings
4 18 20 21 22 hydrophobe
5 2 4 16 17 19 rings
6 6 10 11 13 14 15 rings

> <PUBCHEM_HEAVY_ATOM_COUNT>
22

> <PUBCHEM_ATOM_DEF_STEREO_COUNT>
0

> <PUBCHEM_ATOM_UDEF_STEREO_COUNT>
0

> <PUBCHEM_BOND_DEF_STEREO_COUNT>
0

> <PUBCHEM_BOND_UDEF_STEREO_COUNT>
0

> <PUBCHEM_ISOTOPIC_ATOM_COUNT>
0

> <PUBCHEM_COMPONENT_COUNT>
1

> <PUBCHEM_CACTVS_TAUTO_COUNT>
1

> <PUBCHEM_CONFORMER_ID>
0362532500000001

> <PUBCHEM_MMFF94_ENERGY>
39.3767

> <PUBCHEM_FEATURE_SELFOVERLAP>
40.596

> <PUBCHEM_SHAPE_FINGERPRINT>
10042902 136 12035744118862420968
10382601 240 18187360970314457626
12107183 9 18334563630623680698
12173636 292 18121776390334473750
12390115 104 18340499948913684860
12422481 6 17969769805505994156
12633257 1 16298393486666686904
12788726 201 17832711544839466798
12930653 34 18335990839144480147
13583140 156 16081909543067885982
13590594 115 17619359710240951714
14178342 30 18041009453171721919
14251757 17 17060618936301661336
14251764 75 18201168646063673433
14466204 15 18411693288326780616
14739800 52 17916569965006825384
14790565 3 18335984259312624564
14849402 71 18264778662326902498
15163728 17 18340221755539745916
15475509 8 18341340981848314326
15664445 248 17626116247944125022
18222031 100 7925912569377709560
18785283 64 18261391084097347298
193927 3 10809346602851692465
19784866 9 18340200791604057130
20739085 24 18041002800193294068
21033650 10 18057346057098194484
21524375 3 18339072787126666886
21756936 100 18339920549615191598
22950370 63 9511469943694316824
235170 7 15769779073704624908
23559900 14 17628361463741211167
25147074 1 18200293452093113407
283562 15 18193552487984586479
2838139 119 17632287961023126936
3411729 13 18340208479700920693
3459 39 18200008730015599608
392239 28 18118698840309062771
394222 165 18340486651552999378
474 4 18408603634592295082
5104073 3 18191598445837571505
57724786 102 18054232029651716089
633830 44 18413386527722430926
7064713 232 18408880772027018564
7226269 152 18131629019837288192
7808743 9 18342174500891175921
7970288 3 8935005862633905920
79837 15 18261675994726297586
9981440 41 18335984250358518179

> <PUBCHEM_SHAPE_MULTIPOLES>
431.05
11.92
3.87
1.17
1.86
2.29
-0.1
-12.97
-2.16
0.55
-0.29
-0.06
-0.22
-0.91

> <PUBCHEM_SHAPE_SELFOVERLAP>
886.821

> <PUBCHEM_SHAPE_VOLUME>
251.3

> <PUBCHEM_COORDINATE_TYPE>
2
5
10

$$$$
