45783303
  -OEChem-12032416313D

 51 55  0     1  0  0  0  0  0999 V2000
   -2.6157    2.2959    0.2565 O   0  0  0  0  0  0  0  0  0  0  0  0
    5.4859   -2.5865    0.5911 O   0  0  0  0  0  0  0  0  0  0  0  0
   -3.5306   -1.2354    0.7014 N   0  0  1  0  0  0  0  0  0  0  0  0
   -1.1832    0.6047    0.5796 N   0  0  0  0  0  0  0  0  0  0  0  0
    3.7830   -0.3676    0.3160 N   0  0  0  0  0  0  0  0  0  0  0  0
   -2.8590   -0.4737   -2.6782 N   0  0  0  0  0  0  0  0  0  0  0  0
   -1.3420    2.8051   -0.0263 N   0  0  0  0  0  0  0  0  0  0  0  0
   -1.4801   -1.7850   -1.5333 N   0  0  0  0  0  0  0  0  0  0  0  0
    3.6451    1.9091   -0.3156 N   0  0  0  0  0  0  0  0  0  0  0  0
   -3.6771    0.2106    0.9623 C   0  0  1  0  0  0  0  0  0  0  0  0
   -4.0303    0.3043    2.4581 C   0  0  0  0  0  0  0  0  0  0  0  0
   -4.1200   -1.1377    2.9368 C   0  0  0  0  0  0  0  0  0  0  0  0
   -4.3913   -1.9189    1.6670 C   0  0  0  0  0  0  0  0  0  0  0  0
   -3.8454   -1.6060   -0.6723 C   0  0  0  0  0  0  0  0  0  0  0  0
   -2.4323    0.9955    0.6053 C   0  0  0  0  0  0  0  0  0  0  0  0
   -2.7037   -1.3106   -1.6084 C   0  0  0  0  0  0  0  0  0  0  0  0
   -0.5517    1.7488    0.1866 C   0  0  0  0  0  0  0  0  0  0  0  0
    3.5426   -1.5871   -0.4632 C   0  0  0  0  0  0  0  0  0  0  0  0
    5.1617   -0.1912    0.7925 C   0  0  0  0  0  0  0  0  0  0  0  0
    0.8716    1.8033    0.0174 C   0  0  0  0  0  0  0  0  0  0  0  0
    3.0166    0.7772    0.0738 C   0  0  0  0  0  0  0  0  0  0  0  0
    4.1085   -2.7926    0.2792 C   0  0  0  0  0  0  0  0  0  0  0  0
    5.6405   -1.4710    1.4683 C   0  0  0  0  0  0  0  0  0  0  0  0
    1.6466    0.6731    0.2529 C   0  0  0  0  0  0  0  0  0  0  0  0
   -1.6578   -0.4104   -3.3266 C   0  0  0  0  0  0  0  0  0  0  0  0
   -0.8230   -1.2276   -2.6016 C   0  0  0  0  0  0  0  0  0  0  0  0
    1.4819    2.9865   -0.3843 C   0  0  0  0  0  0  0  0  0  0  0  0
    2.8592    2.9871   -0.5350 C   0  0  0  0  0  0  0  0  0  0  0  0
   -4.5225    0.6244    0.3947 H   0  0  0  0  0  0  0  0  0  0  0  0
   -3.3004    0.8663    3.0509 H   0  0  0  0  0  0  0  0  0  0  0  0
   -5.0061    0.7912    2.5765 H   0  0  0  0  0  0  0  0  0  0  0  0
   -4.9015   -1.2759    3.6897 H   0  0  0  0  0  0  0  0  0  0  0  0
   -3.1633   -1.4442    3.3777 H   0  0  0  0  0  0  0  0  0  0  0  0
   -5.4513   -1.8430    1.3928 H   0  0  0  0  0  0  0  0  0  0  0  0
   -4.1272   -2.9748    1.7805 H   0  0  0  0  0  0  0  0  0  0  0  0
   -4.7779   -1.1442   -1.0211 H   0  0  0  0  0  0  0  0  0  0  0  0
   -4.0015   -2.6920   -0.7304 H   0  0  0  0  0  0  0  0  0  0  0  0
    2.4771   -1.7564   -0.6519 H   0  0  0  0  0  0  0  0  0  0  0  0
    4.0412   -1.4822   -1.4347 H   0  0  0  0  0  0  0  0  0  0  0  0
    5.8069    0.0408   -0.0639 H   0  0  0  0  0  0  0  0  0  0  0  0
    5.2294    0.6347    1.5106 H   0  0  0  0  0  0  0  0  0  0  0  0
   -3.7056    0.0124   -2.9426 H   0  0  0  0  0  0  0  0  0  0  0  0
    4.0363   -3.6855   -0.3498 H   0  0  0  0  0  0  0  0  0  0  0  0
    3.5509   -2.9908    1.2027 H   0  0  0  0  0  0  0  0  0  0  0  0
    5.0921   -1.6608    2.3990 H   0  0  0  0  0  0  0  0  0  0  0  0
    6.7022   -1.3855    1.7207 H   0  0  0  0  0  0  0  0  0  0  0  0
    1.1987   -0.2598    0.5826 H   0  0  0  0  0  0  0  0  0  0  0  0
   -1.5130    0.1911   -4.2122 H   0  0  0  0  0  0  0  0  0  0  0  0
    0.2186   -1.4413   -2.7925 H   0  0  0  0  0  0  0  0  0  0  0  0
    0.9293    3.8989   -0.5828 H   0  0  0  0  0  0  0  0  0  0  0  0
    3.3838    3.8843   -0.8466 H   0  0  0  0  0  0  0  0  0  0  0  0
  1  7  1  0  0  0  0
  1 15  1  0  0  0  0
  2 22  1  0  0  0  0
  2 23  1  0  0  0  0
  3 10  1  0  0  0  0
  3 13  1  0  0  0  0
  3 14  1  0  0  0  0
  4 15  2  0  0  0  0
  4 17  1  0  0  0  0
  5 18  1  0  0  0  0
  5 19  1  0  0  0  0
  5 21  1  0  0  0  0
  6 16  1  0  0  0  0
  6 25  1  0  0  0  0
  6 42  1  0  0  0  0
  7 17  2  0  0  0  0
  8 16  2  0  0  0  0
  8 26  1  0  0  0  0
  9 21  2  0  0  0  0
  9 28  1  0  0  0  0
 10 11  1  0  0  0  0
 10 15  1  0  0  0  0
 10 29  1  0  0  0  0
 11 12  1  0  0  0  0
 11 30  1  0  0  0  0
 11 31  1  0  0  0  0
 12 13  1  0  0  0  0
 12 32  1  0  0  0  0
 12 33  1  0  0  0  0
 13 34  1  0  0  0  0
 13 35  1  0  0  0  0
 14 16  1  0  0  0  0
 14 36  1  0  0  0  0
 14 37  1  0  0  0  0
 17 20  1  0  0  0  0
 18 22  1  0  0  0  0
 18 38  1  0  0  0  0
 18 39  1  0  0  0  0
 19 23  1  0  0  0  0
 19 40  1  0  0  0  0
 19 41  1  0  0  0  0
 20 24  2  0  0  0  0
 20 27  1  0  0  0  0
 21 24  1  0  0  0  0
 22 43  1  0  0  0  0
 22 44  1  0  0  0  0
 23 45  1  0  0  0  0
 23 46  1  0  0  0  0
 24 47  1  0  0  0  0
 25 26  2  0  0  0  0
 25 48  1  0  0  0  0
 26 49  1  0  0  0  0
 27 28  2  0  0  0  0
 27 50  1  0  0  0  0
 28 51  1  0  0  0  0
M  END
> <PUBCHEM_COMPOUND_CID>
45783303

> <PUBCHEM_CONFORMER_RMSD>
0.8

> <PUBCHEM_CONFORMER_DIVERSEORDER>
1
182
192
103
64
36
42
15
177
110
82
166
43
16
160
31
141
187
96
131
29
130
45
190
4
140
59
143
123
44
35
107
181
152
71
76
23
108
122
125
73
171
70
159
49
92
88
178
128
101
32
121
144
163
118
94
173
60
155
67
74
85
5
189
100
46
78
164
102
135
151
2
40
184
146
34
162
133
132
147
9
90
12
28
93
95
105
172
161
63
165
62
21
58
120
156
188
111
38
127
57
153
112
168
75
81
148
72
137
65
139
26
33
185
19
30
106
129
167
39
97
99
170
79
18
116
86
52
54
87
149
24
56
186
117
17
134
176
3
115
183
179
113
69
10
142
124
89
37
157
91
66
104
119
55
126
154
53
175
41
48
145
150
80
109
158
6
191
174
98
138
68
136
51
22
84
61
13
169
8
47
77
7
180
114
20
25
83
14
11
27
50

> <PUBCHEM_MMFF94_PARTIAL_CHARGES>
32
1 -0.02
10 0.45
13 0.27
14 0.45
15 0.3
16 0.01
17 0.46
18 0.37
19 0.37
2 -0.56
20 0.05
21 0.41
22 0.28
23 0.28
24 -0.15
25 -0.3
26 0.08
27 -0.15
28 0.16
3 -0.81
4 -0.57
42 0.27
47 0.15
48 0.15
49 0.15
5 -0.84
50 0.15
51 0.15
6 0.03
7 -0.41
8 -0.57
9 -0.62

> <PUBCHEM_EFFECTIVE_ROTOR_COUNT>
7.2

> <PUBCHEM_PHARMACOPHORE_FEATURES>
11
1 2 acceptor
1 3 cation
1 6 donor
3 4 7 17 cation
3 5 9 21 cation
3 6 8 16 cation
5 1 4 7 15 17 rings
5 3 10 11 12 13 rings
5 6 8 16 25 26 rings
6 2 5 18 19 22 23 rings
6 9 20 21 24 27 28 rings

> <PUBCHEM_HEAVY_ATOM_COUNT>
28

> <PUBCHEM_ATOM_DEF_STEREO_COUNT>
1

> <PUBCHEM_ATOM_UDEF_STEREO_COUNT>
0

> <PUBCHEM_BOND_DEF_STEREO_COUNT>
0

> <PUBCHEM_BOND_UDEF_STEREO_COUNT>
0

> <PUBCHEM_ISOTOPIC_ATOM_COUNT>
0

> <PUBCHEM_COMPONENT_COUNT>
1

> <PUBCHEM_CACTVS_TAUTO_COUNT>
1

> <PUBCHEM_CONFORMER_ID>
02BA990700000001

> <PUBCHEM_MMFF94_ENERGY>
58.913

> <PUBCHEM_FEATURE_SELFOVERLAP>
55.826

> <PUBCHEM_SHAPE_FINGERPRINT>
10369192 42 17099760592742513700
10764073 3 18190195490348913877
11135926 11 18190180281848814876
11273773 118 12534765237341773554
11552529 35 16055727985077688158
12422481 6 17917162588794627830
12553582 1 18411981356515516942
12623949 98 17099487892246409755
12633257 1 16845293868762264657
12655387 17 18117585993313819513
12788726 201 16556498468699422741
13004483 165 15264787801973317525
14910302 57 16805596005820599963
15419009 47 14204172227069546082
15537594 2 18343591741768061446
19319366 153 17691422114400255425
21033650 10 14924213898743993036
212916 134 15984564251211994667
21315759 227 17967249797758826002
21796203 349 18197524937775133448
22620623 9 16008738118018153565
22907989 373 12540699201894838325
235170 7 16732980972446384076
23598288 3 18411704257673312953
5104073 3 18410582768687484128
581034 39 16845285077618610870
7064713 232 17203618063987560875
9862522 239 17632588119587265585

> <PUBCHEM_SHAPE_MULTIPOLES>
529.62
11.3
3.35
2.59
9.25
1.22
-1.32
-7.72
6.48
2.88
0.02
-4.15
-1.41
-1.01

> <PUBCHEM_SHAPE_SELFOVERLAP>
1152.247

> <PUBCHEM_SHAPE_VOLUME>
287.9

> <PUBCHEM_COORDINATE_TYPE>
2
5
10

$$$$
