45784215
  -OEChem-12032416243D

 42 44  0     1  0  0  0  0  0999 V2000
   -3.1872    0.6606   -0.0691 N   0  0  1  0  0  0  0  0  0  0  0  0
    1.4255    0.5370    1.2222 N   0  0  0  0  0  0  0  0  0  0  0  0
    0.9296    0.2001   -0.9180 N   0  0  0  0  0  0  0  0  0  0  0  0
   -0.9548    0.9918    0.5681 C   0  0  2  0  0  0  0  0  0  0  0  0
   -1.9861   -0.1051    0.2712 C   0  0  0  0  0  0  0  0  0  0  0  0
   -1.4535    2.2180   -0.2162 C   0  0  0  0  0  0  0  0  0  0  0  0
   -2.7124    1.7436   -0.9304 C   0  0  0  0  0  0  0  0  0  0  0  0
   -4.2024   -0.1574   -0.7161 C   0  0  0  0  0  0  0  0  0  0  0  0
    0.4617    0.5696    0.2532 C   0  0  0  0  0  0  0  0  0  0  0  0
   -4.7532   -1.2534    0.2124 C   0  0  0  0  0  0  0  0  0  0  0  0
   -5.3867   -0.6117    1.4499 C   0  0  0  0  0  0  0  0  0  0  0  0
   -5.7790   -2.1518   -0.4834 C   0  0  0  0  0  0  0  0  0  0  0  0
    2.5931    0.1181    0.6375 C   0  0  0  0  0  0  0  0  0  0  0  0
    2.2575   -0.0854   -0.6982 C   0  0  0  0  0  0  0  0  0  0  0  0
    3.8747   -0.0935    1.1466 C   0  0  0  0  0  0  0  0  0  0  0  0
    3.2469   -0.5262   -1.5933 C   0  0  0  0  0  0  0  0  0  0  0  0
    4.8470   -0.5321    0.2418 C   0  0  0  0  0  0  0  0  0  0  0  0
    4.5408   -0.7452   -1.1043 C   0  0  0  0  0  0  0  0  0  0  0  0
    6.2386   -0.7769    0.7262 C   0  0  0  0  0  0  0  0  0  0  0  0
   -1.0137    1.2419    1.6375 H   0  0  0  0  0  0  0  0  0  0  0  0
   -2.1269   -0.7370    1.1545 H   0  0  0  0  0  0  0  0  0  0  0  0
   -1.6620   -0.7427   -0.5620 H   0  0  0  0  0  0  0  0  0  0  0  0
   -1.7001    3.0239    0.4863 H   0  0  0  0  0  0  0  0  0  0  0  0
   -0.7169    2.6100   -0.9255 H   0  0  0  0  0  0  0  0  0  0  0  0
   -2.4557    1.3821   -1.9345 H   0  0  0  0  0  0  0  0  0  0  0  0
   -3.4475    2.5489   -1.0255 H   0  0  0  0  0  0  0  0  0  0  0  0
   -3.8065   -0.6226   -1.6290 H   0  0  0  0  0  0  0  0  0  0  0  0
   -5.0355    0.4848   -1.0314 H   0  0  0  0  0  0  0  0  0  0  0  0
   -3.9396   -1.9105    0.5415 H   0  0  0  0  0  0  0  0  0  0  0  0
    1.3033    0.7775    2.1970 H   0  0  0  0  0  0  0  0  0  0  0  0
   -4.6517   -0.0580    2.0427 H   0  0  0  0  0  0  0  0  0  0  0  0
   -6.1921    0.0775    1.1736 H   0  0  0  0  0  0  0  0  0  0  0  0
   -5.8144   -1.3790    2.1048 H   0  0  0  0  0  0  0  0  0  0  0  0
   -5.3333   -2.6405   -1.3560 H   0  0  0  0  0  0  0  0  0  0  0  0
   -6.1372   -2.9345    0.1936 H   0  0  0  0  0  0  0  0  0  0  0  0
   -6.6447   -1.5740   -0.8244 H   0  0  0  0  0  0  0  0  0  0  0  0
    4.0992    0.0776    2.1939 H   0  0  0  0  0  0  0  0  0  0  0  0
    3.0189   -0.6942   -2.6411 H   0  0  0  0  0  0  0  0  0  0  0  0
    5.3101   -1.0846   -1.7944 H   0  0  0  0  0  0  0  0  0  0  0  0
    6.6958   -1.6200    0.1970 H   0  0  0  0  0  0  0  0  0  0  0  0
    6.2510   -1.0244    1.7932 H   0  0  0  0  0  0  0  0  0  0  0  0
    6.8532    0.1147    0.5676 H   0  0  0  0  0  0  0  0  0  0  0  0
  1  5  1  0  0  0  0
  1  7  1  0  0  0  0
  1  8  1  0  0  0  0
  2  9  1  0  0  0  0
  2 13  1  0  0  0  0
  2 30  1  0  0  0  0
  3  9  2  0  0  0  0
  3 14  1  0  0  0  0
  4  5  1  0  0  0  0
  4  6  1  0  0  0  0
  4  9  1  0  0  0  0
  4 20  1  0  0  0  0
  5 21  1  0  0  0  0
  5 22  1  0  0  0  0
  6  7  1  0  0  0  0
  6 23  1  0  0  0  0
  6 24  1  0  0  0  0
  7 25  1  0  0  0  0
  7 26  1  0  0  0  0
  8 10  1  0  0  0  0
  8 27  1  0  0  0  0
  8 28  1  0  0  0  0
 10 11  1  0  0  0  0
 10 12  1  0  0  0  0
 10 29  1  0  0  0  0
 11 31  1  0  0  0  0
 11 32  1  0  0  0  0
 11 33  1  0  0  0  0
 12 34  1  0  0  0  0
 12 35  1  0  0  0  0
 12 36  1  0  0  0  0
 13 14  2  0  0  0  0
 13 15  1  0  0  0  0
 14 16  1  0  0  0  0
 15 17  2  0  0  0  0
 15 37  1  0  0  0  0
 16 18  2  0  0  0  0
 16 38  1  0  0  0  0
 17 18  1  0  0  0  0
 17 19  1  0  0  0  0
 18 39  1  0  0  0  0
 19 40  1  0  0  0  0
 19 41  1  0  0  0  0
 19 42  1  0  0  0  0
M  END
> <PUBCHEM_COMPOUND_CID>
45784215

> <PUBCHEM_CONFORMER_RMSD>
0.6

> <PUBCHEM_CONFORMER_DIVERSEORDER>
1
15
23
10
29
24
14
19
12
11
43
6
22
35
37
17
31
20
44
33
18
9
27
13
30
42
40
21
2
28
16
34
36
4
25
7
41
3
8
39
26
38
32
5

> <PUBCHEM_MMFF94_PARTIAL_CHARGES>
19
1 -0.81
13 -0.15
14 0.23
15 -0.15
16 -0.15
17 -0.14
18 -0.15
19 0.14
2 0.03
3 -0.57
30 0.27
37 0.15
38 0.15
39 0.15
4 0.18
5 0.27
7 0.27
8 0.27
9 0.01

> <PUBCHEM_EFFECTIVE_ROTOR_COUNT>
4

> <PUBCHEM_PHARMACOPHORE_FEATURES>
7
1 1 cation
1 2 donor
3 10 11 12 hydrophobe
3 2 3 9 cation
5 1 4 5 6 7 rings
5 2 3 9 13 14 rings
6 13 14 15 16 17 18 rings

> <PUBCHEM_HEAVY_ATOM_COUNT>
19

> <PUBCHEM_ATOM_DEF_STEREO_COUNT>
1

> <PUBCHEM_ATOM_UDEF_STEREO_COUNT>
0

> <PUBCHEM_BOND_DEF_STEREO_COUNT>
0

> <PUBCHEM_BOND_UDEF_STEREO_COUNT>
0

> <PUBCHEM_ISOTOPIC_ATOM_COUNT>
0

> <PUBCHEM_COMPONENT_COUNT>
1

> <PUBCHEM_CACTVS_TAUTO_COUNT>
2

> <PUBCHEM_CONFORMER_ID>
02BA9C9700000001

> <PUBCHEM_MMFF94_ENERGY>
30.6295

> <PUBCHEM_FEATURE_SELFOVERLAP>
35.629

> <PUBCHEM_SHAPE_FINGERPRINT>
10354089 29 14908181967038593482
11045515 52 16226048903510088189
11046707 91 18408040719584076993
11089746 13 11818991911458416740
11543360 7 15213016081440461569
11552529 35 15337970127323012991
11796584 16 18123468268294523526
12236239 1 17385443198435340196
12616971 3 15267053740677039184
12670543 26 13045935785868962594
12892183 10 15984839124940113035
12969540 114 11891327699229012723
13288520 33 18335136488623463625
13740256 8 18340769338152948977
13862211 1 18335700572385356939
1420 363 18131353003426023310
14251718 22 18260829298116427588
14251757 5 16806462472919080427
14251764 18 14549018793439681803
14251764 30 17896332475036790459
14252887 29 16773802467900117334
14341114 176 15554456192719864970
14386348 63 18060421308915175407
14528608 73 13840264818650416843
14576447 43 17530961384575168170
146900 427 16415469493999252634
14849402 71 15122642857330940546
15048467 5 10952044563963888258
15183329 4 14996272613804976799
1601671 61 10592044661214587242
17349148 13 17530969055428956736
17780758 139 17632579366549502715
17834072 33 16877666768296919798
17844677 252 18412827988505522737
1813 80 18340212972479805917
18222031 100 18410292558015551269
18785283 64 17631158870214118320
19141452 34 17775003531495903143
193927 3 18338526321626583215
19784866 170 11959735975250659605
200 152 17022623069993996165
20281389 69 10519983764246659654
20374829 77 18409729578076421663
21054139 6 17676483947798769930
21065201 7 18267581308628034608
21150785 3 17968107417413858702
21426921 1 18188767245813380037
21623969 137 17275105033144981470
21728266 224 18115015325483083010
221357 26 14707198933757350167
23402539 116 17748827388968510333
23402655 69 14129049318776948655
23557571 272 18270393884799337213
23559900 14 17313951951285343025
23590187 135 18412261744090099918
26918003 58 17561087990671143235
2767999 5 9943530683029127059
2838139 119 11602813631797491895
29717793 49 17313104129357703550
300161 21 12535342377038750728
312425 54 17560814216671657739
314173 85 18343868814366669121
34797466 226 18342471361221631996
351380 3 18186803604055982451
465052 167 18060416894585704206
5104073 3 16915946158834979850
5283156 175 17603584106341770219
5352402 22 17346888848782071551
542803 24 13183017419499711990
7471813 234 17458347442165195156
7495541 125 18342173384458356264
7970288 3 18335137639696662139

> <PUBCHEM_SHAPE_MULTIPOLES>
376.07
14.15
1.6
1.29
1.16
0.3
0.04
-8.61
-1.28
2.44
0.26
-0.5
-0.11
0.33

> <PUBCHEM_SHAPE_SELFOVERLAP>
797.689

> <PUBCHEM_SHAPE_VOLUME>
213

> <PUBCHEM_COORDINATE_TYPE>
2
5
10

$$$$
