11911999
  -OEChem-12032416373D

 46 50  0     1  0  0  0  0  0999 V2000
   -6.6122   -1.4664   -0.1079 S   0  0  0  0  0  0  0  0  0  0  0  0
   -0.9700    3.3731    0.2246 O   0  0  0  0  0  0  0  0  0  0  0  0
   -0.4935    0.6926    1.7493 O   0  0  0  0  0  0  0  0  0  0  0  0
   -5.1879    0.8079    1.0793 O   0  0  0  0  0  0  0  0  0  0  0  0
    3.6436   -1.5209    1.4774 O   0  0  0  0  0  0  0  0  0  0  0  0
    1.7173    2.1828   -0.7448 N   0  0  0  0  0  0  0  0  0  0  0  0
   -3.1268    0.4201    0.1208 N   0  0  0  0  0  0  0  0  0  0  0  0
    3.0450    0.3154   -0.2375 N   0  0  0  0  0  0  0  0  0  0  0  0
    3.2760    1.4629   -2.3440 N   0  0  0  0  0  0  0  0  0  0  0  0
   -0.1314    1.1566    0.4377 C   0  0  1  0  0  0  0  0  0  0  0  0
   -1.2814    2.0021   -0.0737 C   0  0  1  0  0  0  0  0  0  0  0  0
    1.0269    2.1221    0.5249 C   0  0  2  0  0  0  0  0  0  0  0  0
   -2.4675    1.5426    0.7431 C   0  0  2  0  0  0  0  0  0  0  0  0
    0.3379    3.4436    0.8115 C   0  0  0  0  0  0  0  0  0  0  0  0
   -1.8213    1.1420    2.0574 C   0  0  0  0  0  0  0  0  0  0  0  0
    2.7090    1.2938   -1.1198 C   0  0  0  0  0  0  0  0  0  0  0  0
   -4.4702    0.1321    0.3427 C   0  0  0  0  0  0  0  0  0  0  0  0
   -4.9849   -1.0641   -0.3385 C   0  0  0  0  0  0  0  0  0  0  0  0
    4.0147   -0.5337   -0.6360 C   0  0  0  0  0  0  0  0  0  0  0  0
   -4.3042   -1.9056   -1.1475 C   0  0  0  0  0  0  0  0  0  0  0  0
    4.2389    0.5786   -2.6778 C   0  0  0  0  0  0  0  0  0  0  0  0
    4.6532   -0.4499   -1.8566 C   0  0  0  0  0  0  0  0  0  0  0  0
   -5.1537   -2.9494   -1.6157 C   0  0  0  0  0  0  0  0  0  0  0  0
    4.3489   -1.5570    0.3183 C   0  0  0  0  0  0  0  0  0  0  0  0
   -6.4362   -2.8312   -1.1269 C   0  0  0  0  0  0  0  0  0  0  0  0
    5.2473   -2.5957    0.3268 C   0  0  0  0  0  0  0  0  0  0  0  0
    5.0848   -3.2429    1.5749 C   0  0  0  0  0  0  0  0  0  0  0  0
    4.0977   -2.5515    2.2379 C   0  0  0  0  0  0  0  0  0  0  0  0
    0.0518    0.2715   -0.1799 H   0  0  0  0  0  0  0  0  0  0  0  0
   -1.4226    1.9258   -1.1567 H   0  0  0  0  0  0  0  0  0  0  0  0
    1.7279    1.8988    1.3375 H   0  0  0  0  0  0  0  0  0  0  0  0
   -3.2019    2.3385    0.9073 H   0  0  0  0  0  0  0  0  0  0  0  0
    0.2010    3.5869    1.8891 H   0  0  0  0  0  0  0  0  0  0  0  0
    0.8660    4.3162    0.4147 H   0  0  0  0  0  0  0  0  0  0  0  0
   -1.7249    2.0052    2.7252 H   0  0  0  0  0  0  0  0  0  0  0  0
   -2.3555    0.3512    2.5927 H   0  0  0  0  0  0  0  0  0  0  0  0
    1.4387    2.8751   -1.4308 H   0  0  0  0  0  0  0  0  0  0  0  0
   -2.5561   -0.1924   -0.4512 H   0  0  0  0  0  0  0  0  0  0  0  0
   -3.2616   -1.8301   -1.4245 H   0  0  0  0  0  0  0  0  0  0  0  0
    4.6827    0.7247   -3.6568 H   0  0  0  0  0  0  0  0  0  0  0  0
    5.4313   -1.1324   -2.1740 H   0  0  0  0  0  0  0  0  0  0  0  0
   -4.8403   -3.7464   -2.2775 H   0  0  0  0  0  0  0  0  0  0  0  0
   -7.2782   -3.4811   -1.3195 H   0  0  0  0  0  0  0  0  0  0  0  0
    5.9390   -2.8657   -0.4587 H   0  0  0  0  0  0  0  0  0  0  0  0
    5.6200   -4.1054    1.9449 H   0  0  0  0  0  0  0  0  0  0  0  0
    3.6296   -2.6600    3.2053 H   0  0  0  0  0  0  0  0  0  0  0  0
  1 18  1  0  0  0  0
  1 25  1  0  0  0  0
  2 11  1  0  0  0  0
  2 14  1  0  0  0  0
  3 10  1  0  0  0  0
  3 15  1  0  0  0  0
  4 17  2  0  0  0  0
  5 24  1  0  0  0  0
  5 28  1  0  0  0  0
  6 12  1  0  0  0  0
  6 16  1  0  0  0  0
  6 37  1  0  0  0  0
  7 13  1  0  0  0  0
  7 17  1  0  0  0  0
  7 38  1  0  0  0  0
  8 16  1  0  0  0  0
  8 19  2  0  0  0  0
  9 16  2  0  0  0  0
  9 21  1  0  0  0  0
 10 11  1  0  0  0  0
 10 12  1  0  0  0  0
 10 29  1  0  0  0  0
 11 13  1  0  0  0  0
 11 30  1  0  0  0  0
 12 14  1  0  0  0  0
 12 31  1  0  0  0  0
 13 15  1  0  0  0  0
 13 32  1  0  0  0  0
 14 33  1  0  0  0  0
 14 34  1  0  0  0  0
 15 35  1  0  0  0  0
 15 36  1  0  0  0  0
 17 18  1  0  0  0  0
 18 20  2  0  0  0  0
 19 22  1  0  0  0  0
 19 24  1  0  0  0  0
 20 23  1  0  0  0  0
 20 39  1  0  0  0  0
 21 22  2  0  0  0  0
 21 40  1  0  0  0  0
 22 41  1  0  0  0  0
 23 25  2  0  0  0  0
 23 42  1  0  0  0  0
 24 26  2  0  0  0  0
 25 43  1  0  0  0  0
 26 27  1  0  0  0  0
 26 44  1  0  0  0  0
 27 28  2  0  0  0  0
 27 45  1  0  0  0  0
 28 46  1  0  0  0  0
M  END
> <PUBCHEM_COMPOUND_CID>
11911999

> <PUBCHEM_CONFORMER_RMSD>
1

> <PUBCHEM_CONFORMER_DIVERSEORDER>
1
534
39
505
237
350
397
296
667
653
693
374
59
30
253
456
132
684
157
655
687
696
31
457
158
411
80
601
341
72
391
24
656
17
715
275
86
353
118
518
293
269
267
205
410
547
108
579
445
602
119
228
491
705
658
327
671
261
685
607
347
8
707
277
185
581
123
154
370
60
688
126
245
85
386
250
600
65
677
75
68
241
638
54
522
402
180
616
171
181
686
513
9
564
538
211
681
389
682
214
42
422
520
29
396
10
251
163
307
718
463
99
204
446
394
161
376
375
97
512
40
425
58
145
304
21
4
675
288
666
170
362
90
617
74
93
22
292
121
527
3
593
27
576
670
56
7
679
162
43
260
562
184
6
258
103
122
326
134
26
95
535
113
648
379
552
101
28
12
175
41
2

> <PUBCHEM_MMFF94_PARTIAL_CHARGES>
38
1 -0.08
10 0.28
11 0.28
12 0.37
13 0.3
14 0.28
15 0.28
16 0.72
17 0.71
18 -0.05
19 0.36
2 -0.56
20 -0.15
21 0.16
22 -0.15
23 -0.15
24 0.09
25 -0.11
26 -0.15
27 -0.15
28 -0.01
3 -0.56
37 0.4
38 0.37
39 0.15
4 -0.57
40 0.15
41 0.15
42 0.15
43 0.15
44 0.15
45 0.15
46 0.15
5 -0.28
6 -0.87
7 -0.73
8 -0.62
9 -0.62

> <PUBCHEM_EFFECTIVE_ROTOR_COUNT>
7.2

> <PUBCHEM_PHARMACOPHORE_FEATURES>
13
1 2 acceptor
1 3 acceptor
1 4 acceptor
1 5 acceptor
1 6 donor
1 7 donor
1 8 acceptor
4 6 8 9 16 cation
5 1 18 20 23 25 rings
5 2 10 11 12 14 rings
5 3 10 11 13 15 rings
5 5 24 26 27 28 rings
6 8 9 16 19 21 22 rings

> <PUBCHEM_HEAVY_ATOM_COUNT>
28

> <PUBCHEM_ATOM_DEF_STEREO_COUNT>
4

> <PUBCHEM_ATOM_UDEF_STEREO_COUNT>
0

> <PUBCHEM_BOND_DEF_STEREO_COUNT>
0

> <PUBCHEM_BOND_UDEF_STEREO_COUNT>
0

> <PUBCHEM_ISOTOPIC_ATOM_COUNT>
0

> <PUBCHEM_COMPONENT_COUNT>
1

> <PUBCHEM_CACTVS_TAUTO_COUNT>
6

> <PUBCHEM_CONFORMER_ID>
00B5C33F00000001

> <PUBCHEM_MMFF94_ENERGY>
60.5734

> <PUBCHEM_FEATURE_SELFOVERLAP>
66.693

> <PUBCHEM_SHAPE_FINGERPRINT>
10074138 170 16843902862758849529
10462674 125 11812478533752104973
10622 236 17970339326596017450
10928967 22 18411986888043510483
11069576 57 18113905927421379526
11135609 149 17968357005825422188
11135926 11 17314822700961309860
11497681 19 18191581944843044162
11607047 403 18265316465763413936
11796584 16 18131639971676753877
12107183 9 18201452367909406729
12342043 65 16270823138569756084
12422481 6 17060336318842583503
12661589 4 18057038232439541959
12788726 201 18267320741320343960
12975358 362 7924262280489451463
14251751 18 18343012272864076187
14347332 77 18412823616972009573
14480069 147 18041572433105655435
14848178 5 17846784022527645173
15163728 17 10665228107825137737
15728490 51 18341325640104021330
17134984 74 18042972158240672406
17138139 8 18337963380231617102
20567600 234 10519993669095105527
20626108 58 18130508616966182097
20691028 202 11387458839792149887
20775438 99 18046613775133100779
208703 8 18412261718611148478
21223535 225 15936961925536376085
21458453 9 15625074594772594950
21585483 132 17985531494001749167
21599406 157 17241042236427284231
21703447 108 17986950937183961833
21792965 302 18048605012761594700
25222932 49 18271800281020554364
2838139 119 12901816285788288445
3004659 81 18129953381027037477
3882209 13 15506283131386198146
392239 28 14045739283632105388
439807 62 18333731338886852463
46194498 28 15286797730747820084
463206 1 18408325479720575003
5085150 59 17775000151646648751
5104073 3 17417820595080655241
5223283 242 15719950211887519679
57035037 87 12035741925410882566
59025328 239 17458625563125693436
59682541 52 17749382698370433975
6058803 2 18118987822883896940
6677587 24 16518490559124483422
7970288 3 18341045237925239895
96874 4 18409720742659657779

> <PUBCHEM_SHAPE_MULTIPOLES>
536.68
16.01
4.2
2.15
13.76
0.22
-0.43
18.29
-3.36
-0.48
0.89
-2.75
0.47
-5.3

> <PUBCHEM_SHAPE_SELFOVERLAP>
1174.474

> <PUBCHEM_SHAPE_VOLUME>
292.8

> <PUBCHEM_COORDINATE_TYPE>
2
5
10

$$$$
