75536153
  -OEChem-12032416303D

 67 70  0     1  0  0  0  0  0999 V2000
    6.0378   -4.9873   -0.0237 F   0  0  0  0  0  0  0  0  0  0  0  0
    3.7267    0.8887   -1.5171 O   0  0  0  0  0  0  0  0  0  0  0  0
   -7.0599   -2.7699   -0.3623 O   0  0  0  0  0  0  0  0  0  0  0  0
    2.9608    2.1495    0.2651 N   0  0  0  0  0  0  0  0  0  0  0  0
   -3.4097   -0.0123    1.3840 N   0  0  0  0  0  0  0  0  0  0  0  0
   -1.9160   -0.8097   -0.0555 N   0  0  0  0  0  0  0  0  0  0  0  0
    3.8077    0.0402    0.6701 N   0  0  0  0  0  0  0  0  0  0  0  0
    0.2180    2.4364   -0.9342 C   0  0  1  0  0  0  0  0  0  0  0  0
    1.0700    3.5749   -0.3195 C   0  0  1  0  0  0  0  0  0  0  0  0
   -1.2215    2.4962   -0.4009 C   0  0  0  0  0  0  0  0  0  0  0  0
   -1.2799    2.3756    1.1336 C   0  0  2  0  0  0  0  0  0  0  0  0
    0.2071    2.4970   -2.4648 C   0  0  0  0  0  0  0  0  0  0  0  0
   -0.2701    3.2817    1.8085 C   0  0  0  0  0  0  0  0  0  0  0  0
    0.7658    3.8191    1.1399 C   0  0  0  0  0  0  0  0  0  0  0  0
    2.5682    3.2982   -0.4895 C   0  0  0  0  0  0  0  0  0  0  0  0
   -1.0969    0.9210    1.5806 C   0  0  0  0  0  0  0  0  0  0  0  0
   -0.0888    1.1197   -3.0498 C   0  0  0  0  0  0  0  0  0  0  0  0
   -0.8140    3.5213   -2.9494 C   0  0  0  0  0  0  0  0  0  0  0  0
   -0.5041    3.5931    3.2605 C   0  0  0  0  0  0  0  0  0  0  0  0
   -2.1156    0.0192    0.9445 C   0  0  0  0  0  0  0  0  0  0  0  0
    3.5261    0.9962   -0.3097 C   0  0  0  0  0  0  0  0  0  0  0  0
   -4.0906   -0.9218    0.6162 C   0  0  0  0  0  0  0  0  0  0  0  0
   -3.1366   -1.4057   -0.2746 C   0  0  0  0  0  0  0  0  0  0  0  0
   -5.4186   -1.3498    0.6243 C   0  0  0  0  0  0  0  0  0  0  0  0
   -3.5120   -2.3746   -1.2204 C   0  0  0  0  0  0  0  0  0  0  0  0
   -5.7748   -2.3145   -0.3239 C   0  0  0  0  0  0  0  0  0  0  0  0
   -4.8400   -2.8192   -1.2307 C   0  0  0  0  0  0  0  0  0  0  0  0
    4.3770   -1.2425    0.4931 C   0  0  0  0  0  0  0  0  0  0  0  0
    4.7281   -1.6795   -0.7841 C   0  0  0  0  0  0  0  0  0  0  0  0
    4.5872   -2.0704    1.5958 C   0  0  0  0  0  0  0  0  0  0  0  0
   -7.9694   -2.2188    0.5872 C   0  0  0  0  0  0  0  0  0  0  0  0
    5.2895   -2.9444   -0.9587 C   0  0  0  0  0  0  0  0  0  0  0  0
    5.1486   -3.3354    1.4213 C   0  0  0  0  0  0  0  0  0  0  0  0
    5.4998   -3.7723    0.1441 C   0  0  0  0  0  0  0  0  0  0  0  0
    0.6450    1.4723   -0.6325 H   0  0  0  0  0  0  0  0  0  0  0  0
    0.8523    4.5169   -0.8384 H   0  0  0  0  0  0  0  0  0  0  0  0
   -1.8671    1.7609   -0.8883 H   0  0  0  0  0  0  0  0  0  0  0  0
   -1.6654    3.4753   -0.6281 H   0  0  0  0  0  0  0  0  0  0  0  0
   -2.2839    2.7092    1.4332 H   0  0  0  0  0  0  0  0  0  0  0  0
    1.1908    2.7946   -2.8422 H   0  0  0  0  0  0  0  0  0  0  0  0
    1.4328    4.5006    1.6644 H   0  0  0  0  0  0  0  0  0  0  0  0
    3.1538    4.1413   -0.1031 H   0  0  0  0  0  0  0  0  0  0  0  0
    2.8461    3.1827   -1.5404 H   0  0  0  0  0  0  0  0  0  0  0  0
   -1.1944    0.8363    2.6702 H   0  0  0  0  0  0  0  0  0  0  0  0
   -0.0930    0.5535    1.3350 H   0  0  0  0  0  0  0  0  0  0  0  0
    0.6588    0.3877   -2.7254 H   0  0  0  0  0  0  0  0  0  0  0  0
   -1.0759    0.7471   -2.7594 H   0  0  0  0  0  0  0  0  0  0  0  0
   -0.0599    1.1551   -4.1445 H   0  0  0  0  0  0  0  0  0  0  0  0
   -0.6912    4.4985   -2.4732 H   0  0  0  0  0  0  0  0  0  0  0  0
   -0.6778    3.6828   -4.0260 H   0  0  0  0  0  0  0  0  0  0  0  0
   -1.8501    3.1878   -2.8282 H   0  0  0  0  0  0  0  0  0  0  0  0
   -1.5045    4.0146    3.4024 H   0  0  0  0  0  0  0  0  0  0  0  0
    0.2171    4.3212    3.6472 H   0  0  0  0  0  0  0  0  0  0  0  0
   -0.4166    2.6890    3.8702 H   0  0  0  0  0  0  0  0  0  0  0  0
    2.8913    2.1884    1.2774 H   0  0  0  0  0  0  0  0  0  0  0  0
   -3.7981    0.5368    2.1395 H   0  0  0  0  0  0  0  0  0  0  0  0
   -6.0929   -0.9193    1.3529 H   0  0  0  0  0  0  0  0  0  0  0  0
   -2.7931   -2.7726   -1.9294 H   0  0  0  0  0  0  0  0  0  0  0  0
    3.5766    0.2882    1.6289 H   0  0  0  0  0  0  0  0  0  0  0  0
   -5.1407   -3.5689   -1.9589 H   0  0  0  0  0  0  0  0  0  0  0  0
    4.5964   -1.0974   -1.6852 H   0  0  0  0  0  0  0  0  0  0  0  0
    4.3179   -1.7422    2.5965 H   0  0  0  0  0  0  0  0  0  0  0  0
   -8.9419   -2.6917    0.4147 H   0  0  0  0  0  0  0  0  0  0  0  0
   -8.1079   -1.1428    0.4361 H   0  0  0  0  0  0  0  0  0  0  0  0
   -7.6762   -2.4605    1.6145 H   0  0  0  0  0  0  0  0  0  0  0  0
    5.5633   -3.2863   -1.9526 H   0  0  0  0  0  0  0  0  0  0  0  0
    5.3122   -3.9804    2.2795 H   0  0  0  0  0  0  0  0  0  0  0  0
  1 34  1  0  0  0  0
  2 21  2  0  0  0  0
  3 26  1  0  0  0  0
  3 31  1  0  0  0  0
  4 15  1  0  0  0  0
  4 21  1  0  0  0  0
  4 55  1  0  0  0  0
  5 20  1  0  0  0  0
  5 22  1  0  0  0  0
  5 56  1  0  0  0  0
  6 20  2  0  0  0  0
  6 23  1  0  0  0  0
  7 21  1  0  0  0  0
  7 28  1  0  0  0  0
  7 59  1  0  0  0  0
  8  9  1  0  0  0  0
  8 10  1  0  0  0  0
  8 12  1  0  0  0  0
  8 35  1  0  0  0  0
  9 14  1  0  0  0  0
  9 15  1  0  0  0  0
  9 36  1  0  0  0  0
 10 11  1  0  0  0  0
 10 37  1  0  0  0  0
 10 38  1  0  0  0  0
 11 13  1  0  0  0  0
 11 16  1  0  0  0  0
 11 39  1  0  0  0  0
 12 17  1  0  0  0  0
 12 18  1  0  0  0  0
 12 40  1  0  0  0  0
 13 14  2  0  0  0  0
 13 19  1  0  0  0  0
 14 41  1  0  0  0  0
 15 42  1  0  0  0  0
 15 43  1  0  0  0  0
 16 20  1  0  0  0  0
 16 44  1  0  0  0  0
 16 45  1  0  0  0  0
 17 46  1  0  0  0  0
 17 47  1  0  0  0  0
 17 48  1  0  0  0  0
 18 49  1  0  0  0  0
 18 50  1  0  0  0  0
 18 51  1  0  0  0  0
 19 52  1  0  0  0  0
 19 53  1  0  0  0  0
 19 54  1  0  0  0  0
 22 23  2  0  0  0  0
 22 24  1  0  0  0  0
 23 25  1  0  0  0  0
 24 26  2  0  0  0  0
 24 57  1  0  0  0  0
 25 27  2  0  0  0  0
 25 58  1  0  0  0  0
 26 27  1  0  0  0  0
 27 60  1  0  0  0  0
 28 29  2  0  0  0  0
 28 30  1  0  0  0  0
 29 32  1  0  0  0  0
 29 61  1  0  0  0  0
 30 33  2  0  0  0  0
 30 62  1  0  0  0  0
 31 63  1  0  0  0  0
 31 64  1  0  0  0  0
 31 65  1  0  0  0  0
 32 34  2  0  0  0  0
 32 66  1  0  0  0  0
 33 34  1  0  0  0  0
 33 67  1  0  0  0  0
M  END
> <PUBCHEM_COMPOUND_CID>
75536153

> <PUBCHEM_CONFORMER_RMSD>
1.2

> <PUBCHEM_CONFORMER_DIVERSEORDER>
1
44
20
25
153
96
138
30
56
29
6
72
124
74
148
79
65
131
156
141
91
40
75
76
32
107
43
109
95
64
49
130
116
135
84
118
114
158
55
108
13
94
53
36
163
140
142
85
134
19
24
143
63
149
110
37
60
129
57
45
145
128
92
16
165
160
164
162
38
166
147
126
111
61
101
86
123
82
159
90
117
132
102
121
46
89
4
41
137
21
69
122
67
73
98
119
66
51
136
28
157
161
59
8
154
39
27
52
68
12
14
22
120
81
34
9
152
83
112
71
10
35
11
33
97
155
77
144
50
146
3
88
17
31
113
78
54
104
87
5
48
42
15
115
47
150
100
70
125
99
58
2
26
133
139
80
106
93
18
127
62
151
105
23
7
103

> <PUBCHEM_MMFF94_PARTIAL_CHARGES>
40
1 -0.19
11 0.14
13 -0.28
14 -0.29
15 0.3
16 0.18
19 0.14
2 -0.57
20 0.01
21 0.69
22 -0.15
23 0.23
24 -0.15
25 -0.15
26 0.08
27 -0.15
28 0.12
29 -0.15
3 -0.36
30 -0.15
31 0.28
32 -0.15
33 -0.15
34 0.19
4 -0.73
41 0.15
5 0.03
55 0.37
56 0.27
57 0.15
58 0.15
59 0.37
6 -0.57
60 0.15
61 0.15
62 0.15
66 0.15
67 0.15
7 -0.55
9 0.14

> <PUBCHEM_EFFECTIVE_ROTOR_COUNT>
9.8

> <PUBCHEM_PHARMACOPHORE_FEATURES>
11
1 2 acceptor
1 3 acceptor
1 4 donor
1 5 donor
1 7 donor
3 12 17 18 hydrophobe
3 5 6 20 cation
5 5 6 20 22 23 rings
6 22 23 24 25 26 27 rings
6 28 29 30 32 33 34 rings
6 8 9 10 11 13 14 rings

> <PUBCHEM_HEAVY_ATOM_COUNT>
34

> <PUBCHEM_ATOM_DEF_STEREO_COUNT>
3

> <PUBCHEM_ATOM_UDEF_STEREO_COUNT>
0

> <PUBCHEM_BOND_DEF_STEREO_COUNT>
0

> <PUBCHEM_BOND_UDEF_STEREO_COUNT>
0

> <PUBCHEM_ISOTOPIC_ATOM_COUNT>
0

> <PUBCHEM_COMPONENT_COUNT>
1

> <PUBCHEM_CACTVS_TAUTO_COUNT>
9

> <PUBCHEM_CONFORMER_ID>
0480971900000001

> <PUBCHEM_MMFF94_ENERGY>
82.5306

> <PUBCHEM_FEATURE_SELFOVERLAP>
55.977

> <PUBCHEM_SHAPE_FINGERPRINT>
10622 236 18410016494439222850
11069576 57 18335989782703500676
11552529 35 18127130763169871536
11991303 11 17098890535098678805
12107183 9 18271822185454335481
12166972 35 18260834816938822503
131258 38 17984412216326996654
13533116 47 18267868478968548761
13947947 73 18334846243682568903
14068700 675 18340774758016743250
14114206 34 16734402491121765784
14674994 50 18046061554055307996
14747282 125 16832924058129199294
15183329 4 17558568043818336049
18681886 176 15264272152110676545
19311894 1 17832705665472356778
19315092 285 18412268346008942648
19438510 23 10087627196682047694
20775530 9 18261119530520912080
23569914 152 18052785141548757143
3383291 50 17690276011204616616
345986 75 18202005451288922088
4017518 198 17114105465624991884
484985 159 17904762181167102836
57527585 103 17982171111219469868
70251023 43 18260827086071269834

> <PUBCHEM_SHAPE_MULTIPOLES>
660.77
15.07
6.78
2.46
10.41
0.02
0.6
-29.16
-1.27
-5.96
-0.34
0.04
2.86
-1.58

> <PUBCHEM_SHAPE_SELFOVERLAP>
1413.101

> <PUBCHEM_SHAPE_VOLUME>
369.3

> <PUBCHEM_COORDINATE_TYPE>
2
5
10

$$$$
