75536154
  -OEChem-12032416343D

 66 68  0     1  0  0  0  0  0999 V2000
    4.3847   -1.5422   -1.3571 O   0  0  0  0  0  0  0  0  0  0  0  0
   -6.9789   -0.5268   -0.3950 O   0  0  0  0  0  0  0  0  0  0  0  0
    4.1639    0.0529    0.3182 N   0  0  0  0  0  0  0  0  0  0  0  0
   -2.5529    0.6640    1.3282 N   0  0  0  0  0  0  0  0  0  0  0  0
   -1.4833   -0.7479   -0.0142 N   0  0  0  0  0  0  0  0  0  0  0  0
    4.1006   -2.1967    0.8507 N   0  0  0  0  0  0  0  0  0  0  0  0
    1.7739    1.3265   -0.9892 C   0  0  1  0  0  0  0  0  0  0  0  0
    3.0013    2.0707   -0.4066 C   0  0  1  0  0  0  0  0  0  0  0  0
    0.4709    1.9845   -0.5102 C   0  0  0  0  0  0  0  0  0  0  0  0
    0.3528    1.9930    1.0256 C   0  0  2  0  0  0  0  0  0  0  0  0
    1.8045    1.2907   -2.5203 C   0  0  0  0  0  0  0  0  0  0  0  0
    1.6321    2.4656    1.6861 C   0  0  0  0  0  0  0  0  0  0  0  0
    2.8033    2.5061    1.0264 C   0  0  0  0  0  0  0  0  0  0  0  0
    4.2681    1.2136   -0.5095 C   0  0  0  0  0  0  0  0  0  0  0  0
   -0.0619    0.6158    1.5553 C   0  0  0  0  0  0  0  0  0  0  0  0
    0.9923    0.1093   -3.0414 C   0  0  0  0  0  0  0  0  0  0  0  0
    1.2796    2.6030   -3.0938 C   0  0  0  0  0  0  0  0  0  0  0  0
    1.5254    2.9343    3.1105 C   0  0  0  0  0  0  0  0  0  0  0  0
   -1.3480    0.1530    0.9328 C   0  0  0  0  0  0  0  0  0  0  0  0
    4.2301   -1.2584   -0.1701 C   0  0  0  0  0  0  0  0  0  0  0  0
   -3.5306    0.0522    0.5866 C   0  0  0  0  0  0  0  0  0  0  0  0
   -2.8378   -0.8245   -0.2436 C   0  0  0  0  0  0  0  0  0  0  0  0
   -4.9194    0.1862    0.5713 C   0  0  0  0  0  0  0  0  0  0  0  0
   -3.5569   -1.6227   -1.1491 C   0  0  0  0  0  0  0  0  0  0  0  0
    4.1346   -3.6206    0.6136 C   0  0  0  0  0  0  0  0  0  0  0  0
   -5.6192   -0.6159   -0.3362 C   0  0  0  0  0  0  0  0  0  0  0  0
   -4.9521   -1.5049   -1.1819 C   0  0  0  0  0  0  0  0  0  0  0  0
    2.7508   -4.1964    0.3377 C   0  0  0  0  0  0  0  0  0  0  0  0
    1.7770   -3.9619    1.4837 C   0  0  0  0  0  0  0  0  0  0  0  0
   -7.6050    0.3975    0.4917 C   0  0  0  0  0  0  0  0  0  0  0  0
    1.7795    0.2930   -0.6221 H   0  0  0  0  0  0  0  0  0  0  0  0
    3.1814    2.9875   -0.9821 H   0  0  0  0  0  0  0  0  0  0  0  0
   -0.4083    1.5359   -0.9800 H   0  0  0  0  0  0  0  0  0  0  0  0
    0.4550    3.0430   -0.8043 H   0  0  0  0  0  0  0  0  0  0  0  0
   -0.4393    2.7147    1.2720 H   0  0  0  0  0  0  0  0  0  0  0  0
    2.8295    1.1504   -2.8786 H   0  0  0  0  0  0  0  0  0  0  0  0
    3.6805    2.8992    1.5368 H   0  0  0  0  0  0  0  0  0  0  0  0
    5.1366    1.7783   -0.1491 H   0  0  0  0  0  0  0  0  0  0  0  0
    4.4877    0.9298   -1.5422 H   0  0  0  0  0  0  0  0  0  0  0  0
   -0.1967    0.6447    2.6438 H   0  0  0  0  0  0  0  0  0  0  0  0
    0.7159   -0.1338    1.3644 H   0  0  0  0  0  0  0  0  0  0  0  0
    1.0450    0.0616   -4.1346 H   0  0  0  0  0  0  0  0  0  0  0  0
   -0.0648    0.1772   -2.7664 H   0  0  0  0  0  0  0  0  0  0  0  0
    1.3836   -0.8369   -2.6523 H   0  0  0  0  0  0  0  0  0  0  0  0
    1.7754    3.4795   -2.6662 H   0  0  0  0  0  0  0  0  0  0  0  0
    1.4804    2.6298   -4.1720 H   0  0  0  0  0  0  0  0  0  0  0  0
    0.1951    2.7152   -2.9912 H   0  0  0  0  0  0  0  0  0  0  0  0
    0.7732    3.7253    3.1950 H   0  0  0  0  0  0  0  0  0  0  0  0
    2.4721    3.3400    3.4829 H   0  0  0  0  0  0  0  0  0  0  0  0
    1.2398    2.1095    3.7700 H   0  0  0  0  0  0  0  0  0  0  0  0
    4.1033    0.1787    1.3240 H   0  0  0  0  0  0  0  0  0  0  0  0
   -2.6993    1.3679    2.0396 H   0  0  0  0  0  0  0  0  0  0  0  0
    3.9674   -1.8677    1.8019 H   0  0  0  0  0  0  0  0  0  0  0  0
   -5.3751    0.8932    1.2521 H   0  0  0  0  0  0  0  0  0  0  0  0
   -3.0476   -2.3162   -1.8105 H   0  0  0  0  0  0  0  0  0  0  0  0
    4.7971   -3.8279   -0.2338 H   0  0  0  0  0  0  0  0  0  0  0  0
    4.5712   -4.0858    1.5038 H   0  0  0  0  0  0  0  0  0  0  0  0
   -5.5179   -2.1183   -1.8793 H   0  0  0  0  0  0  0  0  0  0  0  0
    2.3367   -3.7513   -0.5749 H   0  0  0  0  0  0  0  0  0  0  0  0
    2.8417   -5.2739    0.1588 H   0  0  0  0  0  0  0  0  0  0  0  0
    2.1638   -4.3786    2.4191 H   0  0  0  0  0  0  0  0  0  0  0  0
    1.5829   -2.8952    1.6342 H   0  0  0  0  0  0  0  0  0  0  0  0
    0.8193   -4.4463    1.2675 H   0  0  0  0  0  0  0  0  0  0  0  0
   -8.6834    0.3384    0.3108 H   0  0  0  0  0  0  0  0  0  0  0  0
   -7.3030    1.4287    0.2790 H   0  0  0  0  0  0  0  0  0  0  0  0
   -7.4430    0.1242    1.5400 H   0  0  0  0  0  0  0  0  0  0  0  0
  1 20  2  0  0  0  0
  2 26  1  0  0  0  0
  2 30  1  0  0  0  0
  3 14  1  0  0  0  0
  3 20  1  0  0  0  0
  3 51  1  0  0  0  0
  4 19  1  0  0  0  0
  4 21  1  0  0  0  0
  4 52  1  0  0  0  0
  5 19  2  0  0  0  0
  5 22  1  0  0  0  0
  6 20  1  0  0  0  0
  6 25  1  0  0  0  0
  6 53  1  0  0  0  0
  7  8  1  0  0  0  0
  7  9  1  0  0  0  0
  7 11  1  0  0  0  0
  7 31  1  0  0  0  0
  8 13  1  0  0  0  0
  8 14  1  0  0  0  0
  8 32  1  0  0  0  0
  9 10  1  0  0  0  0
  9 33  1  0  0  0  0
  9 34  1  0  0  0  0
 10 12  1  0  0  0  0
 10 15  1  0  0  0  0
 10 35  1  0  0  0  0
 11 16  1  0  0  0  0
 11 17  1  0  0  0  0
 11 36  1  0  0  0  0
 12 13  2  0  0  0  0
 12 18  1  0  0  0  0
 13 37  1  0  0  0  0
 14 38  1  0  0  0  0
 14 39  1  0  0  0  0
 15 19  1  0  0  0  0
 15 40  1  0  0  0  0
 15 41  1  0  0  0  0
 16 42  1  0  0  0  0
 16 43  1  0  0  0  0
 16 44  1  0  0  0  0
 17 45  1  0  0  0  0
 17 46  1  0  0  0  0
 17 47  1  0  0  0  0
 18 48  1  0  0  0  0
 18 49  1  0  0  0  0
 18 50  1  0  0  0  0
 21 22  2  0  0  0  0
 21 23  1  0  0  0  0
 22 24  1  0  0  0  0
 23 26  2  0  0  0  0
 23 54  1  0  0  0  0
 24 27  2  0  0  0  0
 24 55  1  0  0  0  0
 25 28  1  0  0  0  0
 25 56  1  0  0  0  0
 25 57  1  0  0  0  0
 26 27  1  0  0  0  0
 27 58  1  0  0  0  0
 28 29  1  0  0  0  0
 28 59  1  0  0  0  0
 28 60  1  0  0  0  0
 29 61  1  0  0  0  0
 29 62  1  0  0  0  0
 29 63  1  0  0  0  0
 30 64  1  0  0  0  0
 30 65  1  0  0  0  0
 30 66  1  0  0  0  0
M  END
> <PUBCHEM_COMPOUND_CID>
75536154

> <PUBCHEM_CONFORMER_RMSD>
1

> <PUBCHEM_CONFORMER_DIVERSEORDER>
1
145
149
99
103
131
138
164
81
66
139
132
107
111
159
117
43
115
40
119
35
82
113
153
37
151
137
141
84
28
122
54
120
93
130
70
32
50
104
20
134
55
16
57
158
53
62
75
157
152
95
121
85
98
76
3
45
77
31
133
89
60
11
24
154
123
148
72
58
105
26
34
143
102
129
80
83
73
61
69
92
127
146
161
94
23
135
118
18
36
150
125
21
38
106
78
147
46
65
97
30
90
27
116
63
108
48
140
8
100
163
39
128
86
155
109
19
96
44
68
4
22
47
25
142
160
6
101
49
162
29
10
56
87
110
124
41
91
156
12
114
14
17
42
136
74
2
112
59
126
5
71
33
88
7
64
13
144
51
79
9
67
15
52

> <PUBCHEM_MMFF94_PARTIAL_CHARGES>
30
1 -0.57
10 0.14
12 -0.28
13 -0.29
14 0.3
15 0.18
18 0.14
19 0.01
2 -0.36
20 0.69
21 -0.15
22 0.23
23 -0.15
24 -0.15
25 0.3
26 0.08
27 -0.15
3 -0.73
30 0.28
37 0.15
4 0.03
5 -0.57
51 0.37
52 0.27
53 0.37
54 0.15
55 0.15
58 0.15
6 -0.73
8 0.14

> <PUBCHEM_EFFECTIVE_ROTOR_COUNT>
10.8

> <PUBCHEM_PHARMACOPHORE_FEATURES>
11
1 1 acceptor
1 2 acceptor
1 29 hydrophobe
1 3 donor
1 4 donor
1 6 donor
3 11 16 17 hydrophobe
3 4 5 19 cation
5 4 5 19 21 22 rings
6 21 22 23 24 26 27 rings
6 7 8 9 10 12 13 rings

> <PUBCHEM_HEAVY_ATOM_COUNT>
30

> <PUBCHEM_ATOM_DEF_STEREO_COUNT>
3

> <PUBCHEM_ATOM_UDEF_STEREO_COUNT>
0

> <PUBCHEM_BOND_DEF_STEREO_COUNT>
0

> <PUBCHEM_BOND_UDEF_STEREO_COUNT>
0

> <PUBCHEM_ISOTOPIC_ATOM_COUNT>
0

> <PUBCHEM_COMPONENT_COUNT>
1

> <PUBCHEM_CACTVS_TAUTO_COUNT>
9

> <PUBCHEM_CONFORMER_ID>
0480971A00000001

> <PUBCHEM_MMFF94_ENERGY>
55.1438

> <PUBCHEM_FEATURE_SELFOVERLAP>
55.975

> <PUBCHEM_SHAPE_FINGERPRINT>
10816530 23 17464267397210128276
11796584 16 17631456816321252239
12156800 1 16303127816796447562
12617007 42 16877666772908541692
13533116 47 18412262839618042315
14068700 675 18270404872211286770
15183329 4 17846506946088237745
15403338 16 18342452608550515639
17349148 13 16630532855642410113
17980427 26 17770472508011905864
18681886 176 15840996718637977992
20511986 3 17988914617463201853
20775530 9 17900267399350665218
21285901 2 17603579699805558094
23559900 14 18113900481465918059
25222932 49 17413019156065938623
3004659 81 17489597809021188433
345986 75 18199181798423629362
392239 28 12895066276299210588
4073 2 18054786449683705425
4093350 32 17749675198022077405
46194498 28 17458064888956169783
463206 1 18412263964741744570
484985 159 17255961170465229878
5081480 168 17677321702760449831
57527573 199 16255865777459054894
8509985 295 18060701705818139133

> <PUBCHEM_SHAPE_MULTIPOLES>
585.72
12.87
4.31
2.52
25.9
4.25
-1.07
5.61
-0.46
-7.48
1.69
-1.8
-2.11
-1.31

> <PUBCHEM_SHAPE_SELFOVERLAP>
1219.167

> <PUBCHEM_SHAPE_VOLUME>
333.4

> <PUBCHEM_COORDINATE_TYPE>
2
5
10

$$$$
