38030393
  -OEChem-12032416263D

 67 70  0     1  0  0  0  0  0999 V2000
   -7.5804    3.4711    0.6566 O   0  0  0  0  0  0  0  0  0  0  0  0
    3.4885   -0.5170    0.7231 O   0  0  0  0  0  0  0  0  0  0  0  0
   -3.9546   -0.1525    0.3121 N   0  0  0  0  0  0  0  0  0  0  0  0
    2.2611    0.7068    2.1374 N   0  0  0  0  0  0  0  0  0  0  0  0
    3.3223    1.4833    1.7110 N   0  0  0  0  0  0  0  0  0  0  0  0
    6.9580    2.5736   -0.4312 N   0  0  0  0  0  0  0  0  0  0  0  0
   -1.3034   -0.6816   -0.8219 C   0  0  1  0  0  0  0  0  0  0  0  0
   -2.2612   -1.8079   -0.3683 C   0  0  2  0  0  0  0  0  0  0  0  0
   -0.1406   -0.5326    0.1692 C   0  0  0  0  0  0  0  0  0  0  0  0
    0.6601   -1.8366    0.3731 C   0  0  2  0  0  0  0  0  0  0  0  0
   -3.2066   -1.3343    0.7406 C   0  0  0  0  0  0  0  0  0  0  0  0
   -0.7896   -0.9246   -2.2476 C   0  0  0  0  0  0  0  0  0  0  0  0
   -1.5272   -3.0390    0.0983 C   0  0  0  0  0  0  0  0  0  0  0  0
   -0.2215   -3.0753    0.4223 C   0  0  0  0  0  0  0  0  0  0  0  0
   -4.4940    0.5640    1.4756 C   0  0  0  0  0  0  0  0  0  0  0  0
   -5.0247   -0.5315   -0.6202 C   0  0  0  0  0  0  0  0  0  0  0  0
   -6.3501    1.5163    0.0461 C   0  0  0  0  0  0  0  0  0  0  0  0
   -5.2344    1.8329    1.0477 C   0  0  0  0  0  0  0  0  0  0  0  0
   -5.7827    0.7001   -1.1201 C   0  0  0  0  0  0  0  0  0  0  0  0
    1.5399   -1.6810    1.6198 C   0  0  0  0  0  0  0  0  0  0  0  0
    0.4529   -0.0817   -2.5160 C   0  0  0  0  0  0  0  0  0  0  0  0
   -1.8824   -0.6173   -3.2665 C   0  0  0  0  0  0  0  0  0  0  0  0
    0.4314   -4.3785    0.7933 C   0  0  0  0  0  0  0  0  0  0  0  0
   -7.0184    2.7946   -0.4528 C   0  0  0  0  0  0  0  0  0  0  0  0
    2.3984   -0.4515    1.5356 C   0  0  0  0  0  0  0  0  0  0  0  0
    4.0118    0.7286    0.8875 C   0  0  0  0  0  0  0  0  0  0  0  0
    5.2082    1.0091    0.1482 C   0  0  0  0  0  0  0  0  0  0  0  0
    5.7813    0.0503   -0.6800 C   0  0  0  0  0  0  0  0  0  0  0  0
    5.8299    2.2442    0.2372 C   0  0  0  0  0  0  0  0  0  0  0  0
    6.9419    0.3517   -1.3838 C   0  0  0  0  0  0  0  0  0  0  0  0
    7.4859    1.6163   -1.2264 C   0  0  0  0  0  0  0  0  0  0  0  0
   -1.8234    0.2846   -0.8344 H   0  0  0  0  0  0  0  0  0  0  0  0
   -2.8624   -2.1420   -1.2189 H   0  0  0  0  0  0  0  0  0  0  0  0
   -0.5717   -0.2332    1.1357 H   0  0  0  0  0  0  0  0  0  0  0  0
    0.5074    0.3085   -0.0962 H   0  0  0  0  0  0  0  0  0  0  0  0
    1.3270   -1.9764   -0.4872 H   0  0  0  0  0  0  0  0  0  0  0  0
   -2.6097   -1.0960    1.6313 H   0  0  0  0  0  0  0  0  0  0  0  0
   -3.8863   -2.1416    1.0479 H   0  0  0  0  0  0  0  0  0  0  0  0
   -0.5024   -1.9753   -2.3800 H   0  0  0  0  0  0  0  0  0  0  0  0
   -2.1154   -3.9530    0.1492 H   0  0  0  0  0  0  0  0  0  0  0  0
   -3.6756    0.8619    2.1424 H   0  0  0  0  0  0  0  0  0  0  0  0
   -5.1684   -0.0811    2.0539 H   0  0  0  0  0  0  0  0  0  0  0  0
   -5.7308   -1.2251   -0.1446 H   0  0  0  0  0  0  0  0  0  0  0  0
   -4.6242   -1.0360   -1.5042 H   0  0  0  0  0  0  0  0  0  0  0  0
   -7.1045    0.9122    0.5689 H   0  0  0  0  0  0  0  0  0  0  0  0
   -5.6462    2.3194    1.9398 H   0  0  0  0  0  0  0  0  0  0  0  0
   -4.5193    2.5376    0.6028 H   0  0  0  0  0  0  0  0  0  0  0  0
   -5.1075    1.3230   -1.7217 H   0  0  0  0  0  0  0  0  0  0  0  0
   -6.5963    0.3817   -1.7828 H   0  0  0  0  0  0  0  0  0  0  0  0
    2.2030   -2.5455    1.7428 H   0  0  0  0  0  0  0  0  0  0  0  0
    0.9222   -1.6221    2.5247 H   0  0  0  0  0  0  0  0  0  0  0  0
    0.2820    0.9765   -2.2886 H   0  0  0  0  0  0  0  0  0  0  0  0
    0.7157   -0.1354   -3.5797 H   0  0  0  0  0  0  0  0  0  0  0  0
    1.3423   -0.4237   -1.9825 H   0  0  0  0  0  0  0  0  0  0  0  0
   -2.2383    0.4146   -3.1731 H   0  0  0  0  0  0  0  0  0  0  0  0
   -2.7433   -1.2831   -3.1668 H   0  0  0  0  0  0  0  0  0  0  0  0
   -1.5025   -0.7434   -4.2867 H   0  0  0  0  0  0  0  0  0  0  0  0
    1.3289   -4.5399    0.1873 H   0  0  0  0  0  0  0  0  0  0  0  0
   -0.2318   -5.2343    0.6267 H   0  0  0  0  0  0  0  0  0  0  0  0
    0.7132   -4.3835    1.8506 H   0  0  0  0  0  0  0  0  0  0  0  0
   -7.8203    2.5617   -1.1610 H   0  0  0  0  0  0  0  0  0  0  0  0
   -6.2980    3.4581   -0.9428 H   0  0  0  0  0  0  0  0  0  0  0  0
   -8.0019    4.2787    0.3165 H   0  0  0  0  0  0  0  0  0  0  0  0
    5.3505   -0.9402   -0.8004 H   0  0  0  0  0  0  0  0  0  0  0  0
    5.4372    3.0392    0.8646 H   0  0  0  0  0  0  0  0  0  0  0  0
    7.4063   -0.3797   -2.0353 H   0  0  0  0  0  0  0  0  0  0  0  0
    8.3906    1.9011   -1.7535 H   0  0  0  0  0  0  0  0  0  0  0  0
  1 24  1  0  0  0  0
  1 63  1  0  0  0  0
  2 25  1  0  0  0  0
  2 26  1  0  0  0  0
  3 11  1  0  0  0  0
  3 15  1  0  0  0  0
  3 16  1  0  0  0  0
  4  5  1  0  0  0  0
  4 25  2  0  0  0  0
  5 26  2  0  0  0  0
  6 29  1  0  0  0  0
  6 31  2  0  0  0  0
  7  8  1  0  0  0  0
  7  9  1  0  0  0  0
  7 12  1  0  0  0  0
  7 32  1  0  0  0  0
  8 11  1  0  0  0  0
  8 13  1  0  0  0  0
  8 33  1  0  0  0  0
  9 10  1  0  0  0  0
  9 34  1  0  0  0  0
  9 35  1  0  0  0  0
 10 14  1  0  0  0  0
 10 20  1  0  0  0  0
 10 36  1  0  0  0  0
 11 37  1  0  0  0  0
 11 38  1  0  0  0  0
 12 21  1  0  0  0  0
 12 22  1  0  0  0  0
 12 39  1  0  0  0  0
 13 14  2  0  0  0  0
 13 40  1  0  0  0  0
 14 23  1  0  0  0  0
 15 18  1  0  0  0  0
 15 41  1  0  0  0  0
 15 42  1  0  0  0  0
 16 19  1  0  0  0  0
 16 43  1  0  0  0  0
 16 44  1  0  0  0  0
 17 18  1  0  0  0  0
 17 19  1  0  0  0  0
 17 24  1  0  0  0  0
 17 45  1  0  0  0  0
 18 46  1  0  0  0  0
 18 47  1  0  0  0  0
 19 48  1  0  0  0  0
 19 49  1  0  0  0  0
 20 25  1  0  0  0  0
 20 50  1  0  0  0  0
 20 51  1  0  0  0  0
 21 52  1  0  0  0  0
 21 53  1  0  0  0  0
 21 54  1  0  0  0  0
 22 55  1  0  0  0  0
 22 56  1  0  0  0  0
 22 57  1  0  0  0  0
 23 58  1  0  0  0  0
 23 59  1  0  0  0  0
 23 60  1  0  0  0  0
 24 61  1  0  0  0  0
 24 62  1  0  0  0  0
 26 27  1  0  0  0  0
 27 28  1  0  0  0  0
 27 29  2  0  0  0  0
 28 30  2  0  0  0  0
 28 64  1  0  0  0  0
 29 65  1  0  0  0  0
 30 31  1  0  0  0  0
 30 66  1  0  0  0  0
 31 67  1  0  0  0  0
M  END
> <PUBCHEM_COMPOUND_CID>
38030393

> <PUBCHEM_CONFORMER_RMSD>
1

> <PUBCHEM_CONFORMER_DIVERSEORDER>
9
23
3
16
75
151
86
103
133
82
84
143
96
50
54
53
32
158
120
46
47
60
122
45
159
102
52
145
109
87
57
44
51
21
38
149
20
15
139
181
155
27
117
91
13
174
154
10
94
176
113
25
37
55
182
92
65
167
121
161
88
171
76
137
140
179
70
99
160
71
172
6
40
36
138
24
146
74
108
29
178
147
104
124
100
180
35
93
48
2
156
130
56
62
95
141
157
128
83
31
152
7
135
127
114
39
72
5
148
169
89
64
101
110
85
12
80
115
79
153
175
11
119
49
112
73
81
164
33
18
170
30
41
177
163
118
116
150
68
123
98
144
168
42
8
166
28
61
105
97
126
66
78
134
142
43
165
59
111
14
106
63
162
58
132
17
19
125
67
107
26
1
22
131
129
90
136
34
77
4
69
173

> <PUBCHEM_MMFF94_PARTIAL_CHARGES>
29
1 -0.68
10 0.14
11 0.27
13 -0.29
14 -0.28
15 0.27
16 0.27
2 -0.28
20 0.18
23 0.14
24 0.28
25 0.3
26 0.43
27 0.05
28 -0.15
29 0.16
3 -0.81
30 -0.15
31 0.16
4 -0.34
40 0.15
5 -0.34
6 -0.62
63 0.4
64 0.15
65 0.15
66 0.15
67 0.15
8 0.14

> <PUBCHEM_EFFECTIVE_ROTOR_COUNT>
9

> <PUBCHEM_PHARMACOPHORE_FEATURES>
9
1 1 acceptor
1 1 donor
1 3 cation
1 6 acceptor
3 12 21 22 hydrophobe
5 2 4 5 25 26 rings
6 3 15 16 17 18 19 rings
6 6 27 28 29 30 31 rings
6 7 8 9 10 13 14 rings

> <PUBCHEM_HEAVY_ATOM_COUNT>
31

> <PUBCHEM_ATOM_DEF_STEREO_COUNT>
3

> <PUBCHEM_ATOM_UDEF_STEREO_COUNT>
0

> <PUBCHEM_BOND_DEF_STEREO_COUNT>
0

> <PUBCHEM_BOND_UDEF_STEREO_COUNT>
0

> <PUBCHEM_ISOTOPIC_ATOM_COUNT>
0

> <PUBCHEM_COMPONENT_COUNT>
1

> <PUBCHEM_CACTVS_TAUTO_COUNT>
1

> <PUBCHEM_CONFORMER_ID>
02444C3900000009

> <PUBCHEM_MMFF94_ENERGY>
56.8702

> <PUBCHEM_FEATURE_SELFOVERLAP>
45.671

> <PUBCHEM_SHAPE_FINGERPRINT>
10670039 82 17060342886058757593
10674148 151 18412262849015254164
11088757 655 9583518698546969064
11475781 23 18201717406035544264
11513181 2 11382188875790388268
11578080 2 18410012101036338655
11991303 11 17060048302867993383
1200032 147 18187083931896403186
12166972 35 13182740368413442730
12218070 45 13840845403502472425
12390115 104 18336263539138969403
12422481 6 17022900142439519927
13165053 103 12678923241076516581
13782708 43 12607395611832715985
13944108 23 18196089949945758912
14068700 675 16229157390175085043
14251751 18 10953457423246163843
14840074 17 17240478147848061150
14931854 50 17775566416629280481
14951699 99 18041279864275690013
15183329 4 16917356935068471272
15198563 99 17841697806814657151
15980000 95 17617658753037640538
17349148 13 12894807994436171970
17980427 23 17822012017359686199
190975 80 12613043802832713417
2026 5 11743842443627359853
20642791 268 17894915122674942831
20691028 202 18335982077416477460
20721686 146 18187085005912955981
21223535 225 18200302338470301272
21344244 181 12318868376606609381
21756936 100 18269827761144048626
38570 142 18272369763234123739
392239 28 14707209954474197376
3986486 107 17846785083237413252
4058900 60 18336550425906303403
4280585 95 9583520902255724947
439807 62 10375859789332588625
50009960 94 11026670647514747465
5252454 2 18042668646261630466
56638632 10 18261661671363657149
5718773 13 10159695789677591689
57527293 21 17385991850422164907
59682541 52 16988564585227558198
6328613 192 18412267272198761400
9689198 14 18187374233141767208
9980921 52 14403523597928066172

> <PUBCHEM_SHAPE_MULTIPOLES>
606.3
19.4
3.69
2.15
6.09
1.81
1.33
-24.96
1.82
-2.59
-1.04
0.14
0.06
-1.24

> <PUBCHEM_SHAPE_SELFOVERLAP>
1274.31

> <PUBCHEM_SHAPE_VOLUME>
339.7

> <PUBCHEM_COORDINATE_TYPE>
2
5
10

$$$$
