75536926
  -OEChem-12032416303D

 50 53  0     1  0  0  0  0  0999 V2000
    4.9025    0.8620    1.4125 O   0  0  0  0  0  0  0  0  0  0  0  0
    3.0464   -1.9047   -0.1480 O   0  0  0  0  0  0  0  0  0  0  0  0
    2.6967    1.7625   -0.2026 N   0  0  1  0  0  0  0  0  0  0  0  0
    0.8133   -1.7131    0.4705 N   0  0  0  0  0  0  0  0  0  0  0  0
    0.3485   -4.2959   -0.5190 N   0  0  0  0  0  0  0  0  0  0  0  0
    2.8497    0.4096   -0.7370 C   0  0  0  0  0  0  0  0  0  0  0  0
    3.1937   -0.5856    0.3790 C   0  0  2  0  0  0  0  0  0  0  0  0
    3.9477    2.5223   -0.1028 C   0  0  0  0  0  0  0  0  0  0  0  0
    1.7050    2.5282   -0.9588 C   0  0  0  0  0  0  0  0  0  0  0  0
    4.5958   -0.4540    0.9682 C   0  0  0  0  0  0  0  0  0  0  0  0
    5.1867    1.7434    0.3327 C   0  0  0  0  0  0  0  0  0  0  0  0
    0.3033    2.0485   -0.6913 C   0  0  0  0  0  0  0  0  0  0  0  0
   -0.2015    2.0599    0.6091 C   0  0  0  0  0  0  0  0  0  0  0  0
   -0.4906    1.5921   -1.7436 C   0  0  0  0  0  0  0  0  0  0  0  0
   -2.2938    1.1586   -0.1950 C   0  0  0  0  0  0  0  0  0  0  0  0
   -1.4999    1.6149    0.8572 C   0  0  0  0  0  0  0  0  0  0  0  0
   -1.7891    1.1471   -1.4955 C   0  0  0  0  0  0  0  0  0  0  0  0
    1.7953   -2.4533   -0.0812 C   0  0  0  0  0  0  0  0  0  0  0  0
   -3.6409    0.6978    0.0621 C   0  0  0  0  0  0  0  0  0  0  0  0
    1.5670   -3.7220   -0.5671 C   0  0  0  0  0  0  0  0  0  0  0  0
   -4.3728    1.2386    1.1191 C   0  0  0  0  0  0  0  0  0  0  0  0
   -4.2077   -0.2870   -0.7468 C   0  0  0  0  0  0  0  0  0  0  0  0
   -5.6717    0.7945    1.3673 C   0  0  0  0  0  0  0  0  0  0  0  0
   -5.5064   -0.7310   -0.4987 C   0  0  0  0  0  0  0  0  0  0  0  0
   -0.4052   -2.2871    0.5187 C   0  0  0  0  0  0  0  0  0  0  0  0
   -6.2385   -0.1904    0.5584 C   0  0  0  0  0  0  0  0  0  0  0  0
   -0.6335   -3.5556    0.0328 C   0  0  0  0  0  0  0  0  0  0  0  0
    3.5956    0.3706   -1.5425 H   0  0  0  0  0  0  0  0  0  0  0  0
    1.9275    0.0666   -1.2194 H   0  0  0  0  0  0  0  0  0  0  0  0
    2.5155   -0.4125    1.2269 H   0  0  0  0  0  0  0  0  0  0  0  0
    4.1874    3.0140   -1.0550 H   0  0  0  0  0  0  0  0  0  0  0  0
    3.7797    3.3202    0.6318 H   0  0  0  0  0  0  0  0  0  0  0  0
    1.9345    2.5114   -2.0328 H   0  0  0  0  0  0  0  0  0  0  0  0
    1.7284    3.5859   -0.6608 H   0  0  0  0  0  0  0  0  0  0  0  0
    4.6727   -1.1174    1.8382 H   0  0  0  0  0  0  0  0  0  0  0  0
    5.3598   -0.8140    0.2668 H   0  0  0  0  0  0  0  0  0  0  0  0
    5.6409    1.2098   -0.5114 H   0  0  0  0  0  0  0  0  0  0  0  0
    5.9388    2.4566    0.6882 H   0  0  0  0  0  0  0  0  0  0  0  0
    0.4062    2.4106    1.4391 H   0  0  0  0  0  0  0  0  0  0  0  0
   -0.1120    1.5826   -2.7622 H   0  0  0  0  0  0  0  0  0  0  0  0
   -1.8386    1.6137    1.8895 H   0  0  0  0  0  0  0  0  0  0  0  0
   -2.3799    0.8291   -2.3500 H   0  0  0  0  0  0  0  0  0  0  0  0
    2.3533   -4.3204   -1.0114 H   0  0  0  0  0  0  0  0  0  0  0  0
   -3.9850    2.0285    1.7564 H   0  0  0  0  0  0  0  0  0  0  0  0
   -3.6652   -0.7597   -1.5610 H   0  0  0  0  0  0  0  0  0  0  0  0
   -6.2446    1.2199    2.1862 H   0  0  0  0  0  0  0  0  0  0  0  0
   -5.9458   -1.5029   -1.1239 H   0  0  0  0  0  0  0  0  0  0  0  0
   -1.1943   -1.6957    0.9653 H   0  0  0  0  0  0  0  0  0  0  0  0
   -7.2497   -0.5363    0.7516 H   0  0  0  0  0  0  0  0  0  0  0  0
   -1.6129   -4.0161    0.0726 H   0  0  0  0  0  0  0  0  0  0  0  0
  1 10  1  0  0  0  0
  1 11  1  0  0  0  0
  2  7  1  0  0  0  0
  2 18  1  0  0  0  0
  3  6  1  0  0  0  0
  3  8  1  0  0  0  0
  3  9  1  0  0  0  0
  4 18  2  0  0  0  0
  4 25  1  0  0  0  0
  5 20  2  0  0  0  0
  5 27  1  0  0  0  0
  6  7  1  0  0  0  0
  6 28  1  0  0  0  0
  6 29  1  0  0  0  0
  7 10  1  0  0  0  0
  7 30  1  0  0  0  0
  8 11  1  0  0  0  0
  8 31  1  0  0  0  0
  8 32  1  0  0  0  0
  9 12  1  0  0  0  0
  9 33  1  0  0  0  0
  9 34  1  0  0  0  0
 10 35  1  0  0  0  0
 10 36  1  0  0  0  0
 11 37  1  0  0  0  0
 11 38  1  0  0  0  0
 12 13  2  0  0  0  0
 12 14  1  0  0  0  0
 13 16  1  0  0  0  0
 13 39  1  0  0  0  0
 14 17  2  0  0  0  0
 14 40  1  0  0  0  0
 15 16  2  0  0  0  0
 15 17  1  0  0  0  0
 15 19  1  0  0  0  0
 16 41  1  0  0  0  0
 17 42  1  0  0  0  0
 18 20  1  0  0  0  0
 19 21  2  0  0  0  0
 19 22  1  0  0  0  0
 20 43  1  0  0  0  0
 21 23  1  0  0  0  0
 21 44  1  0  0  0  0
 22 24  2  0  0  0  0
 22 45  1  0  0  0  0
 23 26  2  0  0  0  0
 23 46  1  0  0  0  0
 24 26  1  0  0  0  0
 24 47  1  0  0  0  0
 25 27  2  0  0  0  0
 25 48  1  0  0  0  0
 26 49  1  0  0  0  0
 27 50  1  0  0  0  0
M  END
> <PUBCHEM_COMPOUND_CID>
75536926

> <PUBCHEM_CONFORMER_RMSD>
0.8

> <PUBCHEM_CONFORMER_DIVERSEORDER>
5
218
114
279
140
85
135
25
230
221
95
17
50
263
66
181
161
127
180
249
187
21
72
77
196
170
214
93
215
12
183
280
267
254
164
256
245
233
211
242
220
103
125
231
250
179
20
16
251
176
171
174
90
153
201
35
109
34
229
152
225
73
150
253
80
217
160
87
110
30
275
199
144
129
282
177
132
228
269
193
70
122
76
60
142
156
39
29
198
96
238
259
222
197
255
146
224
128
61
47
192
168
115
241
178
145
120
121
276
226
175
71
117
48
137
252
274
165
195
182
36
139
23
223
82
102
119
89
11
141
219
113
270
86
264
194
51
63
188
258
247
58
22
235
37
133
204
273
9
8
84
88
212
91
157
40
240
69
257
52
158
271
172
67
4
191
163
2
45
244
81
65
124
94
237
104
189
42
202
101
31
105
99
266
33
209
265
203
281
283
206
136
236
232
43
173
75
162
108
55
262
111
208
14
261
126
123
83
216
106
166
185
49
1
97
10
167
100
213
92
3
200
74
268
116
112
227
138
38
7
13
130
62
24
272
15
118
154
44
19
27
159
246
278
234
147
243
260
78
6
169
64
57
107
46
68
28
56
98
210
26
205
151
18
148
186
41
53
149
32
59
134
143
155
207
239
131
190
184
54
248
277
79

> <PUBCHEM_MMFF94_PARTIAL_CHARGES>
37
1 -0.56
10 0.28
11 0.28
12 -0.14
13 -0.15
14 -0.15
16 -0.15
17 -0.15
18 0.39
2 -0.36
20 0.16
21 -0.15
22 -0.15
23 -0.15
24 -0.15
25 0.16
26 -0.15
27 0.16
3 -0.81
39 0.15
4 -0.62
40 0.15
41 0.15
42 0.15
43 0.15
44 0.15
45 0.15
46 0.15
47 0.15
48 0.15
49 0.15
5 -0.62
50 0.15
6 0.27
7 0.28
8 0.27
9 0.41

> <PUBCHEM_EFFECTIVE_ROTOR_COUNT>
6.4

> <PUBCHEM_PHARMACOPHORE_FEATURES>
7
1 1 acceptor
1 3 cation
1 5 acceptor
6 12 13 14 15 16 17 rings
6 19 21 22 23 24 26 rings
6 4 5 18 20 25 27 rings
7 1 3 6 7 8 10 11 rings

> <PUBCHEM_HEAVY_ATOM_COUNT>
27

> <PUBCHEM_ATOM_DEF_STEREO_COUNT>
1

> <PUBCHEM_ATOM_UDEF_STEREO_COUNT>
0

> <PUBCHEM_BOND_DEF_STEREO_COUNT>
0

> <PUBCHEM_BOND_UDEF_STEREO_COUNT>
0

> <PUBCHEM_ISOTOPIC_ATOM_COUNT>
0

> <PUBCHEM_COMPONENT_COUNT>
1

> <PUBCHEM_CACTVS_TAUTO_COUNT>
1

> <PUBCHEM_CONFORMER_ID>
04809A1E00000005

> <PUBCHEM_MMFF94_ENERGY>
95.4645

> <PUBCHEM_FEATURE_SELFOVERLAP>
35.523

> <PUBCHEM_SHAPE_FINGERPRINT>
10076449 9 18263930943784731818
1100329 8 18195807585989958324
11513181 2 18130515230968509734
11578080 2 17770208681546438776
12422481 6 18259700116374529859
12596602 18 17418095416778386737
12788726 201 17183359845755691807
13402501 40 18261111859171374507
1361 2 18410015437639904275
14028597 1 17774462533294061347
14178342 30 17979909420196373632
14341114 328 18131070437264050681
14787075 74 18059570329960142137
14790565 3 18340207487495241417
14840074 17 18113620122431618132
14863182 85 18335712615425773294
15297060 5 18130230462099535530
15840311 113 18124610678620388817
16067690 210 16056331535457316059
17138139 8 17770480230621431223
1813 80 17458356208341372821
1979834 28 18335714814380450225
19930381 70 18266459815003969595
20028762 73 18272084993949464982
20511986 3 17988633074558545573
21197605 99 18263934404774128651
21304303 94 18194148337645510788
21315763 178 18273494577068258349
21315764 371 18130796654578743459
21344244 181 18128560240039883958
21421861 104 18126871321349340113
21623969 137 18261680345870332097
22113638 7 18264486359257337508
23559900 14 17978222760499878829
338550 245 18190463955225795215
3633792 109 18337383839674255573
3680242 22 18334854995992286522
3737641 26 18126288540920015943
392239 28 18341608170634988554
4340502 62 18342177807942491552
463206 1 18339360868205845863
465052 167 17531250581771656457
563151 248 17775556538552451286
6287921 2 18127974100698213411
6438718 38 17986383602316428886
653340 110 17621031401649027800

> <PUBCHEM_SHAPE_MULTIPOLES>
528.97
11.62
4.31
1.23
8.99
5.15
-0.1
-3.75
3.93
-3.32
-0.75
0.39
-0.49
-0.33

> <PUBCHEM_SHAPE_SELFOVERLAP>
1143.31

> <PUBCHEM_SHAPE_VOLUME>
287.6

> <PUBCHEM_COORDINATE_TYPE>
2
5
10

$$$$
