11867546
  -OEChem-12032416143D

 57 61  0     1  0  0  0  0  0999 V2000
   -0.8272    3.6073    1.6274 O   0  0  0  0  0  0  0  0  0  0  0  0
   -0.6460    1.8990   -1.2104 O   0  0  0  0  0  0  0  0  0  0  0  0
    1.8511    0.4582   -0.4915 O   0  0  0  0  0  0  0  0  0  0  0  0
   -3.2846    1.1635    0.6808 N   0  0  0  0  0  0  0  0  0  0  0  0
    2.2523    2.7591   -0.0773 N   0  0  0  0  0  0  0  0  0  0  0  0
    3.3081    3.5550    0.1156 N   0  0  0  0  0  0  0  0  0  0  0  0
    3.9665    1.4495   -0.2065 N   0  0  0  0  0  0  0  0  0  0  0  0
    4.3580    2.7467    0.0359 N   0  0  0  0  0  0  0  0  0  0  0  0
    3.1249   -3.8228    1.3112 N   0  0  0  0  0  0  0  0  0  0  0  0
   -0.9345    1.7238    0.1822 C   0  0  1  0  0  0  0  0  0  0  0  0
   -0.0032    2.6321    0.9712 C   0  0  1  0  0  0  0  0  0  0  0  0
   -2.3340    2.2242    0.5017 C   0  0  2  0  0  0  0  0  0  0  0  0
    0.8892    3.2995   -0.0604 C   0  0  2  0  0  0  0  0  0  0  0  0
   -2.1304    3.0341    1.7630 C   0  0  0  0  0  0  0  0  0  0  0  0
    0.1357    3.0896   -1.3683 C   0  0  0  0  0  0  0  0  0  0  0  0
   -3.4454    0.4023   -0.5483 C   0  0  0  0  0  0  0  0  0  0  0  0
    2.6553    1.4818   -0.2723 C   0  0  0  0  0  0  0  0  0  0  0  0
   -4.4363   -0.7198   -0.3875 C   0  0  0  0  0  0  0  0  0  0  0  0
   -3.9935   -1.9685    0.0260 C   0  0  0  0  0  0  0  0  0  0  0  0
   -5.7785   -0.4901   -0.6555 C   0  0  0  0  0  0  0  0  0  0  0  0
    2.3209   -0.8332   -0.6871 C   0  0  0  0  0  0  0  0  0  0  0  0
   -4.9113   -3.0084    0.1747 C   0  0  0  0  0  0  0  0  0  0  0  0
   -6.6964   -1.5298   -0.5068 C   0  0  0  0  0  0  0  0  0  0  0  0
   -6.2627   -2.7890   -0.0917 C   0  0  0  0  0  0  0  0  0  0  0  0
    2.4820   -1.6616    0.4067 C   0  0  0  0  0  0  0  0  0  0  0  0
    2.6124   -1.2528   -1.9708 C   0  0  0  0  0  0  0  0  0  0  0  0
    2.9529   -2.9596    0.2092 C   0  0  0  0  0  0  0  0  0  0  0  0
    3.0832   -2.5508   -2.1683 C   0  0  0  0  0  0  0  0  0  0  0  0
    3.2535   -3.4042   -1.0782 C   0  0  0  0  0  0  0  0  0  0  0  0
    2.2908   -3.6849    2.4887 C   0  0  0  0  0  0  0  0  0  0  0  0
    4.1471   -4.8500    1.2866 C   0  0  0  0  0  0  0  0  0  0  0  0
   -0.7642    0.6737    0.4446 H   0  0  0  0  0  0  0  0  0  0  0  0
    0.5421    2.0899    1.7516 H   0  0  0  0  0  0  0  0  0  0  0  0
   -2.6775    2.9050   -0.2896 H   0  0  0  0  0  0  0  0  0  0  0  0
    1.0017    4.3746    0.1280 H   0  0  0  0  0  0  0  0  0  0  0  0
   -2.1337    2.4134    2.6675 H   0  0  0  0  0  0  0  0  0  0  0  0
   -2.8741    3.8273    1.8839 H   0  0  0  0  0  0  0  0  0  0  0  0
    0.7832    2.9867   -2.2443 H   0  0  0  0  0  0  0  0  0  0  0  0
   -0.5607    3.9164   -1.5487 H   0  0  0  0  0  0  0  0  0  0  0  0
   -4.1833    1.5525    0.9659 H   0  0  0  0  0  0  0  0  0  0  0  0
   -3.7793    1.0558   -1.3657 H   0  0  0  0  0  0  0  0  0  0  0  0
   -2.5006   -0.0412   -0.8847 H   0  0  0  0  0  0  0  0  0  0  0  0
   -2.9434   -2.1498    0.2381 H   0  0  0  0  0  0  0  0  0  0  0  0
   -6.1271    0.4870   -0.9777 H   0  0  0  0  0  0  0  0  0  0  0  0
   -4.5738   -3.9886    0.4984 H   0  0  0  0  0  0  0  0  0  0  0  0
   -7.7488   -1.3590   -0.7137 H   0  0  0  0  0  0  0  0  0  0  0  0
   -6.9775   -3.5984    0.0243 H   0  0  0  0  0  0  0  0  0  0  0  0
    2.2486   -1.2828    1.3973 H   0  0  0  0  0  0  0  0  0  0  0  0
    2.4786   -0.5905   -2.8207 H   0  0  0  0  0  0  0  0  0  0  0  0
    3.3142   -2.8976   -3.1714 H   0  0  0  0  0  0  0  0  0  0  0  0
    3.6103   -4.4125   -1.2680 H   0  0  0  0  0  0  0  0  0  0  0  0
    2.3063   -4.5989    3.0929 H   0  0  0  0  0  0  0  0  0  0  0  0
    2.6461   -2.8655    3.1223 H   0  0  0  0  0  0  0  0  0  0  0  0
    1.2438   -3.5036    2.2202 H   0  0  0  0  0  0  0  0  0  0  0  0
    3.8134   -5.7157    0.7052 H   0  0  0  0  0  0  0  0  0  0  0  0
    5.0849   -4.4727    0.8633 H   0  0  0  0  0  0  0  0  0  0  0  0
    4.3781   -5.2025    2.2982 H   0  0  0  0  0  0  0  0  0  0  0  0
  1 11  1  0  0  0  0
  1 14  1  0  0  0  0
  2 10  1  0  0  0  0
  2 15  1  0  0  0  0
  3 17  1  0  0  0  0
  3 21  1  0  0  0  0
  4 12  1  0  0  0  0
  4 16  1  0  0  0  0
  4 40  1  0  0  0  0
  5  6  1  0  0  0  0
  5 13  1  0  0  0  0
  5 17  1  0  0  0  0
  6  8  2  0  0  0  0
  7  8  1  0  0  0  0
  7 17  2  0  0  0  0
  9 27  1  0  0  0  0
  9 30  1  0  0  0  0
  9 31  1  0  0  0  0
 10 11  1  0  0  0  0
 10 12  1  0  0  0  0
 10 32  1  0  0  0  0
 11 13  1  0  0  0  0
 11 33  1  0  0  0  0
 12 14  1  0  0  0  0
 12 34  1  0  0  0  0
 13 15  1  0  0  0  0
 13 35  1  0  0  0  0
 14 36  1  0  0  0  0
 14 37  1  0  0  0  0
 15 38  1  0  0  0  0
 15 39  1  0  0  0  0
 16 18  1  0  0  0  0
 16 41  1  0  0  0  0
 16 42  1  0  0  0  0
 18 19  2  0  0  0  0
 18 20  1  0  0  0  0
 19 22  1  0  0  0  0
 19 43  1  0  0  0  0
 20 23  2  0  0  0  0
 20 44  1  0  0  0  0
 21 25  1  0  0  0  0
 21 26  2  0  0  0  0
 22 24  2  0  0  0  0
 22 45  1  0  0  0  0
 23 24  1  0  0  0  0
 23 46  1  0  0  0  0
 24 47  1  0  0  0  0
 25 27  2  0  0  0  0
 25 48  1  0  0  0  0
 26 28  1  0  0  0  0
 26 49  1  0  0  0  0
 27 29  1  0  0  0  0
 28 29  2  0  0  0  0
 28 50  1  0  0  0  0
 29 51  1  0  0  0  0
 30 52  1  0  0  0  0
 30 53  1  0  0  0  0
 30 54  1  0  0  0  0
 31 55  1  0  0  0  0
 31 56  1  0  0  0  0
 31 57  1  0  0  0  0
M  END
> <PUBCHEM_COMPOUND_CID>
11867546

> <PUBCHEM_CONFORMER_RMSD>
1

> <PUBCHEM_CONFORMER_DIVERSEORDER>
1
205
16
285
156
276
273
298
228
227
91
111
190
29
28
162
290
42
300
23
187
108
18
238
72
287
246
280
86
188
31
105
277
17
77
25
55
46
223
145
133
142
27
180
204
186
107
68
259
53
177
141
115
299
96
243
249
100
70
114
178
179
85
161
286
134
250
61
143
266
182
270
110
75
20
206
62
124
248
297
52
283
121
170
76
71
33
254
63
157
21
275
253
154
150
289
224
58
151
233
194
163
218
117
197
214
183
181
294
88
239
175
67
217
126
98
242
65
22
40
260
147
160
200
229
106
82
132
247
209
19
279
37
232
148
8
158
138
207
212
292
116
268
281
191
139
120
39
269
118
13
267
92
210
203
93
119
263
128
230
245
51
89
166
278
252
213
35
66
256
57
129
244
173
264
95
284
192
241
153
215
79
272
257
216
193
73
49
201
15
131
196
149
64
84
41
208
295
32
221
3
184
50
164
74
97
251
167
48
168
240
271
199
44
45
226
102
36
125
101
165
225
171
174
144
293
219
30
155
90
2
172
235
54
195
99
5
288
176
198
14
211
222
10
4
109
265
78
202
130
296
136
185
169
47
261
127
87
6
159
274
258
113
122
104
135
112
56
137
234
81
34
152
94
83
189
291
231
282
236
60
69
7
80
12
26
237
140
123
255
220
43
24
262
146
38
11
9
59
103

> <PUBCHEM_MMFF94_PARTIAL_CHARGES>
40
1 -0.56
10 0.28
11 0.28
12 0.27
13 0.26
14 0.28
15 0.28
16 0.41
17 0.25
18 -0.14
19 -0.15
2 -0.56
20 -0.15
21 0.08
22 -0.15
23 -0.15
24 -0.15
25 -0.15
26 -0.15
27 0.1
28 -0.15
29 -0.15
3 -0.15
30 0.37
31 0.37
4 -0.9
40 0.36
43 0.15
44 0.15
45 0.15
46 0.15
47 0.15
48 0.15
49 0.15
5 0.31
50 0.15
51 0.15
6 -0.42
7 -0.34
9 -0.84

> <PUBCHEM_EFFECTIVE_ROTOR_COUNT>
8.2

> <PUBCHEM_PHARMACOPHORE_FEATURES>
11
1 1 acceptor
1 2 acceptor
1 4 cation
1 4 donor
1 9 cation
3 5 7 17 cation
5 1 10 11 12 14 rings
5 2 10 11 13 15 rings
5 5 6 7 8 17 rings
6 18 19 20 22 23 24 rings
6 21 25 26 27 28 29 rings

> <PUBCHEM_HEAVY_ATOM_COUNT>
31

> <PUBCHEM_ATOM_DEF_STEREO_COUNT>
4

> <PUBCHEM_ATOM_UDEF_STEREO_COUNT>
0

> <PUBCHEM_BOND_DEF_STEREO_COUNT>
0

> <PUBCHEM_BOND_UDEF_STEREO_COUNT>
0

> <PUBCHEM_ISOTOPIC_ATOM_COUNT>
0

> <PUBCHEM_COMPONENT_COUNT>
1

> <PUBCHEM_CACTVS_TAUTO_COUNT>
1

> <PUBCHEM_CONFORMER_ID>
00B5159A00000001

> <PUBCHEM_MMFF94_ENERGY>
96.1929

> <PUBCHEM_FEATURE_SELFOVERLAP>
56.325

> <PUBCHEM_SHAPE_FINGERPRINT>
10622 236 17100584856552968954
10794284 68 18342730816060018486
10928967 22 17902810556159033226
12107183 9 18198354953348852681
12553582 1 17547582478851854404
12633257 1 17767136305970057669
12977781 61 17753858702701091508
13402501 40 18120936372156552323
14508693 111 18263081011688707730
14863182 85 18124320655524563724
14904385 45 18335713710980693699
15003188 105 18409450297264101238
15264996 163 17609494926223614171
16993438 75 17250618050027092211
17492 89 18272658900485114967
17909252 39 17988103139659818646
17974551 9 15046677293370797514
19319366 153 18195522829457358316
20028762 73 18199753716474538252
20775530 9 18338528438881917071
21703447 108 18342734109175606584
22956985 138 18263068943520857658
25222932 49 17915178151396486087
3044373 233 18043275576643617059
345986 75 17917994984307035897
3737641 26 18200609084691092501
3882209 13 18053073191413690751
4756261 7 18266433505116074642
613672 6 18055903312874193791
86090 222 18052271883296012314
9831232 110 17971756821346004223

> <PUBCHEM_SHAPE_MULTIPOLES>
590.47
12.25
7.07
1.66
18.81
1.21
0.21
13.41
-1.3
-6.17
2.61
-1.49
0.92
-1.95

> <PUBCHEM_SHAPE_SELFOVERLAP>
1281.764

> <PUBCHEM_SHAPE_VOLUME>
324.5

> <PUBCHEM_COORDINATE_TYPE>
2
5
10

$$$$
