75367088
  -OEChem-12032416393D

 49 51  0     1  0  0  0  0  0999 V2000
    7.7044    2.0152    0.0303 F   0  0  0  0  0  0  0  0  0  0  0  0
   -0.4116    0.4340   -0.9150 O   0  0  0  0  0  0  0  0  0  0  0  0
   -1.7523   -2.4360    0.7794 O   0  0  0  0  0  0  0  0  0  0  0  0
    2.8229   -1.7938    1.2254 O   0  0  0  0  0  0  0  0  0  0  0  0
   -3.8820   -0.6243   -0.6552 N   0  0  0  0  0  0  0  0  0  0  0  0
    2.1277   -0.9120   -0.8049 N   0  0  0  0  0  0  0  0  0  0  0  0
   -2.5370   -0.3350   -0.1850 C   0  0  1  0  0  0  0  0  0  0  0  0
   -4.8160    0.4128   -0.2211 C   0  0  0  0  0  0  0  0  0  0  0  0
   -1.5902   -1.5168   -0.2833 C   0  0  1  0  0  0  0  0  0  0  0  0
   -6.0666    0.3911   -1.1069 C   0  0  0  0  0  0  0  0  0  0  0  0
   -5.1790    0.2030    1.2530 C   0  0  0  0  0  0  0  0  0  0  0  0
   -0.2395   -0.8160   -0.2266 C   0  0  1  0  0  0  0  0  0  0  0  0
   -1.8202    0.6966   -1.0407 C   0  0  0  0  0  0  0  0  0  0  0  0
   -7.1007    1.4119   -0.6349 C   0  0  0  0  0  0  0  0  0  0  0  0
   -6.2137    1.2246    1.7220 C   0  0  0  0  0  0  0  0  0  0  0  0
   -7.4561    1.2143    0.8360 C   0  0  0  0  0  0  0  0  0  0  0  0
    0.8774   -1.6115   -0.8784 C   0  0  0  0  0  0  0  0  0  0  0  0
    3.0136   -1.0620    0.2578 C   0  0  0  0  0  0  0  0  0  0  0  0
    4.2545   -0.2472    0.1975 C   0  0  0  0  0  0  0  0  0  0  0  0
    4.9051    0.1204    1.3755 C   0  0  0  0  0  0  0  0  0  0  0  0
    4.7694    0.1496   -1.0366 C   0  0  0  0  0  0  0  0  0  0  0  0
    6.0702    0.8849    1.3192 C   0  0  0  0  0  0  0  0  0  0  0  0
    5.9346    0.9142   -1.0928 C   0  0  0  0  0  0  0  0  0  0  0  0
    6.5851    1.2818    0.0850 C   0  0  0  0  0  0  0  0  0  0  0  0
   -2.5339   -0.0076    0.8612 H   0  0  0  0  0  0  0  0  0  0  0  0
   -4.3644    1.4069   -0.3381 H   0  0  0  0  0  0  0  0  0  0  0  0
   -1.7201   -2.0488   -1.2340 H   0  0  0  0  0  0  0  0  0  0  0  0
   -4.1876   -1.5328   -0.3079 H   0  0  0  0  0  0  0  0  0  0  0  0
   -6.5209   -0.6086   -1.0959 H   0  0  0  0  0  0  0  0  0  0  0  0
   -5.7960    0.6054   -2.1482 H   0  0  0  0  0  0  0  0  0  0  0  0
   -5.5871   -0.8057    1.4027 H   0  0  0  0  0  0  0  0  0  0  0  0
   -4.3054    0.2881    1.9072 H   0  0  0  0  0  0  0  0  0  0  0  0
    0.0336   -0.5824    0.8109 H   0  0  0  0  0  0  0  0  0  0  0  0
   -2.0719    0.6035   -2.1035 H   0  0  0  0  0  0  0  0  0  0  0  0
   -2.0238    1.7248   -0.7272 H   0  0  0  0  0  0  0  0  0  0  0  0
   -8.0059    1.3289   -1.2469 H   0  0  0  0  0  0  0  0  0  0  0  0
   -6.7071    2.4252   -0.7825 H   0  0  0  0  0  0  0  0  0  0  0  0
   -5.7672    2.2266    1.7139 H   0  0  0  0  0  0  0  0  0  0  0  0
   -6.4996    1.0106    2.7581 H   0  0  0  0  0  0  0  0  0  0  0  0
   -8.1453    2.0030    1.1581 H   0  0  0  0  0  0  0  0  0  0  0  0
   -7.9829    0.2599    0.9584 H   0  0  0  0  0  0  0  0  0  0  0  0
    0.6721   -1.7612   -1.9441 H   0  0  0  0  0  0  0  0  0  0  0  0
    0.9811   -2.5928   -0.4033 H   0  0  0  0  0  0  0  0  0  0  0  0
   -1.6383   -1.9575    1.6180 H   0  0  0  0  0  0  0  0  0  0  0  0
    2.3146   -0.2370   -1.5386 H   0  0  0  0  0  0  0  0  0  0  0  0
    4.5175   -0.1753    2.3468 H   0  0  0  0  0  0  0  0  0  0  0  0
    4.3118   -0.1408   -1.9775 H   0  0  0  0  0  0  0  0  0  0  0  0
    6.5767    1.1722    2.2360 H   0  0  0  0  0  0  0  0  0  0  0  0
    6.3400    1.2179   -2.0535 H   0  0  0  0  0  0  0  0  0  0  0  0
  1 24  1  0  0  0  0
  2 12  1  0  0  0  0
  2 13  1  0  0  0  0
  3  9  1  0  0  0  0
  3 44  1  0  0  0  0
  4 18  2  0  0  0  0
  5  7  1  0  0  0  0
  5  8  1  0  0  0  0
  5 28  1  0  0  0  0
  6 17  1  0  0  0  0
  6 18  1  0  0  0  0
  6 45  1  0  0  0  0
  7  9  1  0  0  0  0
  7 13  1  0  0  0  0
  7 25  1  0  0  0  0
  8 10  1  0  0  0  0
  8 11  1  0  0  0  0
  8 26  1  0  0  0  0
  9 12  1  0  0  0  0
  9 27  1  0  0  0  0
 10 14  1  0  0  0  0
 10 29  1  0  0  0  0
 10 30  1  0  0  0  0
 11 15  1  0  0  0  0
 11 31  1  0  0  0  0
 11 32  1  0  0  0  0
 12 17  1  0  0  0  0
 12 33  1  0  0  0  0
 13 34  1  0  0  0  0
 13 35  1  0  0  0  0
 14 16  1  0  0  0  0
 14 36  1  0  0  0  0
 14 37  1  0  0  0  0
 15 16  1  0  0  0  0
 15 38  1  0  0  0  0
 15 39  1  0  0  0  0
 16 40  1  0  0  0  0
 16 41  1  0  0  0  0
 17 42  1  0  0  0  0
 17 43  1  0  0  0  0
 18 19  1  0  0  0  0
 19 20  2  0  0  0  0
 19 21  1  0  0  0  0
 20 22  1  0  0  0  0
 20 46  1  0  0  0  0
 21 23  2  0  0  0  0
 21 47  1  0  0  0  0
 22 24  2  0  0  0  0
 22 48  1  0  0  0  0
 23 24  1  0  0  0  0
 23 49  1  0  0  0  0
M  END
> <PUBCHEM_COMPOUND_CID>
75367088

> <PUBCHEM_CONFORMER_RMSD>
0.8

> <PUBCHEM_CONFORMER_DIVERSEORDER>
1
103
148
87
149
106
101
79
137
122
99
90
85
126
44
123
13
74
91
60
86
127
62
78
134
88
117
49
130
100
82
119
25
31
93
96
140
64
135
55
114
28
113
84
35
150
111
142
63
138
129
115
141
71
95
131
70
34
80
22
47
11
143
81
8
68
146
67
14
29
125
50
26
59
136
66
94
21
61
83
42
51
139
108
144
46
32
65
4
6
147
76
121
145
112
118
36
38
72
30
107
124
24
10
41
52
19
75
5
57
104
37
97
120
89
7
27
73
116
151
9
110
133
33
2
54
20
16
132
77
48
17
39
15
3
128
105
109
58
23
53
102
56
69
98
18
43
40
45
92
12

> <PUBCHEM_MMFF94_PARTIAL_CHARGES>
26
1 -0.19
12 0.28
13 0.28
17 0.3
18 0.54
19 0.09
2 -0.56
20 -0.15
21 -0.15
22 -0.15
23 -0.15
24 0.19
28 0.36
3 -0.68
4 -0.57
44 0.4
45 0.37
46 0.15
47 0.15
48 0.15
49 0.15
5 -0.9
6 -0.73
7 0.27
8 0.27
9 0.28

> <PUBCHEM_EFFECTIVE_ROTOR_COUNT>
8.2

> <PUBCHEM_PHARMACOPHORE_FEATURES>
10
1 2 acceptor
1 3 acceptor
1 3 donor
1 4 acceptor
1 5 cation
1 5 donor
1 6 donor
5 2 7 9 12 13 rings
6 19 20 21 22 23 24 rings
6 8 10 11 14 15 16 rings

> <PUBCHEM_HEAVY_ATOM_COUNT>
24

> <PUBCHEM_ATOM_DEF_STEREO_COUNT>
3

> <PUBCHEM_ATOM_UDEF_STEREO_COUNT>
0

> <PUBCHEM_BOND_DEF_STEREO_COUNT>
0

> <PUBCHEM_BOND_UDEF_STEREO_COUNT>
0

> <PUBCHEM_ISOTOPIC_ATOM_COUNT>
0

> <PUBCHEM_COMPONENT_COUNT>
1

> <PUBCHEM_CACTVS_TAUTO_COUNT>
2

> <PUBCHEM_CONFORMER_ID>
047E02B000000001

> <PUBCHEM_MMFF94_ENERGY>
40.1724

> <PUBCHEM_FEATURE_SELFOVERLAP>
50.747

> <PUBCHEM_SHAPE_FINGERPRINT>
10 15 17603868905306695741
10554248 39 17844797088941510671
106641 1 18260554442132693867
10670039 82 14117526411106102011
10753850 27 10737285744728004614
10906281 52 18340497715594066159
11315181 36 18272650152696951469
11991303 11 13542167408225187933
12166972 35 13183014146740323643
125118 31 18335137532169174173
12596602 18 15936410030823895173
12760667 363 8646772201000069631
12954195 1 11023841552050118395
13533116 47 18270117894749019142
13668630 136 10303813176660678037
13685833 64 11674879991789408678
13782708 43 10665231462241815231
13862211 1 8358255943140132343
14251752 14 13686297954802575205
14251757 52 17989485238813945416
14251764 18 18260548944289763503
14347332 77 10087653584439023898
15048467 5 18272932713271778635
15183329 4 13973971990728583363
15348495 7 16371017338072932957
15510800 12 8285924635448753472
15706992 2 18059871566693110361
16994733 274 18272368625547988393
1768 124 12901540239698336848
17980427 23 18188208813711770303
190975 80 16660652885805546369
2026 5 10953458544624019425
20281389 69 18341611478055114337
20526848 3 18344148102835689544
21033648 29 17988350581626665026
21150785 3 15554444102650690453
21267235 1 10807932687318217903
21424621 283 18200319823355288851
21637258 2 11530483341579818703
221357 26 15123790678386572082
2215653 11 12463569586603516292
22224240 67 18260268534618157075
23081809 10 17846207822684830127
3004659 81 12175618477920995606
3383291 50 8070024467430314069
4058900 60 16056331539789245199
4073 2 18272655649538588279
4340502 62 16588023498402883154
445580 37 16559034874716273001
5104073 3 17677614344588709464
543368 44 18060701663891709377
5718773 13 7997700787752449760
5758199 1 18342460322949692523
59682541 35 17822016432290660969
59682541 52 14333413337629538964
59755656 215 11383837056003796285
6438161 24 11743841335772853316

> <PUBCHEM_SHAPE_MULTIPOLES>
459.07
22.78
1.77
1.39
1.85
0.38
0.26
-16.35
2.19
-0.57
0.29
0.24
-0.17
-0.55

> <PUBCHEM_SHAPE_SELFOVERLAP>
958.882

> <PUBCHEM_SHAPE_VOLUME>
261.5

> <PUBCHEM_COORDINATE_TYPE>
2
5
10

$$$$
