45784022
  -OEChem-12032416273D

 40 42  0     1  0  0  0  0  0999 V2000
   -6.3766    1.0986   -0.3557 F   0  0  0  0  0  0  0  0  0  0  0  0
    3.5193   -0.0322    1.8089 O   0  0  0  0  0  0  0  0  0  0  0  0
    2.2046   -0.9782    0.1671 N   0  0  0  0  0  0  0  0  0  0  0  0
   -2.3260   -1.5995   -0.0573 N   0  0  0  0  0  0  0  0  0  0  0  0
   -1.0141    0.1500    0.3401 N   0  0  0  0  0  0  0  0  0  0  0  0
    3.9969    0.4161   -0.4016 N   0  0  0  0  0  0  0  0  0  0  0  0
    0.1180   -2.1156    0.2505 C   0  0  1  0  0  0  0  0  0  0  0  0
    0.7575   -2.3222   -1.1308 C   0  0  0  0  0  0  0  0  0  0  0  0
    1.3204   -1.6747    1.0943 C   0  0  0  0  0  0  0  0  0  0  0  0
    1.8141   -1.2271   -1.2176 C   0  0  0  0  0  0  0  0  0  0  0  0
   -1.0562   -1.1543    0.1843 C   0  0  0  0  0  0  0  0  0  0  0  0
    3.2611   -0.1869    0.6122 C   0  0  0  0  0  0  0  0  0  0  0  0
   -3.1588   -0.5101   -0.0573 C   0  0  0  0  0  0  0  0  0  0  0  0
   -2.3163    0.5695    0.1927 C   0  0  0  0  0  0  0  0  0  0  0  0
    5.1271    1.2751   -0.1328 C   0  0  0  0  0  0  0  0  0  0  0  0
   -4.5347   -0.3804   -0.2488 C   0  0  0  0  0  0  0  0  0  0  0  0
   -2.8617    1.8627    0.2589 C   0  0  0  0  0  0  0  0  0  0  0  0
    6.1610    1.1627   -1.2462 C   0  0  0  0  0  0  0  0  0  0  0  0
    4.6660    2.7155    0.0488 C   0  0  0  0  0  0  0  0  0  0  0  0
   -5.0606    0.9139   -0.1795 C   0  0  0  0  0  0  0  0  0  0  0  0
   -4.2407    2.0169    0.0697 C   0  0  0  0  0  0  0  0  0  0  0  0
   -0.2641   -3.0684    0.6391 H   0  0  0  0  0  0  0  0  0  0  0  0
    1.2527   -3.3014   -1.1544 H   0  0  0  0  0  0  0  0  0  0  0  0
    0.0518   -2.2832   -1.9664 H   0  0  0  0  0  0  0  0  0  0  0  0
    1.0588   -1.0291    1.9387 H   0  0  0  0  0  0  0  0  0  0  0  0
    1.8742   -2.5413    1.4736 H   0  0  0  0  0  0  0  0  0  0  0  0
    2.6769   -1.5309   -1.8175 H   0  0  0  0  0  0  0  0  0  0  0  0
    1.4015   -0.2977   -1.6244 H   0  0  0  0  0  0  0  0  0  0  0  0
   -2.6041   -2.5599   -0.2104 H   0  0  0  0  0  0  0  0  0  0  0  0
    3.6821    0.3397   -1.3624 H   0  0  0  0  0  0  0  0  0  0  0  0
    5.5952    0.9446    0.8023 H   0  0  0  0  0  0  0  0  0  0  0  0
   -5.1692   -1.2378   -0.4422 H   0  0  0  0  0  0  0  0  0  0  0  0
   -2.2331    2.7261    0.4521 H   0  0  0  0  0  0  0  0  0  0  0  0
    5.7447    1.4779   -2.2096 H   0  0  0  0  0  0  0  0  0  0  0  0
    6.4999    0.1268   -1.3573 H   0  0  0  0  0  0  0  0  0  0  0  0
    7.0363    1.7848   -1.0327 H   0  0  0  0  0  0  0  0  0  0  0  0
    4.1721    3.0907   -0.8545 H   0  0  0  0  0  0  0  0  0  0  0  0
    3.9491    2.7974    0.8730 H   0  0  0  0  0  0  0  0  0  0  0  0
    5.5129    3.3725    0.2726 H   0  0  0  0  0  0  0  0  0  0  0  0
   -4.6789    3.0104    0.1178 H   0  0  0  0  0  0  0  0  0  0  0  0
  1 20  1  0  0  0  0
  2 12  2  0  0  0  0
  3  9  1  0  0  0  0
  3 10  1  0  0  0  0
  3 12  1  0  0  0  0
  4 11  1  0  0  0  0
  4 13  1  0  0  0  0
  4 29  1  0  0  0  0
  5 11  2  0  0  0  0
  5 14  1  0  0  0  0
  6 12  1  0  0  0  0
  6 15  1  0  0  0  0
  6 30  1  0  0  0  0
  7  8  1  0  0  0  0
  7  9  1  0  0  0  0
  7 11  1  0  0  0  0
  7 22  1  0  0  0  0
  8 10  1  0  0  0  0
  8 23  1  0  0  0  0
  8 24  1  0  0  0  0
  9 25  1  0  0  0  0
  9 26  1  0  0  0  0
 10 27  1  0  0  0  0
 10 28  1  0  0  0  0
 13 14  2  0  0  0  0
 13 16  1  0  0  0  0
 14 17  1  0  0  0  0
 15 18  1  0  0  0  0
 15 19  1  0  0  0  0
 15 31  1  0  0  0  0
 16 20  2  0  0  0  0
 16 32  1  0  0  0  0
 17 21  2  0  0  0  0
 17 33  1  0  0  0  0
 18 34  1  0  0  0  0
 18 35  1  0  0  0  0
 18 36  1  0  0  0  0
 19 37  1  0  0  0  0
 19 38  1  0  0  0  0
 19 39  1  0  0  0  0
 20 21  1  0  0  0  0
 21 40  1  0  0  0  0
M  END
> <PUBCHEM_COMPOUND_CID>
45784022

> <PUBCHEM_CONFORMER_RMSD>
0.8

> <PUBCHEM_CONFORMER_DIVERSEORDER>
1
12
8
17
19
20
10
21
6
9
14
13
16
5
2
15
18
7
3
4
11

> <PUBCHEM_MMFF94_PARTIAL_CHARGES>
23
1 -0.19
10 0.3
11 0.01
12 0.69
13 -0.15
14 0.23
15 0.3
16 -0.15
17 -0.15
2 -0.57
20 0.19
21 -0.15
29 0.27
3 -0.66
30 0.37
32 0.15
33 0.15
4 0.03
40 0.15
5 -0.57
6 -0.73
7 0.18
9 0.3

> <PUBCHEM_EFFECTIVE_ROTOR_COUNT>
5

> <PUBCHEM_PHARMACOPHORE_FEATURES>
8
1 2 acceptor
1 4 donor
1 6 donor
3 15 18 19 hydrophobe
3 4 5 11 cation
5 3 7 8 9 10 rings
5 4 5 11 13 14 rings
6 13 14 16 17 20 21 rings

> <PUBCHEM_HEAVY_ATOM_COUNT>
21

> <PUBCHEM_ATOM_DEF_STEREO_COUNT>
1

> <PUBCHEM_ATOM_UDEF_STEREO_COUNT>
0

> <PUBCHEM_BOND_DEF_STEREO_COUNT>
0

> <PUBCHEM_BOND_UDEF_STEREO_COUNT>
0

> <PUBCHEM_ISOTOPIC_ATOM_COUNT>
0

> <PUBCHEM_COMPONENT_COUNT>
1

> <PUBCHEM_CACTVS_TAUTO_COUNT>
4

> <PUBCHEM_CONFORMER_ID>
02BA9BD600000001

> <PUBCHEM_MMFF94_ENERGY>
32.3998

> <PUBCHEM_FEATURE_SELFOVERLAP>
40.703

> <PUBCHEM_SHAPE_FINGERPRINT>
10498660 4 18342742914127491280
10591671 39 18337681913475621551
10670039 82 18342747278178637520
11796584 16 10303272191565341998
12596602 18 17240202153017466272
12760667 363 8430321216632462961
12892183 10 15357965729658248446
13533116 47 16733539399620031819
13685833 64 9727630613741798373
14251751 18 9943531795224852144
14251764 30 13038896776973919237
14257110 125 18408042922533125740
14341114 328 17676201390442444432
14528608 73 18343297076451146421
14739800 52 18265878333137462088
14774955 27 18408599253831154781
14840074 17 17458350783713210828
15142526 21 17750233789232273304
15183329 4 18341624694439507294
15188451 53 13984958367523545073
15238133 3 18335691785435910968
15342168 16 18408038511343204711
15961568 22 18334017168095485364
17834072 32 18411139173168215400
17980427 23 17968098672264579191
193927 3 10879997994832637620
19784866 135 8790893973013188719
19784866 140 14908186334646020826
1979834 28 13190333535437946984
20374829 77 9943809975661063870
21637258 2 11671784836571588782
21756936 100 18262234560113662642
22620623 9 16629102459602509647
23227448 37 18341330101735927837
23253445 4 14129060335468198918
23557571 272 18271814578698112015
23559900 14 17771900532998283783
245318 6 17605853627122714348
270888 7 18335138743481742388
2838139 119 18412539938244754428
3472631 163 18409730672675994965
34797466 226 18059862744682487397
351380 3 11240004442795827092
4340502 62 16950570926939467603
465052 167 9655281675340855705
474 4 17968101927443171684
5104073 3 18114468851488537363
59682541 35 18187939417226964003
59682541 52 16630532782738658444
633830 44 18335414665034246710
67856867 119 18264482901708833667
7808743 9 18410854403793105922
9981440 41 18334298703291396002

> <PUBCHEM_SHAPE_MULTIPOLES>
399.1
13.32
2.58
1.05
2.13
0.26
0.08
10.94
-2.36
0.78
-0.18
1.16
-0.27
-0.31

> <PUBCHEM_SHAPE_SELFOVERLAP>
853.093

> <PUBCHEM_SHAPE_VOLUME>
225.5

> <PUBCHEM_COORDINATE_TYPE>
2
5
10

$$$$
