45784223
  -OEChem-12032416243D

 39 41  0     1  0  0  0  0  0999 V2000
   -3.5360   -0.2522   -0.0994 N   0  0  1  0  0  0  0  0  0  0  0  0
    1.1314   -1.2134   -0.6002 N   0  0  0  0  0  0  0  0  0  0  0  0
    0.5513    0.5304    0.6498 N   0  0  0  0  0  0  0  0  0  0  0  0
   -1.3159   -1.0073   -0.0818 C   0  0  2  0  0  0  0  0  0  0  0  0
   -2.2465    0.0223   -0.7368 C   0  0  0  0  0  0  0  0  0  0  0  0
   -1.9794   -1.3285    1.2687 C   0  0  0  0  0  0  0  0  0  0  0  0
   -3.2226   -0.4496    1.3159 C   0  0  0  0  0  0  0  0  0  0  0  0
   -4.4986    0.8190   -0.3096 C   0  0  0  0  0  0  0  0  0  0  0  0
    0.1158   -0.5323    0.0111 C   0  0  0  0  0  0  0  0  0  0  0  0
   -5.7986    0.5148    0.4295 C   0  0  0  0  0  0  0  0  0  0  0  0
   -4.7461    0.9930   -1.8047 C   0  0  0  0  0  0  0  0  0  0  0  0
    2.3002   -0.5455   -0.3389 C   0  0  0  0  0  0  0  0  0  0  0  0
    1.9117    0.5389    0.4430 C   0  0  0  0  0  0  0  0  0  0  0  0
    3.6235   -0.7893   -0.7078 C   0  0  0  0  0  0  0  0  0  0  0  0
    2.8881    1.4440    0.8924 C   0  0  0  0  0  0  0  0  0  0  0  0
    4.5821    0.1215   -0.2519 C   0  0  0  0  0  0  0  0  0  0  0  0
    4.2231    1.2190    0.5342 C   0  0  0  0  0  0  0  0  0  0  0  0
    6.0165   -0.0850   -0.6137 C   0  0  0  0  0  0  0  0  0  0  0  0
   -1.3388   -1.9273   -0.6841 H   0  0  0  0  0  0  0  0  0  0  0  0
   -2.2699   -0.1347   -1.8206 H   0  0  0  0  0  0  0  0  0  0  0  0
   -1.9060    1.0479   -0.5410 H   0  0  0  0  0  0  0  0  0  0  0  0
   -2.2648   -2.3878    1.2907 H   0  0  0  0  0  0  0  0  0  0  0  0
   -1.3274   -1.1426    2.1287 H   0  0  0  0  0  0  0  0  0  0  0  0
   -2.9885    0.4967    1.8204 H   0  0  0  0  0  0  0  0  0  0  0  0
   -4.0204   -0.9580    1.8661 H   0  0  0  0  0  0  0  0  0  0  0  0
   -4.1120    1.7716    0.0783 H   0  0  0  0  0  0  0  0  0  0  0  0
   -6.1943   -0.4713    0.1606 H   0  0  0  0  0  0  0  0  0  0  0  0
   -5.6768    0.5535    1.5168 H   0  0  0  0  0  0  0  0  0  0  0  0
   -6.5656    1.2554    0.1753 H   0  0  0  0  0  0  0  0  0  0  0  0
   -5.5564    1.7109   -1.9767 H   0  0  0  0  0  0  0  0  0  0  0  0
   -3.8689    1.3847   -2.3298 H   0  0  0  0  0  0  0  0  0  0  0  0
   -5.0405    0.0494   -2.2784 H   0  0  0  0  0  0  0  0  0  0  0  0
    1.0411   -2.0586   -1.1483 H   0  0  0  0  0  0  0  0  0  0  0  0
    3.8886   -1.6465   -1.3172 H   0  0  0  0  0  0  0  0  0  0  0  0
    2.6191    2.2994    1.5038 H   0  0  0  0  0  0  0  0  0  0  0  0
    4.9823    1.9162    0.8816 H   0  0  0  0  0  0  0  0  0  0  0  0
    6.5259    0.8734   -0.7618 H   0  0  0  0  0  0  0  0  0  0  0  0
    6.1143   -0.6471   -1.5487 H   0  0  0  0  0  0  0  0  0  0  0  0
    6.5280   -0.6375    0.1808 H   0  0  0  0  0  0  0  0  0  0  0  0
  1  5  1  0  0  0  0
  1  7  1  0  0  0  0
  1  8  1  0  0  0  0
  2  9  1  0  0  0  0
  2 12  1  0  0  0  0
  2 33  1  0  0  0  0
  3  9  2  0  0  0  0
  3 13  1  0  0  0  0
  4  5  1  0  0  0  0
  4  6  1  0  0  0  0
  4  9  1  0  0  0  0
  4 19  1  0  0  0  0
  5 20  1  0  0  0  0
  5 21  1  0  0  0  0
  6  7  1  0  0  0  0
  6 22  1  0  0  0  0
  6 23  1  0  0  0  0
  7 24  1  0  0  0  0
  7 25  1  0  0  0  0
  8 10  1  0  0  0  0
  8 11  1  0  0  0  0
  8 26  1  0  0  0  0
 10 27  1  0  0  0  0
 10 28  1  0  0  0  0
 10 29  1  0  0  0  0
 11 30  1  0  0  0  0
 11 31  1  0  0  0  0
 11 32  1  0  0  0  0
 12 13  2  0  0  0  0
 12 14  1  0  0  0  0
 13 15  1  0  0  0  0
 14 16  2  0  0  0  0
 14 34  1  0  0  0  0
 15 17  2  0  0  0  0
 15 35  1  0  0  0  0
 16 17  1  0  0  0  0
 16 18  1  0  0  0  0
 17 36  1  0  0  0  0
 18 37  1  0  0  0  0
 18 38  1  0  0  0  0
 18 39  1  0  0  0  0
M  END
> <PUBCHEM_COMPOUND_CID>
45784223

> <PUBCHEM_CONFORMER_RMSD>
0.6

> <PUBCHEM_CONFORMER_DIVERSEORDER>
1
9
15
19
18
10
11
16
21
20
8
13
2
12
17
14
3
7
5
6
4

> <PUBCHEM_MMFF94_PARTIAL_CHARGES>
19
1 -0.81
12 -0.15
13 0.23
14 -0.15
15 -0.15
16 -0.14
17 -0.15
18 0.14
2 0.03
3 -0.57
33 0.27
34 0.15
35 0.15
36 0.15
4 0.18
5 0.27
7 0.27
8 0.27
9 0.01

> <PUBCHEM_EFFECTIVE_ROTOR_COUNT>
3

> <PUBCHEM_PHARMACOPHORE_FEATURES>
7
1 1 cation
1 2 donor
3 2 3 9 cation
3 8 10 11 hydrophobe
5 1 4 5 6 7 rings
5 2 3 9 12 13 rings
6 12 13 14 15 16 17 rings

> <PUBCHEM_HEAVY_ATOM_COUNT>
18

> <PUBCHEM_ATOM_DEF_STEREO_COUNT>
1

> <PUBCHEM_ATOM_UDEF_STEREO_COUNT>
0

> <PUBCHEM_BOND_DEF_STEREO_COUNT>
0

> <PUBCHEM_BOND_UDEF_STEREO_COUNT>
0

> <PUBCHEM_ISOTOPIC_ATOM_COUNT>
0

> <PUBCHEM_COMPONENT_COUNT>
1

> <PUBCHEM_CACTVS_TAUTO_COUNT>
2

> <PUBCHEM_CONFORMER_ID>
02BA9C9F00000001

> <PUBCHEM_MMFF94_ENERGY>
28.4715

> <PUBCHEM_FEATURE_SELFOVERLAP>
35.629

> <PUBCHEM_SHAPE_FINGERPRINT>
10014705 185 18410853308565889311
10354089 29 14418136214481351892
11089746 13 17561361781919719408
11315181 36 14836405843603346058
11401426 45 17560799944389240234
11471102 20 18060702801662364944
11796584 16 17967817137707121346
12236239 1 16271927112130280189
12403259 415 18340771553897203090
12500047 106 18113900489322824378
12596602 18 14996283608926886829
12730499 353 18411705365964597395
12969540 114 18338502089399981295
13288520 33 13183020713908452551
13533116 47 18188203191583755202
13760787 19 17530963601116143522
13760787 5 17632305600711806784
14251718 22 13470684854382895506
14252887 29 12035720990695334832
15048467 5 17748831834681512148
15242439 84 18410295817684673802
15375358 24 18409446990128246291
17834072 33 16343699949862973957
17834072 8 18201725054839190676
18186145 218 18413386553101701147
19784866 170 17530683195232731339
200 152 16917067754735711355
20279233 1 18409736170197398619
20281389 69 17603584127716698308
20300324 65 14979960276475109667
20612939 158 17989210382476828576
20645477 56 18114183042863430971
20645477 70 18130510738732975558
20681677 155 16732987548210126098
21033648 29 18335690650974077425
21054139 6 15769766962138956644
21065198 48 14634859826056116429
21150785 3 14620797141679005832
21503847 285 17240485848977747396
21709351 56 18342172318863011222
221357 26 18060132111951711609
231179 274 18409444791152424586
23402539 116 18040149634519313887
23402655 69 17846495937137271405
23557571 272 18187092783971867843
23559900 14 18186804656423216010
2916195 48 18260543429362072245
29717793 49 15985111803634150908
300161 21 15213013881757855394
3545911 37 18408044009275850683
4028521 119 18409442566750002245
4072396 5 18272360946341745282
5104073 3 18130786823631205666
542803 24 16587743148686277204
59755656 520 18333730226216120115
633830 44 18041836341728772142
67856867 119 15051435172331521314
7471813 234 16128654167494955936
8272917 22 17846224306273433638
90127 26 17968663834046841296
9971528 1 17346598582614058360

> <PUBCHEM_SHAPE_MULTIPOLES>
355.49
12.97
1.26
1.2
0.93
0.03
0
-3.95
-1.36
0.58
0.08
0.33
-0.15
1.49

> <PUBCHEM_SHAPE_SELFOVERLAP>
760.801

> <PUBCHEM_SHAPE_VOLUME>
199.8

> <PUBCHEM_COORDINATE_TYPE>
2
5
10

$$$$
