44716482
  -OEChem-12032416173D

 65 70  0     1  0  0  0  0  0999 V2000
    0.4310   -4.5956    3.0545 F   0  0  0  0  0  0  0  0  0  0  0  0
    0.4015   -6.6498    1.2502 F   0  0  0  0  0  0  0  0  0  0  0  0
   -3.6485   -1.7792   -1.9979 O   0  0  0  0  0  0  0  0  0  0  0  0
   -1.6734   -0.7816   -2.6614 O   0  0  0  0  0  0  0  0  0  0  0  0
   -0.8185   -0.5015   -0.0776 N   0  0  2  0  0  0  0  0  0  0  0  0
   -2.1295    3.0178   -0.0141 N   0  0  0  0  0  0  0  0  0  0  0  0
    2.9937    1.4419   -0.0852 N   0  0  0  0  0  0  0  0  0  0  0  0
    7.5192    1.4477    0.7063 N   0  0  0  0  0  0  0  0  0  0  0  0
   -0.7529    0.9220   -0.5314 C   0  0  2  0  0  0  0  0  0  0  0  0
    0.3408   -1.2926   -0.5626 C   0  0  1  0  0  0  0  0  0  0  0  0
    0.5468    1.5863   -0.0507 C   0  0  0  0  0  0  0  0  0  0  0  0
    1.7629    0.8226   -0.5740 C   0  0  2  0  0  0  0  0  0  0  0  0
    1.6776   -0.6388   -0.1365 C   0  0  0  0  0  0  0  0  0  0  0  0
   -2.1471   -1.1267   -0.3224 C   0  0  1  0  0  0  0  0  0  0  0  0
   -1.9643    1.6612   -0.0470 C   0  0  0  0  0  0  0  0  0  0  0  0
   -3.2924   -0.4033    0.4309 C   0  0  0  0  0  0  0  0  0  0  0  0
   -3.1371    1.0761    0.3777 C   0  0  0  0  0  0  0  0  0  0  0  0
    0.3572   -2.7387   -0.0735 C   0  0  0  0  0  0  0  0  0  0  0  0
   -4.0436    2.1166    0.7178 C   0  0  0  0  0  0  0  0  0  0  0  0
   -3.3861    3.3244    0.4636 C   0  0  0  0  0  0  0  0  0  0  0  0
   -2.4333   -1.1948   -1.7960 C   0  0  0  0  0  0  0  0  0  0  0  0
    4.1236    1.0760   -0.9252 C   0  0  0  0  0  0  0  0  0  0  0  0
    0.3875   -3.0119    1.2940 C   0  0  0  0  0  0  0  0  0  0  0  0
    0.3417   -3.7867   -0.9938 C   0  0  0  0  0  0  0  0  0  0  0  0
   -5.3625    2.1545    1.2133 C   0  0  0  0  0  0  0  0  0  0  0  0
   -3.9860    4.5697    0.6830 C   0  0  0  0  0  0  0  0  0  0  0  0
   -5.9729    3.3934    1.4388 C   0  0  0  0  0  0  0  0  0  0  0  0
    5.4064    1.6986   -0.4419 C   0  0  0  0  0  0  0  0  0  0  0  0
    0.4022   -4.3332    1.7412 C   0  0  0  0  0  0  0  0  0  0  0  0
    0.3567   -5.1079   -0.5467 C   0  0  0  0  0  0  0  0  0  0  0  0
   -5.2934    4.5813    1.1772 C   0  0  0  0  0  0  0  0  0  0  0  0
    0.3868   -5.3812    0.8209 C   0  0  0  0  0  0  0  0  0  0  0  0
   -4.0489   -1.9087   -3.3657 C   0  0  0  0  0  0  0  0  0  0  0  0
    5.6807    3.0427   -0.6684 C   0  0  0  0  0  0  0  0  0  0  0  0
    6.3498    0.9509    0.2443 C   0  0  0  0  0  0  0  0  0  0  0  0
    6.8732    3.5904   -0.2085 C   0  0  0  0  0  0  0  0  0  0  0  0
    7.7510    2.7581    0.4672 C   0  0  0  0  0  0  0  0  0  0  0  0
   -0.7506    0.9924   -1.6247 H   0  0  0  0  0  0  0  0  0  0  0  0
    0.3509   -1.3060   -1.6586 H   0  0  0  0  0  0  0  0  0  0  0  0
    0.5640    1.6300    1.0478 H   0  0  0  0  0  0  0  0  0  0  0  0
    0.5923    2.6250   -0.4039 H   0  0  0  0  0  0  0  0  0  0  0  0
    1.7303    0.8752   -1.6713 H   0  0  0  0  0  0  0  0  0  0  0  0
    2.5033   -1.2202   -0.5657 H   0  0  0  0  0  0  0  0  0  0  0  0
    1.8028   -0.6883    0.9542 H   0  0  0  0  0  0  0  0  0  0  0  0
   -2.1461   -2.1604    0.0423 H   0  0  0  0  0  0  0  0  0  0  0  0
   -4.2813   -0.6856    0.0541 H   0  0  0  0  0  0  0  0  0  0  0  0
   -3.2568   -0.7024    1.4870 H   0  0  0  0  0  0  0  0  0  0  0  0
   -1.4389    3.7007   -0.2935 H   0  0  0  0  0  0  0  0  0  0  0  0
    2.8884    2.4567   -0.1006 H   0  0  0  0  0  0  0  0  0  0  0  0
    4.2606   -0.0107   -0.9593 H   0  0  0  0  0  0  0  0  0  0  0  0
    3.9589    1.3980   -1.9622 H   0  0  0  0  0  0  0  0  0  0  0  0
    0.3895   -2.2111    2.0282 H   0  0  0  0  0  0  0  0  0  0  0  0
    0.3168   -3.5898   -2.0622 H   0  0  0  0  0  0  0  0  0  0  0  0
   -5.9052    1.2367    1.4210 H   0  0  0  0  0  0  0  0  0  0  0  0
   -3.4589    5.4956    0.4782 H   0  0  0  0  0  0  0  0  0  0  0  0
   -6.9894    3.4277    1.8218 H   0  0  0  0  0  0  0  0  0  0  0  0
    0.3444   -5.9241   -1.2630 H   0  0  0  0  0  0  0  0  0  0  0  0
   -5.7870    5.5326    1.3589 H   0  0  0  0  0  0  0  0  0  0  0  0
   -4.1289   -0.9218   -3.8314 H   0  0  0  0  0  0  0  0  0  0  0  0
   -3.3379   -2.5373   -3.9103 H   0  0  0  0  0  0  0  0  0  0  0  0
   -5.0310   -2.3884   -3.3886 H   0  0  0  0  0  0  0  0  0  0  0  0
    4.9738    3.6720   -1.2022 H   0  0  0  0  0  0  0  0  0  0  0  0
    6.1935   -0.1027    0.4547 H   0  0  0  0  0  0  0  0  0  0  0  0
    7.1082    4.6355   -0.3738 H   0  0  0  0  0  0  0  0  0  0  0  0
    8.6947    3.1365    0.8461 H   0  0  0  0  0  0  0  0  0  0  0  0
  1 29  1  0  0  0  0
  2 32  1  0  0  0  0
  3 21  1  0  0  0  0
  3 33  1  0  0  0  0
  4 21  2  0  0  0  0
  5  9  1  0  0  0  0
  5 10  1  0  0  0  0
  5 14  1  0  0  0  0
  6 15  1  0  0  0  0
  6 20  1  0  0  0  0
  6 48  1  0  0  0  0
  7 12  1  0  0  0  0
  7 22  1  0  0  0  0
  7 49  1  0  0  0  0
  8 35  1  0  0  0  0
  8 37  2  0  0  0  0
  9 11  1  0  0  0  0
  9 15  1  0  0  0  0
  9 38  1  0  0  0  0
 10 13  1  0  0  0  0
 10 18  1  0  0  0  0
 10 39  1  0  0  0  0
 11 12  1  0  0  0  0
 11 40  1  0  0  0  0
 11 41  1  0  0  0  0
 12 13  1  0  0  0  0
 12 42  1  0  0  0  0
 13 43  1  0  0  0  0
 13 44  1  0  0  0  0
 14 16  1  0  0  0  0
 14 21  1  0  0  0  0
 14 45  1  0  0  0  0
 15 17  2  0  0  0  0
 16 17  1  0  0  0  0
 16 46  1  0  0  0  0
 16 47  1  0  0  0  0
 17 19  1  0  0  0  0
 18 23  2  0  0  0  0
 18 24  1  0  0  0  0
 19 20  1  0  0  0  0
 19 25  2  0  0  0  0
 20 26  2  0  0  0  0
 22 28  1  0  0  0  0
 22 50  1  0  0  0  0
 22 51  1  0  0  0  0
 23 29  1  0  0  0  0
 23 52  1  0  0  0  0
 24 30  2  0  0  0  0
 24 53  1  0  0  0  0
 25 27  1  0  0  0  0
 25 54  1  0  0  0  0
 26 31  1  0  0  0  0
 26 55  1  0  0  0  0
 27 31  2  0  0  0  0
 27 56  1  0  0  0  0
 28 34  1  0  0  0  0
 28 35  2  0  0  0  0
 29 32  2  0  0  0  0
 30 32  1  0  0  0  0
 30 57  1  0  0  0  0
 31 58  1  0  0  0  0
 33 59  1  0  0  0  0
 33 60  1  0  0  0  0
 33 61  1  0  0  0  0
 34 36  2  0  0  0  0
 34 62  1  0  0  0  0
 35 63  1  0  0  0  0
 36 37  1  0  0  0  0
 36 64  1  0  0  0  0
 37 65  1  0  0  0  0
M  END
> <PUBCHEM_COMPOUND_CID>
44716482

> <PUBCHEM_CONFORMER_RMSD>
1

> <PUBCHEM_CONFORMER_DIVERSEORDER>
1
37
16
57
7
18
11
30
59
32
29
8
6
27
41
28
52
35
33
10
31
63
55
39
12
34
62
48
43
20
19
53
54
58
21
49
36
17
45
56
44
47
61
50
23
51
42
64
38
22
60
26
15
24
13
46
40
3
9
4
14
5
25
2

> <PUBCHEM_MMFF94_PARTIAL_CHARGES>
47
1 -0.19
10 0.41
12 0.27
14 0.33
15 -0.33
16 0.18
17 -0.18
18 -0.14
2 -0.19
20 -0.15
21 0.66
22 0.41
23 -0.15
24 -0.15
25 -0.15
26 -0.15
27 -0.15
28 -0.14
29 0.19
3 -0.43
30 -0.15
31 -0.15
32 0.19
33 0.28
34 -0.15
35 0.16
36 -0.15
37 0.16
4 -0.57
48 0.27
49 0.36
5 -0.81
52 0.15
53 0.15
54 0.15
55 0.15
56 0.15
57 0.15
58 0.15
6 0.03
62 0.15
63 0.15
64 0.15
65 0.15
7 -0.9
8 -0.62
9 0.45

> <PUBCHEM_EFFECTIVE_ROTOR_COUNT>
7.2

> <PUBCHEM_PHARMACOPHORE_FEATURES>
13
1 4 acceptor
1 5 cation
1 6 cation
1 6 donor
1 7 cation
1 7 donor
1 8 acceptor
5 6 15 17 19 20 rings
6 18 23 24 29 30 32 rings
6 19 20 25 26 27 31 rings
6 5 9 10 11 12 13 rings
6 5 9 14 15 16 17 rings
6 8 28 34 35 36 37 rings

> <PUBCHEM_HEAVY_ATOM_COUNT>
37

> <PUBCHEM_ATOM_DEF_STEREO_COUNT>
4

> <PUBCHEM_ATOM_UDEF_STEREO_COUNT>
0

> <PUBCHEM_BOND_DEF_STEREO_COUNT>
0

> <PUBCHEM_BOND_UDEF_STEREO_COUNT>
0

> <PUBCHEM_ISOTOPIC_ATOM_COUNT>
0

> <PUBCHEM_COMPONENT_COUNT>
1

> <PUBCHEM_CACTVS_TAUTO_COUNT>
1

> <PUBCHEM_CONFORMER_ID>
02AA51C200000001

> <PUBCHEM_MMFF94_ENERGY>
85.1456

> <PUBCHEM_FEATURE_SELFOVERLAP>
66.167

> <PUBCHEM_SHAPE_FINGERPRINT>
10190206 1 18130776885483298461
10290309 65 18264208002659830332
10554248 39 9221222939418223961
10675989 125 18126860291810280232
11136131 41 18263083215180347595
11227688 84 17116916375353934140
11445158 3 17386868264421607597
12107183 9 18336822001953794808
12608794 3 18053408735607337769
12788726 201 18198611319302776094
12988421 55 18334005082357993228
13140716 1 18336831870981213838
13540713 5 18055618544163553309
13560911 23 18196638817814993720
13911987 19 18118662521722820487
14565420 104 18265904566027663208
14659021 117 18126838537404923236
14790565 3 18410858733431460952
15064981 194 17972891533913490692
15219463 3 17826482708220024492
15347590 135 18269295542140950417
15448158 71 18196645203202137297
15684973 49 18200574978488176902
15927050 60 18340495452478883175
16090146 7 18041837445145029654
16114785 44 18341343295838661377
18393751 57 18335432265446540729
19319366 153 18340491053889001161
20505436 4 18202003184110406317
21133665 82 18341338812932047534
21639891 77 17686617257071151526
23522609 53 17678190498185183780
23559900 14 17614569142679842601
244849 19 17537478070108758313
249999 5 18121788218226033416
283562 15 18339636845545251311
3411729 13 18196660583759228753
376196 1 18202290169487784572
4073 2 18264773345927516684
4144715 1 18196097858078173056
4408954 64 15942651027033720730
5171179 24 17344334803314470584
5219985 13 18412270519141361108
563151 40 18343869921861615553
563151 97 18411129226050241157
57527306 92 17843973769982363047
6058803 2 18055052299854691167
6673363 416 17184490144834042716
6695519 79 18053138118423580505
6697151 62 17179387899156489029
9896288 288 18341059596443652027
9981440 41 18335433360609778625

> <PUBCHEM_SHAPE_MULTIPOLES>
715.23
14.61
8.78
1.91
25.81
11.17
0.75
-28.77
-1.89
-1.9
-4.58
-2.2
2.54
-4.19

> <PUBCHEM_SHAPE_SELFOVERLAP>
1581.542

> <PUBCHEM_SHAPE_VOLUME>
383.7

> <PUBCHEM_COORDINATE_TYPE>
2
5
10

$$$$
