11884352
  -OEChem-12032416123D

 41 44  0     1  0  0  0  0  0999 V2000
   -3.7642   -0.9327   -1.1504 O   0  0  0  0  0  0  0  0  0  0  0  0
   -4.8585    1.1788    0.7673 O   0  0  0  0  0  0  0  0  0  0  0  0
   -6.2285   -1.9359   -0.3514 O   0  0  0  0  0  0  0  0  0  0  0  0
   -0.0795    2.0728   -0.7324 O   0  0  0  0  0  0  0  0  0  0  0  0
   -1.2927    0.3625    0.2419 N   0  0  0  0  0  0  0  0  0  0  0  0
    1.0013    0.2944    0.3538 N   0  0  0  0  0  0  0  0  0  0  0  0
   -3.6790    0.3487    0.8397 C   0  0  1  0  0  0  0  0  0  0  0  0
   -4.0569   -0.9980    0.2564 C   0  0  1  0  0  0  0  0  0  0  0  0
   -2.6179    0.8748   -0.1025 C   0  0  2  0  0  0  0  0  0  0  0  0
   -5.5431   -1.0596    0.5143 C   0  0  1  0  0  0  0  0  0  0  0  0
   -3.0685    0.2911   -1.4338 C   0  0  0  0  0  0  0  0  0  0  0  0
   -5.9615    0.3798    0.3148 C   0  0  0  0  0  0  0  0  0  0  0  0
   -0.1038    1.0154   -0.1071 C   0  0  0  0  0  0  0  0  0  0  0  0
    2.3707    0.6161    0.2062 C   0  0  0  0  0  0  0  0  0  0  0  0
    3.3465   -0.3808    0.1327 C   0  0  0  0  0  0  0  0  0  0  0  0
    4.7011    0.0016   -0.0144 C   0  0  0  0  0  0  0  0  0  0  0  0
    2.6978    1.9641    0.1390 C   0  0  0  0  0  0  0  0  0  0  0  0
    3.0215   -1.7455    0.2003 C   0  0  0  0  0  0  0  0  0  0  0  0
    5.0262    1.3662   -0.0823 C   0  0  0  0  0  0  0  0  0  0  0  0
    4.0300    2.3400   -0.0060 C   0  0  0  0  0  0  0  0  0  0  0  0
    5.6909   -0.9919   -0.0896 C   0  0  0  0  0  0  0  0  0  0  0  0
    4.0179   -2.7190    0.1241 C   0  0  0  0  0  0  0  0  0  0  0  0
    5.3501   -2.3430   -0.0205 C   0  0  0  0  0  0  0  0  0  0  0  0
   -3.3701    0.2976    1.8885 H   0  0  0  0  0  0  0  0  0  0  0  0
   -3.5019   -1.8431    0.6735 H   0  0  0  0  0  0  0  0  0  0  0  0
   -2.5754    1.9677   -0.1496 H   0  0  0  0  0  0  0  0  0  0  0  0
   -5.7300   -1.3600    1.5517 H   0  0  0  0  0  0  0  0  0  0  0  0
   -3.7816    0.9591   -1.9294 H   0  0  0  0  0  0  0  0  0  0  0  0
   -2.2493    0.0877   -2.1304 H   0  0  0  0  0  0  0  0  0  0  0  0
   -6.1620    0.6181   -0.7358 H   0  0  0  0  0  0  0  0  0  0  0  0
   -6.8573    0.6340    0.8894 H   0  0  0  0  0  0  0  0  0  0  0  0
   -1.2306   -0.5371    0.7089 H   0  0  0  0  0  0  0  0  0  0  0  0
   -6.0055   -1.6910   -1.2657 H   0  0  0  0  0  0  0  0  0  0  0  0
    0.7864   -0.6420    0.6783 H   0  0  0  0  0  0  0  0  0  0  0  0
    1.9630    2.7560    0.2366 H   0  0  0  0  0  0  0  0  0  0  0  0
    2.0016   -2.1031    0.3018 H   0  0  0  0  0  0  0  0  0  0  0  0
    6.0611    1.6832   -0.1932 H   0  0  0  0  0  0  0  0  0  0  0  0
    4.2965    3.3921   -0.0499 H   0  0  0  0  0  0  0  0  0  0  0  0
    6.7385   -0.7210   -0.2030 H   0  0  0  0  0  0  0  0  0  0  0  0
    3.7538   -3.7714    0.1752 H   0  0  0  0  0  0  0  0  0  0  0  0
    6.1252   -3.1015   -0.0803 H   0  0  0  0  0  0  0  0  0  0  0  0
  1  8  1  0  0  0  0
  1 11  1  0  0  0  0
  2  7  1  0  0  0  0
  2 12  1  0  0  0  0
  3 10  1  0  0  0  0
  3 33  1  0  0  0  0
  4 13  2  0  0  0  0
  5  9  1  0  0  0  0
  5 13  1  0  0  0  0
  5 32  1  0  0  0  0
  6 13  1  0  0  0  0
  6 14  1  0  0  0  0
  6 34  1  0  0  0  0
  7  8  1  0  0  0  0
  7  9  1  0  0  0  0
  7 24  1  0  0  0  0
  8 10  1  0  0  0  0
  8 25  1  0  0  0  0
  9 11  1  0  0  0  0
  9 26  1  0  0  0  0
 10 12  1  0  0  0  0
 10 27  1  0  0  0  0
 11 28  1  0  0  0  0
 11 29  1  0  0  0  0
 12 30  1  0  0  0  0
 12 31  1  0  0  0  0
 14 15  1  0  0  0  0
 14 17  2  0  0  0  0
 15 16  1  0  0  0  0
 15 18  2  0  0  0  0
 16 19  1  0  0  0  0
 16 21  2  0  0  0  0
 17 20  1  0  0  0  0
 17 35  1  0  0  0  0
 18 22  1  0  0  0  0
 18 36  1  0  0  0  0
 19 20  2  0  0  0  0
 19 37  1  0  0  0  0
 20 38  1  0  0  0  0
 21 23  1  0  0  0  0
 21 39  1  0  0  0  0
 22 23  2  0  0  0  0
 22 40  1  0  0  0  0
 23 41  1  0  0  0  0
M  END
> <PUBCHEM_COMPOUND_CID>
11884352

> <PUBCHEM_CONFORMER_RMSD>
0.8

> <PUBCHEM_CONFORMER_DIVERSEORDER>
1
21
14
15
36
4
32
3
20
6
9
28
12
29
5
18
22
34
31
8
7
17
35
24
27
2
13
16
30
26
33
10
25
11
19
23

> <PUBCHEM_MMFF94_PARTIAL_CHARGES>
31
1 -0.56
10 0.28
11 0.28
12 0.28
13 0.69
14 0.12
17 -0.15
18 -0.15
19 -0.15
2 -0.56
20 -0.15
21 -0.15
22 -0.15
23 -0.15
3 -0.68
32 0.37
33 0.4
34 0.37
35 0.15
36 0.15
37 0.15
38 0.15
39 0.15
4 -0.57
40 0.15
41 0.15
5 -0.73
6 -0.55
7 0.28
8 0.28
9 0.3

> <PUBCHEM_EFFECTIVE_ROTOR_COUNT>
5.2

> <PUBCHEM_PHARMACOPHORE_FEATURES>
11
1 1 acceptor
1 2 acceptor
1 3 acceptor
1 3 donor
1 4 acceptor
1 5 donor
1 6 donor
5 1 7 8 9 11 rings
5 2 7 8 10 12 rings
6 14 15 16 17 19 20 rings
6 15 16 18 21 22 23 rings

> <PUBCHEM_HEAVY_ATOM_COUNT>
23

> <PUBCHEM_ATOM_DEF_STEREO_COUNT>
4

> <PUBCHEM_ATOM_UDEF_STEREO_COUNT>
0

> <PUBCHEM_BOND_DEF_STEREO_COUNT>
0

> <PUBCHEM_BOND_UDEF_STEREO_COUNT>
0

> <PUBCHEM_ISOTOPIC_ATOM_COUNT>
0

> <PUBCHEM_COMPONENT_COUNT>
1

> <PUBCHEM_CACTVS_TAUTO_COUNT>
3

> <PUBCHEM_CONFORMER_ID>
00B5574000000001

> <PUBCHEM_MMFF94_ENERGY>
77.2148

> <PUBCHEM_FEATURE_SELFOVERLAP>
56.623

> <PUBCHEM_SHAPE_FINGERPRINT>
10595046 47 18341897428282557897
10670039 82 14851883595952654478
12107183 9 17838346185354282881
12236239 1 18202004339198113449
12516196 113 18342738528718007808
12596602 18 17846781831677547619
12616971 3 17989199352436024548
12633257 1 16415192403735757781
12730499 353 18336833099811690272
12788726 201 17346611750287521160
13073987 5 18343303682158489593
13150687 139 17896906412059822516
13167823 11 18342738511553631347
13402501 40 18260834790863264955
13533116 47 18342177786609761824
13551218 46 18412827984532133319
13685833 64 18334018302514886179
13955234 65 18341887541874510808
14341114 176 18411423903439979609
15183329 4 18410012109251233435
15196674 1 18410575076083706843
15250474 111 18130775806692165551
15537594 2 18201437008388522150
15799311 1 18337969959625798094
15880784 105 18411986870868416323
17492 89 18268147557369611782
17844677 252 18410017610856854669
17857418 61 18341894082307537051
1813 80 17530967981476493972
19427546 62 18119812663010597992
20028762 73 18343300332322057414
20554085 129 15338841920270167879
20645477 70 18334294262864170072
21065198 48 18272375273898892705
21197605 99 18340209720947404674
21267235 1 18341055112882955830
21623969 137 18408889546460386482
220451 1 18271816751961658417
22061861 79 18187078447238963943
221357 26 18261391122366593088
221490 88 18336261237626933036
22224240 67 18339918342524793320
22393880 68 17822561707915393678
22950370 63 18411702075534098593
23522609 53 18121814710091405716
23557571 272 17240197720632439245
23559900 14 18335419109813494008
23569914 152 17179641933539978975
239999 70 18113054948370647184
3004659 81 18260548905397648698
314194 84 18341893038714815083
3421961 26 18411135819067750256
34797466 226 16588032337208065108
351380 3 18342455928433511086
4073 2 18187653560339437674
4214541 1 18411420570883176025
4340502 62 18272080644043860056
46194498 28 17458626769499885220
465052 167 18272092682304479782
5104073 3 18270674265118141600
5281201 14 17894911811060037124
5758199 1 18200028586187660840
6025842 7 18336550516786197348

> <PUBCHEM_SHAPE_MULTIPOLES>
439.89
16.61
2.48
0.84
11.37
0.54
-0.15
6.35
0.76
-3.28
-0.05
0.78
-0.03
-0.27

> <PUBCHEM_SHAPE_SELFOVERLAP>
967.716

> <PUBCHEM_SHAPE_VOLUME>
237.8

> <PUBCHEM_COORDINATE_TYPE>
2
5
10

$$$$
