75537008
  -OEChem-12032416313D

 42 44  0     1  0  0  0  0  0999 V2000
    0.8330   -2.6278   -0.0617 O   0  0  0  0  0  0  0  0  0  0  0  0
   -5.5566    0.1284    0.0860 O   0  0  0  0  0  0  0  0  0  0  0  0
    1.2650   -0.3172    0.1265 N   0  0  0  0  0  0  0  0  0  0  0  0
   -0.8660   -1.0262    0.1996 N   0  0  0  0  0  0  0  0  0  0  0  0
   -3.2740    0.2686   -0.3182 N   0  0  0  0  0  0  0  0  0  0  0  0
   -0.9464    0.4009    0.4571 C   0  0  1  0  0  0  0  0  0  0  0  0
    2.7012   -0.2865   -0.0085 C   0  0  0  0  0  0  0  0  0  0  0  0
    0.4727    0.8983    0.1934 C   0  0  0  0  0  0  0  0  0  0  0  0
    3.1130    0.5368   -1.2318 C   0  0  0  0  0  0  0  0  0  0  0  0
    3.3488    0.2527    1.2693 C   0  0  0  0  0  0  0  0  0  0  0  0
   -2.0208    1.0403   -0.4187 C   0  0  0  0  0  0  0  0  0  0  0  0
    0.4576   -1.4708    0.0747 C   0  0  0  0  0  0  0  0  0  0  0  0
   -2.0760   -1.8284    0.2018 C   0  0  0  0  0  0  0  0  0  0  0  0
    4.6312    0.6277   -1.3628 C   0  0  0  0  0  0  0  0  0  0  0  0
    4.8665    0.3457    1.1350 C   0  0  0  0  0  0  0  0  0  0  0  0
    5.2747    1.1635   -0.0871 C   0  0  0  0  0  0  0  0  0  0  0  0
   -3.1458   -1.1572   -0.6561 C   0  0  0  0  0  0  0  0  0  0  0  0
   -4.5173    0.7908    0.0335 C   0  0  0  0  0  0  0  0  0  0  0  0
   -4.5608    2.2604    0.3679 C   0  0  0  0  0  0  0  0  0  0  0  0
   -1.2020    0.5150    1.5183 H   0  0  0  0  0  0  0  0  0  0  0  0
    3.0452   -1.3184   -0.1558 H   0  0  0  0  0  0  0  0  0  0  0  0
    0.5410    1.4236   -0.7640 H   0  0  0  0  0  0  0  0  0  0  0  0
    0.8198    1.5535    0.9961 H   0  0  0  0  0  0  0  0  0  0  0  0
    2.7199    1.5585   -1.1660 H   0  0  0  0  0  0  0  0  0  0  0  0
    2.6901    0.0961   -2.1428 H   0  0  0  0  0  0  0  0  0  0  0  0
    3.0944   -0.3920    2.1196 H   0  0  0  0  0  0  0  0  0  0  0  0
    2.9626    1.2502    1.5109 H   0  0  0  0  0  0  0  0  0  0  0  0
   -2.1535    2.0877   -0.1419 H   0  0  0  0  0  0  0  0  0  0  0  0
   -1.7301    1.0168   -1.4764 H   0  0  0  0  0  0  0  0  0  0  0  0
   -1.8535   -2.8386   -0.1550 H   0  0  0  0  0  0  0  0  0  0  0  0
   -2.4102   -1.8983    1.2431 H   0  0  0  0  0  0  0  0  0  0  0  0
    4.8907    1.2764   -2.2071 H   0  0  0  0  0  0  0  0  0  0  0  0
    5.0378   -0.3661   -1.5871 H   0  0  0  0  0  0  0  0  0  0  0  0
    5.2876   -0.6641    1.0553 H   0  0  0  0  0  0  0  0  0  0  0  0
    5.2900    0.7973    2.0392 H   0  0  0  0  0  0  0  0  0  0  0  0
    6.3654    1.1517   -0.1911 H   0  0  0  0  0  0  0  0  0  0  0  0
    4.9786    2.2097    0.0590 H   0  0  0  0  0  0  0  0  0  0  0  0
   -2.8679   -1.2065   -1.7158 H   0  0  0  0  0  0  0  0  0  0  0  0
   -4.1010   -1.6782   -0.5398 H   0  0  0  0  0  0  0  0  0  0  0  0
   -5.5841    2.5431    0.6335 H   0  0  0  0  0  0  0  0  0  0  0  0
   -4.2569    2.8543   -0.4982 H   0  0  0  0  0  0  0  0  0  0  0  0
   -3.9156    2.4724    1.2246 H   0  0  0  0  0  0  0  0  0  0  0  0
  1 12  2  0  0  0  0
  2 18  2  0  0  0  0
  3  7  1  0  0  0  0
  3  8  1  0  0  0  0
  3 12  1  0  0  0  0
  4  6  1  0  0  0  0
  4 12  1  0  0  0  0
  4 13  1  0  0  0  0
  5 11  1  0  0  0  0
  5 17  1  0  0  0  0
  5 18  1  0  0  0  0
  6  8  1  0  0  0  0
  6 11  1  0  0  0  0
  6 20  1  0  0  0  0
  7  9  1  0  0  0  0
  7 10  1  0  0  0  0
  7 21  1  0  0  0  0
  8 22  1  0  0  0  0
  8 23  1  0  0  0  0
  9 14  1  0  0  0  0
  9 24  1  0  0  0  0
  9 25  1  0  0  0  0
 10 15  1  0  0  0  0
 10 26  1  0  0  0  0
 10 27  1  0  0  0  0
 11 28  1  0  0  0  0
 11 29  1  0  0  0  0
 13 17  1  0  0  0  0
 13 30  1  0  0  0  0
 13 31  1  0  0  0  0
 14 16  1  0  0  0  0
 14 32  1  0  0  0  0
 14 33  1  0  0  0  0
 15 16  1  0  0  0  0
 15 34  1  0  0  0  0
 15 35  1  0  0  0  0
 16 36  1  0  0  0  0
 16 37  1  0  0  0  0
 17 38  1  0  0  0  0
 17 39  1  0  0  0  0
 18 19  1  0  0  0  0
 19 40  1  0  0  0  0
 19 41  1  0  0  0  0
 19 42  1  0  0  0  0
M  END
> <PUBCHEM_COMPOUND_CID>
75537008

> <PUBCHEM_CONFORMER_RMSD>
0.6

> <PUBCHEM_CONFORMER_DIVERSEORDER>
1
36
48
27
31
41
38
42
39
30
47
32
40
12
37
5
45
22
35
10
19
4
17
9
33
6
3
34
15
14
20
23
43
18
29
25
46
8
28
7
21
2
44
13
16
24
26
11

> <PUBCHEM_MMFF94_PARTIAL_CHARGES>
14
1 -0.57
11 0.3
12 0.69
13 0.3
17 0.3
18 0.57
19 0.06
2 -0.57
3 -0.66
4 -0.66
5 -0.66
6 0.3
7 0.3
8 0.3

> <PUBCHEM_EFFECTIVE_ROTOR_COUNT>
4.4

> <PUBCHEM_PHARMACOPHORE_FEATURES>
5
1 1 acceptor
1 2 acceptor
5 3 4 6 8 12 rings
6 4 5 6 11 13 17 rings
6 7 9 10 14 15 16 rings

> <PUBCHEM_HEAVY_ATOM_COUNT>
19

> <PUBCHEM_ATOM_DEF_STEREO_COUNT>
1

> <PUBCHEM_ATOM_UDEF_STEREO_COUNT>
0

> <PUBCHEM_BOND_DEF_STEREO_COUNT>
0

> <PUBCHEM_BOND_UDEF_STEREO_COUNT>
0

> <PUBCHEM_ISOTOPIC_ATOM_COUNT>
0

> <PUBCHEM_COMPONENT_COUNT>
1

> <PUBCHEM_CACTVS_TAUTO_COUNT>
1

> <PUBCHEM_CONFORMER_ID>
04809A7000000001

> <PUBCHEM_MMFF94_ENERGY>
33.7186

> <PUBCHEM_FEATURE_SELFOVERLAP>
25.471

> <PUBCHEM_SHAPE_FINGERPRINT>
10354089 29 17094962156515545172
11543360 7 15554437526707503025
12236239 1 17894628188958042864
12390115 104 18058460816018360689
12403814 3 17603580820807969973
12596602 18 16877944953366034249
12616971 3 17458338659083252164
12788726 201 17536324978664335050
12892183 10 14779258687941820116
12916748 109 18341617009967820865
12969540 114 17489860527564241101
13140716 1 18263924509031951713
13675066 3 13551187792606559206
14341114 328 17530684320424440464
14573314 32 17489874821125841464
14790565 3 18409738356484042981
15196674 1 18339360764968433675
15375358 24 17917992784592735452
1601671 61 18408886226408449060
1813 80 11455895784297608386
18186145 218 17703795846549511186
19784866 170 18334861597615314027
19784866 9 18333726892951804826
200 152 13901912202030847984
20645477 56 18342457054073274953
20645477 70 16056607521444540908
23366157 5 17971192526012680450
23402539 116 18272363209425169196
23402655 69 18201435835952140165
23557571 272 18059580255571398086
23559900 14 18272657853156581926
2916195 48 18059284465779991400
293599 30 18342741776261857553
3472631 163 18262807392755417820
34797466 226 17418097666977661828
34934 24 18342732988621379479
3545911 37 18409169904903582854
4340502 62 16732990791158328745
474 4 17967256394411412320
5104073 3 18264492785134905515
542803 24 18040998444769316824
59682541 52 16988281945924742925
59755656 215 18341055104103110782
633830 44 18186803582428327454
8272917 22 17313380098439503226
8863177 126 11742680337499256861

> <PUBCHEM_SHAPE_MULTIPOLES>
364.33
11.56
1.88
1.01
0.07
0.62
0.06
-5.66
0.1
-1.53
-0.04
1.24
-0.15
-0.44

> <PUBCHEM_SHAPE_SELFOVERLAP>
752.908

> <PUBCHEM_SHAPE_VOLUME>
207.3

> <PUBCHEM_COORDINATE_TYPE>
2
5
10

$$$$
