11883096
  -OEChem-12032416133D

 79 83  0     1  0  0  0  0  0999 V2000
   -1.3928    3.2972    0.2000 S   0  0  0  0  0  0  0  0  0  0  0  0
   -7.3689   -1.6611   -0.9531 O   0  0  0  0  0  0  0  0  0  0  0  0
   -7.8461    0.2131    0.4625 O   0  0  0  0  0  0  0  0  0  0  0  0
    0.7059   -1.4618   -1.0214 O   0  0  0  0  0  0  0  0  0  0  0  0
    2.9147    1.5566    0.2822 O   0  0  0  0  0  0  0  0  0  0  0  0
    7.5190   -2.2173   -0.9315 O   0  0  0  0  0  0  0  0  0  0  0  0
    0.0012    1.1180    0.1757 N   0  0  0  0  0  0  0  0  0  0  0  0
    1.2968   -2.7034    0.8523 N   0  0  0  0  0  0  0  0  0  0  0  0
    1.2259    3.1912    0.2823 N   0  0  0  0  0  0  0  0  0  0  0  0
    4.9811   -2.6389    0.2861 N   0  0  0  0  0  0  0  0  0  0  0  0
   -3.3077   -0.8479    0.4087 C   0  0  2  0  0  0  0  0  0  0  0  0
   -4.1173    0.2664   -0.3901 C   0  0  1  0  0  0  0  0  0  0  0  0
   -5.6755    0.0614   -0.5238 C   0  0  1  0  0  0  0  0  0  0  0  0
   -1.7591   -0.6846    0.0499 C   0  0  1  0  0  0  0  0  0  0  0  0
   -3.7710   -2.2535   -0.0545 C   0  0  0  0  0  0  0  0  0  0  0  0
   -5.9645   -1.4062   -0.9485 C   0  0  1  0  0  0  0  0  0  0  0  0
   -3.7100    1.6991    0.0619 C   0  0  0  0  0  0  0  0  0  0  0  0
   -5.2821   -2.4359   -0.0548 C   0  0  0  0  0  0  0  0  0  0  0  0
   -3.4947   -0.7435    1.9425 C   0  0  0  0  0  0  0  0  0  0  0  0
   -1.3333    0.7589    0.1317 C   0  0  0  0  0  0  0  0  0  0  0  0
   -6.4820    0.4384    0.7386 C   0  0  0  0  0  0  0  0  0  0  0  0
   -6.2131    0.9842   -1.6541 C   0  0  0  0  0  0  0  0  0  0  0  0
   -2.2239    1.8130    0.1173 C   0  0  0  0  0  0  0  0  0  0  0  0
   -0.8190   -1.5940    0.8525 C   0  0  0  0  0  0  0  0  0  0  0  0
    0.4592   -1.8903    0.1028 C   0  0  0  0  0  0  0  0  0  0  0  0
    0.0891    2.4296    0.2214 C   0  0  0  0  0  0  0  0  0  0  0  0
    3.5878    3.8814    0.3851 C   0  0  0  0  0  0  0  0  0  0  0  0
    2.5563    2.7367    0.3095 C   0  0  0  0  0  0  0  0  0  0  0  0
    2.5886   -3.1511    0.3845 C   0  0  0  0  0  0  0  0  0  0  0  0
    3.7441    4.7790   -0.8600 C   0  0  0  0  0  0  0  0  0  0  0  0
    5.0750    3.5101    0.2097 C   0  0  0  0  0  0  0  0  0  0  0  0
    5.2466    4.8596   -0.5186 C   0  0  0  0  0  0  0  0  0  0  0  0
    3.6859   -2.1728    0.7770 C   0  0  0  0  0  0  0  0  0  0  0  0
    6.0798   -1.9816    1.0075 C   0  0  0  0  0  0  0  0  0  0  0  0
    5.1103   -2.3962   -1.1573 C   0  0  0  0  0  0  0  0  0  0  0  0
    7.4205   -2.4741    0.4698 C   0  0  0  0  0  0  0  0  0  0  0  0
    6.4734   -2.8799   -1.6436 C   0  0  0  0  0  0  0  0  0  0  0  0
   -3.7462    0.1717   -1.4255 H   0  0  0  0  0  0  0  0  0  0  0  0
   -1.6720   -0.9472   -1.0152 H   0  0  0  0  0  0  0  0  0  0  0  0
   -3.4045   -2.4442   -1.0719 H   0  0  0  0  0  0  0  0  0  0  0  0
   -3.3360   -3.0354    0.5781 H   0  0  0  0  0  0  0  0  0  0  0  0
   -5.6147   -1.5542   -1.9788 H   0  0  0  0  0  0  0  0  0  0  0  0
   -4.1016    2.4416   -0.6415 H   0  0  0  0  0  0  0  0  0  0  0  0
   -4.1229    1.9304    1.0494 H   0  0  0  0  0  0  0  0  0  0  0  0
   -5.5218   -3.4442   -0.4166 H   0  0  0  0  0  0  0  0  0  0  0  0
   -5.6884   -2.3973    0.9620 H   0  0  0  0  0  0  0  0  0  0  0  0
   -3.1828    0.2268    2.3387 H   0  0  0  0  0  0  0  0  0  0  0  0
   -4.5214   -0.9155    2.2588 H   0  0  0  0  0  0  0  0  0  0  0  0
   -2.9039   -1.5031    2.4662 H   0  0  0  0  0  0  0  0  0  0  0  0
   -6.3555    1.4927    1.0027 H   0  0  0  0  0  0  0  0  0  0  0  0
   -6.2263   -0.1673    1.6042 H   0  0  0  0  0  0  0  0  0  0  0  0
   -5.6293    0.8591   -2.5734 H   0  0  0  0  0  0  0  0  0  0  0  0
   -6.1668    2.0417   -1.3736 H   0  0  0  0  0  0  0  0  0  0  0  0
   -7.2557    0.7660   -1.9112 H   0  0  0  0  0  0  0  0  0  0  0  0
   -1.2835   -2.5652    1.0504 H   0  0  0  0  0  0  0  0  0  0  0  0
   -0.5624   -1.1448    1.8203 H   0  0  0  0  0  0  0  0  0  0  0  0
   -7.5023   -2.5713   -1.2681 H   0  0  0  0  0  0  0  0  0  0  0  0
   -8.3478    0.4617    1.2574 H   0  0  0  0  0  0  0  0  0  0  0  0
    1.0035   -2.9988    1.7791 H   0  0  0  0  0  0  0  0  0  0  0  0
    1.0691    4.1954    0.3109 H   0  0  0  0  0  0  0  0  0  0  0  0
    3.4347    4.4768    1.2987 H   0  0  0  0  0  0  0  0  0  0  0  0
    2.7686   -4.1345    0.8334 H   0  0  0  0  0  0  0  0  0  0  0  0
    2.5191   -3.2839   -0.6989 H   0  0  0  0  0  0  0  0  0  0  0  0
    3.2051    5.7296   -0.8320 H   0  0  0  0  0  0  0  0  0  0  0  0
    3.5325    4.2764   -1.8110 H   0  0  0  0  0  0  0  0  0  0  0  0
    5.2627    2.6415   -0.4322 H   0  0  0  0  0  0  0  0  0  0  0  0
    5.6497    3.3995    1.1330 H   0  0  0  0  0  0  0  0  0  0  0  0
    5.5049    5.6916    0.1465 H   0  0  0  0  0  0  0  0  0  0  0  0
    5.9296    4.8574   -1.3715 H   0  0  0  0  0  0  0  0  0  0  0  0
    3.4589   -1.1596    0.4220 H   0  0  0  0  0  0  0  0  0  0  0  0
    3.6971   -2.1163    1.8740 H   0  0  0  0  0  0  0  0  0  0  0  0
    6.0249   -2.2095    2.0782 H   0  0  0  0  0  0  0  0  0  0  0  0
    6.0143   -0.8924    0.8868 H   0  0  0  0  0  0  0  0  0  0  0  0
    5.0088   -1.3245   -1.3740 H   0  0  0  0  0  0  0  0  0  0  0  0
    4.3448   -2.9300   -1.7280 H   0  0  0  0  0  0  0  0  0  0  0  0
    7.5625   -3.5455    0.6566 H   0  0  0  0  0  0  0  0  0  0  0  0
    8.2388   -1.9407    0.9641 H   0  0  0  0  0  0  0  0  0  0  0  0
    6.5827   -3.9653   -1.5291 H   0  0  0  0  0  0  0  0  0  0  0  0
    6.5951   -2.6451   -2.7060 H   0  0  0  0  0  0  0  0  0  0  0  0
  1 23  1  0  0  0  0
  1 26  1  0  0  0  0
  2 16  1  0  0  0  0
  2 57  1  0  0  0  0
  3 21  1  0  0  0  0
  3 58  1  0  0  0  0
  4 25  2  0  0  0  0
  5 28  2  0  0  0  0
  6 36  1  0  0  0  0
  6 37  1  0  0  0  0
  7 20  1  0  0  0  0
  7 26  2  0  0  0  0
  8 25  1  0  0  0  0
  8 29  1  0  0  0  0
  8 59  1  0  0  0  0
  9 26  1  0  0  0  0
  9 28  1  0  0  0  0
  9 60  1  0  0  0  0
 10 33  1  0  0  0  0
 10 34  1  0  0  0  0
 10 35  1  0  0  0  0
 11 12  1  0  0  0  0
 11 14  1  0  0  0  0
 11 15  1  0  0  0  0
 11 19  1  0  0  0  0
 12 13  1  0  0  0  0
 12 17  1  0  0  0  0
 12 38  1  0  0  0  0
 13 16  1  0  0  0  0
 13 21  1  0  0  0  0
 13 22  1  0  0  0  0
 14 20  1  0  0  0  0
 14 24  1  0  0  0  0
 14 39  1  0  0  0  0
 15 18  1  0  0  0  0
 15 40  1  0  0  0  0
 15 41  1  0  0  0  0
 16 18  1  0  0  0  0
 16 42  1  0  0  0  0
 17 23  1  0  0  0  0
 17 43  1  0  0  0  0
 17 44  1  0  0  0  0
 18 45  1  0  0  0  0
 18 46  1  0  0  0  0
 19 47  1  0  0  0  0
 19 48  1  0  0  0  0
 19 49  1  0  0  0  0
 20 23  2  0  0  0  0
 21 50  1  0  0  0  0
 21 51  1  0  0  0  0
 22 52  1  0  0  0  0
 22 53  1  0  0  0  0
 22 54  1  0  0  0  0
 24 25  1  0  0  0  0
 24 55  1  0  0  0  0
 24 56  1  0  0  0  0
 27 28  1  0  0  0  0
 27 30  1  0  0  0  0
 27 31  1  0  0  0  0
 27 61  1  0  0  0  0
 29 33  1  0  0  0  0
 29 62  1  0  0  0  0
 29 63  1  0  0  0  0
 30 32  1  0  0  0  0
 30 64  1  0  0  0  0
 30 65  1  0  0  0  0
 31 32  1  0  0  0  0
 31 66  1  0  0  0  0
 31 67  1  0  0  0  0
 32 68  1  0  0  0  0
 32 69  1  0  0  0  0
 33 70  1  0  0  0  0
 33 71  1  0  0  0  0
 34 36  1  0  0  0  0
 34 72  1  0  0  0  0
 34 73  1  0  0  0  0
 35 37  1  0  0  0  0
 35 74  1  0  0  0  0
 35 75  1  0  0  0  0
 36 76  1  0  0  0  0
 36 77  1  0  0  0  0
 37 78  1  0  0  0  0
 37 79  1  0  0  0  0
M  END
> <PUBCHEM_COMPOUND_CID>
11883096

> <PUBCHEM_CONFORMER_RMSD>
1.2

> <PUBCHEM_CONFORMER_DIVERSEORDER>
1
8
12
15
7
9
18
11
2
6
19
13
16
3
10
17
14
4
5

> <PUBCHEM_MMFF94_PARTIAL_CHARGES>
31
1 -0.08
10 -0.81
14 0.18
16 0.28
17 0.18
2 -0.68
20 0.05
21 0.28
23 -0.14
24 0.06
25 0.57
26 0.44
27 0.05
28 0.58
29 0.3
3 -0.68
33 0.27
34 0.27
35 0.27
36 0.28
37 0.28
4 -0.57
5 -0.57
57 0.4
58 0.4
59 0.37
6 -0.56
60 0.37
7 -0.57
8 -0.73
9 -0.49

> <PUBCHEM_EFFECTIVE_ROTOR_COUNT>
13.2

> <PUBCHEM_PHARMACOPHORE_FEATURES>
15
1 10 cation
1 2 acceptor
1 2 donor
1 3 acceptor
1 3 donor
1 4 acceptor
1 5 acceptor
1 6 acceptor
1 8 donor
1 9 donor
4 27 30 31 32 rings
5 1 7 20 23 26 rings
6 11 12 13 15 16 18 rings
6 11 12 14 17 20 23 rings
6 6 10 34 35 36 37 rings

> <PUBCHEM_HEAVY_ATOM_COUNT>
37

> <PUBCHEM_ATOM_DEF_STEREO_COUNT>
5

> <PUBCHEM_ATOM_UDEF_STEREO_COUNT>
0

> <PUBCHEM_BOND_DEF_STEREO_COUNT>
0

> <PUBCHEM_BOND_UDEF_STEREO_COUNT>
0

> <PUBCHEM_ISOTOPIC_ATOM_COUNT>
0

> <PUBCHEM_COMPONENT_COUNT>
1

> <PUBCHEM_CACTVS_TAUTO_COUNT>
6

> <PUBCHEM_CONFORMER_ID>
00B5525800000001

> <PUBCHEM_MMFF94_ENERGY>
98.5887

> <PUBCHEM_FEATURE_SELFOVERLAP>
76.269

> <PUBCHEM_SHAPE_FINGERPRINT>
10050765 1 18337954614351357739
10290309 65 17904775719094333232
11135926 11 18337946913585837373
11578080 2 17460564036791052189
11621639 179 17535736405521380773
12107698 1 18340768156894810066
12522641 126 18335143137507495892
12677640 9 18126005966727947448
12857493 111 18340484456883103204
12977781 61 17678191579287022426
14068700 675 18339923719290668936
14117953 113 18272365322723496735
14790565 3 18048314732886122497
15001296 14 18335132141636811258
15264996 44 18272657879042612380
15351339 4 18335428959460406576
15400415 2 17833270105479327216
15444296 7 17988351655500604678
15927050 60 18051693536423392422
16067689 134 17907582424013596057
16067689 302 18266742579405441943
16087824 20 18122342377658474117
17627616 140 18194122039328355478
18738133 686 18338778088858139424
20609170 92 18187631527542740565
20721686 56 18408603677742428506
20771845 165 18113890594166794957
20771845 171 18042124430417516717
21057603 95 18268160777147912161
21344244 246 18266734861026756191
21360443 120 18191869139956271356
21781055 127 16701477697496661387
22311459 1 18337954493475478322
23559900 14 18410845543550101915
24771750 20 18263372528593498084
335352 9 18338790102123914399
6669772 16 18267024041095791708
99344 41 18337948008406923848
9961470 85 18265894847207112688

> <PUBCHEM_SHAPE_MULTIPOLES>
716.02
20.01
6.23
1.16
0.06
6.32
0.12
-10.52
4.35
-14.37
0.58
0.06
-0.49
0.16

> <PUBCHEM_SHAPE_SELFOVERLAP>
1490.236

> <PUBCHEM_SHAPE_VOLUME>
410.9

> <PUBCHEM_COORDINATE_TYPE>
2
5
10

$$$$
