45360564
  -OEChem-12032416193D

 52 55  0     1  0  0  0  0  0999 V2000
   -1.6959   -1.5199   -1.5358 O   0  0  0  0  0  0  0  0  0  0  0  0
   -3.2518   -2.6178   -0.2124 O   0  0  0  0  0  0  0  0  0  0  0  0
   -1.7769   -2.1917    2.2156 O   0  0  0  0  0  0  0  0  0  0  0  0
    3.8997   -1.9973   -0.8896 O   0  0  0  0  0  0  0  0  0  0  0  0
   -1.8987    0.8098    0.1586 N   0  0  0  0  0  0  0  0  0  0  0  0
    0.8446   -1.2275   -0.1404 N   0  0  0  0  0  0  0  0  0  0  0  0
   -2.2915    3.6553   -0.1682 N   0  0  0  0  0  0  0  0  0  0  0  0
   -2.3296   -0.5247    0.5705 C   0  0  2  0  0  0  0  0  0  0  0  0
   -1.1819   -1.2739    1.2865 C   0  0  2  0  0  0  0  0  0  0  0  0
   -0.2604   -2.0699    0.3302 C   0  0  1  0  0  0  0  0  0  0  0  0
   -1.0145   -2.6105   -0.9064 C   0  0  1  0  0  0  0  0  0  0  0  0
   -2.8106   -1.3237   -0.6552 C   0  0  1  0  0  0  0  0  0  0  0  0
   -2.1890   -3.5128   -0.5734 C   0  0  0  0  0  0  0  0  0  0  0  0
   -1.8575    1.7223    1.3078 C   0  0  0  0  0  0  0  0  0  0  0  0
   -2.7798    1.3425   -0.8878 C   0  0  0  0  0  0  0  0  0  0  0  0
   -1.4087    3.1228    0.8768 C   0  0  0  0  0  0  0  0  0  0  0  0
   -2.3320    2.7435   -1.3180 C   0  0  0  0  0  0  0  0  0  0  0  0
    1.8537   -1.0851    0.8949 C   0  0  0  0  0  0  0  0  0  0  0  0
   -1.8625    4.9906   -0.5795 C   0  0  0  0  0  0  0  0  0  0  0  0
    3.0006   -0.2201    0.4445 C   0  0  0  0  0  0  0  0  0  0  0  0
    3.9695   -0.7176   -0.4269 C   0  0  0  0  0  0  0  0  0  0  0  0
    3.0883    1.0922    0.9090 C   0  0  0  0  0  0  0  0  0  0  0  0
    5.0260    0.0971   -0.8337 C   0  0  0  0  0  0  0  0  0  0  0  0
    4.1449    1.9070    0.5021 C   0  0  0  0  0  0  0  0  0  0  0  0
    5.1138    1.4095   -0.3693 C   0  0  0  0  0  0  0  0  0  0  0  0
   -3.1876   -0.4551    1.2552 H   0  0  0  0  0  0  0  0  0  0  0  0
   -0.6133   -0.6015    1.9294 H   0  0  0  0  0  0  0  0  0  0  0  0
    0.1493   -2.9476    0.8483 H   0  0  0  0  0  0  0  0  0  0  0  0
   -0.3266   -3.0892   -1.6117 H   0  0  0  0  0  0  0  0  0  0  0  0
   -3.6619   -0.8951   -1.1893 H   0  0  0  0  0  0  0  0  0  0  0  0
   -1.9921   -4.2244    0.2329 H   0  0  0  0  0  0  0  0  0  0  0  0
   -2.5220   -4.0635   -1.4597 H   0  0  0  0  0  0  0  0  0  0  0  0
   -2.8431    1.7901    1.7889 H   0  0  0  0  0  0  0  0  0  0  0  0
   -1.1515    1.3799    2.0705 H   0  0  0  0  0  0  0  0  0  0  0  0
   -2.7231    0.7675   -1.8169 H   0  0  0  0  0  0  0  0  0  0  0  0
   -3.8259    1.3769   -0.5544 H   0  0  0  0  0  0  0  0  0  0  0  0
    0.4852   -0.3122   -0.4116 H   0  0  0  0  0  0  0  0  0  0  0  0
   -1.4371    3.7796    1.7547 H   0  0  0  0  0  0  0  0  0  0  0  0
   -0.3670    3.0858    0.5297 H   0  0  0  0  0  0  0  0  0  0  0  0
   -3.0427    3.1206   -2.0637 H   0  0  0  0  0  0  0  0  0  0  0  0
   -1.3484    2.6849   -1.8045 H   0  0  0  0  0  0  0  0  0  0  0  0
   -1.0556   -2.6186    2.7088 H   0  0  0  0  0  0  0  0  0  0  0  0
    1.4451   -0.6621    1.8188 H   0  0  0  0  0  0  0  0  0  0  0  0
    2.2573   -2.0672    1.1755 H   0  0  0  0  0  0  0  0  0  0  0  0
   -0.8520    4.9894   -1.0041 H   0  0  0  0  0  0  0  0  0  0  0  0
   -2.5500    5.4019   -1.3269 H   0  0  0  0  0  0  0  0  0  0  0  0
   -1.8772    5.6785    0.2731 H   0  0  0  0  0  0  0  0  0  0  0  0
    2.3392    1.4958    1.5851 H   0  0  0  0  0  0  0  0  0  0  0  0
    5.7879   -0.2774   -1.5122 H   0  0  0  0  0  0  0  0  0  0  0  0
    4.2126    2.9291    0.8629 H   0  0  0  0  0  0  0  0  0  0  0  0
    5.9363    2.0440   -0.6862 H   0  0  0  0  0  0  0  0  0  0  0  0
    4.6547   -2.1631   -1.4799 H   0  0  0  0  0  0  0  0  0  0  0  0
  1 11  1  0  0  0  0
  1 12  1  0  0  0  0
  2 12  1  0  0  0  0
  2 13  1  0  0  0  0
  3  9  1  0  0  0  0
  3 42  1  0  0  0  0
  4 21  1  0  0  0  0
  4 52  1  0  0  0  0
  5  8  1  0  0  0  0
  5 14  1  0  0  0  0
  5 15  1  0  0  0  0
  6 10  1  0  0  0  0
  6 18  1  0  0  0  0
  6 37  1  0  0  0  0
  7 16  1  0  0  0  0
  7 17  1  0  0  0  0
  7 19  1  0  0  0  0
  8  9  1  0  0  0  0
  8 12  1  0  0  0  0
  8 26  1  0  0  0  0
  9 10  1  0  0  0  0
  9 27  1  0  0  0  0
 10 11  1  0  0  0  0
 10 28  1  0  0  0  0
 11 13  1  0  0  0  0
 11 29  1  0  0  0  0
 12 30  1  0  0  0  0
 13 31  1  0  0  0  0
 13 32  1  0  0  0  0
 14 16  1  0  0  0  0
 14 33  1  0  0  0  0
 14 34  1  0  0  0  0
 15 17  1  0  0  0  0
 15 35  1  0  0  0  0
 15 36  1  0  0  0  0
 16 38  1  0  0  0  0
 16 39  1  0  0  0  0
 17 40  1  0  0  0  0
 17 41  1  0  0  0  0
 18 20  1  0  0  0  0
 18 43  1  0  0  0  0
 18 44  1  0  0  0  0
 19 45  1  0  0  0  0
 19 46  1  0  0  0  0
 19 47  1  0  0  0  0
 20 21  1  0  0  0  0
 20 22  2  0  0  0  0
 21 23  2  0  0  0  0
 22 24  1  0  0  0  0
 22 48  1  0  0  0  0
 23 25  1  0  0  0  0
 23 49  1  0  0  0  0
 24 25  2  0  0  0  0
 24 50  1  0  0  0  0
 25 51  1  0  0  0  0
M  END
> <PUBCHEM_COMPOUND_CID>
45360564

> <PUBCHEM_CONFORMER_RMSD>
0.8

> <PUBCHEM_CONFORMER_DIVERSEORDER>
1
37
51
25
76
49
81
72
28
62
40
69
32
13
66
75
86
16
78
38
34
24
18
58
46
23
63
83
33
7
9
57
71
6
12
52
43
70
31
42
55
89
20
80
77
41
22
2
59
45
73
35
5
29
8
48
39
47
56
60
26
30
74
61
10
82
17
54
65
21
15
27
4
36
50
84
11
79
64
68
87
3
85
14
88
67
19
44
53

> <PUBCHEM_MMFF94_PARTIAL_CHARGES>
32
1 -0.56
10 0.27
11 0.28
12 0.56
13 0.28
14 0.27
15 0.27
16 0.27
17 0.27
18 0.41
19 0.27
2 -0.56
20 -0.14
21 0.08
22 -0.15
23 -0.15
24 -0.15
25 -0.15
3 -0.68
37 0.36
4 -0.53
42 0.4
48 0.15
49 0.15
5 -0.81
50 0.15
51 0.15
52 0.45
6 -0.9
7 -0.81
8 0.27
9 0.28

> <PUBCHEM_EFFECTIVE_ROTOR_COUNT>
6.4

> <PUBCHEM_PHARMACOPHORE_FEATURES>
12
1 1 acceptor
1 2 acceptor
1 3 acceptor
1 3 donor
1 4 donor
1 5 cation
1 6 cation
1 6 donor
1 7 cation
6 20 21 22 23 24 25 rings
6 5 7 14 15 16 17 rings
8 1 2 8 9 10 11 12 13 rings

> <PUBCHEM_HEAVY_ATOM_COUNT>
25

> <PUBCHEM_ATOM_DEF_STEREO_COUNT>
5

> <PUBCHEM_ATOM_UDEF_STEREO_COUNT>
0

> <PUBCHEM_BOND_DEF_STEREO_COUNT>
0

> <PUBCHEM_BOND_UDEF_STEREO_COUNT>
0

> <PUBCHEM_ISOTOPIC_ATOM_COUNT>
0

> <PUBCHEM_COMPONENT_COUNT>
1

> <PUBCHEM_CACTVS_TAUTO_COUNT>
3

> <PUBCHEM_CONFORMER_ID>
02B425B400000001

> <PUBCHEM_MMFF94_ENERGY>
72.3436

> <PUBCHEM_FEATURE_SELFOVERLAP>
60.947

> <PUBCHEM_SHAPE_FINGERPRINT>
10006869 2 18189331278483136435
10498660 4 18338507638255043048
10670039 82 18119544365157368244
10871710 139 18336551615411536620
10937287 8 18049996697486257389
11045515 52 18122618620335948063
11221954 11 18122067498511171049
12173636 292 18339350873226052863
12788726 201 18261380183121592969
138480 1 16466144511074750445
13944108 23 16678379964121086420
14142880 1 18040990722502300821
14251751 93 18338235964509714024
14363568 33 17181112435578431024
14790565 3 18270400474038857297
14955137 171 18193572283731349771
151778 21 17761776161104841592
15961568 22 17906444786477909888
17492 54 18264747944941990741
19930381 70 17402042795683194412
21033650 10 18191049892651267494
21524375 3 17974003951437507523
21864079 5 18187081720262447856
22440779 20 17104874258209799602
22907989 373 18342449327216327429
23352939 185 17986390216550344019
238 59 17690273811922521281
26353 1 17338678945707659391
469060 322 18193007121088543067
474 4 17403167102595253993
497634 4 17345491442723496370
5048184 11 18265332798759746312
531348 171 18411707548235290846
5364581 5 7853279862804220854
7399639 24 17914885672681965730

> <PUBCHEM_SHAPE_MULTIPOLES>
476.07
8.32
5.22
1.37
13.83
4.65
0.29
1.56
-1.74
-6.1
-0.93
-0.57
-0.22
0.59

> <PUBCHEM_SHAPE_SELFOVERLAP>
1013.32

> <PUBCHEM_SHAPE_VOLUME>
262.6

> <PUBCHEM_COORDINATE_TYPE>
2
5
10

$$$$
