11941298
  -OEChem-12032416153D

 58 62  0     1  0  0  0  0  0999 V2000
    3.5845   -2.9472    2.6473 F   0  0  0  0  0  0  0  0  0  0  0  0
   -0.3169    0.8468    2.1024 O   0  0  0  0  0  0  0  0  0  0  0  0
   -1.3817    3.4190    0.6930 O   0  0  0  0  0  0  0  0  0  0  0  0
   -5.1316    1.2272    0.2361 O   0  0  0  0  0  0  0  0  0  0  0  0
   -3.1780    0.2515    1.0436 N   0  0  0  0  0  0  0  0  0  0  0  0
    1.1696    2.4958   -0.7959 N   0  0  0  0  0  0  0  0  0  0  0  0
    2.7692    0.7953   -0.5590 N   0  0  0  0  0  0  0  0  0  0  0  0
    2.4444    1.9026   -2.6745 N   0  0  0  0  0  0  0  0  0  0  0  0
   -1.5944    2.0151    0.4708 C   0  0  1  0  0  0  0  0  0  0  0  0
   -0.2793    1.3110    0.7424 C   0  0  1  0  0  0  0  0  0  0  0  0
   -2.5342    1.4542    1.5136 C   0  0  2  0  0  0  0  0  0  0  0  0
    0.7597    2.3963    0.5878 C   0  0  2  0  0  0  0  0  0  0  0  0
   -1.5968    1.1604    2.6714 C   0  0  0  0  0  0  0  0  0  0  0  0
    0.0017    3.6442    1.0018 C   0  0  0  0  0  0  0  0  0  0  0  0
   -4.8499   -1.1348    0.0267 C   0  0  0  0  0  0  0  0  0  0  0  0
   -4.4268    0.2428    0.4428 C   0  0  0  0  0  0  0  0  0  0  0  0
   -6.3740   -1.2551    0.0946 C   0  0  0  0  0  0  0  0  0  0  0  0
   -4.3262   -1.4391   -1.3786 C   0  0  0  0  0  0  0  0  0  0  0  0
   -6.8558   -2.6124   -0.4106 C   0  0  0  0  0  0  0  0  0  0  0  0
   -4.8128   -2.7959   -1.8806 C   0  0  0  0  0  0  0  0  0  0  0  0
   -6.3329   -2.9092   -1.8129 C   0  0  0  0  0  0  0  0  0  0  0  0
    2.1570    1.7076   -1.3600 C   0  0  0  0  0  0  0  0  0  0  0  0
    3.7268    0.0443   -1.1414 C   0  0  0  0  0  0  0  0  0  0  0  0
    3.4120    1.1175   -3.1919 C   0  0  0  0  0  0  0  0  0  0  0  0
    4.0938    0.1622   -2.4664 C   0  0  0  0  0  0  0  0  0  0  0  0
    4.3628   -0.9183   -0.2740 C   0  0  0  0  0  0  0  0  0  0  0  0
    3.6530   -1.4798    0.7897 C   0  0  0  0  0  0  0  0  0  0  0  0
    5.6905   -1.2911   -0.4948 C   0  0  0  0  0  0  0  0  0  0  0  0
    4.2676   -2.4097    1.6281 C   0  0  0  0  0  0  0  0  0  0  0  0
    6.3052   -2.2209    0.3435 C   0  0  0  0  0  0  0  0  0  0  0  0
    5.5937   -2.7803    1.4050 C   0  0  0  0  0  0  0  0  0  0  0  0
   -1.9399    1.8945   -0.5611 H   0  0  0  0  0  0  0  0  0  0  0  0
   -0.1286    0.4339    0.1048 H   0  0  0  0  0  0  0  0  0  0  0  0
   -3.3072    2.1693    1.8154 H   0  0  0  0  0  0  0  0  0  0  0  0
    1.6300    2.2709    1.2423 H   0  0  0  0  0  0  0  0  0  0  0  0
   -1.4633    2.0466    3.3016 H   0  0  0  0  0  0  0  0  0  0  0  0
   -1.9244    0.3320    3.3069 H   0  0  0  0  0  0  0  0  0  0  0  0
    0.0696    3.8013    2.0840 H   0  0  0  0  0  0  0  0  0  0  0  0
    0.3402    4.5570    0.5019 H   0  0  0  0  0  0  0  0  0  0  0  0
   -2.6550   -0.6178    1.1036 H   0  0  0  0  0  0  0  0  0  0  0  0
   -4.4244   -1.8658    0.7280 H   0  0  0  0  0  0  0  0  0  0  0  0
    0.6842    3.1355   -1.4146 H   0  0  0  0  0  0  0  0  0  0  0  0
   -6.8492   -0.4701   -0.5084 H   0  0  0  0  0  0  0  0  0  0  0  0
   -6.7177   -1.1043    1.1254 H   0  0  0  0  0  0  0  0  0  0  0  0
   -3.2294   -1.4209   -1.3858 H   0  0  0  0  0  0  0  0  0  0  0  0
   -4.6503   -0.6560   -2.0769 H   0  0  0  0  0  0  0  0  0  0  0  0
   -7.9514   -2.6376   -0.4126 H   0  0  0  0  0  0  0  0  0  0  0  0
   -6.5197   -3.3976    0.2779 H   0  0  0  0  0  0  0  0  0  0  0  0
   -4.3603   -3.5916   -1.2760 H   0  0  0  0  0  0  0  0  0  0  0  0
   -4.4773   -2.9492   -2.9124 H   0  0  0  0  0  0  0  0  0  0  0  0
   -6.6416   -3.9159   -2.1164 H   0  0  0  0  0  0  0  0  0  0  0  0
   -6.7831   -2.2077   -2.5261 H   0  0  0  0  0  0  0  0  0  0  0  0
    3.6269    1.2792   -4.2428 H   0  0  0  0  0  0  0  0  0  0  0  0
    4.8432   -0.4500   -2.9514 H   0  0  0  0  0  0  0  0  0  0  0  0
    2.6152   -1.2208    0.9858 H   0  0  0  0  0  0  0  0  0  0  0  0
    6.2896   -0.8619   -1.2936 H   0  0  0  0  0  0  0  0  0  0  0  0
    7.3396   -2.5055    0.1741 H   0  0  0  0  0  0  0  0  0  0  0  0
    6.0724   -3.5033    2.0588 H   0  0  0  0  0  0  0  0  0  0  0  0
  1 29  1  0  0  0  0
  2 10  1  0  0  0  0
  2 13  1  0  0  0  0
  3  9  1  0  0  0  0
  3 14  1  0  0  0  0
  4 16  2  0  0  0  0
  5 11  1  0  0  0  0
  5 16  1  0  0  0  0
  5 40  1  0  0  0  0
  6 12  1  0  0  0  0
  6 22  1  0  0  0  0
  6 42  1  0  0  0  0
  7 22  1  0  0  0  0
  7 23  2  0  0  0  0
  8 22  2  0  0  0  0
  8 24  1  0  0  0  0
  9 10  1  0  0  0  0
  9 11  1  0  0  0  0
  9 32  1  0  0  0  0
 10 12  1  0  0  0  0
 10 33  1  0  0  0  0
 11 13  1  0  0  0  0
 11 34  1  0  0  0  0
 12 14  1  0  0  0  0
 12 35  1  0  0  0  0
 13 36  1  0  0  0  0
 13 37  1  0  0  0  0
 14 38  1  0  0  0  0
 14 39  1  0  0  0  0
 15 16  1  0  0  0  0
 15 17  1  0  0  0  0
 15 18  1  0  0  0  0
 15 41  1  0  0  0  0
 17 19  1  0  0  0  0
 17 43  1  0  0  0  0
 17 44  1  0  0  0  0
 18 20  1  0  0  0  0
 18 45  1  0  0  0  0
 18 46  1  0  0  0  0
 19 21  1  0  0  0  0
 19 47  1  0  0  0  0
 19 48  1  0  0  0  0
 20 21  1  0  0  0  0
 20 49  1  0  0  0  0
 20 50  1  0  0  0  0
 21 51  1  0  0  0  0
 21 52  1  0  0  0  0
 23 25  1  0  0  0  0
 23 26  1  0  0  0  0
 24 25  2  0  0  0  0
 24 53  1  0  0  0  0
 25 54  1  0  0  0  0
 26 27  2  0  0  0  0
 26 28  1  0  0  0  0
 27 29  1  0  0  0  0
 27 55  1  0  0  0  0
 28 30  2  0  0  0  0
 28 56  1  0  0  0  0
 29 31  2  0  0  0  0
 30 31  1  0  0  0  0
 30 57  1  0  0  0  0
 31 58  1  0  0  0  0
M  END
> <PUBCHEM_COMPOUND_CID>
11941298

> <PUBCHEM_CONFORMER_RMSD>
1

> <PUBCHEM_CONFORMER_DIVERSEORDER>
1
90
61
102
302
189
173
234
281
113
315
161
300
81
174
152
224
130
205
95
21
229
200
82
136
258
15
60
121
91
305
178
284
105
179
175
184
131
306
43
19
247
119
291
124
263
118
25
228
199
45
27
108
111
29
66
104
231
314
210
122
169
241
192
143
103
213
256
165
128
115
160
265
147
100
289
219
57
186
141
24
84
208
70
148
271
51
214
79
295
68
78
125
144
280
74
238
88
46
42
216
107
44
58
285
279
145
53
206
313
52
298
101
290
222
251
39
33
110
138
54
142
155
183
71
218
149
156
20
76
56
249
135
151
278
50
237
38
37
159
275
253
304
127
309
163
164
168
17
203
212
99
312
243
112
236
274
59
245
26
92
109
233
126
244
301
140
268
166
261
87
96
226
40
262
162
117
277
16
132
287
250
153
94
8
48
211
232
190
83
49
240
86
93
182
207
185
299
11
223
137
47
2
288
31
123
116
36
139
63
273
133
120
167
311
77
187
129
259
18
260
269
172
9
146
197
292
246
75
114
310
35
242
286
227
202
198
266
10
209
308
62
180
134
297
239
230
294
72
64
30
283
150
177
80
4
158
69
282
193
204
252
255
196
73
98
97
293
157
154
201
23
195
32
316
5
270
317
170
7
12
307
191
89
181
85
3
248
41
194
221
22
14
296
67
254
235
106
13
65
188
217
220
6
257
34
264
267
225
55
272
276
28
215
303
171
176

> <PUBCHEM_MMFF94_PARTIAL_CHARGES>
33
1 -0.19
10 0.28
11 0.3
12 0.37
13 0.28
14 0.28
15 0.06
16 0.57
2 -0.56
22 0.72
23 0.31
24 0.16
25 -0.15
27 -0.15
28 -0.15
29 0.19
3 -0.56
30 -0.15
31 -0.15
4 -0.57
40 0.37
42 0.4
5 -0.73
53 0.15
54 0.15
55 0.15
56 0.15
57 0.15
58 0.15
6 -0.87
7 -0.62
8 -0.62
9 0.28

> <PUBCHEM_EFFECTIVE_ROTOR_COUNT>
8.4

> <PUBCHEM_PHARMACOPHORE_FEATURES>
12
1 2 acceptor
1 3 acceptor
1 4 acceptor
1 5 donor
1 6 donor
1 7 acceptor
4 6 7 8 22 cation
5 2 9 10 11 13 rings
5 3 9 10 12 14 rings
6 15 17 18 19 20 21 rings
6 26 27 28 29 30 31 rings
6 7 8 22 23 24 25 rings

> <PUBCHEM_HEAVY_ATOM_COUNT>
31

> <PUBCHEM_ATOM_DEF_STEREO_COUNT>
4

> <PUBCHEM_ATOM_UDEF_STEREO_COUNT>
0

> <PUBCHEM_BOND_DEF_STEREO_COUNT>
0

> <PUBCHEM_BOND_UDEF_STEREO_COUNT>
0

> <PUBCHEM_ISOTOPIC_ATOM_COUNT>
0

> <PUBCHEM_COMPONENT_COUNT>
1

> <PUBCHEM_CACTVS_TAUTO_COUNT>
6

> <PUBCHEM_CONFORMER_ID>
00B635B200000001

> <PUBCHEM_MMFF94_ENERGY>
77.822

> <PUBCHEM_FEATURE_SELFOVERLAP>
61.604

> <PUBCHEM_SHAPE_FINGERPRINT>
10074138 170 16557369050281354393
10556698 54 15069437403399912895
10622 236 18187921708217517698
11069576 57 18114189605652918486
11135609 149 17968359213412316612
11135926 11 17098092475052890364
11443803 9 17772481321064144700
11497681 19 18265051337517354526
11607047 403 18197765804089599296
11796584 16 18060427893569856833
12047536 79 13398088482774087155
12144603 126 18339376200622479328
12166972 35 18260826007665408350
12342043 65 15840175228711569844
13828863 39 11671768395093881810
14068700 675 18337387154544677608
14340393 91 17532352224315102887
14508693 111 18130228262854805046
15163728 17 10953736673351187825
15419009 47 17534607236447814285
15728490 51 18343017801325742878
19315092 285 18408041823127266428
20156587 76 17460845498618999738
20775438 99 17976247255874849675
208703 8 18413106156209806958
21223535 225 16298939853909589445
21315763 87 14908186378328690303
21458453 9 15768908282165142442
21585480 29 14907887328081982757
23559900 14 17241631501703142512
25019877 29 13929134722955843768
25222932 49 18200869686353773324
2838139 119 13407344261724053821
3388396 114 17969242151562709604
392239 28 14405176236264558420
4015057 19 17458637721566333985
4017518 198 16678372267306420332
437795 139 18341606036363179315
4394409 98 18270667685550108111
439807 62 18335142025258710655
46194498 28 15215024914690643588
463206 1 18408892844847401683
59025328 239 17603587383644800484
59682541 52 17603863433951104887
613672 6 17489871510122995885
6636735 143 15339119040197857327
66674814 147 18186519890895252850
6677587 24 16591952255037973702
96874 4 18410568479009464471
9831354 38 18190446341761145955

> <PUBCHEM_SHAPE_MULTIPOLES>
593.16
17.02
4.32
2.69
12.04
0.55
0.85
-21.22
2.79
1.16
-0.85
-2.81
-0.09
-6.01

> <PUBCHEM_SHAPE_SELFOVERLAP>
1287.563

> <PUBCHEM_SHAPE_VOLUME>
324.9

> <PUBCHEM_COORDINATE_TYPE>
2
5
10

$$$$
