11941197
  -OEChem-12032416153D

 70 72  0     1  0  0  0  0  0999 V2000
   -2.9781   -3.8909   -0.0749 O   0  0  0  0  0  0  0  0  0  0  0  0
    4.2288   -1.9561    1.3867 O   0  0  0  0  0  0  0  0  0  0  0  0
    3.8427    4.7270   -0.3207 O   0  0  0  0  0  0  0  0  0  0  0  0
   -4.5373    2.9736    0.5142 O   0  0  0  0  0  0  0  0  0  0  0  0
   -6.6897    2.7675   -0.2755 O   0  0  0  0  0  0  0  0  0  0  0  0
   -0.9902   -3.1759    0.8632 N   0  0  0  0  0  0  0  0  0  0  0  0
    4.8700   -1.5075   -0.8016 N   0  0  0  0  0  0  0  0  0  0  0  0
   -2.8225   -1.7023    0.6781 N   0  0  0  0  0  0  0  0  0  0  0  0
    1.8695   -3.2623    0.4281 C   0  0  1  0  0  0  0  0  0  0  0  0
    1.1411   -1.9200    0.7027 C   0  0  2  0  0  0  0  0  0  0  0  0
    0.9229   -4.3129   -0.1805 C   0  0  0  0  0  0  0  0  0  0  0  0
   -0.1303   -2.1844    1.5266 C   0  0  0  0  0  0  0  0  0  0  0  0
   -0.3470   -4.4738    0.6541 C   0  0  0  0  0  0  0  0  0  0  0  0
    0.8042   -1.1219   -0.5622 C   0  0  0  0  0  0  0  0  0  0  0  0
    3.1210   -3.1004   -0.4342 C   0  0  0  0  0  0  0  0  0  0  0  0
    0.1819    0.2145   -0.2162 C   0  0  0  0  0  0  0  0  0  0  0  0
   -2.3282   -2.9871    0.4565 C   0  0  0  0  0  0  0  0  0  0  0  0
    4.1178   -2.1398    0.1776 C   0  0  0  0  0  0  0  0  0  0  0  0
    5.8969   -0.5354   -0.5038 C   0  0  0  0  0  0  0  0  0  0  0  0
   -3.8087   -1.0188   -0.0757 C   0  0  0  0  0  0  0  0  0  0  0  0
    5.3507    0.8622   -0.4561 C   0  0  0  0  0  0  0  0  0  0  0  0
   -4.1920    0.2730    0.2849 C   0  0  0  0  0  0  0  0  0  0  0  0
   -4.3964   -1.6384   -1.1785 C   0  0  0  0  0  0  0  0  0  0  0  0
    4.8750    1.3836    0.7471 C   0  0  0  0  0  0  0  0  0  0  0  0
    5.3201    1.6397   -1.6139 C   0  0  0  0  0  0  0  0  0  0  0  0
   -5.1631    0.9450   -0.4573 C   0  0  0  0  0  0  0  0  0  0  0  0
   -5.3675   -0.9663   -1.9209 C   0  0  0  0  0  0  0  0  0  0  0  0
   -5.7508    0.3253   -1.5602 C   0  0  0  0  0  0  0  0  0  0  0  0
    4.3689    2.6826    0.7923 C   0  0  0  0  0  0  0  0  0  0  0  0
    4.8139    2.9386   -1.5684 C   0  0  0  0  0  0  0  0  0  0  0  0
    4.3384    3.4602   -0.3653 C   0  0  0  0  0  0  0  0  0  0  0  0
   -5.5628    2.2920   -0.0823 C   0  0  0  0  0  0  0  0  0  0  0  0
   -4.8088    4.3160    0.9313 C   0  0  0  0  0  0  0  0  0  0  0  0
    3.3715    5.1959    0.9417 C   0  0  0  0  0  0  0  0  0  0  0  0
   -3.5621    4.8976    1.5632 C   0  0  0  0  0  0  0  0  0  0  0  0
    2.1893   -3.6539    1.4055 H   0  0  0  0  0  0  0  0  0  0  0  0
    1.7911   -1.2928    1.3259 H   0  0  0  0  0  0  0  0  0  0  0  0
    1.4329   -5.2808   -0.2521 H   0  0  0  0  0  0  0  0  0  0  0  0
    0.6503   -4.0209   -1.2023 H   0  0  0  0  0  0  0  0  0  0  0  0
   -0.6427   -1.2594    1.7801 H   0  0  0  0  0  0  0  0  0  0  0  0
    0.1527   -2.6238    2.4927 H   0  0  0  0  0  0  0  0  0  0  0  0
   -0.1094   -4.8889    1.6407 H   0  0  0  0  0  0  0  0  0  0  0  0
   -1.0239   -5.1770    0.1595 H   0  0  0  0  0  0  0  0  0  0  0  0
    0.1333   -1.6770   -1.2265 H   0  0  0  0  0  0  0  0  0  0  0  0
    1.7164   -0.9163   -1.1317 H   0  0  0  0  0  0  0  0  0  0  0  0
    2.8558   -2.7935   -1.4519 H   0  0  0  0  0  0  0  0  0  0  0  0
    3.6326   -4.0672   -0.5254 H   0  0  0  0  0  0  0  0  0  0  0  0
    0.7764    0.7555    0.5273 H   0  0  0  0  0  0  0  0  0  0  0  0
    0.1347    0.8398   -1.1148 H   0  0  0  0  0  0  0  0  0  0  0  0
   -0.8409    0.1254    0.1516 H   0  0  0  0  0  0  0  0  0  0  0  0
    4.6979   -1.7195   -1.7800 H   0  0  0  0  0  0  0  0  0  0  0  0
   -2.4466   -1.1673    1.4520 H   0  0  0  0  0  0  0  0  0  0  0  0
    6.6669   -0.6214   -1.2789 H   0  0  0  0  0  0  0  0  0  0  0  0
    6.3751   -0.7908    0.4492 H   0  0  0  0  0  0  0  0  0  0  0  0
   -3.7325    0.7377    1.1545 H   0  0  0  0  0  0  0  0  0  0  0  0
   -4.1238   -2.6262   -1.5275 H   0  0  0  0  0  0  0  0  0  0  0  0
    4.8952    0.7897    1.6568 H   0  0  0  0  0  0  0  0  0  0  0  0
    5.6862    1.2441   -2.5575 H   0  0  0  0  0  0  0  0  0  0  0  0
   -5.8205   -1.4453   -2.7841 H   0  0  0  0  0  0  0  0  0  0  0  0
   -6.5057    0.8365   -2.1521 H   0  0  0  0  0  0  0  0  0  0  0  0
    4.0160    3.0246    1.7593 H   0  0  0  0  0  0  0  0  0  0  0  0
    4.7918    3.5393   -2.4736 H   0  0  0  0  0  0  0  0  0  0  0  0
   -5.6273    4.3117    1.6594 H   0  0  0  0  0  0  0  0  0  0  0  0
   -5.0988    4.9153    0.0613 H   0  0  0  0  0  0  0  0  0  0  0  0
    2.5187    4.6073    1.2968 H   0  0  0  0  0  0  0  0  0  0  0  0
    4.1790    5.2440    1.6801 H   0  0  0  0  0  0  0  0  0  0  0  0
    3.0132    6.2198    0.7930 H   0  0  0  0  0  0  0  0  0  0  0  0
   -2.7301    4.8900    0.8514 H   0  0  0  0  0  0  0  0  0  0  0  0
   -3.2498    4.2961    2.4233 H   0  0  0  0  0  0  0  0  0  0  0  0
   -3.7344    5.9254    1.8945 H   0  0  0  0  0  0  0  0  0  0  0  0
  1 17  2  0  0  0  0
  2 18  2  0  0  0  0
  3 31  1  0  0  0  0
  3 34  1  0  0  0  0
  4 32  1  0  0  0  0
  4 33  1  0  0  0  0
  5 32  2  0  0  0  0
  6 12  1  0  0  0  0
  6 13  1  0  0  0  0
  6 17  1  0  0  0  0
  7 18  1  0  0  0  0
  7 19  1  0  0  0  0
  7 51  1  0  0  0  0
  8 17  1  0  0  0  0
  8 20  1  0  0  0  0
  8 52  1  0  0  0  0
  9 10  1  0  0  0  0
  9 11  1  0  0  0  0
  9 15  1  0  0  0  0
  9 36  1  0  0  0  0
 10 12  1  0  0  0  0
 10 14  1  0  0  0  0
 10 37  1  0  0  0  0
 11 13  1  0  0  0  0
 11 38  1  0  0  0  0
 11 39  1  0  0  0  0
 12 40  1  0  0  0  0
 12 41  1  0  0  0  0
 13 42  1  0  0  0  0
 13 43  1  0  0  0  0
 14 16  1  0  0  0  0
 14 44  1  0  0  0  0
 14 45  1  0  0  0  0
 15 18  1  0  0  0  0
 15 46  1  0  0  0  0
 15 47  1  0  0  0  0
 16 48  1  0  0  0  0
 16 49  1  0  0  0  0
 16 50  1  0  0  0  0
 19 21  1  0  0  0  0
 19 53  1  0  0  0  0
 19 54  1  0  0  0  0
 20 22  1  0  0  0  0
 20 23  2  0  0  0  0
 21 24  2  0  0  0  0
 21 25  1  0  0  0  0
 22 26  2  0  0  0  0
 22 55  1  0  0  0  0
 23 27  1  0  0  0  0
 23 56  1  0  0  0  0
 24 29  1  0  0  0  0
 24 57  1  0  0  0  0
 25 30  2  0  0  0  0
 25 58  1  0  0  0  0
 26 28  1  0  0  0  0
 26 32  1  0  0  0  0
 27 28  2  0  0  0  0
 27 59  1  0  0  0  0
 28 60  1  0  0  0  0
 29 31  2  0  0  0  0
 29 61  1  0  0  0  0
 30 31  1  0  0  0  0
 30 62  1  0  0  0  0
 33 35  1  0  0  0  0
 33 63  1  0  0  0  0
 33 64  1  0  0  0  0
 34 65  1  0  0  0  0
 34 66  1  0  0  0  0
 34 67  1  0  0  0  0
 35 68  1  0  0  0  0
 35 69  1  0  0  0  0
 35 70  1  0  0  0  0
M  END
> <PUBCHEM_COMPOUND_CID>
11941197

> <PUBCHEM_CONFORMER_RMSD>
1.2

> <PUBCHEM_CONFORMER_DIVERSEORDER>
4
23
143
91
159
101
128
142
52
148
36
21
59
22
6
109
29
137
134
96
108
58
69
103
19
153
89
122
152
141
71
130
20
9
136
27
64
79
38
90
114
73
17
100
7
57
37
151
15
26
24
85
121
88
55
2
125
62
51
157
31
147
145
149
47
39
49
155
138
25
150
119
94
18
124
16
104
72
35
40
160
144
92
33
139
48
112
107
5
102
154
14
65
132
140
74
99
110
118
75
80
135
87
28
42
41
81
97
83
68
133
77
61
84
50
10
120
13
82
11
34
44
131
54
127
126
56
12
93
117
86
46
60
8
111
66
43
32
146
98
3
113
95
105
1
161
76
78
70
129
30
53
123
115
116
63
158
156
67
106
45

> <PUBCHEM_MMFF94_PARTIAL_CHARGES>
39
1 -0.57
12 0.3
13 0.3
15 0.06
17 0.69
18 0.57
19 0.44
2 -0.57
20 0.12
21 -0.14
22 -0.15
23 -0.15
24 -0.15
25 -0.15
26 0.09
27 -0.15
28 -0.15
29 -0.15
3 -0.36
30 -0.15
31 0.08
32 0.63
33 0.28
34 0.28
4 -0.43
5 -0.57
51 0.37
52 0.37
55 0.15
56 0.15
57 0.15
58 0.15
59 0.15
6 -0.66
60 0.15
61 0.15
62 0.15
7 -0.73
8 -0.55

> <PUBCHEM_EFFECTIVE_ROTOR_COUNT>
14.2

> <PUBCHEM_PHARMACOPHORE_FEATURES>
10
1 1 acceptor
1 16 hydrophobe
1 2 acceptor
1 3 acceptor
1 5 acceptor
1 7 donor
1 8 donor
6 20 22 23 26 27 28 rings
6 21 24 25 29 30 31 rings
6 6 9 10 11 12 13 rings

> <PUBCHEM_HEAVY_ATOM_COUNT>
35

> <PUBCHEM_ATOM_DEF_STEREO_COUNT>
2

> <PUBCHEM_ATOM_UDEF_STEREO_COUNT>
0

> <PUBCHEM_BOND_DEF_STEREO_COUNT>
0

> <PUBCHEM_BOND_UDEF_STEREO_COUNT>
0

> <PUBCHEM_ISOTOPIC_ATOM_COUNT>
0

> <PUBCHEM_COMPONENT_COUNT>
1

> <PUBCHEM_CACTVS_TAUTO_COUNT>
4

> <PUBCHEM_CONFORMER_ID>
00B6354D00000004

> <PUBCHEM_MMFF94_ENERGY>
96.0859

> <PUBCHEM_FEATURE_SELFOVERLAP>
50.747

> <PUBCHEM_SHAPE_FINGERPRINT>
10290309 65 13725707148956297178
10439779 11 18410566289524975848
10556698 54 17916845990161121793
10581848 31 17899705848870566117
12422481 6 16878212152024473238
12925494 130 18335701688606907153
13617811 41 16682876502763796762
14790565 3 18337673113240982806
15274700 147 16165281364943462196
15320291 9 18121214543787370196
15320467 1 18338518512859841105
16067689 134 18052832346469527460
16112460 7 18336265617976707597
16708801 149 18337095856624397928
19302320 297 18048040670689805123
20691028 202 18409728418446028577
20715895 44 18409163329720518602
23559900 14 18413393133899901802
2838139 119 18410853287044262342
3493558 16 18338240465361685804
376196 1 18334296491668548890
4173938 77 17765172578624408065
44575985 301 18270963557331665144
550186 72 17544760487448678902
6371009 1 18410567371555911010
7970288 3 10124798940085333347

> <PUBCHEM_SHAPE_MULTIPOLES>
675.99
16.86
8.18
1.39
5.48
5.36
0.23
15.73
5.03
-0.83
-2.84
0.29
0.42
-2.13

> <PUBCHEM_SHAPE_SELFOVERLAP>
1409.522

> <PUBCHEM_SHAPE_VOLUME>
381.1

> <PUBCHEM_COORDINATE_TYPE>
2
5
10

$$$$
