11865833
  -OEChem-12032416123D

 65 66  0     1  0  0  0  0  0999 V2000
   -3.7281   -4.2605   -1.1815 S   0  0  0  0  0  0  0  0  0  0  0  0
   -1.3380    1.6323   -1.4191 O   0  0  0  0  0  0  0  0  0  0  0  0
   -1.1989    0.3092    1.9149 O   0  0  0  0  0  0  0  0  0  0  0  0
    3.7800   -1.0343    0.3823 O   0  0  0  0  0  0  0  0  0  0  0  0
    0.6626   -3.1380    2.6238 O   0  0  0  0  0  0  0  0  0  0  0  0
    0.0649    2.0749    0.3681 N   0  0  0  0  0  0  0  0  0  0  0  0
    3.0547    1.1634    0.5706 N   0  0  0  0  0  0  0  0  0  0  0  0
   -0.3032   -1.4502    0.6815 N   0  0  0  0  0  0  0  0  0  0  0  0
    4.9802    0.6941   -0.5953 N   0  0  0  0  0  0  0  0  0  0  0  0
   -1.4869   -3.3672    3.4006 N   0  0  0  0  0  0  0  0  0  0  0  0
    0.6444    0.7385    0.4590 C   0  0  1  0  0  0  0  0  0  0  0  0
    1.8721    0.8994    1.3555 C   0  0  2  0  0  0  0  0  0  0  0  0
    1.5128    2.0957    2.2408 C   0  0  0  0  0  0  0  0  0  0  0  0
    0.6808    2.9871    1.3279 C   0  0  0  0  0  0  0  0  0  0  0  0
   -0.8364    2.4291   -0.6243 C   0  0  0  0  0  0  0  0  0  0  0  0
   -0.3934   -0.1338    1.1004 C   0  0  0  0  0  0  0  0  0  0  0  0
   -1.1975    3.8921   -0.6828 C   0  0  0  0  0  0  0  0  0  0  0  0
   -2.6935    4.1492   -0.4273 C   0  0  0  0  0  0  0  0  0  0  0  0
   -3.0101    5.6542   -0.4493 C   0  0  0  0  0  0  0  0  0  0  0  0
   -3.5668    3.4279   -1.4681 C   0  0  0  0  0  0  0  0  0  0  0  0
   -3.0357    3.5957    0.9688 C   0  0  0  0  0  0  0  0  0  0  0  0
   -1.1740   -2.4959    1.1677 C   0  0  1  0  0  0  0  0  0  0  0  0
    3.9246    0.1636    0.1419 C   0  0  0  0  0  0  0  0  0  0  0  0
   -1.3620   -3.6204    0.1421 C   0  0  0  0  0  0  0  0  0  0  0  0
   -0.5488   -3.0406    2.4438 C   0  0  0  0  0  0  0  0  0  0  0  0
   -2.3627   -3.2583   -0.9299 C   0  0  0  0  0  0  0  0  0  0  0  0
    6.0285   -0.1227   -1.1601 C   0  0  0  0  0  0  0  0  0  0  0  0
   -2.3462   -2.1818   -1.7895 C   0  0  0  0  0  0  0  0  0  0  0  0
    5.6298   -0.5459   -2.5347 C   0  0  0  0  0  0  0  0  0  0  0  0
   -3.4694   -2.1798   -2.6659 C   0  0  0  0  0  0  0  0  0  0  0  0
   -4.3016   -3.2547   -2.4431 C   0  0  0  0  0  0  0  0  0  0  0  0
    5.5178   -1.8226   -2.9188 C   0  0  0  0  0  0  0  0  0  0  0  0
    0.8783    0.3754   -0.5488 H   0  0  0  0  0  0  0  0  0  0  0  0
    2.0599    0.0090    1.9664 H   0  0  0  0  0  0  0  0  0  0  0  0
    0.8943    1.7581    3.0815 H   0  0  0  0  0  0  0  0  0  0  0  0
    2.3811    2.6197    2.6519 H   0  0  0  0  0  0  0  0  0  0  0  0
   -0.0768    3.5446    1.8844 H   0  0  0  0  0  0  0  0  0  0  0  0
    1.3193    3.6859    0.7765 H   0  0  0  0  0  0  0  0  0  0  0  0
   -0.9344    4.2328   -1.6938 H   0  0  0  0  0  0  0  0  0  0  0  0
   -0.6003    4.5156   -0.0155 H   0  0  0  0  0  0  0  0  0  0  0  0
    3.2297    2.1148    0.2617 H   0  0  0  0  0  0  0  0  0  0  0  0
    0.4576   -1.7172    0.0632 H   0  0  0  0  0  0  0  0  0  0  0  0
   -4.0678    5.8447   -0.2356 H   0  0  0  0  0  0  0  0  0  0  0  0
   -2.7833    6.0854   -1.4306 H   0  0  0  0  0  0  0  0  0  0  0  0
   -2.4170    6.1939    0.2974 H   0  0  0  0  0  0  0  0  0  0  0  0
   -4.6070    3.7693   -1.4009 H   0  0  0  0  0  0  0  0  0  0  0  0
   -3.2225    3.6352   -2.4872 H   0  0  0  0  0  0  0  0  0  0  0  0
   -3.5968    2.3441   -1.3232 H   0  0  0  0  0  0  0  0  0  0  0  0
   -2.4244    4.0678    1.7456 H   0  0  0  0  0  0  0  0  0  0  0  0
   -2.8956    2.5121    1.0365 H   0  0  0  0  0  0  0  0  0  0  0  0
   -4.0851    3.7953    1.2167 H   0  0  0  0  0  0  0  0  0  0  0  0
   -2.1416   -2.0414    1.4178 H   0  0  0  0  0  0  0  0  0  0  0  0
   -0.4064   -3.8665   -0.3398 H   0  0  0  0  0  0  0  0  0  0  0  0
   -1.6847   -4.5347    0.6575 H   0  0  0  0  0  0  0  0  0  0  0  0
    5.0064    1.6959   -0.7592 H   0  0  0  0  0  0  0  0  0  0  0  0
    6.2191   -0.9777   -0.5029 H   0  0  0  0  0  0  0  0  0  0  0  0
    6.9355    0.4879   -1.2061 H   0  0  0  0  0  0  0  0  0  0  0  0
   -1.2029   -3.7277    4.3054 H   0  0  0  0  0  0  0  0  0  0  0  0
   -2.4852   -3.2783    3.2401 H   0  0  0  0  0  0  0  0  0  0  0  0
   -1.5681   -1.4300   -1.8049 H   0  0  0  0  0  0  0  0  0  0  0  0
    5.4350    0.2344   -3.2663 H   0  0  0  0  0  0  0  0  0  0  0  0
   -3.6566   -1.4289   -3.4226 H   0  0  0  0  0  0  0  0  0  0  0  0
   -5.2186   -3.4976   -2.9611 H   0  0  0  0  0  0  0  0  0  0  0  0
    5.2308   -2.0671   -3.9356 H   0  0  0  0  0  0  0  0  0  0  0  0
    5.7072   -2.6403   -2.2322 H   0  0  0  0  0  0  0  0  0  0  0  0
  1 26  1  0  0  0  0
  1 31  1  0  0  0  0
  2 15  2  0  0  0  0
  3 16  2  0  0  0  0
  4 23  2  0  0  0  0
  5 25  2  0  0  0  0
  6 11  1  0  0  0  0
  6 14  1  0  0  0  0
  6 15  1  0  0  0  0
  7 12  1  0  0  0  0
  7 23  1  0  0  0  0
  7 41  1  0  0  0  0
  8 16  1  0  0  0  0
  8 22  1  0  0  0  0
  8 42  1  0  0  0  0
  9 23  1  0  0  0  0
  9 27  1  0  0  0  0
  9 55  1  0  0  0  0
 10 25  1  0  0  0  0
 10 58  1  0  0  0  0
 10 59  1  0  0  0  0
 11 12  1  0  0  0  0
 11 16  1  0  0  0  0
 11 33  1  0  0  0  0
 12 13  1  0  0  0  0
 12 34  1  0  0  0  0
 13 14  1  0  0  0  0
 13 35  1  0  0  0  0
 13 36  1  0  0  0  0
 14 37  1  0  0  0  0
 14 38  1  0  0  0  0
 15 17  1  0  0  0  0
 17 18  1  0  0  0  0
 17 39  1  0  0  0  0
 17 40  1  0  0  0  0
 18 19  1  0  0  0  0
 18 20  1  0  0  0  0
 18 21  1  0  0  0  0
 19 43  1  0  0  0  0
 19 44  1  0  0  0  0
 19 45  1  0  0  0  0
 20 46  1  0  0  0  0
 20 47  1  0  0  0  0
 20 48  1  0  0  0  0
 21 49  1  0  0  0  0
 21 50  1  0  0  0  0
 21 51  1  0  0  0  0
 22 24  1  0  0  0  0
 22 25  1  0  0  0  0
 22 52  1  0  0  0  0
 24 26  1  0  0  0  0
 24 53  1  0  0  0  0
 24 54  1  0  0  0  0
 26 28  2  0  0  0  0
 27 29  1  0  0  0  0
 27 56  1  0  0  0  0
 27 57  1  0  0  0  0
 28 30  1  0  0  0  0
 28 60  1  0  0  0  0
 29 32  2  0  0  0  0
 29 61  1  0  0  0  0
 30 31  2  0  0  0  0
 30 62  1  0  0  0  0
 31 63  1  0  0  0  0
 32 64  1  0  0  0  0
 32 65  1  0  0  0  0
M  END
> <PUBCHEM_COMPOUND_CID>
11865833

> <PUBCHEM_CONFORMER_RMSD>
1.2

> <PUBCHEM_CONFORMER_DIVERSEORDER>
1
26
24
20
14
29
27
21
10
16
9
15
28
4
11
19
18
2
12
17
25
3
5
7
8
6
13
22
23

> <PUBCHEM_MMFF94_PARTIAL_CHARGES>
38
1 -0.08
10 -0.8
11 0.36
12 0.3
14 0.3
15 0.57
16 0.57
17 0.06
2 -0.57
22 0.36
23 0.69
24 0.18
25 0.57
26 -0.14
27 0.44
28 -0.15
29 -0.29
3 -0.57
30 -0.15
31 -0.11
32 -0.3
4 -0.57
41 0.37
42 0.37
5 -0.57
55 0.37
58 0.37
59 0.37
6 -0.66
60 0.15
61 0.15
62 0.15
63 0.15
64 0.15
65 0.15
7 -0.73
8 -0.73
9 -0.73

> <PUBCHEM_EFFECTIVE_ROTOR_COUNT>
15

> <PUBCHEM_PHARMACOPHORE_FEATURES>
12
1 10 donor
1 2 acceptor
1 3 acceptor
1 32 hydrophobe
1 4 acceptor
1 5 acceptor
1 7 donor
1 8 donor
1 9 donor
4 18 19 20 21 hydrophobe
5 1 26 28 30 31 rings
5 6 11 12 13 14 rings

> <PUBCHEM_HEAVY_ATOM_COUNT>
32

> <PUBCHEM_ATOM_DEF_STEREO_COUNT>
3

> <PUBCHEM_ATOM_UDEF_STEREO_COUNT>
0

> <PUBCHEM_BOND_DEF_STEREO_COUNT>
0

> <PUBCHEM_BOND_UDEF_STEREO_COUNT>
0

> <PUBCHEM_ISOTOPIC_ATOM_COUNT>
0

> <PUBCHEM_COMPONENT_COUNT>
1

> <PUBCHEM_CACTVS_TAUTO_COUNT>
12

> <PUBCHEM_CONFORMER_ID>
00B50EE900000001

> <PUBCHEM_MMFF94_ENERGY>
65.6004

> <PUBCHEM_FEATURE_SELFOVERLAP>
60.948

> <PUBCHEM_SHAPE_FINGERPRINT>
10815517 723 18342184392781094609
11285246 1 18410006658653060716
11991303 11 18194140546004986844
12788726 201 18117535509302838122
12977781 61 17702645697959149514
140371 6 17544740687991933425
14114206 34 18190197835132188250
15775530 1 18270952570462397992
1979834 28 10228698017597301559
21344244 181 17771632251949551693
38695281 34 17764296254639982317
437795 70 18342451582327443895
46194498 28 17182203155260718823
484985 159 17273998873234937414
5080951 261 18271260322412326834
5081480 168 17900829558512885839
563151 40 18264779761532354261
59025328 239 17699837720485018222

> <PUBCHEM_SHAPE_MULTIPOLES>
614.01
9.41
7.93
3.11
16.42
6.3
0.69
-5.9
-10
-12.74
-1
0.38
-3.32
1.17

> <PUBCHEM_SHAPE_SELFOVERLAP>
1244.566

> <PUBCHEM_SHAPE_VOLUME>
360

> <PUBCHEM_COORDINATE_TYPE>
2
5
10

$$$$
