11884452
  -OEChem-12032416413D

 56 60  0     1  0  0  0  0  0999 V2000
    4.6839   -1.2252   -1.1437 S   0  0  0  0  0  0  0  0  0  0  0  0
    1.9661   -2.2767   -0.9076 S   0  0  0  0  0  0  0  0  0  0  0  0
    6.0211   -1.4992   -0.6612 O   0  0  0  0  0  0  0  0  0  0  0  0
    4.3925   -1.2099   -2.5617 O   0  0  0  0  0  0  0  0  0  0  0  0
   -0.3374    2.2150   -1.4389 O   0  0  0  0  0  0  0  0  0  0  0  0
   -2.4927   -1.0563    1.4168 O   0  0  0  0  0  0  0  0  0  0  0  0
   -8.1956   -0.1106   -1.0681 O   0  0  0  0  0  0  0  0  0  0  0  0
    4.1239    0.2328   -0.4441 N   0  0  2  0  0  0  0  0  0  0  0  0
    1.4766    1.9022    0.0005 N   0  0  0  0  0  0  0  0  0  0  0  0
   -2.0815    0.9015    0.2301 N   0  0  0  0  0  0  0  0  0  0  0  0
    3.8424    2.7112   -0.5531 C   0  0  1  0  0  0  0  0  0  0  0  0
    3.4214    1.5291    1.5583 C   0  0  2  0  0  0  0  0  0  0  0  0
    4.0123    2.8016    0.9577 C   0  0  0  0  0  0  0  0  0  0  0  0
    4.5860    1.4853   -1.1079 C   0  0  0  0  0  0  0  0  0  0  0  0
    4.2034    0.3061    1.0455 C   0  0  0  0  0  0  0  0  0  0  0  0
    2.3454    2.6880   -0.8859 C   0  0  0  0  0  0  0  0  0  0  0  0
    1.9490    1.3968    1.2159 C   0  0  0  0  0  0  0  0  0  0  0  0
    1.1087    0.7794    2.0632 C   0  0  0  0  0  0  0  0  0  0  0  0
    0.1274    1.7731   -0.3871 C   0  0  0  0  0  0  0  0  0  0  0  0
   -0.7710    1.0582    0.5741 C   0  0  0  0  0  0  0  0  0  0  0  0
   -0.2779    0.6069    1.7322 C   0  0  0  0  0  0  0  0  0  0  0  0
    3.5878   -2.3775   -0.3768 C   0  0  0  0  0  0  0  0  0  0  0  0
    3.7701   -3.3522    0.5722 C   0  0  0  0  0  0  0  0  0  0  0  0
    2.5551   -4.0331    0.8723 C   0  0  0  0  0  0  0  0  0  0  0  0
    1.4951   -3.5480    0.1383 C   0  0  0  0  0  0  0  0  0  0  0  0
   -2.8683   -0.1523    0.6745 C   0  0  0  0  0  0  0  0  0  0  0  0
   -4.2805   -0.1418    0.2116 C   0  0  0  0  0  0  0  0  0  0  0  0
   -5.2401   -0.7545    0.9901 C   0  0  0  0  0  0  0  0  0  0  0  0
   -4.5863    0.4804   -0.9809 C   0  0  0  0  0  0  0  0  0  0  0  0
   -6.5659   -0.7446    0.5564 C   0  0  0  0  0  0  0  0  0  0  0  0
   -5.9121    0.4904   -1.4144 C   0  0  0  0  0  0  0  0  0  0  0  0
   -6.9019   -0.1220   -0.6458 C   0  0  0  0  0  0  0  0  0  0  0  0
   -9.1571   -0.7538   -0.2328 C   0  0  0  0  0  0  0  0  0  0  0  0
    4.2820    3.6002   -1.0226 H   0  0  0  0  0  0  0  0  0  0  0  0
    3.5419    1.5818    2.6485 H   0  0  0  0  0  0  0  0  0  0  0  0
    3.5050    3.6912    1.3517 H   0  0  0  0  0  0  0  0  0  0  0  0
    5.0732    2.8944    1.2200 H   0  0  0  0  0  0  0  0  0  0  0  0
    4.4107    1.4170   -2.1871 H   0  0  0  0  0  0  0  0  0  0  0  0
    5.6649    1.5984   -0.9462 H   0  0  0  0  0  0  0  0  0  0  0  0
    5.2553    0.3827    1.3472 H   0  0  0  0  0  0  0  0  0  0  0  0
    3.7902   -0.5936    1.5088 H   0  0  0  0  0  0  0  0  0  0  0  0
    1.9608    3.7162   -0.8392 H   0  0  0  0  0  0  0  0  0  0  0  0
    2.1848    2.3539   -1.9187 H   0  0  0  0  0  0  0  0  0  0  0  0
    1.4526    0.3742    3.0092 H   0  0  0  0  0  0  0  0  0  0  0  0
   -0.8720    0.1342    2.5047 H   0  0  0  0  0  0  0  0  0  0  0  0
   -2.4138    1.5260   -0.4966 H   0  0  0  0  0  0  0  0  0  0  0  0
    4.7242   -3.5714    1.0338 H   0  0  0  0  0  0  0  0  0  0  0  0
    2.4629   -4.8373    1.5907 H   0  0  0  0  0  0  0  0  0  0  0  0
    0.4663   -3.8782    0.1670 H   0  0  0  0  0  0  0  0  0  0  0  0
   -4.9952   -1.2383    1.9310 H   0  0  0  0  0  0  0  0  0  0  0  0
   -3.8489    0.9313   -1.6352 H   0  0  0  0  0  0  0  0  0  0  0  0
   -7.2842   -1.2375    1.2026 H   0  0  0  0  0  0  0  0  0  0  0  0
   -6.1671    0.9687   -2.3562 H   0  0  0  0  0  0  0  0  0  0  0  0
   -9.2342   -0.2632    0.7435 H   0  0  0  0  0  0  0  0  0  0  0  0
   -8.9586   -1.8272   -0.1434 H   0  0  0  0  0  0  0  0  0  0  0  0
  -10.1315   -0.6486   -0.7211 H   0  0  0  0  0  0  0  0  0  0  0  0
  1  3  2  0  0  0  0
  1  4  2  0  0  0  0
  1  8  1  0  0  0  0
  1 22  1  0  0  0  0
  2 22  1  0  0  0  0
  2 25  1  0  0  0  0
  5 19  2  0  0  0  0
  6 26  2  0  0  0  0
  7 32  1  0  0  0  0
  7 33  1  0  0  0  0
  8 14  1  0  0  0  0
  8 15  1  0  0  0  0
  9 16  1  0  0  0  0
  9 17  1  0  0  0  0
  9 19  1  0  0  0  0
 10 20  1  0  0  0  0
 10 26  1  0  0  0  0
 10 46  1  0  0  0  0
 11 13  1  0  0  0  0
 11 14  1  0  0  0  0
 11 16  1  0  0  0  0
 11 34  1  0  0  0  0
 12 13  1  0  0  0  0
 12 15  1  0  0  0  0
 12 17  1  0  0  0  0
 12 35  1  0  0  0  0
 13 36  1  0  0  0  0
 13 37  1  0  0  0  0
 14 38  1  0  0  0  0
 14 39  1  0  0  0  0
 15 40  1  0  0  0  0
 15 41  1  0  0  0  0
 16 42  1  0  0  0  0
 16 43  1  0  0  0  0
 17 18  2  0  0  0  0
 18 21  1  0  0  0  0
 18 44  1  0  0  0  0
 19 20  1  0  0  0  0
 20 21  2  0  0  0  0
 21 45  1  0  0  0  0
 22 23  2  0  0  0  0
 23 24  1  0  0  0  0
 23 47  1  0  0  0  0
 24 25  2  0  0  0  0
 24 48  1  0  0  0  0
 25 49  1  0  0  0  0
 26 27  1  0  0  0  0
 27 28  2  0  0  0  0
 27 29  1  0  0  0  0
 28 30  1  0  0  0  0
 28 50  1  0  0  0  0
 29 31  2  0  0  0  0
 29 51  1  0  0  0  0
 30 32  2  0  0  0  0
 30 52  1  0  0  0  0
 31 32  1  0  0  0  0
 31 53  1  0  0  0  0
 33 54  1  0  0  0  0
 33 55  1  0  0  0  0
 33 56  1  0  0  0  0
M  END
> <PUBCHEM_COMPOUND_CID>
11884452

> <PUBCHEM_CONFORMER_RMSD>
1

> <PUBCHEM_CONFORMER_DIVERSEORDER>
1
14
3
9
12
6
8
2
4
7
11
10
13
5

> <PUBCHEM_MMFF94_PARTIAL_CHARGES>
41
1 1.5
10 -0.54
12 0.14
14 0.36
15 0.36
16 0.3
17 -0.03
18 -0.15
19 0.62
2 -0.08
20 0.12
21 -0.15
22 -0.02
23 -0.15
24 -0.15
25 -0.11
26 0.54
27 0.09
28 -0.15
29 -0.15
3 -0.65
30 -0.15
31 -0.15
32 0.08
33 0.28
4 -0.65
44 0.15
45 0.15
46 0.37
47 0.15
48 0.15
49 0.15
5 -0.57
50 0.15
51 0.15
52 0.15
53 0.15
6 -0.57
7 -0.36
8 -0.85
9 -0.47

> <PUBCHEM_EFFECTIVE_ROTOR_COUNT>
7

> <PUBCHEM_PHARMACOPHORE_FEATURES>
11
1 10 donor
1 3 acceptor
1 4 acceptor
1 5 acceptor
1 6 acceptor
1 7 acceptor
5 2 22 23 24 25 rings
6 27 28 29 30 31 32 rings
6 8 11 12 13 14 15 rings
6 9 11 12 13 16 17 rings
6 9 17 18 19 20 21 rings

> <PUBCHEM_HEAVY_ATOM_COUNT>
33

> <PUBCHEM_ATOM_DEF_STEREO_COUNT>
2

> <PUBCHEM_ATOM_UDEF_STEREO_COUNT>
0

> <PUBCHEM_BOND_DEF_STEREO_COUNT>
0

> <PUBCHEM_BOND_UDEF_STEREO_COUNT>
0

> <PUBCHEM_ISOTOPIC_ATOM_COUNT>
0

> <PUBCHEM_COMPONENT_COUNT>
1

> <PUBCHEM_CACTVS_TAUTO_COUNT>
2

> <PUBCHEM_CONFORMER_ID>
00B557A400000001

> <PUBCHEM_MMFF94_ENERGY>
95.3817

> <PUBCHEM_FEATURE_SELFOVERLAP>
57.426

> <PUBCHEM_SHAPE_FINGERPRINT>
10316853 100 18335704957172640658
10675989 125 18059008522610869320
11408170 132 18263073341847307653
11828532 37 16878235224672715395
12522641 33 18338515365429294488
13533116 47 18131351925194254825
1361 2 18335985354206816946
13617811 41 18114183042948061357
14347332 77 18271524192022860937
14675020 138 18270665572040634840
14931854 50 18266760016814070998
15001296 14 17917985122577028823
15119646 104 17917998269956984299
15183329 4 18260268534412396129
15324884 4 17754764902578300272
15419008 42 17898264170699982501
15664445 248 17603591841752502660
15876981 60 8033131991295161892
15968369 26 17604694595880342131
17134984 74 18410574002664324843
17492 54 18190486955582845342
17909252 39 18335138635706431952
20587220 46 16128662937807852638
20775530 9 17831598474379713026
21033650 10 16371852825186834237
21285901 2 17822285764930745037
21360442 67 18335419114805163763
21703447 108 18201712938626380992
23559900 14 18333455343412237409
27425 322 17024032755659469736
34797466 226 18187362177411634653
4066623 53 17458898224460071916
4098825 35 18410856522088013789
4340502 62 17988074608413876904
46194498 28 18040433308545914045
463206 1 18201998871435934538
484989 97 18265351641034650506
513532 50 17603302656860530610
5309563 4 18339645517205690396
5951187 136 15357995468333943310
59682541 52 18334293150283173255
59755656 215 18408039620056534057
6086070 43 17131830929221824017
68570916 9 10953748807456615009

> <PUBCHEM_SHAPE_MULTIPOLES>
642.53
18.33
3.82
1.68
47.9
2.72
-0.03
4.16
-5.51
-7.74
0.15
-0.93
-0.21
0.97

> <PUBCHEM_SHAPE_SELFOVERLAP>
1381.988

> <PUBCHEM_SHAPE_VOLUME>
354.1

> <PUBCHEM_COORDINATE_TYPE>
2
5
10

$$$$
