26743958
  -OEChem-12032416283D

 42 45  0     1  0  0  0  0  0999 V2000
   -4.9173   -4.2934    0.6141 Cl  0  0  0  0  0  0  0  0  0  0  0  0
   -2.3056    4.3012    1.8146 O   0  0  0  0  0  0  0  0  0  0  0  0
    1.8518    2.1750   -1.4541 O   0  0  0  0  0  0  0  0  0  0  0  0
   -1.4866    1.4103   -0.1202 N   0  0  1  0  0  0  0  0  0  0  0  0
    1.3834    0.6095    0.0776 N   0  0  0  0  0  0  0  0  0  0  0  0
    3.0051    1.3890   -1.3353 N   0  0  0  0  0  0  0  0  0  0  0  0
    5.7078   -1.6030   -0.0896 N   0  0  0  0  0  0  0  0  0  0  0  0
   -0.4044    2.3293   -0.5275 C   0  0  1  0  0  0  0  0  0  0  0  0
   -0.4495    3.4723    0.5036 C   0  0  0  0  0  0  0  0  0  0  0  0
   -1.6170    3.1302    1.4209 C   0  0  2  0  0  0  0  0  0  0  0  0
   -2.4858    2.2261    0.5672 C   0  0  0  0  0  0  0  0  0  0  0  0
   -2.0585    0.6665   -1.2349 C   0  0  0  0  0  0  0  0  0  0  0  0
    0.9466    1.6484   -0.5883 C   0  0  0  0  0  0  0  0  0  0  0  0
   -2.7741   -0.5748   -0.7725 C   0  0  0  0  0  0  0  0  0  0  0  0
   -2.0800   -1.7799   -0.6636 C   0  0  0  0  0  0  0  0  0  0  0  0
   -4.1307   -0.5200   -0.4525 C   0  0  0  0  0  0  0  0  0  0  0  0
    2.6504    0.4881   -0.4141 C   0  0  0  0  0  0  0  0  0  0  0  0
   -2.7425   -2.9301   -0.2350 C   0  0  0  0  0  0  0  0  0  0  0  0
   -4.7932   -1.6701   -0.0240 C   0  0  0  0  0  0  0  0  0  0  0  0
    3.5381   -0.5443    0.0373 C   0  0  0  0  0  0  0  0  0  0  0  0
   -4.0992   -2.8752    0.0848 C   0  0  0  0  0  0  0  0  0  0  0  0
    3.1369   -1.4650    0.9989 C   0  0  0  0  0  0  0  0  0  0  0  0
    4.8222   -0.6553   -0.4710 C   0  0  0  0  0  0  0  0  0  0  0  0
    4.0197   -2.4546    1.4169 C   0  0  0  0  0  0  0  0  0  0  0  0
    5.2823   -2.4803    0.8468 C   0  0  0  0  0  0  0  0  0  0  0  0
   -0.6236    2.7601   -1.5149 H   0  0  0  0  0  0  0  0  0  0  0  0
    0.4745    3.5690    1.0853 H   0  0  0  0  0  0  0  0  0  0  0  0
   -0.6168    4.4320   -0.0011 H   0  0  0  0  0  0  0  0  0  0  0  0
   -1.2656    2.6015    2.3154 H   0  0  0  0  0  0  0  0  0  0  0  0
   -3.1562    1.6362    1.2001 H   0  0  0  0  0  0  0  0  0  0  0  0
   -3.1014    2.8196   -0.1218 H   0  0  0  0  0  0  0  0  0  0  0  0
   -1.2636    0.3441   -1.9219 H   0  0  0  0  0  0  0  0  0  0  0  0
   -2.7247    1.2881   -1.8489 H   0  0  0  0  0  0  0  0  0  0  0  0
   -1.6727    4.8665    2.2893 H   0  0  0  0  0  0  0  0  0  0  0  0
   -1.0220   -1.8355   -0.9067 H   0  0  0  0  0  0  0  0  0  0  0  0
   -4.6854    0.4106   -0.5382 H   0  0  0  0  0  0  0  0  0  0  0  0
   -2.1888   -3.8620   -0.1542 H   0  0  0  0  0  0  0  0  0  0  0  0
   -5.8507   -1.6126    0.2207 H   0  0  0  0  0  0  0  0  0  0  0  0
    2.1434   -1.4356    1.4391 H   0  0  0  0  0  0  0  0  0  0  0  0
    5.2126    0.0231   -1.2239 H   0  0  0  0  0  0  0  0  0  0  0  0
    3.7289   -3.1831    2.1650 H   0  0  0  0  0  0  0  0  0  0  0  0
    6.0081   -3.2323    1.1385 H   0  0  0  0  0  0  0  0  0  0  0  0
  1 21  1  0  0  0  0
  2 10  1  0  0  0  0
  2 34  1  0  0  0  0
  3  6  1  0  0  0  0
  3 13  1  0  0  0  0
  4  8  1  0  0  0  0
  4 11  1  0  0  0  0
  4 12  1  0  0  0  0
  5 13  2  0  0  0  0
  5 17  1  0  0  0  0
  6 17  2  0  0  0  0
  7 23  1  0  0  0  0
  7 25  2  0  0  0  0
  8  9  1  0  0  0  0
  8 13  1  0  0  0  0
  8 26  1  0  0  0  0
  9 10  1  0  0  0  0
  9 27  1  0  0  0  0
  9 28  1  0  0  0  0
 10 11  1  0  0  0  0
 10 29  1  0  0  0  0
 11 30  1  0  0  0  0
 11 31  1  0  0  0  0
 12 14  1  0  0  0  0
 12 32  1  0  0  0  0
 12 33  1  0  0  0  0
 14 15  2  0  0  0  0
 14 16  1  0  0  0  0
 15 18  1  0  0  0  0
 15 35  1  0  0  0  0
 16 19  2  0  0  0  0
 16 36  1  0  0  0  0
 17 20  1  0  0  0  0
 18 21  2  0  0  0  0
 18 37  1  0  0  0  0
 19 21  1  0  0  0  0
 19 38  1  0  0  0  0
 20 22  1  0  0  0  0
 20 23  2  0  0  0  0
 22 24  2  0  0  0  0
 22 39  1  0  0  0  0
 23 40  1  0  0  0  0
 24 25  1  0  0  0  0
 24 41  1  0  0  0  0
 25 42  1  0  0  0  0
M  END
> <PUBCHEM_COMPOUND_CID>
26743958

> <PUBCHEM_CONFORMER_RMSD>
0.8

> <PUBCHEM_CONFORMER_DIVERSEORDER>
1
40
62
63
73
70
18
68
54
71
32
25
26
49
53
47
50
31
44
10
7
72
35
46
52
66
13
9
61
48
28
60
23
33
3
57
59
11
36
8
19
38
2
64
41
55
14
12
42
5
69
58
27
17
34
51
30
6
21
65
24
45
56
22
43
29
16
15
37
4
67
20
39

> <PUBCHEM_MMFF94_PARTIAL_CHARGES>
33
1 -0.18
10 0.28
11 0.27
12 0.41
13 0.3
14 -0.14
15 -0.15
16 -0.15
17 0.46
18 -0.15
19 -0.15
2 -0.68
20 0.05
21 0.18
22 -0.15
23 0.16
24 -0.15
25 0.16
3 -0.02
34 0.4
35 0.15
36 0.15
37 0.15
38 0.15
39 0.15
4 -0.81
40 0.15
41 0.15
42 0.15
5 -0.57
6 -0.41
7 -0.62
8 0.45

> <PUBCHEM_EFFECTIVE_ROTOR_COUNT>
5

> <PUBCHEM_PHARMACOPHORE_FEATURES>
9
1 2 acceptor
1 2 donor
1 4 cation
1 7 acceptor
3 5 6 17 cation
5 3 5 6 13 17 rings
5 4 8 9 10 11 rings
6 14 15 16 18 19 21 rings
6 7 20 22 23 24 25 rings

> <PUBCHEM_HEAVY_ATOM_COUNT>
25

> <PUBCHEM_ATOM_DEF_STEREO_COUNT>
2

> <PUBCHEM_ATOM_UDEF_STEREO_COUNT>
0

> <PUBCHEM_BOND_DEF_STEREO_COUNT>
0

> <PUBCHEM_BOND_UDEF_STEREO_COUNT>
0

> <PUBCHEM_ISOTOPIC_ATOM_COUNT>
0

> <PUBCHEM_COMPONENT_COUNT>
1

> <PUBCHEM_CACTVS_TAUTO_COUNT>
1

> <PUBCHEM_CONFORMER_ID>
0198149600000001

> <PUBCHEM_MMFF94_ENERGY>
54.1903

> <PUBCHEM_FEATURE_SELFOVERLAP>
45.672

> <PUBCHEM_SHAPE_FINGERPRINT>
10074138 170 18058456413523914969
10622 236 18042106696872461602
10928967 22 17680993990119904818
11315621 246 18191594043459403750
114674 6 17545317944275383795
11552529 35 18268703918784880272
12107183 9 18341065103082251739
12403259 118 10447384076822020829
12553582 1 18058169608075519181
12760667 363 18412537713488683527
12788726 201 18342472455430574069
12824470 246 18408040731926004517
13004483 165 18272366499148818453
13009979 54 18410860949460558028
13631057 29 18409449219891382900
13911852 28 18266176326395277935
13955234 65 17477769447865810833
14178342 30 18198345044183547686
14844126 61 18271797982827967947
14866123 147 18339925922977949131
15042514 8 18340772537782635421
15099037 8 18408041801562713212
15352361 1 18335415789956826286
15475509 35 17686629348174320707
15728490 83 18188773838219362995
15842332 3 18190484717304173196
17492 89 18335416902516860166
17909252 39 18337955692351232714
19319366 153 17615978037406624292
19784866 135 18342736312741489537
20291156 8 18335696169647947454
20775530 9 18335128838770212654
23559900 14 18336251440300213245
23598288 3 18343021090606261829
23728640 28 18196657298056402593
25222932 49 17909552001283103726
3004659 81 18186513332421799174
3421961 26 18123751126039219633
345986 75 17985842638416536355
4435113 14 17484249557168803534
463206 1 18193274323989993010
484985 159 18263639563721613775
58807428 26 17623017793879827673
6433294 58 17829892388277678299
6679774 75 17398430466637735643
7970288 3 18408318899815391970
79837 15 17839753568928075201
88748 71 18189617310035493471

> <PUBCHEM_SHAPE_MULTIPOLES>
484.7
11.41
5.5
1.27
6.7
1.49
0.21
-14.87
0.98
-4.98
2.63
0.2
0.73
-1.99

> <PUBCHEM_SHAPE_SELFOVERLAP>
1047.056

> <PUBCHEM_SHAPE_VOLUME>
268.6

> <PUBCHEM_COORDINATE_TYPE>
2
5
10

$$$$
