56775692
  -OEChem-12032416273D

 47 50  0     0  0  0  0  0  0999 V2000
   -1.0310   -4.3019    1.1838 O   0  0  0  0  0  0  0  0  0  0  0  0
    3.6861   -1.2628    0.0565 O   0  0  0  0  0  0  0  0  0  0  0  0
   -6.1662    2.4850    0.5045 O   0  0  0  0  0  0  0  0  0  0  0  0
   -1.1445   -1.3904    0.3459 N   0  0  0  0  0  0  0  0  0  0  0  0
    2.7816   -2.2781   -0.2303 N   0  0  0  0  0  0  0  0  0  0  0  0
    5.1730    0.8084    0.4921 N   0  0  0  0  0  0  0  0  0  0  0  0
   -0.4580   -2.6325   -0.0164 C   0  0  0  0  0  0  0  0  0  0  0  0
   -1.4827   -3.7595   -0.0781 C   0  0  0  0  0  0  0  0  0  0  0  0
    0.0246   -3.3166    1.2575 C   0  0  0  0  0  0  0  0  0  0  0  0
    0.4991   -2.4593   -1.1559 C   0  0  0  0  0  0  0  0  0  0  0  0
   -1.8197   -0.8525   -0.8365 C   0  0  0  0  0  0  0  0  0  0  0  0
    1.7084   -1.6552   -0.7255 C   0  0  0  0  0  0  0  0  0  0  0  0
   -2.9688    0.0292   -0.4824 C   0  0  0  0  0  0  0  0  0  0  0  0
    1.8761   -0.2606   -0.7747 C   0  0  0  0  0  0  0  0  0  0  0  0
    3.1354   -0.0662   -0.2720 C   0  0  0  0  0  0  0  0  0  0  0  0
   -4.1720   -0.5309   -0.0528 C   0  0  0  0  0  0  0  0  0  0  0  0
   -2.8403    1.4147   -0.5803 C   0  0  0  0  0  0  0  0  0  0  0  0
    3.9580    1.0839   -0.0329 C   0  0  0  0  0  0  0  0  0  0  0  0
   -5.2465    0.2943    0.2786 C   0  0  0  0  0  0  0  0  0  0  0  0
   -3.9149    2.2400   -0.2491 C   0  0  0  0  0  0  0  0  0  0  0  0
   -5.1179    1.6798    0.1804 C   0  0  0  0  0  0  0  0  0  0  0  0
    3.5122    2.3622   -0.3281 C   0  0  0  0  0  0  0  0  0  0  0  0
    4.3688    3.4262   -0.0682 C   0  0  0  0  0  0  0  0  0  0  0  0
    5.9780    1.8678    0.7312 C   0  0  0  0  0  0  0  0  0  0  0  0
    5.6271    3.1827    0.4715 C   0  0  0  0  0  0  0  0  0  0  0  0
   -5.9660    3.8924    0.3812 C   0  0  0  0  0  0  0  0  0  0  0  0
   -1.3356   -4.4872   -0.8836 H   0  0  0  0  0  0  0  0  0  0  0  0
   -2.5456   -3.5023   -0.0333 H   0  0  0  0  0  0  0  0  0  0  0  0
   -0.0265   -2.7435    2.1895 H   0  0  0  0  0  0  0  0  0  0  0  0
    0.9983   -3.8138    1.2066 H   0  0  0  0  0  0  0  0  0  0  0  0
    0.0589   -2.0232   -2.0587 H   0  0  0  0  0  0  0  0  0  0  0  0
    0.8629   -3.4445   -1.4824 H   0  0  0  0  0  0  0  0  0  0  0  0
   -0.5511   -0.6724    0.7597 H   0  0  0  0  0  0  0  0  0  0  0  0
   -2.2161   -1.6401   -1.4920 H   0  0  0  0  0  0  0  0  0  0  0  0
   -1.1132   -0.2828   -1.4517 H   0  0  0  0  0  0  0  0  0  0  0  0
    1.1829    0.4887   -1.1272 H   0  0  0  0  0  0  0  0  0  0  0  0
   -4.2862   -1.6086    0.0273 H   0  0  0  0  0  0  0  0  0  0  0  0
   -1.9078    1.8648   -0.9110 H   0  0  0  0  0  0  0  0  0  0  0  0
   -6.1812   -0.1477    0.6125 H   0  0  0  0  0  0  0  0  0  0  0  0
   -3.7464    3.3070   -0.3473 H   0  0  0  0  0  0  0  0  0  0  0  0
    2.5313    2.5556   -0.7492 H   0  0  0  0  0  0  0  0  0  0  0  0
    4.0567    4.4433   -0.2856 H   0  0  0  0  0  0  0  0  0  0  0  0
    6.9480    1.6246    1.1522 H   0  0  0  0  0  0  0  0  0  0  0  0
    6.3112    3.9967    0.6822 H   0  0  0  0  0  0  0  0  0  0  0  0
   -6.9006    4.3791    0.6788 H   0  0  0  0  0  0  0  0  0  0  0  0
   -5.7715    4.1818   -0.6571 H   0  0  0  0  0  0  0  0  0  0  0  0
   -5.1881    4.2496    1.0645 H   0  0  0  0  0  0  0  0  0  0  0  0
  1  8  1  0  0  0  0
  1  9  1  0  0  0  0
  2  5  1  0  0  0  0
  2 15  1  0  0  0  0
  3 21  1  0  0  0  0
  3 26  1  0  0  0  0
  4  7  1  0  0  0  0
  4 11  1  0  0  0  0
  4 33  1  0  0  0  0
  5 12  2  0  0  0  0
  6 18  1  0  0  0  0
  6 24  2  0  0  0  0
  7  8  1  0  0  0  0
  7  9  1  0  0  0  0
  7 10  1  0  0  0  0
  8 27  1  0  0  0  0
  8 28  1  0  0  0  0
  9 29  1  0  0  0  0
  9 30  1  0  0  0  0
 10 12  1  0  0  0  0
 10 31  1  0  0  0  0
 10 32  1  0  0  0  0
 11 13  1  0  0  0  0
 11 34  1  0  0  0  0
 11 35  1  0  0  0  0
 12 14  1  0  0  0  0
 13 16  2  0  0  0  0
 13 17  1  0  0  0  0
 14 15  2  0  0  0  0
 14 36  1  0  0  0  0
 15 18  1  0  0  0  0
 16 19  1  0  0  0  0
 16 37  1  0  0  0  0
 17 20  2  0  0  0  0
 17 38  1  0  0  0  0
 18 22  2  0  0  0  0
 19 21  2  0  0  0  0
 19 39  1  0  0  0  0
 20 21  1  0  0  0  0
 20 40  1  0  0  0  0
 22 23  1  0  0  0  0
 22 41  1  0  0  0  0
 23 25  2  0  0  0  0
 23 42  1  0  0  0  0
 24 25  1  0  0  0  0
 24 43  1  0  0  0  0
 25 44  1  0  0  0  0
 26 45  1  0  0  0  0
 26 46  1  0  0  0  0
 26 47  1  0  0  0  0
M  END
> <PUBCHEM_COMPOUND_CID>
56775692

> <PUBCHEM_CONFORMER_RMSD>
1

> <PUBCHEM_CONFORMER_DIVERSEORDER>
1
14
42
73
20
103
86
89
35
93
97
88
119
65
114
111
71
66
115
50
64
23
62
41
30
116
13
19
49
109
52
36
90
29
46
51
107
85
78
105
60
98
95
69
37
76
80
63
72
112
11
55
12
101
28
15
113
99
94
96
108
104
79
77
118
18
67
38
82
27
87
48
57
117
44
84
31
47
40
24
58
110
56
17
43
45
106
9
61
59
54
6
5
70
100
34
33
7
81
102
10
39
25
92
83
32
53
75
68
21
16
91
3
8
22
4
2
74
26

> <PUBCHEM_MMFF94_PARTIAL_CHARGES>
36
1 -0.52
10 0.18
11 0.41
12 0.11
13 -0.14
14 -0.15
15 0.09
16 -0.15
17 -0.15
18 0.36
19 -0.15
2 -0.02
20 -0.15
21 0.08
22 -0.15
23 -0.15
24 0.16
25 -0.15
26 0.28
3 -0.36
33 0.36
36 0.15
37 0.15
38 0.15
39 0.15
4 -0.84
40 0.15
41 0.15
42 0.15
43 0.15
44 0.15
5 -0.41
6 -0.62
7 0.21
8 0.26
9 0.26

> <PUBCHEM_EFFECTIVE_ROTOR_COUNT>
7.8

> <PUBCHEM_PHARMACOPHORE_FEATURES>
10
1 1 acceptor
1 3 acceptor
1 4 cation
1 4 donor
1 5 acceptor
1 6 acceptor
4 1 7 8 9 rings
5 2 5 12 14 15 rings
6 13 16 17 19 20 21 rings
6 6 18 22 23 24 25 rings

> <PUBCHEM_HEAVY_ATOM_COUNT>
26

> <PUBCHEM_ATOM_DEF_STEREO_COUNT>
0

> <PUBCHEM_ATOM_UDEF_STEREO_COUNT>
0

> <PUBCHEM_BOND_DEF_STEREO_COUNT>
0

> <PUBCHEM_BOND_UDEF_STEREO_COUNT>
0

> <PUBCHEM_ISOTOPIC_ATOM_COUNT>
0

> <PUBCHEM_COMPONENT_COUNT>
1

> <PUBCHEM_CACTVS_TAUTO_COUNT>
1

> <PUBCHEM_CONFORMER_ID>
0362540C00000001

> <PUBCHEM_MMFF94_ENERGY>
72.9167

> <PUBCHEM_FEATURE_SELFOVERLAP>
50.748

> <PUBCHEM_SHAPE_FINGERPRINT>
10439779 11 18340196509902231240
10675989 125 18198628722199802913
11720765 8 17699581242830010814
12107183 9 18262502750946444362
12769317 202 18270954653072454233
12788726 201 18048300438976472971
12925494 130 18339636858103514680
13590594 115 17188426970873260994
13955234 65 17901672566694881475
13965767 371 18040428872113553502
14223995 32 18200583813605540816
14251764 30 8935000369327756937
14251764 75 18271815566862356665
14429114 114 18342455898807239809
14565420 104 18335703780873172179
14790565 3 18411421674869080089
14849402 71 18264490577210997914
14955137 171 17757263786922914114
15142526 21 18336267847497264163
15338160 23 18048036560622594620
17810953 82 18411421678863510164
17980427 26 18338784620533361590
19246450 95 17683483340395660056
20238998 120 17618223253590143835
20715895 44 18341611495361811680
21033648 29 18334024886256541590
21401589 2 18411705425872295059
22122407 14 17981619169642053681
23845131 108 18260549987956812891
245318 6 18115604766695436884
2748736 6 18341601620868436249
2838139 119 18271522087166638774
3117164 225 18261942021475401082
3246875 12 18411139169353042795
376196 1 18341332219013068407
5104073 3 18260833657539914619
5109719 28 18339934723392962369
57091435 61 18268146470658496561
5951187 136 17913780418487827557
633830 44 18341608162409220039
7288768 16 18261108612350301867
7808743 9 18339355383073614754
9849439 229 18335991921259850877
9981440 41 18339921644700704562

> <PUBCHEM_SHAPE_MULTIPOLES>
502.52
14.54
5.66
0.93
0.46
1.41
0.04
-21.31
2.68
1.67
1.31
-0.05
0.47
0.32

> <PUBCHEM_SHAPE_SELFOVERLAP>
1090.985

> <PUBCHEM_SHAPE_VOLUME>
275.5

> <PUBCHEM_COORDINATE_TYPE>
2
5
10

$$$$
