45783390
  -OEChem-12032416273D

 52 55  0     1  0  0  0  0  0999 V2000
   -0.5988    2.0167    1.6857 O   0  0  0  0  0  0  0  0  0  0  0  0
   -0.0369   -3.4383   -0.7708 O   0  0  0  0  0  0  0  0  0  0  0  0
   -2.8992   -0.3894    0.5597 N   0  0  1  0  0  0  0  0  0  0  0  0
    0.1572   -0.0340    1.1958 N   0  0  0  0  0  0  0  0  0  0  0  0
    0.7722    2.1564    1.4357 N   0  0  0  0  0  0  0  0  0  0  0  0
   -1.2460    3.1345   -2.0763 N   0  0  0  0  0  0  0  0  0  0  0  0
    1.7701   -1.2636   -0.5713 N   0  0  0  0  0  0  0  0  0  0  0  0
    4.0871   -0.8446   -0.3359 N   0  0  0  0  0  0  0  0  0  0  0  0
   -2.3179    0.2802    1.7403 C   0  0  1  0  0  0  0  0  0  0  0  0
   -2.4760   -0.7379    2.8848 C   0  0  0  0  0  0  0  0  0  0  0  0
   -3.2096   -1.9198    2.2671 C   0  0  0  0  0  0  0  0  0  0  0  0
   -3.9108   -1.3168    1.0668 C   0  0  0  0  0  0  0  0  0  0  0  0
   -3.4496    0.5424   -0.4162 C   0  0  0  0  0  0  0  0  0  0  0  0
   -0.8783    0.6969    1.5233 C   0  0  0  0  0  0  0  0  0  0  0  0
   -2.3754    1.1520   -1.2772 C   0  0  0  0  0  0  0  0  0  0  0  0
    1.1465    0.9049    1.1539 C   0  0  0  0  0  0  0  0  0  0  0  0
   -1.5384    0.3546   -2.0499 C   0  0  0  0  0  0  0  0  0  0  0  0
   -2.1899    2.5242   -1.3252 C   0  0  0  0  0  0  0  0  0  0  0  0
    2.4999    0.5590    0.8283 C   0  0  0  0  0  0  0  0  0  0  0  0
   -0.5553    0.9456   -2.8358 C   0  0  0  0  0  0  0  0  0  0  0  0
    2.8222   -0.4952   -0.0111 C   0  0  0  0  0  0  0  0  0  0  0  0
   -0.4512    2.3271   -2.8141 C   0  0  0  0  0  0  0  0  0  0  0  0
    3.5430    1.3026    1.3692 C   0  0  0  0  0  0  0  0  0  0  0  0
    2.0040   -2.3660   -1.4450 C   0  0  0  0  0  0  0  0  0  0  0  0
    4.8578    0.9738    1.0585 C   0  0  0  0  0  0  0  0  0  0  0  0
    5.0745   -0.0991    0.2088 C   0  0  0  0  0  0  0  0  0  0  0  0
    0.6809   -2.9579   -1.9005 C   0  0  0  0  0  0  0  0  0  0  0  0
   -1.2823   -4.0083   -1.1488 C   0  0  0  0  0  0  0  0  0  0  0  0
   -2.9045    1.1693    2.0116 H   0  0  0  0  0  0  0  0  0  0  0  0
   -1.5281   -1.0580    3.3306 H   0  0  0  0  0  0  0  0  0  0  0  0
   -3.0907   -0.3025    3.6822 H   0  0  0  0  0  0  0  0  0  0  0  0
   -3.9061   -2.3877    2.9691 H   0  0  0  0  0  0  0  0  0  0  0  0
   -2.4867   -2.6800    1.9457 H   0  0  0  0  0  0  0  0  0  0  0  0
   -4.8223   -0.7931    1.3817 H   0  0  0  0  0  0  0  0  0  0  0  0
   -4.1750   -2.0815    0.3298 H   0  0  0  0  0  0  0  0  0  0  0  0
   -4.0667    1.3151    0.0608 H   0  0  0  0  0  0  0  0  0  0  0  0
   -4.1220    0.0093   -1.1030 H   0  0  0  0  0  0  0  0  0  0  0  0
   -1.6535   -0.7244   -2.0549 H   0  0  0  0  0  0  0  0  0  0  0  0
   -2.8095    3.1996   -0.7436 H   0  0  0  0  0  0  0  0  0  0  0  0
    0.1077    0.3440   -3.4469 H   0  0  0  0  0  0  0  0  0  0  0  0
    0.2996    2.8367   -3.4090 H   0  0  0  0  0  0  0  0  0  0  0  0
    3.3642    2.1383    2.0413 H   0  0  0  0  0  0  0  0  0  0  0  0
    0.8663   -0.8070   -0.6317 H   0  0  0  0  0  0  0  0  0  0  0  0
    2.5758   -2.0483   -2.3242 H   0  0  0  0  0  0  0  0  0  0  0  0
    2.5795   -3.1362   -0.9179 H   0  0  0  0  0  0  0  0  0  0  0  0
    5.6870    1.5380    1.4697 H   0  0  0  0  0  0  0  0  0  0  0  0
    6.0816   -0.3965   -0.0644 H   0  0  0  0  0  0  0  0  0  0  0  0
    0.0857   -2.2088   -2.4311 H   0  0  0  0  0  0  0  0  0  0  0  0
    0.8764   -3.7912   -2.5855 H   0  0  0  0  0  0  0  0  0  0  0  0
   -1.1276   -4.8610   -1.8169 H   0  0  0  0  0  0  0  0  0  0  0  0
   -1.7877   -4.3599   -0.2453 H   0  0  0  0  0  0  0  0  0  0  0  0
   -1.9168   -3.2597   -1.6328 H   0  0  0  0  0  0  0  0  0  0  0  0
  1  5  1  0  0  0  0
  1 14  1  0  0  0  0
  2 27  1  0  0  0  0
  2 28  1  0  0  0  0
  3  9  1  0  0  0  0
  3 12  1  0  0  0  0
  3 13  1  0  0  0  0
  4 14  2  0  0  0  0
  4 16  1  0  0  0  0
  5 16  2  0  0  0  0
  6 18  1  0  0  0  0
  6 22  2  0  0  0  0
  7 21  1  0  0  0  0
  7 24  1  0  0  0  0
  7 43  1  0  0  0  0
  8 21  1  0  0  0  0
  8 26  2  0  0  0  0
  9 10  1  0  0  0  0
  9 14  1  0  0  0  0
  9 29  1  0  0  0  0
 10 11  1  0  0  0  0
 10 30  1  0  0  0  0
 10 31  1  0  0  0  0
 11 12  1  0  0  0  0
 11 32  1  0  0  0  0
 11 33  1  0  0  0  0
 12 34  1  0  0  0  0
 12 35  1  0  0  0  0
 13 15  1  0  0  0  0
 13 36  1  0  0  0  0
 13 37  1  0  0  0  0
 15 17  1  0  0  0  0
 15 18  2  0  0  0  0
 16 19  1  0  0  0  0
 17 20  2  0  0  0  0
 17 38  1  0  0  0  0
 18 39  1  0  0  0  0
 19 21  2  0  0  0  0
 19 23  1  0  0  0  0
 20 22  1  0  0  0  0
 20 40  1  0  0  0  0
 22 41  1  0  0  0  0
 23 25  2  0  0  0  0
 23 42  1  0  0  0  0
 24 27  1  0  0  0  0
 24 44  1  0  0  0  0
 24 45  1  0  0  0  0
 25 26  1  0  0  0  0
 25 46  1  0  0  0  0
 26 47  1  0  0  0  0
 27 48  1  0  0  0  0
 27 49  1  0  0  0  0
 28 50  1  0  0  0  0
 28 51  1  0  0  0  0
 28 52  1  0  0  0  0
M  END
> <PUBCHEM_COMPOUND_CID>
45783390

> <PUBCHEM_CONFORMER_RMSD>
1

> <PUBCHEM_CONFORMER_DIVERSEORDER>
1
96
166
165
84
44
86
59
124
133
14
154
89
101
74
186
164
54
181
39
184
107
102
10
29
187
180
162
125
158
50
159
185
92
80
156
163
149
104
72
105
130
79
189
117
139
60
152
176
26
128
55
138
171
73
119
177
135
69
56
167
76
2
122
144
178
146
57
188
66
169
142
25
134
68
36
33
115
175
88
30
90
131
143
145
35
153
31
18
150
179
5
155
190
34
160
148
67
126
58
28
147
157
183
81
168
64
16
108
4
113
136
100
42
132
161
95
99
121
71
7
141
151
174
32
24
70
12
87
110
40
41
111
83
21
172
127
129
6
91
49
114
97
43
116
23
61
118
38
53
3
52
11
75
112
170
77
93
8
63
19
106
62
82
109
27
48
65
78
94
15
120
47
182
98
46
45
17
137
13
123
37
103
51
9
85
173
22
140
20

> <PUBCHEM_MMFF94_PARTIAL_CHARGES>
34
1 -0.02
12 0.27
13 0.41
14 0.3
15 -0.14
16 0.46
17 -0.15
18 0.16
19 0.05
2 -0.56
20 -0.15
21 0.41
22 0.16
23 -0.15
24 0.37
25 -0.15
26 0.16
27 0.28
28 0.28
3 -0.81
38 0.15
39 0.15
4 -0.57
40 0.15
41 0.15
42 0.15
43 0.4
46 0.15
47 0.15
5 -0.41
6 -0.62
7 -0.87
8 -0.62
9 0.45

> <PUBCHEM_EFFECTIVE_ROTOR_COUNT>
9

> <PUBCHEM_PHARMACOPHORE_FEATURES>
11
1 2 acceptor
1 3 cation
1 6 acceptor
1 7 cation
1 7 donor
1 8 acceptor
3 4 5 16 cation
5 1 4 5 14 16 rings
5 3 9 10 11 12 rings
6 6 15 17 18 20 22 rings
6 8 19 21 23 25 26 rings

> <PUBCHEM_HEAVY_ATOM_COUNT>
28

> <PUBCHEM_ATOM_DEF_STEREO_COUNT>
1

> <PUBCHEM_ATOM_UDEF_STEREO_COUNT>
0

> <PUBCHEM_BOND_DEF_STEREO_COUNT>
0

> <PUBCHEM_BOND_UDEF_STEREO_COUNT>
0

> <PUBCHEM_ISOTOPIC_ATOM_COUNT>
0

> <PUBCHEM_COMPONENT_COUNT>
1

> <PUBCHEM_CACTVS_TAUTO_COUNT>
8

> <PUBCHEM_CONFORMER_ID>
02BA995E00000001

> <PUBCHEM_MMFF94_ENERGY>
67.3875

> <PUBCHEM_FEATURE_SELFOVERLAP>
55.822

> <PUBCHEM_SHAPE_FINGERPRINT>
11578080 2 17902535704306554268
12156800 1 16980718680241130726
13583140 156 18041821979590341120
13911987 19 18272927254748777264
14468879 13 18191572073894335533
14910302 57 17968653818240902114
16752209 62 14835257876075798445
1813 80 17751390415139609137
20600515 1 17312825966090610613
23419403 2 17473849237946932873
23557571 272 17821734905178061488
238 59 17766795586282525511
35225 105 17098579527832134759
469060 322 18044919410735047942
550186 7 17677045725426170166

> <PUBCHEM_SHAPE_MULTIPOLES>
534.6
7.14
3.66
3.08
7.33
1.99
0.48
0.65
-3.4
-1.78
2.91
-1.79
-0.41
2.48

> <PUBCHEM_SHAPE_SELFOVERLAP>
1145.415

> <PUBCHEM_SHAPE_VOLUME>
296.2

> <PUBCHEM_COORDINATE_TYPE>
2
5
10

$$$$
