11912954
  -OEChem-12032416373D

 65 69  0     1  0  0  0  0  0999 V2000
   -2.1860   -1.9758    1.8294 O   0  0  0  0  0  0  0  0  0  0  0  0
   -2.3234   -3.7096   -0.7374 O   0  0  0  0  0  0  0  0  0  0  0  0
    0.7100   -2.3449    0.8394 N   0  0  0  0  0  0  0  0  0  0  0  0
   -3.8518   -1.0689   -1.2935 N   0  0  0  0  0  0  0  0  0  0  0  0
   -4.4298    0.8568   -0.0837 N   0  0  0  0  0  0  0  0  0  0  0  0
   -4.3854    0.8758   -2.4930 N   0  0  0  0  0  0  0  0  0  0  0  0
   -1.4231   -2.6722   -0.3101 C   0  0  1  0  0  0  0  0  0  0  0  0
   -2.2494   -1.6398    0.4317 C   0  0  1  0  0  0  0  0  0  0  0  0
   -0.4676   -3.2040    0.7356 C   0  0  2  0  0  0  0  0  0  0  0  0
   -3.6514   -1.8470   -0.0905 C   0  0  2  0  0  0  0  0  0  0  0  0
   -1.2988   -3.0909    2.0044 C   0  0  0  0  0  0  0  0  0  0  0  0
   -3.6697   -3.3301   -0.4139 C   0  0  0  0  0  0  0  0  0  0  0  0
    1.5174   -2.4276   -0.3683 C   0  0  0  0  0  0  0  0  0  0  0  0
   -4.2337    0.2610   -1.2899 C   0  0  0  0  0  0  0  0  0  0  0  0
    2.7365   -1.5476   -0.2892 C   0  0  0  0  0  0  0  0  0  0  0  0
   -5.0206    2.8228    1.1977 C   0  0  0  0  0  0  0  0  0  0  0  0
   -4.8011    2.1533   -0.1173 C   0  0  0  0  0  0  0  0  0  0  0  0
    3.9175   -2.0607    0.2286 C   0  0  0  0  0  0  0  0  0  0  0  0
    2.6617   -0.2355   -0.7352 C   0  0  0  0  0  0  0  0  0  0  0  0
   -4.9820    2.8691   -1.2832 C   0  0  0  0  0  0  0  0  0  0  0  0
   -4.7581    2.1720   -2.4527 C   0  0  0  0  0  0  0  0  0  0  0  0
   -6.4840    3.3474    1.3276 C   0  0  0  0  0  0  0  0  0  0  0  0
   -4.0655    4.0432    1.3773 C   0  0  0  0  0  0  0  0  0  0  0  0
   -4.7874    1.9227    2.4561 C   0  0  0  0  0  0  0  0  0  0  0  0
    5.0466   -1.2451    0.3022 C   0  0  0  0  0  0  0  0  0  0  0  0
    3.7910    0.5800   -0.6618 C   0  0  0  0  0  0  0  0  0  0  0  0
    4.9834    0.0752   -0.1430 C   0  0  0  0  0  0  0  0  0  0  0  0
    6.1547    0.9213   -0.0677 C   0  0  0  0  0  0  0  0  0  0  0  0
    6.3903    1.6859    1.0751 C   0  0  0  0  0  0  0  0  0  0  0  0
    7.0488    0.9721   -1.1372 C   0  0  0  0  0  0  0  0  0  0  0  0
    7.5194    2.5014    1.1481 C   0  0  0  0  0  0  0  0  0  0  0  0
    8.1781    1.7875   -1.0640 C   0  0  0  0  0  0  0  0  0  0  0  0
    8.4134    2.5522    0.0787 C   0  0  0  0  0  0  0  0  0  0  0  0
   -0.9951   -2.2660   -1.2271 H   0  0  0  0  0  0  0  0  0  0  0  0
   -1.8603   -0.6224    0.3232 H   0  0  0  0  0  0  0  0  0  0  0  0
   -0.1720   -4.2467    0.5724 H   0  0  0  0  0  0  0  0  0  0  0  0
   -4.4334   -1.6306    0.6464 H   0  0  0  0  0  0  0  0  0  0  0  0
   -0.7093   -2.9504    2.9162 H   0  0  0  0  0  0  0  0  0  0  0  0
   -1.9175   -3.9849    2.1440 H   0  0  0  0  0  0  0  0  0  0  0  0
   -4.3301   -3.5963   -1.2450 H   0  0  0  0  0  0  0  0  0  0  0  0
   -3.9681   -3.9168    0.4619 H   0  0  0  0  0  0  0  0  0  0  0  0
    1.2676   -2.6367    1.6423 H   0  0  0  0  0  0  0  0  0  0  0  0
   -3.6575   -1.4879   -2.1959 H   0  0  0  0  0  0  0  0  0  0  0  0
    1.8389   -3.4638   -0.5400 H   0  0  0  0  0  0  0  0  0  0  0  0
    0.9756   -2.1326   -1.2714 H   0  0  0  0  0  0  0  0  0  0  0  0
    3.9770   -3.0870    0.5797 H   0  0  0  0  0  0  0  0  0  0  0  0
    1.7373    0.1683   -1.1387 H   0  0  0  0  0  0  0  0  0  0  0  0
   -5.2798    3.9090   -1.3097 H   0  0  0  0  0  0  0  0  0  0  0  0
   -4.8753    2.6506   -3.4190 H   0  0  0  0  0  0  0  0  0  0  0  0
   -7.2026    2.5272    1.2138 H   0  0  0  0  0  0  0  0  0  0  0  0
   -6.7183    4.1001    0.5668 H   0  0  0  0  0  0  0  0  0  0  0  0
   -6.6554    3.8121    2.3055 H   0  0  0  0  0  0  0  0  0  0  0  0
   -4.2042    4.5171    2.3561 H   0  0  0  0  0  0  0  0  0  0  0  0
   -4.2382    4.8138    0.6180 H   0  0  0  0  0  0  0  0  0  0  0  0
   -3.0172    3.7312    1.2998 H   0  0  0  0  0  0  0  0  0  0  0  0
   -4.9643    2.4741    3.3865 H   0  0  0  0  0  0  0  0  0  0  0  0
   -5.4593    1.0565    2.4479 H   0  0  0  0  0  0  0  0  0  0  0  0
   -3.7586    1.5445    2.4817 H   0  0  0  0  0  0  0  0  0  0  0  0
    5.9681   -1.6544    0.7096 H   0  0  0  0  0  0  0  0  0  0  0  0
    3.7243    1.6072   -1.0129 H   0  0  0  0  0  0  0  0  0  0  0  0
    5.7037    1.6580    1.9180 H   0  0  0  0  0  0  0  0  0  0  0  0
    6.8805    0.3825   -2.0354 H   0  0  0  0  0  0  0  0  0  0  0  0
    7.7028    3.0967    2.0378 H   0  0  0  0  0  0  0  0  0  0  0  0
    8.8744    1.8272   -1.8965 H   0  0  0  0  0  0  0  0  0  0  0  0
    9.2927    3.1871    0.1356 H   0  0  0  0  0  0  0  0  0  0  0  0
  1  8  1  0  0  0  0
  1 11  1  0  0  0  0
  2  7  1  0  0  0  0
  2 12  1  0  0  0  0
  3  9  1  0  0  0  0
  3 13  1  0  0  0  0
  3 42  1  0  0  0  0
  4 10  1  0  0  0  0
  4 14  1  0  0  0  0
  4 43  1  0  0  0  0
  5 14  1  0  0  0  0
  5 17  2  0  0  0  0
  6 14  2  0  0  0  0
  6 21  1  0  0  0  0
  7  8  1  0  0  0  0
  7  9  1  0  0  0  0
  7 34  1  0  0  0  0
  8 10  1  0  0  0  0
  8 35  1  0  0  0  0
  9 11  1  0  0  0  0
  9 36  1  0  0  0  0
 10 12  1  0  0  0  0
 10 37  1  0  0  0  0
 11 38  1  0  0  0  0
 11 39  1  0  0  0  0
 12 40  1  0  0  0  0
 12 41  1  0  0  0  0
 13 15  1  0  0  0  0
 13 44  1  0  0  0  0
 13 45  1  0  0  0  0
 15 18  2  0  0  0  0
 15 19  1  0  0  0  0
 16 17  1  0  0  0  0
 16 22  1  0  0  0  0
 16 23  1  0  0  0  0
 16 24  1  0  0  0  0
 17 20  1  0  0  0  0
 18 25  1  0  0  0  0
 18 46  1  0  0  0  0
 19 26  2  0  0  0  0
 19 47  1  0  0  0  0
 20 21  2  0  0  0  0
 20 48  1  0  0  0  0
 21 49  1  0  0  0  0
 22 50  1  0  0  0  0
 22 51  1  0  0  0  0
 22 52  1  0  0  0  0
 23 53  1  0  0  0  0
 23 54  1  0  0  0  0
 23 55  1  0  0  0  0
 24 56  1  0  0  0  0
 24 57  1  0  0  0  0
 24 58  1  0  0  0  0
 25 27  2  0  0  0  0
 25 59  1  0  0  0  0
 26 27  1  0  0  0  0
 26 60  1  0  0  0  0
 27 28  1  0  0  0  0
 28 29  2  0  0  0  0
 28 30  1  0  0  0  0
 29 31  1  0  0  0  0
 29 61  1  0  0  0  0
 30 32  2  0  0  0  0
 30 62  1  0  0  0  0
 31 33  2  0  0  0  0
 31 63  1  0  0  0  0
 32 33  1  0  0  0  0
 32 64  1  0  0  0  0
 33 65  1  0  0  0  0
M  END
> <PUBCHEM_COMPOUND_CID>
11912954

> <PUBCHEM_CONFORMER_RMSD>
1

> <PUBCHEM_CONFORMER_DIVERSEORDER>
1
14
9
94
82
142
52
68
41
126
61
49
111
135
95
11
46
67
104
28
98
36
26
89
80
30
19
74
62
122
100
130
114
136
7
108
23
139
66
21
93
137
77
88
33
87
37
107
6
101
102
131
27
120
44
103
112
109
116
22
138
110
5
133
119
72
117
83
65
73
25
118
60
132
140
34
134
2
90
81
70
141
85
86
8
54
145
58
31
69
56
105
50
129
18
16
84
92
35
53
10
13
63
128
43
121
106
20
57
71
125
91
39
55
17
15
12
124
96
144
24
64
76
75
123
143
38
45
113
115
47
97
32
99
40
146
127
79
48
59
78
51
29
4
42
3

> <PUBCHEM_MMFF94_PARTIAL_CHARGES>
41
1 -0.56
10 0.37
11 0.28
12 0.28
13 0.41
14 0.72
15 -0.14
16 0.14
17 0.17
18 -0.15
19 -0.15
2 -0.56
20 -0.15
21 0.16
25 -0.15
26 -0.15
29 -0.15
3 -0.9
30 -0.15
31 -0.15
32 -0.15
33 -0.15
4 -0.87
42 0.36
43 0.4
46 0.15
47 0.15
48 0.15
49 0.15
5 -0.62
59 0.15
6 -0.62
60 0.15
61 0.15
62 0.15
63 0.15
64 0.15
65 0.15
7 0.28
8 0.28
9 0.27

> <PUBCHEM_EFFECTIVE_ROTOR_COUNT>
8.2

> <PUBCHEM_PHARMACOPHORE_FEATURES>
13
1 1 acceptor
1 2 acceptor
1 3 cation
1 3 donor
1 4 donor
1 5 acceptor
4 16 22 23 24 hydrophobe
4 4 5 6 14 cation
5 1 7 8 9 11 rings
5 2 7 8 10 12 rings
6 15 18 19 25 26 27 rings
6 28 29 30 31 32 33 rings
6 5 6 14 17 20 21 rings

> <PUBCHEM_HEAVY_ATOM_COUNT>
33

> <PUBCHEM_ATOM_DEF_STEREO_COUNT>
4

> <PUBCHEM_ATOM_UDEF_STEREO_COUNT>
0

> <PUBCHEM_BOND_DEF_STEREO_COUNT>
0

> <PUBCHEM_BOND_UDEF_STEREO_COUNT>
0

> <PUBCHEM_ISOTOPIC_ATOM_COUNT>
0

> <PUBCHEM_COMPONENT_COUNT>
1

> <PUBCHEM_CACTVS_TAUTO_COUNT>
3

> <PUBCHEM_CONFORMER_ID>
00B5C6FA00000001

> <PUBCHEM_MMFF94_ENERGY>
106.2334

> <PUBCHEM_FEATURE_SELFOVERLAP>
66.68

> <PUBCHEM_SHAPE_FINGERPRINT>
10055352 69 18201722843485389433
10533779 1 18262503841119713724
10930396 42 16732990808818920729
10985338 8 18271515426016254314
11135609 201 18335704923413938795
11477941 20 17914883473479778511
11479125 193 18189334555269253121
12013929 29 18129105524508115816
12061779 8 18057329383856297593
12895837 130 18272932730499120869
12988421 55 17967247594129522211
1361 87 12607103133165909925
14118638 360 18335415807184460394
14150022 121 18189065342476900987
14251764 75 18339362938185001291
14395042 24 17970083313055693683
14512766 119 18410294731200438340
14765038 42 18339367366143634109
15021287 119 16443061738055724596
15064981 113 17417815020213527302
15119646 57 18272932704966674375
15131766 46 18266735771982348649
15289351 153 18341884217986015744
15328684 2 17896579830808866496
15513586 35 17389407100756730349
15685185 35 18412261727733852229
16112460 7 18337393742777037704
16126227 98 18411986845283365033
16728433 281 18339372958982545796
19304152 47 17386007230762907005
19304671 126 18129670681857936604
19309040 13 17988363646611348223
19438510 23 18335141972901348234
20691028 202 18339645534037822193
21033648 29 17386570150577535271
21401589 2 18114466673913971323
2748736 6 18410565163758318640
2838139 119 18267864978169756559
328310 18 17775573026557178625
3525247 154 18201150027449439600
3610482 184 17059205931296166097
397830 11 10881681360721531958
4112364 45 17895753980847275306
42767 24 9367350340688064588
437795 83 18342734173905960972
44426695 248 14923953366233326208
46194498 28 14832975355046594027
50677037 204 18335417950473342372
5104073 3 17967527974411935746
5776283 40 18201717366700694633
5937810 71 18337965584035663180
6036956 94 18053101718798493825
636775 72 18265049327229735612
6712543 237 13262678089210120505

> <PUBCHEM_SHAPE_MULTIPOLES>
647.46
22.79
5.52
1.9
39.31
0.56
0.07
-28.17
1
-6.83
-1.73
-3.22
-1.01
-0.74

> <PUBCHEM_SHAPE_SELFOVERLAP>
1405.821

> <PUBCHEM_SHAPE_VOLUME>
354.1

> <PUBCHEM_COORDINATE_TYPE>
2
5
10

$$$$
