71694020
  -OEChem-12032416273D

 49 51  0     1  0  0  0  0  0999 V2000
   -0.5595    2.8797    0.0132 S   0  0  0  0  0  0  0  0  0  0  0  0
   -3.6495   -0.1713    1.6992 O   0  0  0  0  0  0  0  0  0  0  0  0
   -5.2750   -1.0046   -0.3680 O   0  0  0  0  0  0  0  0  0  0  0  0
   -0.9811    3.2610    1.3477 O   0  0  0  0  0  0  0  0  0  0  0  0
   -0.3069    3.8960   -0.9903 O   0  0  0  0  0  0  0  0  0  0  0  0
    4.3900   -0.3271    0.5093 O   0  0  0  0  0  0  0  0  0  0  0  0
   -1.6502    1.7426   -0.6211 N   0  0  0  0  0  0  0  0  0  0  0  0
   -1.6363   -0.7339   -0.7394 C   0  0  2  0  0  0  0  0  0  0  0  0
   -1.9572    0.5045    0.1423 C   0  0  2  0  0  0  0  0  0  0  0  0
   -3.4639    0.4399    0.4236 C   0  0  1  0  0  0  0  0  0  0  0  0
   -2.9502   -1.5295   -0.8206 C   0  0  0  0  0  0  0  0  0  0  0  0
   -4.0145   -0.4516   -0.6861 C   0  0  1  0  0  0  0  0  0  0  0  0
   -0.4722   -1.5604   -0.2396 C   0  0  0  0  0  0  0  0  0  0  0  0
    0.6481   -1.7807   -1.0408 C   0  0  0  0  0  0  0  0  0  0  0  0
   -0.5303   -2.1055    1.0431 C   0  0  0  0  0  0  0  0  0  0  0  0
    1.7102   -2.5461   -0.5596 C   0  0  0  0  0  0  0  0  0  0  0  0
    0.9191    1.9224    0.1618 C   0  0  0  0  0  0  0  0  0  0  0  0
    0.7331   -1.2075   -2.4173 C   0  0  0  0  0  0  0  0  0  0  0  0
    0.5318   -2.8710    1.5244 C   0  0  0  0  0  0  0  0  0  0  0  0
    1.6521   -3.0913    0.7232 C   0  0  0  0  0  0  0  0  0  0  0  0
    1.8215    1.8638   -0.9003 C   0  0  0  0  0  0  0  0  0  0  0  0
    1.1832    1.2254    1.3407 C   0  0  0  0  0  0  0  0  0  0  0  0
    2.9880    1.1080   -0.7833 C   0  0  0  0  0  0  0  0  0  0  0  0
    2.3497    0.4698    1.4578 C   0  0  0  0  0  0  0  0  0  0  0  0
    3.2521    0.4110    0.3958 C   0  0  0  0  0  0  0  0  0  0  0  0
    5.2678   -0.3436   -0.6156 C   0  0  0  0  0  0  0  0  0  0  0  0
   -1.4495   -0.3835   -1.7593 H   0  0  0  0  0  0  0  0  0  0  0  0
   -1.4117    0.4989    1.0879 H   0  0  0  0  0  0  0  0  0  0  0  0
   -3.9624    1.4144    0.4459 H   0  0  0  0  0  0  0  0  0  0  0  0
   -3.0410   -2.0739   -1.7674 H   0  0  0  0  0  0  0  0  0  0  0  0
   -3.0582   -2.2773   -0.0258 H   0  0  0  0  0  0  0  0  0  0  0  0
   -4.1019    0.1166   -1.6202 H   0  0  0  0  0  0  0  0  0  0  0  0
   -1.9403    1.7841   -1.6052 H   0  0  0  0  0  0  0  0  0  0  0  0
   -3.2812    0.4314    2.3677 H   0  0  0  0  0  0  0  0  0  0  0  0
   -5.5113   -1.6229   -1.0802 H   0  0  0  0  0  0  0  0  0  0  0  0
   -1.3906   -1.9456    1.6868 H   0  0  0  0  0  0  0  0  0  0  0  0
    2.5906   -2.7274   -1.1704 H   0  0  0  0  0  0  0  0  0  0  0  0
   -0.0058   -1.6818   -3.0720 H   0  0  0  0  0  0  0  0  0  0  0  0
    0.5813   -0.1257   -2.4216 H   0  0  0  0  0  0  0  0  0  0  0  0
    1.7182   -1.3851   -2.8638 H   0  0  0  0  0  0  0  0  0  0  0  0
    0.4875   -3.2941    2.5236 H   0  0  0  0  0  0  0  0  0  0  0  0
    2.4799   -3.6857    1.0985 H   0  0  0  0  0  0  0  0  0  0  0  0
    1.6312    2.3924   -1.8301 H   0  0  0  0  0  0  0  0  0  0  0  0
    0.5006    1.2616    2.1847 H   0  0  0  0  0  0  0  0  0  0  0  0
    3.6434    1.1032   -1.6474 H   0  0  0  0  0  0  0  0  0  0  0  0
    2.5509   -0.0697    2.3792 H   0  0  0  0  0  0  0  0  0  0  0  0
    6.1197   -0.9786   -0.3513 H   0  0  0  0  0  0  0  0  0  0  0  0
    5.6664    0.6538   -0.8297 H   0  0  0  0  0  0  0  0  0  0  0  0
    4.7907   -0.7970   -1.4912 H   0  0  0  0  0  0  0  0  0  0  0  0
  1  4  2  0  0  0  0
  1  5  2  0  0  0  0
  1  7  1  0  0  0  0
  1 17  1  0  0  0  0
  2 10  1  0  0  0  0
  2 34  1  0  0  0  0
  3 12  1  0  0  0  0
  3 35  1  0  0  0  0
  6 25  1  0  0  0  0
  6 26  1  0  0  0  0
  7  9  1  0  0  0  0
  7 33  1  0  0  0  0
  8  9  1  0  0  0  0
  8 11  1  0  0  0  0
  8 13  1  0  0  0  0
  8 27  1  0  0  0  0
  9 10  1  0  0  0  0
  9 28  1  0  0  0  0
 10 12  1  0  0  0  0
 10 29  1  0  0  0  0
 11 12  1  0  0  0  0
 11 30  1  0  0  0  0
 11 31  1  0  0  0  0
 12 32  1  0  0  0  0
 13 14  1  0  0  0  0
 13 15  2  0  0  0  0
 14 16  2  0  0  0  0
 14 18  1  0  0  0  0
 15 19  1  0  0  0  0
 15 36  1  0  0  0  0
 16 20  1  0  0  0  0
 16 37  1  0  0  0  0
 17 21  2  0  0  0  0
 17 22  1  0  0  0  0
 18 38  1  0  0  0  0
 18 39  1  0  0  0  0
 18 40  1  0  0  0  0
 19 20  2  0  0  0  0
 19 41  1  0  0  0  0
 20 42  1  0  0  0  0
 21 23  1  0  0  0  0
 21 43  1  0  0  0  0
 22 24  2  0  0  0  0
 22 44  1  0  0  0  0
 23 25  2  0  0  0  0
 23 45  1  0  0  0  0
 24 25  1  0  0  0  0
 24 46  1  0  0  0  0
 26 47  1  0  0  0  0
 26 48  1  0  0  0  0
 26 49  1  0  0  0  0
M  END
> <PUBCHEM_COMPOUND_CID>
71694020

> <PUBCHEM_CONFORMER_RMSD>
0.8

> <PUBCHEM_CONFORMER_DIVERSEORDER>
1
12
33
26
11
23
36
32
24
2
35
14
16
29
5
7
30
13
6
25
31
19
21
28
27
17
15
18
9
10
8
34
22
4
3
20

> <PUBCHEM_MMFF94_PARTIAL_CHARGES>
36
1 1.45
10 0.28
12 0.28
13 -0.14
14 -0.14
15 -0.15
16 -0.15
17 -0.01
18 0.14
19 -0.15
2 -0.68
20 -0.15
21 -0.15
22 -0.15
23 -0.15
24 -0.15
25 0.08
26 0.28
3 -0.68
33 0.42
34 0.4
35 0.4
36 0.15
37 0.15
4 -0.65
41 0.15
42 0.15
43 0.15
44 0.15
45 0.15
46 0.15
5 -0.65
6 -0.36
7 -0.91
8 0.14
9 0.36

> <PUBCHEM_EFFECTIVE_ROTOR_COUNT>
6

> <PUBCHEM_PHARMACOPHORE_FEATURES>
11
1 2 acceptor
1 2 donor
1 3 acceptor
1 3 donor
1 4 acceptor
1 5 acceptor
1 6 acceptor
1 7 donor
5 8 9 10 11 12 rings
6 13 14 15 16 19 20 rings
6 17 21 22 23 24 25 rings

> <PUBCHEM_HEAVY_ATOM_COUNT>
26

> <PUBCHEM_ATOM_DEF_STEREO_COUNT>
4

> <PUBCHEM_ATOM_UDEF_STEREO_COUNT>
0

> <PUBCHEM_BOND_DEF_STEREO_COUNT>
0

> <PUBCHEM_BOND_UDEF_STEREO_COUNT>
0

> <PUBCHEM_ISOTOPIC_ATOM_COUNT>
0

> <PUBCHEM_COMPONENT_COUNT>
1

> <PUBCHEM_CACTVS_TAUTO_COUNT>
1

> <PUBCHEM_CONFORMER_ID>
0445F6C400000001

> <PUBCHEM_MMFF94_ENERGY>
71.8309

> <PUBCHEM_FEATURE_SELFOVERLAP>
55.851

> <PUBCHEM_SHAPE_FINGERPRINT>
104564 63 18341611456601396456
10863032 1 18049720716136019958
11578080 2 17461429231302079159
12011746 2 18335135405801374230
12156800 1 15602116783231147757
12422481 6 18056767528892039906
12553582 1 18336537283116187145
12592029 89 18337104696342339283
12788726 201 18411429414584835252
13140716 1 18268152130934626464
13965767 371 17771652069445600745
14178342 30 18196646294698648688
14223421 5 18122059806161394942
14251751 93 18269270167394477988
14787075 74 18334577936284478550
15209289 33 18343584057681282648
16752209 62 18334564733565475628
16945 1 18341879797262063246
17492 54 18189343544145160932
20600515 1 18261971741667920724
20691752 17 18189072918350343365
20905425 154 18198337364660755006
21421861 104 18117843187896211825
23419403 2 15960253855479482840
23559900 14 18195810898238340832
23566358 2 18055074255521474526
3052486 1 18190757344679363420
3286 77 17203323472222919888
474 4 18335982055730462575
59755656 215 18342455902874398975
6138700 20 18411138030917995870
70251023 43 18196092140954410667
9981440 41 16618116328348788593

> <PUBCHEM_SHAPE_MULTIPOLES>
504.59
6.93
3.9
1.56
1
1.43
0.09
-1.11
0.4
-0.37
-0.37
-0.17
-0.35
-0.32

> <PUBCHEM_SHAPE_SELFOVERLAP>
1066.343

> <PUBCHEM_SHAPE_VOLUME>
285.4

> <PUBCHEM_COORDINATE_TYPE>
2
5
10

$$$$
