25338993
  -OEChem-12032416173D

 39 40  0     1  0  0  0  0  0999 V2000
   -2.3008   -1.9780    0.0158 S   0  0  0  0  0  0  0  0  0  0  0  0
   -2.3259    2.4918   -0.1748 O   0  0  0  0  0  0  0  0  0  0  0  0
   -2.0411   -2.4356   -1.3312 O   0  0  0  0  0  0  0  0  0  0  0  0
   -3.5826   -1.4305    0.4006 O   0  0  0  0  0  0  0  0  0  0  0  0
   -1.7492    0.7525   -1.5815 O   0  0  0  0  0  0  0  0  0  0  0  0
   -1.0727   -0.8718    0.4668 N   0  0  2  0  0  0  0  0  0  0  0  0
    2.5266    0.0440    0.0231 N   0  0  0  0  0  0  0  0  0  0  0  0
    2.0353    1.7258    1.4093 N   0  0  0  0  0  0  0  0  0  0  0  0
   -1.5170    0.5294    0.8015 C   0  0  1  0  0  0  0  0  0  0  0  0
    1.1859   -0.0284    0.2556 C   0  0  0  0  0  0  0  0  0  0  0  0
    0.2219   -0.9982   -0.2986 C   0  0  0  0  0  0  0  0  0  0  0  0
   -0.4510    1.2908    1.6190 C   0  0  0  0  0  0  0  0  0  0  0  0
    0.9085    1.0149    1.1039 C   0  0  0  0  0  0  0  0  0  0  0  0
    3.3156   -0.8239   -0.8169 C   0  0  0  0  0  0  0  0  0  0  0  0
    2.9940    1.1163    0.7408 C   0  0  0  0  0  0  0  0  0  0  0  0
   -1.8667    1.2415   -0.4661 C   0  0  0  0  0  0  0  0  0  0  0  0
   -1.9117   -3.3021    1.1305 C   0  0  0  0  0  0  0  0  0  0  0  0
    4.3838   -1.5682   -0.0118 C   0  0  0  0  0  0  0  0  0  0  0  0
    3.9465   -0.0584   -1.9826 C   0  0  0  0  0  0  0  0  0  0  0  0
   -2.6996    3.2881   -1.3037 C   0  0  0  0  0  0  0  0  0  0  0  0
   -2.4232    0.4777    1.4169 H   0  0  0  0  0  0  0  0  0  0  0  0
    0.0751   -0.8235   -1.3676 H   0  0  0  0  0  0  0  0  0  0  0  0
    0.6009   -2.0162   -0.1565 H   0  0  0  0  0  0  0  0  0  0  0  0
   -0.4898    0.9408    2.6585 H   0  0  0  0  0  0  0  0  0  0  0  0
   -0.6359    2.3698    1.6365 H   0  0  0  0  0  0  0  0  0  0  0  0
    2.6412   -1.5743   -1.2446 H   0  0  0  0  0  0  0  0  0  0  0  0
    4.0357    1.4076    0.7403 H   0  0  0  0  0  0  0  0  0  0  0  0
   -2.6436   -4.0980    0.9754 H   0  0  0  0  0  0  0  0  0  0  0  0
   -0.9102   -3.6767    0.9128 H   0  0  0  0  0  0  0  0  0  0  0  0
   -1.9793   -2.9348    2.1563 H   0  0  0  0  0  0  0  0  0  0  0  0
    5.1265   -0.8825    0.4105 H   0  0  0  0  0  0  0  0  0  0  0  0
    4.9138   -2.2868   -0.6460 H   0  0  0  0  0  0  0  0  0  0  0  0
    3.9311   -2.1216    0.8185 H   0  0  0  0  0  0  0  0  0  0  0  0
    4.6727    0.6850   -1.6358 H   0  0  0  0  0  0  0  0  0  0  0  0
    3.1810    0.4690   -2.5627 H   0  0  0  0  0  0  0  0  0  0  0  0
    4.4673   -0.7452   -2.6582 H   0  0  0  0  0  0  0  0  0  0  0  0
   -3.0473    4.2571   -0.9360 H   0  0  0  0  0  0  0  0  0  0  0  0
   -3.5147    2.8073   -1.8529 H   0  0  0  0  0  0  0  0  0  0  0  0
   -1.8357    3.4489   -1.9557 H   0  0  0  0  0  0  0  0  0  0  0  0
  1  3  2  0  0  0  0
  1  4  2  0  0  0  0
  1  6  1  0  0  0  0
  1 17  1  0  0  0  0
  2 16  1  0  0  0  0
  2 20  1  0  0  0  0
  5 16  2  0  0  0  0
  6  9  1  0  0  0  0
  6 11  1  0  0  0  0
  7 10  1  0  0  0  0
  7 14  1  0  0  0  0
  7 15  1  0  0  0  0
  8 13  1  0  0  0  0
  8 15  2  0  0  0  0
  9 12  1  0  0  0  0
  9 16  1  0  0  0  0
  9 21  1  0  0  0  0
 10 11  1  0  0  0  0
 10 13  2  0  0  0  0
 11 22  1  0  0  0  0
 11 23  1  0  0  0  0
 12 13  1  0  0  0  0
 12 24  1  0  0  0  0
 12 25  1  0  0  0  0
 14 18  1  0  0  0  0
 14 19  1  0  0  0  0
 14 26  1  0  0  0  0
 15 27  1  0  0  0  0
 17 28  1  0  0  0  0
 17 29  1  0  0  0  0
 17 30  1  0  0  0  0
 18 31  1  0  0  0  0
 18 32  1  0  0  0  0
 18 33  1  0  0  0  0
 19 34  1  0  0  0  0
 19 35  1  0  0  0  0
 19 36  1  0  0  0  0
 20 37  1  0  0  0  0
 20 38  1  0  0  0  0
 20 39  1  0  0  0  0
M  END
> <PUBCHEM_COMPOUND_CID>
25338993

> <PUBCHEM_CONFORMER_RMSD>
0.6

> <PUBCHEM_CONFORMER_DIVERSEORDER>
1
48
22
44
47
34
17
24
31
39
42
45
19
7
14
23
38
13
26
36
18
9
46
30
10
33
32
20
28
40
37
2
4
27
5
6
12
16
49
21
3
15
25
11
8
41
29
35
43

> <PUBCHEM_MMFF94_PARTIAL_CHARGES>
19
1 1.33
10 -0.33
11 0.54
12 0.18
13 0.05
14 0.26
15 0.04
16 0.66
17 0.11
2 -0.43
20 0.28
27 0.15
3 -0.65
4 -0.65
5 -0.57
6 -0.85
7 0.05
8 -0.57
9 0.42

> <PUBCHEM_EFFECTIVE_ROTOR_COUNT>
4.8

> <PUBCHEM_PHARMACOPHORE_FEATURES>
7
1 3 acceptor
1 4 acceptor
1 5 acceptor
3 14 18 19 hydrophobe
3 7 8 15 cation
5 7 8 10 13 15 rings
6 6 9 10 11 12 13 rings

> <PUBCHEM_HEAVY_ATOM_COUNT>
20

> <PUBCHEM_ATOM_DEF_STEREO_COUNT>
1

> <PUBCHEM_ATOM_UDEF_STEREO_COUNT>
0

> <PUBCHEM_BOND_DEF_STEREO_COUNT>
0

> <PUBCHEM_BOND_UDEF_STEREO_COUNT>
0

> <PUBCHEM_ISOTOPIC_ATOM_COUNT>
0

> <PUBCHEM_COMPONENT_COUNT>
1

> <PUBCHEM_CACTVS_TAUTO_COUNT>
1

> <PUBCHEM_CONFORMER_ID>
0182A47100000001

> <PUBCHEM_MMFF94_ENERGY>
38.8113

> <PUBCHEM_FEATURE_SELFOVERLAP>
35.64

> <PUBCHEM_SHAPE_FINGERPRINT>
10165383 225 18047197341103570373
11322862 65 18411700959264354429
11578080 2 18409442575641046060
11582403 64 16330676187345720944
12173636 292 18261950735272948085
12714826 92 18341628026479891726
12730499 353 17832141624703022829
13140716 1 18131357397224988506
13681431 1 17541656553533139749
14022347 108 18115581707479656803
14115302 16 18265057925447716070
14863182 85 16254747586908206407
15422964 175 17905048406066848491
15664445 248 17688047713145740805
16752209 62 18337378362456894507
16945 1 18261386797344841971
17357779 13 18126264566844820351
1813 80 18045503277363524739
18186145 218 18128523873845185385
19049666 15 18341885303658134794
20600515 1 17462541103956502055
20645476 183 17969789579150043466
20645477 70 17702387432168119958
20693207 138 18272942643315541780
20871999 31 18409740547022131564
21285901 2 18127394856102881047
21330990 113 18340505386853861243
21524375 3 18120928400539086573
21665056 4 18264770969575991875
22182313 1 18060136570443853760
22802520 49 18271798042868053584
22907989 373 18408611361454901477
23526113 38 17916844890100698816
23557571 272 18190165970252724392
23559900 14 18412542137431286936
25 1 17981885237911397609
2748010 2 18131627919966587128
298252 57 17898852348753710481
3084891 72 17909541766591931136
559249 180 18190740817898948290
57210444 14 18122906426099558949
6049 1 18272089426508259552
621550 34 17983003750500806808
6442390 28 18263924337702959457
74978 22 18341047424427005920
7615 1 17168134655280747392
81228 2 18336539542722522697
8809292 202 18341899579955541746
9981440 41 16481573274821268937

> <PUBCHEM_SHAPE_MULTIPOLES>
377.02
6.44
3.3
1.56
5.73
0.39
0.25
1.18
2.04
-4.01
0.18
0.35
-0.46
1.33

> <PUBCHEM_SHAPE_SELFOVERLAP>
770.162

> <PUBCHEM_SHAPE_VOLUME>
221.3

> <PUBCHEM_COORDINATE_TYPE>
2
5
10

$$$$
