7135091
  -OEChem-12032416123D

 79 82  0     1  0  0  0  0  0999 V2000
    1.6267    3.5248   -0.3653 S   0  0  0  0  0  0  0  0  0  0  0  0
    6.4599   -2.5661    0.7153 O   0  0  0  0  0  0  0  0  0  0  0  0
    7.1437   -0.9955   -0.9609 O   0  0  0  0  0  0  0  0  0  0  0  0
   -1.1091   -0.4276    1.6691 O   0  0  0  0  0  0  0  0  0  0  0  0
   -2.9234    2.8382    0.2385 O   0  0  0  0  0  0  0  0  0  0  0  0
   -5.7823   -4.8290   -1.4736 O   0  0  0  0  0  0  0  0  0  0  0  0
   -0.1978    1.7446    0.0761 N   0  0  0  0  0  0  0  0  0  0  0  0
   -2.4434   -1.6493    0.2126 N   0  0  0  0  0  0  0  0  0  0  0  0
   -0.9373    4.0280   -0.1455 N   0  0  0  0  0  0  0  0  0  0  0  0
   -4.4295   -3.6593    0.0084 N   0  0  0  0  0  0  0  0  0  0  0  0
    2.5329   -0.9544   -0.2796 C   0  0  2  0  0  0  0  0  0  0  0  0
    3.6688    0.0085    0.2842 C   0  0  1  0  0  0  0  0  0  0  0  0
    5.1467   -0.5424    0.2695 C   0  0  1  0  0  0  0  0  0  0  0  0
    1.1216   -0.4003    0.2250 C   0  0  1  0  0  0  0  0  0  0  0  0
    2.7326   -2.3802    0.2968 C   0  0  0  0  0  0  0  0  0  0  0  0
    5.1591   -1.9911    0.8345 C   0  0  1  0  0  0  0  0  0  0  0  0
    3.5306    1.4485   -0.2905 C   0  0  0  0  0  0  0  0  0  0  0  0
    4.1519   -2.9106    0.1528 C   0  0  0  0  0  0  0  0  0  0  0  0
    2.5295   -1.0395   -1.8259 C   0  0  0  0  0  0  0  0  0  0  0  0
    1.0179    1.0887    0.0163 C   0  0  0  0  0  0  0  0  0  0  0  0
    5.8386   -0.4836   -1.1105 C   0  0  0  0  0  0  0  0  0  0  0  0
    6.0223    0.3296    1.2135 C   0  0  0  0  0  0  0  0  0  0  0  0
    2.1129    1.9016   -0.1953 C   0  0  0  0  0  0  0  0  0  0  0  0
   -0.0957   -1.1347   -0.3530 C   0  0  0  0  0  0  0  0  0  0  0  0
   -1.2560   -1.0334    0.6046 C   0  0  0  0  0  0  0  0  0  0  0  0
    0.0007    3.0303   -0.1183 C   0  0  0  0  0  0  0  0  0  0  0  0
   -2.6725   -2.3140   -1.0771 C   0  0  0  0  0  0  0  0  0  0  0  0
   -3.6171   -1.5993    1.0881 C   0  0  0  0  0  0  0  0  0  0  0  0
   -3.2560   -3.7087   -0.8676 C   0  0  0  0  0  0  0  0  0  0  0  0
   -4.2008   -2.9939    1.2979 C   0  0  0  0  0  0  0  0  0  0  0  0
   -2.3283    3.8936    0.0300 C   0  0  0  0  0  0  0  0  0  0  0  0
   -3.1025    5.2331   -0.0635 C   0  0  0  0  0  0  0  0  0  0  0  0
   -5.6163   -4.2765   -0.3831 C   0  0  0  0  0  0  0  0  0  0  0  0
   -2.8748    5.8613   -1.4516 C   0  0  0  0  0  0  0  0  0  0  0  0
   -2.5933    6.2160    1.0025 C   0  0  0  0  0  0  0  0  0  0  0  0
   -4.6092    4.9893    0.1164 C   0  0  0  0  0  0  0  0  0  0  0  0
   -6.7511   -4.2468    0.6091 C   0  0  0  0  0  0  0  0  0  0  0  0
    3.4295    0.1001    1.3580 H   0  0  0  0  0  0  0  0  0  0  0  0
    1.1454   -0.5355    1.3164 H   0  0  0  0  0  0  0  0  0  0  0  0
    2.4739   -2.3852    1.3640 H   0  0  0  0  0  0  0  0  0  0  0  0
    2.0544   -3.0938   -0.1847 H   0  0  0  0  0  0  0  0  0  0  0  0
    4.9275   -1.9568    1.9074 H   0  0  0  0  0  0  0  0  0  0  0  0
    4.1678    2.1406    0.2702 H   0  0  0  0  0  0  0  0  0  0  0  0
    3.8473    1.4840   -1.3382 H   0  0  0  0  0  0  0  0  0  0  0  0
    4.4157   -3.0628   -0.8997 H   0  0  0  0  0  0  0  0  0  0  0  0
    4.2097   -3.9089    0.6054 H   0  0  0  0  0  0  0  0  0  0  0  0
    3.4396   -1.4779   -2.2300 H   0  0  0  0  0  0  0  0  0  0  0  0
    1.7186   -1.6828   -2.1852 H   0  0  0  0  0  0  0  0  0  0  0  0
    2.3913   -0.0639   -2.3001 H   0  0  0  0  0  0  0  0  0  0  0  0
    5.3408   -1.0902   -1.8628 H   0  0  0  0  0  0  0  0  0  0  0  0
    5.9137    0.5419   -1.4849 H   0  0  0  0  0  0  0  0  0  0  0  0
    7.0159   -0.1018    1.3788 H   0  0  0  0  0  0  0  0  0  0  0  0
    6.1731    1.3378    0.8137 H   0  0  0  0  0  0  0  0  0  0  0  0
    5.5548    0.4305    2.1998 H   0  0  0  0  0  0  0  0  0  0  0  0
   -0.3829   -0.7096   -1.3215 H   0  0  0  0  0  0  0  0  0  0  0  0
    0.1132   -2.2006   -0.4785 H   0  0  0  0  0  0  0  0  0  0  0  0
    6.4303   -3.4490    1.1217 H   0  0  0  0  0  0  0  0  0  0  0  0
    7.5758   -0.9461   -1.8305 H   0  0  0  0  0  0  0  0  0  0  0  0
   -0.5557    4.9543   -0.3124 H   0  0  0  0  0  0  0  0  0  0  0  0
   -1.7625   -2.3877   -1.6743 H   0  0  0  0  0  0  0  0  0  0  0  0
   -3.3798   -1.6868   -1.6332 H   0  0  0  0  0  0  0  0  0  0  0  0
   -4.3520   -0.9479    0.5999 H   0  0  0  0  0  0  0  0  0  0  0  0
   -3.3664   -1.1504    2.0542 H   0  0  0  0  0  0  0  0  0  0  0  0
   -3.5062   -4.1582   -1.8335 H   0  0  0  0  0  0  0  0  0  0  0  0
   -2.5204   -4.3593   -0.3793 H   0  0  0  0  0  0  0  0  0  0  0  0
   -3.4953   -3.6210    1.8562 H   0  0  0  0  0  0  0  0  0  0  0  0
   -5.1146   -2.9202    1.8899 H   0  0  0  0  0  0  0  0  0  0  0  0
   -1.8297    6.1464   -1.6130 H   0  0  0  0  0  0  0  0  0  0  0  0
   -3.1452    5.1574   -2.2472 H   0  0  0  0  0  0  0  0  0  0  0  0
   -3.4819    6.7646   -1.5811 H   0  0  0  0  0  0  0  0  0  0  0  0
   -2.6635    5.7731    2.0026 H   0  0  0  0  0  0  0  0  0  0  0  0
   -1.5470    6.4986    0.8453 H   0  0  0  0  0  0  0  0  0  0  0  0
   -3.1843    7.1390    1.0023 H   0  0  0  0  0  0  0  0  0  0  0  0
   -4.9955    4.3022   -0.6453 H   0  0  0  0  0  0  0  0  0  0  0  0
   -4.8223    4.5472    1.0965 H   0  0  0  0  0  0  0  0  0  0  0  0
   -5.1762    5.9240    0.0427 H   0  0  0  0  0  0  0  0  0  0  0  0
   -7.6045   -4.7985    0.2027 H   0  0  0  0  0  0  0  0  0  0  0  0
   -6.4507   -4.7270    1.5443 H   0  0  0  0  0  0  0  0  0  0  0  0
   -7.0656   -3.2157    0.7905 H   0  0  0  0  0  0  0  0  0  0  0  0
  1 23  1  0  0  0  0
  1 26  1  0  0  0  0
  2 16  1  0  0  0  0
  2 57  1  0  0  0  0
  3 21  1  0  0  0  0
  3 58  1  0  0  0  0
  4 25  2  0  0  0  0
  5 31  2  0  0  0  0
  6 33  2  0  0  0  0
  7 20  1  0  0  0  0
  7 26  2  0  0  0  0
  8 25  1  0  0  0  0
  8 27  1  0  0  0  0
  8 28  1  0  0  0  0
  9 26  1  0  0  0  0
  9 31  1  0  0  0  0
  9 59  1  0  0  0  0
 10 29  1  0  0  0  0
 10 30  1  0  0  0  0
 10 33  1  0  0  0  0
 11 12  1  0  0  0  0
 11 14  1  0  0  0  0
 11 15  1  0  0  0  0
 11 19  1  0  0  0  0
 12 13  1  0  0  0  0
 12 17  1  0  0  0  0
 12 38  1  0  0  0  0
 13 16  1  0  0  0  0
 13 21  1  0  0  0  0
 13 22  1  0  0  0  0
 14 20  1  0  0  0  0
 14 24  1  0  0  0  0
 14 39  1  0  0  0  0
 15 18  1  0  0  0  0
 15 40  1  0  0  0  0
 15 41  1  0  0  0  0
 16 18  1  0  0  0  0
 16 42  1  0  0  0  0
 17 23  1  0  0  0  0
 17 43  1  0  0  0  0
 17 44  1  0  0  0  0
 18 45  1  0  0  0  0
 18 46  1  0  0  0  0
 19 47  1  0  0  0  0
 19 48  1  0  0  0  0
 19 49  1  0  0  0  0
 20 23  2  0  0  0  0
 21 50  1  0  0  0  0
 21 51  1  0  0  0  0
 22 52  1  0  0  0  0
 22 53  1  0  0  0  0
 22 54  1  0  0  0  0
 24 25  1  0  0  0  0
 24 55  1  0  0  0  0
 24 56  1  0  0  0  0
 27 29  1  0  0  0  0
 27 60  1  0  0  0  0
 27 61  1  0  0  0  0
 28 30  1  0  0  0  0
 28 62  1  0  0  0  0
 28 63  1  0  0  0  0
 29 64  1  0  0  0  0
 29 65  1  0  0  0  0
 30 66  1  0  0  0  0
 30 67  1  0  0  0  0
 31 32  1  0  0  0  0
 32 34  1  0  0  0  0
 32 35  1  0  0  0  0
 32 36  1  0  0  0  0
 33 37  1  0  0  0  0
 34 68  1  0  0  0  0
 34 69  1  0  0  0  0
 34 70  1  0  0  0  0
 35 71  1  0  0  0  0
 35 72  1  0  0  0  0
 35 73  1  0  0  0  0
 36 74  1  0  0  0  0
 36 75  1  0  0  0  0
 36 76  1  0  0  0  0
 37 77  1  0  0  0  0
 37 78  1  0  0  0  0
 37 79  1  0  0  0  0
M  END
> <PUBCHEM_COMPOUND_CID>
7135091

> <PUBCHEM_CONFORMER_RMSD>
1.2

> <PUBCHEM_CONFORMER_DIVERSEORDER>
1
13
3
10
4
7
11
5
6
8
12
9
2

> <PUBCHEM_MMFF94_PARTIAL_CHARGES>
30
1 -0.08
10 -0.66
14 0.18
16 0.28
17 0.18
2 -0.68
20 0.05
21 0.28
23 -0.14
24 0.06
25 0.57
26 0.44
27 0.3
28 0.3
29 0.3
3 -0.68
30 0.3
31 0.57
32 0.06
33 0.57
37 0.06
4 -0.57
5 -0.57
57 0.4
58 0.4
59 0.37
6 -0.57
7 -0.57
8 -0.66
9 -0.49

> <PUBCHEM_EFFECTIVE_ROTOR_COUNT>
10.4

> <PUBCHEM_PHARMACOPHORE_FEATURES>
13
1 2 acceptor
1 2 donor
1 3 acceptor
1 3 donor
1 4 acceptor
1 5 acceptor
1 6 acceptor
1 9 donor
4 32 34 35 36 hydrophobe
5 1 7 20 23 26 rings
6 11 12 13 15 16 18 rings
6 11 12 14 17 20 23 rings
6 8 10 27 28 29 30 rings

> <PUBCHEM_HEAVY_ATOM_COUNT>
37

> <PUBCHEM_ATOM_DEF_STEREO_COUNT>
5

> <PUBCHEM_ATOM_UDEF_STEREO_COUNT>
0

> <PUBCHEM_BOND_DEF_STEREO_COUNT>
0

> <PUBCHEM_BOND_UDEF_STEREO_COUNT>
0

> <PUBCHEM_ISOTOPIC_ATOM_COUNT>
0

> <PUBCHEM_COMPONENT_COUNT>
1

> <PUBCHEM_CACTVS_TAUTO_COUNT>
3

> <PUBCHEM_CONFORMER_ID>
006CDF7300000001

> <PUBCHEM_MMFF94_ENERGY>
115.3292

> <PUBCHEM_FEATURE_SELFOVERLAP>
66.118

> <PUBCHEM_SHAPE_FINGERPRINT>
10050765 1 18410011010552157576
102385 1 18410012156750068424
10411042 1 18338518667546696203
11062273 19 17903926904496258014
11578080 2 17845066551311633728
11719270 70 17616527359302896056
11991303 11 18044660797610642124
12741549 16 17678999728796946901
13347071 3 18411422796013799837
13540713 4 18202280261552081074
13590594 115 18337677524272109683
13617811 41 17975419332816237004
13692114 37 18124861383559638913
13835254 42 18339639053005811200
14400156 413 18047175626128568053
14790565 3 17834114143872698728
15021287 119 18196105537310867963
15200665 1 18049721823768344474
15347591 1 18339080394753132714
15400415 2 17690279313596987224
15444296 8 18341614828129833471
15483637 11 18410009892895069124
15484559 13 17404315481944407604
15629462 23 18340470202577004239
15927050 60 18119812400268604402
16993438 75 18191031110569780809
18365409 1 18337111142951711693
19301679 30 18337946909005553042
19302320 297 18196111022379523067
20028762 73 17260175602111544197
20775438 99 17839732669326920238
21133410 38 17696477283393905641
21344244 181 17621327831374399663
22033318 11 17981923962228167763
22311459 1 18338517439597246401
23559900 14 17832703848627532523
3103668 31 18407758128211554869
3383291 50 17329140279085101754
3534868 343 18190189068718348084
38695281 34 17832704565507113081
4015057 19 18046064032763387763
4461854 278 18123767365960172985
504843 32 18121216481117729621
5309563 4 18338797934973767142
6058803 2 18187649038567010498
6677587 24 15243614596424657661
6697151 62 18049982675193716975
6700243 42 17913806939736495870
70251023 43 18263923404977404514

> <PUBCHEM_SHAPE_MULTIPOLES>
716.02
14.75
9.68
1.2
7.82
11.82
-0.14
-16.89
0.39
-23.35
-0.91
-0.12
-0.34
-0.7

> <PUBCHEM_SHAPE_SELFOVERLAP>
1487.462

> <PUBCHEM_SHAPE_VOLUME>
412.4

> <PUBCHEM_COORDINATE_TYPE>
2
5
10

$$$$
