45783685
  -OEChem-12032416263D

 45 48  0     1  0  0  0  0  0999 V2000
    0.3088   -2.7356    1.2331 O   0  0  0  0  0  0  0  0  0  0  0  0
    6.0055    1.8901   -0.6837 O   0  0  0  0  0  0  0  0  0  0  0  0
   -2.6520   -1.0805   -0.1809 N   0  0  1  0  0  0  0  0  0  0  0  0
    0.3314   -0.9805   -0.1583 N   0  0  0  0  0  0  0  0  0  0  0  0
    1.6200   -2.2434    1.2483 N   0  0  0  0  0  0  0  0  0  0  0  0
    5.0313    0.1066    0.4364 N   0  0  0  0  0  0  0  0  0  0  0  0
   -1.8492   -2.2638    0.1873 C   0  0  1  0  0  0  0  0  0  0  0  0
   -2.0881   -3.2691   -0.9543 C   0  0  0  0  0  0  0  0  0  0  0  0
   -3.0834   -2.5877   -1.8826 C   0  0  0  0  0  0  0  0  0  0  0  0
   -3.7677   -1.5730   -0.9891 C   0  0  0  0  0  0  0  0  0  0  0  0
   -3.1067   -0.3135    0.9717 C   0  0  0  0  0  0  0  0  0  0  0  0
   -0.3835   -1.9358    0.3803 C   0  0  0  0  0  0  0  0  0  0  0  0
   -3.4756    1.0972    0.5964 C   0  0  0  0  0  0  0  0  0  0  0  0
   -2.5115    2.1043    0.6351 C   0  0  0  0  0  0  0  0  0  0  0  0
   -4.7819    1.3968    0.2100 C   0  0  0  0  0  0  0  0  0  0  0  0
    1.5534   -1.2096    0.4041 C   0  0  0  0  0  0  0  0  0  0  0  0
   -2.8536    3.4112    0.2875 C   0  0  0  0  0  0  0  0  0  0  0  0
   -5.1241    2.7035   -0.1376 C   0  0  0  0  0  0  0  0  0  0  0  0
    2.6887   -0.3873    0.1000 C   0  0  0  0  0  0  0  0  0  0  0  0
   -4.1599    3.7108   -0.0989 C   0  0  0  0  0  0  0  0  0  0  0  0
    2.5831    0.6800   -0.7849 C   0  0  0  0  0  0  0  0  0  0  0  0
    3.9238   -0.6299    0.6790 C   0  0  0  0  0  0  0  0  0  0  0  0
    3.7004    1.4609   -1.0600 C   0  0  0  0  0  0  0  0  0  0  0  0
    4.8903    1.1355   -0.4291 C   0  0  0  0  0  0  0  0  0  0  0  0
    7.2006    1.5130   -0.0098 C   0  0  0  0  0  0  0  0  0  0  0  0
   -2.2325   -2.7107    1.1157 H   0  0  0  0  0  0  0  0  0  0  0  0
   -2.5325   -4.1868   -0.5499 H   0  0  0  0  0  0  0  0  0  0  0  0
   -1.1780   -3.5475   -1.4967 H   0  0  0  0  0  0  0  0  0  0  0  0
   -3.7869   -3.2977   -2.3274 H   0  0  0  0  0  0  0  0  0  0  0  0
   -2.5483   -2.0825   -2.6963 H   0  0  0  0  0  0  0  0  0  0  0  0
   -4.2365   -0.7878   -1.5890 H   0  0  0  0  0  0  0  0  0  0  0  0
   -4.5353   -2.0664   -0.3794 H   0  0  0  0  0  0  0  0  0  0  0  0
   -3.9409   -0.8035    1.4923 H   0  0  0  0  0  0  0  0  0  0  0  0
   -2.3067   -0.2491    1.7225 H   0  0  0  0  0  0  0  0  0  0  0  0
   -1.4893    1.8838    0.9314 H   0  0  0  0  0  0  0  0  0  0  0  0
   -5.5450    0.6236    0.1811 H   0  0  0  0  0  0  0  0  0  0  0  0
   -2.1026    4.1953    0.3169 H   0  0  0  0  0  0  0  0  0  0  0  0
   -6.1416    2.9371   -0.4373 H   0  0  0  0  0  0  0  0  0  0  0  0
   -4.4264    4.7283   -0.3695 H   0  0  0  0  0  0  0  0  0  0  0  0
    1.6441    0.9266   -1.2739 H   0  0  0  0  0  0  0  0  0  0  0  0
    4.0902   -1.4425    1.3800 H   0  0  0  0  0  0  0  0  0  0  0  0
    3.6349    2.2969   -1.7477 H   0  0  0  0  0  0  0  0  0  0  0  0
    7.0820    1.5948    1.0758 H   0  0  0  0  0  0  0  0  0  0  0  0
    7.5092    0.5013   -0.2937 H   0  0  0  0  0  0  0  0  0  0  0  0
    7.9915    2.2045   -0.3153 H   0  0  0  0  0  0  0  0  0  0  0  0
  1  5  1  0  0  0  0
  1 12  1  0  0  0  0
  2 24  1  0  0  0  0
  2 25  1  0  0  0  0
  3  7  1  0  0  0  0
  3 10  1  0  0  0  0
  3 11  1  0  0  0  0
  4 12  2  0  0  0  0
  4 16  1  0  0  0  0
  5 16  2  0  0  0  0
  6 22  1  0  0  0  0
  6 24  2  0  0  0  0
  7  8  1  0  0  0  0
  7 12  1  0  0  0  0
  7 26  1  0  0  0  0
  8  9  1  0  0  0  0
  8 27  1  0  0  0  0
  8 28  1  0  0  0  0
  9 10  1  0  0  0  0
  9 29  1  0  0  0  0
  9 30  1  0  0  0  0
 10 31  1  0  0  0  0
 10 32  1  0  0  0  0
 11 13  1  0  0  0  0
 11 33  1  0  0  0  0
 11 34  1  0  0  0  0
 13 14  2  0  0  0  0
 13 15  1  0  0  0  0
 14 17  1  0  0  0  0
 14 35  1  0  0  0  0
 15 18  2  0  0  0  0
 15 36  1  0  0  0  0
 16 19  1  0  0  0  0
 17 20  2  0  0  0  0
 17 37  1  0  0  0  0
 18 20  1  0  0  0  0
 18 38  1  0  0  0  0
 19 21  1  0  0  0  0
 19 22  2  0  0  0  0
 20 39  1  0  0  0  0
 21 23  2  0  0  0  0
 21 40  1  0  0  0  0
 22 41  1  0  0  0  0
 23 24  1  0  0  0  0
 23 42  1  0  0  0  0
 25 43  1  0  0  0  0
 25 44  1  0  0  0  0
 25 45  1  0  0  0  0
M  END
> <PUBCHEM_COMPOUND_CID>
45783685

> <PUBCHEM_CONFORMER_RMSD>
0.8

> <PUBCHEM_CONFORMER_DIVERSEORDER>
1
41
21
36
43
12
27
23
46
40
6
52
32
25
42
2
45
38
13
29
15
9
50
49
5
20
51
18
11
48
39
53
28
3
44
14
33
8
19
35
22
17
26
16
34
30
7
47
24
10
31
37
4

> <PUBCHEM_MMFF94_PARTIAL_CHARGES>
31
1 -0.02
10 0.27
11 0.41
12 0.3
13 -0.14
14 -0.15
15 -0.15
16 0.46
17 -0.15
18 -0.15
19 0.05
2 -0.36
20 -0.15
21 -0.15
22 0.16
23 -0.15
24 0.39
25 0.28
3 -0.81
35 0.15
36 0.15
37 0.15
38 0.15
39 0.15
4 -0.57
40 0.15
41 0.15
42 0.15
5 -0.41
6 -0.62
7 0.45

> <PUBCHEM_EFFECTIVE_ROTOR_COUNT>
6

> <PUBCHEM_PHARMACOPHORE_FEATURES>
6
1 3 cation
3 4 5 16 cation
5 1 4 5 12 16 rings
5 3 7 8 9 10 rings
6 13 14 15 17 18 20 rings
6 6 19 21 22 23 24 rings

> <PUBCHEM_HEAVY_ATOM_COUNT>
25

> <PUBCHEM_ATOM_DEF_STEREO_COUNT>
1

> <PUBCHEM_ATOM_UDEF_STEREO_COUNT>
0

> <PUBCHEM_BOND_DEF_STEREO_COUNT>
0

> <PUBCHEM_BOND_UDEF_STEREO_COUNT>
0

> <PUBCHEM_ISOTOPIC_ATOM_COUNT>
0

> <PUBCHEM_COMPONENT_COUNT>
1

> <PUBCHEM_CACTVS_TAUTO_COUNT>
1

> <PUBCHEM_CONFORMER_ID>
02BA9A8500000001

> <PUBCHEM_MMFF94_ENERGY>
56.8629

> <PUBCHEM_FEATURE_SELFOVERLAP>
30.449

> <PUBCHEM_SHAPE_FINGERPRINT>
10087517 78 18339077215675876724
10411042 1 17834960050635093611
10670039 82 18411133679910162704
10864689 126 18268432339524674020
10871710 139 18411416228955712599
10937287 8 18339080363707121387
11135609 187 18266173930067673537
12107183 9 18191578650090925298
12788726 201 18269821134537596799
12978246 48 18337114475429530097
14114211 80 17987526897083647145
14142880 1 18260266352574025063
14251764 75 18125732184090047737
14294032 229 18273500074784536011
1454969 45 18342736288016118861
14556957 393 18195243541025255237
14739800 52 18268127908015416456
14767858 380 18270380721842485349
15183329 4 17968370248095773038
15289351 153 17976821210764468364
15575132 122 18411419488914998541
16988056 13 16611670390170899309
17492 54 18269536292553867853
20101258 96 18051699042729909939
20511986 3 18114172004238954224
20739085 24 17531535278574862022
21033650 10 18268174070307868156
21236236 1 18411982502976548124
21756936 100 18334862757045929466
21864079 5 18334861580256363251
23559900 14 17631170780269589054
245318 6 17970088680810259101
25147074 1 18262222370817245626
3388396 114 17619345850097275125
44249763 50 17774144829936100152
445580 204 18410291441255566924
44802255 64 17631741611898533684
474 4 18113618941537125211
5048184 11 18337675217685053153
508706 21 18198892785463102024
5171179 24 17771897496340303088
5283173 99 18271245036396906032
531348 171 18201726167357715606
5372103 7 17533479163989536509
6299153 45 18262513694491232106
6327066 14 18338514132499348165
633830 44 18260550004867753922
636775 72 18194682799429828536
6700243 42 17481745199780567574
7288768 16 17749115482484660371
7808743 9 18411980251996901761
9981440 41 18187374220188235875

> <PUBCHEM_SHAPE_MULTIPOLES>
482.83
13.7
4.46
1.14
19.41
0.66
-0.18
12.62
-1.65
-6.14
-0.51
-0.23
-0.67
-2.15

> <PUBCHEM_SHAPE_SELFOVERLAP>
1047.538

> <PUBCHEM_SHAPE_VOLUME>
265.5

> <PUBCHEM_COORDINATE_TYPE>
2
5
10

$$$$
