25389662
  -OEChem-12032416163D

 66 71  0     1  0  0  0  0  0999 V2000
    0.2586   -4.0285   -1.5603 F   0  0  0  0  0  0  0  0  0  0  0  0
   -3.6660   -2.1629   -1.5379 O   0  0  0  0  0  0  0  0  0  0  0  0
   -1.6666   -1.3112   -2.3211 O   0  0  0  0  0  0  0  0  0  0  0  0
   -0.8196   -0.6809    0.2029 N   0  0  2  0  0  0  0  0  0  0  0  0
   -2.0554    2.8371   -0.2493 N   0  0  0  0  0  0  0  0  0  0  0  0
    3.0333    1.1631   -0.0515 N   0  0  0  0  0  0  0  0  0  0  0  0
   -0.7212    0.6611   -0.4496 C   0  0  2  0  0  0  0  0  0  0  0  0
    0.3251   -1.5569   -0.1541 C   0  0  1  0  0  0  0  0  0  0  0  0
    0.5899    1.3608   -0.0583 C   0  0  0  0  0  0  0  0  0  0  0  0
    1.7921    0.5054   -0.4567 C   0  0  2  0  0  0  0  0  0  0  0  0
    1.6733   -0.8762    0.1850 C   0  0  0  0  0  0  0  0  0  0  0  0
   -2.1599   -1.3076    0.0392 C   0  0  1  0  0  0  0  0  0  0  0  0
   -1.9190    1.4867   -0.0862 C   0  0  0  0  0  0  0  0  0  0  0  0
   -3.2934   -0.4604    0.6716 C   0  0  0  0  0  0  0  0  0  0  0  0
   -3.1063    0.9926    0.4083 C   0  0  0  0  0  0  0  0  0  0  0  0
    0.3081   -2.9180    0.5372 C   0  0  0  0  0  0  0  0  0  0  0  0
   -3.9922    2.0893    0.5882 C   0  0  0  0  0  0  0  0  0  0  0  0
   -3.3077    3.2346    0.1690 C   0  0  0  0  0  0  0  0  0  0  0  0
   -2.4397   -1.5805   -1.4118 C   0  0  0  0  0  0  0  0  0  0  0  0
    4.1595    0.6575   -0.8210 C   0  0  0  0  0  0  0  0  0  0  0  0
    0.2752   -4.0879   -0.2214 C   0  0  0  0  0  0  0  0  0  0  0  0
    0.3254   -2.9901    1.9301 C   0  0  0  0  0  0  0  0  0  0  0  0
   -5.3125    2.2247    1.0622 C   0  0  0  0  0  0  0  0  0  0  0  0
   -3.8820    4.5104    0.2028 C   0  0  0  0  0  0  0  0  0  0  0  0
   -5.8975    3.4954    1.1028 C   0  0  0  0  0  0  0  0  0  0  0  0
    5.4528    1.3168   -0.4212 C   0  0  0  0  0  0  0  0  0  0  0  0
    0.2599   -5.3302    0.4128 C   0  0  0  0  0  0  0  0  0  0  0  0
    0.3100   -4.2324    2.5644 C   0  0  0  0  0  0  0  0  0  0  0  0
   -5.1914    4.6194    0.6794 C   0  0  0  0  0  0  0  0  0  0  0  0
    0.2772   -5.4025    1.8058 C   0  0  0  0  0  0  0  0  0  0  0  0
   -4.0619   -2.4791   -2.8764 C   0  0  0  0  0  0  0  0  0  0  0  0
    5.8701    2.4811   -1.0659 C   0  0  0  0  0  0  0  0  0  0  0  0
    6.2333    0.7635    0.5937 C   0  0  0  0  0  0  0  0  0  0  0  0
    7.0683    3.0923   -0.6958 C   0  0  0  0  0  0  0  0  0  0  0  0
    7.4313    1.3745    0.9639 C   0  0  0  0  0  0  0  0  0  0  0  0
    7.8488    2.5389    0.3191 C   0  0  0  0  0  0  0  0  0  0  0  0
   -0.7116    0.5739   -1.5416 H   0  0  0  0  0  0  0  0  0  0  0  0
    0.3412   -1.7214   -1.2370 H   0  0  0  0  0  0  0  0  0  0  0  0
    0.6594    2.3369   -0.5563 H   0  0  0  0  0  0  0  0  0  0  0  0
    0.6021    1.5612    1.0227 H   0  0  0  0  0  0  0  0  0  0  0  0
    1.7661    0.4006   -1.5504 H   0  0  0  0  0  0  0  0  0  0  0  0
    1.7921   -0.7712    1.2724 H   0  0  0  0  0  0  0  0  0  0  0  0
    2.4888   -1.5294   -0.1500 H   0  0  0  0  0  0  0  0  0  0  0  0
   -2.1829   -2.2782    0.5482 H   0  0  0  0  0  0  0  0  0  0  0  0
   -3.2697   -0.6057    1.7599 H   0  0  0  0  0  0  0  0  0  0  0  0
   -4.2861   -0.7735    0.3309 H   0  0  0  0  0  0  0  0  0  0  0  0
   -1.3488    3.4586   -0.6180 H   0  0  0  0  0  0  0  0  0  0  0  0
    2.9513    2.1672   -0.2141 H   0  0  0  0  0  0  0  0  0  0  0  0
    3.9999    0.8215   -1.8952 H   0  0  0  0  0  0  0  0  0  0  0  0
    4.2805   -0.4246   -0.6950 H   0  0  0  0  0  0  0  0  0  0  0  0
    0.3399   -2.0912    2.5403 H   0  0  0  0  0  0  0  0  0  0  0  0
   -5.8759    1.3576    1.3948 H   0  0  0  0  0  0  0  0  0  0  0  0
   -3.3341    5.3864   -0.1281 H   0  0  0  0  0  0  0  0  0  0  0  0
   -6.9150    3.6050    1.4686 H   0  0  0  0  0  0  0  0  0  0  0  0
    0.2342   -6.2409   -0.1782 H   0  0  0  0  0  0  0  0  0  0  0  0
    0.3208   -4.2887    3.6489 H   0  0  0  0  0  0  0  0  0  0  0  0
   -5.6655    5.5968    0.7188 H   0  0  0  0  0  0  0  0  0  0  0  0
    0.2644   -6.3697    2.2995 H   0  0  0  0  0  0  0  0  0  0  0  0
   -5.0537   -2.9373   -2.8383 H   0  0  0  0  0  0  0  0  0  0  0  0
   -3.3613   -3.1932   -3.3194 H   0  0  0  0  0  0  0  0  0  0  0  0
   -4.1186   -1.5676   -3.4792 H   0  0  0  0  0  0  0  0  0  0  0  0
    5.2701    2.9231   -1.8569 H   0  0  0  0  0  0  0  0  0  0  0  0
    5.9182   -0.1423    1.1050 H   0  0  0  0  0  0  0  0  0  0  0  0
    7.3931    3.9992   -1.1974 H   0  0  0  0  0  0  0  0  0  0  0  0
    8.0389    0.9440    1.7544 H   0  0  0  0  0  0  0  0  0  0  0  0
    8.7815    3.0147    0.6076 H   0  0  0  0  0  0  0  0  0  0  0  0
  1 21  1  0  0  0  0
  2 19  1  0  0  0  0
  2 31  1  0  0  0  0
  3 19  2  0  0  0  0
  4  7  1  0  0  0  0
  4  8  1  0  0  0  0
  4 12  1  0  0  0  0
  5 13  1  0  0  0  0
  5 18  1  0  0  0  0
  5 47  1  0  0  0  0
  6 10  1  0  0  0  0
  6 20  1  0  0  0  0
  6 48  1  0  0  0  0
  7  9  1  0  0  0  0
  7 13  1  0  0  0  0
  7 37  1  0  0  0  0
  8 11  1  0  0  0  0
  8 16  1  0  0  0  0
  8 38  1  0  0  0  0
  9 10  1  0  0  0  0
  9 39  1  0  0  0  0
  9 40  1  0  0  0  0
 10 11  1  0  0  0  0
 10 41  1  0  0  0  0
 11 42  1  0  0  0  0
 11 43  1  0  0  0  0
 12 14  1  0  0  0  0
 12 19  1  0  0  0  0
 12 44  1  0  0  0  0
 13 15  2  0  0  0  0
 14 15  1  0  0  0  0
 14 45  1  0  0  0  0
 14 46  1  0  0  0  0
 15 17  1  0  0  0  0
 16 21  1  0  0  0  0
 16 22  2  0  0  0  0
 17 18  1  0  0  0  0
 17 23  2  0  0  0  0
 18 24  2  0  0  0  0
 20 26  1  0  0  0  0
 20 49  1  0  0  0  0
 20 50  1  0  0  0  0
 21 27  2  0  0  0  0
 22 28  1  0  0  0  0
 22 51  1  0  0  0  0
 23 25  1  0  0  0  0
 23 52  1  0  0  0  0
 24 29  1  0  0  0  0
 24 53  1  0  0  0  0
 25 29  2  0  0  0  0
 25 54  1  0  0  0  0
 26 32  2  0  0  0  0
 26 33  1  0  0  0  0
 27 30  1  0  0  0  0
 27 55  1  0  0  0  0
 28 30  2  0  0  0  0
 28 56  1  0  0  0  0
 29 57  1  0  0  0  0
 30 58  1  0  0  0  0
 31 59  1  0  0  0  0
 31 60  1  0  0  0  0
 31 61  1  0  0  0  0
 32 34  1  0  0  0  0
 32 62  1  0  0  0  0
 33 35  2  0  0  0  0
 33 63  1  0  0  0  0
 34 36  2  0  0  0  0
 34 64  1  0  0  0  0
 35 36  1  0  0  0  0
 35 65  1  0  0  0  0
 36 66  1  0  0  0  0
M  END
> <PUBCHEM_COMPOUND_CID>
25389662

> <PUBCHEM_CONFORMER_RMSD>
1

> <PUBCHEM_CONFORMER_DIVERSEORDER>
1
15
35
25
5
7
2
19
28
3
8
21
29
26
16
12
36
33
30
24
32
37
18
11
17
38
10
31
34
14
22
27
13
23
9
20
6
4

> <PUBCHEM_MMFF94_PARTIAL_CHARGES>
48
1 -0.19
10 0.27
12 0.33
13 -0.33
14 0.18
15 -0.18
16 -0.14
18 -0.15
19 0.66
2 -0.43
20 0.41
21 0.19
22 -0.15
23 -0.15
24 -0.15
25 -0.15
26 -0.14
27 -0.15
28 -0.15
29 -0.15
3 -0.57
30 -0.15
31 0.28
32 -0.15
33 -0.15
34 -0.15
35 -0.15
36 -0.15
4 -0.81
47 0.27
48 0.36
5 0.03
51 0.15
52 0.15
53 0.15
54 0.15
55 0.15
56 0.15
57 0.15
58 0.15
6 -0.9
62 0.15
63 0.15
64 0.15
65 0.15
66 0.15
7 0.45
8 0.41

> <PUBCHEM_EFFECTIVE_ROTOR_COUNT>
7.2

> <PUBCHEM_PHARMACOPHORE_FEATURES>
12
1 3 acceptor
1 4 cation
1 5 cation
1 5 donor
1 6 cation
1 6 donor
5 5 13 15 17 18 rings
6 16 21 22 27 28 30 rings
6 17 18 23 24 25 29 rings
6 26 32 33 34 35 36 rings
6 4 7 12 13 14 15 rings
6 4 7 8 9 10 11 rings

> <PUBCHEM_HEAVY_ATOM_COUNT>
36

> <PUBCHEM_ATOM_DEF_STEREO_COUNT>
4

> <PUBCHEM_ATOM_UDEF_STEREO_COUNT>
0

> <PUBCHEM_BOND_DEF_STEREO_COUNT>
0

> <PUBCHEM_BOND_UDEF_STEREO_COUNT>
0

> <PUBCHEM_ISOTOPIC_ATOM_COUNT>
0

> <PUBCHEM_COMPONENT_COUNT>
1

> <PUBCHEM_CACTVS_TAUTO_COUNT>
1

> <PUBCHEM_CONFORMER_ID>
01836A5E00000001

> <PUBCHEM_MMFF94_ENERGY>
84.9085

> <PUBCHEM_FEATURE_SELFOVERLAP>
61.092

> <PUBCHEM_SHAPE_FINGERPRINT>
10190206 1 18272640273729456421
10290309 65 18191304879932576700
10675989 125 18125451804530151840
11007060 377 18342745156026742408
11136131 41 18188771622274083923
11445158 3 17169008827170345917
12107183 9 18261947454830323264
12788726 201 18268136733841087738
12988421 55 18260258634212144404
13140716 1 18263083215201426738
13540713 5 18267567053420842503
13560911 23 18194389212740100712
13911987 19 18116694395882889903
14565420 104 18264213508606898224
14659021 117 18125150782798074192
14790565 3 18408606929322711136
15064981 194 17826526740720407372
15274700 242 18335411387789226482
15347590 135 18339100223995128169
15444296 121 18263089976044869068
15448158 71 18194673774558509105
15684973 49 18270381880808720186
15927050 60 18339647724729469463
16090146 7 17895471556793782222
16114785 44 18339654428793130139
18393751 57 18261120663870863649
19319366 153 18338237046461989472
21133665 82 18411706453297919470
21424621 283 18410859854449924792
22311459 1 18266179629050294990
23522609 53 17460049577372610164
23559900 14 17690848857041327035
249999 5 18048319946527319288
283562 15 18337666516376606839
3411729 13 18194125105655748449
376196 1 18201440247020573534
4073 2 18263367061965474800
4408954 64 15869750094665967546
44249763 50 17703498978822091636
5171179 24 17630033004255927489
5219985 13 18410580561226858068
5265222 85 18411985792843019112
563151 40 18342461443176625217
563151 97 18409440376168676695
57527306 92 17986399000080633123
6058803 2 18124573324772876447
6673363 416 17182803485459743412
6695519 79 18051729631154021105
70251023 43 16609127864053245366
9896288 288 18411144662279000875
9981440 41 18261966175442818857

> <PUBCHEM_SHAPE_MULTIPOLES>
706.91
15.16
7.94
1.75
29.42
7.19
0.51
-27.16
-1.02
-5.06
-2.81
-1.35
2.31
-3.77

> <PUBCHEM_SHAPE_SELFOVERLAP>
1561.56

> <PUBCHEM_SHAPE_VOLUME>
379.5

> <PUBCHEM_COORDINATE_TYPE>
2
5
10

$$$$
