45783702
  -OEChem-12032416283D

 44 47  0     1  0  0  0  0  0999 V2000
   -1.0160   -0.4021    2.0080 O   0  0  0  0  0  0  0  0  0  0  0  0
    5.9697   -0.2941   -0.9434 O   0  0  0  0  0  0  0  0  0  0  0  0
   -3.3343   -0.7876   -0.6045 N   0  0  1  0  0  0  0  0  0  0  0  0
   -0.2781   -1.1485    0.0293 N   0  0  0  0  0  0  0  0  0  0  0  0
    0.3578   -0.1310    1.9772 N   0  0  0  0  0  0  0  0  0  0  0  0
   -1.6303    3.3486    0.8392 N   0  0  0  0  0  0  0  0  0  0  0  0
    4.3689    0.1156    0.6857 N   0  0  0  0  0  0  0  0  0  0  0  0
   -2.7529   -1.3993    0.6071 C   0  0  1  0  0  0  0  0  0  0  0  0
   -2.9278   -2.9154    0.4024 C   0  0  0  0  0  0  0  0  0  0  0  0
   -3.6699   -3.0553   -0.9192 C   0  0  0  0  0  0  0  0  0  0  0  0
   -4.3582   -1.7156   -1.0854 C   0  0  0  0  0  0  0  0  0  0  0  0
   -3.8698    0.5478   -0.3735 C   0  0  0  0  0  0  0  0  0  0  0  0
   -1.3079   -1.0015    0.8240 C   0  0  0  0  0  0  0  0  0  0  0  0
   -2.7847    1.5914   -0.3543 C   0  0  0  0  0  0  0  0  0  0  0  0
    0.7208   -0.5997    0.7795 C   0  0  0  0  0  0  0  0  0  0  0  0
   -1.9512    1.7789   -1.4515 C   0  0  0  0  0  0  0  0  0  0  0  0
   -2.5849    2.3948    0.7567 C   0  0  0  0  0  0  0  0  0  0  0  0
    2.0726   -0.5367    0.3037 C   0  0  0  0  0  0  0  0  0  0  0  0
   -0.9575    2.7505   -1.4046 C   0  0  0  0  0  0  0  0  0  0  0  0
   -0.8395    3.5020   -0.2467 C   0  0  0  0  0  0  0  0  0  0  0  0
    2.4149   -1.0362   -0.9481 C   0  0  0  0  0  0  0  0  0  0  0  0
    3.0775    0.0243    1.0751 C   0  0  0  0  0  0  0  0  0  0  0  0
    3.7332   -0.9605   -1.3838 C   0  0  0  0  0  0  0  0  0  0  0  0
    4.6640   -0.3805   -0.5369 C   0  0  0  0  0  0  0  0  0  0  0  0
    6.8838    0.3101   -0.0359 C   0  0  0  0  0  0  0  0  0  0  0  0
   -3.3320   -1.1218    1.4993 H   0  0  0  0  0  0  0  0  0  0  0  0
   -3.5426   -3.3274    1.2120 H   0  0  0  0  0  0  0  0  0  0  0  0
   -1.9858   -3.4739    0.3809 H   0  0  0  0  0  0  0  0  0  0  0  0
   -4.3752   -3.8915   -0.9112 H   0  0  0  0  0  0  0  0  0  0  0  0
   -2.9532   -3.2209   -1.7332 H   0  0  0  0  0  0  0  0  0  0  0  0
   -4.6269   -1.5284   -2.1296 H   0  0  0  0  0  0  0  0  0  0  0  0
   -5.2658   -1.6751   -0.4698 H   0  0  0  0  0  0  0  0  0  0  0  0
   -4.5439    0.8270   -1.1955 H   0  0  0  0  0  0  0  0  0  0  0  0
   -4.4816    0.5899    0.5371 H   0  0  0  0  0  0  0  0  0  0  0  0
   -2.0669    1.1785   -2.3497 H   0  0  0  0  0  0  0  0  0  0  0  0
   -3.2009    2.2955    1.6450 H   0  0  0  0  0  0  0  0  0  0  0  0
   -0.2962    2.9140   -2.2477 H   0  0  0  0  0  0  0  0  0  0  0  0
   -0.0800    4.2720   -0.1594 H   0  0  0  0  0  0  0  0  0  0  0  0
    1.6762   -1.4887   -1.6046 H   0  0  0  0  0  0  0  0  0  0  0  0
    2.8936    0.4369    2.0627 H   0  0  0  0  0  0  0  0  0  0  0  0
    4.0167   -1.3453   -2.3573 H   0  0  0  0  0  0  0  0  0  0  0  0
    6.6106    1.3521    0.1615 H   0  0  0  0  0  0  0  0  0  0  0  0
    6.9464   -0.2605    0.8968 H   0  0  0  0  0  0  0  0  0  0  0  0
    7.8738    0.3039   -0.5016 H   0  0  0  0  0  0  0  0  0  0  0  0
  1  5  1  0  0  0  0
  1 13  1  0  0  0  0
  2 24  1  0  0  0  0
  2 25  1  0  0  0  0
  3  8  1  0  0  0  0
  3 11  1  0  0  0  0
  3 12  1  0  0  0  0
  4 13  2  0  0  0  0
  4 15  1  0  0  0  0
  5 15  2  0  0  0  0
  6 17  1  0  0  0  0
  6 20  2  0  0  0  0
  7 22  1  0  0  0  0
  7 24  2  0  0  0  0
  8  9  1  0  0  0  0
  8 13  1  0  0  0  0
  8 26  1  0  0  0  0
  9 10  1  0  0  0  0
  9 27  1  0  0  0  0
  9 28  1  0  0  0  0
 10 11  1  0  0  0  0
 10 29  1  0  0  0  0
 10 30  1  0  0  0  0
 11 31  1  0  0  0  0
 11 32  1  0  0  0  0
 12 14  1  0  0  0  0
 12 33  1  0  0  0  0
 12 34  1  0  0  0  0
 14 16  1  0  0  0  0
 14 17  2  0  0  0  0
 15 18  1  0  0  0  0
 16 19  2  0  0  0  0
 16 35  1  0  0  0  0
 17 36  1  0  0  0  0
 18 21  1  0  0  0  0
 18 22  2  0  0  0  0
 19 20  1  0  0  0  0
 19 37  1  0  0  0  0
 20 38  1  0  0  0  0
 21 23  2  0  0  0  0
 21 39  1  0  0  0  0
 22 40  1  0  0  0  0
 23 24  1  0  0  0  0
 23 41  1  0  0  0  0
 25 42  1  0  0  0  0
 25 43  1  0  0  0  0
 25 44  1  0  0  0  0
M  END
> <PUBCHEM_COMPOUND_CID>
45783702

> <PUBCHEM_CONFORMER_RMSD>
0.8

> <PUBCHEM_CONFORMER_DIVERSEORDER>
1
28
23
77
120
31
19
86
34
106
78
52
33
81
115
110
93
112
121
104
76
16
95
25
114
118
38
80
60
8
43
47
46
62
48
92
67
109
69
41
21
74
26
108
116
57
20
53
50
87
22
3
11
51
27
82
14
36
49
89
70
7
30
2
90
63
73
6
85
4
55
98
72
18
58
79
107
66
91
101
100
83
17
117
105
94
42
35
13
96
15
68
24
64
84
59
40
45
88
9
75
32
102
119
44
5
54
99
103
10
97
61
29
71
111
113
65
39
56
12
37

> <PUBCHEM_MMFF94_PARTIAL_CHARGES>
30
1 -0.02
11 0.27
12 0.41
13 0.3
14 -0.14
15 0.46
16 -0.15
17 0.16
18 0.05
19 -0.15
2 -0.36
20 0.16
21 -0.15
22 0.16
23 -0.15
24 0.39
25 0.28
3 -0.81
35 0.15
36 0.15
37 0.15
38 0.15
39 0.15
4 -0.57
40 0.15
41 0.15
5 -0.41
6 -0.62
7 -0.62
8 0.45

> <PUBCHEM_EFFECTIVE_ROTOR_COUNT>
6

> <PUBCHEM_PHARMACOPHORE_FEATURES>
7
1 3 cation
1 6 acceptor
3 4 5 15 cation
5 1 4 5 13 15 rings
5 3 8 9 10 11 rings
6 6 14 16 17 19 20 rings
6 7 18 21 22 23 24 rings

> <PUBCHEM_HEAVY_ATOM_COUNT>
25

> <PUBCHEM_ATOM_DEF_STEREO_COUNT>
1

> <PUBCHEM_ATOM_UDEF_STEREO_COUNT>
0

> <PUBCHEM_BOND_DEF_STEREO_COUNT>
0

> <PUBCHEM_BOND_UDEF_STEREO_COUNT>
0

> <PUBCHEM_ISOTOPIC_ATOM_COUNT>
0

> <PUBCHEM_COMPONENT_COUNT>
1

> <PUBCHEM_CACTVS_TAUTO_COUNT>
1

> <PUBCHEM_CONFORMER_ID>
02BA9A9600000001

> <PUBCHEM_MMFF94_ENERGY>
55.7297

> <PUBCHEM_FEATURE_SELFOVERLAP>
35.523

> <PUBCHEM_SHAPE_FINGERPRINT>
10291535 26 18334021583658819328
10498660 4 18262226721197032237
10871710 139 17822850871321823765
10937287 8 17618220611520514597
11101153 10 18264216988216372628
11477941 20 18410572933602512924
11488393 25 17038112178073760035
12156800 1 15507380632367827373
12166972 35 16805889618422654406
12173636 292 17980474560472436789
12788726 201 18261664913810452315
13761468 95 17463702987394990924
13994607 96 17168726149328342105
14713325 29 18341336599816088366
14790565 3 18051125892298082845
14910302 57 18200872872892569862
14955137 171 18338250349009355443
15183329 4 17822014152254149266
15463212 79 18188772725753468627
15849732 13 18342750611536814235
15961568 22 18191860344090303648
17349148 13 17385441020960969106
17357779 13 18270383006057853775
17492 54 17969481759619529429
17818456 19 17901927670250303738
19489759 90 18260829311075422938
20775438 99 16970525198557488503
20905425 154 17903070385217639429
21033650 10 18117298981786672894
21623110 236 18261404398258893436
22393880 68 18198914621731176846
23402539 116 18260829327975801742
23557571 272 18413107272869070494
23559900 14 18271798059963273704
3268164 11 18408039606665418526
4280585 95 18265040495795429486
469060 322 17532679904344248673
497634 4 17703522051074338288
531348 171 18267309742436742782
7399639 24 18058714936120996458

> <PUBCHEM_SHAPE_MULTIPOLES>
477.84
10.91
3.54
1.49
20.05
2.29
0.2
-3.68
-2.98
-5.52
-0.53
-0.04
0.04
-0.02

> <PUBCHEM_SHAPE_SELFOVERLAP>
1038.359

> <PUBCHEM_SHAPE_VOLUME>
261.5

> <PUBCHEM_COORDINATE_TYPE>
2
5
10

$$$$
