26745257
  -OEChem-12032416183D

 55 58  0     1  0  0  0  0  0999 V2000
   -4.9321   -2.0495    2.2556 Cl  0  0  0  0  0  0  0  0  0  0  0  0
    0.1892    1.2613   -2.5067 O   0  0  0  0  0  0  0  0  0  0  0  0
    1.9387   -2.2764   -0.0317 O   0  0  0  0  0  0  0  0  0  0  0  0
    1.5191    0.7725   -0.6539 N   0  0  0  0  0  0  0  0  0  0  0  0
   -0.2772    2.3113   -0.5169 N   0  0  0  0  0  0  0  0  0  0  0  0
    3.8476    0.5876    2.2901 N   0  0  0  0  0  0  0  0  0  0  0  0
    5.2389   -0.4320    0.8712 N   0  0  0  0  0  0  0  0  0  0  0  0
    0.4202   -1.8779   -1.7507 N   0  0  0  0  0  0  0  0  0  0  0  0
   -1.3996    3.0636   -1.0321 C   0  0  0  0  0  0  0  0  0  0  0  0
   -2.6994    2.2597   -0.9203 C   0  0  0  0  0  0  0  0  0  0  0  0
   -1.5231    4.4198   -0.3293 C   0  0  0  0  0  0  0  0  0  0  0  0
   -3.1859    2.1322    0.5233 C   0  0  0  0  0  0  0  0  0  0  0  0
   -2.0115    4.2887    1.1133 C   0  0  0  0  0  0  0  0  0  0  0  0
   -3.3116    3.4949    1.1976 C   0  0  0  0  0  0  0  0  0  0  0  0
    2.2104   -0.3248   -1.3853 C   0  0  1  0  0  0  0  0  0  0  0  0
    3.7353   -0.3961   -1.1635 C   0  0  0  0  0  0  0  0  0  0  0  0
    1.8344    0.9955    0.7881 C   0  0  0  0  0  0  0  0  0  0  0  0
    0.4580    1.4387   -1.3145 C   0  0  0  0  0  0  0  0  0  0  0  0
    3.1924    0.5132    1.0968 C   0  0  0  0  0  0  0  0  0  0  0  0
    4.0646   -0.1177    0.2471 C   0  0  0  0  0  0  0  0  0  0  0  0
    1.5226   -1.5926   -0.9632 C   0  0  0  0  0  0  0  0  0  0  0  0
    5.0763    0.0054    2.1038 C   0  0  0  0  0  0  0  0  0  0  0  0
   -0.4006   -3.0529   -1.5658 C   0  0  0  0  0  0  0  0  0  0  0  0
   -1.5328   -2.8028   -0.6120 C   0  0  0  0  0  0  0  0  0  0  0  0
   -1.3578   -3.0311    0.7529 C   0  0  0  0  0  0  0  0  0  0  0  0
   -2.7595   -2.3423   -1.0903 C   0  0  0  0  0  0  0  0  0  0  0  0
   -2.4092   -2.7992    1.6394 C   0  0  0  0  0  0  0  0  0  0  0  0
   -3.8111   -2.1102   -0.2039 C   0  0  0  0  0  0  0  0  0  0  0  0
   -3.6360   -2.3387    1.1610 C   0  0  0  0  0  0  0  0  0  0  0  0
   -1.2084    3.2533   -2.0956 H   0  0  0  0  0  0  0  0  0  0  0  0
   -3.4783    2.7591   -1.5105 H   0  0  0  0  0  0  0  0  0  0  0  0
   -2.5720    1.2583   -1.3488 H   0  0  0  0  0  0  0  0  0  0  0  0
   -0.5596    4.9432   -0.3403 H   0  0  0  0  0  0  0  0  0  0  0  0
   -2.2321    5.0463   -0.8855 H   0  0  0  0  0  0  0  0  0  0  0  0
   -2.4917    1.5030    1.0936 H   0  0  0  0  0  0  0  0  0  0  0  0
   -4.1568    1.6239    0.5386 H   0  0  0  0  0  0  0  0  0  0  0  0
   -2.1662    5.2876    1.5372 H   0  0  0  0  0  0  0  0  0  0  0  0
   -1.2443    3.8037    1.7282 H   0  0  0  0  0  0  0  0  0  0  0  0
   -4.1176    4.0646    0.7189 H   0  0  0  0  0  0  0  0  0  0  0  0
   -3.5955    3.3621    2.2476 H   0  0  0  0  0  0  0  0  0  0  0  0
    2.0565   -0.1962   -2.4641 H   0  0  0  0  0  0  0  0  0  0  0  0
   -0.1347    2.3197    0.4852 H   0  0  0  0  0  0  0  0  0  0  0  0
    4.2219    0.3684   -1.7818 H   0  0  0  0  0  0  0  0  0  0  0  0
    4.1327   -1.3703   -1.4694 H   0  0  0  0  0  0  0  0  0  0  0  0
    1.7676    2.0647    1.0118 H   0  0  0  0  0  0  0  0  0  0  0  0
    1.0811    0.4592    1.3751 H   0  0  0  0  0  0  0  0  0  0  0  0
    3.4994    0.9922    3.1494 H   0  0  0  0  0  0  0  0  0  0  0  0
    5.7998   -0.0660    2.9035 H   0  0  0  0  0  0  0  0  0  0  0  0
    0.1482   -1.2298   -2.4839 H   0  0  0  0  0  0  0  0  0  0  0  0
   -0.7838   -3.3454   -2.5501 H   0  0  0  0  0  0  0  0  0  0  0  0
    0.2237   -3.8802   -1.2081 H   0  0  0  0  0  0  0  0  0  0  0  0
   -0.4085   -3.3918    1.1394 H   0  0  0  0  0  0  0  0  0  0  0  0
   -2.9072   -2.1575   -2.1510 H   0  0  0  0  0  0  0  0  0  0  0  0
   -2.2583   -2.9812    2.7004 H   0  0  0  0  0  0  0  0  0  0  0  0
   -4.7608   -1.7493   -0.5905 H   0  0  0  0  0  0  0  0  0  0  0  0
  1 29  1  0  0  0  0
  2 18  2  0  0  0  0
  3 21  2  0  0  0  0
  4 15  1  0  0  0  0
  4 17  1  0  0  0  0
  4 18  1  0  0  0  0
  5  9  1  0  0  0  0
  5 18  1  0  0  0  0
  5 42  1  0  0  0  0
  6 19  1  0  0  0  0
  6 22  1  0  0  0  0
  6 47  1  0  0  0  0
  7 20  1  0  0  0  0
  7 22  2  0  0  0  0
  8 21  1  0  0  0  0
  8 23  1  0  0  0  0
  8 49  1  0  0  0  0
  9 10  1  0  0  0  0
  9 11  1  0  0  0  0
  9 30  1  0  0  0  0
 10 12  1  0  0  0  0
 10 31  1  0  0  0  0
 10 32  1  0  0  0  0
 11 13  1  0  0  0  0
 11 33  1  0  0  0  0
 11 34  1  0  0  0  0
 12 14  1  0  0  0  0
 12 35  1  0  0  0  0
 12 36  1  0  0  0  0
 13 14  1  0  0  0  0
 13 37  1  0  0  0  0
 13 38  1  0  0  0  0
 14 39  1  0  0  0  0
 14 40  1  0  0  0  0
 15 16  1  0  0  0  0
 15 21  1  0  0  0  0
 15 41  1  0  0  0  0
 16 20  1  0  0  0  0
 16 43  1  0  0  0  0
 16 44  1  0  0  0  0
 17 19  1  0  0  0  0
 17 45  1  0  0  0  0
 17 46  1  0  0  0  0
 19 20  2  0  0  0  0
 22 48  1  0  0  0  0
 23 24  1  0  0  0  0
 23 50  1  0  0  0  0
 23 51  1  0  0  0  0
 24 25  2  0  0  0  0
 24 26  1  0  0  0  0
 25 27  1  0  0  0  0
 25 52  1  0  0  0  0
 26 28  2  0  0  0  0
 26 53  1  0  0  0  0
 27 29  2  0  0  0  0
 27 54  1  0  0  0  0
 28 29  1  0  0  0  0
 28 55  1  0  0  0  0
M  END
> <PUBCHEM_COMPOUND_CID>
26745257

> <PUBCHEM_CONFORMER_RMSD>
1

> <PUBCHEM_CONFORMER_DIVERSEORDER>
1
22
72
38
70
39
41
6
43
67
10
36
25
44
61
66
11
27
20
16
5
37
28
65
23
64
34
68
8
58
31
50
42
30
12
48
9
59
4
54
69
35
46
40
19
74
18
56
51
14
63
26
2
49
53
7
73
24
60
55
33
45
17
52
57
62
13
32
3
15
21
47
71
29

> <PUBCHEM_MMFF94_PARTIAL_CHARGES>
32
1 -0.18
15 0.36
16 0.18
17 0.48
18 0.69
19 -0.33
2 -0.57
20 0.05
21 0.57
22 0.04
23 0.44
24 -0.14
25 -0.15
26 -0.15
27 -0.15
28 -0.15
29 0.18
3 -0.57
4 -0.66
42 0.37
47 0.27
48 0.15
49 0.37
5 -0.73
52 0.15
53 0.15
54 0.15
55 0.15
6 0.03
7 -0.57
8 -0.73
9 0.3

> <PUBCHEM_EFFECTIVE_ROTOR_COUNT>
9

> <PUBCHEM_PHARMACOPHORE_FEATURES>
10
1 2 acceptor
1 3 acceptor
1 5 donor
1 6 donor
1 8 donor
3 6 7 22 cation
5 6 7 19 20 22 rings
6 24 25 26 27 28 29 rings
6 4 15 16 17 19 20 rings
6 9 10 11 12 13 14 rings

> <PUBCHEM_HEAVY_ATOM_COUNT>
29

> <PUBCHEM_ATOM_DEF_STEREO_COUNT>
1

> <PUBCHEM_ATOM_UDEF_STEREO_COUNT>
0

> <PUBCHEM_BOND_DEF_STEREO_COUNT>
0

> <PUBCHEM_BOND_UDEF_STEREO_COUNT>
0

> <PUBCHEM_ISOTOPIC_ATOM_COUNT>
0

> <PUBCHEM_COMPONENT_COUNT>
1

> <PUBCHEM_CACTVS_TAUTO_COUNT>
8

> <PUBCHEM_CONFORMER_ID>
019819A900000001

> <PUBCHEM_MMFF94_ENERGY>
49.9889

> <PUBCHEM_FEATURE_SELFOVERLAP>
50.849

> <PUBCHEM_SHAPE_FINGERPRINT>
10006869 2 18125434461114607260
10064457 181 17978522939895899980
11387372 6 17612561481930054602
11456790 92 18114752659297634683
114674 6 17184761186553156605
11646440 116 18339636845846197903
12160290 23 18336533950442865396
12166972 35 17696739335742370871
12422481 6 18268731488211920579
12522641 24 16612523611553847873
12553582 1 18194980749261704919
12788726 201 18262244433858120356
13135754 10 18334010567136536446
13965767 371 17988098754198158411
14081887 123 18413102844736689237
14178342 30 18337394837718969541
14725015 67 18189884483351064799
15338160 23 18339631331140124112
17974551 9 18047186358682511258
18603816 31 15363269688384356976
19734167 9 18268723709593617337
20764821 26 18339939211374940261
21033648 29 17702400608954029290
21796203 349 17903108807594422617
238918 7 18272097050096542935
24893989 43 15157666609842827297
24941158 1 16126152649871717815
3052486 1 18260841392359367470
3472631 163 15625406596203986419
35225 105 17833504077905545993
4058900 60 17547860651220481220
5171179 24 17986674766412883446
552612 73 18131078151932513412
563151 40 18043827394484820354
57091435 65 17616260612084865913
58260988 114 17532350012522859842
5951187 136 14327558309268071259
6004065 56 18056181713239701031
653340 110 18342177722232556057
79837 15 18194958543927902328
9777508 108 18270398274318496292

> <PUBCHEM_SHAPE_MULTIPOLES>
562.03
8.74
5.79
2.18
5.66
4.86
0.37
-2.9
6.3
-8.33
0.1
0.52
-0.45
0.92

> <PUBCHEM_SHAPE_SELFOVERLAP>
1190.789

> <PUBCHEM_SHAPE_VOLUME>
312.7

> <PUBCHEM_COORDINATE_TYPE>
2
5
10

$$$$
