28960549
  -OEChem-12032416353D

 55 58  0     1  0  0  0  0  0999 V2000
    2.6920   -1.5443    1.7641 O   0  0  0  0  0  0  0  0  0  0  0  0
    4.2574   -2.7417    0.5408 O   0  0  0  0  0  0  0  0  0  0  0  0
    2.6362   -2.8047   -1.8401 O   0  0  0  0  0  0  0  0  0  0  0  0
    1.2187    4.8080    0.8983 O   0  0  0  0  0  0  0  0  0  0  0  0
   -1.3734   -2.6007   -1.1058 O   0  0  0  0  0  0  0  0  0  0  0  0
    2.6163    0.4789   -0.2723 N   0  0  0  0  0  0  0  0  0  0  0  0
    0.0685   -1.6834    0.4505 N   0  0  0  0  0  0  0  0  0  0  0  0
    2.2678    5.6993   -0.9452 N   0  0  0  0  0  0  0  0  0  0  0  0
   -2.0866   -0.9090    0.3571 N   0  0  0  0  0  0  0  0  0  0  0  0
   -6.9932    2.1802    1.5197 N   0  0  0  0  0  0  0  0  0  0  0  0
    3.1444   -0.8667   -0.5057 C   0  0  2  0  0  0  0  0  0  0  0  0
    2.0240   -1.7950   -1.0269 C   0  0  2  0  0  0  0  0  0  0  0  0
    1.2221   -2.4834    0.0993 C   0  0  1  0  0  0  0  0  0  0  0  0
    3.7450   -1.4239    0.7980 C   0  0  1  0  0  0  0  0  0  0  0  0
    2.0653   -2.7657    1.3599 C   0  0  1  0  0  0  0  0  0  0  0  0
    3.2851   -3.6322    1.1094 C   0  0  0  0  0  0  0  0  0  0  0  0
    3.5032    1.2302    0.6267 C   0  0  0  0  0  0  0  0  0  0  0  0
    2.4303    1.1861   -1.5469 C   0  0  0  0  0  0  0  0  0  0  0  0
    2.9368    2.6196    0.9246 C   0  0  0  0  0  0  0  0  0  0  0  0
    1.8280    2.5745   -1.3246 C   0  0  0  0  0  0  0  0  0  0  0  0
    2.6800    3.4007   -0.3627 C   0  0  0  0  0  0  0  0  0  0  0  0
    1.9834    4.6901   -0.0560 C   0  0  0  0  0  0  0  0  0  0  0  0
   -1.1659   -1.8058   -0.1921 C   0  0  0  0  0  0  0  0  0  0  0  0
   -3.4392   -0.7196   -0.0104 C   0  0  0  0  0  0  0  0  0  0  0  0
   -4.2160    0.2305    0.6524 C   0  0  0  0  0  0  0  0  0  0  0  0
   -3.9963   -1.4835   -1.0360 C   0  0  0  0  0  0  0  0  0  0  0  0
   -5.5500    0.4167    0.2897 C   0  0  0  0  0  0  0  0  0  0  0  0
   -5.3303   -1.2975   -1.3985 C   0  0  0  0  0  0  0  0  0  0  0  0
   -6.1072   -0.3474   -0.7358 C   0  0  0  0  0  0  0  0  0  0  0  0
   -6.3465    1.3898    0.9685 C   0  0  0  0  0  0  0  0  0  0  0  0
    3.9582   -0.8388   -1.2450 H   0  0  0  0  0  0  0  0  0  0  0  0
    1.3402   -1.2799   -1.7071 H   0  0  0  0  0  0  0  0  0  0  0  0
    0.8457   -3.4476   -0.2660 H   0  0  0  0  0  0  0  0  0  0  0  0
    4.5904   -0.8618    1.2019 H   0  0  0  0  0  0  0  0  0  0  0  0
    1.4427   -3.1566    2.1713 H   0  0  0  0  0  0  0  0  0  0  0  0
    3.7025   -4.0025    2.0519 H   0  0  0  0  0  0  0  0  0  0  0  0
    3.1024   -4.4802    0.4440 H   0  0  0  0  0  0  0  0  0  0  0  0
    4.5137    1.3250    0.2081 H   0  0  0  0  0  0  0  0  0  0  0  0
    3.5761    0.7868    1.6236 H   0  0  0  0  0  0  0  0  0  0  0  0
    1.7527    0.6499   -2.2175 H   0  0  0  0  0  0  0  0  0  0  0  0
    3.3869    1.2893   -2.0768 H   0  0  0  0  0  0  0  0  0  0  0  0
    2.0086    2.5062    1.5015 H   0  0  0  0  0  0  0  0  0  0  0  0
    3.6338    3.1738    1.5657 H   0  0  0  0  0  0  0  0  0  0  0  0
    1.7386    3.0916   -2.2880 H   0  0  0  0  0  0  0  0  0  0  0  0
    0.8062    2.4719   -0.9344 H   0  0  0  0  0  0  0  0  0  0  0  0
    3.6477    3.6174   -0.8347 H   0  0  0  0  0  0  0  0  0  0  0  0
    0.1850   -0.9484    1.1416 H   0  0  0  0  0  0  0  0  0  0  0  0
    1.9251   -3.3525   -2.2140 H   0  0  0  0  0  0  0  0  0  0  0  0
    2.8942    5.5711   -1.7335 H   0  0  0  0  0  0  0  0  0  0  0  0
    1.8498    6.6180   -0.8418 H   0  0  0  0  0  0  0  0  0  0  0  0
   -1.7518   -0.3171    1.1131 H   0  0  0  0  0  0  0  0  0  0  0  0
   -3.7795    0.8256    1.4523 H   0  0  0  0  0  0  0  0  0  0  0  0
   -3.4602   -2.2373   -1.5951 H   0  0  0  0  0  0  0  0  0  0  0  0
   -5.7653   -1.8918   -2.1969 H   0  0  0  0  0  0  0  0  0  0  0  0
   -7.1455   -0.2140   -1.0299 H   0  0  0  0  0  0  0  0  0  0  0  0
  1 14  1  0  0  0  0
  1 15  1  0  0  0  0
  2 14  1  0  0  0  0
  2 16  1  0  0  0  0
  3 12  1  0  0  0  0
  3 48  1  0  0  0  0
  4 22  2  0  0  0  0
  5 23  2  0  0  0  0
  6 11  1  0  0  0  0
  6 17  1  0  0  0  0
  6 18  1  0  0  0  0
  7 13  1  0  0  0  0
  7 23  1  0  0  0  0
  7 47  1  0  0  0  0
  8 22  1  0  0  0  0
  8 49  1  0  0  0  0
  8 50  1  0  0  0  0
  9 23  1  0  0  0  0
  9 24  1  0  0  0  0
  9 51  1  0  0  0  0
 10 30  3  0  0  0  0
 11 12  1  0  0  0  0
 11 14  1  0  0  0  0
 11 31  1  0  0  0  0
 12 13  1  0  0  0  0
 12 32  1  0  0  0  0
 13 15  1  0  0  0  0
 13 33  1  0  0  0  0
 14 34  1  0  0  0  0
 15 16  1  0  0  0  0
 15 35  1  0  0  0  0
 16 36  1  0  0  0  0
 16 37  1  0  0  0  0
 17 19  1  0  0  0  0
 17 38  1  0  0  0  0
 17 39  1  0  0  0  0
 18 20  1  0  0  0  0
 18 40  1  0  0  0  0
 18 41  1  0  0  0  0
 19 21  1  0  0  0  0
 19 42  1  0  0  0  0
 19 43  1  0  0  0  0
 20 21  1  0  0  0  0
 20 44  1  0  0  0  0
 20 45  1  0  0  0  0
 21 22  1  0  0  0  0
 21 46  1  0  0  0  0
 24 25  1  0  0  0  0
 24 26  2  0  0  0  0
 25 27  2  0  0  0  0
 25 52  1  0  0  0  0
 26 28  1  0  0  0  0
 26 53  1  0  0  0  0
 27 29  1  0  0  0  0
 27 30  1  0  0  0  0
 28 29  2  0  0  0  0
 28 54  1  0  0  0  0
 29 55  1  0  0  0  0
M  END
> <PUBCHEM_COMPOUND_CID>
28960549

> <PUBCHEM_CONFORMER_RMSD>
1

> <PUBCHEM_CONFORMER_DIVERSEORDER>
1
77
27
67
46
25
73
83
44
66
88
78
71
64
70
62
30
45
32
86
84
34
10
61
65
54
53
68
60
87
33
48
26
31
72
41
12
81
69
74
5
47
75
18
79
6
51
15
21
39
28
50
85
11
20
52
23
38
55
43
17
80
37
76
59
63
35
56
82
19
7
29
40
13
36
9
3
49
58
2
4
24
42
14
22
16
57
8

> <PUBCHEM_MMFF94_PARTIAL_CHARGES>
37
1 -0.56
10 -0.56
11 0.27
12 0.28
13 0.3
14 0.56
15 0.28
16 0.28
17 0.27
18 0.27
2 -0.56
21 0.06
22 0.57
23 0.69
24 0.12
25 -0.15
26 -0.15
27 0.07
28 -0.15
29 -0.15
3 -0.68
30 0.48
4 -0.57
47 0.37
48 0.4
49 0.37
5 -0.57
50 0.37
51 0.37
52 0.15
53 0.15
54 0.15
55 0.15
6 -0.81
7 -0.73
8 -0.8
9 -0.55

> <PUBCHEM_EFFECTIVE_ROTOR_COUNT>
8.4

> <PUBCHEM_PHARMACOPHORE_FEATURES>
14
1 1 acceptor
1 10 acceptor
1 2 acceptor
1 3 acceptor
1 3 donor
1 4 acceptor
1 5 acceptor
1 6 cation
1 7 donor
1 8 donor
1 9 donor
6 24 25 26 27 28 29 rings
6 6 17 18 19 20 21 rings
8 1 2 11 12 13 14 15 16 rings

> <PUBCHEM_HEAVY_ATOM_COUNT>
30

> <PUBCHEM_ATOM_DEF_STEREO_COUNT>
5

> <PUBCHEM_ATOM_UDEF_STEREO_COUNT>
0

> <PUBCHEM_BOND_DEF_STEREO_COUNT>
0

> <PUBCHEM_BOND_UDEF_STEREO_COUNT>
0

> <PUBCHEM_ISOTOPIC_ATOM_COUNT>
0

> <PUBCHEM_COMPONENT_COUNT>
1

> <PUBCHEM_CACTVS_TAUTO_COUNT>
6

> <PUBCHEM_CONFORMER_ID>
01B9E72500000001

> <PUBCHEM_MMFF94_ENERGY>
80.8985

> <PUBCHEM_FEATURE_SELFOVERLAP>
71.152

> <PUBCHEM_SHAPE_FINGERPRINT>
10439779 11 18340757230503518232
10675989 125 18268997647193627609
10937287 8 17832139794434297452
11059845 2 17401742612584421600
11331351 85 18051973623745981838
12166972 35 18343014459082018907
12616971 3 18340485574323173051
13590594 115 18265051332351319394
13878862 14 18043226047132740383
13944108 23 18336839623113295492
13965767 371 17535164955341824644
14251764 75 18121789597364599033
14849402 71 18335136544405200082
15326921 28 16974200870403400600
15420108 30 18128801118980528078
15475509 84 17902216833323903986
17980427 23 18126538306617624562
18681886 176 18342450439803469138
19302320 297 18196104253083855057
20567600 9 18339083803638432500
21033648 29 16877932820700543143
21133410 221 15397655191818859785
21344244 78 18044634431170727562
21591340 35 18267589189550664368
21860390 5 18342178868941637678
22122407 14 18337405838143292313
23559900 14 17846504682013212983
245318 6 17972604556830459789
24771293 8 18270947017348570290
3103668 31 17762064237725094964
345986 75 17535170173606277138
376196 1 17980204411323875406
4058900 60 18046634674459825844
474 4 18262793111245314054
5104073 3 18334297574437612131
513532 50 17989213650767171052
54076057 255 18192174640515325447
5895379 119 17702678656667403227
5951187 136 18201455687185650301
60111433 81 17846486067467113041
6201320 215 16031840317196957549
9849439 229 17756991473152968309
9981440 41 17687174705265841106

> <PUBCHEM_SHAPE_MULTIPOLES>
563.13
13.18
6.36
1.49
30.28
8.79
0.12
2.43
-2.22
-9.53
-0.22
-0.02
-0.25
-2.82

> <PUBCHEM_SHAPE_SELFOVERLAP>
1206.915

> <PUBCHEM_SHAPE_VOLUME>
304.3

> <PUBCHEM_COORDINATE_TYPE>
2
5
10

$$$$
