26743270
  -OEChem-12032416403D

 61 64  0     1  0  0  0  0  0999 V2000
    7.8801    2.0482   -1.7427 S   0  0  0  0  0  0  0  0  0  0  0  0
   -2.3619    0.4711    1.8138 O   0  0  0  0  0  0  0  0  0  0  0  0
    5.5460   -0.5682    1.3645 O   0  0  0  0  0  0  0  0  0  0  0  0
    1.4562   -3.2982   -0.9198 N   0  0  0  0  0  0  0  0  0  0  0  0
   -0.9760    0.4392    1.9104 N   0  0  0  0  0  0  0  0  0  0  0  0
    5.9297    0.6387   -0.6139 N   0  0  0  0  0  0  0  0  0  0  0  0
    8.0607    0.9023    0.5675 N   0  0  0  0  0  0  0  0  0  0  0  0
    2.9572   -1.2855    0.6304 C   0  0  1  0  0  0  0  0  0  0  0  0
    1.4352   -1.1782    0.3729 C   0  0  2  0  0  0  0  0  0  0  0  0
    3.3796   -2.7613    0.5343 C   0  0  0  0  0  0  0  0  0  0  0  0
    1.0258   -1.8995   -0.9222 C   0  0  0  0  0  0  0  0  0  0  0  0
    0.9288    0.2647    0.3674 C   0  0  0  0  0  0  0  0  0  0  0  0
    2.9036   -3.4211   -0.7592 C   0  0  0  0  0  0  0  0  0  0  0  0
    3.8100   -0.4125   -0.2978 C   0  0  0  0  0  0  0  0  0  0  0  0
   -0.5442    0.3287    0.6509 C   0  0  0  0  0  0  0  0  0  0  0  0
    5.1896   -0.1388    0.2722 C   0  0  0  0  0  0  0  0  0  0  0  0
   -1.6017    0.2865   -0.2741 C   0  0  0  0  0  0  0  0  0  0  0  0
   -2.7223    0.3794    0.5082 C   0  0  0  0  0  0  0  0  0  0  0  0
   -8.3438    0.4569   -0.5200 C   0  0  0  0  0  0  0  0  0  0  0  0
   -4.1329    0.3994    0.2503 C   0  0  0  0  0  0  0  0  0  0  0  0
   -6.8768    0.4365   -0.2515 C   0  0  0  0  0  0  0  0  0  0  0  0
   -4.6036    0.3105   -1.0597 C   0  0  0  0  0  0  0  0  0  0  0  0
   -5.0342    0.5066    1.3095 C   0  0  0  0  0  0  0  0  0  0  0  0
    7.2558    1.1059   -0.4516 C   0  0  0  0  0  0  0  0  0  0  0  0
   -8.8055   -0.8493   -1.2375 C   0  0  0  0  0  0  0  0  0  0  0  0
   -8.7351    1.6592   -1.4341 C   0  0  0  0  0  0  0  0  0  0  0  0
   -9.2563    0.5818    0.7451 C   0  0  0  0  0  0  0  0  0  0  0  0
   -5.9755    0.3291   -1.3106 C   0  0  0  0  0  0  0  0  0  0  0  0
   -6.4061    0.5253    1.0586 C   0  0  0  0  0  0  0  0  0  0  0  0
    9.3541    2.2080   -0.8806 C   0  0  0  0  0  0  0  0  0  0  0  0
    9.2634    1.5346    0.3196 C   0  0  0  0  0  0  0  0  0  0  0  0
    3.1259   -0.9584    1.6657 H   0  0  0  0  0  0  0  0  0  0  0  0
    0.9475   -1.7090    1.2058 H   0  0  0  0  0  0  0  0  0  0  0  0
    2.9521   -3.3056    1.3872 H   0  0  0  0  0  0  0  0  0  0  0  0
    4.4666   -2.8688    0.6186 H   0  0  0  0  0  0  0  0  0  0  0  0
   -0.0624   -1.9005   -1.0319 H   0  0  0  0  0  0  0  0  0  0  0  0
    1.4333   -1.3854   -1.8015 H   0  0  0  0  0  0  0  0  0  0  0  0
    1.1263    0.7529   -0.5949 H   0  0  0  0  0  0  0  0  0  0  0  0
    1.4522    0.8513    1.1339 H   0  0  0  0  0  0  0  0  0  0  0  0
    3.4199   -3.0045   -1.6310 H   0  0  0  0  0  0  0  0  0  0  0  0
    3.1598   -4.4861   -0.7258 H   0  0  0  0  0  0  0  0  0  0  0  0
    3.3510    0.5724   -0.4352 H   0  0  0  0  0  0  0  0  0  0  0  0
    3.9171   -0.8554   -1.2933 H   0  0  0  0  0  0  0  0  0  0  0  0
    1.1754   -3.7391   -1.7952 H   0  0  0  0  0  0  0  0  0  0  0  0
   -1.5467    0.2039   -1.3498 H   0  0  0  0  0  0  0  0  0  0  0  0
    5.4985    0.9228   -1.4903 H   0  0  0  0  0  0  0  0  0  0  0  0
   -9.8881   -0.8483   -1.4099 H   0  0  0  0  0  0  0  0  0  0  0  0
   -8.3233   -0.9725   -2.2135 H   0  0  0  0  0  0  0  0  0  0  0  0
   -8.5614   -1.7318   -0.6344 H   0  0  0  0  0  0  0  0  0  0  0  0
   -9.8168    1.6918   -1.6087 H   0  0  0  0  0  0  0  0  0  0  0  0
   -8.4393    2.6098   -0.9748 H   0  0  0  0  0  0  0  0  0  0  0  0
   -8.2512    1.6017   -2.4154 H   0  0  0  0  0  0  0  0  0  0  0  0
  -10.3174    0.5901    0.4673 H   0  0  0  0  0  0  0  0  0  0  0  0
   -9.1114   -0.2619    1.4298 H   0  0  0  0  0  0  0  0  0  0  0  0
   -9.0611    1.5123    1.2909 H   0  0  0  0  0  0  0  0  0  0  0  0
   -3.9259    0.2257   -1.9053 H   0  0  0  0  0  0  0  0  0  0  0  0
   -4.7057    0.5776    2.3433 H   0  0  0  0  0  0  0  0  0  0  0  0
   -6.3147    0.2585   -2.3401 H   0  0  0  0  0  0  0  0  0  0  0  0
   -7.0621    0.6103    1.9180 H   0  0  0  0  0  0  0  0  0  0  0  0
   10.1886    2.7670   -1.2790 H   0  0  0  0  0  0  0  0  0  0  0  0
   10.0527    1.4736    1.0565 H   0  0  0  0  0  0  0  0  0  0  0  0
  1 24  1  0  0  0  0
  1 30  1  0  0  0  0
  2  5  1  0  0  0  0
  2 18  1  0  0  0  0
  3 16  2  0  0  0  0
  4 11  1  0  0  0  0
  4 13  1  0  0  0  0
  4 44  1  0  0  0  0
  5 15  2  0  0  0  0
  6 16  1  0  0  0  0
  6 24  1  0  0  0  0
  6 46  1  0  0  0  0
  7 24  2  0  0  0  0
  7 31  1  0  0  0  0
  8  9  1  0  0  0  0
  8 10  1  0  0  0  0
  8 14  1  0  0  0  0
  8 32  1  0  0  0  0
  9 11  1  0  0  0  0
  9 12  1  0  0  0  0
  9 33  1  0  0  0  0
 10 13  1  0  0  0  0
 10 34  1  0  0  0  0
 10 35  1  0  0  0  0
 11 36  1  0  0  0  0
 11 37  1  0  0  0  0
 12 15  1  0  0  0  0
 12 38  1  0  0  0  0
 12 39  1  0  0  0  0
 13 40  1  0  0  0  0
 13 41  1  0  0  0  0
 14 16  1  0  0  0  0
 14 42  1  0  0  0  0
 14 43  1  0  0  0  0
 15 17  1  0  0  0  0
 17 18  2  0  0  0  0
 17 45  1  0  0  0  0
 18 20  1  0  0  0  0
 19 21  1  0  0  0  0
 19 25  1  0  0  0  0
 19 26  1  0  0  0  0
 19 27  1  0  0  0  0
 20 22  2  0  0  0  0
 20 23  1  0  0  0  0
 21 28  2  0  0  0  0
 21 29  1  0  0  0  0
 22 28  1  0  0  0  0
 22 56  1  0  0  0  0
 23 29  2  0  0  0  0
 23 57  1  0  0  0  0
 25 47  1  0  0  0  0
 25 48  1  0  0  0  0
 25 49  1  0  0  0  0
 26 50  1  0  0  0  0
 26 51  1  0  0  0  0
 26 52  1  0  0  0  0
 27 53  1  0  0  0  0
 27 54  1  0  0  0  0
 27 55  1  0  0  0  0
 28 58  1  0  0  0  0
 29 59  1  0  0  0  0
 30 31  2  0  0  0  0
 30 60  1  0  0  0  0
 31 61  1  0  0  0  0
M  END
> <PUBCHEM_COMPOUND_CID>
26743270

> <PUBCHEM_CONFORMER_RMSD>
1.2

> <PUBCHEM_CONFORMER_DIVERSEORDER>
1
3
76
114
107
112
56
48
66
71
74
129
25
119
28
136
6
58
30
126
85
102
42
10
122
113
73
81
97
64
90
117
93
29
101
43
83
45
20
26
110
109
13
15
67
35
91
131
52
115
24
36
116
47
104
8
130
55
32
89
105
94
38
135
77
86
87
33
57
50
23
40
16
92
60
111
79
103
72
34
19
100
49
31
134
84
18
132
120
61
69
123
80
99
68
108
41
82
17
14
53
46
95
7
70
98
54
75
125
65
5
118
128
37
88
96
124
39
9
44
59
63
121
106
4
62
78
22
12
2
133
51
11
21
27
127

> <PUBCHEM_MMFF94_PARTIAL_CHARGES>
34
1 -0.08
11 0.27
12 0.18
13 0.27
14 0.06
15 0.11
16 0.57
17 -0.15
18 0.09
19 0.14
2 -0.02
20 0.05
21 -0.14
22 -0.15
23 -0.15
24 0.44
28 -0.15
29 -0.15
3 -0.57
30 -0.11
31 0.08
4 -0.9
44 0.36
45 0.15
46 0.37
5 -0.41
56 0.15
57 0.15
58 0.15
59 0.15
6 -0.49
60 0.15
61 0.15
7 -0.57

> <PUBCHEM_EFFECTIVE_ROTOR_COUNT>
9.2

> <PUBCHEM_PHARMACOPHORE_FEATURES>
10
1 3 acceptor
1 4 cation
1 4 donor
1 5 acceptor
1 6 donor
4 19 25 26 27 hydrophobe
5 1 7 24 30 31 rings
5 2 5 15 17 18 rings
6 20 21 22 23 28 29 rings
6 4 8 9 10 11 13 rings

> <PUBCHEM_HEAVY_ATOM_COUNT>
31

> <PUBCHEM_ATOM_DEF_STEREO_COUNT>
2

> <PUBCHEM_ATOM_UDEF_STEREO_COUNT>
0

> <PUBCHEM_BOND_DEF_STEREO_COUNT>
0

> <PUBCHEM_BOND_UDEF_STEREO_COUNT>
0

> <PUBCHEM_ISOTOPIC_ATOM_COUNT>
0

> <PUBCHEM_COMPONENT_COUNT>
1

> <PUBCHEM_CACTVS_TAUTO_COUNT>
3

> <PUBCHEM_CONFORMER_ID>
019811E600000001

> <PUBCHEM_MMFF94_ENERGY>
64.7346

> <PUBCHEM_FEATURE_SELFOVERLAP>
50.746

> <PUBCHEM_SHAPE_FINGERPRINT>
10 15 17458063781419083168
10165383 225 18412825803247610696
10299344 5 17703506615399979283
10533779 1 18126284380453486952
11315181 36 18408044005777592257
11443803 9 18272926142747893378
11456790 92 10881402015452228239
11823591 26 18411419536471076402
12089408 11 17917712379215901273
12144603 126 17775010060104578193
12373685 5 17603859026819307442
12592606 108 9583515412818372996
12758862 56 8790880766252439500
12838862 33 18412819210241079760
13150687 139 18201168698214931414
13540713 5 17558000445903543346
13617811 41 18343018896548406264
14117953 113 18337120038282532460
14118638 360 18202003175346502513
14251764 18 17561358458095125443
14344974 52 17274818112919924672
1454969 45 18272370866819055824
15419008 145 10809331231749725479
15773216 30 16199604484978472014
15840311 113 18259705584939068550
15890870 6 18335423491808952252
16991971 28 16343698855231993201
16992752 21 17561366184578137905
1754911 235 17988924478671599317
18365409 1 18059291092709126190
20105231 36 15626222438146959799
21049683 271 18273212015148805025
21150785 3 18342737416780225385
21267235 1 16056878048966195761
21360443 126 18412828014718503094
232437 2 12967129424183831677
23522609 53 17416429596063207688
246663 6 12967132717917130880
24771293 8 18335145271737223237
306946 40 16660350490512668397
395649 100 17749951185022470899
4017518 198 13830130599209895013
4073 2 18335706031547623571
437795 160 15285647633401680409
4403749 210 18041850639422369402
44880568 143 18190458247715977765
4516262 110 18335703867384330606
45377200 153 15195272180076706519
5381727 24 11241973681934782993
5758199 1 18273498974819130162
57816332 2 18273218604119475206
6057620 51 18272090478785693105
6058803 2 17413042988913193914
6201320 215 7997430316740947367
636775 72 17313380090214150669
636775 8 17489585719400095615
9961470 85 17841989185906960896

> <PUBCHEM_SHAPE_MULTIPOLES>
610.15
33.81
2.45
1.47
0.38
2.27
0.07
-24.03
-7.87
-5.67
-1.07
0.96
-0.19
-0.98

> <PUBCHEM_SHAPE_SELFOVERLAP>
1285.433

> <PUBCHEM_SHAPE_VOLUME>
346.1

> <PUBCHEM_COORDINATE_TYPE>
2
5
10

$$$$
