26743838
  -OEChem-12032416283D

 52 55  0     1  0  0  0  0  0999 V2000
   -3.6394   -3.5636   -1.9993 O   0  0  0  0  0  0  0  0  0  0  0  0
    0.5880   -2.4321    1.6533 O   0  0  0  0  0  0  0  0  0  0  0  0
   -2.2725   -0.8891   -0.0628 N   0  0  1  0  0  0  0  0  0  0  0  0
    0.7121   -0.8862    0.0373 N   0  0  0  0  0  0  0  0  0  0  0  0
    1.9157   -1.9862    1.6422 N   0  0  0  0  0  0  0  0  0  0  0  0
   -3.0141    1.4159    0.3620 C   0  0  0  0  0  0  0  0  0  0  0  0
   -2.7323    0.0394    0.9616 C   0  0  0  0  0  0  0  0  0  0  0  0
   -1.5227   -2.0372    0.4862 C   0  0  1  0  0  0  0  0  0  0  0  0
   -3.4738    2.3967    1.4490 C   0  0  0  0  0  0  0  0  0  0  0  0
   -1.7763    1.9520   -0.3698 C   0  0  0  0  0  0  0  0  0  0  0  0
   -3.3800   -1.4491   -0.8349 C   0  0  0  0  0  0  0  0  0  0  0  0
   -1.7694   -3.1827   -0.5131 C   0  0  0  0  0  0  0  0  0  0  0  0
   -2.7048   -2.5959   -1.5628 C   0  0  1  0  0  0  0  0  0  0  0  0
   -3.7109    3.7949    0.8829 C   0  0  0  0  0  0  0  0  0  0  0  0
   -2.0161    3.3509   -0.9328 C   0  0  0  0  0  0  0  0  0  0  0  0
   -2.4814    4.3209    0.1488 C   0  0  0  0  0  0  0  0  0  0  0  0
   -0.0516   -1.7344    0.6784 C   0  0  0  0  0  0  0  0  0  0  0  0
    1.9096   -1.0762    0.6635 C   0  0  0  0  0  0  0  0  0  0  0  0
    3.0820   -0.3413    0.2858 C   0  0  0  0  0  0  0  0  0  0  0  0
    3.0162    0.5971   -0.7442 C   0  0  0  0  0  0  0  0  0  0  0  0
    4.2882   -0.5640    0.9503 C   0  0  0  0  0  0  0  0  0  0  0  0
    4.1563    1.3127   -1.1098 C   0  0  0  0  0  0  0  0  0  0  0  0
    5.4284    0.1514    0.5845 C   0  0  0  0  0  0  0  0  0  0  0  0
    5.3624    1.0900   -0.4454 C   0  0  0  0  0  0  0  0  0  0  0  0
    4.0864    2.3160   -2.2110 C   0  0  0  0  0  0  0  0  0  0  0  0
   -3.8313    1.3279   -0.3671 H   0  0  0  0  0  0  0  0  0  0  0  0
   -3.6135   -0.3452    1.4913 H   0  0  0  0  0  0  0  0  0  0  0  0
   -1.9515    0.1628    1.7246 H   0  0  0  0  0  0  0  0  0  0  0  0
   -1.9468   -2.3400    1.4542 H   0  0  0  0  0  0  0  0  0  0  0  0
   -2.7197    2.4545    2.2445 H   0  0  0  0  0  0  0  0  0  0  0  0
   -4.3983    2.0338    1.9137 H   0  0  0  0  0  0  0  0  0  0  0  0
   -1.4952    1.2963   -1.2018 H   0  0  0  0  0  0  0  0  0  0  0  0
   -0.9193    1.9826    0.3157 H   0  0  0  0  0  0  0  0  0  0  0  0
   -3.8037   -0.7328   -1.5462 H   0  0  0  0  0  0  0  0  0  0  0  0
   -4.1967   -1.8209   -0.2021 H   0  0  0  0  0  0  0  0  0  0  0  0
   -0.8519   -3.5514   -0.9860 H   0  0  0  0  0  0  0  0  0  0  0  0
   -2.2373   -4.0351   -0.0049 H   0  0  0  0  0  0  0  0  0  0  0  0
   -2.1372   -2.2283   -2.4264 H   0  0  0  0  0  0  0  0  0  0  0  0
   -3.9766    4.4809    1.6951 H   0  0  0  0  0  0  0  0  0  0  0  0
   -4.5643    3.7696    0.1941 H   0  0  0  0  0  0  0  0  0  0  0  0
   -2.7710    3.3001   -1.7272 H   0  0  0  0  0  0  0  0  0  0  0  0
   -1.0944    3.7261   -1.3918 H   0  0  0  0  0  0  0  0  0  0  0  0
   -2.7082    5.2940   -0.3010 H   0  0  0  0  0  0  0  0  0  0  0  0
   -1.6686    4.4824    0.8678 H   0  0  0  0  0  0  0  0  0  0  0  0
   -3.1371   -4.3010   -2.3860 H   0  0  0  0  0  0  0  0  0  0  0  0
    2.0850    0.7841   -1.2749 H   0  0  0  0  0  0  0  0  0  0  0  0
    4.3781   -1.2865    1.7576 H   0  0  0  0  0  0  0  0  0  0  0  0
    6.3678   -0.0220    1.1013 H   0  0  0  0  0  0  0  0  0  0  0  0
    6.2584    1.6394   -0.7217 H   0  0  0  0  0  0  0  0  0  0  0  0
    4.2219    1.8221   -3.1783 H   0  0  0  0  0  0  0  0  0  0  0  0
    3.1202    2.8321   -2.2105 H   0  0  0  0  0  0  0  0  0  0  0  0
    4.8595    3.0839   -2.1004 H   0  0  0  0  0  0  0  0  0  0  0  0
  1 13  1  0  0  0  0
  1 45  1  0  0  0  0
  2  5  1  0  0  0  0
  2 17  1  0  0  0  0
  3  7  1  0  0  0  0
  3  8  1  0  0  0  0
  3 11  1  0  0  0  0
  4 17  2  0  0  0  0
  4 18  1  0  0  0  0
  5 18  2  0  0  0  0
  6  7  1  0  0  0  0
  6  9  1  0  0  0  0
  6 10  1  0  0  0  0
  6 26  1  0  0  0  0
  7 27  1  0  0  0  0
  7 28  1  0  0  0  0
  8 12  1  0  0  0  0
  8 17  1  0  0  0  0
  8 29  1  0  0  0  0
  9 14  1  0  0  0  0
  9 30  1  0  0  0  0
  9 31  1  0  0  0  0
 10 15  1  0  0  0  0
 10 32  1  0  0  0  0
 10 33  1  0  0  0  0
 11 13  1  0  0  0  0
 11 34  1  0  0  0  0
 11 35  1  0  0  0  0
 12 13  1  0  0  0  0
 12 36  1  0  0  0  0
 12 37  1  0  0  0  0
 13 38  1  0  0  0  0
 14 16  1  0  0  0  0
 14 39  1  0  0  0  0
 14 40  1  0  0  0  0
 15 16  1  0  0  0  0
 15 41  1  0  0  0  0
 15 42  1  0  0  0  0
 16 43  1  0  0  0  0
 16 44  1  0  0  0  0
 18 19  1  0  0  0  0
 19 20  1  0  0  0  0
 19 21  2  0  0  0  0
 20 22  2  0  0  0  0
 20 46  1  0  0  0  0
 21 23  1  0  0  0  0
 21 47  1  0  0  0  0
 22 24  1  0  0  0  0
 22 25  1  0  0  0  0
 23 24  2  0  0  0  0
 23 48  1  0  0  0  0
 24 49  1  0  0  0  0
 25 50  1  0  0  0  0
 25 51  1  0  0  0  0
 25 52  1  0  0  0  0
M  END
> <PUBCHEM_COMPOUND_CID>
26743838

> <PUBCHEM_CONFORMER_RMSD>
0.8

> <PUBCHEM_CONFORMER_DIVERSEORDER>
1
71
30
92
86
88
31
53
101
102
73
14
76
96
38
39
57
87
104
40
105
91
80
41
3
63
62
100
78
99
36
106
90
26
83
16
103
81
56
89
19
61
32
5
4
93
7
22
58
77
20
37
44
95
98
85
97
8
66
28
17
107
84
27
59
82
55
72
23
35
15
70
12
48
50
47
10
2
49
46
42
24
68
54
18
21
69
52
29
11
6
75
64
79
45
67
60
94
25
34
9
74
33
65
13
43
51

> <PUBCHEM_MMFF94_PARTIAL_CHARGES>
23
1 -0.68
11 0.27
13 0.28
17 0.3
18 0.46
19 0.05
2 -0.02
20 -0.15
21 -0.15
22 -0.14
23 -0.15
24 -0.15
25 0.14
3 -0.81
4 -0.57
45 0.4
46 0.15
47 0.15
48 0.15
49 0.15
5 -0.41
7 0.27
8 0.45

> <PUBCHEM_EFFECTIVE_ROTOR_COUNT>
6.2

> <PUBCHEM_PHARMACOPHORE_FEATURES>
8
1 1 acceptor
1 1 donor
1 3 cation
3 4 5 18 cation
5 2 4 5 17 18 rings
5 3 8 11 12 13 rings
6 19 20 21 22 23 24 rings
6 6 9 10 14 15 16 rings

> <PUBCHEM_HEAVY_ATOM_COUNT>
25

> <PUBCHEM_ATOM_DEF_STEREO_COUNT>
2

> <PUBCHEM_ATOM_UDEF_STEREO_COUNT>
0

> <PUBCHEM_BOND_DEF_STEREO_COUNT>
0

> <PUBCHEM_BOND_UDEF_STEREO_COUNT>
0

> <PUBCHEM_ISOTOPIC_ATOM_COUNT>
0

> <PUBCHEM_COMPONENT_COUNT>
1

> <PUBCHEM_CACTVS_TAUTO_COUNT>
1

> <PUBCHEM_CONFORMER_ID>
0198141E00000001

> <PUBCHEM_MMFF94_ENERGY>
40.7757

> <PUBCHEM_FEATURE_SELFOVERLAP>
40.597

> <PUBCHEM_SHAPE_FINGERPRINT>
10087517 78 18338793537523374640
10670039 82 18262249888836072620
10871710 139 18409172134097084901
10937287 8 18126285234043091897
11513181 2 17982730779416521663
12107183 9 18048589327567519986
12293681 160 18116975875349707179
12788726 201 18341597223407104503
12978246 48 18189342277357090400
13583140 156 16808697526596729337
13615921 28 17832715942832594533
13617811 41 18129094713943862407
14114211 80 17914627063974632593
14251764 75 18053393106163857721
14294032 229 18272375244076572097
1454969 45 18341896235236503225
14840074 17 18339936952549255321
14910302 57 17703524262898476926
14950920 106 16950296095686749120
15064981 113 18201996612979197342
151778 21 17908991997956730929
15419009 47 18196389022231643894
15842332 3 18262781983038103506
17818456 19 18197491827904007314
18785283 64 17477774481530928475
20642791 239 18046047510187307743
21033648 29 15068886633999642126
21033650 10 18268453337776896484
21860390 5 16825861865226817205
21864079 5 18187651262811268424
22907989 373 18269816693287653255
235170 7 17417263163906754566
312425 83 18127999527653205678
3388396 114 17906455785377563076
3610482 184 18043841803930735596
38570 142 17025756708941786812
469060 322 18190204423426859259
5048184 11 18336551490994985992
5252454 2 18268427945139621361
531348 171 18272097076314869742
5895379 119 18410295839650361124
633830 44 18114474400639400858
6608658 132 18194128640598410980
6700243 42 17627542610676991142
7064713 232 18335984156159608192
7808743 9 18341329998451231400
9980921 221 17393931587865792124

> <PUBCHEM_SHAPE_MULTIPOLES>
487.81
10.29
5.21
1.63
12.36
2.06
-0.42
5.32
-0.99
-7.93
-1.12
0.12
-0.39
-3.97

> <PUBCHEM_SHAPE_SELFOVERLAP>
1038.486

> <PUBCHEM_SHAPE_VOLUME>
273.3

> <PUBCHEM_COORDINATE_TYPE>
2
5
10

$$$$
