11911954
  -OEChem-12032416393D

 58 62  0     1  0  0  0  0  0999 V2000
    1.4978    1.3130    1.2102 O   0  0  0  0  0  0  0  0  0  0  0  0
    0.7870    2.0988   -1.9334 O   0  0  0  0  0  0  0  0  0  0  0  0
   -1.6678    1.2276    0.5813 N   0  0  0  0  0  0  0  0  0  0  0  0
    3.8914    0.5634   -0.9781 N   0  0  0  0  0  0  0  0  0  0  0  0
   -1.5168    0.0232    1.1556 N   0  0  0  0  0  0  0  0  0  0  0  0
   -2.7302   -0.4227    1.4620 N   0  0  0  0  0  0  0  0  0  0  0  0
    0.3472    1.2255   -0.8824 C   0  0  1  0  0  0  0  0  0  0  0  0
    1.5895    0.7886   -0.1202 C   0  0  1  0  0  0  0  0  0  0  0  0
   -0.5016    1.9875    0.1201 C   0  0  2  0  0  0  0  0  0  0  0  0
    2.7510    1.4278   -0.8641 C   0  0  2  0  0  0  0  0  0  0  0  0
    0.4833    2.3248    1.2331 C   0  0  0  0  0  0  0  0  0  0  0  0
    2.1512    1.7703   -2.2099 C   0  0  0  0  0  0  0  0  0  0  0  0
   -5.7407   -0.3660    0.0822 C   0  0  0  0  0  0  0  0  0  0  0  0
   -5.4678   -1.8759    0.1148 C   0  0  0  0  0  0  0  0  0  0  0  0
   -7.2489   -0.0836    0.0619 C   0  0  0  0  0  0  0  0  0  0  0  0
   -5.0780    0.3277    1.2710 C   0  0  0  0  0  0  0  0  0  0  0  0
   -2.9784    1.5859    0.5041 C   0  0  0  0  0  0  0  0  0  0  0  0
   -6.1648   -2.5995   -1.0351 C   0  0  0  0  0  0  0  0  0  0  0  0
   -7.9430   -0.8104   -1.0879 C   0  0  0  0  0  0  0  0  0  0  0  0
   -3.6092    0.5264    1.0656 C   0  0  0  0  0  0  0  0  0  0  0  0
   -7.6623   -2.3095   -1.0573 C   0  0  0  0  0  0  0  0  0  0  0  0
    4.4331    0.2486    0.3348 C   0  0  0  0  0  0  0  0  0  0  0  0
    5.6301   -0.6602    0.2445 C   0  0  0  0  0  0  0  0  0  0  0  0
    5.4474   -2.0358    0.2727 C   0  0  0  0  0  0  0  0  0  0  0  0
    6.8994   -0.1098    0.1348 C   0  0  0  0  0  0  0  0  0  0  0  0
    6.5563   -2.8779    0.1895 C   0  0  0  0  0  0  0  0  0  0  0  0
    8.0083   -0.9519    0.0514 C   0  0  0  0  0  0  0  0  0  0  0  0
    7.8367   -2.3359    0.0788 C   0  0  0  0  0  0  0  0  0  0  0  0
   -0.1678    0.3817   -1.3550 H   0  0  0  0  0  0  0  0  0  0  0  0
    1.6382   -0.3044   -0.0589 H   0  0  0  0  0  0  0  0  0  0  0  0
   -0.9075    2.9142   -0.3039 H   0  0  0  0  0  0  0  0  0  0  0  0
    3.0405    2.3660   -0.3704 H   0  0  0  0  0  0  0  0  0  0  0  0
    0.0325    2.3661    2.2291 H   0  0  0  0  0  0  0  0  0  0  0  0
    0.9741    3.2847    1.0355 H   0  0  0  0  0  0  0  0  0  0  0  0
    2.6465    2.6178   -2.6931 H   0  0  0  0  0  0  0  0  0  0  0  0
    2.1600    0.9208   -2.9037 H   0  0  0  0  0  0  0  0  0  0  0  0
   -5.3206    0.0362   -0.8509 H   0  0  0  0  0  0  0  0  0  0  0  0
    4.6076    1.0133   -1.5481 H   0  0  0  0  0  0  0  0  0  0  0  0
   -4.3923   -2.0747    0.0503 H   0  0  0  0  0  0  0  0  0  0  0  0
   -5.8138   -2.2997    1.0664 H   0  0  0  0  0  0  0  0  0  0  0  0
   -7.6994   -0.3972    1.0124 H   0  0  0  0  0  0  0  0  0  0  0  0
   -7.4284    0.9938   -0.0353 H   0  0  0  0  0  0  0  0  0  0  0  0
   -5.2492   -0.2331    2.1982 H   0  0  0  0  0  0  0  0  0  0  0  0
   -5.5300    1.3165    1.4253 H   0  0  0  0  0  0  0  0  0  0  0  0
   -3.3162    2.5183    0.0747 H   0  0  0  0  0  0  0  0  0  0  0  0
   -5.7181   -2.2869   -1.9870 H   0  0  0  0  0  0  0  0  0  0  0  0
   -6.0002   -3.6792   -0.9446 H   0  0  0  0  0  0  0  0  0  0  0  0
   -9.0237   -0.6368   -1.0342 H   0  0  0  0  0  0  0  0  0  0  0  0
   -7.5997   -0.3940   -2.0429 H   0  0  0  0  0  0  0  0  0  0  0  0
   -8.1179   -2.7881   -1.9315 H   0  0  0  0  0  0  0  0  0  0  0  0
   -8.1325   -2.7506   -0.1698 H   0  0  0  0  0  0  0  0  0  0  0  0
    4.7243    1.1673    0.8620 H   0  0  0  0  0  0  0  0  0  0  0  0
    3.6946   -0.2456    0.9772 H   0  0  0  0  0  0  0  0  0  0  0  0
    4.4544   -2.4685    0.3565 H   0  0  0  0  0  0  0  0  0  0  0  0
    7.0441    0.9666    0.1109 H   0  0  0  0  0  0  0  0  0  0  0  0
    6.4227   -3.9555    0.2102 H   0  0  0  0  0  0  0  0  0  0  0  0
    9.0054   -0.5300   -0.0352 H   0  0  0  0  0  0  0  0  0  0  0  0
    8.7001   -2.9915    0.0137 H   0  0  0  0  0  0  0  0  0  0  0  0
  1  8  1  0  0  0  0
  1 11  1  0  0  0  0
  2  7  1  0  0  0  0
  2 12  1  0  0  0  0
  3  5  1  0  0  0  0
  3  9  1  0  0  0  0
  3 17  1  0  0  0  0
  4 10  1  0  0  0  0
  4 22  1  0  0  0  0
  4 38  1  0  0  0  0
  5  6  2  0  0  0  0
  6 20  1  0  0  0  0
  7  8  1  0  0  0  0
  7  9  1  0  0  0  0
  7 29  1  0  0  0  0
  8 10  1  0  0  0  0
  8 30  1  0  0  0  0
  9 11  1  0  0  0  0
  9 31  1  0  0  0  0
 10 12  1  0  0  0  0
 10 32  1  0  0  0  0
 11 33  1  0  0  0  0
 11 34  1  0  0  0  0
 12 35  1  0  0  0  0
 12 36  1  0  0  0  0
 13 14  1  0  0  0  0
 13 15  1  0  0  0  0
 13 16  1  0  0  0  0
 13 37  1  0  0  0  0
 14 18  1  0  0  0  0
 14 39  1  0  0  0  0
 14 40  1  0  0  0  0
 15 19  1  0  0  0  0
 15 41  1  0  0  0  0
 15 42  1  0  0  0  0
 16 20  1  0  0  0  0
 16 43  1  0  0  0  0
 16 44  1  0  0  0  0
 17 20  2  0  0  0  0
 17 45  1  0  0  0  0
 18 21  1  0  0  0  0
 18 46  1  0  0  0  0
 18 47  1  0  0  0  0
 19 21  1  0  0  0  0
 19 48  1  0  0  0  0
 19 49  1  0  0  0  0
 21 50  1  0  0  0  0
 21 51  1  0  0  0  0
 22 23  1  0  0  0  0
 22 52  1  0  0  0  0
 22 53  1  0  0  0  0
 23 24  2  0  0  0  0
 23 25  1  0  0  0  0
 24 26  1  0  0  0  0
 24 54  1  0  0  0  0
 25 27  2  0  0  0  0
 25 55  1  0  0  0  0
 26 28  2  0  0  0  0
 26 56  1  0  0  0  0
 27 28  1  0  0  0  0
 27 57  1  0  0  0  0
 28 58  1  0  0  0  0
M  END
> <PUBCHEM_COMPOUND_CID>
11911954

> <PUBCHEM_CONFORMER_RMSD>
1

> <PUBCHEM_CONFORMER_DIVERSEORDER>
1
106
96
136
8
37
149
87
124
121
32
115
49
91
28
6
148
43
129
109
75
117
41
60
97
9
164
39
166
100
107
88
131
152
33
31
104
22
155
101
116
143
20
74
102
145
122
85
147
105
89
113
5
146
93
7
134
158
165
81
135
25
48
72
47
127
160
50
71
111
133
61
4
52
161
12
128
54
103
157
78
35
14
162
68
119
46
24
21
45
110
57
163
63
83
126
125
141
90
56
76
23
92
79
55
10
130
118
15
151
84
154
139
16
123
77
120
29
94
3
82
13
70
69
34
140
144
66
153
67
159
138
36
112
19
17
86
108
73
65
59
142
64
58
98
156
11
53
38
95
80
137
44
132
114
99
26
42
62
27
2
30
18
51
150
40

> <PUBCHEM_MMFF94_PARTIAL_CHARGES>
29
1 -0.56
10 0.27
11 0.28
12 0.28
16 0.18
17 -0.3
2 -0.56
20 0.05
22 0.41
23 -0.14
24 -0.15
25 -0.15
26 -0.15
27 -0.15
28 -0.15
3 0.31
38 0.36
4 -0.9
45 0.15
5 -0.42
54 0.15
55 0.15
56 0.15
57 0.15
58 0.15
6 -0.23
7 0.28
8 0.28
9 0.26

> <PUBCHEM_EFFECTIVE_ROTOR_COUNT>
8.4

> <PUBCHEM_PHARMACOPHORE_FEATURES>
9
1 1 acceptor
1 2 acceptor
1 4 cation
1 4 donor
5 1 7 8 9 11 rings
5 2 7 8 10 12 rings
5 3 5 6 17 20 rings
6 13 14 15 18 19 21 rings
6 23 24 25 26 27 28 rings

> <PUBCHEM_HEAVY_ATOM_COUNT>
28

> <PUBCHEM_ATOM_DEF_STEREO_COUNT>
4

> <PUBCHEM_ATOM_UDEF_STEREO_COUNT>
0

> <PUBCHEM_BOND_DEF_STEREO_COUNT>
0

> <PUBCHEM_BOND_UDEF_STEREO_COUNT>
0

> <PUBCHEM_ISOTOPIC_ATOM_COUNT>
0

> <PUBCHEM_COMPONENT_COUNT>
1

> <PUBCHEM_CACTVS_TAUTO_COUNT>
1

> <PUBCHEM_CONFORMER_ID>
00B5C31200000001

> <PUBCHEM_MMFF94_ENERGY>
51.6196

> <PUBCHEM_FEATURE_SELFOVERLAP>
46.175

> <PUBCHEM_SHAPE_FINGERPRINT>
10 15 16558747957609952656
10280341 67 7925629939134743078
10369192 42 7853574608707149313
10391435 84 17968098676907244850
10554248 39 17531816864783113373
10577160 183 18341333298273063297
106641 1 16917064473792322936
10670039 82 15068612774147322535
10883706 17 18266459996058247483
10981352 41 18339925918725920494
11103572 95 17986958444707335703
11135609 99 18131067177288862958
11386260 185 17168142403164542597
11973863 73 18343033190431338323
12013929 27 17970066858693708455
12758862 65 16916788534469774954
12895836 83 10809638033916146848
13782708 43 18341895186177611120
14068700 675 18413390925452736056
14251757 52 8502658112272226478
14428016 167 18338796694277318990
14461889 52 15913335697183217511
14849402 71 9727625112242808411
14918687 75 18343861114086698870
14931854 50 16009031649152674240
15183329 4 16515680044221451153
15188451 53 18343021081894838384
15198563 99 16950843588184416596
15320294 125 18059851801132594559
15347590 135 14549025377092400895
15392192 104 16774079588328648916
15510800 12 18264227866851698490
15690457 1 18343580737682326610
15706992 2 11023820721621671986
15728490 51 18342455959437194614
16126227 98 9943517523011695325
16992727 255 11818998478447808870
16994733 274 8286199444203074118
1768 124 18271810082299973854
19438510 23 10231750089649514972
20028762 73 18341615893514343942
2026 5 18334574594747551763
21304304 249 18413109463429427502
21344244 78 15410621414680003433
21424621 283 9295288343923036180
21585483 132 18335971052035482123
21637258 2 18409168801049774768
21987483 16 17415265407177418259
22002106 203 18189044319166446834
22224240 67 14189570819351844076
23389318 12 18260272971450879222
23522609 53 18053700011562988504
23528940 14 18265890260853259450
23559900 14 17749963287285437689
23576562 1 16298959795743599823
2747138 104 15410905062804527112
3004659 81 18040432217718906329
3014063 24 18408604743163394798
4339292 15 17895192144477767058
4340502 62 13830134983759151212
437815 12 17749109988936638932
474113 269 18272363162254635599
4756088 132 17252579081141427066
54076057 255 11386362664546367343
5718773 13 18343300379370667755
5758199 1 11527946759464066964
59682541 35 16415192386824920730
59682541 52 16660358182145012626
96874 4 18411978065838007551
9689198 14 8718827612851622017
9953998 17 13398627269425487037
9980921 221 15647327481995259215

> <PUBCHEM_SHAPE_MULTIPOLES>
544.56
25.48
2.91
1.43
0.55
1.17
-0.44
25.57
-2.18
-0.94
-0.5
0.72
-0.67
-2.56

> <PUBCHEM_SHAPE_SELFOVERLAP>
1165.679

> <PUBCHEM_SHAPE_VOLUME>
302.7

> <PUBCHEM_COORDINATE_TYPE>
2
5
10

$$$$
