11882861
  -OEChem-12032416133D

 82 85  0     1  0  0  0  0  0999 V2000
    0.8878   -3.7504   -0.2081 S   0  0  0  0  0  0  0  0  0  0  0  0
    6.9447    1.2421   -0.3394 O   0  0  0  0  0  0  0  0  0  0  0  0
    7.2034   -0.6509    1.1078 O   0  0  0  0  0  0  0  0  0  0  0  0
   -0.8529    0.9361   -1.7036 O   0  0  0  0  0  0  0  0  0  0  0  0
   -3.4042   -2.0285   -0.7819 O   0  0  0  0  0  0  0  0  0  0  0  0
   -3.0128    6.7359   -0.8098 O   0  0  0  0  0  0  0  0  0  0  0  0
   -0.4965   -1.5753   -0.4210 N   0  0  0  0  0  0  0  0  0  0  0  0
   -1.9654    2.2101   -0.1110 N   0  0  0  0  0  0  0  0  0  0  0  0
   -1.7118   -3.6536   -0.5369 N   0  0  0  0  0  0  0  0  0  0  0  0
   -4.3228    6.7490    1.0817 N   0  0  0  0  0  0  0  0  0  0  0  0
    2.7243    0.3970    0.3560 C   0  0  2  0  0  0  0  0  0  0  0  0
    3.6552   -0.7033   -0.3209 C   0  0  1  0  0  0  0  0  0  0  0  0
    5.2141   -0.4917   -0.2052 C   0  0  1  0  0  0  0  0  0  0  0  0
    1.2523    0.2340   -0.2439 C   0  0  1  0  0  0  0  0  0  0  0  0
    3.2473    1.8105   -0.0093 C   0  0  0  0  0  0  0  0  0  0  0  0
    5.5584    0.9830   -0.5590 C   0  0  1  0  0  0  0  0  0  0  0  0
    3.1895   -2.1435    0.0417 C   0  0  0  0  0  0  0  0  0  0  0  0
    4.7386    1.9975    0.2305 C   0  0  0  0  0  0  0  0  0  0  0  0
    2.6686    0.2711    1.8985 C   0  0  0  0  0  0  0  0  0  0  0  0
    0.8263   -1.2117   -0.2499 C   0  0  0  0  0  0  0  0  0  0  0  0
    5.8141   -0.8843    1.1630 C   0  0  0  0  0  0  0  0  0  0  0  0
    5.9274   -1.3964   -1.2495 C   0  0  0  0  0  0  0  0  0  0  0  0
    1.7138   -2.2627   -0.1388 C   0  0  0  0  0  0  0  0  0  0  0  0
    0.1929    1.1290    0.4133 C   0  0  0  0  0  0  0  0  0  0  0  0
   -0.9176    1.4110   -0.5668 C   0  0  0  0  0  0  0  0  0  0  0  0
   -0.5837   -2.8878   -0.4078 C   0  0  0  0  0  0  0  0  0  0  0  0
   -3.0999    2.4969   -0.9911 C   0  0  0  0  0  0  0  0  0  0  0  0
   -2.0698    2.7887    1.2344 C   0  0  0  0  0  0  0  0  0  0  0  0
   -3.3277    4.0013   -1.1138 C   0  0  0  0  0  0  0  0  0  0  0  0
   -2.2763    4.3001    1.1582 C   0  0  0  0  0  0  0  0  0  0  0  0
   -3.4691    4.6519    0.2651 C   0  0  0  0  0  0  0  0  0  0  0  0
   -3.0281   -3.1952   -0.7124 C   0  0  0  0  0  0  0  0  0  0  0  0
   -3.5714    6.1374    0.1062 C   0  0  0  0  0  0  0  0  0  0  0  0
   -4.0389   -4.3317   -0.8128 C   0  0  0  0  0  0  0  0  0  0  0  0
   -4.7154   -4.7171    0.5245 C   0  0  0  0  0  0  0  0  0  0  0  0
   -3.6945   -5.2553    1.5400 C   0  0  0  0  0  0  0  0  0  0  0  0
   -5.7448   -5.8273    0.2351 C   0  0  0  0  0  0  0  0  0  0  0  0
   -5.4552   -3.5160    1.1370 C   0  0  0  0  0  0  0  0  0  0  0  0
    3.4513   -0.5951   -1.4005 H   0  0  0  0  0  0  0  0  0  0  0  0
    1.3542    0.5070   -1.3047 H   0  0  0  0  0  0  0  0  0  0  0  0
    3.0443    2.0154   -1.0688 H   0  0  0  0  0  0  0  0  0  0  0  0
    2.7146    2.5820    0.5580 H   0  0  0  0  0  0  0  0  0  0  0  0
    5.3740    1.1446   -1.6293 H   0  0  0  0  0  0  0  0  0  0  0  0
    3.6907   -2.8745   -0.6015 H   0  0  0  0  0  0  0  0  0  0  0  0
    3.4433   -2.3878    1.0786 H   0  0  0  0  0  0  0  0  0  0  0  0
    4.9804    1.9456    1.2978 H   0  0  0  0  0  0  0  0  0  0  0  0
    5.0269    3.0116   -0.0753 H   0  0  0  0  0  0  0  0  0  0  0  0
    1.9967    1.0197    2.3327 H   0  0  0  0  0  0  0  0  0  0  0  0
    3.6314    0.4440    2.3748 H   0  0  0  0  0  0  0  0  0  0  0  0
    2.3056   -0.7065    2.2274 H   0  0  0  0  0  0  0  0  0  0  0  0
    5.4221   -0.2919    1.9859 H   0  0  0  0  0  0  0  0  0  0  0  0
    5.6533   -1.9427    1.3894 H   0  0  0  0  0  0  0  0  0  0  0  0
    5.4946   -1.2597   -2.2474 H   0  0  0  0  0  0  0  0  0  0  0  0
    6.9963   -1.1713   -1.3365 H   0  0  0  0  0  0  0  0  0  0  0  0
    5.8431   -2.4579   -0.9944 H   0  0  0  0  0  0  0  0  0  0  0  0
   -0.2224    0.6527    1.3088 H   0  0  0  0  0  0  0  0  0  0  0  0
    0.6196    2.0974    0.6885 H   0  0  0  0  0  0  0  0  0  0  0  0
    7.1211    2.1571   -0.6169 H   0  0  0  0  0  0  0  0  0  0  0  0
    7.5752   -0.9093    1.9682 H   0  0  0  0  0  0  0  0  0  0  0  0
   -3.9813    2.0092   -0.5582 H   0  0  0  0  0  0  0  0  0  0  0  0
   -2.9428    2.0645   -1.9843 H   0  0  0  0  0  0  0  0  0  0  0  0
   -2.9266    2.3115    1.7249 H   0  0  0  0  0  0  0  0  0  0  0  0
   -1.1914    2.5765    1.8456 H   0  0  0  0  0  0  0  0  0  0  0  0
   -1.5536   -4.6570   -0.4953 H   0  0  0  0  0  0  0  0  0  0  0  0
   -2.4789    4.4371   -1.6575 H   0  0  0  0  0  0  0  0  0  0  0  0
   -4.2220    4.1930   -1.7186 H   0  0  0  0  0  0  0  0  0  0  0  0
   -2.4249    4.7024    2.1673 H   0  0  0  0  0  0  0  0  0  0  0  0
   -1.3655    4.7710    0.7645 H   0  0  0  0  0  0  0  0  0  0  0  0
   -4.3896    4.2761    0.7316 H   0  0  0  0  0  0  0  0  0  0  0  0
   -3.5461   -5.2092   -1.2516 H   0  0  0  0  0  0  0  0  0  0  0  0
   -4.7967   -4.0181   -1.5432 H   0  0  0  0  0  0  0  0  0  0  0  0
   -4.7633    6.2314    1.8356 H   0  0  0  0  0  0  0  0  0  0  0  0
   -4.4591    7.7544    1.0808 H   0  0  0  0  0  0  0  0  0  0  0  0
   -4.1929   -5.6145    2.4478 H   0  0  0  0  0  0  0  0  0  0  0  0
   -3.1239   -6.0919    1.1217 H   0  0  0  0  0  0  0  0  0  0  0  0
   -2.9832   -4.4813    1.8467 H   0  0  0  0  0  0  0  0  0  0  0  0
   -6.2595   -6.1415    1.1502 H   0  0  0  0  0  0  0  0  0  0  0  0
   -5.2618   -6.7122   -0.1947 H   0  0  0  0  0  0  0  0  0  0  0  0
   -6.5075   -5.4853   -0.4737 H   0  0  0  0  0  0  0  0  0  0  0  0
   -6.1650   -3.0829    0.4235 H   0  0  0  0  0  0  0  0  0  0  0  0
   -4.7613   -2.7266    1.4446 H   0  0  0  0  0  0  0  0  0  0  0  0
   -6.0203   -3.8141    2.0278 H   0  0  0  0  0  0  0  0  0  0  0  0
  1 23  1  0  0  0  0
  1 26  1  0  0  0  0
  2 16  1  0  0  0  0
  2 58  1  0  0  0  0
  3 21  1  0  0  0  0
  3 59  1  0  0  0  0
  4 25  2  0  0  0  0
  5 32  2  0  0  0  0
  6 33  2  0  0  0  0
  7 20  1  0  0  0  0
  7 26  2  0  0  0  0
  8 25  1  0  0  0  0
  8 27  1  0  0  0  0
  8 28  1  0  0  0  0
  9 26  1  0  0  0  0
  9 32  1  0  0  0  0
  9 64  1  0  0  0  0
 10 33  1  0  0  0  0
 10 72  1  0  0  0  0
 10 73  1  0  0  0  0
 11 12  1  0  0  0  0
 11 14  1  0  0  0  0
 11 15  1  0  0  0  0
 11 19  1  0  0  0  0
 12 13  1  0  0  0  0
 12 17  1  0  0  0  0
 12 39  1  0  0  0  0
 13 16  1  0  0  0  0
 13 21  1  0  0  0  0
 13 22  1  0  0  0  0
 14 20  1  0  0  0  0
 14 24  1  0  0  0  0
 14 40  1  0  0  0  0
 15 18  1  0  0  0  0
 15 41  1  0  0  0  0
 15 42  1  0  0  0  0
 16 18  1  0  0  0  0
 16 43  1  0  0  0  0
 17 23  1  0  0  0  0
 17 44  1  0  0  0  0
 17 45  1  0  0  0  0
 18 46  1  0  0  0  0
 18 47  1  0  0  0  0
 19 48  1  0  0  0  0
 19 49  1  0  0  0  0
 19 50  1  0  0  0  0
 20 23  2  0  0  0  0
 21 51  1  0  0  0  0
 21 52  1  0  0  0  0
 22 53  1  0  0  0  0
 22 54  1  0  0  0  0
 22 55  1  0  0  0  0
 24 25  1  0  0  0  0
 24 56  1  0  0  0  0
 24 57  1  0  0  0  0
 27 29  1  0  0  0  0
 27 60  1  0  0  0  0
 27 61  1  0  0  0  0
 28 30  1  0  0  0  0
 28 62  1  0  0  0  0
 28 63  1  0  0  0  0
 29 31  1  0  0  0  0
 29 65  1  0  0  0  0
 29 66  1  0  0  0  0
 30 31  1  0  0  0  0
 30 67  1  0  0  0  0
 30 68  1  0  0  0  0
 31 33  1  0  0  0  0
 31 69  1  0  0  0  0
 32 34  1  0  0  0  0
 34 35  1  0  0  0  0
 34 70  1  0  0  0  0
 34 71  1  0  0  0  0
 35 36  1  0  0  0  0
 35 37  1  0  0  0  0
 35 38  1  0  0  0  0
 36 74  1  0  0  0  0
 36 75  1  0  0  0  0
 36 76  1  0  0  0  0
 37 77  1  0  0  0  0
 37 78  1  0  0  0  0
 37 79  1  0  0  0  0
 38 80  1  0  0  0  0
 38 81  1  0  0  0  0
 38 82  1  0  0  0  0
M  END
> <PUBCHEM_COMPOUND_CID>
11882861

> <PUBCHEM_CONFORMER_RMSD>
1.2

> <PUBCHEM_CONFORMER_DIVERSEORDER>
1
11
9
23
22
17
14
15
8
20
16
10
4
21
2
19
13
12
6
7
18
3
5

> <PUBCHEM_MMFF94_PARTIAL_CHARGES>
30
1 -0.08
10 -0.8
14 0.18
16 0.28
17 0.18
2 -0.68
20 0.05
21 0.28
23 -0.14
24 0.06
25 0.57
26 0.44
27 0.3
28 0.3
3 -0.68
31 0.06
32 0.57
33 0.57
34 0.06
4 -0.57
5 -0.57
58 0.4
59 0.4
6 -0.57
64 0.37
7 -0.57
72 0.37
73 0.37
8 -0.66
9 -0.49

> <PUBCHEM_EFFECTIVE_ROTOR_COUNT>
11.4

> <PUBCHEM_PHARMACOPHORE_FEATURES>
14
1 10 donor
1 2 acceptor
1 2 donor
1 3 acceptor
1 3 donor
1 4 acceptor
1 5 acceptor
1 6 acceptor
1 9 donor
4 35 36 37 38 hydrophobe
5 1 7 20 23 26 rings
6 11 12 13 15 16 18 rings
6 11 12 14 17 20 23 rings
6 8 27 28 29 30 31 rings

> <PUBCHEM_HEAVY_ATOM_COUNT>
38

> <PUBCHEM_ATOM_DEF_STEREO_COUNT>
5

> <PUBCHEM_ATOM_UDEF_STEREO_COUNT>
0

> <PUBCHEM_BOND_DEF_STEREO_COUNT>
0

> <PUBCHEM_BOND_UDEF_STEREO_COUNT>
0

> <PUBCHEM_ISOTOPIC_ATOM_COUNT>
0

> <PUBCHEM_COMPONENT_COUNT>
1

> <PUBCHEM_CACTVS_TAUTO_COUNT>
6

> <PUBCHEM_CONFORMER_ID>
00B5516D00000001

> <PUBCHEM_MMFF94_ENERGY>
114.9629

> <PUBCHEM_FEATURE_SELFOVERLAP>
71.193

> <PUBCHEM_SHAPE_FINGERPRINT>
10050765 1 18410856526377927374
102385 1 18338798892931472038
10675989 125 17471015147752617580
10985338 1 17319273339146330517
12788726 201 18263351650615475874
13008946 267 17115233019326605585
13540713 4 18130511834693707430
13590594 115 18122627412477063259
13835254 42 18267303312537657182
14363568 33 17471856274073395663
14394314 77 18195255648775393041
14790565 3 18051973619709509868
14849402 71 17546736306076053555
14910700 183 17184740299795744755
14955137 171 17904485456219090731
15081414 286 17763741387888904135
15198563 99 18340211898341992789
15200665 1 18411695457506401971
15347591 1 18410857639080178254
15400415 2 17978230457024127933
15439362 3 17909264690204836238
15483637 11 18411983546183914082
15484559 13 17406837284855972486
15968369 153 18128234861026439831
15980000 95 18122914393374799301
16993438 75 18337677416977003355
19301679 30 18411421752168649998
19319366 153 17551220779607406341
19427546 62 17979073777877912005
20721686 124 17615968807796288913
21133410 58 16318924294864935517
21641784 216 18122926462105962940
21716022 299 17536327169060025261
21796203 349 17612911431369099587
23576562 1 18260842518601136004
23845131 108 18122624942543209665
24771293 8 17410205540507333746
283562 15 18334855064975961626
4058900 60 17837495146074540817
4144715 1 18340769244006592390
4408954 87 17985293806595461499
504843 32 18264766550323897213
58083652 198 18049434035696805199
6058803 2 18187643583979624170
6695519 79 17838641971716146041
6697151 62 17905865313780175719
9896288 288 18410288091060412962

> <PUBCHEM_SHAPE_MULTIPOLES>
736.6
14.33
10.97
1.25
14.67
15.75
0.23
-10.72
1.84
-28.74
1.24
-0.19
0.09
0.81

> <PUBCHEM_SHAPE_SELFOVERLAP>
1531.349

> <PUBCHEM_SHAPE_VOLUME>
422.7

> <PUBCHEM_COORDINATE_TYPE>
2
5
10

$$$$
