26743179
  -OEChem-12032416183D

 55 57  0     1  0  0  0  0  0999 V2000
    5.7403    0.4793   -1.4001 O   0  0  0  0  0  0  0  0  0  0  0  0
   -2.2060    0.7967   -1.8936 O   0  0  0  0  0  0  0  0  0  0  0  0
   -4.5800   -0.5893   -0.1161 O   0  0  0  0  0  0  0  0  0  0  0  0
    2.1111    3.0452    1.6532 N   0  0  0  0  0  0  0  0  0  0  0  0
    6.0241   -1.2975    0.0633 N   0  0  0  0  0  0  0  0  0  0  0  0
   -0.8304    0.6424   -2.0162 N   0  0  0  0  0  0  0  0  0  0  0  0
    3.3031    1.3269   -0.4284 C   0  0  1  0  0  0  0  0  0  0  0  0
    1.7794    1.3884   -0.1663 C   0  0  2  0  0  0  0  0  0  0  0  0
    3.9484    2.6372    0.0534 C   0  0  0  0  0  0  0  0  0  0  0  0
    1.4685    1.7825    1.2874 C   0  0  0  0  0  0  0  0  0  0  0  0
    3.5620    2.9836    1.4906 C   0  0  0  0  0  0  0  0  0  0  0  0
    1.0547    0.0943   -0.5389 C   0  0  0  0  0  0  0  0  0  0  0  0
    3.9962    0.1133    0.2025 C   0  0  0  0  0  0  0  0  0  0  0  0
   -0.4059    0.3371   -0.7867 C   0  0  0  0  0  0  0  0  0  0  0  0
    5.3263   -0.2038   -0.4598 C   0  0  0  0  0  0  0  0  0  0  0  0
   -1.4583    0.2852    0.1437 C   0  0  0  0  0  0  0  0  0  0  0  0
   -2.5679    0.5815   -0.6031 C   0  0  0  0  0  0  0  0  0  0  0  0
    5.5133   -2.0922    1.1779 C   0  0  0  0  0  0  0  0  0  0  0  0
    7.3134   -1.7269   -0.4644 C   0  0  0  0  0  0  0  0  0  0  0  0
   -3.9975    0.7048   -0.2941 C   0  0  0  0  0  0  0  0  0  0  0  0
    4.6937   -3.2051    0.6997 C   0  0  0  0  0  0  0  0  0  0  0  0
   -5.9268   -0.6246    0.1133 C   0  0  0  0  0  0  0  0  0  0  0  0
    4.0199   -4.1198    0.3112 C   0  0  0  0  0  0  0  0  0  0  0  0
   -6.6572    0.5627    0.1634 C   0  0  0  0  0  0  0  0  0  0  0  0
   -6.5710   -1.8479    0.2973 C   0  0  0  0  0  0  0  0  0  0  0  0
   -8.0318    0.5267    0.3976 C   0  0  0  0  0  0  0  0  0  0  0  0
   -7.9455   -1.8841    0.5315 C   0  0  0  0  0  0  0  0  0  0  0  0
   -8.6760   -0.6967    0.5816 C   0  0  0  0  0  0  0  0  0  0  0  0
    3.4317    1.2734   -1.5183 H   0  0  0  0  0  0  0  0  0  0  0  0
    1.3923    2.1949   -0.8090 H   0  0  0  0  0  0  0  0  0  0  0  0
    3.6228    3.4527   -0.6067 H   0  0  0  0  0  0  0  0  0  0  0  0
    5.0401    2.5968   -0.0292 H   0  0  0  0  0  0  0  0  0  0  0  0
    0.3921    1.9204    1.4243 H   0  0  0  0  0  0  0  0  0  0  0  0
    1.7782    0.9914    1.9816 H   0  0  0  0  0  0  0  0  0  0  0  0
    3.9955    2.2733    2.2030 H   0  0  0  0  0  0  0  0  0  0  0  0
    3.9802    3.9656    1.7394 H   0  0  0  0  0  0  0  0  0  0  0  0
    1.1592   -0.6623    0.2485 H   0  0  0  0  0  0  0  0  0  0  0  0
    1.4917   -0.3343   -1.4504 H   0  0  0  0  0  0  0  0  0  0  0  0
    3.3764   -0.7789    0.0858 H   0  0  0  0  0  0  0  0  0  0  0  0
    4.1505    0.2856    1.2698 H   0  0  0  0  0  0  0  0  0  0  0  0
    1.8896    3.2680    2.6232 H   0  0  0  0  0  0  0  0  0  0  0  0
   -1.4202    0.0623    1.1998 H   0  0  0  0  0  0  0  0  0  0  0  0
    6.3684   -2.4736    1.7489 H   0  0  0  0  0  0  0  0  0  0  0  0
    4.9433   -1.4795    1.8786 H   0  0  0  0  0  0  0  0  0  0  0  0
    8.0672   -1.6367    0.3231 H   0  0  0  0  0  0  0  0  0  0  0  0
    7.6139   -1.1080   -1.3137 H   0  0  0  0  0  0  0  0  0  0  0  0
    7.2407   -2.7680   -0.7915 H   0  0  0  0  0  0  0  0  0  0  0  0
   -4.0999    1.2930    0.6268 H   0  0  0  0  0  0  0  0  0  0  0  0
   -4.4797    1.2286   -1.1296 H   0  0  0  0  0  0  0  0  0  0  0  0
    3.4220   -4.9305   -0.0338 H   0  0  0  0  0  0  0  0  0  0  0  0
   -6.2265    1.5499    0.0380 H   0  0  0  0  0  0  0  0  0  0  0  0
   -6.0072   -2.7760    0.2593 H   0  0  0  0  0  0  0  0  0  0  0  0
   -8.6014    1.4507    0.4386 H   0  0  0  0  0  0  0  0  0  0  0  0
   -8.4471   -2.8366    0.6749 H   0  0  0  0  0  0  0  0  0  0  0  0
   -9.7462   -0.7249    0.7645 H   0  0  0  0  0  0  0  0  0  0  0  0
  1 15  2  0  0  0  0
  2  6  1  0  0  0  0
  2 17  1  0  0  0  0
  3 20  1  0  0  0  0
  3 22  1  0  0  0  0
  4 10  1  0  0  0  0
  4 11  1  0  0  0  0
  4 41  1  0  0  0  0
  5 15  1  0  0  0  0
  5 18  1  0  0  0  0
  5 19  1  0  0  0  0
  6 14  2  0  0  0  0
  7  8  1  0  0  0  0
  7  9  1  0  0  0  0
  7 13  1  0  0  0  0
  7 29  1  0  0  0  0
  8 10  1  0  0  0  0
  8 12  1  0  0  0  0
  8 30  1  0  0  0  0
  9 11  1  0  0  0  0
  9 31  1  0  0  0  0
  9 32  1  0  0  0  0
 10 33  1  0  0  0  0
 10 34  1  0  0  0  0
 11 35  1  0  0  0  0
 11 36  1  0  0  0  0
 12 14  1  0  0  0  0
 12 37  1  0  0  0  0
 12 38  1  0  0  0  0
 13 15  1  0  0  0  0
 13 39  1  0  0  0  0
 13 40  1  0  0  0  0
 14 16  1  0  0  0  0
 16 17  2  0  0  0  0
 16 42  1  0  0  0  0
 17 20  1  0  0  0  0
 18 21  1  0  0  0  0
 18 43  1  0  0  0  0
 18 44  1  0  0  0  0
 19 45  1  0  0  0  0
 19 46  1  0  0  0  0
 19 47  1  0  0  0  0
 20 48  1  0  0  0  0
 20 49  1  0  0  0  0
 21 23  3  0  0  0  0
 22 24  2  0  0  0  0
 22 25  1  0  0  0  0
 23 50  1  0  0  0  0
 24 26  1  0  0  0  0
 24 51  1  0  0  0  0
 25 27  2  0  0  0  0
 25 52  1  0  0  0  0
 26 28  2  0  0  0  0
 26 53  1  0  0  0  0
 27 28  1  0  0  0  0
 27 54  1  0  0  0  0
 28 55  1  0  0  0  0
M  END
> <PUBCHEM_COMPOUND_CID>
26743179

> <PUBCHEM_CONFORMER_RMSD>
1.2

> <PUBCHEM_CONFORMER_DIVERSEORDER>
3
112
110
51
33
7
48
113
34
1
107
88
30
76
46
47
23
53
117
116
32
52
89
8
67
82
28
59
91
43
26
38
118
93
83
109
62
84
80
19
119
79
95
29
115
68
69
36
101
108
98
2
14
85
54
39
90
16
6
64
96
31
97
17
37
60
78
9
105
74
27
81
103
94
92
10
40
86
42
87
45
50
56
106
18
41
114
70
100
57
99
11
44
102
12
58
71
21
5
65
72
25
13
20
22
111
66
63
55
77
24
4
61
75
35
15
73
49
104

> <PUBCHEM_MMFF94_PARTIAL_CHARGES>
33
1 -0.57
10 0.27
11 0.27
12 0.18
13 0.06
14 0.11
15 0.57
16 -0.15
17 -0.04
18 0.5
19 0.3
2 -0.02
20 0.46
21 -0.2
22 0.08
23 -0.18
24 -0.15
25 -0.15
26 -0.15
27 -0.15
28 -0.15
3 -0.36
4 -0.9
41 0.36
42 0.15
5 -0.66
50 0.18
51 0.15
52 0.15
53 0.15
54 0.15
55 0.15
6 -0.41

> <PUBCHEM_EFFECTIVE_ROTOR_COUNT>
10.2

> <PUBCHEM_PHARMACOPHORE_FEATURES>
9
1 1 acceptor
1 23 hydrophobe
1 3 acceptor
1 4 cation
1 4 donor
1 6 acceptor
5 2 6 14 16 17 rings
6 22 24 25 26 27 28 rings
6 4 7 8 9 10 11 rings

> <PUBCHEM_HEAVY_ATOM_COUNT>
28

> <PUBCHEM_ATOM_DEF_STEREO_COUNT>
2

> <PUBCHEM_ATOM_UDEF_STEREO_COUNT>
0

> <PUBCHEM_BOND_DEF_STEREO_COUNT>
0

> <PUBCHEM_BOND_UDEF_STEREO_COUNT>
0

> <PUBCHEM_ISOTOPIC_ATOM_COUNT>
0

> <PUBCHEM_COMPONENT_COUNT>
1

> <PUBCHEM_CACTVS_TAUTO_COUNT>
1

> <PUBCHEM_CONFORMER_ID>
0198118B00000003

> <PUBCHEM_MMFF94_ENERGY>
57.273

> <PUBCHEM_FEATURE_SELFOVERLAP>
45.671

> <PUBCHEM_SHAPE_FINGERPRINT>
10299344 5 18333736814468657127
10316853 100 18259985972551029826
11135609 127 8862652478297649090
11409948 35 18261950727347917699
11638347 137 18411704322920183555
117089 54 18051978022188716190
11719270 70 17632864126822838703
12522641 24 18341611533810431969
12616971 3 17346311635517041141
13533116 47 18410291419263616555
13540713 5 16843582010767919252
13617811 41 15502377807216799158
13673619 4 18261110755502157044
13782708 43 18260825973569238415
14347424 109 18059573628373816864
15131766 46 17627501971802749025
15301273 46 18113332029717360781
15352257 5 18186521003724181979
15475509 35 18409725158365287114
17134984 74 18040152891006877266
17324776 126 16159310527584679170
19301679 30 17844535405580274830
19841028 212 18189895302152781146
2026 5 17241596218557551274
20505436 4 17701817924337929092
21049683 271 18334860507295436676
21130935 74 18337392738398041675
21150785 3 12107788514892615557
21424621 283 12607413187181639839
21781055 127 15122969377507788956
21792938 703 17313679264914326115
23569943 247 17968934168131958403
3178227 256 18344144800264262974
33532 11 18259984868749273875
34797466 226 16588027934972211772
4073 2 18194401332076642587
439807 62 18260549995897497907
46194498 28 17676206867042737964
5104073 3 16987424498716734679
6058803 2 16627122294774154052
9831232 110 18114460072085156639

> <PUBCHEM_SHAPE_MULTIPOLES>
543.68
24.66
3.49
1.28
42.09
1.82
-0.14
15.04
3.58
-7.38
1.62
-0.78
-0.6
0.68

> <PUBCHEM_SHAPE_SELFOVERLAP>
1131.438

> <PUBCHEM_SHAPE_VOLUME>
306.8

> <PUBCHEM_COORDINATE_TYPE>
2
5
10

$$$$
