51136643
  -OEChem-12032416143D

 61 64  0     1  0  0  0  0  0999 V2000
   -0.4851    2.3118   -0.3547 S   0  0  0  0  0  0  0  0  0  0  0  0
   -2.6045    4.3074   -0.6803 S   0  0  0  0  0  0  0  0  0  0  0  0
   -0.3071    2.7995   -1.7052 O   0  0  0  0  0  0  0  0  0  0  0  0
    0.6134    2.3035    0.5868 O   0  0  0  0  0  0  0  0  0  0  0  0
   -4.8135   -4.6293   -1.0670 O   0  0  0  0  0  0  0  0  0  0  0  0
   -5.4417   -2.4492   -0.8828 O   0  0  0  0  0  0  0  0  0  0  0  0
    3.7204   -0.2693   -2.5830 O   0  0  0  0  0  0  0  0  0  0  0  0
    5.4551    0.8294   -0.7151 O   0  0  0  0  0  0  0  0  0  0  0  0
   -1.1778    0.7454   -0.4136 N   0  0  1  0  0  0  0  0  0  0  0  0
    0.7557   -2.3248    2.2780 N   0  0  0  0  0  0  0  0  0  0  0  0
   -1.5549   -1.4507    0.6864 C   0  0  2  0  0  0  0  0  0  0  0  0
   -2.8211   -1.6442   -0.1828 C   0  0  1  0  0  0  0  0  0  0  0  0
   -1.2932    0.0486    0.9020 C   0  0  0  0  0  0  0  0  0  0  0  0
   -2.7338   -0.8392   -1.4884 C   0  0  0  0  0  0  0  0  0  0  0  0
   -2.4266    0.6304   -1.2193 C   0  0  0  0  0  0  0  0  0  0  0  0
   -0.3030   -2.1411    0.1300 C   0  0  0  0  0  0  0  0  0  0  0  0
   -3.1320   -3.1121   -0.4740 C   0  0  0  0  0  0  0  0  0  0  0  0
    0.8648   -1.9107    1.0588 C   0  0  0  0  0  0  0  0  0  0  0  0
    2.0700   -1.2191    0.5344 C   0  0  0  0  0  0  0  0  0  0  0  0
   -4.5809   -3.3141   -0.8216 C   0  0  0  0  0  0  0  0  0  0  0  0
   -1.8185    3.2104    0.3736 C   0  0  0  0  0  0  0  0  0  0  0  0
    2.9516   -0.6824    1.4814 C   0  0  0  0  0  0  0  0  0  0  0  0
    2.6196   -0.8254    2.9371 C   0  0  0  0  0  0  0  0  0  0  0  0
    1.9128   -2.1555    3.1633 C   0  0  0  0  0  0  0  0  0  0  0  0
    2.3288   -1.0833   -0.8308 C   0  0  0  0  0  0  0  0  0  0  0  0
   -2.3729    3.2176    1.6347 C   0  0  0  0  0  0  0  0  0  0  0  0
    4.0837    0.0158    1.0525 C   0  0  0  0  0  0  0  0  0  0  0  0
    3.4701   -0.3980   -1.2494 C   0  0  0  0  0  0  0  0  0  0  0  0
    4.3436    0.1526   -0.3112 C   0  0  0  0  0  0  0  0  0  0  0  0
   -3.4576    4.1358    1.7369 C   0  0  0  0  0  0  0  0  0  0  0  0
   -3.6907    4.7954    0.5502 C   0  0  0  0  0  0  0  0  0  0  0  0
    3.1769    0.8762   -3.2359 C   0  0  0  0  0  0  0  0  0  0  0  0
    6.6485    0.0684   -0.8911 C   0  0  0  0  0  0  0  0  0  0  0  0
   -1.7716   -1.8847    1.6727 H   0  0  0  0  0  0  0  0  0  0  0  0
   -3.6546   -1.2241    0.3998 H   0  0  0  0  0  0  0  0  0  0  0  0
   -2.1434    0.4615    1.4560 H   0  0  0  0  0  0  0  0  0  0  0  0
   -0.4063    0.2165    1.5170 H   0  0  0  0  0  0  0  0  0  0  0  0
   -3.6741   -0.9027   -2.0473 H   0  0  0  0  0  0  0  0  0  0  0  0
   -1.9575   -1.2584   -2.1403 H   0  0  0  0  0  0  0  0  0  0  0  0
   -2.3032    1.1401   -2.1804 H   0  0  0  0  0  0  0  0  0  0  0  0
   -3.2692    1.0865   -0.6887 H   0  0  0  0  0  0  0  0  0  0  0  0
   -0.4570   -3.2255    0.0776 H   0  0  0  0  0  0  0  0  0  0  0  0
   -0.1231   -1.8032   -0.8876 H   0  0  0  0  0  0  0  0  0  0  0  0
   -2.9341   -3.7143    0.4208 H   0  0  0  0  0  0  0  0  0  0  0  0
   -2.5158   -3.4888   -1.2978 H   0  0  0  0  0  0  0  0  0  0  0  0
    1.9719    0.0084    3.2337 H   0  0  0  0  0  0  0  0  0  0  0  0
    3.5265   -0.7870    3.5507 H   0  0  0  0  0  0  0  0  0  0  0  0
    1.5682   -2.2062    4.2019 H   0  0  0  0  0  0  0  0  0  0  0  0
    2.6018   -2.9962    3.0138 H   0  0  0  0  0  0  0  0  0  0  0  0
    1.6942   -1.5178   -1.5943 H   0  0  0  0  0  0  0  0  0  0  0  0
   -2.0147    2.6067    2.4528 H   0  0  0  0  0  0  0  0  0  0  0  0
    4.7633    0.4527    1.7799 H   0  0  0  0  0  0  0  0  0  0  0  0
   -5.7519   -4.7976   -1.2980 H   0  0  0  0  0  0  0  0  0  0  0  0
   -4.0354    4.3062    2.6359 H   0  0  0  0  0  0  0  0  0  0  0  0
   -4.4465    5.5410    0.3472 H   0  0  0  0  0  0  0  0  0  0  0  0
    2.0842    0.8735   -3.1687 H   0  0  0  0  0  0  0  0  0  0  0  0
    3.5775    1.7958   -2.7978 H   0  0  0  0  0  0  0  0  0  0  0  0
    3.4628    0.8376   -4.2905 H   0  0  0  0  0  0  0  0  0  0  0  0
    6.9519   -0.3928    0.0541 H   0  0  0  0  0  0  0  0  0  0  0  0
    6.5058   -0.7011   -1.6562 H   0  0  0  0  0  0  0  0  0  0  0  0
    7.4412    0.7458   -1.2201 H   0  0  0  0  0  0  0  0  0  0  0  0
  1  3  2  0  0  0  0
  1  4  2  0  0  0  0
  1  9  1  0  0  0  0
  1 21  1  0  0  0  0
  2 21  1  0  0  0  0
  2 31  1  0  0  0  0
  5 20  1  0  0  0  0
  5 53  1  0  0  0  0
  6 20  2  0  0  0  0
  7 28  1  0  0  0  0
  7 32  1  0  0  0  0
  8 29  1  0  0  0  0
  8 33  1  0  0  0  0
  9 13  1  0  0  0  0
  9 15  1  0  0  0  0
 10 18  2  0  0  0  0
 10 24  1  0  0  0  0
 11 12  1  0  0  0  0
 11 13  1  0  0  0  0
 11 16  1  0  0  0  0
 11 34  1  0  0  0  0
 12 14  1  0  0  0  0
 12 17  1  0  0  0  0
 12 35  1  0  0  0  0
 13 36  1  0  0  0  0
 13 37  1  0  0  0  0
 14 15  1  0  0  0  0
 14 38  1  0  0  0  0
 14 39  1  0  0  0  0
 15 40  1  0  0  0  0
 15 41  1  0  0  0  0
 16 18  1  0  0  0  0
 16 42  1  0  0  0  0
 16 43  1  0  0  0  0
 17 20  1  0  0  0  0
 17 44  1  0  0  0  0
 17 45  1  0  0  0  0
 18 19  1  0  0  0  0
 19 22  1  0  0  0  0
 19 25  2  0  0  0  0
 21 26  2  0  0  0  0
 22 23  1  0  0  0  0
 22 27  2  0  0  0  0
 23 24  1  0  0  0  0
 23 46  1  0  0  0  0
 23 47  1  0  0  0  0
 24 48  1  0  0  0  0
 24 49  1  0  0  0  0
 25 28  1  0  0  0  0
 25 50  1  0  0  0  0
 26 30  1  0  0  0  0
 26 51  1  0  0  0  0
 27 29  1  0  0  0  0
 27 52  1  0  0  0  0
 28 29  2  0  0  0  0
 30 31  2  0  0  0  0
 30 54  1  0  0  0  0
 31 55  1  0  0  0  0
 32 56  1  0  0  0  0
 32 57  1  0  0  0  0
 32 58  1  0  0  0  0
 33 59  1  0  0  0  0
 33 60  1  0  0  0  0
 33 61  1  0  0  0  0
M  END
> <PUBCHEM_COMPOUND_CID>
51136643

> <PUBCHEM_CONFORMER_RMSD>
1

> <PUBCHEM_CONFORMER_DIVERSEORDER>
1
20
35
41
136
103
94
30
106
142
48
125
128
127
32
54
40
37
124
133
134
58
19
18
51
114
16
121
109
117
96
3
141
82
129
112
74
49
97
34
90
61
71
139
123
108
78
102
131
113
122
25
99
23
15
62
38
69
98
143
22
76
65
52
70
50
60
81
89
63
135
13
119
91
80
118
21
87
2
75
43
140
46
137
85
107
59
77
104
92
132
57
44
130
24
138
95
10
84
120
79
111
88
55
86
36
64
42
83
6
47
100
4
93
53
29
66
68
126
67
72
45
116
101
7
144
110
115
12
31
73
17
33
11
56
26
9
105
28
39
5
14
27
8

> <PUBCHEM_MMFF94_PARTIAL_CHARGES>
36
1 1.5
10 -0.7
13 0.36
15 0.36
16 0.06
17 0.06
18 0.3
19 0.09
2 -0.08
20 0.66
21 -0.02
22 -0.14
23 0.14
24 0.25
25 -0.15
26 -0.15
27 -0.15
28 0.08
29 0.08
3 -0.65
30 -0.15
31 -0.11
32 0.28
33 0.28
4 -0.65
5 -0.65
50 0.15
51 0.15
52 0.15
53 0.5
54 0.15
55 0.15
6 -0.57
7 -0.36
8 -0.36
9 -0.85

> <PUBCHEM_EFFECTIVE_ROTOR_COUNT>
9.6

> <PUBCHEM_PHARMACOPHORE_FEATURES>
12
1 10 acceptor
1 3 acceptor
1 4 acceptor
1 5 acceptor
1 6 acceptor
1 7 acceptor
1 8 acceptor
3 5 6 20 anion
5 2 21 26 30 31 rings
6 10 18 19 22 23 24 rings
6 19 22 25 27 28 29 rings
6 9 11 12 13 14 15 rings

> <PUBCHEM_HEAVY_ATOM_COUNT>
33

> <PUBCHEM_ATOM_DEF_STEREO_COUNT>
2

> <PUBCHEM_ATOM_UDEF_STEREO_COUNT>
0

> <PUBCHEM_BOND_DEF_STEREO_COUNT>
0

> <PUBCHEM_BOND_UDEF_STEREO_COUNT>
0

> <PUBCHEM_ISOTOPIC_ATOM_COUNT>
0

> <PUBCHEM_COMPONENT_COUNT>
1

> <PUBCHEM_CACTVS_TAUTO_COUNT>
1

> <PUBCHEM_CONFORMER_ID>
030C488300000001

> <PUBCHEM_MMFF94_ENERGY>
95.5153

> <PUBCHEM_FEATURE_SELFOVERLAP>
61.006

> <PUBCHEM_SHAPE_FINGERPRINT>
10940486 97 17831565484462073642
11049842 53 17838888240081318619
11115154 58 18270110349403700687
11421498 54 18261385672148534170
11445158 3 15215879221934420293
12107698 1 18339360885559808164
12166972 35 17459168811874509006
12293681 160 17896595279068037306
12788726 201 18408598163389717443
13009979 54 17825638137466875882
13540713 5 18115295667010927850
13583140 156 15938669385627452953
13782708 43 17489877072137591958
14068700 675 18263357156568032868
14468879 13 16340847730775264825
14790565 3 17979918212052671413
15448158 71 17678473960945586988
15968369 153 18121811514165856345
18681886 176 17983008144205442591
19311894 1 18339084766381136612
21033650 10 18264794141557719206
21120745 212 18412262874273511097
21756936 100 17461761409090353044
46194498 28 17489310836792092656
469060 322 17023485082804837685
484989 97 17025723855745961506
5252454 2 18191302672472081552
57527358 35 14752440409783103227
57527585 21 17684695186454992102
6086070 43 18196357338590463735
7808743 9 18339926991918871512

> <PUBCHEM_SHAPE_MULTIPOLES>
641.65
10.31
5.93
2.61
7.83
1.17
0.48
0.28
-3.27
-13.6
0.13
2.61
-0.23
-4.16

> <PUBCHEM_SHAPE_SELFOVERLAP>
1340.917

> <PUBCHEM_SHAPE_VOLUME>
365.6

> <PUBCHEM_COORDINATE_TYPE>
2
5
10

$$$$
