11886250
  -OEChem-12032416373D

 58 63  0     1  0  0  0  0  0999 V2000
   -1.5992   -3.3343    0.5130 O   0  0  0  0  0  0  0  0  0  0  0  0
   -1.5579   -1.1450   -1.7446 O   0  0  0  0  0  0  0  0  0  0  0  0
    2.9690   -0.7593   -0.3000 O   0  0  0  0  0  0  0  0  0  0  0  0
   -6.1958   -1.9535   -1.0307 O   0  0  0  0  0  0  0  0  0  0  0  0
   -8.5307    3.6447    0.6586 O   0  0  0  0  0  0  0  0  0  0  0  0
    0.9893   -1.3517    0.8647 N   0  0  0  0  0  0  0  0  0  0  0  0
   -4.2582   -0.9469   -0.2490 N   0  0  0  0  0  0  0  0  0  0  0  0
    0.5331   -1.3012    2.1196 N   0  0  0  0  0  0  0  0  0  0  0  0
    2.6007   -0.4748    2.0068 N   0  0  0  0  0  0  0  0  0  0  0  0
    1.5257   -0.7627    2.8172 N   0  0  0  0  0  0  0  0  0  0  0  0
    8.0887    1.3406   -0.3356 N   0  0  0  0  0  0  0  0  0  0  0  0
    9.1765    0.5722   -0.1453 N   0  0  0  0  0  0  0  0  0  0  0  0
    9.7518    2.7623   -0.4697 N   0  0  0  0  0  0  0  0  0  0  0  0
   -1.1581   -1.1609   -0.3620 C   0  0  1  0  0  0  0  0  0  0  0  0
   -2.1611   -2.0188    0.3845 C   0  0  1  0  0  0  0  0  0  0  0  0
    0.1614   -1.8948   -0.2153 C   0  0  2  0  0  0  0  0  0  0  0  0
   -3.3716   -2.0522   -0.5212 C   0  0  2  0  0  0  0  0  0  0  0  0
   -0.2718   -3.3449   -0.0300 C   0  0  0  0  0  0  0  0  0  0  0  0
   -2.7482   -1.9303   -1.8992 C   0  0  0  0  0  0  0  0  0  0  0  0
    2.2446   -0.8495    0.7997 C   0  0  0  0  0  0  0  0  0  0  0  0
   -5.6160   -0.9927   -0.5315 C   0  0  0  0  0  0  0  0  0  0  0  0
   -6.3876    0.2370   -0.2163 C   0  0  0  0  0  0  0  0  0  0  0  0
   -5.9336    1.0713    0.7842 C   0  0  0  0  0  0  0  0  0  0  0  0
   -7.5346    0.5053   -0.9343 C   0  0  0  0  0  0  0  0  0  0  0  0
    4.2532   -0.2324   -0.3083 C   0  0  0  0  0  0  0  0  0  0  0  0
   -6.6590    2.2254    1.0801 C   0  0  0  0  0  0  0  0  0  0  0  0
   -8.2598    1.6596   -0.6386 C   0  0  0  0  0  0  0  0  0  0  0  0
    4.4207    1.1226   -0.5203 C   0  0  0  0  0  0  0  0  0  0  0  0
    5.3263   -1.0785   -0.1054 C   0  0  0  0  0  0  0  0  0  0  0  0
   -7.8221    2.5195    0.3687 C   0  0  0  0  0  0  0  0  0  0  0  0
    5.7113    1.6519   -0.5296 C   0  0  0  0  0  0  0  0  0  0  0  0
    6.6169   -0.5492   -0.1145 C   0  0  0  0  0  0  0  0  0  0  0  0
    6.8093    0.8160   -0.3267 C   0  0  0  0  0  0  0  0  0  0  0  0
   -9.7114    3.8837   -0.1061 C   0  0  0  0  0  0  0  0  0  0  0  0
    8.4457    2.6434   -0.5275 C   0  0  0  0  0  0  0  0  0  0  0  0
   10.1526    1.4781   -0.2354 C   0  0  0  0  0  0  0  0  0  0  0  0
   -1.1420   -0.1215   -0.0186 H   0  0  0  0  0  0  0  0  0  0  0  0
   -2.3704   -1.6526    1.3947 H   0  0  0  0  0  0  0  0  0  0  0  0
    0.7701   -1.8170   -1.1240 H   0  0  0  0  0  0  0  0  0  0  0  0
   -3.9381   -2.9863   -0.4409 H   0  0  0  0  0  0  0  0  0  0  0  0
    0.3851   -3.9188    0.6306 H   0  0  0  0  0  0  0  0  0  0  0  0
   -0.3228   -3.8598   -0.9956 H   0  0  0  0  0  0  0  0  0  0  0  0
   -2.4440   -2.9114   -2.2803 H   0  0  0  0  0  0  0  0  0  0  0  0
   -3.3991   -1.4588   -2.6418 H   0  0  0  0  0  0  0  0  0  0  0  0
   -3.8290   -0.0795    0.0558 H   0  0  0  0  0  0  0  0  0  0  0  0
   -5.0537    0.8608    1.3832 H   0  0  0  0  0  0  0  0  0  0  0  0
   -7.8853   -0.1517   -1.7247 H   0  0  0  0  0  0  0  0  0  0  0  0
   -6.3178    2.8879    1.8710 H   0  0  0  0  0  0  0  0  0  0  0  0
   -9.1530    1.8281   -1.2304 H   0  0  0  0  0  0  0  0  0  0  0  0
    3.5667    1.7740   -0.6794 H   0  0  0  0  0  0  0  0  0  0  0  0
    5.1782   -2.1415    0.0588 H   0  0  0  0  0  0  0  0  0  0  0  0
    5.8018    2.7198   -0.6993 H   0  0  0  0  0  0  0  0  0  0  0  0
    7.4455   -1.2337    0.0473 H   0  0  0  0  0  0  0  0  0  0  0  0
  -10.4589    3.0989    0.0520 H   0  0  0  0  0  0  0  0  0  0  0  0
  -10.1485    4.8193    0.2580 H   0  0  0  0  0  0  0  0  0  0  0  0
   -9.4810    4.0300   -1.1668 H   0  0  0  0  0  0  0  0  0  0  0  0
    7.7652    3.4646   -0.7023 H   0  0  0  0  0  0  0  0  0  0  0  0
   11.1885    1.1933   -0.1274 H   0  0  0  0  0  0  0  0  0  0  0  0
  1 15  1  0  0  0  0
  1 18  1  0  0  0  0
  2 14  1  0  0  0  0
  2 19  1  0  0  0  0
  3 20  1  0  0  0  0
  3 25  1  0  0  0  0
  4 21  2  0  0  0  0
  5 30  1  0  0  0  0
  5 34  1  0  0  0  0
  6  8  1  0  0  0  0
  6 16  1  0  0  0  0
  6 20  1  0  0  0  0
  7 17  1  0  0  0  0
  7 21  1  0  0  0  0
  7 45  1  0  0  0  0
  8 10  2  0  0  0  0
  9 10  1  0  0  0  0
  9 20  2  0  0  0  0
 11 12  1  0  0  0  0
 11 33  1  0  0  0  0
 11 35  1  0  0  0  0
 12 36  2  0  0  0  0
 13 35  2  0  0  0  0
 13 36  1  0  0  0  0
 14 15  1  0  0  0  0
 14 16  1  0  0  0  0
 14 37  1  0  0  0  0
 15 17  1  0  0  0  0
 15 38  1  0  0  0  0
 16 18  1  0  0  0  0
 16 39  1  0  0  0  0
 17 19  1  0  0  0  0
 17 40  1  0  0  0  0
 18 41  1  0  0  0  0
 18 42  1  0  0  0  0
 19 43  1  0  0  0  0
 19 44  1  0  0  0  0
 21 22  1  0  0  0  0
 22 23  2  0  0  0  0
 22 24  1  0  0  0  0
 23 26  1  0  0  0  0
 23 46  1  0  0  0  0
 24 27  2  0  0  0  0
 24 47  1  0  0  0  0
 25 28  2  0  0  0  0
 25 29  1  0  0  0  0
 26 30  2  0  0  0  0
 26 48  1  0  0  0  0
 27 30  1  0  0  0  0
 27 49  1  0  0  0  0
 28 31  1  0  0  0  0
 28 50  1  0  0  0  0
 29 32  2  0  0  0  0
 29 51  1  0  0  0  0
 31 33  2  0  0  0  0
 31 52  1  0  0  0  0
 32 33  1  0  0  0  0
 32 53  1  0  0  0  0
 34 54  1  0  0  0  0
 34 55  1  0  0  0  0
 34 56  1  0  0  0  0
 35 57  1  0  0  0  0
 36 58  1  0  0  0  0
M  END
> <PUBCHEM_COMPOUND_CID>
11886250

> <PUBCHEM_CONFORMER_RMSD>
1

> <PUBCHEM_CONFORMER_DIVERSEORDER>
1
125
18
69
108
25
33
167
50
67
129
41
84
136
163
93
160
17
78
166
70
165
126
92
150
119
57
34
6
116
152
60
101
20
130
64
38
86
90
49
89
134
118
21
133
131
29
36
91
79
158
132
51
31
148
14
44
16
97
117
23
107
124
157
121
30
76
68
52
40
15
170
28
87
139
85
88
55
102
105
27
140
168
149
66
83
71
22
147
113
35
24
141
59
54
146
123
65
53
94
82
143
74
153
3
80
10
142
110
62
9
115
43
32
169
19
45
161
95
7
77
127
109
120
58
145
75
73
164
122
99
96
81
37
48
106
151
5
61
26
138
114
155
111
2
100
8
144
56
104
137
159
39
135
72
156
4
63
11
112
162
154
128
46
13
103
42
47
12
98

> <PUBCHEM_MMFF94_PARTIAL_CHARGES>
46
1 -0.56
11 0.59
12 -0.71
13 -0.57
14 0.28
15 0.28
16 0.26
17 0.3
18 0.28
19 0.28
2 -0.56
20 0.25
21 0.54
22 0.09
23 -0.15
24 -0.15
25 0.08
26 -0.15
27 -0.15
28 -0.15
29 -0.15
3 -0.15
30 0.08
31 -0.15
32 -0.15
33 -0.02
34 0.28
35 0.04
36 0.37
4 -0.57
45 0.37
46 0.15
47 0.15
48 0.15
49 0.15
5 -0.36
50 0.15
51 0.15
52 0.15
53 0.15
57 0.15
58 0.15
6 0.31
7 -0.73
8 -0.42
9 -0.34

> <PUBCHEM_EFFECTIVE_ROTOR_COUNT>
9.2

> <PUBCHEM_PHARMACOPHORE_FEATURES>
14
1 1 acceptor
1 2 acceptor
1 4 acceptor
1 5 acceptor
1 7 donor
3 11 13 35 cation
3 12 13 36 cation
3 6 9 20 cation
5 1 14 15 16 18 rings
5 11 12 13 35 36 rings
5 2 14 15 17 19 rings
5 6 8 9 10 20 rings
6 22 23 24 26 27 30 rings
6 25 28 29 31 32 33 rings

> <PUBCHEM_HEAVY_ATOM_COUNT>
36

> <PUBCHEM_ATOM_DEF_STEREO_COUNT>
4

> <PUBCHEM_ATOM_UDEF_STEREO_COUNT>
0

> <PUBCHEM_BOND_DEF_STEREO_COUNT>
0

> <PUBCHEM_BOND_UDEF_STEREO_COUNT>
0

> <PUBCHEM_ISOTOPIC_ATOM_COUNT>
0

> <PUBCHEM_COMPONENT_COUNT>
1

> <PUBCHEM_CACTVS_TAUTO_COUNT>
2

> <PUBCHEM_CONFORMER_ID>
00B55EAA00000001

> <PUBCHEM_MMFF94_ENERGY>
104.6738

> <PUBCHEM_FEATURE_SELFOVERLAP>
74.48

> <PUBCHEM_SHAPE_FINGERPRINT>
10190206 1 17275112704241149387
10533779 47 14996554063734889432
10674148 151 18412259571633447704
10952577 141 18343865494541637573
11135609 99 9079107865222635232
11181472 205 18410012122895679946
11374522 79 9943512034856478685
11386260 185 15410600515310839634
11411753 3 16700313442334899403
11421887 21 18130232528116448217
11421887 45 18340190947783043097
11578821 258 18192996152787573828
11621639 336 18194119620835656440
11973864 220 18201445744453502641
12120059 9 11891323262954973427
12522641 68 18130787875888293527
12838863 1 8718535113533347345
13248334 5 18122908620786902919
14040221 8 18413385429054575120
14068700 675 10591767597196234954
14394314 77 18334858320682621701
14918687 75 9799691503006261152
15183329 4 16343986901287451667
15198563 99 15913064101201312568
15347590 135 14995997722823545269
15604295 49 18200588237432333376
1577012 14 18408599262310644235
15890870 6 18412545380342968657
16728433 281 17774731840201940545
16992727 255 18413392042244128280
16994733 274 18408321111843868712
19303781 99 7853273321610914969
2026 5 10303813181657700909
20609170 114 17603877728757262001
20721686 146 18342739564601757229
21360443 89 9727634982488500932
21362267 313 18410569601715069608
21585482 111 18336826399478560221
21781055 127 18336253588643685762
23516275 100 18047751500093101709
23523787 8 16200142167676701167
23528940 14 9583249319037765788
23576562 1 16629385025305538877
24771293 8 18334013900046742879
2835820 83 9223218647348471133
3178227 256 15357697500888076214
3633792 109 18272095998694757574
3711267 37 18335712658070231620
3918712 181 18339641127923706709
3986486 107 16558750083877461305
44280117 145 18048036565250585934
44802255 64 17418095447070434135
4516262 110 18335132043707209959
4760202 70 10951760916166411770
54039377 194 10087634901995989625
5718773 13 9511455624531834351
57303763 176 18411137997180684624
57303763 39 8358252658519279848
5776283 40 18201718470222297120
5911458 16 18408043996597040965
5937810 71 18342177757009363493
636775 72 18410293623046498301
6673363 416 18272931670470393245
6697151 62 14261344769476189338
6698420 124 17967818254060839490
9689198 14 18261116261850644931
9980921 7 18260261929496682653

> <PUBCHEM_SHAPE_MULTIPOLES>
671.67
34.96
3.91
1.39
20.1
1.48
0.66
45.81
-5.73
-6.23
-0.07
-0.43
-0.53
-2.84

> <PUBCHEM_SHAPE_SELFOVERLAP>
1487.663

> <PUBCHEM_SHAPE_VOLUME>
361.3

> <PUBCHEM_COORDINATE_TYPE>
2
5
10

$$$$
