26744190
  -OEChem-12032416293D

 53 56  0     1  0  0  0  0  0999 V2000
   -1.8860   -3.6337   -0.3544 S   0  0  0  0  0  0  0  0  0  0  0  0
    6.3895    2.3671   -0.1365 O   0  0  0  0  0  0  0  0  0  0  0  0
    1.5934    1.2700   -1.3582 O   0  0  0  0  0  0  0  0  0  0  0  0
   -1.6960   -4.5501   -1.4704 O   0  0  0  0  0  0  0  0  0  0  0  0
   -2.5026   -4.1105    0.8754 O   0  0  0  0  0  0  0  0  0  0  0  0
   -5.8568    2.0604    0.1789 O   0  0  0  0  0  0  0  0  0  0  0  0
    3.7510   -0.0179    0.2119 N   0  0  1  0  0  0  0  0  0  0  0  0
    0.5108    1.4700    0.5923 N   0  0  0  0  0  0  0  0  0  0  0  0
    0.2345    1.3867   -1.6771 N   0  0  0  0  0  0  0  0  0  0  0  0
    3.0525    1.2237    0.6019 C   0  0  1  0  0  0  0  0  0  0  0  0
    3.9875    2.3604    0.1489 C   0  0  0  0  0  0  0  0  0  0  0  0
    5.2040    1.6587   -0.4419 C   0  0  2  0  0  0  0  0  0  0  0  0
    5.1794    0.2920    0.2157 C   0  0  0  0  0  0  0  0  0  0  0  0
    3.4333   -1.1502    1.0722 C   0  0  0  0  0  0  0  0  0  0  0  0
    1.6681    1.3282   -0.0027 C   0  0  0  0  0  0  0  0  0  0  0  0
    2.1079   -1.7699    0.7167 C   0  0  0  0  0  0  0  0  0  0  0  0
    1.0942   -1.8444    1.6720 C   0  0  0  0  0  0  0  0  0  0  0  0
    1.8936   -2.2695   -0.5680 C   0  0  0  0  0  0  0  0  0  0  0  0
   -0.3384    1.5009   -0.4752 C   0  0  0  0  0  0  0  0  0  0  0  0
   -0.1335   -2.4185    1.3429 C   0  0  0  0  0  0  0  0  0  0  0  0
    0.6659   -2.8437   -0.8971 C   0  0  0  0  0  0  0  0  0  0  0  0
   -0.3477   -2.9182    0.0583 C   0  0  0  0  0  0  0  0  0  0  0  0
   -1.7555    1.6457   -0.3066 C   0  0  0  0  0  0  0  0  0  0  0  0
   -2.2982    1.7592    0.9734 C   0  0  0  0  0  0  0  0  0  0  0  0
   -2.5911    1.6716   -1.4232 C   0  0  0  0  0  0  0  0  0  0  0  0
   -2.8579   -2.2733   -0.9615 C   0  0  0  0  0  0  0  0  0  0  0  0
   -3.6763    1.8985    1.1368 C   0  0  0  0  0  0  0  0  0  0  0  0
   -3.9693    1.8108   -1.2599 C   0  0  0  0  0  0  0  0  0  0  0  0
   -4.5119    1.9243    0.0201 C   0  0  0  0  0  0  0  0  0  0  0  0
   -6.3447    2.1717    1.5151 C   0  0  0  0  0  0  0  0  0  0  0  0
    2.9541    1.2932    1.6941 H   0  0  0  0  0  0  0  0  0  0  0  0
    3.5385    3.0326   -0.5910 H   0  0  0  0  0  0  0  0  0  0  0  0
    4.2755    2.9772    1.0098 H   0  0  0  0  0  0  0  0  0  0  0  0
    5.1089    1.5684   -1.5309 H   0  0  0  0  0  0  0  0  0  0  0  0
    5.5974    0.3388    1.2300 H   0  0  0  0  0  0  0  0  0  0  0  0
    5.7634   -0.4353   -0.3579 H   0  0  0  0  0  0  0  0  0  0  0  0
    3.4793   -0.8785    2.1350 H   0  0  0  0  0  0  0  0  0  0  0  0
    4.1837   -1.9422    0.9386 H   0  0  0  0  0  0  0  0  0  0  0  0
    6.3063    3.2558   -0.5224 H   0  0  0  0  0  0  0  0  0  0  0  0
    1.2459   -1.4553    2.6753 H   0  0  0  0  0  0  0  0  0  0  0  0
    2.6748   -2.2213   -1.3221 H   0  0  0  0  0  0  0  0  0  0  0  0
   -0.9115   -2.4574    2.1000 H   0  0  0  0  0  0  0  0  0  0  0  0
    0.5182   -3.2206   -1.9052 H   0  0  0  0  0  0  0  0  0  0  0  0
   -1.6726    1.7410    1.8624 H   0  0  0  0  0  0  0  0  0  0  0  0
   -2.2048    1.5846   -2.4357 H   0  0  0  0  0  0  0  0  0  0  0  0
   -3.8392   -2.6581   -1.2472 H   0  0  0  0  0  0  0  0  0  0  0  0
   -2.9664   -1.5340   -0.1659 H   0  0  0  0  0  0  0  0  0  0  0  0
   -2.3599   -1.8397   -1.8307 H   0  0  0  0  0  0  0  0  0  0  0  0
   -4.0314    1.9811    2.1584 H   0  0  0  0  0  0  0  0  0  0  0  0
   -4.6156    1.8297   -2.1332 H   0  0  0  0  0  0  0  0  0  0  0  0
   -7.4333    2.2729    1.4543 H   0  0  0  0  0  0  0  0  0  0  0  0
   -5.9667    3.0740    2.0076 H   0  0  0  0  0  0  0  0  0  0  0  0
   -6.1397    1.2654    2.0951 H   0  0  0  0  0  0  0  0  0  0  0  0
  1  4  2  0  0  0  0
  1  5  2  0  0  0  0
  1 22  1  0  0  0  0
  1 26  1  0  0  0  0
  2 12  1  0  0  0  0
  2 39  1  0  0  0  0
  3  9  1  0  0  0  0
  3 15  1  0  0  0  0
  6 29  1  0  0  0  0
  6 30  1  0  0  0  0
  7 10  1  0  0  0  0
  7 13  1  0  0  0  0
  7 14  1  0  0  0  0
  8 15  2  0  0  0  0
  8 19  1  0  0  0  0
  9 19  2  0  0  0  0
 10 11  1  0  0  0  0
 10 15  1  0  0  0  0
 10 31  1  0  0  0  0
 11 12  1  0  0  0  0
 11 32  1  0  0  0  0
 11 33  1  0  0  0  0
 12 13  1  0  0  0  0
 12 34  1  0  0  0  0
 13 35  1  0  0  0  0
 13 36  1  0  0  0  0
 14 16  1  0  0  0  0
 14 37  1  0  0  0  0
 14 38  1  0  0  0  0
 16 17  2  0  0  0  0
 16 18  1  0  0  0  0
 17 20  1  0  0  0  0
 17 40  1  0  0  0  0
 18 21  2  0  0  0  0
 18 41  1  0  0  0  0
 19 23  1  0  0  0  0
 20 22  2  0  0  0  0
 20 42  1  0  0  0  0
 21 22  1  0  0  0  0
 21 43  1  0  0  0  0
 23 24  2  0  0  0  0
 23 25  1  0  0  0  0
 24 27  1  0  0  0  0
 24 44  1  0  0  0  0
 25 28  2  0  0  0  0
 25 45  1  0  0  0  0
 26 46  1  0  0  0  0
 26 47  1  0  0  0  0
 26 48  1  0  0  0  0
 27 29  2  0  0  0  0
 27 49  1  0  0  0  0
 28 29  1  0  0  0  0
 28 50  1  0  0  0  0
 30 51  1  0  0  0  0
 30 52  1  0  0  0  0
 30 53  1  0  0  0  0
M  END
> <PUBCHEM_COMPOUND_CID>
26744190

> <PUBCHEM_CONFORMER_RMSD>
0.8

> <PUBCHEM_CONFORMER_DIVERSEORDER>
1
105
31
22
65
134
138
81
109
55
118
92
54
40
26
128
116
140
11
102
101
99
100
87
126
96
110
62
14
124
48
67
15
143
133
108
56
91
97
129
78
93
83
117
113
69
35
107
3
58
103
89
86
21
64
50
151
154
38
72
94
42
131
4
16
77
47
155
82
145
23
28
52
10
146
2
79
30
76
85
136
70
63
112
12
104
125
25
121
71
59
39
142
75
144
9
80
18
149
43
147
33
111
32
95
27
148
119
123
36
45
44
13
153
88
51
132
24
68
130
150
90
73
122
114
98
127
60
152
5
17
139
8
29
34
84
135
74
7
6
141
106
41
19
57
120
137
46
49
37
66
20
61
53
115

> <PUBCHEM_MMFF94_PARTIAL_CHARGES>
38
1 1.2
10 0.45
12 0.28
13 0.27
14 0.41
15 0.3
16 -0.14
17 -0.15
18 -0.15
19 0.46
2 -0.68
20 -0.15
21 -0.15
22 -0.01
23 0.05
24 -0.15
25 -0.15
26 0.11
27 -0.15
28 -0.15
29 0.08
3 -0.02
30 0.28
39 0.4
4 -0.65
40 0.15
41 0.15
42 0.15
43 0.15
44 0.15
45 0.15
49 0.15
5 -0.65
50 0.15
6 -0.36
7 -0.81
8 -0.57
9 -0.41

> <PUBCHEM_EFFECTIVE_ROTOR_COUNT>
7

> <PUBCHEM_PHARMACOPHORE_FEATURES>
11
1 2 acceptor
1 2 donor
1 4 acceptor
1 5 acceptor
1 6 acceptor
1 7 cation
3 8 9 19 cation
5 3 8 9 15 19 rings
5 7 10 11 12 13 rings
6 16 17 18 20 21 22 rings
6 23 24 25 27 28 29 rings

> <PUBCHEM_HEAVY_ATOM_COUNT>
30

> <PUBCHEM_ATOM_DEF_STEREO_COUNT>
2

> <PUBCHEM_ATOM_UDEF_STEREO_COUNT>
0

> <PUBCHEM_BOND_DEF_STEREO_COUNT>
0

> <PUBCHEM_BOND_UDEF_STEREO_COUNT>
0

> <PUBCHEM_ISOTOPIC_ATOM_COUNT>
0

> <PUBCHEM_COMPONENT_COUNT>
1

> <PUBCHEM_CACTVS_TAUTO_COUNT>
1

> <PUBCHEM_CONFORMER_ID>
0198157E00000001

> <PUBCHEM_MMFF94_ENERGY>
68.0884

> <PUBCHEM_FEATURE_SELFOVERLAP>
55.84

> <PUBCHEM_SHAPE_FINGERPRINT>
104564 63 18192989542262374134
1100329 8 18264758879776115554
11112662 9 18270959029522797014
11421498 54 17773593802279435552
11513181 2 18130784542945971727
12156800 1 18047503211309627271
12422481 6 18335715965273716443
12597179 24 18201445770206052670
12788726 201 17760100896336294524
13692114 37 18200856457474816815
14028597 1 17244953250789137144
140371 6 17537442095720817426
14790565 3 18411417272290107885
14840074 17 18114184107699089005
15297060 5 18202281394532300538
15664445 248 17549263636035125879
16728300 4 16668785702813401346
17138139 8 17768770408546429575
21133410 38 18201163153607427963
21197605 99 18334868238062372939
21236236 1 18337106895318050440
21796203 349 17689737267338443610
23558518 356 18120373426018550804
3178227 256 18119812408990174178
338550 245 18188215397970117053
38695281 34 18336823079114970389
4340502 62 18410862027144252661
469060 322 16878215463196208279
5171179 24 17697594755751688544
59755656 520 18413109459097569357
6287921 2 17697308522135563343
653340 110 18125148587716384337
6669772 16 18335140835568658818

> <PUBCHEM_SHAPE_MULTIPOLES>
576.95
11.09
5.31
1.43
1.05
6.57
0
-12.47
1.97
2.77
-0.61
0.92
0.19
-1.3

> <PUBCHEM_SHAPE_SELFOVERLAP>
1234.936

> <PUBCHEM_SHAPE_VOLUME>
323.8

> <PUBCHEM_COORDINATE_TYPE>
2
5
10

$$$$
