28963165
  -OEChem-12032416263D

 53 55  0     1  0  0  0  0  0999 V2000
   -2.3216    1.7340    0.1859 O   0  0  0  0  0  0  0  0  0  0  0  0
   -4.1369    3.1417    0.0709 O   0  0  0  0  0  0  0  0  0  0  0  0
    4.2727   -0.2194   -1.3612 O   0  0  0  0  0  0  0  0  0  0  0  0
    2.9203   -0.0106    0.5141 N   0  0  0  0  0  0  0  0  0  0  0  0
    5.1531    0.5044    0.6599 N   0  0  0  0  0  0  0  0  0  0  0  0
   -0.8616   -0.3098   -0.0784 C   0  0  1  0  0  0  0  0  0  0  0  0
   -0.9486   -1.8701    0.1157 C   0  0  1  0  0  0  0  0  0  0  0  0
   -2.1714    0.3314    0.4156 C   0  0  2  0  0  0  0  0  0  0  0  0
   -3.3486   -0.2265   -0.3647 C   0  0  1  0  0  0  0  0  0  0  0  0
    0.4543    0.2754    0.5210 C   0  0  1  0  0  0  0  0  0  0  0  0
   -2.2373   -2.4351   -0.5574 C   0  0  0  0  0  0  0  0  0  0  0  0
    0.2816   -2.5122   -0.5644 C   0  0  0  0  0  0  0  0  0  0  0  0
   -3.5255   -1.7132   -0.1349 C   0  0  0  0  0  0  0  0  0  0  0  0
    1.6842   -0.4387   -0.1048 C   0  0  2  0  0  0  0  0  0  0  0  0
    1.6030   -1.9664   -0.0349 C   0  0  0  0  0  0  0  0  0  0  0  0
   -4.4513    0.7153    0.0796 C   0  0  1  0  0  0  0  0  0  0  0  0
   -0.9752   -2.2869    1.6095 C   0  0  0  0  0  0  0  0  0  0  0  0
    0.5741    1.7942    0.3142 C   0  0  0  0  0  0  0  0  0  0  0  0
   -3.6684    2.0147    0.1066 C   0  0  0  0  0  0  0  0  0  0  0  0
   -5.6256    0.7606   -0.8799 C   0  0  0  0  0  0  0  0  0  0  0  0
    4.1273    0.0645   -0.1729 C   0  0  0  0  0  0  0  0  0  0  0  0
    6.5128    0.6736    0.2041 C   0  0  0  0  0  0  0  0  0  0  0  0
    6.6887    1.9791   -0.5436 C   0  0  0  0  0  0  0  0  0  0  0  0
   -0.8047   -0.1095   -1.1602 H   0  0  0  0  0  0  0  0  0  0  0  0
   -2.2744    0.1761    1.4972 H   0  0  0  0  0  0  0  0  0  0  0  0
   -3.1753   -0.0642   -1.4409 H   0  0  0  0  0  0  0  0  0  0  0  0
    0.4634    0.1087    1.6054 H   0  0  0  0  0  0  0  0  0  0  0  0
   -2.3396   -3.5066   -0.3447 H   0  0  0  0  0  0  0  0  0  0  0  0
   -2.1405   -2.3488   -1.6483 H   0  0  0  0  0  0  0  0  0  0  0  0
    0.2401   -2.3325   -1.6470 H   0  0  0  0  0  0  0  0  0  0  0  0
    0.2645   -3.6015   -0.4330 H   0  0  0  0  0  0  0  0  0  0  0  0
   -4.3658   -2.0923   -0.7272 H   0  0  0  0  0  0  0  0  0  0  0  0
   -3.7602   -1.9222    0.9144 H   0  0  0  0  0  0  0  0  0  0  0  0
    1.7332   -0.1593   -1.1664 H   0  0  0  0  0  0  0  0  0  0  0  0
    1.7629   -2.3052    0.9960 H   0  0  0  0  0  0  0  0  0  0  0  0
    2.4239   -2.4069   -0.6157 H   0  0  0  0  0  0  0  0  0  0  0  0
   -4.7887    0.4924    1.0983 H   0  0  0  0  0  0  0  0  0  0  0  0
   -0.1006   -1.9382    2.1642 H   0  0  0  0  0  0  0  0  0  0  0  0
   -0.9968   -3.3793    1.7028 H   0  0  0  0  0  0  0  0  0  0  0  0
   -1.8545   -1.9054    2.1354 H   0  0  0  0  0  0  0  0  0  0  0  0
    0.3979    2.0681   -0.7311 H   0  0  0  0  0  0  0  0  0  0  0  0
    1.5648    2.1662    0.5946 H   0  0  0  0  0  0  0  0  0  0  0  0
   -0.1359    2.3353    0.9455 H   0  0  0  0  0  0  0  0  0  0  0  0
    2.9227    0.1695    1.5135 H   0  0  0  0  0  0  0  0  0  0  0  0
   -5.3129    1.0611   -1.8860 H   0  0  0  0  0  0  0  0  0  0  0  0
   -6.3703    1.4891   -0.5415 H   0  0  0  0  0  0  0  0  0  0  0  0
   -6.1142   -0.2162   -0.9490 H   0  0  0  0  0  0  0  0  0  0  0  0
    4.9360    0.7281    1.6262 H   0  0  0  0  0  0  0  0  0  0  0  0
    7.1605    0.6492    1.0859 H   0  0  0  0  0  0  0  0  0  0  0  0
    6.7768   -0.1695   -0.4430 H   0  0  0  0  0  0  0  0  0  0  0  0
    6.0562    2.0160   -1.4366 H   0  0  0  0  0  0  0  0  0  0  0  0
    6.4199    2.8317    0.0891 H   0  0  0  0  0  0  0  0  0  0  0  0
    7.7295    2.1009   -0.8585 H   0  0  0  0  0  0  0  0  0  0  0  0
  1  8  1  0  0  0  0
  1 19  1  0  0  0  0
  2 19  2  0  0  0  0
  3 21  2  0  0  0  0
  4 14  1  0  0  0  0
  4 21  1  0  0  0  0
  4 44  1  0  0  0  0
  5 21  1  0  0  0  0
  5 22  1  0  0  0  0
  5 48  1  0  0  0  0
  6  7  1  0  0  0  0
  6  8  1  0  0  0  0
  6 10  1  0  0  0  0
  6 24  1  0  0  0  0
  7 11  1  0  0  0  0
  7 12  1  0  0  0  0
  7 17  1  0  0  0  0
  8  9  1  0  0  0  0
  8 25  1  0  0  0  0
  9 13  1  0  0  0  0
  9 16  1  0  0  0  0
  9 26  1  0  0  0  0
 10 14  1  0  0  0  0
 10 18  1  0  0  0  0
 10 27  1  0  0  0  0
 11 13  1  0  0  0  0
 11 28  1  0  0  0  0
 11 29  1  0  0  0  0
 12 15  1  0  0  0  0
 12 30  1  0  0  0  0
 12 31  1  0  0  0  0
 13 32  1  0  0  0  0
 13 33  1  0  0  0  0
 14 15  1  0  0  0  0
 14 34  1  0  0  0  0
 15 35  1  0  0  0  0
 15 36  1  0  0  0  0
 16 19  1  0  0  0  0
 16 20  1  0  0  0  0
 16 37  1  0  0  0  0
 17 38  1  0  0  0  0
 17 39  1  0  0  0  0
 17 40  1  0  0  0  0
 18 41  1  0  0  0  0
 18 42  1  0  0  0  0
 18 43  1  0  0  0  0
 20 45  1  0  0  0  0
 20 46  1  0  0  0  0
 20 47  1  0  0  0  0
 22 23  1  0  0  0  0
 22 49  1  0  0  0  0
 22 50  1  0  0  0  0
 23 51  1  0  0  0  0
 23 52  1  0  0  0  0
 23 53  1  0  0  0  0
M  END
> <PUBCHEM_COMPOUND_CID>
28963165

> <PUBCHEM_CONFORMER_RMSD>
0.8

> <PUBCHEM_CONFORMER_DIVERSEORDER>
1
9
10
5
2
11
7
8
4
3
6

> <PUBCHEM_MMFF94_PARTIAL_CHARGES>
13
1 -0.43
14 0.3
16 0.06
19 0.66
2 -0.57
21 0.69
22 0.3
3 -0.57
4 -0.73
44 0.37
48 0.37
5 -0.73
8 0.28

> <PUBCHEM_EFFECTIVE_ROTOR_COUNT>
5.6

> <PUBCHEM_PHARMACOPHORE_FEATURES>
7
1 2 acceptor
1 3 acceptor
1 4 donor
1 5 donor
5 1 8 9 16 19 rings
6 6 7 10 12 14 15 rings
6 6 7 8 9 11 13 rings

> <PUBCHEM_HEAVY_ATOM_COUNT>
23

> <PUBCHEM_ATOM_DEF_STEREO_COUNT>
7

> <PUBCHEM_ATOM_UDEF_STEREO_COUNT>
0

> <PUBCHEM_BOND_DEF_STEREO_COUNT>
0

> <PUBCHEM_BOND_UDEF_STEREO_COUNT>
0

> <PUBCHEM_ISOTOPIC_ATOM_COUNT>
0

> <PUBCHEM_COMPONENT_COUNT>
1

> <PUBCHEM_CACTVS_TAUTO_COUNT>
6

> <PUBCHEM_CONFORMER_ID>
01B9F15D00000001

> <PUBCHEM_MMFF94_ENERGY>
52.4727

> <PUBCHEM_FEATURE_SELFOVERLAP>
35.665

> <PUBCHEM_SHAPE_FINGERPRINT>
10411042 1 17762899170646705327
10493431 412 18338239267366282689
10906281 52 18341066154489428232
10967382 1 18340764828653695907
11315181 36 17896035611144304074
12107183 9 18190732030580165746
12236239 1 17967528004581584178
12390115 104 18272382944267274337
12596602 18 17385438843217332936
12633257 1 16081376275770649278
12788726 201 18116985783744762451
12838862 33 18339059537564125581
13140716 1 18194970875242908115
13257819 101 17096630042735312215
14251764 75 17910402684513868257
14713325 29 18338520841132899371
14765038 42 17916038884233616433
14790565 3 17838063606703306761
14931854 50 18272363127821232461
15196674 1 18340485556473170003
16945 1 18341607136107318419
17980427 23 18187087303503661886
18608769 82 18411140281723543115
200 152 14620797089216024170
20645477 56 18342740736457532010
20645477 70 16845302592700608230
21236236 1 18412262873809033926
21267235 1 18268711783097378495
21279426 13 18271249305467765286
22182313 1 18198648607871905478
23402539 116 18411130368216097094
23559900 14 18129936905448516280
25147074 1 18263061293499061178
2748010 2 18053092111119078363
2838139 119 18341607079844956182
3004659 81 18410857625963096182
335352 9 18341046411125934565
34934 24 18410569565672639467
350125 39 18339926012766333761
3759504 43 17894635859406046195
4073 2 18113904905693761082
4340502 62 16515692100273441667
474 4 17968101889147279183
5104073 3 18191031097410150387
5283173 99 18342457058563843552
59755656 215 18341888576744902733
6327066 14 18335977554837046709
636775 72 18341046437113003672
7808743 9 18410571768990739040
9981440 41 18335143093830251450

> <PUBCHEM_SHAPE_MULTIPOLES>
445.76
12.92
2.92
0.92
19.06
0.05
-0.07
-9.21
2.22
-2.39
-0.07
0.09
0.28
-0.1

> <PUBCHEM_SHAPE_SELFOVERLAP>
924.477

> <PUBCHEM_SHAPE_VOLUME>
253.2

> <PUBCHEM_COORDINATE_TYPE>
2
5
10

$$$$
