11886090
  -OEChem-12032416373D

 65 70  0     1  0  0  0  0  0999 V2000
   -2.4942    3.6452   -0.4211 O   0  0  0  0  0  0  0  0  0  0  0  0
   -2.7080    0.9683    1.8063 O   0  0  0  0  0  0  0  0  0  0  0  0
   -0.3793    2.3663    0.6477 O   0  0  0  0  0  0  0  0  0  0  0  0
    1.3329    3.0580    1.9967 O   0  0  0  0  0  0  0  0  0  0  0  0
    4.0514   -3.1542    0.9315 O   0  0  0  0  0  0  0  0  0  0  0  0
   -4.2538    0.4770   -1.0215 N   0  0  0  0  0  0  0  0  0  0  0  0
   -5.3942    0.9424   -1.5503 N   0  0  0  0  0  0  0  0  0  0  0  0
   -5.4036   -1.2871   -1.5397 N   0  0  0  0  0  0  0  0  0  0  0  0
   -6.0933   -0.1411   -1.8658 N   0  0  0  0  0  0  0  0  0  0  0  0
    1.7331    1.9943   -0.0500 N   0  0  0  0  0  0  0  0  0  0  0  0
    1.2912   -3.7076    0.5111 N   0  0  0  0  0  0  0  0  0  0  0  0
    6.3023    0.2491   -3.3725 N   0  0  0  0  0  0  0  0  0  0  0  0
   -3.3729    1.8457    0.8918 C   0  0  1  0  0  0  0  0  0  0  0  0
   -2.6441    3.1769    0.9169 C   0  0  1  0  0  0  0  0  0  0  0  0
   -3.2234    1.3918   -0.5517 C   0  0  2  0  0  0  0  0  0  0  0  0
   -1.3249    2.8593    1.5909 C   0  0  1  0  0  0  0  0  0  0  0  0
   -3.1468    2.7167   -1.3020 C   0  0  0  0  0  0  0  0  0  0  0  0
   -1.7246    1.7356    2.5251 C   0  0  0  0  0  0  0  0  0  0  0  0
   -4.2684   -0.8813   -1.0193 C   0  0  0  0  0  0  0  0  0  0  0  0
   -3.1993   -1.7079   -0.5207 C   0  0  0  0  0  0  0  0  0  0  0  0
    0.9550    2.5231    0.9615 C   0  0  0  0  0  0  0  0  0  0  0  0
   -3.1873   -2.1005    0.8178 C   0  0  0  0  0  0  0  0  0  0  0  0
   -2.1761   -2.1159   -1.3764 C   0  0  0  0  0  0  0  0  0  0  0  0
   -1.1289   -3.3088    0.4450 C   0  0  0  0  0  0  0  0  0  0  0  0
   -0.0219   -4.1646    0.9612 C   0  0  0  0  0  0  0  0  0  0  0  0
   -2.1522   -2.9009    1.3006 C   0  0  0  0  0  0  0  0  0  0  0  0
   -1.1408   -2.9163   -0.8934 C   0  0  0  0  0  0  0  0  0  0  0  0
    2.2837   -4.7862    0.6175 C   0  0  0  0  0  0  0  0  0  0  0  0
    1.7316   -2.5400    1.2871 C   0  0  0  0  0  0  0  0  0  0  0  0
    3.6479   -4.2826    0.1547 C   0  0  0  0  0  0  0  0  0  0  0  0
    3.1083   -2.0891    0.8074 C   0  0  0  0  0  0  0  0  0  0  0  0
    3.1436    1.9469   -0.1288 C   0  0  0  0  0  0  0  0  0  0  0  0
    3.7617    1.3688   -1.2375 C   0  0  0  0  0  0  0  0  0  0  0  0
    3.9175    2.4789    0.9027 C   0  0  0  0  0  0  0  0  0  0  0  0
    5.1536    1.3225   -1.3147 C   0  0  0  0  0  0  0  0  0  0  0  0
    5.3094    2.4327    0.8254 C   0  0  0  0  0  0  0  0  0  0  0  0
    5.9274    1.8544   -0.2833 C   0  0  0  0  0  0  0  0  0  0  0  0
    5.7874    0.7302   -2.4503 C   0  0  0  0  0  0  0  0  0  0  0  0
   -4.4220    1.9502    1.1907 H   0  0  0  0  0  0  0  0  0  0  0  0
   -3.2111    3.9118    1.4999 H   0  0  0  0  0  0  0  0  0  0  0  0
   -2.2663    0.8697   -0.6764 H   0  0  0  0  0  0  0  0  0  0  0  0
   -0.9332    3.7359    2.1175 H   0  0  0  0  0  0  0  0  0  0  0  0
   -2.5753    2.6357   -2.2317 H   0  0  0  0  0  0  0  0  0  0  0  0
   -4.1286    3.1389   -1.5404 H   0  0  0  0  0  0  0  0  0  0  0  0
   -2.2012    2.1187    3.4339 H   0  0  0  0  0  0  0  0  0  0  0  0
   -0.8980    1.0740    2.7984 H   0  0  0  0  0  0  0  0  0  0  0  0
   -3.9785   -1.7918    1.4971 H   0  0  0  0  0  0  0  0  0  0  0  0
   -2.1724   -1.8197   -2.4228 H   0  0  0  0  0  0  0  0  0  0  0  0
   -0.2199   -5.1746    0.5759 H   0  0  0  0  0  0  0  0  0  0  0  0
   -0.0540   -4.2494    2.0557 H   0  0  0  0  0  0  0  0  0  0  0  0
    1.2323    1.5875   -0.8362 H   0  0  0  0  0  0  0  0  0  0  0  0
   -2.1564   -3.1992    2.3456 H   0  0  0  0  0  0  0  0  0  0  0  0
   -0.3605   -3.2319   -1.5809 H   0  0  0  0  0  0  0  0  0  0  0  0
    2.3551   -5.1350    1.6560 H   0  0  0  0  0  0  0  0  0  0  0  0
    1.9922   -5.6374   -0.0085 H   0  0  0  0  0  0  0  0  0  0  0  0
    1.0340   -1.7029    1.1706 H   0  0  0  0  0  0  0  0  0  0  0  0
    1.7860   -2.7894    2.3550 H   0  0  0  0  0  0  0  0  0  0  0  0
    3.6397   -4.0111   -0.9081 H   0  0  0  0  0  0  0  0  0  0  0  0
    4.4002   -5.0661    0.2905 H   0  0  0  0  0  0  0  0  0  0  0  0
    3.4638   -1.2564    1.4227 H   0  0  0  0  0  0  0  0  0  0  0  0
    3.0805   -1.7442   -0.2333 H   0  0  0  0  0  0  0  0  0  0  0  0
    3.1560    0.9533   -2.0406 H   0  0  0  0  0  0  0  0  0  0  0  0
    3.5102    2.9413    1.7910 H   0  0  0  0  0  0  0  0  0  0  0  0
    5.9131    2.8464    1.6280 H   0  0  0  0  0  0  0  0  0  0  0  0
    7.0135    1.8257   -0.3290 H   0  0  0  0  0  0  0  0  0  0  0  0
  1 14  1  0  0  0  0
  1 17  1  0  0  0  0
  2 13  1  0  0  0  0
  2 18  1  0  0  0  0
  3 16  1  0  0  0  0
  3 21  1  0  0  0  0
  4 21  2  0  0  0  0
  5 30  1  0  0  0  0
  5 31  1  0  0  0  0
  6  7  1  0  0  0  0
  6 15  1  0  0  0  0
  6 19  1  0  0  0  0
  7  9  2  0  0  0  0
  8  9  1  0  0  0  0
  8 19  2  0  0  0  0
 10 21  1  0  0  0  0
 10 32  1  0  0  0  0
 10 51  1  0  0  0  0
 11 25  1  0  0  0  0
 11 28  1  0  0  0  0
 11 29  1  0  0  0  0
 12 38  3  0  0  0  0
 13 14  1  0  0  0  0
 13 15  1  0  0  0  0
 13 39  1  0  0  0  0
 14 16  1  0  0  0  0
 14 40  1  0  0  0  0
 15 17  1  0  0  0  0
 15 41  1  0  0  0  0
 16 18  1  0  0  0  0
 16 42  1  0  0  0  0
 17 43  1  0  0  0  0
 17 44  1  0  0  0  0
 18 45  1  0  0  0  0
 18 46  1  0  0  0  0
 19 20  1  0  0  0  0
 20 22  2  0  0  0  0
 20 23  1  0  0  0  0
 22 26  1  0  0  0  0
 22 47  1  0  0  0  0
 23 27  2  0  0  0  0
 23 48  1  0  0  0  0
 24 25  1  0  0  0  0
 24 26  2  0  0  0  0
 24 27  1  0  0  0  0
 25 49  1  0  0  0  0
 25 50  1  0  0  0  0
 26 52  1  0  0  0  0
 27 53  1  0  0  0  0
 28 30  1  0  0  0  0
 28 54  1  0  0  0  0
 28 55  1  0  0  0  0
 29 31  1  0  0  0  0
 29 56  1  0  0  0  0
 29 57  1  0  0  0  0
 30 58  1  0  0  0  0
 30 59  1  0  0  0  0
 31 60  1  0  0  0  0
 31 61  1  0  0  0  0
 32 33  1  0  0  0  0
 32 34  2  0  0  0  0
 33 35  2  0  0  0  0
 33 62  1  0  0  0  0
 34 36  1  0  0  0  0
 34 63  1  0  0  0  0
 35 37  1  0  0  0  0
 35 38  1  0  0  0  0
 36 37  2  0  0  0  0
 36 64  1  0  0  0  0
 37 65  1  0  0  0  0
M  END
> <PUBCHEM_COMPOUND_CID>
11886090

> <PUBCHEM_CONFORMER_RMSD>
1.2

> <PUBCHEM_CONFORMER_DIVERSEORDER>
6
4
55
49
72
75
92
177
155
27
173
62
129
32
50
170
94
117
25
84
109
15
39
3
96
103
81
61
89
87
77
164
10
53
102
14
148
28
36
44
161
121
16
57
107
31
122
101
179
152
150
79
64
124
76
35
20
11
97
59
120
123
78
112
136
163
135
52
131
108
175
56
90
23
67
42
186
68
80
114
172
45
48
154
43
71
17
174
143
182
29
110
116
5
133
33
66
149
24
166
118
22
46
157
9
91
142
2
178
30
140
41
65
58
85
73
21
111
125
158
70
159
26
127
60
126
98
83
19
167
7
162
88
12
99
160
113
119
51
171
132
137
74
185
100
82
18
141
34
151
37
86
47
147
130
13
93
156
165
1
145
38
40
8
184
169
134
146
176
183
153
138
139
168
115
69
106
181
54
180
128
144
95
104
63
105

> <PUBCHEM_MMFF94_PARTIAL_CHARGES>
46
1 -0.56
10 -0.55
11 -0.81
12 -0.56
13 0.28
14 0.28
15 0.26
16 0.28
17 0.28
18 0.28
19 0.13
2 -0.56
20 0.05
21 0.78
22 -0.15
23 -0.15
24 -0.14
25 0.41
26 -0.15
27 -0.15
28 0.27
29 0.27
3 -0.43
30 0.28
31 0.28
32 0.12
33 -0.15
34 -0.15
35 0.07
36 -0.15
37 -0.15
38 0.48
4 -0.57
47 0.15
48 0.15
5 -0.56
51 0.37
52 0.15
53 0.15
6 0.31
62 0.15
63 0.15
64 0.15
65 0.15
7 -0.42
8 -0.34

> <PUBCHEM_EFFECTIVE_ROTOR_COUNT>
10.4

> <PUBCHEM_PHARMACOPHORE_FEATURES>
14
1 1 acceptor
1 10 donor
1 11 cation
1 12 acceptor
1 2 acceptor
1 4 acceptor
1 5 acceptor
3 6 8 19 cation
5 1 13 14 15 17 rings
5 2 13 14 16 18 rings
5 6 7 8 9 19 rings
6 20 22 23 24 26 27 rings
6 32 33 34 35 36 37 rings
6 5 11 28 29 30 31 rings

> <PUBCHEM_HEAVY_ATOM_COUNT>
38

> <PUBCHEM_ATOM_DEF_STEREO_COUNT>
4

> <PUBCHEM_ATOM_UDEF_STEREO_COUNT>
0

> <PUBCHEM_BOND_DEF_STEREO_COUNT>
0

> <PUBCHEM_BOND_UDEF_STEREO_COUNT>
0

> <PUBCHEM_ISOTOPIC_ATOM_COUNT>
0

> <PUBCHEM_COMPONENT_COUNT>
1

> <PUBCHEM_CACTVS_TAUTO_COUNT>
2

> <PUBCHEM_CONFORMER_ID>
00B55E0A00000006

> <PUBCHEM_MMFF94_ENERGY>
99.1615

> <PUBCHEM_FEATURE_SELFOVERLAP>
71.438

> <PUBCHEM_SHAPE_FINGERPRINT>
10190108 129 18048910612179210347
10190206 1 18339658831741594676
11513181 2 18201721704522678838
13560911 43 17972022657370526139
14931854 50 18341044190295507557
15001296 14 18336820901255061906
15160629 131 17917712431130640591
15274700 21 17970649569648948323
15320294 125 17681792428860916818
15351339 4 18411128160766593386
16067689 391 17843152254407607070
17627616 140 18337677408302860602
19311894 1 17908149020852973474
19958102 18 18410295834870201396
20764821 26 18339922602309126130
21133410 230 17898025744524234691
21458453 9 8213007021870933614
21796203 349 17258539576544898954
24941158 1 15285627773788966746
3027735 51 18339364170418466619
3298306 158 18266450086982671951
3383291 50 18196930200800798343
44344687 77 17192047062128431631
469060 322 17898593092006299459
50150288 127 17201669720872167441
50677037 204 17621030968074037546
5265222 85 18046902955613371597

> <PUBCHEM_SHAPE_MULTIPOLES>
717.81
12.95
6.81
2.21
8.73
6.09
0.76
-5.13
9.23
2.34
-2.86
0.8
-0.82
-1.15

> <PUBCHEM_SHAPE_SELFOVERLAP>
1565.049

> <PUBCHEM_SHAPE_VOLUME>
388.2

> <PUBCHEM_COORDINATE_TYPE>
2
5
10

$$$$
