45783945
  -OEChem-12032416253D

 61 63  0     1  0  0  0  0  0999 V2000
   -5.4716   -1.2698   -0.3264 F   0  0  0  0  0  0  0  0  0  0  0  0
   -1.4036   -0.5163   -0.7504 O   0  0  0  0  0  0  0  0  0  0  0  0
    2.9931    3.0659    0.6408 O   0  0  0  0  0  0  0  0  0  0  0  0
    3.8296    1.0835   -0.2369 N   0  0  0  0  0  0  0  0  0  0  0  0
   -1.7698   -2.6164   -1.4290 N   0  0  0  0  0  0  0  0  0  0  0  0
    3.0675    2.7432   -1.6557 N   0  0  0  0  0  0  0  0  0  0  0  0
   -2.9801   -2.0781   -1.0335 N   0  0  0  0  0  0  0  0  0  0  0  0
    1.8412   -0.6044    1.2601 C   0  0  1  0  0  0  0  0  0  0  0  0
    3.3639   -0.8678    1.1502 C   0  0  1  0  0  0  0  0  0  0  0  0
    1.0527   -1.8931    0.9815 C   0  0  0  0  0  0  0  0  0  0  0  0
    1.3492   -2.4667   -0.4170 C   0  0  2  0  0  0  0  0  0  0  0  0
    1.4579   -0.0488    2.6352 C   0  0  0  0  0  0  0  0  0  0  0  0
    2.8363   -2.5076   -0.7052 C   0  0  0  0  0  0  0  0  0  0  0  0
    3.7227   -1.7968    0.0143 C   0  0  0  0  0  0  0  0  0  0  0  0
    4.1430    0.4442    1.0024 C   0  0  0  0  0  0  0  0  0  0  0  0
    0.6009   -1.6869   -1.5039 C   0  0  0  0  0  0  0  0  0  0  0  0
    0.1567    0.7423    2.5457 C   0  0  0  0  0  0  0  0  0  0  0  0
    1.3343   -1.1803    3.6506 C   0  0  0  0  0  0  0  0  0  0  0  0
    3.2866   -3.4207   -1.8114 C   0  0  0  0  0  0  0  0  0  0  0  0
   -0.8787   -1.6699   -1.2467 C   0  0  0  0  0  0  0  0  0  0  0  0
    3.2700    2.3642   -0.3311 C   0  0  0  0  0  0  0  0  0  0  0  0
   -2.7185   -0.8519   -0.6452 C   0  0  0  0  0  0  0  0  0  0  0  0
   -3.5879    0.1694   -0.1374 C   0  0  0  0  0  0  0  0  0  0  0  0
    2.5021    4.0190   -2.0269 C   0  0  0  0  0  0  0  0  0  0  0  0
    0.9930    4.0158   -1.8968 C   0  0  0  0  0  0  0  0  0  0  0  0
   -4.9531   -0.0783    0.0054 C   0  0  0  0  0  0  0  0  0  0  0  0
   -3.0645    1.4139    0.2130 C   0  0  0  0  0  0  0  0  0  0  0  0
   -5.7948    0.9184    0.4989 C   0  0  0  0  0  0  0  0  0  0  0  0
   -3.9064    2.4108    0.7062 C   0  0  0  0  0  0  0  0  0  0  0  0
   -5.2715    2.1631    0.8493 C   0  0  0  0  0  0  0  0  0  0  0  0
    1.5535    0.1323    0.5001 H   0  0  0  0  0  0  0  0  0  0  0  0
    3.7187   -1.3552    2.0670 H   0  0  0  0  0  0  0  0  0  0  0  0
    1.3595   -2.6799    1.6843 H   0  0  0  0  0  0  0  0  0  0  0  0
   -0.0202   -1.7578    1.1423 H   0  0  0  0  0  0  0  0  0  0  0  0
    0.9748   -3.5007   -0.4143 H   0  0  0  0  0  0  0  0  0  0  0  0
    2.2245    0.6459    2.9934 H   0  0  0  0  0  0  0  0  0  0  0  0
    4.7832   -1.9014   -0.2068 H   0  0  0  0  0  0  0  0  0  0  0  0
    5.2212    0.2436    0.9875 H   0  0  0  0  0  0  0  0  0  0  0  0
    3.9641    1.1233    1.8403 H   0  0  0  0  0  0  0  0  0  0  0  0
    0.7588   -2.1513   -2.4848 H   0  0  0  0  0  0  0  0  0  0  0  0
    0.9721   -0.6582   -1.5863 H   0  0  0  0  0  0  0  0  0  0  0  0
   -0.6878    0.1188    2.2368 H   0  0  0  0  0  0  0  0  0  0  0  0
    0.2482    1.5684    1.8323 H   0  0  0  0  0  0  0  0  0  0  0  0
   -0.0948    1.1761    3.5197 H   0  0  0  0  0  0  0  0  0  0  0  0
    2.2153   -1.8286    3.6704 H   0  0  0  0  0  0  0  0  0  0  0  0
    0.4380   -1.7928    3.5067 H   0  0  0  0  0  0  0  0  0  0  0  0
    1.2431   -0.7520    4.6565 H   0  0  0  0  0  0  0  0  0  0  0  0
    2.9368   -4.4417   -1.6276 H   0  0  0  0  0  0  0  0  0  0  0  0
    4.3780   -3.4576   -1.8967 H   0  0  0  0  0  0  0  0  0  0  0  0
    2.8931   -3.0851   -2.7755 H   0  0  0  0  0  0  0  0  0  0  0  0
    4.0840    0.6157   -1.1016 H   0  0  0  0  0  0  0  0  0  0  0  0
    3.3143    2.0905   -2.3932 H   0  0  0  0  0  0  0  0  0  0  0  0
    2.7949    4.2197   -3.0621 H   0  0  0  0  0  0  0  0  0  0  0  0
    2.9334    4.7967   -1.3879 H   0  0  0  0  0  0  0  0  0  0  0  0
    0.5812    4.9815   -2.2054 H   0  0  0  0  0  0  0  0  0  0  0  0
    0.6816    3.8268   -0.8641 H   0  0  0  0  0  0  0  0  0  0  0  0
    0.5478    3.2365   -2.5246 H   0  0  0  0  0  0  0  0  0  0  0  0
   -2.0070    1.6461    0.1153 H   0  0  0  0  0  0  0  0  0  0  0  0
   -6.8577    0.7253    0.6102 H   0  0  0  0  0  0  0  0  0  0  0  0
   -3.4991    3.3801    0.9791 H   0  0  0  0  0  0  0  0  0  0  0  0
   -5.9270    2.9391    1.2334 H   0  0  0  0  0  0  0  0  0  0  0  0
  1 26  1  0  0  0  0
  2 20  1  0  0  0  0
  2 22  1  0  0  0  0
  3 21  2  0  0  0  0
  4 15  1  0  0  0  0
  4 21  1  0  0  0  0
  4 51  1  0  0  0  0
  5  7  1  0  0  0  0
  5 20  2  0  0  0  0
  6 21  1  0  0  0  0
  6 24  1  0  0  0  0
  6 52  1  0  0  0  0
  7 22  2  0  0  0  0
  8  9  1  0  0  0  0
  8 10  1  0  0  0  0
  8 12  1  0  0  0  0
  8 31  1  0  0  0  0
  9 14  1  0  0  0  0
  9 15  1  0  0  0  0
  9 32  1  0  0  0  0
 10 11  1  0  0  0  0
 10 33  1  0  0  0  0
 10 34  1  0  0  0  0
 11 13  1  0  0  0  0
 11 16  1  0  0  0  0
 11 35  1  0  0  0  0
 12 17  1  0  0  0  0
 12 18  1  0  0  0  0
 12 36  1  0  0  0  0
 13 14  2  0  0  0  0
 13 19  1  0  0  0  0
 14 37  1  0  0  0  0
 15 38  1  0  0  0  0
 15 39  1  0  0  0  0
 16 20  1  0  0  0  0
 16 40  1  0  0  0  0
 16 41  1  0  0  0  0
 17 42  1  0  0  0  0
 17 43  1  0  0  0  0
 17 44  1  0  0  0  0
 18 45  1  0  0  0  0
 18 46  1  0  0  0  0
 18 47  1  0  0  0  0
 19 48  1  0  0  0  0
 19 49  1  0  0  0  0
 19 50  1  0  0  0  0
 22 23  1  0  0  0  0
 23 26  1  0  0  0  0
 23 27  2  0  0  0  0
 24 25  1  0  0  0  0
 24 53  1  0  0  0  0
 24 54  1  0  0  0  0
 25 55  1  0  0  0  0
 25 56  1  0  0  0  0
 25 57  1  0  0  0  0
 26 28  2  0  0  0  0
 27 29  1  0  0  0  0
 27 58  1  0  0  0  0
 28 30  1  0  0  0  0
 28 59  1  0  0  0  0
 29 30  2  0  0  0  0
 29 60  1  0  0  0  0
 30 61  1  0  0  0  0
M  END
> <PUBCHEM_COMPOUND_CID>
45783945

> <PUBCHEM_CONFORMER_RMSD>
1

> <PUBCHEM_CONFORMER_DIVERSEORDER>
1
18
224
111
140
114
165
242
147
174
144
104
188
91
74
72
32
135
159
98
4
150
113
65
102
186
211
194
133
227
218
125
122
163
13
152
85
166
120
66
17
58
168
170
169
172
109
136
151
97
226
185
70
63
149
134
31
200
107
103
156
49
230
44
108
248
54
11
143
89
38
41
187
222
154
47
180
207
212
126
73
148
27
138
62
128
239
189
195
175
115
64
67
61
43
84
229
6
48
160
208
94
191
118
235
236
215
141
209
167
245
164
204
105
19
59
37
46
57
233
223
130
153
198
53
210
196
9
119
92
184
206
246
28
249
197
177
214
82
182
219
78
217
90
68
88
240
176
181
205
178
24
121
155
51
81
93
171
52
45
50
55
15
29
192
225
162
112
35
69
79
201
234
83
23
161
146
87
202
33
22
71
34
110
213
8
228
129
123
190
179
173
100
232
39
137
5
25
132
36
101
193
75
237
60
30
199
117
231
7
86
21
116
131
80
241
99
10
243
16
20
183
247
12
14
142
158
124
96
145
3
2
106
42
203
238
76
95
220
26
77
244
40
216
139
221
56
127
157

> <PUBCHEM_MMFF94_PARTIAL_CHARGES>
31
1 -0.19
11 0.14
13 -0.28
14 -0.29
15 0.3
16 0.18
19 0.14
2 -0.28
20 0.3
21 0.69
22 0.43
23 0.05
24 0.3
26 0.19
27 -0.15
28 -0.15
29 -0.15
3 -0.57
30 -0.15
37 0.15
4 -0.73
5 -0.34
51 0.37
52 0.37
58 0.15
59 0.15
6 -0.73
60 0.15
61 0.15
7 -0.34
9 0.14

> <PUBCHEM_EFFECTIVE_ROTOR_COUNT>
9.8

> <PUBCHEM_PHARMACOPHORE_FEATURES>
7
1 3 acceptor
1 4 donor
1 6 donor
3 12 17 18 hydrophobe
5 2 5 7 20 22 rings
6 23 26 27 28 29 30 rings
6 8 9 10 11 13 14 rings

> <PUBCHEM_HEAVY_ATOM_COUNT>
30

> <PUBCHEM_ATOM_DEF_STEREO_COUNT>
3

> <PUBCHEM_ATOM_UDEF_STEREO_COUNT>
0

> <PUBCHEM_BOND_DEF_STEREO_COUNT>
0

> <PUBCHEM_BOND_UDEF_STEREO_COUNT>
0

> <PUBCHEM_ISOTOPIC_ATOM_COUNT>
0

> <PUBCHEM_COMPONENT_COUNT>
1

> <PUBCHEM_CACTVS_TAUTO_COUNT>
3

> <PUBCHEM_CONFORMER_ID>
02BA9B8900000001

> <PUBCHEM_MMFF94_ENERGY>
46.3278

> <PUBCHEM_FEATURE_SELFOVERLAP>
35.569

> <PUBCHEM_SHAPE_FINGERPRINT>
10483366 6 18264514861731199900
11513181 2 17703786968625127967
11578080 2 16734703912116424798
12156800 1 15263716572383743320
12166972 35 17915747466096092687
12422481 6 18124002712734118138
12596602 18 17967531286021209083
13402501 40 17630880509209697771
13583140 156 17386550372416641431
13965767 371 18196345127328209720
14289585 56 17687207299841403552
17921350 177 17610320672040470892
21033648 29 17913469274056260569
21860390 5 18113912549928549396
23559900 14 18129379311466875887
245318 6 18189909788470490917
338550 245 18342457023713364625
3493558 16 18339933691677047053
38570 142 17969520366864470444
392239 28 16950832712920871322
4409770 3 16466154411375398582
474 4 18115023129486210428
5081480 168 18199190585852676142
6287921 2 18411416241281354510
7288768 16 17172083164587008496
7808743 9 18201709699962141155

> <PUBCHEM_SHAPE_MULTIPOLES>
578.45
10.43
4.65
2.53
15.08
4.3
-1.84
2
-0.51
-4.2
3.77
-2.04
-0.04
-1.59

> <PUBCHEM_SHAPE_SELFOVERLAP>
1211.833

> <PUBCHEM_SHAPE_VOLUME>
329

> <PUBCHEM_COORDINATE_TYPE>
2
5
10

$$$$
