40777855
  -OEChem-12032416193D

 53 56  0     1  0  0  0  0  0999 V2000
    0.8151   -3.7329   -2.2517 F   0  0  0  0  0  0  0  0  0  0  0  0
   -2.6399    1.2207    0.8152 O   0  0  0  0  0  0  0  0  0  0  0  0
   -4.8534    2.1991   -1.0280 O   0  0  0  0  0  0  0  0  0  0  0  0
   -5.4048   -0.4789   -0.7232 O   0  0  0  0  0  0  0  0  0  0  0  0
   -0.3011    2.3773    0.7422 O   0  0  0  0  0  0  0  0  0  0  0  0
   -0.6219   -0.3635    2.3653 O   0  0  0  0  0  0  0  0  0  0  0  0
    1.1569    1.3089   -0.7341 N   0  0  0  0  0  0  0  0  0  0  0  0
   -2.2081   -1.5622    1.1693 N   0  0  0  0  0  0  0  0  0  0  0  0
   -2.5577    1.7729   -0.5187 C   0  0  2  0  0  0  0  0  0  0  0  0
   -3.7909    1.2766   -1.2657 C   0  0  1  0  0  0  0  0  0  0  0  0
   -4.0720   -0.0395   -0.5707 C   0  0  1  0  0  0  0  0  0  0  0  0
   -3.7460    0.3029    0.8734 C   0  0  1  0  0  0  0  0  0  0  0  0
   -1.2521    1.2963   -1.1406 C   0  0  0  0  0  0  0  0  0  0  0  0
   -3.3633   -0.9067    1.7073 C   0  0  0  0  0  0  0  0  0  0  0  0
   -0.0875    1.7198   -0.2766 C   0  0  0  0  0  0  0  0  0  0  0  0
    1.4105    0.5194   -1.9577 C   0  0  0  0  0  0  0  0  0  0  0  0
    2.9224    0.2932   -2.0632 C   0  0  0  0  0  0  0  0  0  0  0  0
    2.3952    1.5739   -0.1126 C   0  0  0  0  0  0  0  0  0  0  0  0
    3.4330    1.0040   -0.8529 C   0  0  0  0  0  0  0  0  0  0  0  0
    2.6628    2.2783    1.0521 C   0  0  0  0  0  0  0  0  0  0  0  0
    4.7549    1.1222   -0.4509 C   0  0  0  0  0  0  0  0  0  0  0  0
   -0.9089   -1.2333    1.5470 C   0  0  0  0  0  0  0  0  0  0  0  0
    3.9934    2.4028    1.4645 C   0  0  0  0  0  0  0  0  0  0  0  0
    5.0325    1.8290    0.7188 C   0  0  0  0  0  0  0  0  0  0  0  0
    0.1814   -1.9880    0.8774 C   0  0  0  0  0  0  0  0  0  0  0  0
   -0.0176   -2.5167   -0.3980 C   0  0  0  0  0  0  0  0  0  0  0  0
    1.4043   -2.1680    1.5240 C   0  0  0  0  0  0  0  0  0  0  0  0
    1.0061   -3.2253   -1.0269 C   0  0  0  0  0  0  0  0  0  0  0  0
    2.4280   -2.8769    0.8952 C   0  0  0  0  0  0  0  0  0  0  0  0
    2.2290   -3.4053   -0.3804 C   0  0  0  0  0  0  0  0  0  0  0  0
   -2.5582    2.8650   -0.4202 H   0  0  0  0  0  0  0  0  0  0  0  0
   -3.6646    1.1803   -2.3479 H   0  0  0  0  0  0  0  0  0  0  0  0
   -3.4056   -0.8108   -0.9716 H   0  0  0  0  0  0  0  0  0  0  0  0
   -4.5882    0.8139    1.3565 H   0  0  0  0  0  0  0  0  0  0  0  0
   -1.1385    1.7250   -2.1415 H   0  0  0  0  0  0  0  0  0  0  0  0
   -1.2426    0.2054   -1.2181 H   0  0  0  0  0  0  0  0  0  0  0  0
   -4.1798   -1.6352    1.7375 H   0  0  0  0  0  0  0  0  0  0  0  0
   -3.1398   -0.5955    2.7337 H   0  0  0  0  0  0  0  0  0  0  0  0
    1.0405    1.0871   -2.8193 H   0  0  0  0  0  0  0  0  0  0  0  0
    0.8567   -0.4194   -1.9222 H   0  0  0  0  0  0  0  0  0  0  0  0
   -4.6140    3.0360   -1.4615 H   0  0  0  0  0  0  0  0  0  0  0  0
   -5.5794   -0.5557   -1.6767 H   0  0  0  0  0  0  0  0  0  0  0  0
    3.3240    0.7309   -2.9823 H   0  0  0  0  0  0  0  0  0  0  0  0
    3.1654   -0.7729   -2.0283 H   0  0  0  0  0  0  0  0  0  0  0  0
   -2.3755   -2.3296    0.5274 H   0  0  0  0  0  0  0  0  0  0  0  0
    1.8853    2.7335    1.6531 H   0  0  0  0  0  0  0  0  0  0  0  0
    5.5579    0.6770   -1.0286 H   0  0  0  0  0  0  0  0  0  0  0  0
    4.2254    2.9504    2.3742 H   0  0  0  0  0  0  0  0  0  0  0  0
    6.0598    1.9361    1.0556 H   0  0  0  0  0  0  0  0  0  0  0  0
   -0.9438   -2.3762   -0.9471 H   0  0  0  0  0  0  0  0  0  0  0  0
    1.5773   -1.7658    2.5187 H   0  0  0  0  0  0  0  0  0  0  0  0
    3.3804   -3.0165    1.3982 H   0  0  0  0  0  0  0  0  0  0  0  0
    3.0262   -3.9559   -0.8708 H   0  0  0  0  0  0  0  0  0  0  0  0
  1 28  1  0  0  0  0
  2  9  1  0  0  0  0
  2 12  1  0  0  0  0
  3 10  1  0  0  0  0
  3 41  1  0  0  0  0
  4 11  1  0  0  0  0
  4 42  1  0  0  0  0
  5 15  2  0  0  0  0
  6 22  2  0  0  0  0
  7 15  1  0  0  0  0
  7 16  1  0  0  0  0
  7 18  1  0  0  0  0
  8 14  1  0  0  0  0
  8 22  1  0  0  0  0
  8 45  1  0  0  0  0
  9 10  1  0  0  0  0
  9 13  1  0  0  0  0
  9 31  1  0  0  0  0
 10 11  1  0  0  0  0
 10 32  1  0  0  0  0
 11 12  1  0  0  0  0
 11 33  1  0  0  0  0
 12 14  1  0  0  0  0
 12 34  1  0  0  0  0
 13 15  1  0  0  0  0
 13 35  1  0  0  0  0
 13 36  1  0  0  0  0
 14 37  1  0  0  0  0
 14 38  1  0  0  0  0
 16 17  1  0  0  0  0
 16 39  1  0  0  0  0
 16 40  1  0  0  0  0
 17 19  1  0  0  0  0
 17 43  1  0  0  0  0
 17 44  1  0  0  0  0
 18 19  1  0  0  0  0
 18 20  2  0  0  0  0
 19 21  2  0  0  0  0
 20 23  1  0  0  0  0
 20 46  1  0  0  0  0
 21 24  1  0  0  0  0
 21 47  1  0  0  0  0
 22 25  1  0  0  0  0
 23 24  2  0  0  0  0
 23 48  1  0  0  0  0
 24 49  1  0  0  0  0
 25 26  2  0  0  0  0
 25 27  1  0  0  0  0
 26 28  1  0  0  0  0
 26 50  1  0  0  0  0
 27 29  2  0  0  0  0
 27 51  1  0  0  0  0
 28 30  2  0  0  0  0
 29 30  1  0  0  0  0
 29 52  1  0  0  0  0
 30 53  1  0  0  0  0
M  END
> <PUBCHEM_COMPOUND_CID>
40777855

> <PUBCHEM_CONFORMER_RMSD>
1.4

> <PUBCHEM_CONFORMER_DIVERSEORDER>
1
7
21
121
94
73
18
119
116
34
85
66
59
104
81
56
67
40
15
14
8
42
28
122
50
125
96
114
25
111
49
35
97
109
3
110
47
54
83
27
5
84
88
51
39
57
13
107
89
65
61
4
17
70
105
99
76
108
98
69
106
12
60
92
53
62
55
16
45
26
100
9
120
93
77
72
71
29
95
19
38
102
30
91
20
52
74
80
79
32
43
31
2
118
78
41
46
24
113
37
48
68
112
22
58
23
90
36
64
82
11
44
75
123
103
33
63
6
10
115
87
117
86
124
101

> <PUBCHEM_MMFF94_PARTIAL_CHARGES>
41
1 -0.19
10 0.28
11 0.28
12 0.28
13 0.06
14 0.3
15 0.57
16 0.3
17 0.14
18 0.12
19 -0.14
2 -0.56
20 -0.15
21 -0.15
22 0.54
23 -0.15
24 -0.15
25 0.09
26 -0.15
27 -0.15
28 0.19
29 -0.15
3 -0.68
30 -0.15
4 -0.68
41 0.4
42 0.4
45 0.37
46 0.15
47 0.15
48 0.15
49 0.15
5 -0.57
50 0.15
51 0.15
52 0.15
53 0.15
6 -0.57
7 -0.48
8 -0.73
9 0.28

> <PUBCHEM_EFFECTIVE_ROTOR_COUNT>
8.6

> <PUBCHEM_PHARMACOPHORE_FEATURES>
12
1 2 acceptor
1 3 acceptor
1 3 donor
1 4 acceptor
1 4 donor
1 5 acceptor
1 6 acceptor
1 8 donor
5 2 9 10 11 12 rings
5 7 16 17 18 19 rings
6 18 19 20 21 23 24 rings
6 25 26 27 28 29 30 rings

> <PUBCHEM_HEAVY_ATOM_COUNT>
30

> <PUBCHEM_ATOM_DEF_STEREO_COUNT>
4

> <PUBCHEM_ATOM_UDEF_STEREO_COUNT>
0

> <PUBCHEM_BOND_DEF_STEREO_COUNT>
0

> <PUBCHEM_BOND_UDEF_STEREO_COUNT>
0

> <PUBCHEM_ISOTOPIC_ATOM_COUNT>
0

> <PUBCHEM_COMPONENT_COUNT>
1

> <PUBCHEM_CACTVS_TAUTO_COUNT>
2

> <PUBCHEM_CONFORMER_ID>
026E387F00000001

> <PUBCHEM_MMFF94_ENERGY>
85.8385

> <PUBCHEM_FEATURE_SELFOVERLAP>
61.007

> <PUBCHEM_SHAPE_FINGERPRINT>
11370993 70 18335135427450296912
11421498 54 16200160880189273315
11578080 2 16589690267862736951
12156800 1 17339236372359744978
12422481 6 18042102329137719274
12655364 131 15840455635253825588
13140716 1 17830192538219974609
133893 2 17898875464557555560
14251764 3 18341901839261248608
14955137 171 18054217740453953302
16752209 62 17969791971694734088
17980427 23 17912360931606848898
20197701 30 18338227262784724504
20567600 347 18334571347735516086
20691752 17 16588312614363575485
20905425 154 18188505604525877379
21033648 29 18270671090879470320
22182313 1 17895772716106341667
23419403 2 17680682862435300806
23559900 14 18260835865111315804
238 59 18340496581759532190
238918 7 18336271236026156418
3298306 158 18335136505328767564
3383291 50 18200877280489371478
35225 105 18122918787294784150
4093350 32 18341335488421521451
469060 322 13110140779235110294
508706 21 17603589591041406919
5265222 85 18117292556800759868
59755656 215 18259981596273954909
6287921 2 17913767223905299106
6669772 16 17343758633867482448
9862522 239 18261664995208862002

> <PUBCHEM_SHAPE_MULTIPOLES>
570.8
8.73
4.11
1.97
3.5
3.64
-0.08
-6.01
-0.18
-2.48
-0.44
-0.28
0.5
1.57

> <PUBCHEM_SHAPE_SELFOVERLAP>
1241.579

> <PUBCHEM_SHAPE_VOLUME>
312

> <PUBCHEM_COORDINATE_TYPE>
2
5
10

$$$$
