7134313
  -OEChem-12032416363D

 69 72  0     1  0  0  0  0  0999 V2000
    3.7975    3.3161   -0.3005 S   0  0  0  0  0  0  0  0  0  0  0  0
    5.0366    0.6383   -0.4190 S   0  0  0  0  0  0  0  0  0  0  0  0
    0.0960    0.2613    1.7676 O   0  0  0  0  0  0  0  0  0  0  0  0
   -3.6493    2.9615    0.8106 O   0  0  0  0  0  0  0  0  0  0  0  0
    3.4808    4.2927    0.7234 O   0  0  0  0  0  0  0  0  0  0  0  0
    4.8174    3.5735   -1.2984 O   0  0  0  0  0  0  0  0  0  0  0  0
   -5.1262    1.2928   -0.3769 O   0  0  0  0  0  0  0  0  0  0  0  0
   -3.4030   -2.6793    1.3279 O   0  0  0  0  0  0  0  0  0  0  0  0
   -8.1855   -0.1850   -1.5280 O   0  0  0  0  0  0  0  0  0  0  0  0
   -7.8246    1.5974   -0.1567 O   0  0  0  0  0  0  0  0  0  0  0  0
   -1.6123    2.0005    0.2208 N   0  0  0  0  0  0  0  0  0  0  0  0
    2.3600    2.8353   -1.0926 N   0  0  0  0  0  0  0  0  0  0  0  0
   -1.1331   -1.3205    0.5818 N   0  0  0  0  0  0  0  0  0  0  0  0
    3.2305   -3.1610    0.1689 N   0  0  0  0  0  0  0  0  0  0  0  0
   -2.3905   -3.2042    3.3219 N   0  0  0  0  0  0  0  0  0  0  0  0
    1.2428    2.3354   -0.2544 C   0  0  2  0  0  0  0  0  0  0  0  0
   -0.8484    0.8732   -0.3397 C   0  0  1  0  0  0  0  0  0  0  0  0
    0.4348    1.3099   -1.0505 C   0  0  0  0  0  0  0  0  0  0  0  0
    0.3587    3.5058    0.1643 C   0  0  0  0  0  0  0  0  0  0  0  0
   -0.8454    3.0134    0.9568 C   0  0  0  0  0  0  0  0  0  0  0  0
   -0.5729   -0.0724    0.7930 C   0  0  0  0  0  0  0  0  0  0  0  0
   -3.0096    2.0841    0.2243 C   0  0  0  0  0  0  0  0  0  0  0  0
   -0.9941   -2.4171    1.5127 C   0  0  2  0  0  0  0  0  0  0  0  0
   -3.7559    1.0287   -0.5540 C   0  0  0  0  0  0  0  0  0  0  0  0
   -0.3455   -3.6483    0.8674 C   0  0  0  0  0  0  0  0  0  0  0  0
    4.4213    1.8850    0.5807 C   0  0  0  0  0  0  0  0  0  0  0  0
    1.0261   -3.3730    0.3203 C   0  0  0  0  0  0  0  0  0  0  0  0
   -2.3893   -2.7544    2.0182 C   0  0  0  0  0  0  0  0  0  0  0  0
    1.3412   -2.9310   -0.9952 C   0  0  0  0  0  0  0  0  0  0  0  0
    4.5126    1.5676    1.9182 C   0  0  0  0  0  0  0  0  0  0  0  0
    2.2082   -3.5052    1.0120 C   0  0  0  0  0  0  0  0  0  0  0  0
    2.7305   -2.8061   -1.0637 C   0  0  0  0  0  0  0  0  0  0  0  0
    5.0956    0.2841    2.1247 C   0  0  0  0  0  0  0  0  0  0  0  0
    0.5755   -2.6245   -2.1376 C   0  0  0  0  0  0  0  0  0  0  0  0
   -5.9472    0.3548   -1.0705 C   0  0  0  0  0  0  0  0  0  0  0  0
    5.4276   -0.3307    0.9376 C   0  0  0  0  0  0  0  0  0  0  0  0
    3.3948   -2.3882   -2.2223 C   0  0  0  0  0  0  0  0  0  0  0  0
    1.2265   -2.2052   -3.3035 C   0  0  0  0  0  0  0  0  0  0  0  0
    2.6146   -2.0896   -3.3429 C   0  0  0  0  0  0  0  0  0  0  0  0
   -7.3970    0.6842   -0.8468 C   0  0  0  0  0  0  0  0  0  0  0  0
    1.6522    1.8472    0.6349 H   0  0  0  0  0  0  0  0  0  0  0  0
   -1.4552    0.3671   -1.0951 H   0  0  0  0  0  0  0  0  0  0  0  0
    0.1602    1.7500   -2.0193 H   0  0  0  0  0  0  0  0  0  0  0  0
    1.0642    0.4403   -1.2755 H   0  0  0  0  0  0  0  0  0  0  0  0
    0.0121    4.0486   -0.7251 H   0  0  0  0  0  0  0  0  0  0  0  0
    0.9165    4.2258    0.7715 H   0  0  0  0  0  0  0  0  0  0  0  0
   -1.4858    3.8708    1.1908 H   0  0  0  0  0  0  0  0  0  0  0  0
   -0.5383    2.5904    1.9182 H   0  0  0  0  0  0  0  0  0  0  0  0
    2.0692    3.3810   -1.9143 H   0  0  0  0  0  0  0  0  0  0  0  0
   -1.6940   -1.4866   -0.2484 H   0  0  0  0  0  0  0  0  0  0  0  0
   -0.3796   -2.0838    2.3581 H   0  0  0  0  0  0  0  0  0  0  0  0
   -3.5211    0.0383   -0.1561 H   0  0  0  0  0  0  0  0  0  0  0  0
   -3.4927    1.1027   -1.6140 H   0  0  0  0  0  0  0  0  0  0  0  0
   -0.2834   -4.4601    1.6042 H   0  0  0  0  0  0  0  0  0  0  0  0
   -0.9851   -4.0300    0.0603 H   0  0  0  0  0  0  0  0  0  0  0  0
    4.1770    2.2218    2.7123 H   0  0  0  0  0  0  0  0  0  0  0  0
    2.4149   -3.8120    2.0278 H   0  0  0  0  0  0  0  0  0  0  0  0
    4.2107   -3.1696    0.4143 H   0  0  0  0  0  0  0  0  0  0  0  0
   -0.5072   -2.7102   -2.1264 H   0  0  0  0  0  0  0  0  0  0  0  0
    5.2628   -0.1657    3.0947 H   0  0  0  0  0  0  0  0  0  0  0  0
   -1.5419   -3.2828    3.8731 H   0  0  0  0  0  0  0  0  0  0  0  0
   -3.2552   -3.4766    3.7774 H   0  0  0  0  0  0  0  0  0  0  0  0
   -5.7535   -0.6528   -0.6877 H   0  0  0  0  0  0  0  0  0  0  0  0
   -5.7358    0.4108   -2.1435 H   0  0  0  0  0  0  0  0  0  0  0  0
    5.8831   -1.3013    0.8020 H   0  0  0  0  0  0  0  0  0  0  0  0
    4.4755   -2.3007   -2.2552 H   0  0  0  0  0  0  0  0  0  0  0  0
    0.6409   -1.9668   -4.1875 H   0  0  0  0  0  0  0  0  0  0  0  0
    3.0996   -1.7621   -4.2589 H   0  0  0  0  0  0  0  0  0  0  0  0
   -9.1387    0.0078   -1.3997 H   0  0  0  0  0  0  0  0  0  0  0  0
  1  5  2  0  0  0  0
  1  6  2  0  0  0  0
  1 12  1  0  0  0  0
  1 26  1  0  0  0  0
  2 26  1  0  0  0  0
  2 36  1  0  0  0  0
  3 21  2  0  0  0  0
  4 22  2  0  0  0  0
  7 24  1  0  0  0  0
  7 35  1  0  0  0  0
  8 28  2  0  0  0  0
  9 40  1  0  0  0  0
  9 69  1  0  0  0  0
 10 40  2  0  0  0  0
 11 17  1  0  0  0  0
 11 20  1  0  0  0  0
 11 22  1  0  0  0  0
 12 16  1  0  0  0  0
 12 49  1  0  0  0  0
 13 21  1  0  0  0  0
 13 23  1  0  0  0  0
 13 50  1  0  0  0  0
 14 31  1  0  0  0  0
 14 32  1  0  0  0  0
 14 58  1  0  0  0  0
 15 28  1  0  0  0  0
 15 61  1  0  0  0  0
 15 62  1  0  0  0  0
 16 18  1  0  0  0  0
 16 19  1  0  0  0  0
 16 41  1  0  0  0  0
 17 18  1  0  0  0  0
 17 21  1  0  0  0  0
 17 42  1  0  0  0  0
 18 43  1  0  0  0  0
 18 44  1  0  0  0  0
 19 20  1  0  0  0  0
 19 45  1  0  0  0  0
 19 46  1  0  0  0  0
 20 47  1  0  0  0  0
 20 48  1  0  0  0  0
 22 24  1  0  0  0  0
 23 25  1  0  0  0  0
 23 28  1  0  0  0  0
 23 51  1  0  0  0  0
 24 52  1  0  0  0  0
 24 53  1  0  0  0  0
 25 27  1  0  0  0  0
 25 54  1  0  0  0  0
 25 55  1  0  0  0  0
 26 30  2  0  0  0  0
 27 29  1  0  0  0  0
 27 31  2  0  0  0  0
 29 32  1  0  0  0  0
 29 34  2  0  0  0  0
 30 33  1  0  0  0  0
 30 56  1  0  0  0  0
 31 57  1  0  0  0  0
 32 37  2  0  0  0  0
 33 36  2  0  0  0  0
 33 60  1  0  0  0  0
 34 38  1  0  0  0  0
 34 59  1  0  0  0  0
 35 40  1  0  0  0  0
 35 63  1  0  0  0  0
 35 64  1  0  0  0  0
 36 65  1  0  0  0  0
 37 39  1  0  0  0  0
 37 66  1  0  0  0  0
 38 39  2  0  0  0  0
 38 67  1  0  0  0  0
 39 68  1  0  0  0  0
M  END
> <PUBCHEM_COMPOUND_CID>
7134313

> <PUBCHEM_CONFORMER_RMSD>
1.4

> <PUBCHEM_CONFORMER_DIVERSEORDER>
1
58
15
60
28
41
20
40
39
50
64
70
62
3
38
51
37
46
42
52
65
61
54
9
45
21
30
63
7
36
49
24
53
56
68
47
10
55
11
33
31
22
25
59
57
17
43
19
48
13
44
29
69
34
27
66
12
8
35
16
4
67
5
32
14
18
23
2
26
6

> <PUBCHEM_MMFF94_PARTIAL_CHARGES>
51
1 1.5
10 -0.57
11 -0.66
12 -0.91
13 -0.73
14 0.03
15 -0.8
16 0.36
17 0.36
2 -0.08
20 0.3
21 0.57
22 0.57
23 0.36
24 0.34
25 0.18
26 -0.02
27 -0.18
28 0.57
3 -0.57
30 -0.15
31 -0.3
32 -0.15
33 -0.15
34 -0.15
35 0.34
36 -0.11
37 -0.15
38 -0.15
39 -0.15
4 -0.57
40 0.66
49 0.42
5 -0.65
50 0.37
56 0.15
57 0.15
58 0.27
59 0.15
6 -0.65
60 0.15
61 0.37
62 0.37
65 0.15
66 0.15
67 0.15
68 0.15
69 0.5
7 -0.56
8 -0.57
9 -0.65

> <PUBCHEM_EFFECTIVE_ROTOR_COUNT>
15.2

> <PUBCHEM_PHARMACOPHORE_FEATURES>
18
1 10 acceptor
1 12 donor
1 13 donor
1 14 cation
1 14 donor
1 15 donor
1 3 acceptor
1 4 acceptor
1 5 acceptor
1 6 acceptor
1 7 acceptor
1 8 acceptor
1 9 acceptor
3 9 10 40 anion
5 14 27 29 31 32 rings
5 2 26 30 33 36 rings
6 11 16 17 18 19 20 rings
6 29 32 34 37 38 39 rings

> <PUBCHEM_HEAVY_ATOM_COUNT>
40

> <PUBCHEM_ATOM_DEF_STEREO_COUNT>
3

> <PUBCHEM_ATOM_UDEF_STEREO_COUNT>
0

> <PUBCHEM_BOND_DEF_STEREO_COUNT>
0

> <PUBCHEM_BOND_UDEF_STEREO_COUNT>
0

> <PUBCHEM_ISOTOPIC_ATOM_COUNT>
0

> <PUBCHEM_COMPONENT_COUNT>
1

> <PUBCHEM_CACTVS_TAUTO_COUNT>
4

> <PUBCHEM_CONFORMER_ID>
006CDC6900000001

> <PUBCHEM_MMFF94_ENERGY>
69.7463

> <PUBCHEM_FEATURE_SELFOVERLAP>
91.542

> <PUBCHEM_SHAPE_FINGERPRINT>
12156800 1 18042711505882636782
12422481 6 18194704749936189794
12522641 33 18410007754276059037
12597179 24 18337677524166666653
12788726 201 17765985483116725812
1361 2 18201435857115591270
13692114 37 18267569373098373203
14114206 34 16825033447951060140
14725015 67 18338224965488989256
15484559 13 18340768230078351940
15721738 202 17417808375392379695
15775530 1 18265640760635845195
20028762 73 18343577447495207117
20764821 26 18047213881533686970
20775438 99 18412542102956283959
3298306 158 18341617078660696422
35225 105 17630053900141357044
4093350 32 17774723061451758127
6669772 16 18334858333651152935

> <PUBCHEM_SHAPE_MULTIPOLES>
759.02
13.42
6.19
2.58
26.13
0.28
-0.62
-8.16
-2.25
-4.31
0.51
-1.14
2.88
2.44

> <PUBCHEM_SHAPE_SELFOVERLAP>
1587.356

> <PUBCHEM_SHAPE_VOLUME>
429

> <PUBCHEM_COORDINATE_TYPE>
2
5
10

$$$$
