38026677
  -OEChem-12032416273D

 56 58  0     1  0  0  0  0  0999 V2000
    7.4599   -1.3052   -1.1621 F   0  0  0  0  0  0  0  0  0  0  0  0
    7.4776   -1.3739    1.0111 F   0  0  0  0  0  0  0  0  0  0  0  0
    7.4900    0.5394   -0.0219 F   0  0  0  0  0  0  0  0  0  0  0  0
   -0.7492    2.6649    0.4960 O   0  0  0  0  0  0  0  0  0  0  0  0
   -3.0286    2.8318   -1.4392 O   0  0  0  0  0  0  0  0  0  0  0  0
   -0.1426    5.3899    0.1628 O   0  0  0  0  0  0  0  0  0  0  0  0
    0.5765   -1.5819    0.6430 O   0  0  0  0  0  0  0  0  0  0  0  0
   -3.7356    0.5563    0.1559 N   0  0  1  0  0  0  0  0  0  0  0  0
    0.5474    0.3909   -0.5782 N   0  0  0  0  0  0  0  0  0  0  0  0
   -2.8788    1.6144    0.6618 C   0  0  1  0  0  0  0  0  0  0  0  0
   -1.3680    1.3616    0.5782 C   0  0  1  0  0  0  0  0  0  0  0  0
   -3.0393    2.9626   -0.0235 C   0  0  1  0  0  0  0  0  0  0  0  0
   -1.7779    3.6725    0.4538 C   0  0  2  0  0  0  0  0  0  0  0  0
   -0.8754    0.5514   -0.6157 C   0  0  0  0  0  0  0  0  0  0  0  0
   -1.3114    4.8283   -0.4123 C   0  0  0  0  0  0  0  0  0  0  0  0
   -3.8177   -0.5515    1.1131 C   0  0  0  0  0  0  0  0  0  0  0  0
   -5.0784    1.0672   -0.1372 C   0  0  0  0  0  0  0  0  0  0  0  0
   -4.2722   -1.8277    0.4562 C   0  0  0  0  0  0  0  0  0  0  0  0
    1.1706   -0.6800    0.0582 C   0  0  0  0  0  0  0  0  0  0  0  0
   -5.6319   -2.1311    0.3869 C   0  0  0  0  0  0  0  0  0  0  0  0
   -3.3332   -2.7068   -0.0832 C   0  0  0  0  0  0  0  0  0  0  0  0
    2.6558   -0.6881    0.0301 C   0  0  0  0  0  0  0  0  0  0  0  0
   -6.0527   -3.3135   -0.2217 C   0  0  0  0  0  0  0  0  0  0  0  0
   -3.7539   -3.8892   -0.6919 C   0  0  0  0  0  0  0  0  0  0  0  0
   -5.1136   -4.1926   -0.7611 C   0  0  0  0  0  0  0  0  0  0  0  0
    3.3696   -1.3267    1.0442 C   0  0  0  0  0  0  0  0  0  0  0  0
    3.3367   -0.0563   -1.0106 C   0  0  0  0  0  0  0  0  0  0  0  0
    4.7641   -1.3335    1.0178 C   0  0  0  0  0  0  0  0  0  0  0  0
    4.7312   -0.0629   -1.0370 C   0  0  0  0  0  0  0  0  0  0  0  0
    5.4449   -0.7015   -0.0229 C   0  0  0  0  0  0  0  0  0  0  0  0
    6.9362   -0.7088   -0.0507 C   0  0  0  0  0  0  0  0  0  0  0  0
   -3.1184    1.7961    1.7222 H   0  0  0  0  0  0  0  0  0  0  0  0
   -1.0172    0.8907    1.5048 H   0  0  0  0  0  0  0  0  0  0  0  0
   -3.9433    3.5045    0.2744 H   0  0  0  0  0  0  0  0  0  0  0  0
   -1.9035    4.0127    1.4898 H   0  0  0  0  0  0  0  0  0  0  0  0
   -1.0962    1.0636   -1.5575 H   0  0  0  0  0  0  0  0  0  0  0  0
   -1.3375   -0.4373   -0.6463 H   0  0  0  0  0  0  0  0  0  0  0  0
   -2.0802    5.6039   -0.4806 H   0  0  0  0  0  0  0  0  0  0  0  0
   -1.0419    4.4900   -1.4178 H   0  0  0  0  0  0  0  0  0  0  0  0
   -2.8339   -0.7538    1.5581 H   0  0  0  0  0  0  0  0  0  0  0  0
   -4.4676   -0.3077    1.9653 H   0  0  0  0  0  0  0  0  0  0  0  0
   -5.5674    1.4788    0.7539 H   0  0  0  0  0  0  0  0  0  0  0  0
   -5.0916    1.8302   -0.9194 H   0  0  0  0  0  0  0  0  0  0  0  0
   -5.7256    0.2895   -0.5502 H   0  0  0  0  0  0  0  0  0  0  0  0
   -3.2396    3.7025   -1.8167 H   0  0  0  0  0  0  0  0  0  0  0  0
    1.0998    1.1395   -0.9822 H   0  0  0  0  0  0  0  0  0  0  0  0
    0.1315    6.1277   -0.4081 H   0  0  0  0  0  0  0  0  0  0  0  0
   -6.3763   -1.4682    0.8198 H   0  0  0  0  0  0  0  0  0  0  0  0
   -2.2704   -2.4906   -0.0305 H   0  0  0  0  0  0  0  0  0  0  0  0
   -7.1111   -3.5522   -0.2714 H   0  0  0  0  0  0  0  0  0  0  0  0
   -3.0227   -4.5748   -1.1100 H   0  0  0  0  0  0  0  0  0  0  0  0
   -5.4411   -5.1141   -1.2336 H   0  0  0  0  0  0  0  0  0  0  0  0
    2.8573   -1.8204    1.8658 H   0  0  0  0  0  0  0  0  0  0  0  0
    2.8196    0.4255   -1.8349 H   0  0  0  0  0  0  0  0  0  0  0  0
    5.3013   -1.8355    1.8177 H   0  0  0  0  0  0  0  0  0  0  0  0
    5.2534    0.4262   -1.8551 H   0  0  0  0  0  0  0  0  0  0  0  0
  1 31  1  0  0  0  0
  2 31  1  0  0  0  0
  3 31  1  0  0  0  0
  4 11  1  0  0  0  0
  4 13  1  0  0  0  0
  5 12  1  0  0  0  0
  5 45  1  0  0  0  0
  6 15  1  0  0  0  0
  6 47  1  0  0  0  0
  7 19  2  0  0  0  0
  8 10  1  0  0  0  0
  8 16  1  0  0  0  0
  8 17  1  0  0  0  0
  9 14  1  0  0  0  0
  9 19  1  0  0  0  0
  9 46  1  0  0  0  0
 10 11  1  0  0  0  0
 10 12  1  0  0  0  0
 10 32  1  0  0  0  0
 11 14  1  0  0  0  0
 11 33  1  0  0  0  0
 12 13  1  0  0  0  0
 12 34  1  0  0  0  0
 13 15  1  0  0  0  0
 13 35  1  0  0  0  0
 14 36  1  0  0  0  0
 14 37  1  0  0  0  0
 15 38  1  0  0  0  0
 15 39  1  0  0  0  0
 16 18  1  0  0  0  0
 16 40  1  0  0  0  0
 16 41  1  0  0  0  0
 17 42  1  0  0  0  0
 17 43  1  0  0  0  0
 17 44  1  0  0  0  0
 18 20  2  0  0  0  0
 18 21  1  0  0  0  0
 19 22  1  0  0  0  0
 20 23  1  0  0  0  0
 20 48  1  0  0  0  0
 21 24  2  0  0  0  0
 21 49  1  0  0  0  0
 22 26  2  0  0  0  0
 22 27  1  0  0  0  0
 23 25  2  0  0  0  0
 23 50  1  0  0  0  0
 24 25  1  0  0  0  0
 24 51  1  0  0  0  0
 25 52  1  0  0  0  0
 26 28  1  0  0  0  0
 26 53  1  0  0  0  0
 27 29  2  0  0  0  0
 27 54  1  0  0  0  0
 28 30  2  0  0  0  0
 28 55  1  0  0  0  0
 29 30  1  0  0  0  0
 29 56  1  0  0  0  0
 30 31  1  0  0  0  0
M  END
> <PUBCHEM_COMPOUND_CID>
38026677

> <PUBCHEM_CONFORMER_RMSD>
1

> <PUBCHEM_CONFORMER_DIVERSEORDER>
1
33
30
36
28
8
45
34
46
42
10
19
25
47
12
24
50
48
9
21
43
3
13
31
20
53
44
16
6
7
11
32
41
23
26
17
38
15
4
18
22
52
39
5
27
51
37
29
14
35
40
49
2

> <PUBCHEM_MMFF94_PARTIAL_CHARGES>
43
1 -0.34
10 0.27
11 0.28
12 0.28
13 0.28
14 0.3
15 0.28
16 0.41
17 0.27
18 -0.14
19 0.54
2 -0.34
20 -0.15
21 -0.15
22 0.09
23 -0.15
24 -0.15
25 -0.15
26 -0.15
27 -0.15
28 -0.15
29 -0.15
3 -0.34
30 -0.14
31 1.16
4 -0.56
45 0.4
46 0.37
47 0.4
48 0.15
49 0.15
5 -0.68
50 0.15
51 0.15
52 0.15
53 0.15
54 0.15
55 0.15
56 0.15
6 -0.68
7 -0.57
8 -0.81
9 -0.73

> <PUBCHEM_EFFECTIVE_ROTOR_COUNT>
10

> <PUBCHEM_PHARMACOPHORE_FEATURES>
11
1 4 acceptor
1 5 acceptor
1 5 donor
1 6 acceptor
1 6 donor
1 7 acceptor
1 8 cation
1 9 donor
5 4 10 11 12 13 rings
6 18 20 21 23 24 25 rings
6 22 26 27 28 29 30 rings

> <PUBCHEM_HEAVY_ATOM_COUNT>
31

> <PUBCHEM_ATOM_DEF_STEREO_COUNT>
4

> <PUBCHEM_ATOM_UDEF_STEREO_COUNT>
0

> <PUBCHEM_BOND_DEF_STEREO_COUNT>
0

> <PUBCHEM_BOND_UDEF_STEREO_COUNT>
0

> <PUBCHEM_ISOTOPIC_ATOM_COUNT>
0

> <PUBCHEM_COMPONENT_COUNT>
1

> <PUBCHEM_CACTVS_TAUTO_COUNT>
2

> <PUBCHEM_CONFORMER_ID>
02443DB500000001

> <PUBCHEM_MMFF94_ENERGY>
82.0104

> <PUBCHEM_FEATURE_SELFOVERLAP>
55.826

> <PUBCHEM_SHAPE_FINGERPRINT>
100830 39 18338234861151544240
10290309 65 17834965174430285961
10319688 45 18411418419146446849
10411042 1 18339080522848024427
10483366 6 18338218411980910023
10622 236 17896301567592668843
11056379 131 18339368456801134831
11315621 246 18340496577401268270
12107183 9 17251454289413657114
12788726 201 18333444339833353827
13631057 29 18409446990165462091
13782708 43 17846782888931124870
14068700 675 18334295408961139708
14114206 34 17749377201160331323
14117953 113 18343584067047301431
14394314 77 18409733959085774715
14674994 50 17417231239826495407
14844126 61 18335989684040370985
14856354 85 18339367460395979822
15400415 2 17618221707154107936
15419008 47 18060135470626044338
15461852 350 18411145736643180414
15876981 60 18334300876744762245
16087824 20 18338234861679506657
16114785 44 17699863830361851041
17686467 74 18269834392942851650
18608769 82 18413668020216276322
20511986 3 17532083908500884305
20771845 35 17843104051783310961
2132832 1 18113904900491361148
21796203 349 17975451136826849243
22956985 138 18051408771359288649
23559900 14 18410567392577787801
255183 313 18126025797050038433
3504750 166 18263073337019745654
397830 11 18059001891760969642
4015057 19 15068918489370858068
4280585 95 18411698820518288601
4409770 3 18335414618242793741
469060 322 18341628022253529307
5171179 24 18268705194353692297
6673363 416 18339937004368990012
6700243 42 17914086198520981972

> <PUBCHEM_SHAPE_MULTIPOLES>
582.7
17.63
5.95
1.02
30.95
6.32
-0.04
-17.52
-0.56
-10.43
-0.81
0.39
-0.12
-0.9

> <PUBCHEM_SHAPE_SELFOVERLAP>
1239

> <PUBCHEM_SHAPE_VOLUME>
325.6

> <PUBCHEM_COORDINATE_TYPE>
2
5
10

$$$$
