7156248
  -OEChem-12032416113D

 51 53  0     1  0  0  0  0  0999 V2000
   -5.8498   -1.2910   -0.1373 S   0  0  0  0  0  0  0  0  0  0  0  0
   -1.1363    1.3449   -2.1340 O   0  0  0  0  0  0  0  0  0  0  0  0
    2.7010   -2.2431   -1.0946 O   0  0  0  0  0  0  0  0  0  0  0  0
    0.7534   -3.7382   -0.0403 O   0  0  0  0  0  0  0  0  0  0  0  0
   -3.7462    0.0335    1.7242 O   0  0  0  0  0  0  0  0  0  0  0  0
    3.0666   -0.2775    0.0893 N   0  0  0  0  0  0  0  0  0  0  0  0
    0.5813    1.6215   -0.5740 N   0  0  0  0  0  0  0  0  0  0  0  0
   -3.0747    1.1721   -0.1941 N   0  0  0  0  0  0  0  0  0  0  0  0
    3.0422    1.8334   -1.2464 C   0  0  1  0  0  0  0  0  0  0  0  0
    2.4173    1.8870    1.1312 C   0  0  2  0  0  0  0  0  0  0  0  0
    3.1802    2.6367    0.0411 C   0  0  0  0  0  0  0  0  0  0  0  0
    3.6290    0.4224   -1.0673 C   0  0  0  0  0  0  0  0  0  0  0  0
    1.5640    1.7956   -1.6518 C   0  0  0  0  0  0  0  0  0  0  0  0
    3.0475    0.4960    1.3398 C   0  0  0  0  0  0  0  0  0  0  0  0
    0.9513    1.7390    0.7695 C   0  0  0  0  0  0  0  0  0  0  0  0
    0.0173    1.6921    1.7344 C   0  0  0  0  0  0  0  0  0  0  0  0
   -0.7604    1.4361   -0.9645 C   0  0  0  0  0  0  0  0  0  0  0  0
    2.6775   -1.6113   -0.0352 C   0  0  0  0  0  0  0  0  0  0  0  0
   -1.7670    1.3643    0.1417 C   0  0  0  0  0  0  0  0  0  0  0  0
   -1.3681    1.4996    1.4109 C   0  0  0  0  0  0  0  0  0  0  0  0
    2.1959   -2.2945    1.2196 C   0  0  0  0  0  0  0  0  0  0  0  0
    1.8176   -3.7255    0.9030 C   0  0  0  0  0  0  0  0  0  0  0  0
   -3.9898    0.5227    0.6220 C   0  0  0  0  0  0  0  0  0  0  0  0
   -5.3690    0.4467    0.0095 C   0  0  0  0  0  0  0  0  0  0  0  0
    0.3522   -5.0645   -0.3550 C   0  0  0  0  0  0  0  0  0  0  0  0
   -4.9329   -1.6978   -1.6419 C   0  0  0  0  0  0  0  0  0  0  0  0
    3.6054    2.3259   -2.0487 H   0  0  0  0  0  0  0  0  0  0  0  0
    2.5124    2.4539    2.0665 H   0  0  0  0  0  0  0  0  0  0  0  0
    4.2368    2.7427    0.3156 H   0  0  0  0  0  0  0  0  0  0  0  0
    2.7786    3.6493   -0.0897 H   0  0  0  0  0  0  0  0  0  0  0  0
    4.7106    0.4903   -0.8959 H   0  0  0  0  0  0  0  0  0  0  0  0
    3.4881   -0.1643   -1.9813 H   0  0  0  0  0  0  0  0  0  0  0  0
    1.3926    1.0211   -2.4100 H   0  0  0  0  0  0  0  0  0  0  0  0
    1.3080    2.7496   -2.1328 H   0  0  0  0  0  0  0  0  0  0  0  0
    2.5260   -0.0353    2.1391 H   0  0  0  0  0  0  0  0  0  0  0  0
    4.0915    0.6014    1.6602 H   0  0  0  0  0  0  0  0  0  0  0  0
    0.2805    1.7736    2.7839 H   0  0  0  0  0  0  0  0  0  0  0  0
   -2.0424    1.5144    2.2589 H   0  0  0  0  0  0  0  0  0  0  0  0
    1.3124   -1.7604    1.5860 H   0  0  0  0  0  0  0  0  0  0  0  0
    2.9863   -2.2751    1.9761 H   0  0  0  0  0  0  0  0  0  0  0  0
    1.4899   -4.2227    1.8235 H   0  0  0  0  0  0  0  0  0  0  0  0
    2.6763   -4.2775    0.5010 H   0  0  0  0  0  0  0  0  0  0  0  0
   -3.3195    1.3161   -1.1706 H   0  0  0  0  0  0  0  0  0  0  0  0
   -6.0627    0.9518    0.6892 H   0  0  0  0  0  0  0  0  0  0  0  0
   -5.4320    0.9496   -0.9597 H   0  0  0  0  0  0  0  0  0  0  0  0
    1.1819   -5.6201   -0.8026 H   0  0  0  0  0  0  0  0  0  0  0  0
   -0.0076   -5.5797    0.5409 H   0  0  0  0  0  0  0  0  0  0  0  0
   -0.4647   -5.0139   -1.0798 H   0  0  0  0  0  0  0  0  0  0  0  0
   -5.1325   -2.7384   -1.9118 H   0  0  0  0  0  0  0  0  0  0  0  0
   -3.8577   -1.5848   -1.4816 H   0  0  0  0  0  0  0  0  0  0  0  0
   -5.2520   -1.0594   -2.4698 H   0  0  0  0  0  0  0  0  0  0  0  0
  1 24  1  0  0  0  0
  1 26  1  0  0  0  0
  2 17  2  0  0  0  0
  3 18  2  0  0  0  0
  4 22  1  0  0  0  0
  4 25  1  0  0  0  0
  5 23  2  0  0  0  0
  6 12  1  0  0  0  0
  6 14  1  0  0  0  0
  6 18  1  0  0  0  0
  7 13  1  0  0  0  0
  7 15  1  0  0  0  0
  7 17  1  0  0  0  0
  8 19  1  0  0  0  0
  8 23  1  0  0  0  0
  8 43  1  0  0  0  0
  9 11  1  0  0  0  0
  9 12  1  0  0  0  0
  9 13  1  0  0  0  0
  9 27  1  0  0  0  0
 10 11  1  0  0  0  0
 10 14  1  0  0  0  0
 10 15  1  0  0  0  0
 10 28  1  0  0  0  0
 11 29  1  0  0  0  0
 11 30  1  0  0  0  0
 12 31  1  0  0  0  0
 12 32  1  0  0  0  0
 13 33  1  0  0  0  0
 13 34  1  0  0  0  0
 14 35  1  0  0  0  0
 14 36  1  0  0  0  0
 15 16  2  0  0  0  0
 16 20  1  0  0  0  0
 16 37  1  0  0  0  0
 17 19  1  0  0  0  0
 18 21  1  0  0  0  0
 19 20  2  0  0  0  0
 20 38  1  0  0  0  0
 21 22  1  0  0  0  0
 21 39  1  0  0  0  0
 21 40  1  0  0  0  0
 22 41  1  0  0  0  0
 22 42  1  0  0  0  0
 23 24  1  0  0  0  0
 24 44  1  0  0  0  0
 24 45  1  0  0  0  0
 25 46  1  0  0  0  0
 25 47  1  0  0  0  0
 25 48  1  0  0  0  0
 26 49  1  0  0  0  0
 26 50  1  0  0  0  0
 26 51  1  0  0  0  0
M  END
> <PUBCHEM_COMPOUND_CID>
7156248

> <PUBCHEM_CONFORMER_RMSD>
1

> <PUBCHEM_CONFORMER_DIVERSEORDER>
1
21
19
14
6
18
22
5
7
24
17
10
25
13
23
20
11
16
2
26
12
27
9
28
8
3
15
4

> <PUBCHEM_MMFF94_PARTIAL_CHARGES>
27
1 -0.46
10 0.14
12 0.3
13 0.3
14 0.3
15 -0.03
16 -0.15
17 0.62
18 0.57
19 0.12
2 -0.57
20 -0.15
21 0.06
22 0.28
23 0.57
24 0.29
25 0.28
26 0.23
3 -0.57
37 0.15
38 0.15
4 -0.56
43 0.37
5 -0.57
6 -0.66
7 -0.47
8 -0.54

> <PUBCHEM_EFFECTIVE_ROTOR_COUNT>
9

> <PUBCHEM_PHARMACOPHORE_FEATURES>
9
1 2 acceptor
1 26 hydrophobe
1 3 acceptor
1 4 acceptor
1 5 acceptor
1 8 donor
6 6 9 10 11 12 14 rings
6 7 15 16 17 19 20 rings
6 7 9 10 11 13 15 rings

> <PUBCHEM_HEAVY_ATOM_COUNT>
26

> <PUBCHEM_ATOM_DEF_STEREO_COUNT>
2

> <PUBCHEM_ATOM_UDEF_STEREO_COUNT>
0

> <PUBCHEM_BOND_DEF_STEREO_COUNT>
0

> <PUBCHEM_BOND_UDEF_STEREO_COUNT>
0

> <PUBCHEM_ISOTOPIC_ATOM_COUNT>
0

> <PUBCHEM_COMPONENT_COUNT>
1

> <PUBCHEM_CACTVS_TAUTO_COUNT>
2

> <PUBCHEM_CONFORMER_ID>
006D321800000001

> <PUBCHEM_MMFF94_ENERGY>
67.509

> <PUBCHEM_FEATURE_SELFOVERLAP>
47.241

> <PUBCHEM_SHAPE_FINGERPRINT>
10064457 181 18267589189871871752
11796584 16 18202570562296572053
12156800 1 17549512542433347074
12596602 18 17346598612240960289
13150687 139 17898313812254490388
13533116 47 18341616993294380161
13583140 156 17988062444871679281
14659021 117 16388445331808004434
14863182 85 18411981347667035200
15537594 2 18200885079759057719
15664445 248 17168157723096875500
17134984 74 18195512909027702119
17138139 8 17914606413660655215
17492 54 17824292378668882238
20028762 73 18272369742150346822
20645477 70 18040156236190087281
20775530 9 17902519181367341723
21285901 2 17530680992341880845
21304253 335 11891332101248659796
21315764 371 18130504236146876939
21344244 181 18127718001264176542
21421861 104 18055658134824155593
21860390 5 15937261151676328356
235170 7 17603860118336312991
23559900 14 18264483984298847193
238 59 18335435555591072850
25222932 49 17702091672614953621
3052486 1 17902789996440522906
3060560 45 18113911489340620316
4340502 62 18199183061075916544
463206 1 18341612668025137475
6433294 58 18411134697955088107
7970288 3 17914060798000464702

> <PUBCHEM_SHAPE_MULTIPOLES>
500.5
9.36
4.71
1.71
16.52
8.42
-0.16
0.5
-1.14
-3.15
0.02
-0.05
-0.56
-1.07

> <PUBCHEM_SHAPE_SELFOVERLAP>
1036.264

> <PUBCHEM_SHAPE_VOLUME>
286.9

> <PUBCHEM_COORDINATE_TYPE>
2
5
10

$$$$
