28960039
  -OEChem-12032416273D

 70 73  0     1  0  0  0  0  0999 V2000
    2.7176   -2.9032   -1.9419 O   0  0  0  0  0  0  0  0  0  0  0  0
    5.1702    4.8449   -0.3327 O   0  0  0  0  0  0  0  0  0  0  0  0
    6.3809    2.9216   -0.2060 O   0  0  0  0  0  0  0  0  0  0  0  0
    3.2381   -1.3766   -0.2697 N   0  0  0  0  0  0  0  0  0  0  0  0
   -0.9083    1.3776    0.7164 N   0  0  0  0  0  0  0  0  0  0  0  0
   -3.7015    1.0927    0.1909 N   0  0  0  0  0  0  0  0  0  0  0  0
   -5.3887    1.1205   -1.4693 N   0  0  0  0  0  0  0  0  0  0  0  0
    2.8373    0.7538    0.9441 C   0  0  2  0  0  0  0  0  0  0  0  0
    4.0565    1.3614    0.2045 C   0  0  1  0  0  0  0  0  0  0  0  0
    2.9968   -0.7739    1.0473 C   0  0  0  0  0  0  0  0  0  0  0  0
    4.3026    0.6669   -1.1455 C   0  0  0  0  0  0  0  0  0  0  0  0
    1.4854    1.1067    0.3114 C   0  0  0  0  0  0  0  0  0  0  0  0
    4.4019   -0.8474   -0.9803 C   0  0  0  0  0  0  0  0  0  0  0  0
    1.3011   -2.8807   -0.0543 C   0  0  0  0  0  0  0  0  0  0  0  0
    3.9545    2.8755    0.0211 C   0  0  0  0  0  0  0  0  0  0  0  0
    0.3711    1.0549    1.3469 C   0  0  0  0  0  0  0  0  0  0  0  0
    2.4778   -2.3952   -0.8435 C   0  0  0  0  0  0  0  0  0  0  0  0
    0.1963   -3.3494   -1.0023 C   0  0  0  0  0  0  0  0  0  0  0  0
    1.7505   -4.0037    0.8821 C   0  0  0  0  0  0  0  0  0  0  0  0
   -0.9809   -3.9486   -0.2371 C   0  0  0  0  0  0  0  0  0  0  0  0
    0.5717   -4.6050    1.6430 C   0  0  0  0  0  0  0  0  0  0  0  0
   -0.5320   -5.0693    0.6966 C   0  0  0  0  0  0  0  0  0  0  0  0
   -1.8982    1.7647    1.7287 C   0  0  0  0  0  0  0  0  0  0  0  0
   -1.4053    0.2320   -0.0557 C   0  0  0  0  0  0  0  0  0  0  0  0
    5.3065    3.5026   -0.1794 C   0  0  0  0  0  0  0  0  0  0  0  0
   -3.2261    2.1593    1.0774 C   0  0  0  0  0  0  0  0  0  0  0  0
   -2.7159    0.5763   -0.7670 C   0  0  0  0  0  0  0  0  0  0  0  0
   -5.0543    1.0351   -0.1621 C   0  0  0  0  0  0  0  0  0  0  0  0
   -5.9724    0.8932    0.8659 C   0  0  0  0  0  0  0  0  0  0  0  0
   -7.3207    0.8347    0.5306 C   0  0  0  0  0  0  0  0  0  0  0  0
   -6.7084    1.0600   -1.7566 C   0  0  0  0  0  0  0  0  0  0  0  0
   -7.7040    0.9188   -0.8034 C   0  0  0  0  0  0  0  0  0  0  0  0
    2.8562    1.1587    1.9657 H   0  0  0  0  0  0  0  0  0  0  0  0
    4.9300    1.1489    0.8389 H   0  0  0  0  0  0  0  0  0  0  0  0
    3.8894   -0.9978    1.6470 H   0  0  0  0  0  0  0  0  0  0  0  0
    2.1713   -1.2187    1.5986 H   0  0  0  0  0  0  0  0  0  0  0  0
    5.2220    1.0332   -1.6149 H   0  0  0  0  0  0  0  0  0  0  0  0
    3.4806    0.8982   -1.8350 H   0  0  0  0  0  0  0  0  0  0  0  0
    1.2945    0.4486   -0.5410 H   0  0  0  0  0  0  0  0  0  0  0  0
    1.5009    2.1235   -0.0953 H   0  0  0  0  0  0  0  0  0  0  0  0
    4.5066   -1.3183   -1.9629 H   0  0  0  0  0  0  0  0  0  0  0  0
    5.2911   -1.1116   -0.3958 H   0  0  0  0  0  0  0  0  0  0  0  0
    0.8474   -2.0687    0.5176 H   0  0  0  0  0  0  0  0  0  0  0  0
    3.3316    3.1291   -0.8437 H   0  0  0  0  0  0  0  0  0  0  0  0
    3.5216    3.3293    0.9205 H   0  0  0  0  0  0  0  0  0  0  0  0
    0.6018    1.8044    2.1157 H   0  0  0  0  0  0  0  0  0  0  0  0
    0.3277    0.0859    1.8580 H   0  0  0  0  0  0  0  0  0  0  0  0
    0.5766   -4.1091   -1.6978 H   0  0  0  0  0  0  0  0  0  0  0  0
   -0.1539   -2.5129   -1.6193 H   0  0  0  0  0  0  0  0  0  0  0  0
    2.4936   -3.6360    1.5993 H   0  0  0  0  0  0  0  0  0  0  0  0
    2.2488   -4.7948    0.3059 H   0  0  0  0  0  0  0  0  0  0  0  0
   -1.7230   -4.3341   -0.9453 H   0  0  0  0  0  0  0  0  0  0  0  0
   -1.4759   -3.1638    0.3473 H   0  0  0  0  0  0  0  0  0  0  0  0
    0.1671   -3.8575    2.3365 H   0  0  0  0  0  0  0  0  0  0  0  0
    0.9166   -5.4499    2.2496 H   0  0  0  0  0  0  0  0  0  0  0  0
   -1.3881   -5.4303    1.2776 H   0  0  0  0  0  0  0  0  0  0  0  0
   -0.1692   -5.9164    0.1015 H   0  0  0  0  0  0  0  0  0  0  0  0
   -1.5347    2.6259    2.3025 H   0  0  0  0  0  0  0  0  0  0  0  0
   -2.0660    0.9446    2.4399 H   0  0  0  0  0  0  0  0  0  0  0  0
   -1.5657   -0.6342    0.6003 H   0  0  0  0  0  0  0  0  0  0  0  0
   -0.6949   -0.0751   -0.8287 H   0  0  0  0  0  0  0  0  0  0  0  0
   -3.1014    3.0816    0.4954 H   0  0  0  0  0  0  0  0  0  0  0  0
   -3.9462    2.3772    1.8742 H   0  0  0  0  0  0  0  0  0  0  0  0
   -3.0911   -0.3338   -1.2520 H   0  0  0  0  0  0  0  0  0  0  0  0
   -2.5364    1.3236   -1.5506 H   0  0  0  0  0  0  0  0  0  0  0  0
    6.0354    5.2873   -0.4664 H   0  0  0  0  0  0  0  0  0  0  0  0
   -5.6743    0.8114    1.9059 H   0  0  0  0  0  0  0  0  0  0  0  0
   -8.0712    0.7199    1.3069 H   0  0  0  0  0  0  0  0  0  0  0  0
   -6.9548    1.1299   -2.8109 H   0  0  0  0  0  0  0  0  0  0  0  0
   -8.7490    0.8746   -1.0878 H   0  0  0  0  0  0  0  0  0  0  0  0
  1 17  2  0  0  0  0
  2 25  1  0  0  0  0
  2 66  1  0  0  0  0
  3 25  2  0  0  0  0
  4 10  1  0  0  0  0
  4 13  1  0  0  0  0
  4 17  1  0  0  0  0
  5 16  1  0  0  0  0
  5 23  1  0  0  0  0
  5 24  1  0  0  0  0
  6 26  1  0  0  0  0
  6 27  1  0  0  0  0
  6 28  1  0  0  0  0
  7 28  1  0  0  0  0
  7 31  2  0  0  0  0
  8  9  1  0  0  0  0
  8 10  1  0  0  0  0
  8 12  1  0  0  0  0
  8 33  1  0  0  0  0
  9 11  1  0  0  0  0
  9 15  1  0  0  0  0
  9 34  1  0  0  0  0
 10 35  1  0  0  0  0
 10 36  1  0  0  0  0
 11 13  1  0  0  0  0
 11 37  1  0  0  0  0
 11 38  1  0  0  0  0
 12 16  1  0  0  0  0
 12 39  1  0  0  0  0
 12 40  1  0  0  0  0
 13 41  1  0  0  0  0
 13 42  1  0  0  0  0
 14 17  1  0  0  0  0
 14 18  1  0  0  0  0
 14 19  1  0  0  0  0
 14 43  1  0  0  0  0
 15 25  1  0  0  0  0
 15 44  1  0  0  0  0
 15 45  1  0  0  0  0
 16 46  1  0  0  0  0
 16 47  1  0  0  0  0
 18 20  1  0  0  0  0
 18 48  1  0  0  0  0
 18 49  1  0  0  0  0
 19 21  1  0  0  0  0
 19 50  1  0  0  0  0
 19 51  1  0  0  0  0
 20 22  1  0  0  0  0
 20 52  1  0  0  0  0
 20 53  1  0  0  0  0
 21 22  1  0  0  0  0
 21 54  1  0  0  0  0
 21 55  1  0  0  0  0
 22 56  1  0  0  0  0
 22 57  1  0  0  0  0
 23 26  1  0  0  0  0
 23 58  1  0  0  0  0
 23 59  1  0  0  0  0
 24 27  1  0  0  0  0
 24 60  1  0  0  0  0
 24 61  1  0  0  0  0
 26 62  1  0  0  0  0
 26 63  1  0  0  0  0
 27 64  1  0  0  0  0
 27 65  1  0  0  0  0
 28 29  2  0  0  0  0
 29 30  1  0  0  0  0
 29 67  1  0  0  0  0
 30 32  2  0  0  0  0
 30 68  1  0  0  0  0
 31 32  1  0  0  0  0
 31 69  1  0  0  0  0
 32 70  1  0  0  0  0
M  END
> <PUBCHEM_COMPOUND_CID>
28960039

> <PUBCHEM_CONFORMER_RMSD>
1.2

> <PUBCHEM_CONFORMER_DIVERSEORDER>
1
170
24
148
91
164
163
147
83
126
33
68
38
17
111
119
117
19
80
71
144
44
162
57
122
73
130
165
39
106
55
76
133
95
129
101
20
84
141
113
62
114
53
108
64
74
160
63
96
89
88
72
69
169
49
52
65
60
115
27
4
23
92
99
166
158
151
34
131
48
21
79
136
5
81
150
149
26
157
134
110
61
18
58
54
123
132
142
28
36
172
90
156
135
102
152
97
32
82
168
171
46
127
155
105
120
70
40
35
56
167
67
31
143
98
41
7
103
137
3
85
124
125
86
112
161
16
45
138
6
15
13
145
8
93
159
116
25
121
42
154
146
12
77
153
104
22
140
51
128
78
43
30
37
94
11
100
75
109
139
66
47
118
87
59
9
29
2
107
10
14
50

> <PUBCHEM_MMFF94_PARTIAL_CHARGES>
28
1 -0.57
10 0.3
13 0.3
14 0.06
15 0.06
16 0.27
17 0.57
2 -0.65
23 0.27
24 0.27
25 0.66
26 0.37
27 0.37
28 0.41
29 -0.15
3 -0.57
30 -0.15
31 0.16
32 -0.15
4 -0.66
5 -0.81
6 -0.84
66 0.5
67 0.15
68 0.15
69 0.15
7 -0.62
70 0.15

> <PUBCHEM_EFFECTIVE_ROTOR_COUNT>
11.6

> <PUBCHEM_PHARMACOPHORE_FEATURES>
11
1 1 acceptor
1 2 acceptor
1 3 acceptor
1 5 cation
1 6 cation
1 7 acceptor
3 2 3 25 anion
6 14 18 19 20 21 22 rings
6 4 8 9 10 11 13 rings
6 5 6 23 24 26 27 rings
6 7 28 29 30 31 32 rings

> <PUBCHEM_HEAVY_ATOM_COUNT>
32

> <PUBCHEM_ATOM_DEF_STEREO_COUNT>
2

> <PUBCHEM_ATOM_UDEF_STEREO_COUNT>
0

> <PUBCHEM_BOND_DEF_STEREO_COUNT>
0

> <PUBCHEM_BOND_UDEF_STEREO_COUNT>
0

> <PUBCHEM_ISOTOPIC_ATOM_COUNT>
0

> <PUBCHEM_COMPONENT_COUNT>
1

> <PUBCHEM_CACTVS_TAUTO_COUNT>
1

> <PUBCHEM_CONFORMER_ID>
01B9E52700000001

> <PUBCHEM_MMFF94_ENERGY>
76.0338

> <PUBCHEM_FEATURE_SELFOVERLAP>
55.882

> <PUBCHEM_SHAPE_FINGERPRINT>
10675989 125 18410857620528626761
11135609 187 18342455963231521929
11181472 205 18195806268575013977
11991303 11 18190466145875478396
12788726 201 17906159999743550834
13150687 139 18341904013274492388
13533116 47 18131349674842505081
1361 2 18409449197873831421
14068700 686 18334013852997995373
14190465 44 18125425665480820112
14675020 138 18340469102532360352
15001296 14 18341608179984877279
15276724 80 17548145880156909688
15483637 11 18050850219077721514
15484559 13 18413110571910687732
16993438 75 18052537969780045534
17138139 8 17845351397425941743
18365409 1 18194405717254264895
19026451 147 18049999987510620019
19319366 153 18341322327856054759
19427546 62 18337392737854832848
20587220 46 15984812710527734407
21304303 94 18343308033218933502
21360442 67 18408039620299705395
23516275 137 16915690071061835831
23522609 53 17488488346102407897
238 59 18268443338661028274
23845131 108 18261393377230257058
25223398 141 17908144627254267528
27425 322 17386573590904504136
404807 78 17823722865942954371
4058900 60 18411423907751057217
4073 2 18409169918542651083
46194498 28 18337105662051065852
484989 97 18338532866893979203
513532 50 13407659666415441307
53794403 172 18412547604370844926
6057620 51 18343016731889994377

> <PUBCHEM_SHAPE_MULTIPOLES>
621.01
16.07
6.46
1.47
26.54
6.76
-0.07
-18.26
-4.93
-9.39
0.97
0.69
0.41
-0.02

> <PUBCHEM_SHAPE_SELFOVERLAP>
1289.3

> <PUBCHEM_SHAPE_VOLUME>
349

> <PUBCHEM_COORDINATE_TYPE>
2
5
10

$$$$
