51137852
  -OEChem-12032416253D

 39 42  0     1  0  0  0  0  0999 V2000
   -1.2372    0.8866   -0.2508 O   0  0  0  0  0  0  0  0  0  0  0  0
    2.5569   -0.0665    2.4887 O   0  0  0  0  0  0  0  0  0  0  0  0
    1.7669    1.3088    0.7922 N   0  0  0  0  0  0  0  0  0  0  0  0
   -2.0994    2.7473   -1.1450 N   0  0  0  0  0  0  0  0  0  0  0  0
   -3.1210    1.8260   -1.0081 N   0  0  0  0  0  0  0  0  0  0  0  0
    4.6221   -1.0785   -1.4741 N   0  0  0  0  0  0  0  0  0  0  0  0
   -4.2784   -2.9655    0.5798 N   0  0  0  0  0  0  0  0  0  0  0  0
    0.4025    2.6821   -0.5920 C   0  0  1  0  0  0  0  0  0  0  0  0
    0.6538    3.3887    0.7491 C   0  0  0  0  0  0  0  0  0  0  0  0
    1.5248    1.6347   -0.6142 C   0  0  0  0  0  0  0  0  0  0  0  0
    1.1182    2.2694    1.6711 C   0  0  0  0  0  0  0  0  0  0  0  0
   -1.0191    2.1562   -0.6905 C   0  0  0  0  0  0  0  0  0  0  0  0
    2.4402    0.2067    1.2957 C   0  0  0  0  0  0  0  0  0  0  0  0
    3.0509   -0.7173    0.3275 C   0  0  0  0  0  0  0  0  0  0  0  0
   -2.5720    0.7558   -0.4826 C   0  0  0  0  0  0  0  0  0  0  0  0
    2.6717   -2.0541    0.2747 C   0  0  0  0  0  0  0  0  0  0  0  0
    4.0217   -0.2830   -0.5607 C   0  0  0  0  0  0  0  0  0  0  0  0
   -3.1508   -0.5057   -0.1217 C   0  0  0  0  0  0  0  0  0  0  0  0
    3.2666   -2.9036   -0.6516 C   0  0  0  0  0  0  0  0  0  0  0  0
   -4.5080   -0.7335   -0.3205 C   0  0  0  0  0  0  0  0  0  0  0  0
   -2.3567   -1.5065    0.4274 C   0  0  0  0  0  0  0  0  0  0  0  0
    4.2278   -2.3716   -1.4959 C   0  0  0  0  0  0  0  0  0  0  0  0
   -5.0184   -1.9691    0.0437 C   0  0  0  0  0  0  0  0  0  0  0  0
   -2.9634   -2.7075    0.7581 C   0  0  0  0  0  0  0  0  0  0  0  0
    0.5326    3.3834   -1.4252 H   0  0  0  0  0  0  0  0  0  0  0  0
    1.4667    4.1159    0.6267 H   0  0  0  0  0  0  0  0  0  0  0  0
   -0.2165    3.9193    1.1475 H   0  0  0  0  0  0  0  0  0  0  0  0
    1.2798    0.7398   -1.1938 H   0  0  0  0  0  0  0  0  0  0  0  0
    2.4445    2.0808   -1.0081 H   0  0  0  0  0  0  0  0  0  0  0  0
    0.2740    1.7666    2.1558 H   0  0  0  0  0  0  0  0  0  0  0  0
    1.8122    2.6117    2.4446 H   0  0  0  0  0  0  0  0  0  0  0  0
    1.9125   -2.4435    0.9476 H   0  0  0  0  0  0  0  0  0  0  0  0
    4.3782    0.7424   -0.5588 H   0  0  0  0  0  0  0  0  0  0  0  0
    2.9861   -3.9489   -0.7113 H   0  0  0  0  0  0  0  0  0  0  0  0
   -5.1647    0.0184   -0.7460 H   0  0  0  0  0  0  0  0  0  0  0  0
   -1.2929   -1.3873    0.6054 H   0  0  0  0  0  0  0  0  0  0  0  0
    4.7216   -2.9923   -2.2362 H   0  0  0  0  0  0  0  0  0  0  0  0
   -6.0707   -2.1971   -0.0909 H   0  0  0  0  0  0  0  0  0  0  0  0
   -2.3881   -3.5203    1.1892 H   0  0  0  0  0  0  0  0  0  0  0  0
  1 12  1  0  0  0  0
  1 15  1  0  0  0  0
  2 13  2  0  0  0  0
  3 10  1  0  0  0  0
  3 11  1  0  0  0  0
  3 13  1  0  0  0  0
  4  5  1  0  0  0  0
  4 12  2  0  0  0  0
  5 15  2  0  0  0  0
  6 17  1  0  0  0  0
  6 22  2  0  0  0  0
  7 23  2  0  0  0  0
  7 24  1  0  0  0  0
  8  9  1  0  0  0  0
  8 10  1  0  0  0  0
  8 12  1  0  0  0  0
  8 25  1  0  0  0  0
  9 11  1  0  0  0  0
  9 26  1  0  0  0  0
  9 27  1  0  0  0  0
 10 28  1  0  0  0  0
 10 29  1  0  0  0  0
 11 30  1  0  0  0  0
 11 31  1  0  0  0  0
 13 14  1  0  0  0  0
 14 16  1  0  0  0  0
 14 17  2  0  0  0  0
 15 18  1  0  0  0  0
 16 19  2  0  0  0  0
 16 32  1  0  0  0  0
 17 33  1  0  0  0  0
 18 20  2  0  0  0  0
 18 21  1  0  0  0  0
 19 22  1  0  0  0  0
 19 34  1  0  0  0  0
 20 23  1  0  0  0  0
 20 35  1  0  0  0  0
 21 24  2  0  0  0  0
 21 36  1  0  0  0  0
 22 37  1  0  0  0  0
 23 38  1  0  0  0  0
 24 39  1  0  0  0  0
M  END
> <PUBCHEM_COMPOUND_CID>
51137852

> <PUBCHEM_CONFORMER_RMSD>
0.8

> <PUBCHEM_CONFORMER_DIVERSEORDER>
1
19
30
17
26
51
35
53
68
18
10
40
2
57
41
54
66
9
13
58
43
61
25
60
45
65
32
46
24
29
3
44
62
21
14
23
50
33
15
36
5
52
55
42
39
49
59
47
28
56
11
48
67
8
4
12
6
69
34
22
38
27
37
20
63
31
7
64
16

> <PUBCHEM_MMFF94_PARTIAL_CHARGES>
31
1 -0.28
10 0.3
11 0.3
12 0.3
13 0.54
14 0.09
15 0.43
16 -0.15
17 0.16
18 0.05
19 -0.15
2 -0.57
20 -0.15
21 -0.15
22 0.16
23 0.16
24 0.16
3 -0.66
32 0.15
33 0.15
34 0.15
35 0.15
36 0.15
37 0.15
38 0.15
39 0.15
4 -0.34
5 -0.34
6 -0.62
7 -0.62
8 0.18

> <PUBCHEM_EFFECTIVE_ROTOR_COUNT>
5

> <PUBCHEM_PHARMACOPHORE_FEATURES>
7
1 2 acceptor
1 6 acceptor
1 7 acceptor
5 1 4 5 12 15 rings
5 3 8 9 10 11 rings
6 6 14 16 17 19 22 rings
6 7 18 20 21 23 24 rings

> <PUBCHEM_HEAVY_ATOM_COUNT>
24

> <PUBCHEM_ATOM_DEF_STEREO_COUNT>
1

> <PUBCHEM_ATOM_UDEF_STEREO_COUNT>
0

> <PUBCHEM_BOND_DEF_STEREO_COUNT>
0

> <PUBCHEM_BOND_UDEF_STEREO_COUNT>
0

> <PUBCHEM_ISOTOPIC_ATOM_COUNT>
0

> <PUBCHEM_COMPONENT_COUNT>
1

> <PUBCHEM_CACTVS_TAUTO_COUNT>
1

> <PUBCHEM_CONFORMER_ID>
030C4D3C00000001

> <PUBCHEM_MMFF94_ENERGY>
59.4708

> <PUBCHEM_FEATURE_SELFOVERLAP>
35.524

> <PUBCHEM_SHAPE_FINGERPRINT>
10928967 22 18259704489000040339
114674 6 18264484168692466259
12506688 2 18413389838962808960
12553582 1 18260545632537526163
12712778 12 17616227214630884202
13103583 49 17274275954101109275
13135754 10 16699797552796277040
13402501 40 18337390547131478546
13533116 47 18128539456729872659
13631057 29 18339934710444393166
13911882 115 18343579672883631418
14251740 57 18124881411266687059
14251740 79 17906184949271947870
14251757 5 18263935336348793951
14251764 30 17274560732377429430
14363568 33 18123487208667372850
14681488 357 18341055236645943911
14863182 85 17901951073189703348
14866123 147 18196659480453475417
15352361 1 18410015437608515479
15422964 175 18342444942070750296
15664445 248 17097774831613462885
17909252 39 18341066180870811036
17974551 9 17274540906444394297
1979834 28 17907015432742947235
20645477 70 18045775956225841253
20775530 9 18412546500543605259
21279426 13 18261940926479838591
23379529 103 18198072378449271958
23428019 142 16975078830132088742
23466295 7 17981903942615284450
23557571 272 18338786828620337136
23559900 14 18335699502975137973
238078 22 18267877094557153484
3117164 225 18341066172502462041
314173 41 18187643669346090145
329604 57 18409174307619776742
3737641 26 18341907315296961280
4280585 95 18188204291891389276
5309563 4 18342178877473842079
6287921 2 17982733274735017355
6823239 73 18411414020973264042
7987 15 18200883893572786718
9709674 26 18337942480894114549
9862886 166 18124032330934858742

> <PUBCHEM_SHAPE_MULTIPOLES>
457.27
9.49
4.31
1.45
3.42
0.68
-0.49
-9.52
1.82
0.47
0.2
-1.29
0.26
2.44

> <PUBCHEM_SHAPE_SELFOVERLAP>
1006.251

> <PUBCHEM_SHAPE_VOLUME>
244.7

> <PUBCHEM_COORDINATE_TYPE>
2
5
10

$$$$
