26761982
  -OEChem-12032416353D

 47 51  0     1  0  0  0  0  0999 V2000
    6.7822   -1.1183   -1.5254 Cl  0  0  0  0  0  0  0  0  0  0  0  0
   -9.0313    1.5907   -0.7352 Cl  0  0  0  0  0  0  0  0  0  0  0  0
    7.8468    1.6414   -1.3320 F   0  0  0  0  0  0  0  0  0  0  0  0
    0.8067    1.5205    1.5979 O   0  0  0  0  0  0  0  0  0  0  0  0
   -2.6147    0.9279    1.6647 O   0  0  0  0  0  0  0  0  0  0  0  0
   -1.3196   -0.5681    0.4484 N   0  0  0  0  0  0  0  0  0  0  0  0
   -0.0901   -3.6191   -1.3369 N   0  0  0  0  0  0  0  0  0  0  0  0
    0.6725   -4.2278    0.6725 N   0  0  0  0  0  0  0  0  0  0  0  0
    2.0459   -0.1133    0.6968 N   0  0  0  0  0  0  0  0  0  0  0  0
   -3.2193    0.4454   -0.5262 N   0  0  0  0  0  0  0  0  0  0  0  0
    2.0202    2.1126    1.2251 N   0  0  0  0  0  0  0  0  0  0  0  0
   -0.3073   -0.6679    1.5572 C   0  0  1  0  0  0  0  0  0  0  0  0
   -0.0120   -2.1480    1.9440 C   0  0  0  0  0  0  0  0  0  0  0  0
   -1.0575   -1.3218   -0.8130 C   0  0  0  0  0  0  0  0  0  0  0  0
    0.0975   -2.9900    0.7345 C   0  0  0  0  0  0  0  0  0  0  0  0
   -0.3822   -2.5928   -0.4886 C   0  0  0  0  0  0  0  0  0  0  0  0
    0.9054    0.2101    1.2521 C   0  0  0  0  0  0  0  0  0  0  0  0
   -2.4199    0.3167    0.6117 C   0  0  0  0  0  0  0  0  0  0  0  0
    0.5440   -4.5806   -0.5908 C   0  0  0  0  0  0  0  0  0  0  0  0
    2.6969    1.0861    0.7015 C   0  0  0  0  0  0  0  0  0  0  0  0
   -4.6084    0.7199   -0.5763 C   0  0  0  0  0  0  0  0  0  0  0  0
    4.0245    1.2245    0.1766 C   0  0  0  0  0  0  0  0  0  0  0  0
   -5.2565    0.8160   -1.8078 C   0  0  0  0  0  0  0  0  0  0  0  0
   -5.3281    0.8932    0.6060 C   0  0  0  0  0  0  0  0  0  0  0  0
    4.6832    0.1168   -0.3570 C   0  0  0  0  0  0  0  0  0  0  0  0
    4.6567    2.4678    0.1994 C   0  0  0  0  0  0  0  0  0  0  0  0
   -6.6242    1.0855   -1.8570 C   0  0  0  0  0  0  0  0  0  0  0  0
   -6.6957    1.1627    0.5567 C   0  0  0  0  0  0  0  0  0  0  0  0
    5.9740    0.2522   -0.8678 C   0  0  0  0  0  0  0  0  0  0  0  0
    5.9477    2.6032   -0.3115 C   0  0  0  0  0  0  0  0  0  0  0  0
   -7.3438    1.2590   -0.6746 C   0  0  0  0  0  0  0  0  0  0  0  0
    6.6063    1.4953   -0.8450 C   0  0  0  0  0  0  0  0  0  0  0  0
   -0.7493   -0.2224    2.4586 H   0  0  0  0  0  0  0  0  0  0  0  0
   -0.8464   -2.5314    2.5446 H   0  0  0  0  0  0  0  0  0  0  0  0
    0.8965   -2.2169    2.5520 H   0  0  0  0  0  0  0  0  0  0  0  0
   -0.4282   -0.6894   -1.4474 H   0  0  0  0  0  0  0  0  0  0  0  0
   -1.9941   -1.5341   -1.3352 H   0  0  0  0  0  0  0  0  0  0  0  0
   -0.2979   -3.6670   -2.3257 H   0  0  0  0  0  0  0  0  0  0  0  0
    0.8842   -5.5083   -1.0284 H   0  0  0  0  0  0  0  0  0  0  0  0
   -2.7828    0.2963   -1.4309 H   0  0  0  0  0  0  0  0  0  0  0  0
   -4.7073    0.6828   -2.7364 H   0  0  0  0  0  0  0  0  0  0  0  0
   -4.8858    0.8047    1.5907 H   0  0  0  0  0  0  0  0  0  0  0  0
    4.2041   -0.8598   -0.3825 H   0  0  0  0  0  0  0  0  0  0  0  0
    4.1753    3.3532    0.6067 H   0  0  0  0  0  0  0  0  0  0  0  0
   -7.1161    1.1575   -2.8237 H   0  0  0  0  0  0  0  0  0  0  0  0
   -7.2457    1.2900    1.4857 H   0  0  0  0  0  0  0  0  0  0  0  0
    6.4405    3.5708   -0.2941 H   0  0  0  0  0  0  0  0  0  0  0  0
  1 29  1  0  0  0  0
  2 31  1  0  0  0  0
  3 32  1  0  0  0  0
  4 11  1  0  0  0  0
  4 17  1  0  0  0  0
  5 18  2  0  0  0  0
  6 12  1  0  0  0  0
  6 14  1  0  0  0  0
  6 18  1  0  0  0  0
  7 16  1  0  0  0  0
  7 19  1  0  0  0  0
  7 38  1  0  0  0  0
  8 15  1  0  0  0  0
  8 19  2  0  0  0  0
  9 17  2  0  0  0  0
  9 20  1  0  0  0  0
 10 18  1  0  0  0  0
 10 21  1  0  0  0  0
 10 40  1  0  0  0  0
 11 20  2  0  0  0  0
 12 13  1  0  0  0  0
 12 17  1  0  0  0  0
 12 33  1  0  0  0  0
 13 15  1  0  0  0  0
 13 34  1  0  0  0  0
 13 35  1  0  0  0  0
 14 16  1  0  0  0  0
 14 36  1  0  0  0  0
 14 37  1  0  0  0  0
 15 16  2  0  0  0  0
 19 39  1  0  0  0  0
 20 22  1  0  0  0  0
 21 23  2  0  0  0  0
 21 24  1  0  0  0  0
 22 25  2  0  0  0  0
 22 26  1  0  0  0  0
 23 27  1  0  0  0  0
 23 41  1  0  0  0  0
 24 28  2  0  0  0  0
 24 42  1  0  0  0  0
 25 29  1  0  0  0  0
 25 43  1  0  0  0  0
 26 30  2  0  0  0  0
 26 44  1  0  0  0  0
 27 31  2  0  0  0  0
 27 45  1  0  0  0  0
 28 31  1  0  0  0  0
 28 46  1  0  0  0  0
 29 32  2  0  0  0  0
 30 32  1  0  0  0  0
 30 47  1  0  0  0  0
M  END
> <PUBCHEM_COMPOUND_CID>
26761982

> <PUBCHEM_CONFORMER_RMSD>
1

> <PUBCHEM_CONFORMER_DIVERSEORDER>
1
56
154
127
141
91
53
19
147
4
69
58
121
35
161
22
87
156
155
52
55
103
77
25
113
18
41
71
62
106
131
151
23
129
94
48
153
75
8
33
74
123
5
150
104
133
66
166
28
80
144
67
120
137
63
132
157
142
162
100
130
47
139
108
95
111
152
39
14
81
128
140
109
31
68
167
160
6
119
149
10
29
45
38
126
143
76
65
159
90
37
27
118
32
72
148
135
138
49
88
46
124
92
115
78
116
7
125
57
163
82
64
83
12
165
136
96
44
146
110
30
99
26
107
85
36
34
122
79
21
145
73
89
84
101
114
20
50
86
9
158
93
42
102
112
164
97
134
61
60
17
43
3
117
70
54
105
2
98
40
13
11
51
15
16
59
24

> <PUBCHEM_MMFF94_PARTIAL_CHARGES>
42
1 -0.18
10 -0.55
11 -0.41
12 0.48
13 0.18
14 0.48
15 0.05
16 -0.33
17 0.3
18 0.69
19 0.04
2 -0.18
20 0.46
21 0.12
22 0.05
23 -0.15
24 -0.15
25 -0.15
26 -0.15
27 -0.15
28 -0.15
29 0.18
3 -0.19
30 -0.15
31 0.18
32 0.19
38 0.27
39 0.15
4 -0.02
40 0.37
41 0.15
42 0.15
43 0.15
44 0.15
45 0.15
46 0.15
47 0.15
5 -0.57
6 -0.66
7 0.03
8 -0.57
9 -0.57

> <PUBCHEM_EFFECTIVE_ROTOR_COUNT>
5.8

> <PUBCHEM_PHARMACOPHORE_FEATURES>
10
1 10 donor
1 5 acceptor
1 7 donor
3 7 8 19 cation
3 9 11 20 cation
5 4 9 11 17 20 rings
5 7 8 15 16 19 rings
6 21 23 24 27 28 31 rings
6 22 25 26 29 30 32 rings
6 6 12 13 14 15 16 rings

> <PUBCHEM_HEAVY_ATOM_COUNT>
32

> <PUBCHEM_ATOM_DEF_STEREO_COUNT>
1

> <PUBCHEM_ATOM_UDEF_STEREO_COUNT>
0

> <PUBCHEM_BOND_DEF_STEREO_COUNT>
0

> <PUBCHEM_BOND_UDEF_STEREO_COUNT>
0

> <PUBCHEM_ISOTOPIC_ATOM_COUNT>
0

> <PUBCHEM_COMPONENT_COUNT>
1

> <PUBCHEM_CACTVS_TAUTO_COUNT>
4

> <PUBCHEM_CONFORMER_ID>
01985AFE00000001

> <PUBCHEM_MMFF94_ENERGY>
71.809

> <PUBCHEM_FEATURE_SELFOVERLAP>
50.851

> <PUBCHEM_SHAPE_FINGERPRINT>
10 15 16226045587864270433
10165383 225 18407476656601292509
10369192 42 18186517718137270781
10483366 6 18130788932248819310
10693767 8 17703505476595693894
107951 10 17968382337743364434
10835480 77 18129663144824153184
11181472 205 18126278650861131429
11200772 48 18272091660149677598
11621639 336 17771079202529874969
11823591 26 18335689568330530329
11991303 11 18262519311570561103
12218070 45 12901839366695501705
13150687 139 18411987940141622014
13257819 101 17530956965396757391
13540713 4 17698999905989473008
13782708 43 12607107565962594685
14117953 113 18342182116891942246
15183329 4 17846500330883995100
15188451 53 13038914322137011828
15392192 104 13912331174348211480
15773216 30 18340488838140103055
15961568 22 17676483905165829229
16993427 108 10663829537482422125
17980427 23 13695880246168081611
19301679 30 8718287752643131417
19958102 18 18341058454256716300
20105231 36 17275099579728454095
20505436 4 17821722884292562034
20721686 146 17167856440089328269
21033648 29 18265041604008158200
21344244 246 18058172726312239262
23559900 14 18058739147490460984
23576562 1 18191025809889352925
24180151 248 18120655730330002093
249057 3 18335706061944281644
27425 322 17604438530462071894
3633792 109 18343306929422764440
38570 142 18272645753975480223
4015057 19 17131276899625150696
4058900 60 18336267847275471419
44802255 64 18114755935777055286
45266715 3 18201170858251308678
46194498 28 18119518848349895775
504843 32 18188494691320369083
5219985 9 9799693709659212579
57527306 92 17095522902718734252
57527585 21 17827602960925511461
58260988 587 18262236612892109571
6126387 218 8430322325599188605
6898599 12 18121225548025865052
9689198 14 17748829617787784541

> <PUBCHEM_SHAPE_MULTIPOLES>
613.39
21.06
4.05
1.67
15.16
6.12
0.06
-21.36
-12.08
-3.34
-0.29
0.4
0.14
0.69

> <PUBCHEM_SHAPE_SELFOVERLAP>
1338.854

> <PUBCHEM_SHAPE_VOLUME>
335.7

> <PUBCHEM_COORDINATE_TYPE>
2
5
10

$$$$
