75536640
  -OEChem-12032416313D

 46 48  0     1  0  0  0  0  0999 V2000
   -9.2865   -0.4302    0.5186 F   0  0  0  0  0  0  0  0  0  0  0  0
    8.6972   -1.7505   -0.5852 F   0  0  0  0  0  0  0  0  0  0  0  0
    0.4560   -0.8188    0.1065 O   0  0  0  0  0  0  0  0  0  0  0  0
   -0.8449    2.5297    0.0732 O   0  0  0  0  0  0  0  0  0  0  0  0
    3.7788    2.1676   -0.1104 O   0  0  0  0  0  0  0  0  0  0  0  0
   -3.0177    0.2593    0.0522 N   0  0  0  0  0  0  0  0  0  0  0  0
    2.9199    0.3404    1.0326 N   0  0  0  0  0  0  0  0  0  0  0  0
   -1.6175    0.2508   -0.3391 C   0  0  1  0  0  0  0  0  0  0  0  0
   -0.7486    1.1807    0.4873 C   0  0  1  0  0  0  0  0  0  0  0  0
    0.6349    0.6027    0.2216 C   0  0  1  0  0  0  0  0  0  0  0  0
   -0.9426   -1.0888   -0.0935 C   0  0  0  0  0  0  0  0  0  0  0  0
    1.6344    0.9068    1.3234 C   0  0  0  0  0  0  0  0  0  0  0  0
   -3.8507   -0.3729   -0.9638 C   0  0  0  0  0  0  0  0  0  0  0  0
   -5.3032   -0.3881   -0.5679 C   0  0  0  0  0  0  0  0  0  0  0  0
    3.9040    1.0272    0.3281 C   0  0  0  0  0  0  0  0  0  0  0  0
   -5.8182   -1.4659    0.1525 C   0  0  0  0  0  0  0  0  0  0  0  0
   -6.1340    0.6753   -0.9212 C   0  0  0  0  0  0  0  0  0  0  0  0
    5.1720    0.2918    0.0862 C   0  0  0  0  0  0  0  0  0  0  0  0
   -7.1638   -1.4804    0.5195 C   0  0  0  0  0  0  0  0  0  0  0  0
   -7.4796    0.6608   -0.5544 C   0  0  0  0  0  0  0  0  0  0  0  0
   -7.9945   -0.4171    0.1660 C   0  0  0  0  0  0  0  0  0  0  0  0
    5.9613    0.6080   -1.0197 C   0  0  0  0  0  0  0  0  0  0  0  0
    5.5736   -0.7142    0.9649 C   0  0  0  0  0  0  0  0  0  0  0  0
    7.1519   -0.0820   -1.2469 C   0  0  0  0  0  0  0  0  0  0  0  0
    6.7643   -1.4042    0.7378 C   0  0  0  0  0  0  0  0  0  0  0  0
    7.5534   -1.0882   -0.3681 C   0  0  0  0  0  0  0  0  0  0  0  0
   -1.5168    0.5405   -1.3947 H   0  0  0  0  0  0  0  0  0  0  0  0
   -1.0054    1.1186    1.5522 H   0  0  0  0  0  0  0  0  0  0  0  0
    1.0275    0.9612   -0.7391 H   0  0  0  0  0  0  0  0  0  0  0  0
   -1.3095   -1.5800    0.8151 H   0  0  0  0  0  0  0  0  0  0  0  0
   -1.0611   -1.7818   -0.9319 H   0  0  0  0  0  0  0  0  0  0  0  0
    1.3104    0.4616    2.2706 H   0  0  0  0  0  0  0  0  0  0  0  0
    1.7367    1.9880    1.4647 H   0  0  0  0  0  0  0  0  0  0  0  0
   -3.3226    1.2251    0.1760 H   0  0  0  0  0  0  0  0  0  0  0  0
   -3.5284   -1.4065   -1.1425 H   0  0  0  0  0  0  0  0  0  0  0  0
   -3.7511    0.1485   -1.9252 H   0  0  0  0  0  0  0  0  0  0  0  0
   -0.6174    2.5767   -0.8708 H   0  0  0  0  0  0  0  0  0  0  0  0
    3.0629   -0.6260    1.3056 H   0  0  0  0  0  0  0  0  0  0  0  0
   -5.1809   -2.2995    0.4355 H   0  0  0  0  0  0  0  0  0  0  0  0
   -5.7444    1.5217   -1.4807 H   0  0  0  0  0  0  0  0  0  0  0  0
   -7.5650   -2.3190    1.0808 H   0  0  0  0  0  0  0  0  0  0  0  0
   -8.1267    1.4887   -0.8288 H   0  0  0  0  0  0  0  0  0  0  0  0
    5.6635    1.3855   -1.7183 H   0  0  0  0  0  0  0  0  0  0  0  0
    5.0050   -0.9703    1.8539 H   0  0  0  0  0  0  0  0  0  0  0  0
    7.7663    0.1630   -2.1082 H   0  0  0  0  0  0  0  0  0  0  0  0
    7.0813   -2.1829    1.4252 H   0  0  0  0  0  0  0  0  0  0  0  0
  1 21  1  0  0  0  0
  2 26  1  0  0  0  0
  3 10  1  0  0  0  0
  3 11  1  0  0  0  0
  4  9  1  0  0  0  0
  4 37  1  0  0  0  0
  5 15  2  0  0  0  0
  6  8  1  0  0  0  0
  6 13  1  0  0  0  0
  6 34  1  0  0  0  0
  7 12  1  0  0  0  0
  7 15  1  0  0  0  0
  7 38  1  0  0  0  0
  8  9  1  0  0  0  0
  8 11  1  0  0  0  0
  8 27  1  0  0  0  0
  9 10  1  0  0  0  0
  9 28  1  0  0  0  0
 10 12  1  0  0  0  0
 10 29  1  0  0  0  0
 11 30  1  0  0  0  0
 11 31  1  0  0  0  0
 12 32  1  0  0  0  0
 12 33  1  0  0  0  0
 13 14  1  0  0  0  0
 13 35  1  0  0  0  0
 13 36  1  0  0  0  0
 14 16  2  0  0  0  0
 14 17  1  0  0  0  0
 15 18  1  0  0  0  0
 16 19  1  0  0  0  0
 16 39  1  0  0  0  0
 17 20  2  0  0  0  0
 17 40  1  0  0  0  0
 18 22  2  0  0  0  0
 18 23  1  0  0  0  0
 19 21  2  0  0  0  0
 19 41  1  0  0  0  0
 20 21  1  0  0  0  0
 20 42  1  0  0  0  0
 22 24  1  0  0  0  0
 22 43  1  0  0  0  0
 23 25  2  0  0  0  0
 23 44  1  0  0  0  0
 24 26  2  0  0  0  0
 24 45  1  0  0  0  0
 25 26  1  0  0  0  0
 25 46  1  0  0  0  0
M  END
> <PUBCHEM_COMPOUND_CID>
75536640

> <PUBCHEM_CONFORMER_RMSD>
0.8

> <PUBCHEM_CONFORMER_DIVERSEORDER>
1
69
15
203
272
289
39
161
122
92
123
10
296
176
95
283
59
154
223
156
71
96
262
141
226
247
43
7
248
282
138
164
260
54
290
127
190
201
279
103
116
186
233
202
212
100
70
209
253
171
45
105
277
293
5
32
11
243
284
188
149
81
12
180
205
181
41
18
259
210
236
23
268
241
36
98
237
130
255
40
222
52
167
213
93
136
207
264
151
84
292
72
142
266
195
113
273
101
124
275
170
267
112
91
211
50
131
168
37
191
291
240
118
79
229
146
265
24
216
121
57
110
294
35
218
147
263
251
6
73
49
13
221
68
82
126
179
261
286
271
46
208
225
163
160
155
56
175
184
48
109
178
86
75
78
148
215
144
42
187
249
295
137
242
139
177
198
108
204
114
25
239
97
228
117
269
29
270
31
278
252
64
173
217
257
256
51
30
288
120
125
76
214
219
234
153
172
276
67
245
20
220
162
274
104
166
285
152
132
77
231
159
157
27
21
107
254
235
246
34
174
111
134
62
129
224
102
58
165
192
150
244
145
280
206
133
183
9
115
26
65
17
193
119
258
14
227
199
53
169
44
200
185
89
196
63
3
189
287
88
232
74
281
85
128
33
250
8
28
238
55
87
182
106
16
38
47
66
197
2
158
80
297
94
60
83
143
90
19
194
22
135
61
140
230
4
99

> <PUBCHEM_MMFF94_PARTIAL_CHARGES>
37
1 -0.19
10 0.28
11 0.28
12 0.3
13 0.41
14 -0.14
15 0.54
16 -0.15
17 -0.15
18 0.09
19 -0.15
2 -0.19
20 -0.15
21 0.19
22 -0.15
23 -0.15
24 -0.15
25 -0.15
26 0.19
3 -0.56
34 0.36
37 0.4
38 0.37
39 0.15
4 -0.68
40 0.15
41 0.15
42 0.15
43 0.15
44 0.15
45 0.15
46 0.15
5 -0.57
6 -0.9
7 -0.73
8 0.27
9 0.28

> <PUBCHEM_EFFECTIVE_ROTOR_COUNT>
8

> <PUBCHEM_PHARMACOPHORE_FEATURES>
10
1 3 acceptor
1 4 acceptor
1 4 donor
1 5 acceptor
1 6 cation
1 6 donor
1 7 donor
5 3 8 9 10 11 rings
6 14 16 17 19 20 21 rings
6 18 22 23 24 25 26 rings

> <PUBCHEM_HEAVY_ATOM_COUNT>
26

> <PUBCHEM_ATOM_DEF_STEREO_COUNT>
3

> <PUBCHEM_ATOM_UDEF_STEREO_COUNT>
0

> <PUBCHEM_BOND_DEF_STEREO_COUNT>
0

> <PUBCHEM_BOND_UDEF_STEREO_COUNT>
0

> <PUBCHEM_ISOTOPIC_ATOM_COUNT>
0

> <PUBCHEM_COMPONENT_COUNT>
1

> <PUBCHEM_CACTVS_TAUTO_COUNT>
2

> <PUBCHEM_CONFORMER_ID>
0480990000000001

> <PUBCHEM_MMFF94_ENERGY>
57.4899

> <PUBCHEM_FEATURE_SELFOVERLAP>
50.747

> <PUBCHEM_SHAPE_FINGERPRINT>
10 15 9799691497682483316
10162869 55 9295278422812158073
10299344 5 18113616785605908691
106641 1 9079108973408574229
11135609 127 16878236372373294412
11135926 11 18060129926156094287
11315181 36 11386363735032109367
11524674 6 17346596404781180071
11638347 137 13254803426008363292
12166972 35 17967814967978490636
125118 31 10087650311848225634
12592606 108 18271522087393764983
13673619 4 17988640792055834976
13685833 64 17989767800459235376
13914758 101 15338845261311846499
14216079 64 17918277532893850918
14251764 18 11455886966444925585
14251764 46 16200432468425770182
14294032 229 18194405476726631057
14344974 52 15502668130675101734
14347424 109 16128368311872818104
14856354 85 17894631483467289615
14933364 13 18113333128891287253
15131766 46 13468681626023377650
15183329 4 18272370866871777376
16090146 7 16805619031193294464
16120349 18 10519979361778723875
17093844 174 12895354404987254287
1754911 235 15430033258182606447
18365409 1 15140976096320406427
20105231 36 18260552242935910787
21095086 128 17385439921206761387
21150785 3 16660081105193752718
21267235 1 18410855455880940208
21365058 27 15936407841023357227
21403212 168 14908183040680184557
21781051 124 18336269024002175546
21792934 111 17346874550730786449
21792961 116 18412258403418050469
221357 26 17530680997011602476
22224240 67 12679461984515005676
23035841 295 18413386553681910763
232437 2 18408323307653903003
23559900 14 18268985548496886824
246663 6 18413672408923980626
249057 25 14548745061893679667
249057 3 15357985589734783067
28498 318 18060136526797634212
3004659 81 18409163321156626432
328311 84 18411982481380294735
34797466 226 16298385764536872542
4107672 100 17895467039026432685
4339292 15 10231455434584724581
439807 62 18411139117681904142
444769 64 17918270970178781991
45377200 153 17313674862330151019
5283156 175 18411982451368219284
5470011 282 18113058242679180670
5758199 1 13262675916141129013
59682541 35 10303806588439192326
59755656 215 18272368654942807031
6394761 36 17918275359545349299
6438161 24 18335414652718635034

> <PUBCHEM_SHAPE_MULTIPOLES>
492.95
29.15
1.65
1.03
10.05
0.33
0.02
-11.54
3.84
-0.9
-0.12
-0.8
0.03
0.52

> <PUBCHEM_SHAPE_SELFOVERLAP>
1050.066

> <PUBCHEM_SHAPE_VOLUME>
275.2

> <PUBCHEM_COORDINATE_TYPE>
2
5
10

$$$$
