71693673
  -OEChem-12032416233D

 54 56  0     1  0  0  0  0  0999 V2000
    0.6463   -2.4362    0.3244 O   0  0  0  0  0  0  0  0  0  0  0  0
    1.7475    1.5300    0.7994 O   0  0  0  0  0  0  0  0  0  0  0  0
    4.1986   -2.6830    0.2077 O   0  0  0  0  0  0  0  0  0  0  0  0
   -5.7634    1.0492    1.3577 O   0  0  0  0  0  0  0  0  0  0  0  0
    2.8342   -0.9050   -0.4327 N   0  0  0  0  0  0  0  0  0  0  0  0
    5.5879    1.6054   -0.6035 N   0  0  0  0  0  0  0  0  0  0  0  0
    4.6692    0.5989    1.1500 N   0  0  0  0  0  0  0  0  0  0  0  0
   -5.0118    0.0793   -0.6469 N   0  0  0  0  0  0  0  0  0  0  0  0
    1.4590   -0.3779   -0.6095 C   0  0  1  0  0  0  0  0  0  0  0  0
    0.4827   -1.0192    0.3957 C   0  0  1  0  0  0  0  0  0  0  0  0
    1.4000    1.1537   -0.5174 C   0  0  0  0  0  0  0  0  0  0  0  0
    3.9280   -0.2117   -1.1075 C   0  0  0  0  0  0  0  0  0  0  0  0
   -0.9771   -0.7269    0.1181 C   0  0  0  0  0  0  0  0  0  0  0  0
    3.0898   -2.1468    0.1524 C   0  0  0  0  0  0  0  0  0  0  0  0
    1.9067   -2.8201    0.8191 C   0  0  0  0  0  0  0  0  0  0  0  0
    4.7151    0.6497   -0.1627 C   0  0  0  0  0  0  0  0  0  0  0  0
   -1.5292   -1.0460   -1.1224 C   0  0  0  0  0  0  0  0  0  0  0  0
   -1.7698   -0.1387    1.1038 C   0  0  0  0  0  0  0  0  0  0  0  0
   -2.8740   -0.7773   -1.3773 C   0  0  0  0  0  0  0  0  0  0  0  0
   -3.1145    0.1302    0.8490 C   0  0  0  0  0  0  0  0  0  0  0  0
   -3.6666   -0.1892   -0.3916 C   0  0  0  0  0  0  0  0  0  0  0  0
    6.1331    2.2018    0.4984 C   0  0  0  0  0  0  0  0  0  0  0  0
    5.8903    1.9371   -1.9759 C   0  0  0  0  0  0  0  0  0  0  0  0
    5.5509    1.5639    1.5683 C   0  0  0  0  0  0  0  0  0  0  0  0
   -7.3351    0.7868   -0.4546 C   0  0  0  0  0  0  0  0  0  0  0  0
   -5.9590    0.6665    0.2076 C   0  0  0  0  0  0  0  0  0  0  0  0
   -8.0915    2.0092    0.0611 C   0  0  0  0  0  0  0  0  0  0  0  0
   -8.1472   -0.4838   -0.2107 C   0  0  0  0  0  0  0  0  0  0  0  0
    1.1938   -0.6731   -1.6325 H   0  0  0  0  0  0  0  0  0  0  0  0
    0.7226   -0.7037    1.4205 H   0  0  0  0  0  0  0  0  0  0  0  0
    0.3894    1.5199   -0.7257 H   0  0  0  0  0  0  0  0  0  0  0  0
    2.0691    1.6571   -1.2192 H   0  0  0  0  0  0  0  0  0  0  0  0
    3.5447    0.3448   -1.9676 H   0  0  0  0  0  0  0  0  0  0  0  0
    4.6140   -0.9650   -1.5152 H   0  0  0  0  0  0  0  0  0  0  0  0
    2.0032   -3.9001    0.6670 H   0  0  0  0  0  0  0  0  0  0  0  0
    1.9587   -2.6289    1.8972 H   0  0  0  0  0  0  0  0  0  0  0  0
   -0.9329   -1.5152   -1.8998 H   0  0  0  0  0  0  0  0  0  0  0  0
   -1.3526    0.1157    2.0745 H   0  0  0  0  0  0  0  0  0  0  0  0
   -3.2917   -1.0338   -2.3476 H   0  0  0  0  0  0  0  0  0  0  0  0
   -3.6622    0.5859    1.6617 H   0  0  0  0  0  0  0  0  0  0  0  0
    1.6968    2.4999    0.8450 H   0  0  0  0  0  0  0  0  0  0  0  0
    6.8605    2.9990    0.4330 H   0  0  0  0  0  0  0  0  0  0  0  0
    6.1945    1.0261   -2.4971 H   0  0  0  0  0  0  0  0  0  0  0  0
    4.9943    2.3652   -2.4322 H   0  0  0  0  0  0  0  0  0  0  0  0
    6.7050    2.6653   -2.0035 H   0  0  0  0  0  0  0  0  0  0  0  0
    5.7213    1.7506    2.6185 H   0  0  0  0  0  0  0  0  0  0  0  0
   -5.3359   -0.1913   -1.5729 H   0  0  0  0  0  0  0  0  0  0  0  0
   -7.1953    0.9137   -1.5355 H   0  0  0  0  0  0  0  0  0  0  0  0
   -7.5026    2.9204   -0.0898 H   0  0  0  0  0  0  0  0  0  0  0  0
   -9.0436    2.1292   -0.4661 H   0  0  0  0  0  0  0  0  0  0  0  0
   -8.3051    1.9273    1.1326 H   0  0  0  0  0  0  0  0  0  0  0  0
   -8.3059   -0.6532    0.8601 H   0  0  0  0  0  0  0  0  0  0  0  0
   -9.1260   -0.4230   -0.6976 H   0  0  0  0  0  0  0  0  0  0  0  0
   -7.6256   -1.3615   -0.6073 H   0  0  0  0  0  0  0  0  0  0  0  0
  1 10  1  0  0  0  0
  1 15  1  0  0  0  0
  2 11  1  0  0  0  0
  2 41  1  0  0  0  0
  3 14  2  0  0  0  0
  4 26  2  0  0  0  0
  5  9  1  0  0  0  0
  5 12  1  0  0  0  0
  5 14  1  0  0  0  0
  6 16  1  0  0  0  0
  6 22  1  0  0  0  0
  6 23  1  0  0  0  0
  7 16  2  0  0  0  0
  7 24  1  0  0  0  0
  8 21  1  0  0  0  0
  8 26  1  0  0  0  0
  8 47  1  0  0  0  0
  9 10  1  0  0  0  0
  9 11  1  0  0  0  0
  9 29  1  0  0  0  0
 10 13  1  0  0  0  0
 10 30  1  0  0  0  0
 11 31  1  0  0  0  0
 11 32  1  0  0  0  0
 12 16  1  0  0  0  0
 12 33  1  0  0  0  0
 12 34  1  0  0  0  0
 13 17  2  0  0  0  0
 13 18  1  0  0  0  0
 14 15  1  0  0  0  0
 15 35  1  0  0  0  0
 15 36  1  0  0  0  0
 17 19  1  0  0  0  0
 17 37  1  0  0  0  0
 18 20  2  0  0  0  0
 18 38  1  0  0  0  0
 19 21  2  0  0  0  0
 19 39  1  0  0  0  0
 20 21  1  0  0  0  0
 20 40  1  0  0  0  0
 22 24  2  0  0  0  0
 22 42  1  0  0  0  0
 23 43  1  0  0  0  0
 23 44  1  0  0  0  0
 23 45  1  0  0  0  0
 24 46  1  0  0  0  0
 25 26  1  0  0  0  0
 25 27  1  0  0  0  0
 25 28  1  0  0  0  0
 25 48  1  0  0  0  0
 27 49  1  0  0  0  0
 27 50  1  0  0  0  0
 27 51  1  0  0  0  0
 28 52  1  0  0  0  0
 28 53  1  0  0  0  0
 28 54  1  0  0  0  0
M  END
> <PUBCHEM_COMPOUND_CID>
71693673

> <PUBCHEM_CONFORMER_RMSD>
1

> <PUBCHEM_CONFORMER_DIVERSEORDER>
1
37
47
28
24
53
27
26
35
54
43
41
51
58
12
15
14
13
56
21
7
44
42
10
18
30
23
33
3
29
45
52
31
46
9
22
60
50
19
25
38
2
16
4
20
48
17
32
40
61
39
55
5
36
8
57
59
11
49
34
6

> <PUBCHEM_MMFF94_PARTIAL_CHARGES>
34
1 -0.56
10 0.42
11 0.28
12 0.48
13 -0.14
14 0.57
15 0.34
16 0.01
17 -0.15
18 -0.15
19 -0.15
2 -0.68
20 -0.15
21 0.12
22 -0.3
23 0.26
24 0.08
25 0.06
26 0.57
3 -0.57
37 0.15
38 0.15
39 0.15
4 -0.57
40 0.15
41 0.4
42 0.15
46 0.15
47 0.37
5 -0.66
6 0.05
7 -0.57
8 -0.55
9 0.3

> <PUBCHEM_EFFECTIVE_ROTOR_COUNT>
8

> <PUBCHEM_PHARMACOPHORE_FEATURES>
11
1 1 acceptor
1 2 acceptor
1 2 donor
1 3 acceptor
1 4 acceptor
1 8 donor
3 25 27 28 hydrophobe
3 6 7 16 cation
5 6 7 16 22 24 rings
6 1 5 9 10 14 15 rings
6 13 17 18 19 20 21 rings

> <PUBCHEM_HEAVY_ATOM_COUNT>
28

> <PUBCHEM_ATOM_DEF_STEREO_COUNT>
2

> <PUBCHEM_ATOM_UDEF_STEREO_COUNT>
0

> <PUBCHEM_BOND_DEF_STEREO_COUNT>
0

> <PUBCHEM_BOND_UDEF_STEREO_COUNT>
0

> <PUBCHEM_ISOTOPIC_ATOM_COUNT>
0

> <PUBCHEM_COMPONENT_COUNT>
1

> <PUBCHEM_CACTVS_TAUTO_COUNT>
6

> <PUBCHEM_CONFORMER_ID>
0445F56900000001

> <PUBCHEM_MMFF94_ENERGY>
69.2992

> <PUBCHEM_FEATURE_SELFOVERLAP>
55.821

> <PUBCHEM_SHAPE_FINGERPRINT>
10 15 17167583812486712373
10411042 1 17832422004500204298
10554248 39 17773024264452271957
12236239 1 18272931588502283959
125118 31 18336265644221524909
13533116 47 18336548196617855035
13668630 136 10663811976225967349
13955234 65 18115865200933442770
14170010 4 18260548913808189709
14251757 52 18202280282557698705
14251764 18 18261391178791985917
14461889 52 18041002873250150755
14565420 104 18113896057011598690
15183329 4 17418376883323599937
15475509 35 15647883822379315682
1577012 14 17917997140634033641
16994733 274 18335980896690751241
18222031 100 9727640509847588726
20157964 124 18408041792698315994
20511986 3 18060408127665890197
21033648 29 17386000617029982501
21130935 74 18261394408787234539
21150785 3 17632576068024869725
21298829 104 18411984654692405413
21792934 111 18264758887743421465
2215653 11 13470684854298577775
22224240 67 17385441042630939051
23559900 14 16298677084001281506
23576562 1 17202465854293270213
249057 25 17774164466131179507
335352 9 18410300195011034622
3472631 163 18060138768897260884
34797466 226 15769774680274418752
34934 24 18273210928442405206
397830 11 17822869653519459171
4073 2 18114186346052556379
4340502 62 16805319989884693674
445580 126 18410283710345927120
5080951 261 16298943299175357387
5104073 3 17241877693206673901
5372103 7 15266197333368304104
5385378 56 18333444331696709666
57527293 21 16733262465120331222
59682541 52 17203059517166636780
70251023 43 18124318212373974106

> <PUBCHEM_SHAPE_MULTIPOLES>
532.83
20.72
2.48
1.31
30.47
0.95
-0.12
-14.28
-0.39
-3.48
0.31
-1.15
-0.38
-0.75

> <PUBCHEM_SHAPE_SELFOVERLAP>
1124.542

> <PUBCHEM_SHAPE_VOLUME>
295.5

> <PUBCHEM_COORDINATE_TYPE>
2
5
10

$$$$
