25389533
  -OEChem-12032416163D

 69 74  0     1  0  0  0  0  0999 V2000
    2.7004    2.0463    0.2261 O   0  0  0  0  0  0  0  0  0  0  0  0
    3.1852    0.4472    1.7873 O   0  0  0  0  0  0  0  0  0  0  0  0
    7.8363   -3.7486   -0.0360 O   0  0  0  0  0  0  0  0  0  0  0  0
    0.1320    4.5215    1.2805 N   0  0  2  0  0  0  0  0  0  0  0  0
   -3.8456    2.3113   -0.8093 N   0  0  0  0  0  0  0  0  0  0  0  0
   -4.3310    1.0602   -0.8840 N   0  0  0  0  0  0  0  0  0  0  0  0
    4.2889    0.5320   -0.2754 N   0  0  0  0  0  0  0  0  0  0  0  0
   -0.9143    4.1773   -1.0796 C   0  0  2  0  0  0  0  0  0  0  0  0
   -1.9023    3.7135    0.0263 C   0  0  2  0  0  0  0  0  0  0  0  0
    1.0900    3.8027    0.3997 C   0  0  2  0  0  0  0  0  0  0  0  0
    0.4150    3.4075   -0.9314 C   0  0  0  0  0  0  0  0  0  0  0  0
   -0.6091    5.6661   -0.8078 C   0  0  0  0  0  0  0  0  0  0  0  0
   -1.1375    3.7591    1.3800 C   0  0  0  0  0  0  0  0  0  0  0  0
   -0.1636    5.8330    0.6555 C   0  0  0  0  0  0  0  0  0  0  0  0
   -2.6408    2.3980   -0.1756 C   0  0  0  0  0  0  0  0  0  0  0  0
    1.7297    2.5986    1.0942 C   0  0  0  0  0  0  0  0  0  0  0  0
   -2.3157    1.1146    0.1901 C   0  0  0  0  0  0  0  0  0  0  0  0
   -3.3921    0.3337   -0.2719 C   0  0  0  0  0  0  0  0  0  0  0  0
   -4.6078    3.3990   -1.3775 C   0  0  0  0  0  0  0  0  0  0  0  0
   -3.5413   -1.0920   -0.1382 C   0  0  0  0  0  0  0  0  0  0  0  0
    3.3864    0.9440    0.6858 C   0  0  0  0  0  0  0  0  0  0  0  0
   -4.8150   -1.6542   -0.0475 C   0  0  0  0  0  0  0  0  0  0  0  0
   -2.4148   -1.9085   -0.0999 C   0  0  0  0  0  0  0  0  0  0  0  0
   -4.9776   -3.0431    0.0827 C   0  0  0  0  0  0  0  0  0  0  0  0
   -2.5577   -3.2904    0.0291 C   0  0  0  0  0  0  0  0  0  0  0  0
   -3.8321   -3.8734    0.1216 C   0  0  0  0  0  0  0  0  0  0  0  0
    5.1897   -0.5555   -0.2144 C   0  0  0  0  0  0  0  0  0  0  0  0
   -6.2518   -3.6261    0.1753 C   0  0  0  0  0  0  0  0  0  0  0  0
   -3.9947   -5.2622    0.2520 C   0  0  0  0  0  0  0  0  0  0  0  0
    6.0340   -0.8227   -1.2920 C   0  0  0  0  0  0  0  0  0  0  0  0
    5.2346   -1.3614    0.9233 C   0  0  0  0  0  0  0  0  0  0  0  0
   -6.3947   -5.0079    0.3044 C   0  0  0  0  0  0  0  0  0  0  0  0
   -5.2684   -5.8244    0.3428 C   0  0  0  0  0  0  0  0  0  0  0  0
    6.9234   -1.8956   -1.2318 C   0  0  0  0  0  0  0  0  0  0  0  0
    6.1238   -2.4344    0.9834 C   0  0  0  0  0  0  0  0  0  0  0  0
    6.9683   -2.7015   -0.0943 C   0  0  0  0  0  0  0  0  0  0  0  0
    8.6704   -3.9639   -1.1734 C   0  0  0  0  0  0  0  0  0  0  0  0
   -1.3348    4.0385   -2.0809 H   0  0  0  0  0  0  0  0  0  0  0  0
   -2.6810    4.4880    0.0971 H   0  0  0  0  0  0  0  0  0  0  0  0
    1.9184    4.4861    0.1603 H   0  0  0  0  0  0  0  0  0  0  0  0
    1.0809    3.6585   -1.7664 H   0  0  0  0  0  0  0  0  0  0  0  0
    0.2249    2.3296   -0.9876 H   0  0  0  0  0  0  0  0  0  0  0  0
    0.1790    6.0149   -1.4862 H   0  0  0  0  0  0  0  0  0  0  0  0
   -1.4971    6.2797   -0.9991 H   0  0  0  0  0  0  0  0  0  0  0  0
   -1.7788    4.2430    2.1297 H   0  0  0  0  0  0  0  0  0  0  0  0
   -0.9397    2.7682    1.7986 H   0  0  0  0  0  0  0  0  0  0  0  0
    0.7219    6.4788    0.7037 H   0  0  0  0  0  0  0  0  0  0  0  0
   -0.9386    6.3540    1.2322 H   0  0  0  0  0  0  0  0  0  0  0  0
    0.9858    1.8305    1.3321 H   0  0  0  0  0  0  0  0  0  0  0  0
    2.2144    2.9205    2.0241 H   0  0  0  0  0  0  0  0  0  0  0  0
   -1.4257    0.7945    0.7129 H   0  0  0  0  0  0  0  0  0  0  0  0
   -5.0026    4.0056   -0.5590 H   0  0  0  0  0  0  0  0  0  0  0  0
   -3.9539    3.9905   -2.0224 H   0  0  0  0  0  0  0  0  0  0  0  0
   -5.4322    2.9939   -1.9707 H   0  0  0  0  0  0  0  0  0  0  0  0
   -5.7016   -1.0216   -0.0677 H   0  0  0  0  0  0  0  0  0  0  0  0
   -1.4098   -1.5014   -0.1788 H   0  0  0  0  0  0  0  0  0  0  0  0
    4.3105    1.0761   -1.1345 H   0  0  0  0  0  0  0  0  0  0  0  0
   -1.6636   -3.9098    0.0545 H   0  0  0  0  0  0  0  0  0  0  0  0
   -7.1466   -3.0077    0.1476 H   0  0  0  0  0  0  0  0  0  0  0  0
   -3.1284   -5.9196    0.2842 H   0  0  0  0  0  0  0  0  0  0  0  0
    6.0082   -0.2018   -2.1840 H   0  0  0  0  0  0  0  0  0  0  0  0
    4.6122   -1.2158    1.7953 H   0  0  0  0  0  0  0  0  0  0  0  0
   -7.3859   -5.4462    0.3750 H   0  0  0  0  0  0  0  0  0  0  0  0
   -5.3804   -6.9001    0.4434 H   0  0  0  0  0  0  0  0  0  0  0  0
    7.5504   -2.0461   -2.1039 H   0  0  0  0  0  0  0  0  0  0  0  0
    6.1551   -3.0595    1.8717 H   0  0  0  0  0  0  0  0  0  0  0  0
    9.2960   -4.8356   -0.9549 H   0  0  0  0  0  0  0  0  0  0  0  0
    9.3469   -3.1193   -1.3421 H   0  0  0  0  0  0  0  0  0  0  0  0
    8.0814   -4.2085   -2.0638 H   0  0  0  0  0  0  0  0  0  0  0  0
  1 16  1  0  0  0  0
  1 21  1  0  0  0  0
  2 21  2  0  0  0  0
  3 36  1  0  0  0  0
  3 37  1  0  0  0  0
  4 10  1  0  0  0  0
  4 13  1  0  0  0  0
  4 14  1  0  0  0  0
  5  6  1  0  0  0  0
  5 15  1  0  0  0  0
  5 19  1  0  0  0  0
  6 18  2  0  0  0  0
  7 21  1  0  0  0  0
  7 27  1  0  0  0  0
  7 57  1  0  0  0  0
  8  9  1  0  0  0  0
  8 11  1  0  0  0  0
  8 12  1  0  0  0  0
  8 38  1  0  0  0  0
  9 13  1  0  0  0  0
  9 15  1  0  0  0  0
  9 39  1  0  0  0  0
 10 11  1  0  0  0  0
 10 16  1  0  0  0  0
 10 40  1  0  0  0  0
 11 41  1  0  0  0  0
 11 42  1  0  0  0  0
 12 14  1  0  0  0  0
 12 43  1  0  0  0  0
 12 44  1  0  0  0  0
 13 45  1  0  0  0  0
 13 46  1  0  0  0  0
 14 47  1  0  0  0  0
 14 48  1  0  0  0  0
 15 17  2  0  0  0  0
 16 49  1  0  0  0  0
 16 50  1  0  0  0  0
 17 18  1  0  0  0  0
 17 51  1  0  0  0  0
 18 20  1  0  0  0  0
 19 52  1  0  0  0  0
 19 53  1  0  0  0  0
 19 54  1  0  0  0  0
 20 22  2  0  0  0  0
 20 23  1  0  0  0  0
 22 24  1  0  0  0  0
 22 55  1  0  0  0  0
 23 25  2  0  0  0  0
 23 56  1  0  0  0  0
 24 26  1  0  0  0  0
 24 28  2  0  0  0  0
 25 26  1  0  0  0  0
 25 58  1  0  0  0  0
 26 29  2  0  0  0  0
 27 30  2  0  0  0  0
 27 31  1  0  0  0  0
 28 32  1  0  0  0  0
 28 59  1  0  0  0  0
 29 33  1  0  0  0  0
 29 60  1  0  0  0  0
 30 34  1  0  0  0  0
 30 61  1  0  0  0  0
 31 35  2  0  0  0  0
 31 62  1  0  0  0  0
 32 33  2  0  0  0  0
 32 63  1  0  0  0  0
 33 64  1  0  0  0  0
 34 36  2  0  0  0  0
 34 65  1  0  0  0  0
 35 36  1  0  0  0  0
 35 66  1  0  0  0  0
 37 67  1  0  0  0  0
 37 68  1  0  0  0  0
 37 69  1  0  0  0  0
M  END
> <PUBCHEM_COMPOUND_CID>
25389533

> <PUBCHEM_CONFORMER_RMSD>
1.2

> <PUBCHEM_CONFORMER_DIVERSEORDER>
2
44
89
85
15
54
31
9
19
4
1
23
45
49
27
28
32
46
7
33
78
96
6
68
77
24
94
10
56
70
87
35
90
73
66
95
62
21
16
29
22
80
79
64
50
11
39
43
18
75
8
5
20
88
52
57
14
71
47
74
93
25
81
76
63
61
36
3
86
69
65
40
91
55
99
30
83
42
17
12
34
59
60
58
26
84
38
51
98
13
67
82
53
48
72
37
92
97
41

> <PUBCHEM_MMFF94_PARTIAL_CHARGES>
45
1 -0.43
10 0.27
13 0.27
14 0.27
15 -0.33
16 0.28
17 -0.15
18 0.23
19 0.26
2 -0.57
20 0.05
21 0.78
22 -0.15
23 -0.15
25 -0.15
27 0.12
28 -0.15
29 -0.15
3 -0.36
30 -0.15
31 -0.15
32 -0.15
33 -0.15
34 -0.15
35 -0.15
36 0.08
37 0.28
4 -0.81
5 0.31
51 0.15
55 0.15
56 0.15
57 0.37
58 0.15
59 0.15
6 -0.71
60 0.15
61 0.15
62 0.15
63 0.15
64 0.15
65 0.15
66 0.15
7 -0.55
9 0.18

> <PUBCHEM_EFFECTIVE_ROTOR_COUNT>
9.2

> <PUBCHEM_PHARMACOPHORE_FEATURES>
10
1 2 acceptor
1 3 acceptor
1 4 cation
1 6 acceptor
1 7 donor
5 5 6 15 17 18 rings
6 20 22 23 24 25 26 rings
6 24 26 28 29 32 33 rings
6 27 30 31 34 35 36 rings
8 4 8 9 10 11 12 13 14 rings

> <PUBCHEM_HEAVY_ATOM_COUNT>
37

> <PUBCHEM_ATOM_DEF_STEREO_COUNT>
3

> <PUBCHEM_ATOM_UDEF_STEREO_COUNT>
0

> <PUBCHEM_BOND_DEF_STEREO_COUNT>
0

> <PUBCHEM_BOND_UDEF_STEREO_COUNT>
0

> <PUBCHEM_ISOTOPIC_ATOM_COUNT>
0

> <PUBCHEM_COMPONENT_COUNT>
1

> <PUBCHEM_CACTVS_TAUTO_COUNT>
2

> <PUBCHEM_CONFORMER_ID>
018369DD00000002

> <PUBCHEM_MMFF94_ENERGY>
113.7994

> <PUBCHEM_FEATURE_SELFOVERLAP>
50.775

> <PUBCHEM_SHAPE_FINGERPRINT>
10054150 59 18123764311917574918
10319688 140 17905610260761261585
10677394 353 18338527348651457379
117089 54 18411140281201589270
11756154 67 18410295804784025599
12107183 9 18269289014138579241
12202916 173 17986661585305542653
12633046 712 18336536213674989348
12677640 9 18342178869754144057
1361 4 18411421692523527750
13785724 45 18265899249422068147
14400156 147 18269004231620831796
14747282 305 18193851551727899459
14856354 85 18197780999420070316
15320295 44 18261688008525077156
15400415 2 17401765221423622576
15448158 6 18266458900392336877
15467298 65 17046822500636581391
15530120 55 17749406883441684692
15538507 19 18266740187339922162
15803439 3 17246930958111404701
15890870 6 18048311142388194701
17492 89 18266174114069804205
19246450 95 18055095185361891153
19301676 85 18340471327689448903
19311894 1 18410292488768554267
20609170 114 18266158575959381178
20771845 38 15982547613374254180
21057603 40 16825317121550931211
21307412 95 18338505349312470133
21360442 43 18051135792312705374
21779490 112 17834408821752074518
229767 8 18338802320003734994
2835820 82 17978511159482024131
32027 91 18267016340541014365
3383291 50 18267018354554174385
3886686 26 18413393142462897809
4017518 198 17686620143389518764
404807 14 18338523061989544963
4435113 14 17486785069625597654
44426699 300 18339094734683999770
44426701 194 11170460259730766615
4756088 132 18267010842356225638
49967989 163 18196663887338023022
56611832 84 17914086263479273651
6057620 51 18189907586048715836
6441014 3 18411419522769055706
70251023 43 18048035461211349817
9831232 110 17904479954787354359
9980921 52 17557123310893492783

> <PUBCHEM_SHAPE_MULTIPOLES>
723.91
19.76
11.27
1.18
34.66
2.95
0.04
-42.29
-3.61
-10.08
0.26
1.05
0.74
3.22

> <PUBCHEM_SHAPE_SELFOVERLAP>
1593.014

> <PUBCHEM_SHAPE_VOLUME>
387.9

> <PUBCHEM_COORDINATE_TYPE>
2
5
10

$$$$
