11879578
  -OEChem-12032416373D

 64 68  0     1  0  0  0  0  0999 V2000
   -0.5100    3.6660    1.8330 S   0  0  0  0  0  0  0  0  0  0  0  0
    3.7092    2.7083   -0.0399 O   0  0  0  0  0  0  0  0  0  0  0  0
    1.5337    1.2375   -1.7944 O   0  0  0  0  0  0  0  0  0  0  0  0
    1.7530   -1.4911   -0.4665 O   0  0  0  0  0  0  0  0  0  0  0  0
   -0.6463    4.9809    1.2360 O   0  0  0  0  0  0  0  0  0  0  0  0
   -0.6932    3.4904    3.2610 O   0  0  0  0  0  0  0  0  0  0  0  0
   -4.6696    1.0023   -2.9893 O   0  0  0  0  0  0  0  0  0  0  0  0
    0.9842    2.9948    1.3873 N   0  0  0  0  0  0  0  0  0  0  0  0
    3.9628   -0.8052   -0.9958 N   0  0  0  0  0  0  0  0  0  0  0  0
    5.1713   -1.3777   -1.0858 N   0  0  0  0  0  0  0  0  0  0  0  0
    3.6437   -2.8921   -0.4997 N   0  0  0  0  0  0  0  0  0  0  0  0
    4.9701   -2.6538   -0.7810 N   0  0  0  0  0  0  0  0  0  0  0  0
   -4.3544    0.0142   -0.8720 N   0  0  0  0  0  0  0  0  0  0  0  0
   -2.3576   -3.8361    0.5453 N   0  0  0  0  0  0  0  0  0  0  0  0
    1.7066    1.4681   -0.3875 C   0  0  1  0  0  0  0  0  0  0  0  0
    3.1889    1.3673   -0.0823 C   0  0  1  0  0  0  0  0  0  0  0  0
    1.3492    2.8948   -0.0464 C   0  0  2  0  0  0  0  0  0  0  0  0
    3.7782    0.6231   -1.2656 C   0  0  2  0  0  0  0  0  0  0  0  0
    2.6462    3.6370   -0.2941 C   0  0  0  0  0  0  0  0  0  0  0  0
    2.8037    0.9457   -2.3926 C   0  0  0  0  0  0  0  0  0  0  0  0
    3.0389   -1.7346   -0.6382 C   0  0  0  0  0  0  0  0  0  0  0  0
   -1.6518    2.5816    1.0297 C   0  0  0  0  0  0  0  0  0  0  0  0
   -2.0792    2.8570   -0.2693 C   0  0  0  0  0  0  0  0  0  0  0  0
   -2.1252    1.4506    1.6948 C   0  0  0  0  0  0  0  0  0  0  0  0
    0.9688   -2.2086    0.4263 C   0  0  0  0  0  0  0  0  0  0  0  0
   -2.9801    2.0012   -0.9030 C   0  0  0  0  0  0  0  0  0  0  0  0
   -3.0261    0.5949    1.0610 C   0  0  0  0  0  0  0  0  0  0  0  0
   -3.4535    0.8701   -0.2380 C   0  0  0  0  0  0  0  0  0  0  0  0
   -0.2927   -2.6602    0.0391 C   0  0  0  0  0  0  0  0  0  0  0  0
    1.4422   -2.4778    1.7105 C   0  0  0  0  0  0  0  0  0  0  0  0
   -1.0811   -3.3810    0.9361 C   0  0  0  0  0  0  0  0  0  0  0  0
    0.6537   -3.1985    2.6075 C   0  0  0  0  0  0  0  0  0  0  0  0
   -0.6078   -3.6501    2.2205 C   0  0  0  0  0  0  0  0  0  0  0  0
   -4.8921    0.1249   -2.1614 C   0  0  0  0  0  0  0  0  0  0  0  0
   -2.8640   -3.5496   -0.7822 C   0  0  0  0  0  0  0  0  0  0  0  0
   -3.1851   -4.5841    1.4705 C   0  0  0  0  0  0  0  0  0  0  0  0
   -5.8347   -1.0102   -2.4735 C   0  0  0  0  0  0  0  0  0  0  0  0
    1.0902    0.7472    0.1532 H   0  0  0  0  0  0  0  0  0  0  0  0
    3.3953    0.9100    0.8908 H   0  0  0  0  0  0  0  0  0  0  0  0
    0.5721    3.3152   -0.6864 H   0  0  0  0  0  0  0  0  0  0  0  0
    4.7735    1.0022   -1.5303 H   0  0  0  0  0  0  0  0  0  0  0  0
    2.7784    4.5204    0.3380 H   0  0  0  0  0  0  0  0  0  0  0  0
    2.7281    3.9465   -1.3419 H   0  0  0  0  0  0  0  0  0  0  0  0
    2.6849    0.1348   -3.1177 H   0  0  0  0  0  0  0  0  0  0  0  0
    3.1203    1.8452   -2.9319 H   0  0  0  0  0  0  0  0  0  0  0  0
    1.5288    2.4390    2.0576 H   0  0  0  0  0  0  0  0  0  0  0  0
   -1.7306    3.7359   -0.8040 H   0  0  0  0  0  0  0  0  0  0  0  0
   -1.7990    1.2119    2.7029 H   0  0  0  0  0  0  0  0  0  0  0  0
   -3.2662    2.2807   -1.9073 H   0  0  0  0  0  0  0  0  0  0  0  0
   -3.3837   -0.2853    1.5894 H   0  0  0  0  0  0  0  0  0  0  0  0
   -0.6198   -2.4286   -0.9701 H   0  0  0  0  0  0  0  0  0  0  0  0
    2.4158   -2.1221    2.0369 H   0  0  0  0  0  0  0  0  0  0  0  0
   -4.6529   -0.7875   -0.3204 H   0  0  0  0  0  0  0  0  0  0  0  0
    1.0213   -3.4044    3.6087 H   0  0  0  0  0  0  0  0  0  0  0  0
   -1.1830   -4.2047    2.9552 H   0  0  0  0  0  0  0  0  0  0  0  0
   -2.9066   -2.4721   -0.9684 H   0  0  0  0  0  0  0  0  0  0  0  0
   -2.2456   -4.0278   -1.5501 H   0  0  0  0  0  0  0  0  0  0  0  0
   -3.8829   -3.9289   -0.9184 H   0  0  0  0  0  0  0  0  0  0  0  0
   -2.6945   -5.5142    1.7784 H   0  0  0  0  0  0  0  0  0  0  0  0
   -3.4283   -3.9861    2.3558 H   0  0  0  0  0  0  0  0  0  0  0  0
   -4.1400   -4.8726    1.0169 H   0  0  0  0  0  0  0  0  0  0  0  0
   -6.3263   -0.8300   -3.4335 H   0  0  0  0  0  0  0  0  0  0  0  0
   -5.2738   -1.9472   -2.5293 H   0  0  0  0  0  0  0  0  0  0  0  0
   -6.5995   -1.0878   -1.6955 H   0  0  0  0  0  0  0  0  0  0  0  0
  1  5  2  0  0  0  0
  1  6  2  0  0  0  0
  1  8  1  0  0  0  0
  1 22  1  0  0  0  0
  2 16  1  0  0  0  0
  2 19  1  0  0  0  0
  3 15  1  0  0  0  0
  3 20  1  0  0  0  0
  4 21  1  0  0  0  0
  4 25  1  0  0  0  0
  7 34  2  0  0  0  0
  8 17  1  0  0  0  0
  8 46  1  0  0  0  0
  9 10  1  0  0  0  0
  9 18  1  0  0  0  0
  9 21  1  0  0  0  0
 10 12  2  0  0  0  0
 11 12  1  0  0  0  0
 11 21  2  0  0  0  0
 13 28  1  0  0  0  0
 13 34  1  0  0  0  0
 13 53  1  0  0  0  0
 14 31  1  0  0  0  0
 14 35  1  0  0  0  0
 14 36  1  0  0  0  0
 15 16  1  0  0  0  0
 15 17  1  0  0  0  0
 15 38  1  0  0  0  0
 16 18  1  0  0  0  0
 16 39  1  0  0  0  0
 17 19  1  0  0  0  0
 17 40  1  0  0  0  0
 18 20  1  0  0  0  0
 18 41  1  0  0  0  0
 19 42  1  0  0  0  0
 19 43  1  0  0  0  0
 20 44  1  0  0  0  0
 20 45  1  0  0  0  0
 22 23  2  0  0  0  0
 22 24  1  0  0  0  0
 23 26  1  0  0  0  0
 23 47  1  0  0  0  0
 24 27  2  0  0  0  0
 24 48  1  0  0  0  0
 25 29  1  0  0  0  0
 25 30  2  0  0  0  0
 26 28  2  0  0  0  0
 26 49  1  0  0  0  0
 27 28  1  0  0  0  0
 27 50  1  0  0  0  0
 29 31  2  0  0  0  0
 29 51  1  0  0  0  0
 30 32  1  0  0  0  0
 30 52  1  0  0  0  0
 31 33  1  0  0  0  0
 32 33  2  0  0  0  0
 32 54  1  0  0  0  0
 33 55  1  0  0  0  0
 34 37  1  0  0  0  0
 35 56  1  0  0  0  0
 35 57  1  0  0  0  0
 35 58  1  0  0  0  0
 36 59  1  0  0  0  0
 36 60  1  0  0  0  0
 36 61  1  0  0  0  0
 37 62  1  0  0  0  0
 37 63  1  0  0  0  0
 37 64  1  0  0  0  0
M  END
> <PUBCHEM_COMPOUND_CID>
11879578

> <PUBCHEM_CONFORMER_RMSD>
1.6

> <PUBCHEM_CONFORMER_DIVERSEORDER>
1
48
18
34
41
68
85
11
36
4
38
71
87
46
2
44
66
52
79
20
10
74
89
75
76
70
51
93
19
49
29
92
58
69
63
21
42
84
91
54
16
61
22
81
83
53
24
86
8
30
80
73
31
35
9
33
50
40
59
17
39
27
88
32
72
3
14
12
25
15
26
45
5
82
78
64
37
7
47
62
90
28
23
60
77
67
57
55
13
56
65
43
6

> <PUBCHEM_MMFF94_PARTIAL_CHARGES>
46
1 1.45
10 -0.42
11 -0.34
13 -0.55
14 -0.84
15 0.28
16 0.28
17 0.36
18 0.26
19 0.28
2 -0.56
20 0.28
21 0.25
22 -0.01
23 -0.15
24 -0.15
25 0.08
26 -0.15
27 -0.15
28 0.12
29 -0.15
3 -0.56
30 -0.15
31 0.1
32 -0.15
33 -0.15
34 0.57
35 0.37
36 0.37
37 0.06
4 -0.15
46 0.42
47 0.15
48 0.15
49 0.15
5 -0.65
50 0.15
51 0.15
52 0.15
53 0.37
54 0.15
55 0.15
6 -0.65
7 -0.57
8 -0.91
9 0.31

> <PUBCHEM_EFFECTIVE_ROTOR_COUNT>
10.2

> <PUBCHEM_PHARMACOPHORE_FEATURES>
14
1 13 donor
1 14 cation
1 2 acceptor
1 3 acceptor
1 5 acceptor
1 6 acceptor
1 7 acceptor
1 8 donor
3 9 11 21 cation
5 2 15 16 17 19 rings
5 3 15 16 18 20 rings
5 9 10 11 12 21 rings
6 22 23 24 26 27 28 rings
6 25 29 30 31 32 33 rings

> <PUBCHEM_HEAVY_ATOM_COUNT>
37

> <PUBCHEM_ATOM_DEF_STEREO_COUNT>
4

> <PUBCHEM_ATOM_UDEF_STEREO_COUNT>
0

> <PUBCHEM_BOND_DEF_STEREO_COUNT>
0

> <PUBCHEM_BOND_UDEF_STEREO_COUNT>
0

> <PUBCHEM_ISOTOPIC_ATOM_COUNT>
0

> <PUBCHEM_COMPONENT_COUNT>
1

> <PUBCHEM_CACTVS_TAUTO_COUNT>
2

> <PUBCHEM_CONFORMER_ID>
00B5449A00000001

> <PUBCHEM_MMFF94_ENERGY>
100.3005

> <PUBCHEM_FEATURE_SELFOVERLAP>
71.754

> <PUBCHEM_SHAPE_FINGERPRINT>
10119406 146 17762656939698451582
1100329 8 18337403655397864474
11007060 377 18189347796990472020
11513181 2 17767410076065895638
11607047 403 17843651527175553018
12156800 1 16121005010875931610
12788726 201 17840015244559251129
13402501 40 17474958000369508945
13615921 28 18343015571583517735
14068700 675 18198890418951633877
15264996 163 18267307521738047845
15351339 4 18336251380386851363
15968369 26 17979888804200553685
161222 10 17908442255080128766
17138139 8 18341045237929884964
19026451 147 18201986734021432143
19311894 1 17837502855456422030
20587220 46 15983684770758800565
20764821 26 18195832853424622168
20775438 99 17696435819172722215
21133410 62 17969508113506955263
238918 7 17189519305989798587
463206 1 18411702093077919193
6376802 137 17703221820091490930
66674814 147 18189058590571617614

> <PUBCHEM_SHAPE_MULTIPOLES>
695.21
9.08
7.16
2.63
2.62
1.21
0.24
2.42
-8.25
0.75
4.78
2.02
-0.58
1.22

> <PUBCHEM_SHAPE_SELFOVERLAP>
1487.862

> <PUBCHEM_SHAPE_VOLUME>
387.7

> <PUBCHEM_COORDINATE_TYPE>
2
5
10

$$$$
