38028418
  -OEChem-12032416253D

 69 71  0     1  0  0  0  0  0999 V2000
    3.8842   -1.3010    1.1131 S   0  0  0  0  0  0  0  0  0  0  0  0
   -2.3424    3.4489    0.5825 O   0  0  0  0  0  0  0  0  0  0  0  0
    4.1029   -1.2517    2.5461 O   0  0  0  0  0  0  0  0  0  0  0  0
    4.8772   -1.9028    0.2440 O   0  0  0  0  0  0  0  0  0  0  0  0
   -1.2143   -4.1451    0.1413 O   0  0  0  0  0  0  0  0  0  0  0  0
    3.5210    0.2640    0.5460 N   0  0  0  0  0  0  0  0  0  0  0  0
   -2.1997    1.5033    1.8453 N   0  0  0  0  0  0  0  0  0  0  0  0
   -5.7126    0.1774   -0.9585 N   0  0  0  0  0  0  0  0  0  0  0  0
    1.3090    1.1037   -1.2930 C   0  0  1  0  0  0  0  0  0  0  0  0
    2.7484    1.6765   -1.2972 C   0  0  1  0  0  0  0  0  0  0  0  0
    0.2785    2.2430   -1.3097 C   0  0  0  0  0  0  0  0  0  0  0  0
    0.4323    3.1853   -0.1009 C   0  0  2  0  0  0  0  0  0  0  0  0
    1.0661    0.1672   -2.4807 C   0  0  0  0  0  0  0  0  0  0  0  0
    1.8772    3.5831    0.1227 C   0  0  0  0  0  0  0  0  0  0  0  0
    2.8983    2.9050   -0.4308 C   0  0  0  0  0  0  0  0  0  0  0  0
    3.7667    0.6168   -0.8610 C   0  0  0  0  0  0  0  0  0  0  0  0
   -0.1677    2.5628    1.1646 C   0  0  0  0  0  0  0  0  0  0  0  0
   -0.3207   -0.4611   -2.3880 C   0  0  0  0  0  0  0  0  0  0  0  0
    1.2313    0.9221   -3.7958 C   0  0  0  0  0  0  0  0  0  0  0  0
    2.1206    4.8070    0.9612 C   0  0  0  0  0  0  0  0  0  0  0  0
   -1.6795    2.5824    1.1461 C   0  0  0  0  0  0  0  0  0  0  0  0
    2.3616   -2.1509    0.8233 C   0  0  0  0  0  0  0  0  0  0  0  0
   -3.6177    1.2691    1.9944 C   0  0  0  0  0  0  0  0  0  0  0  0
    2.1443   -2.7970   -0.3938 C   0  0  0  0  0  0  0  0  0  0  0  0
    1.3773   -2.1753    1.8113 C   0  0  0  0  0  0  0  0  0  0  0  0
   -4.1668    0.4201    0.8843 C   0  0  0  0  0  0  0  0  0  0  0  0
    0.9427   -3.4673   -0.6227 C   0  0  0  0  0  0  0  0  0  0  0  0
    0.1759   -2.8457    1.5824 C   0  0  0  0  0  0  0  0  0  0  0  0
   -0.0416   -3.4917    0.3655 C   0  0  0  0  0  0  0  0  0  0  0  0
   -3.6817   -0.8629    0.6561 C   0  0  0  0  0  0  0  0  0  0  0  0
   -5.1736    0.8896    0.0563 C   0  0  0  0  0  0  0  0  0  0  0  0
   -4.2110   -1.6263   -0.3786 C   0  0  0  0  0  0  0  0  0  0  0  0
   -5.2159   -1.0653   -1.1500 C   0  0  0  0  0  0  0  0  0  0  0  0
   -1.3701   -4.7829   -1.1255 C   0  0  0  0  0  0  0  0  0  0  0  0
    1.1508    0.5220   -0.3774 H   0  0  0  0  0  0  0  0  0  0  0  0
    3.0392    2.0124   -2.2955 H   0  0  0  0  0  0  0  0  0  0  0  0
   -0.7488    1.8684   -1.3356 H   0  0  0  0  0  0  0  0  0  0  0  0
    0.4060    2.8636   -2.2045 H   0  0  0  0  0  0  0  0  0  0  0  0
   -0.1205    4.1019   -0.3492 H   0  0  0  0  0  0  0  0  0  0  0  0
    1.7942   -0.6498   -2.4622 H   0  0  0  0  0  0  0  0  0  0  0  0
    3.9138    3.2637   -0.2735 H   0  0  0  0  0  0  0  0  0  0  0  0
    4.7861    1.0135   -0.9393 H   0  0  0  0  0  0  0  0  0  0  0  0
    3.7116   -0.2641   -1.5052 H   0  0  0  0  0  0  0  0  0  0  0  0
    0.1177    3.1327    2.0572 H   0  0  0  0  0  0  0  0  0  0  0  0
    0.2056    1.5446    1.3184 H   0  0  0  0  0  0  0  0  0  0  0  0
   -0.3893   -1.3132   -3.0741 H   0  0  0  0  0  0  0  0  0  0  0  0
   -1.1192    0.2311   -2.6732 H   0  0  0  0  0  0  0  0  0  0  0  0
   -0.5306   -0.8345   -1.3809 H   0  0  0  0  0  0  0  0  0  0  0  0
    0.5146    1.7359   -3.9308 H   0  0  0  0  0  0  0  0  0  0  0  0
    1.0459    0.2274   -4.6255 H   0  0  0  0  0  0  0  0  0  0  0  0
    2.2402    1.3029   -3.9625 H   0  0  0  0  0  0  0  0  0  0  0  0
    1.5701    5.6617    0.5547 H   0  0  0  0  0  0  0  0  0  0  0  0
    3.1803    5.0831    0.9872 H   0  0  0  0  0  0  0  0  0  0  0  0
    1.7998    4.6451    1.9942 H   0  0  0  0  0  0  0  0  0  0  0  0
    3.5355    1.0335    1.2261 H   0  0  0  0  0  0  0  0  0  0  0  0
   -1.5687    0.8335    2.2756 H   0  0  0  0  0  0  0  0  0  0  0  0
   -4.1325    2.2354    2.0415 H   0  0  0  0  0  0  0  0  0  0  0  0
   -3.7739    0.7643    2.9541 H   0  0  0  0  0  0  0  0  0  0  0  0
    2.8947   -2.7855   -1.1791 H   0  0  0  0  0  0  0  0  0  0  0  0
    1.5232   -1.6718    2.7627 H   0  0  0  0  0  0  0  0  0  0  0  0
    0.8386   -3.9449   -1.5909 H   0  0  0  0  0  0  0  0  0  0  0  0
   -0.5886   -2.8586    2.3544 H   0  0  0  0  0  0  0  0  0  0  0  0
   -2.8950   -1.2803    1.2785 H   0  0  0  0  0  0  0  0  0  0  0  0
   -5.5939    1.8825    0.1825 H   0  0  0  0  0  0  0  0  0  0  0  0
   -3.8489   -2.6288   -0.5749 H   0  0  0  0  0  0  0  0  0  0  0  0
   -5.6620   -1.6196   -1.9692 H   0  0  0  0  0  0  0  0  0  0  0  0
   -2.3594   -5.2521   -1.1313 H   0  0  0  0  0  0  0  0  0  0  0  0
   -0.6355   -5.5828   -1.2668 H   0  0  0  0  0  0  0  0  0  0  0  0
   -1.3566   -4.0564   -1.9452 H   0  0  0  0  0  0  0  0  0  0  0  0
  1  3  2  0  0  0  0
  1  4  2  0  0  0  0
  1  6  1  0  0  0  0
  1 22  1  0  0  0  0
  2 21  2  0  0  0  0
  5 29  1  0  0  0  0
  5 34  1  0  0  0  0
  6 16  1  0  0  0  0
  6 55  1  0  0  0  0
  7 21  1  0  0  0  0
  7 23  1  0  0  0  0
  7 56  1  0  0  0  0
  8 31  1  0  0  0  0
  8 33  2  0  0  0  0
  9 10  1  0  0  0  0
  9 11  1  0  0  0  0
  9 13  1  0  0  0  0
  9 35  1  0  0  0  0
 10 15  1  0  0  0  0
 10 16  1  0  0  0  0
 10 36  1  0  0  0  0
 11 12  1  0  0  0  0
 11 37  1  0  0  0  0
 11 38  1  0  0  0  0
 12 14  1  0  0  0  0
 12 17  1  0  0  0  0
 12 39  1  0  0  0  0
 13 18  1  0  0  0  0
 13 19  1  0  0  0  0
 13 40  1  0  0  0  0
 14 15  2  0  0  0  0
 14 20  1  0  0  0  0
 15 41  1  0  0  0  0
 16 42  1  0  0  0  0
 16 43  1  0  0  0  0
 17 21  1  0  0  0  0
 17 44  1  0  0  0  0
 17 45  1  0  0  0  0
 18 46  1  0  0  0  0
 18 47  1  0  0  0  0
 18 48  1  0  0  0  0
 19 49  1  0  0  0  0
 19 50  1  0  0  0  0
 19 51  1  0  0  0  0
 20 52  1  0  0  0  0
 20 53  1  0  0  0  0
 20 54  1  0  0  0  0
 22 24  2  0  0  0  0
 22 25  1  0  0  0  0
 23 26  1  0  0  0  0
 23 57  1  0  0  0  0
 23 58  1  0  0  0  0
 24 27  1  0  0  0  0
 24 59  1  0  0  0  0
 25 28  2  0  0  0  0
 25 60  1  0  0  0  0
 26 30  1  0  0  0  0
 26 31  2  0  0  0  0
 27 29  2  0  0  0  0
 27 61  1  0  0  0  0
 28 29  1  0  0  0  0
 28 62  1  0  0  0  0
 30 32  2  0  0  0  0
 30 63  1  0  0  0  0
 31 64  1  0  0  0  0
 32 33  1  0  0  0  0
 32 65  1  0  0  0  0
 33 66  1  0  0  0  0
 34 67  1  0  0  0  0
 34 68  1  0  0  0  0
 34 69  1  0  0  0  0
M  END
> <PUBCHEM_COMPOUND_CID>
38028418

> <PUBCHEM_CONFORMER_RMSD>
1.4

> <PUBCHEM_CONFORMER_DIVERSEORDER>
1
48
101
123
31
104
42
87
124
88
33
37
116
109
50
56
24
4
59
108
112
128
114
120
67
27
77
129
127
131
122
74
54
113
46
44
92
78
73
61
106
35
90
125
81
20
40
63
51
38
85
82
137
98
107
68
34
79
110
84
102
17
136
75
119
53
83
64
134
22
135
39
49
117
97
86
55
69
71
12
32
70
41
80
62
111
43
95
29
118
72
105
30
25
57
58
126
47
21
130
133
91
23
9
93
3
18
94
26
96
60
66
115
15
5
36
99
28
11
65
132
52
7
19
8
16
14
121
45
89
103
10
2
13
76
100
6

> <PUBCHEM_MMFF94_PARTIAL_CHARGES>
40
1 1.45
10 0.14
12 0.14
14 -0.28
15 -0.29
16 0.36
17 0.06
2 -0.57
20 0.14
21 0.57
22 -0.01
23 0.44
24 -0.15
25 -0.15
26 -0.14
27 -0.15
28 -0.15
29 0.08
3 -0.65
30 -0.15
31 0.16
32 -0.15
33 0.16
34 0.28
4 -0.65
41 0.15
5 -0.36
55 0.42
56 0.37
59 0.15
6 -0.91
60 0.15
61 0.15
62 0.15
63 0.15
64 0.15
65 0.15
66 0.15
7 -0.73
8 -0.62

> <PUBCHEM_EFFECTIVE_ROTOR_COUNT>
11.8

> <PUBCHEM_PHARMACOPHORE_FEATURES>
11
1 2 acceptor
1 3 acceptor
1 4 acceptor
1 5 acceptor
1 6 donor
1 7 donor
1 8 acceptor
3 13 18 19 hydrophobe
6 22 24 25 27 28 29 rings
6 8 26 30 31 32 33 rings
6 9 10 11 12 14 15 rings

> <PUBCHEM_HEAVY_ATOM_COUNT>
34

> <PUBCHEM_ATOM_DEF_STEREO_COUNT>
3

> <PUBCHEM_ATOM_UDEF_STEREO_COUNT>
0

> <PUBCHEM_BOND_DEF_STEREO_COUNT>
0

> <PUBCHEM_BOND_UDEF_STEREO_COUNT>
0

> <PUBCHEM_ISOTOPIC_ATOM_COUNT>
0

> <PUBCHEM_COMPONENT_COUNT>
1

> <PUBCHEM_CACTVS_TAUTO_COUNT>
2

> <PUBCHEM_CONFORMER_ID>
0244448200000001

> <PUBCHEM_MMFF94_ENERGY>
71.5413

> <PUBCHEM_FEATURE_SELFOVERLAP>
55.841

> <PUBCHEM_SHAPE_FINGERPRINT>
10675989 125 17039786738793600627
10815517 723 18269262487972743682
1100329 8 18337665429602233202
11513181 2 18198356056485723030
13642711 20 15678817894442213831
14117953 113 18266453201050057743
14725015 67 16685122796149288427
15001296 14 18336260249604866619
15297060 5 18060143085477128595
19026451 147 18342170081881836551
20764821 26 17330004993234231939
21315764 371 18060134301994084544
21421861 104 18266763306379250265
3493558 16 18197485436370639770
35225 105 17395052019413244583
463206 1 18336558122645719289
469060 322 17766231515395451778
6287921 2 18126292930345223267
9896288 288 17767117602384262616

> <PUBCHEM_SHAPE_MULTIPOLES>
665.13
8.84
6.35
2.48
9.86
1.35
-1.44
-0.19
0.91
-2.2
1.38
-0.88
-0.15
-2.14

> <PUBCHEM_SHAPE_SELFOVERLAP>
1374.035

> <PUBCHEM_SHAPE_VOLUME>
383.2

> <PUBCHEM_COORDINATE_TYPE>
2
5
10

$$$$
