28960185
  -OEChem-12032416353D

 75 78  0     1  0  0  0  0  0999 V2000
   -2.0256   -3.4930   -1.2021 O   0  0  0  0  0  0  0  0  0  0  0  0
    5.5170   -2.1926    0.0440 O   0  0  0  0  0  0  0  0  0  0  0  0
    5.1188    0.0470   -0.0355 O   0  0  0  0  0  0  0  0  0  0  0  0
   -5.2138    2.9712   -1.4149 O   0  0  0  0  0  0  0  0  0  0  0  0
    0.1031   -3.2403   -0.2932 N   0  0  0  0  0  0  0  0  0  0  0  0
    0.6562    1.6336    1.0290 N   0  0  3  0  0  0  0  0  0  0  0  0
   -2.7917    1.8983   -0.3740 N   0  0  0  0  0  0  0  0  0  0  0  0
    2.0582   -1.8371    0.3197 C   0  0  2  0  0  0  0  0  0  0  0  0
    2.8170   -2.4315   -0.8945 C   0  0  1  0  0  0  0  0  0  0  0  0
    0.9878   -2.8315    0.8043 C   0  0  0  0  0  0  0  0  0  0  0  0
    1.8483   -2.8909   -1.9975 C   0  0  0  0  0  0  0  0  0  0  0  0
    0.7827   -3.8333   -1.4438 C   0  0  0  0  0  0  0  0  0  0  0  0
    1.4275   -0.4654    0.0497 C   0  0  0  0  0  0  0  0  0  0  0  0
   -1.9260   -2.5077    0.9183 C   0  0  0  0  0  0  0  0  0  0  0  0
    3.8728   -1.4846   -1.4648 C   0  0  0  0  0  0  0  0  0  0  0  0
   -1.2901   -3.1258   -0.2895 C   0  0  0  0  0  0  0  0  0  0  0  0
   -2.2932   -3.5909    1.9388 C   0  0  0  0  0  0  0  0  0  0  0  0
   -3.2354   -1.8124    0.5424 C   0  0  0  0  0  0  0  0  0  0  0  0
    1.2043    0.3320    1.3253 C   0  0  0  0  0  0  0  0  0  0  0  0
   -3.7864   -3.4265    2.2014 C   0  0  0  0  0  0  0  0  0  0  0  0
   -4.3222   -2.8076    0.9230 C   0  0  0  0  0  0  0  0  0  0  0  0
    4.8822   -1.0872   -0.4236 C   0  0  0  0  0  0  0  0  0  0  0  0
   -0.7981    1.8022    1.0476 C   0  0  0  0  0  0  0  0  0  0  0  0
   -1.3388    1.7396   -0.3749 C   0  0  0  0  0  0  0  0  0  0  0  0
    1.4842    2.7263    0.7346 C   0  0  0  0  0  0  0  0  0  0  0  0
   -3.3709    1.4083   -1.6326 C   0  0  0  0  0  0  0  0  0  0  0  0
   -3.1628    3.3043   -0.1627 C   0  0  0  0  0  0  0  0  0  0  0  0
    2.8700    2.5684    0.7238 C   0  0  0  0  0  0  0  0  0  0  0  0
    0.9219    3.9711    0.4527 C   0  0  0  0  0  0  0  0  0  0  0  0
   -4.8852    1.5958   -1.6137 C   0  0  0  0  0  0  0  0  0  0  0  0
   -4.6821    3.4464   -0.1775 C   0  0  0  0  0  0  0  0  0  0  0  0
    3.6937    3.6554    0.4311 C   0  0  0  0  0  0  0  0  0  0  0  0
    1.7454    5.0582    0.1600 C   0  0  0  0  0  0  0  0  0  0  0  0
    3.1313    4.9004    0.1493 C   0  0  0  0  0  0  0  0  0  0  0  0
    2.7831   -1.7242    1.1368 H   0  0  0  0  0  0  0  0  0  0  0  0
    3.3305   -3.3352   -0.5351 H   0  0  0  0  0  0  0  0  0  0  0  0
    1.4851   -3.7495    1.1457 H   0  0  0  0  0  0  0  0  0  0  0  0
    0.4610   -2.4569    1.6795 H   0  0  0  0  0  0  0  0  0  0  0  0
    2.4000   -3.3977   -2.7980 H   0  0  0  0  0  0  0  0  0  0  0  0
    1.3603   -2.0174   -2.4481 H   0  0  0  0  0  0  0  0  0  0  0  0
    0.0661   -4.0838   -2.2324 H   0  0  0  0  0  0  0  0  0  0  0  0
    1.2387   -4.7717   -1.1069 H   0  0  0  0  0  0  0  0  0  0  0  0
    2.0600    0.1361   -0.6056 H   0  0  0  0  0  0  0  0  0  0  0  0
    0.4889   -0.5912   -0.4964 H   0  0  0  0  0  0  0  0  0  0  0  0
   -1.2918   -1.7329    1.3495 H   0  0  0  0  0  0  0  0  0  0  0  0
    4.4230   -1.9774   -2.2770 H   0  0  0  0  0  0  0  0  0  0  0  0
    3.4441   -0.5843   -1.9140 H   0  0  0  0  0  0  0  0  0  0  0  0
   -1.7210   -3.4778    2.8658 H   0  0  0  0  0  0  0  0  0  0  0  0
   -2.0891   -4.5981    1.5556 H   0  0  0  0  0  0  0  0  0  0  0  0
   -3.3106   -1.5161   -0.5064 H   0  0  0  0  0  0  0  0  0  0  0  0
   -3.3547   -0.9048    1.1480 H   0  0  0  0  0  0  0  0  0  0  0  0
    0.5006   -0.2146    1.9644 H   0  0  0  0  0  0  0  0  0  0  0  0
    2.1086    0.3847    1.9419 H   0  0  0  0  0  0  0  0  0  0  0  0
   -3.9435   -2.7431    3.0446 H   0  0  0  0  0  0  0  0  0  0  0  0
   -4.2724   -4.3766    2.4415 H   0  0  0  0  0  0  0  0  0  0  0  0
   -4.4355   -3.5726    0.1463 H   0  0  0  0  0  0  0  0  0  0  0  0
   -5.2921   -2.3242    1.0710 H   0  0  0  0  0  0  0  0  0  0  0  0
   -1.0803    2.7030    1.6016 H   0  0  0  0  0  0  0  0  0  0  0  0
   -1.2547    0.9860    1.6243 H   0  0  0  0  0  0  0  0  0  0  0  0
   -1.0991    0.7524   -0.7832 H   0  0  0  0  0  0  0  0  0  0  0  0
   -0.8601    2.4618   -1.0466 H   0  0  0  0  0  0  0  0  0  0  0  0
   -3.1448    0.3480   -1.7811 H   0  0  0  0  0  0  0  0  0  0  0  0
   -2.9478    1.9621   -2.4813 H   0  0  0  0  0  0  0  0  0  0  0  0
   -2.7331    3.9347   -0.9522 H   0  0  0  0  0  0  0  0  0  0  0  0
   -2.8026    3.6774    0.8005 H   0  0  0  0  0  0  0  0  0  0  0  0
    6.1830   -1.9695    0.7288 H   0  0  0  0  0  0  0  0  0  0  0  0
    3.3645    1.6291    0.9344 H   0  0  0  0  0  0  0  0  0  0  0  0
   -0.1446    4.1641    0.4440 H   0  0  0  0  0  0  0  0  0  0  0  0
   -5.3107    1.2878   -2.5742 H   0  0  0  0  0  0  0  0  0  0  0  0
   -5.3577    0.9888   -0.8316 H   0  0  0  0  0  0  0  0  0  0  0  0
   -5.1478    2.9033    0.6540 H   0  0  0  0  0  0  0  0  0  0  0  0
   -4.9590    4.5010   -0.0805 H   0  0  0  0  0  0  0  0  0  0  0  0
    4.7729    3.5330    0.4222 H   0  0  0  0  0  0  0  0  0  0  0  0
    1.3084    6.0281   -0.0598 H   0  0  0  0  0  0  0  0  0  0  0  0
    3.7725    5.7469   -0.0788 H   0  0  0  0  0  0  0  0  0  0  0  0
  1 16  2  0  0  0  0
  2 22  1  0  0  0  0
  2 66  1  0  0  0  0
  3 22  2  0  0  0  0
  4 30  1  0  0  0  0
  4 31  1  0  0  0  0
  5 10  1  0  0  0  0
  5 12  1  0  0  0  0
  5 16  1  0  0  0  0
  6 19  1  0  0  0  0
  6 23  1  0  0  0  0
  6 25  1  0  0  0  0
  7 24  1  0  0  0  0
  7 26  1  0  0  0  0
  7 27  1  0  0  0  0
  8  9  1  0  0  0  0
  8 10  1  0  0  0  0
  8 13  1  0  0  0  0
  8 35  1  0  0  0  0
  9 11  1  0  0  0  0
  9 15  1  0  0  0  0
  9 36  1  0  0  0  0
 10 37  1  0  0  0  0
 10 38  1  0  0  0  0
 11 12  1  0  0  0  0
 11 39  1  0  0  0  0
 11 40  1  0  0  0  0
 12 41  1  0  0  0  0
 12 42  1  0  0  0  0
 13 19  1  0  0  0  0
 13 43  1  0  0  0  0
 13 44  1  0  0  0  0
 14 16  1  0  0  0  0
 14 17  1  0  0  0  0
 14 18  1  0  0  0  0
 14 45  1  0  0  0  0
 15 22  1  0  0  0  0
 15 46  1  0  0  0  0
 15 47  1  0  0  0  0
 17 20  1  0  0  0  0
 17 48  1  0  0  0  0
 17 49  1  0  0  0  0
 18 21  1  0  0  0  0
 18 50  1  0  0  0  0
 18 51  1  0  0  0  0
 19 52  1  0  0  0  0
 19 53  1  0  0  0  0
 20 21  1  0  0  0  0
 20 54  1  0  0  0  0
 20 55  1  0  0  0  0
 21 56  1  0  0  0  0
 21 57  1  0  0  0  0
 23 24  1  0  0  0  0
 23 58  1  0  0  0  0
 23 59  1  0  0  0  0
 24 60  1  0  0  0  0
 24 61  1  0  0  0  0
 25 28  2  0  0  0  0
 25 29  1  0  0  0  0
 26 30  1  0  0  0  0
 26 62  1  0  0  0  0
 26 63  1  0  0  0  0
 27 31  1  0  0  0  0
 27 64  1  0  0  0  0
 27 65  1  0  0  0  0
 28 32  1  0  0  0  0
 28 67  1  0  0  0  0
 29 33  2  0  0  0  0
 29 68  1  0  0  0  0
 30 69  1  0  0  0  0
 30 70  1  0  0  0  0
 31 71  1  0  0  0  0
 31 72  1  0  0  0  0
 32 34  2  0  0  0  0
 32 73  1  0  0  0  0
 33 34  1  0  0  0  0
 33 74  1  0  0  0  0
 34 75  1  0  0  0  0
M  END
> <PUBCHEM_COMPOUND_CID>
28960185

> <PUBCHEM_CONFORMER_RMSD>
1.2

> <PUBCHEM_CONFORMER_DIVERSEORDER>
2
37
154
23
75
12
176
30
145
1
167
121
171
134
7
177
91
105
68
89
122
129
8
96
172
90
48
153
93
168
162
156
112
50
155
148
77
114
150
32
64
69
72
98
127
169
47
27
102
61
165
88
146
28
4
67
160
120
3
49
73
123
34
76
118
163
119
126
17
26
29
125
157
117
128
147
82
60
13
151
66
101
18
139
141
70
5
166
174
161
100
132
104
10
135
41
52
106
15
45
159
124
78
86
40
9
143
46
137
107
95
57
170
111
51
144
44
59
33
173
42
54
115
164
63
6
35
31
22
140
65
21
131
43
136
16
175
80
74
39
113
38
79
20
138
11
81
87
130
158
99
25
152
116
62
55
149
19
109
53
97
36
108
56
85
133
83
103
94
142
71
110
92
84
14
24
58

> <PUBCHEM_MMFF94_PARTIAL_CHARGES>
32
1 -0.57
10 0.3
12 0.3
14 0.06
15 0.06
16 0.57
19 0.37
2 -0.65
22 0.66
23 0.37
24 0.27
25 0.1
26 0.27
27 0.27
28 -0.15
29 -0.15
3 -0.57
30 0.28
31 0.28
32 -0.15
33 -0.15
34 -0.15
4 -0.56
5 -0.66
6 -0.84
66 0.5
67 0.15
68 0.15
7 -0.81
73 0.15
74 0.15
75 0.15

> <PUBCHEM_EFFECTIVE_ROTOR_COUNT>
14.4

> <PUBCHEM_PHARMACOPHORE_FEATURES>
11
1 1 acceptor
1 2 acceptor
1 3 acceptor
1 4 acceptor
1 6 cation
1 7 cation
3 2 3 22 anion
5 14 17 18 20 21 rings
6 25 28 29 32 33 34 rings
6 4 7 26 27 30 31 rings
6 5 8 9 10 11 12 rings

> <PUBCHEM_HEAVY_ATOM_COUNT>
34

> <PUBCHEM_ATOM_DEF_STEREO_COUNT>
2

> <PUBCHEM_ATOM_UDEF_STEREO_COUNT>
0

> <PUBCHEM_BOND_DEF_STEREO_COUNT>
0

> <PUBCHEM_BOND_UDEF_STEREO_COUNT>
0

> <PUBCHEM_ISOTOPIC_ATOM_COUNT>
0

> <PUBCHEM_COMPONENT_COUNT>
1

> <PUBCHEM_CACTVS_TAUTO_COUNT>
1

> <PUBCHEM_CONFORMER_ID>
01B9E5B900000002

> <PUBCHEM_MMFF94_ENERGY>
86.7741

> <PUBCHEM_FEATURE_SELFOVERLAP>
55.879

> <PUBCHEM_SHAPE_FINGERPRINT>
11170278 141 17608113150015546363
1361 2 18269828723275212608
13911987 19 18192450584244260188
140371 6 18269844107837439768
15484559 13 18121758557403537341
15775530 1 18409169952111533881
19319366 153 15021661062955694767
20764821 26 18342172327484555191
463206 1 18267027163400086692
57527573 199 17977923723349894858

> <PUBCHEM_SHAPE_MULTIPOLES>
661.28
9.67
8.45
1.65
0.15
4.74
0.14
2.22
0.16
0.16
1.07
1.44
-1.05
4.74

> <PUBCHEM_SHAPE_SELFOVERLAP>
1372.325

> <PUBCHEM_SHAPE_VOLUME>
375.2

> <PUBCHEM_COORDINATE_TYPE>
2
5
10

$$$$
