45361535
  -OEChem-12032416143D

 73 75  0     1  0  0  0  0  0999 V2000
    2.2570   -1.8688   -1.6587 O   0  0  0  0  0  0  0  0  0  0  0  0
    7.0116   -1.4866    0.7536 O   0  0  0  0  0  0  0  0  0  0  0  0
   -3.6615    1.5984   -1.0376 O   0  0  0  0  0  0  0  0  0  0  0  0
   -6.1031    0.4649   -1.0050 O   0  0  0  0  0  0  0  0  0  0  0  0
    6.5066    2.6577   -0.8276 O   0  0  0  0  0  0  0  0  0  0  0  0
   -2.6743   -0.2769   -0.0811 N   0  0  0  0  0  0  0  0  0  0  0  0
    6.4123   -0.1999   -1.0808 N   0  0  0  0  0  0  0  0  0  0  0  0
    1.3514    0.3574    1.3076 C   0  0  1  0  0  0  0  0  0  0  0  0
    1.1811   -0.3632   -0.0711 C   0  0  2  0  0  0  0  0  0  0  0  0
   -0.2782   -0.9215   -0.2336 C   0  0  1  0  0  0  0  0  0  0  0  0
    2.3217   -1.3933   -0.3134 C   0  0  2  0  0  0  0  0  0  0  0  0
    2.7600    0.9918    1.3878 C   0  0  0  0  0  0  0  0  0  0  0  0
    0.3144    1.4996    1.4110 C   0  0  0  0  0  0  0  0  0  0  0  0
    3.7283   -0.7773   -0.1295 C   0  0  1  0  0  0  0  0  0  0  0  0
   -1.3155    0.2223   -0.0530 C   0  0  2  0  0  0  0  0  0  0  0  0
    3.8801   -0.0210    1.1902 C   0  0  0  0  0  0  0  0  0  0  0  0
   -1.1200    1.0222    1.2346 C   0  0  0  0  0  0  0  0  0  0  0  0
    1.1705   -0.6062    2.5079 C   0  0  0  0  0  0  0  0  0  0  0  0
    4.8323   -1.8357   -0.2434 C   0  0  2  0  0  0  0  0  0  0  0  0
   -0.5241   -1.6190   -1.5822 C   0  0  0  0  0  0  0  0  0  0  0  0
    4.6359   -2.9151    0.8153 C   0  0  0  0  0  0  0  0  0  0  0  0
    6.2013   -1.1747   -0.1165 C   0  0  0  0  0  0  0  0  0  0  0  0
   -3.7348    0.4630   -0.5754 C   0  0  0  0  0  0  0  0  0  0  0  0
   -5.0381   -0.3015   -0.4840 C   0  0  0  0  0  0  0  0  0  0  0  0
    7.6342    0.5662   -1.1630 C   0  0  0  0  0  0  0  0  0  0  0  0
    7.5544    1.8341   -0.3326 C   0  0  0  0  0  0  0  0  0  0  0  0
   -7.3508    0.2523   -0.4678 C   0  0  0  0  0  0  0  0  0  0  0  0
   -7.6889   -1.0042    0.0349 C   0  0  0  0  0  0  0  0  0  0  0  0
   -8.2783    1.2931   -0.4252 C   0  0  0  0  0  0  0  0  0  0  0  0
    6.3953    3.8632   -0.0836 C   0  0  0  0  0  0  0  0  0  0  0  0
   -8.9547   -1.2199    0.5800 C   0  0  0  0  0  0  0  0  0  0  0  0
   -9.5440    1.0776    0.1199 C   0  0  0  0  0  0  0  0  0  0  0  0
   -9.8823   -0.1789    0.6224 C   0  0  0  0  0  0  0  0  0  0  0  0
    1.2905    0.4009   -0.8575 H   0  0  0  0  0  0  0  0  0  0  0  0
   -0.4556   -1.6802    0.5392 H   0  0  0  0  0  0  0  0  0  0  0  0
    2.1444   -2.2472    0.3424 H   0  0  0  0  0  0  0  0  0  0  0  0
    2.8579    1.7734    0.6221 H   0  0  0  0  0  0  0  0  0  0  0  0
    2.8965    1.4934    2.3545 H   0  0  0  0  0  0  0  0  0  0  0  0
    0.5234    2.2580    0.6445 H   0  0  0  0  0  0  0  0  0  0  0  0
    0.4054    2.0092    2.3787 H   0  0  0  0  0  0  0  0  0  0  0  0
    3.8527   -0.0447   -0.9382 H   0  0  0  0  0  0  0  0  0  0  0  0
   -1.2016    0.9175   -0.8964 H   0  0  0  0  0  0  0  0  0  0  0  0
    3.8973   -0.6843    2.0574 H   0  0  0  0  0  0  0  0  0  0  0  0
    4.8262    0.5321    1.2156 H   0  0  0  0  0  0  0  0  0  0  0  0
   -1.7852    1.8955    1.2338 H   0  0  0  0  0  0  0  0  0  0  0  0
   -1.4275    0.4247    2.1015 H   0  0  0  0  0  0  0  0  0  0  0  0
    0.1661   -1.0339    2.5611 H   0  0  0  0  0  0  0  0  0  0  0  0
    1.3427   -0.0793    3.4538 H   0  0  0  0  0  0  0  0  0  0  0  0
    1.8646   -1.4505    2.4757 H   0  0  0  0  0  0  0  0  0  0  0  0
    4.7998   -2.3100   -1.2327 H   0  0  0  0  0  0  0  0  0  0  0  0
   -0.2115   -0.9867   -2.4195 H   0  0  0  0  0  0  0  0  0  0  0  0
   -1.5808   -1.8646   -1.7292 H   0  0  0  0  0  0  0  0  0  0  0  0
    0.0065   -2.5737   -1.6354 H   0  0  0  0  0  0  0  0  0  0  0  0
   -2.8580   -1.1843    0.3379 H   0  0  0  0  0  0  0  0  0  0  0  0
    2.3572   -1.1066   -2.2542 H   0  0  0  0  0  0  0  0  0  0  0  0
    3.7157   -3.4877    0.6800 H   0  0  0  0  0  0  0  0  0  0  0  0
    5.4480   -3.6494    0.7328 H   0  0  0  0  0  0  0  0  0  0  0  0
    4.6805   -2.5488    1.8435 H   0  0  0  0  0  0  0  0  0  0  0  0
    5.7153   -0.0406   -1.8009 H   0  0  0  0  0  0  0  0  0  0  0  0
   -5.1814   -0.5344    0.5797 H   0  0  0  0  0  0  0  0  0  0  0  0
   -4.9391   -1.2287   -1.0600 H   0  0  0  0  0  0  0  0  0  0  0  0
    7.7754    0.8129   -2.2205 H   0  0  0  0  0  0  0  0  0  0  0  0
    8.4741   -0.0530   -0.8317 H   0  0  0  0  0  0  0  0  0  0  0  0
    8.5058    2.3739   -0.3999 H   0  0  0  0  0  0  0  0  0  0  0  0
    7.3610    1.5894    0.7186 H   0  0  0  0  0  0  0  0  0  0  0  0
   -7.0049   -1.8468   -0.0039 H   0  0  0  0  0  0  0  0  0  0  0  0
   -8.0201    2.2739   -0.8151 H   0  0  0  0  0  0  0  0  0  0  0  0
    5.5801    4.4553   -0.5079 H   0  0  0  0  0  0  0  0  0  0  0  0
    7.3206    4.4434   -0.1513 H   0  0  0  0  0  0  0  0  0  0  0  0
    6.1607    3.6469    0.9632 H   0  0  0  0  0  0  0  0  0  0  0  0
   -9.2207   -2.1997    0.9658 H   0  0  0  0  0  0  0  0  0  0  0  0
  -10.2663    1.8880    0.1528 H   0  0  0  0  0  0  0  0  0  0  0  0
  -10.8683   -0.3471    1.0454 H   0  0  0  0  0  0  0  0  0  0  0  0
  1 11  1  0  0  0  0
  1 55  1  0  0  0  0
  2 22  2  0  0  0  0
  3 23  2  0  0  0  0
  4 24  1  0  0  0  0
  4 27  1  0  0  0  0
  5 26  1  0  0  0  0
  5 30  1  0  0  0  0
  6 15  1  0  0  0  0
  6 23  1  0  0  0  0
  6 54  1  0  0  0  0
  7 22  1  0  0  0  0
  7 25  1  0  0  0  0
  7 59  1  0  0  0  0
  8  9  1  0  0  0  0
  8 12  1  0  0  0  0
  8 13  1  0  0  0  0
  8 18  1  0  0  0  0
  9 10  1  0  0  0  0
  9 11  1  0  0  0  0
  9 34  1  0  0  0  0
 10 15  1  0  0  0  0
 10 20  1  0  0  0  0
 10 35  1  0  0  0  0
 11 14  1  0  0  0  0
 11 36  1  0  0  0  0
 12 16  1  0  0  0  0
 12 37  1  0  0  0  0
 12 38  1  0  0  0  0
 13 17  1  0  0  0  0
 13 39  1  0  0  0  0
 13 40  1  0  0  0  0
 14 16  1  0  0  0  0
 14 19  1  0  0  0  0
 14 41  1  0  0  0  0
 15 17  1  0  0  0  0
 15 42  1  0  0  0  0
 16 43  1  0  0  0  0
 16 44  1  0  0  0  0
 17 45  1  0  0  0  0
 17 46  1  0  0  0  0
 18 47  1  0  0  0  0
 18 48  1  0  0  0  0
 18 49  1  0  0  0  0
 19 21  1  0  0  0  0
 19 22  1  0  0  0  0
 19 50  1  0  0  0  0
 20 51  1  0  0  0  0
 20 52  1  0  0  0  0
 20 53  1  0  0  0  0
 21 56  1  0  0  0  0
 21 57  1  0  0  0  0
 21 58  1  0  0  0  0
 23 24  1  0  0  0  0
 24 60  1  0  0  0  0
 24 61  1  0  0  0  0
 25 26  1  0  0  0  0
 25 62  1  0  0  0  0
 25 63  1  0  0  0  0
 26 64  1  0  0  0  0
 26 65  1  0  0  0  0
 27 28  2  0  0  0  0
 27 29  1  0  0  0  0
 28 31  1  0  0  0  0
 28 66  1  0  0  0  0
 29 32  2  0  0  0  0
 29 67  1  0  0  0  0
 30 68  1  0  0  0  0
 30 69  1  0  0  0  0
 30 70  1  0  0  0  0
 31 33  2  0  0  0  0
 31 71  1  0  0  0  0
 32 33  1  0  0  0  0
 32 72  1  0  0  0  0
 33 73  1  0  0  0  0
M  END
> <PUBCHEM_COMPOUND_CID>
45361535

> <PUBCHEM_CONFORMER_RMSD>
1.2

> <PUBCHEM_CONFORMER_DIVERSEORDER>
1
114
77
61
87
82
4
83
60
112
49
52
54
85
12
59
45
99
101
9
53
104
7
74
96
102
89
51
80
68
75
17
79
8
95
81
35
76
34
36
38
41
5
28
27
115
43
86
118
55
106
94
42
10
32
109
69
62
25
56
73
2
90
97
63
29
111
15
57
103
14
65
22
71
98
108
88
91
66
16
64
46
107
92
67
48
40
110
19
39
105
18
47
93
44
70
84
50
24
37
116
13
58
23
78
21
26
6
100
31
20
30
33
3
117
11
113
72

> <PUBCHEM_MMFF94_PARTIAL_CHARGES>
30
1 -0.68
11 0.28
15 0.3
19 0.06
2 -0.57
22 0.57
23 0.57
24 0.34
25 0.3
26 0.28
27 0.08
28 -0.15
29 -0.15
3 -0.57
30 0.28
31 -0.15
32 -0.15
33 -0.15
4 -0.36
5 -0.56
54 0.37
55 0.4
59 0.37
6 -0.73
66 0.15
67 0.15
7 -0.73
71 0.15
72 0.15
73 0.15

> <PUBCHEM_EFFECTIVE_ROTOR_COUNT>
12.6

> <PUBCHEM_PHARMACOPHORE_FEATURES>
12
1 1 acceptor
1 1 donor
1 2 acceptor
1 21 hydrophobe
1 3 acceptor
1 4 acceptor
1 5 acceptor
1 6 donor
1 7 donor
6 27 28 29 31 32 33 rings
6 8 9 10 13 15 17 rings
6 8 9 11 12 14 16 rings

> <PUBCHEM_HEAVY_ATOM_COUNT>
33

> <PUBCHEM_ATOM_DEF_STEREO_COUNT>
6

> <PUBCHEM_ATOM_UDEF_STEREO_COUNT>
1

> <PUBCHEM_BOND_DEF_STEREO_COUNT>
0

> <PUBCHEM_BOND_UDEF_STEREO_COUNT>
0

> <PUBCHEM_ISOTOPIC_ATOM_COUNT>
0

> <PUBCHEM_COMPONENT_COUNT>
1

> <PUBCHEM_CACTVS_TAUTO_COUNT>
4

> <PUBCHEM_CONFORMER_ID>
02B4297F00000001

> <PUBCHEM_MMFF94_ENERGY>
95.9041

> <PUBCHEM_FEATURE_SELFOVERLAP>
60.919

> <PUBCHEM_SHAPE_FINGERPRINT>
10162869 55 13407080327631033723
10299344 5 18272932713651612799
10666366 153 14692577597871215193
10883706 142 17095238125570834352
11211813 74 18342736351497142992
11409948 35 11599741540332785332
11638347 137 10663819689428029317
13617811 41 16558757815040165592
14251764 18 17561365063274707667
15361156 5 18343297111496622407
15840311 113 18408326601440054636
16120349 18 18409164424430484700
17686467 74 17967816068370904165
18365409 1 16660938771925505403
18608769 82 18408884032545428015
20105231 36 17632579340600643639
20554085 129 16153422866176711968
20771845 140 14345785068351558416
20771845 171 17774732987290043814
21049683 271 18342458153316696113
21150785 3 17749109976394407035
21267235 1 17703508813652932811
21781055 127 15841008731987747073
21792938 169 12180111112334109657
21792961 116 18129092334647121325
22224240 67 15502375625431155651
23522609 53 17774183243949990680
24893992 56 12252196177546610369
249057 3 16702296867544098655
3178227 256 17989484100558122631
335352 9 17775560945320551167
34797466 226 18040152902915339126
3552219 110 18201445766212655713
4073 2 18410292545563809259
4098825 35 18409164377201934813
4149490 64 18040994012854289218
439807 62 18338796715551182379
45270241 37 18335707130884632510
474113 269 9511195044534492044
5470011 282 18408323272117524783
57634706 280 17676202515982579576
6081469 158 11383835961029527363
67123 10 18259987068088787271

> <PUBCHEM_SHAPE_MULTIPOLES>
639.82
30.22
2.52
1.45
56.18
1.23
-0.45
6.79
4.01
-6.19
0.22
-1
-0.1
-0.39

> <PUBCHEM_SHAPE_SELFOVERLAP>
1317.516

> <PUBCHEM_SHAPE_VOLUME>
364.1

> <PUBCHEM_COORDINATE_TYPE>
2
5
10

$$$$
