75536882
  -OEChem-12032416303D

 35 36  0     1  0  0  0  0  0999 V2000
    4.2573    0.2214    0.2925 O   0  0  0  0  0  0  0  0  0  0  0  0
    1.4365    2.5627    0.4191 O   0  0  0  0  0  0  0  0  0  0  0  0
    0.4461   -2.8428   -0.8124 O   0  0  0  0  0  0  0  0  0  0  0  0
    1.5153   -1.0951    0.3272 N   0  0  0  0  0  0  0  0  0  0  0  0
   -5.7199    1.2576    0.1530 N   0  0  0  0  0  0  0  0  0  0  0  0
    2.0114    1.3090    0.0547 C   0  0  2  0  0  0  0  0  0  0  0  0
    1.4539    0.2249    0.9750 C   0  0  0  0  0  0  0  0  0  0  0  0
    2.8370   -1.7224    0.2510 C   0  0  0  0  0  0  0  0  0  0  0  0
    3.5376    1.4320    0.0965 C   0  0  0  0  0  0  0  0  0  0  0  0
    3.8426   -0.8719   -0.5187 C   0  0  0  0  0  0  0  0  0  0  0  0
    0.4163   -1.7551   -0.2387 C   0  0  0  0  0  0  0  0  0  0  0  0
   -0.8988   -1.1082   -0.1544 C   0  0  0  0  0  0  0  0  0  0  0  0
    1.5392    3.5028   -0.6383 C   0  0  0  0  0  0  0  0  0  0  0  0
   -1.3170   -0.2434   -1.1656 C   0  0  0  0  0  0  0  0  0  0  0  0
   -1.7305   -1.3598    0.9367 C   0  0  0  0  0  0  0  0  0  0  0  0
   -2.5672    0.3698   -1.0859 C   0  0  0  0  0  0  0  0  0  0  0  0
   -2.9808   -0.7465    1.0165 C   0  0  0  0  0  0  0  0  0  0  0  0
   -3.3993    0.1182    0.0051 C   0  0  0  0  0  0  0  0  0  0  0  0
   -4.6798    0.7470    0.0867 C   0  0  0  0  0  0  0  0  0  0  0  0
    1.6998    1.0647   -0.9704 H   0  0  0  0  0  0  0  0  0  0  0  0
    2.0088    0.1767    1.9199 H   0  0  0  0  0  0  0  0  0  0  0  0
    0.4248    0.4697    1.2504 H   0  0  0  0  0  0  0  0  0  0  0  0
    2.7551   -2.7020   -0.2303 H   0  0  0  0  0  0  0  0  0  0  0  0
    3.1742   -1.8829    1.2817 H   0  0  0  0  0  0  0  0  0  0  0  0
    3.9024    1.8928   -0.8293 H   0  0  0  0  0  0  0  0  0  0  0  0
    3.8373    2.1106    0.9039 H   0  0  0  0  0  0  0  0  0  0  0  0
    3.4650   -0.5375   -1.4918 H   0  0  0  0  0  0  0  0  0  0  0  0
    4.7371   -1.4763   -0.7028 H   0  0  0  0  0  0  0  0  0  0  0  0
    1.0175    4.4137   -0.3306 H   0  0  0  0  0  0  0  0  0  0  0  0
    1.0572    3.1285   -1.5471 H   0  0  0  0  0  0  0  0  0  0  0  0
    2.5806    3.7673   -0.8402 H   0  0  0  0  0  0  0  0  0  0  0  0
   -0.6762   -0.0401   -2.0197 H   0  0  0  0  0  0  0  0  0  0  0  0
   -1.4140   -2.0318    1.7301 H   0  0  0  0  0  0  0  0  0  0  0  0
   -2.8789    1.0419   -1.8819 H   0  0  0  0  0  0  0  0  0  0  0  0
   -3.6178   -0.9524    1.8733 H   0  0  0  0  0  0  0  0  0  0  0  0
  1  9  1  0  0  0  0
  1 10  1  0  0  0  0
  2  6  1  0  0  0  0
  2 13  1  0  0  0  0
  3 11  2  0  0  0  0
  4  7  1  0  0  0  0
  4  8  1  0  0  0  0
  4 11  1  0  0  0  0
  5 19  3  0  0  0  0
  6  7  1  0  0  0  0
  6  9  1  0  0  0  0
  6 20  1  0  0  0  0
  7 21  1  0  0  0  0
  7 22  1  0  0  0  0
  8 10  1  0  0  0  0
  8 23  1  0  0  0  0
  8 24  1  0  0  0  0
  9 25  1  0  0  0  0
  9 26  1  0  0  0  0
 10 27  1  0  0  0  0
 10 28  1  0  0  0  0
 11 12  1  0  0  0  0
 12 14  2  0  0  0  0
 12 15  1  0  0  0  0
 13 29  1  0  0  0  0
 13 30  1  0  0  0  0
 13 31  1  0  0  0  0
 14 16  1  0  0  0  0
 14 32  1  0  0  0  0
 15 17  2  0  0  0  0
 15 33  1  0  0  0  0
 16 18  2  0  0  0  0
 16 34  1  0  0  0  0
 17 18  1  0  0  0  0
 17 35  1  0  0  0  0
 18 19  1  0  0  0  0
M  END
> <PUBCHEM_COMPOUND_CID>
75536882

> <PUBCHEM_CONFORMER_RMSD>
0.6

> <PUBCHEM_CONFORMER_DIVERSEORDER>
4
35
10
21
11
46
12
55
45
37
40
22
53
28
23
17
34
15
27
38
44
51
16
54
25
50
41
33
32
49
29
36
14
9
19
26
43
18
48
2
6
52
31
30
3
47
8
42
20
13
39
5
7
24
1

> <PUBCHEM_MMFF94_PARTIAL_CHARGES>
23
1 -0.56
10 0.28
11 0.54
12 0.09
13 0.28
14 -0.15
15 -0.15
16 -0.15
17 -0.15
18 0.07
19 0.48
2 -0.56
3 -0.57
32 0.15
33 0.15
34 0.15
35 0.15
4 -0.66
5 -0.56
6 0.28
7 0.3
8 0.3
9 0.28

> <PUBCHEM_EFFECTIVE_ROTOR_COUNT>
4.4

> <PUBCHEM_PHARMACOPHORE_FEATURES>
6
1 1 acceptor
1 2 acceptor
1 3 acceptor
1 5 acceptor
6 12 14 15 16 17 18 rings
7 1 4 6 7 8 9 10 rings

> <PUBCHEM_HEAVY_ATOM_COUNT>
19

> <PUBCHEM_ATOM_DEF_STEREO_COUNT>
1

> <PUBCHEM_ATOM_UDEF_STEREO_COUNT>
0

> <PUBCHEM_BOND_DEF_STEREO_COUNT>
0

> <PUBCHEM_BOND_UDEF_STEREO_COUNT>
0

> <PUBCHEM_ISOTOPIC_ATOM_COUNT>
0

> <PUBCHEM_COMPONENT_COUNT>
1

> <PUBCHEM_CACTVS_TAUTO_COUNT>
1

> <PUBCHEM_CONFORMER_ID>
048099F200000004

> <PUBCHEM_MMFF94_ENERGY>
58.0965

> <PUBCHEM_FEATURE_SELFOVERLAP>
30.449

> <PUBCHEM_SHAPE_FINGERPRINT>
10366900 7 17603583058206434179
104564 63 18198345040078743968
11045977 3 18113625577794224035
11471102 20 18412824659710293010
12011746 2 18335423426561211277
12236239 1 17346593045736672687
12633257 1 17967521389804460617
14026960 21 18263931119007504723
14252887 29 12685090350135388162
14713325 29 16600139322494692800
14787075 74 10665526140217142338
14866123 147 15739635575845686131
1601671 61 18408324389136341980
18219364 16 18261944228128144332
18785283 64 18188218726559579005
20645476 183 17346588678277153263
20681677 76 18262238936405833955
21033648 29 17386271135244889069
21041028 32 17975685096195273850
21285901 2 17914908530508660126
22094290 62 18339640169765581032
22289505 5 18194675973997956989
23175994 123 18337678490502886814
23227448 37 18412261770482636455
23558518 356 17976810205812491698
238 59 17758348098496990357
25 1 18411133623848974854
2748010 2 18339064992177470100
3060560 45 18130507448724684382
350125 39 18051696843257975378
3524813 1 18113891637442440349
4325135 7 18272086120301112199
474 4 18412825776976549665
5939293 188 18410570712829827536
7832392 63 18340762762610922294
8272917 22 18200879457283123919

> <PUBCHEM_SHAPE_MULTIPOLES>
363.44
8.5
2.85
0.99
6.68
1.62
0.05
2.88
-0.64
-2.13
0.4
0.29
-0.12
0.27

> <PUBCHEM_SHAPE_SELFOVERLAP>
757.082

> <PUBCHEM_SHAPE_VOLUME>
202.3

> <PUBCHEM_COORDINATE_TYPE>
2
5
10

$$$$
