40776839
  -OEChem-12032416223D

 75 79  0     1  0  0  0  0  0999 V2000
   -4.9849    1.9743    0.5122 S   0  0  0  0  0  0  0  0  0  0  0  0
   -5.2648    2.3058    1.8963 O   0  0  0  0  0  0  0  0  0  0  0  0
   -5.8532    2.4583   -0.5438 O   0  0  0  0  0  0  0  0  0  0  0  0
    1.5773    3.9455    1.3511 O   0  0  0  0  0  0  0  0  0  0  0  0
   -3.0282   -2.7190    1.8469 N   0  0  2  0  0  0  0  0  0  0  0  0
   -4.7860    0.2658    0.3870 N   0  0  0  0  0  0  0  0  0  0  0  0
   -0.5579   -2.0368   -1.9285 N   0  0  0  0  0  0  0  0  0  0  0  0
    1.6230   -1.0295   -2.1193 N   0  0  0  0  0  0  0  0  0  0  0  0
    7.0104   -0.1154    1.0869 N   0  0  0  0  0  0  0  0  0  0  0  0
    0.5142    3.8715   -0.7519 N   0  0  0  0  0  0  0  0  0  0  0  0
   -2.6362   -3.5027   -0.6057 C   0  0  2  0  0  0  0  0  0  0  0  0
   -1.2807   -3.2070    0.0940 C   0  0  2  0  0  0  0  0  0  0  0  0
   -3.8908   -1.9397    0.9203 C   0  0  2  0  0  0  0  0  0  0  0  0
   -3.5251   -2.2425   -0.5488 C   0  0  0  0  0  0  0  0  0  0  0  0
   -3.3403   -4.5927    0.2306 C   0  0  0  0  0  0  0  0  0  0  0  0
   -1.6016   -2.5575    1.4704 C   0  0  0  0  0  0  0  0  0  0  0  0
   -3.3852   -4.1509    1.7038 C   0  0  0  0  0  0  0  0  0  0  0  0
   -3.8594   -0.4391    1.2180 C   0  0  0  0  0  0  0  0  0  0  0  0
   -0.2271   -2.4280   -0.6804 C   0  0  0  0  0  0  0  0  0  0  0  0
    0.9919   -2.1618   -0.0912 C   0  0  0  0  0  0  0  0  0  0  0  0
    1.8870   -1.4518   -0.8654 C   0  0  0  0  0  0  0  0  0  0  0  0
    0.4001   -1.3518   -2.5818 C   0  0  0  0  0  0  0  0  0  0  0  0
   -3.3520    2.5378    0.1366 C   0  0  0  0  0  0  0  0  0  0  0  0
    3.1974   -1.1102   -0.3657 C   0  0  0  0  0  0  0  0  0  0  0  0
    0.0721   -0.9037   -3.9658 C   0  0  0  0  0  0  0  0  0  0  0  0
   -2.4202    2.7076    1.1607 C   0  0  0  0  0  0  0  0  0  0  0  0
   -2.9953    2.8129   -1.1836 C   0  0  0  0  0  0  0  0  0  0  0  0
    4.0837   -2.1181    0.0144 C   0  0  0  0  0  0  0  0  0  0  0  0
    3.5778    0.2279   -0.2638 C   0  0  0  0  0  0  0  0  0  0  0  0
   -1.1320    3.1524    0.8647 C   0  0  0  0  0  0  0  0  0  0  0  0
   -1.7069    3.2577   -1.4796 C   0  0  0  0  0  0  0  0  0  0  0  0
    5.3501   -1.7879    0.4969 C   0  0  0  0  0  0  0  0  0  0  0  0
    4.8442    0.5582    0.2186 C   0  0  0  0  0  0  0  0  0  0  0  0
   -0.7751    3.4275   -0.4556 C   0  0  0  0  0  0  0  0  0  0  0  0
    5.7302   -0.4497    0.5990 C   0  0  0  0  0  0  0  0  0  0  0  0
    7.9388   -1.1550    1.4850 C   0  0  0  0  0  0  0  0  0  0  0  0
    7.4178    1.2719    1.1895 C   0  0  0  0  0  0  0  0  0  0  0  0
    1.5757    4.0982    0.1339 C   0  0  0  0  0  0  0  0  0  0  0  0
    2.8115    4.5773   -0.5857 C   0  0  0  0  0  0  0  0  0  0  0  0
   -2.5007   -3.8412   -1.6383 H   0  0  0  0  0  0  0  0  0  0  0  0
   -0.8122   -4.1850    0.2856 H   0  0  0  0  0  0  0  0  0  0  0  0
   -4.9311   -2.2595    1.0831 H   0  0  0  0  0  0  0  0  0  0  0  0
   -3.0053   -1.4008   -1.0200 H   0  0  0  0  0  0  0  0  0  0  0  0
   -4.4423   -2.4169   -1.1252 H   0  0  0  0  0  0  0  0  0  0  0  0
   -2.8064   -5.5461    0.1441 H   0  0  0  0  0  0  0  0  0  0  0  0
   -4.3571   -4.7542   -0.1477 H   0  0  0  0  0  0  0  0  0  0  0  0
   -0.9786   -3.0284    2.2428 H   0  0  0  0  0  0  0  0  0  0  0  0
   -1.3241   -1.4977    1.4974 H   0  0  0  0  0  0  0  0  0  0  0  0
   -4.3856   -4.3308    2.1164 H   0  0  0  0  0  0  0  0  0  0  0  0
   -2.7044   -4.7658    2.3062 H   0  0  0  0  0  0  0  0  0  0  0  0
   -2.8519   -0.0554    1.0406 H   0  0  0  0  0  0  0  0  0  0  0  0
   -4.1054   -0.2650    2.2716 H   0  0  0  0  0  0  0  0  0  0  0  0
   -4.9927   -0.1396   -0.5339 H   0  0  0  0  0  0  0  0  0  0  0  0
    1.2283   -2.4919    0.9136 H   0  0  0  0  0  0  0  0  0  0  0  0
    0.9551   -0.9629   -4.6096 H   0  0  0  0  0  0  0  0  0  0  0  0
   -0.7112   -1.5294   -4.4051 H   0  0  0  0  0  0  0  0  0  0  0  0
   -0.2791    0.1323   -3.9443 H   0  0  0  0  0  0  0  0  0  0  0  0
   -2.6764    2.4939    2.1946 H   0  0  0  0  0  0  0  0  0  0  0  0
   -3.7028    2.6798   -1.9971 H   0  0  0  0  0  0  0  0  0  0  0  0
    3.8085   -3.1675   -0.0628 H   0  0  0  0  0  0  0  0  0  0  0  0
    2.8986    1.0272   -0.5519 H   0  0  0  0  0  0  0  0  0  0  0  0
   -0.4658    3.2581    1.7095 H   0  0  0  0  0  0  0  0  0  0  0  0
   -1.4418    3.4657   -2.5131 H   0  0  0  0  0  0  0  0  0  0  0  0
    6.0032   -2.6079    0.7783 H   0  0  0  0  0  0  0  0  0  0  0  0
    5.0914    1.6134    0.2800 H   0  0  0  0  0  0  0  0  0  0  0  0
    0.6960    4.0502   -1.7374 H   0  0  0  0  0  0  0  0  0  0  0  0
    8.8859   -0.7365    1.8434 H   0  0  0  0  0  0  0  0  0  0  0  0
    8.1867   -1.8085    0.6412 H   0  0  0  0  0  0  0  0  0  0  0  0
    7.5330   -1.7545    2.3075 H   0  0  0  0  0  0  0  0  0  0  0  0
    8.4365    1.3669    1.5819 H   0  0  0  0  0  0  0  0  0  0  0  0
    6.7675    1.8257    1.8758 H   0  0  0  0  0  0  0  0  0  0  0  0
    7.4158    1.7588    0.2080 H   0  0  0  0  0  0  0  0  0  0  0  0
    2.6022    5.5252   -1.0894 H   0  0  0  0  0  0  0  0  0  0  0  0
    3.1234    3.8320   -1.3230 H   0  0  0  0  0  0  0  0  0  0  0  0
    3.6234    4.7269    0.1314 H   0  0  0  0  0  0  0  0  0  0  0  0
  1  2  2  0  0  0  0
  1  3  2  0  0  0  0
  1  6  1  0  0  0  0
  1 23  1  0  0  0  0
  4 38  2  0  0  0  0
  5 13  1  0  0  0  0
  5 16  1  0  0  0  0
  5 17  1  0  0  0  0
  6 18  1  0  0  0  0
  6 53  1  0  0  0  0
  7 19  2  0  0  0  0
  7 22  1  0  0  0  0
  8 21  1  0  0  0  0
  8 22  2  0  0  0  0
  9 35  1  0  0  0  0
  9 36  1  0  0  0  0
  9 37  1  0  0  0  0
 10 34  1  0  0  0  0
 10 38  1  0  0  0  0
 10 66  1  0  0  0  0
 11 12  1  0  0  0  0
 11 14  1  0  0  0  0
 11 15  1  0  0  0  0
 11 40  1  0  0  0  0
 12 16  1  0  0  0  0
 12 19  1  0  0  0  0
 12 41  1  0  0  0  0
 13 14  1  0  0  0  0
 13 18  1  0  0  0  0
 13 42  1  0  0  0  0
 14 43  1  0  0  0  0
 14 44  1  0  0  0  0
 15 17  1  0  0  0  0
 15 45  1  0  0  0  0
 15 46  1  0  0  0  0
 16 47  1  0  0  0  0
 16 48  1  0  0  0  0
 17 49  1  0  0  0  0
 17 50  1  0  0  0  0
 18 51  1  0  0  0  0
 18 52  1  0  0  0  0
 19 20  1  0  0  0  0
 20 21  2  0  0  0  0
 20 54  1  0  0  0  0
 21 24  1  0  0  0  0
 22 25  1  0  0  0  0
 23 26  2  0  0  0  0
 23 27  1  0  0  0  0
 24 28  2  0  0  0  0
 24 29  1  0  0  0  0
 25 55  1  0  0  0  0
 25 56  1  0  0  0  0
 25 57  1  0  0  0  0
 26 30  1  0  0  0  0
 26 58  1  0  0  0  0
 27 31  2  0  0  0  0
 27 59  1  0  0  0  0
 28 32  1  0  0  0  0
 28 60  1  0  0  0  0
 29 33  2  0  0  0  0
 29 61  1  0  0  0  0
 30 34  2  0  0  0  0
 30 62  1  0  0  0  0
 31 34  1  0  0  0  0
 31 63  1  0  0  0  0
 32 35  2  0  0  0  0
 32 64  1  0  0  0  0
 33 35  1  0  0  0  0
 33 65  1  0  0  0  0
 36 67  1  0  0  0  0
 36 68  1  0  0  0  0
 36 69  1  0  0  0  0
 37 70  1  0  0  0  0
 37 71  1  0  0  0  0
 37 72  1  0  0  0  0
 38 39  1  0  0  0  0
 39 73  1  0  0  0  0
 39 74  1  0  0  0  0
 39 75  1  0  0  0  0
M  END
> <PUBCHEM_COMPOUND_CID>
40776839

> <PUBCHEM_CONFORMER_RMSD>
1.4

> <PUBCHEM_CONFORMER_DIVERSEORDER>
1
95
117
44
88
69
34
116
53
22
94
131
4
128
135
37
64
41
139
61
81
27
111
10
83
87
75
58
106
130
140
108
82
107
32
38
147
143
12
30
18
77
8
118
102
100
17
71
42
73
74
16
25
60
124
93
126
35
39
123
136
119
29
144
99
50
141
63
125
76
137
46
26
84
98
96
142
21
78
127
134
55
15
51
66
114
68
86
9
2
120
3
19
70
132
54
110
121
97
47
129
52
90
92
109
36
91
122
62
115
40
6
133
113
45
103
104
5
72
59
112
138
11
89
101
33
67
31
23
105
57
7
85
43
49
65
79
13
48
145
146
28
56
80
14
20
24

> <PUBCHEM_MMFF94_PARTIAL_CHARGES>
46
1 1.45
10 -0.55
12 0.14
13 0.27
16 0.27
17 0.27
18 0.36
19 0.17
2 -0.65
20 -0.15
21 0.31
22 0.48
23 -0.01
25 0.14
26 -0.15
27 -0.15
28 -0.15
29 -0.15
3 -0.65
30 -0.15
31 -0.15
32 -0.15
33 -0.15
34 0.12
35 0.1
36 0.37
37 0.37
38 0.57
39 0.06
4 -0.57
5 -0.81
53 0.42
54 0.15
58 0.15
59 0.15
6 -0.91
60 0.15
61 0.15
62 0.15
63 0.15
64 0.15
65 0.15
66 0.37
7 -0.62
8 -0.62
9 -0.84

> <PUBCHEM_EFFECTIVE_ROTOR_COUNT>
10.2

> <PUBCHEM_PHARMACOPHORE_FEATURES>
13
1 10 donor
1 2 acceptor
1 3 acceptor
1 4 acceptor
1 5 cation
1 6 donor
1 7 acceptor
1 9 cation
3 7 8 22 cation
6 23 26 27 30 31 34 rings
6 24 28 29 32 33 35 rings
6 7 8 19 20 21 22 rings
8 5 11 12 13 14 15 16 17 rings

> <PUBCHEM_HEAVY_ATOM_COUNT>
39

> <PUBCHEM_ATOM_DEF_STEREO_COUNT>
3

> <PUBCHEM_ATOM_UDEF_STEREO_COUNT>
0

> <PUBCHEM_BOND_DEF_STEREO_COUNT>
0

> <PUBCHEM_BOND_UDEF_STEREO_COUNT>
0

> <PUBCHEM_ISOTOPIC_ATOM_COUNT>
0

> <PUBCHEM_COMPONENT_COUNT>
1

> <PUBCHEM_CACTVS_TAUTO_COUNT>
2

> <PUBCHEM_CONFORMER_ID>
026E348700000001

> <PUBCHEM_MMFF94_ENERGY>
117.582

> <PUBCHEM_FEATURE_SELFOVERLAP>
65.99

> <PUBCHEM_SHAPE_FINGERPRINT>
10256941 240 17174329088669259836
10554248 39 15410900657149354070
10838868 49 18042953303239051434
10864689 126 18122630452928806540
11136131 41 17901940070338429920
11146851 88 18410008801931626293
11456790 92 17968948604028840043
12422481 6 18128530660357483728
13402501 40 18341333280049007281
14040221 10 18044626799393189850
14114207 22 17619058873440894549
14725015 67 18261397776114791451
15264996 154 17322685527206630878
15264996 74 17416663895325133613
15475509 84 18263082274877733222
15876981 60 18261674890898382367
19309040 13 15696335975046467083
20764821 26 18338529598644717981
21133410 221 18057580218356769408
354706 109 18196348369564931368
373842 8 18267018543226487768
392239 28 18267305326766835109
550186 7 18342749481159238038

> <PUBCHEM_SHAPE_MULTIPOLES>
758.96
14.28
7.12
2.15
24.52
3.62
-1.84
-0.41
8.76
-6.31
0.74
-0.4
-0.78
0.69

> <PUBCHEM_SHAPE_SELFOVERLAP>
1619.161

> <PUBCHEM_SHAPE_VOLUME>
424.2

> <PUBCHEM_COORDINATE_TYPE>
2
5
10

$$$$
