11867501
  -OEChem-12032416353D

 59 63  0     1  0  0  0  0  0999 V2000
    9.1287   -1.7539   -0.4571 F   0  0  0  0  0  0  0  0  0  0  0  0
    9.8893    0.2747   -0.3564 F   0  0  0  0  0  0  0  0  0  0  0  0
    8.6917   -0.3510   -2.0601 F   0  0  0  0  0  0  0  0  0  0  0  0
    0.1561    0.3159   -1.0682 O   0  0  0  0  0  0  0  0  0  0  0  0
   -1.7726   -1.8230    0.0547 O   0  0  0  0  0  0  0  0  0  0  0  0
    1.7969   -1.5445    0.1633 O   0  0  0  0  0  0  0  0  0  0  0  0
    2.4331    0.1938    1.5063 O   0  0  0  0  0  0  0  0  0  0  0  0
   -2.7836    1.6607   -0.4542 N   0  0  0  0  0  0  0  0  0  0  0  0
   -2.0099    2.7500   -0.4020 N   0  0  0  0  0  0  0  0  0  0  0  0
   -4.0989    3.2497    0.1955 N   0  0  0  0  0  0  0  0  0  0  0  0
   -2.8213    3.7220   -0.0032 N   0  0  0  0  0  0  0  0  0  0  0  0
    3.9660   -0.9265    0.1369 N   0  0  0  0  0  0  0  0  0  0  0  0
   -8.3185   -1.7170    0.1216 N   0  0  0  0  0  0  0  0  0  0  0  0
   -1.6440   -0.4059    0.3047 C   0  0  1  0  0  0  0  0  0  0  0  0
   -0.1620   -0.0884    0.2726 C   0  0  1  0  0  0  0  0  0  0  0  0
   -2.2244    0.3697   -0.8618 C   0  0  2  0  0  0  0  0  0  0  0  0
    0.4699   -1.4152    0.6204 C   0  0  1  0  0  0  0  0  0  0  0  0
   -1.0510    0.4434   -1.8335 C   0  0  0  0  0  0  0  0  0  0  0  0
   -0.4622   -2.3963   -0.0516 C   0  0  0  0  0  0  0  0  0  0  0  0
   -4.0515    1.9690   -0.0907 C   0  0  0  0  0  0  0  0  0  0  0  0
    2.7246   -0.6662    0.6842 C   0  0  0  0  0  0  0  0  0  0  0  0
   -5.1410    1.0282   -0.0368 C   0  0  0  0  0  0  0  0  0  0  0  0
   -5.3992    0.3241    1.1406 C   0  0  0  0  0  0  0  0  0  0  0  0
   -5.9406    0.8185   -1.1615 C   0  0  0  0  0  0  0  0  0  0  0  0
   -6.4539   -0.5872    1.1930 C   0  0  0  0  0  0  0  0  0  0  0  0
   -6.9955   -0.0927   -1.1089 C   0  0  0  0  0  0  0  0  0  0  0  0
   -7.2520   -0.7956    0.0683 C   0  0  0  0  0  0  0  0  0  0  0  0
    5.1874   -0.2636    0.3949 C   0  0  0  0  0  0  0  0  0  0  0  0
    6.3364   -0.6766   -0.2604 C   0  0  0  0  0  0  0  0  0  0  0  0
    5.2120    0.7865    1.2989 C   0  0  0  0  0  0  0  0  0  0  0  0
    7.5416   -0.0225   -0.0053 C   0  0  0  0  0  0  0  0  0  0  0  0
   -9.0057   -1.9726    1.3719 C   0  0  0  0  0  0  0  0  0  0  0  0
   -8.7320   -2.4307   -1.0701 C   0  0  0  0  0  0  0  0  0  0  0  0
    6.4172    1.4408    1.5541 C   0  0  0  0  0  0  0  0  0  0  0  0
    7.5820    1.0363    0.9021 C   0  0  0  0  0  0  0  0  0  0  0  0
    8.7871   -0.4542   -0.7024 C   0  0  0  0  0  0  0  0  0  0  0  0
   -2.1085   -0.2003    1.2742 H   0  0  0  0  0  0  0  0  0  0  0  0
    0.1035    0.7360    0.9397 H   0  0  0  0  0  0  0  0  0  0  0  0
   -3.0444   -0.1683   -1.3513 H   0  0  0  0  0  0  0  0  0  0  0  0
    0.4272   -1.5798    1.7057 H   0  0  0  0  0  0  0  0  0  0  0  0
   -1.0117    1.3591   -2.4309 H   0  0  0  0  0  0  0  0  0  0  0  0
   -1.0764   -0.4056   -2.5261 H   0  0  0  0  0  0  0  0  0  0  0  0
   -0.4504   -3.3788    0.4296 H   0  0  0  0  0  0  0  0  0  0  0  0
   -0.2221   -2.5410   -1.1110 H   0  0  0  0  0  0  0  0  0  0  0  0
    4.0088   -1.6888   -0.5352 H   0  0  0  0  0  0  0  0  0  0  0  0
   -4.7840    0.4732    2.0250 H   0  0  0  0  0  0  0  0  0  0  0  0
   -5.7545    1.3602   -2.0860 H   0  0  0  0  0  0  0  0  0  0  0  0
   -6.6184   -1.1268    2.1213 H   0  0  0  0  0  0  0  0  0  0  0  0
   -7.6049   -0.2228   -1.9987 H   0  0  0  0  0  0  0  0  0  0  0  0
    6.3062   -1.5016   -0.9678 H   0  0  0  0  0  0  0  0  0  0  0  0
    4.3537    1.1560    1.8409 H   0  0  0  0  0  0  0  0  0  0  0  0
   -8.4287   -2.6608    1.9985 H   0  0  0  0  0  0  0  0  0  0  0  0
   -9.1862   -1.0455    1.9279 H   0  0  0  0  0  0  0  0  0  0  0  0
   -9.9862   -2.4298    1.1972 H   0  0  0  0  0  0  0  0  0  0  0  0
   -9.3586   -1.7955   -1.7050 H   0  0  0  0  0  0  0  0  0  0  0  0
   -9.3182   -3.3206   -0.8148 H   0  0  0  0  0  0  0  0  0  0  0  0
   -7.8690   -2.7780   -1.6495 H   0  0  0  0  0  0  0  0  0  0  0  0
    6.4497    2.2655    2.2604 H   0  0  0  0  0  0  0  0  0  0  0  0
    8.5110    1.5583    1.1142 H   0  0  0  0  0  0  0  0  0  0  0  0
  1 36  1  0  0  0  0
  2 36  1  0  0  0  0
  3 36  1  0  0  0  0
  4 15  1  0  0  0  0
  4 18  1  0  0  0  0
  5 14  1  0  0  0  0
  5 19  1  0  0  0  0
  6 17  1  0  0  0  0
  6 21  1  0  0  0  0
  7 21  2  0  0  0  0
  8  9  1  0  0  0  0
  8 16  1  0  0  0  0
  8 20  1  0  0  0  0
  9 11  2  0  0  0  0
 10 11  1  0  0  0  0
 10 20  2  0  0  0  0
 12 21  1  0  0  0  0
 12 28  1  0  0  0  0
 12 45  1  0  0  0  0
 13 27  1  0  0  0  0
 13 32  1  0  0  0  0
 13 33  1  0  0  0  0
 14 15  1  0  0  0  0
 14 16  1  0  0  0  0
 14 37  1  0  0  0  0
 15 17  1  0  0  0  0
 15 38  1  0  0  0  0
 16 18  1  0  0  0  0
 16 39  1  0  0  0  0
 17 19  1  0  0  0  0
 17 40  1  0  0  0  0
 18 41  1  0  0  0  0
 18 42  1  0  0  0  0
 19 43  1  0  0  0  0
 19 44  1  0  0  0  0
 20 22  1  0  0  0  0
 22 23  2  0  0  0  0
 22 24  1  0  0  0  0
 23 25  1  0  0  0  0
 23 46  1  0  0  0  0
 24 26  2  0  0  0  0
 24 47  1  0  0  0  0
 25 27  2  0  0  0  0
 25 48  1  0  0  0  0
 26 27  1  0  0  0  0
 26 49  1  0  0  0  0
 28 29  1  0  0  0  0
 28 30  2  0  0  0  0
 29 31  2  0  0  0  0
 29 50  1  0  0  0  0
 30 34  1  0  0  0  0
 30 51  1  0  0  0  0
 31 35  1  0  0  0  0
 31 36  1  0  0  0  0
 32 52  1  0  0  0  0
 32 53  1  0  0  0  0
 32 54  1  0  0  0  0
 33 55  1  0  0  0  0
 33 56  1  0  0  0  0
 33 57  1  0  0  0  0
 34 35  2  0  0  0  0
 34 58  1  0  0  0  0
 35 59  1  0  0  0  0
M  END
> <PUBCHEM_COMPOUND_CID>
11867501

> <PUBCHEM_CONFORMER_RMSD>
1

> <PUBCHEM_CONFORMER_DIVERSEORDER>
1
155
151
13
103
201
118
174
137
2
157
144
71
213
192
84
199
70
55
81
156
153
22
39
78
49
16
74
79
159
90
65
29
54
165
26
76
148
59
182
12
21
194
166
91
9
82
104
60
209
119
100
169
62
183
30
185
33
150
53
102
204
197
14
193
186
149
205
132
129
75
61
72
48
68
154
113
51
207
123
23
107
105
195
77
161
34
181
18
19
83
143
50
32
117
95
163
202
176
7
138
191
114
38
73
63
139
64
45
131
121
190
24
203
36
42
4
127
37
3
28
211
162
106
134
10
57
67
6
175
180
98
46
146
170
112
69
80
126
141
178
200
58
56
133
189
17
11
172
8
115
15
164
87
35
31
20
130
212
101
152
88
158
120
110
47
66
122
44
214
27
128
99
198
25
94
93
86
43
5
135
167
179
208
109
147
92
85
184
111
41
89
171
124
40
116
188
173
97
125
142
108
136
168
52
96
177
210
140
160
196
187
206
145

> <PUBCHEM_MMFF94_PARTIAL_CHARGES>
44
1 -0.34
10 -0.34
12 -0.55
13 -0.84
14 0.28
15 0.28
16 0.26
17 0.28
18 0.28
19 0.28
2 -0.34
20 0.13
21 0.78
22 0.05
23 -0.15
24 -0.15
25 -0.15
26 -0.15
27 0.1
28 0.12
29 -0.15
3 -0.34
30 -0.15
31 -0.14
32 0.37
33 0.37
34 -0.15
35 -0.15
36 1.16
4 -0.56
45 0.37
46 0.15
47 0.15
48 0.15
49 0.15
5 -0.56
50 0.15
51 0.15
58 0.15
59 0.15
6 -0.43
7 -0.57
8 0.31
9 -0.42

> <PUBCHEM_EFFECTIVE_ROTOR_COUNT>
9.2

> <PUBCHEM_PHARMACOPHORE_FEATURES>
11
1 12 donor
1 13 cation
1 4 acceptor
1 5 acceptor
1 7 acceptor
3 8 10 20 cation
5 4 14 15 16 18 rings
5 5 14 15 17 19 rings
5 8 9 10 11 20 rings
6 22 23 24 25 26 27 rings
6 28 29 30 31 34 35 rings

> <PUBCHEM_HEAVY_ATOM_COUNT>
36

> <PUBCHEM_ATOM_DEF_STEREO_COUNT>
4

> <PUBCHEM_ATOM_UDEF_STEREO_COUNT>
0

> <PUBCHEM_BOND_DEF_STEREO_COUNT>
0

> <PUBCHEM_BOND_UDEF_STEREO_COUNT>
0

> <PUBCHEM_ISOTOPIC_ATOM_COUNT>
0

> <PUBCHEM_COMPONENT_COUNT>
1

> <PUBCHEM_CACTVS_TAUTO_COUNT>
2

> <PUBCHEM_CONFORMER_ID>
00B5156D00000001

> <PUBCHEM_MMFF94_ENERGY>
110.4703

> <PUBCHEM_FEATURE_SELFOVERLAP>
56.524

> <PUBCHEM_SHAPE_FINGERPRINT>
10 15 17749387057714461282
10076449 9 18060140942071546016
10162869 55 16443346503067099430
10674148 151 12175618477778856878
11103572 95 8718836383956426200
11135609 99 17968947521507014443
11135926 11 14405180630069311436
11146851 88 17603589655814121603
11211813 128 18341896307644421943
11273773 118 15123513563060233697
11315181 36 17676207949358853329
11497681 19 18260263010678589811
11973863 73 12895075089477163340
12144600 37 18269839726997347006
12373685 5 15647318707788496969
12643181 29 9727628401928924081
12664476 115 18412542120541977496
12758862 11 18341893055758119907
13692115 27 17316490792849773203
13782708 43 18195247719818190215
14118638 360 18186798037646322850
14394314 77 10375865273372484900
14444916 359 16988846076888656486
1454969 45 18040151816610535399
14856354 85 18413103992173758183
15183329 4 16343695500767615200
15347591 1 18119806911347502395
15461852 350 18040435490515530287
15728490 51 18334856139002583207
1577012 14 18115022983615948392
16628084 112 13254255834304435868
18335252 98 18412829074926481035
18603816 31 12757440491976941969
18608769 82 18342171193761128843
19315958 150 7853576837595182952
19611394 137 18260837050426896201
20105231 36 18273213109895843294
21365058 27 17132112455448004903
21792938 79 15286209543793772014
21792961 116 18202568341998933594
24771293 8 17749391425458980701
25019877 29 18131350812729108775
2747138 104 18410571812599899273
3092352 35 16343703248867681159
3383291 50 18408321107317007162
4098825 35 17346598543727036172
44317340 157 16916492783754560456
444769 64 10879986969825707629
5381727 24 18261106362705564322
54039377 194 18261393395496653655
550186 72 18263358105930969765
57527293 21 17316188143551917329
58260988 521 17489591182113095399
59521270 166 10880002353860511459
6126387 218 8862940572372370358
6673363 416 18413110554662727028
6691757 9 16226056578801288553
6703917 75 18336555953797978162

> <PUBCHEM_SHAPE_MULTIPOLES>
665.68
32.03
2.59
1.35
33.02
1.6
-0.12
-11.24
-1.64
-4.57
0.01
0.16
-0.01
1.68

> <PUBCHEM_SHAPE_SELFOVERLAP>
1455.688

> <PUBCHEM_SHAPE_VOLUME>
365.4

> <PUBCHEM_COORDINATE_TYPE>
2
5
10

$$$$
