56775498
  -OEChem-12032416213D

 45 48  0     0  0  0  0  0  0999 V2000
    6.7609    2.4539    0.6095 F   0  0  0  0  0  0  0  0  0  0  0  0
   -2.8532   -3.6591    1.1523 O   0  0  0  0  0  0  0  0  0  0  0  0
    2.5262   -2.1353   -0.0649 O   0  0  0  0  0  0  0  0  0  0  0  0
   -1.6851    2.6514   -0.7444 O   0  0  0  0  0  0  0  0  0  0  0  0
   -2.1058   -0.8236    0.4077 N   0  0  0  0  0  0  0  0  0  0  0  0
    1.3531   -2.8228   -0.3515 N   0  0  0  0  0  0  0  0  0  0  0  0
   -1.8283   -2.1911   -0.0097 C   0  0  0  0  0  0  0  0  0  0  0  0
   -1.5509   -3.0357    1.2286 C   0  0  0  0  0  0  0  0  0  0  0  0
   -3.1433   -2.9594   -0.0791 C   0  0  0  0  0  0  0  0  0  0  0  0
   -0.8588   -2.2688   -1.1966 C   0  0  0  0  0  0  0  0  0  0  0  0
   -2.6189   -0.0558   -0.7245 C   0  0  0  0  0  0  0  0  0  0  0  0
    0.5051   -1.8901   -0.7941 C   0  0  0  0  0  0  0  0  0  0  0  0
   -3.4600    1.1097   -0.2764 C   0  0  0  0  0  0  0  0  0  0  0  0
    1.0817   -0.6083   -0.8086 C   0  0  0  0  0  0  0  0  0  0  0  0
    2.3522   -0.8175   -0.3412 C   0  0  0  0  0  0  0  0  0  0  0  0
   -2.9526    2.4086   -0.3074 C   0  0  0  0  0  0  0  0  0  0  0  0
   -4.7602    0.8793    0.1731 C   0  0  0  0  0  0  0  0  0  0  0  0
    3.4932    0.0298   -0.0941 C   0  0  0  0  0  0  0  0  0  0  0  0
   -3.7453    3.4772    0.1113 C   0  0  0  0  0  0  0  0  0  0  0  0
   -5.5529    1.9480    0.5920 C   0  0  0  0  0  0  0  0  0  0  0  0
   -5.0455    3.2469    0.5611 C   0  0  0  0  0  0  0  0  0  0  0  0
    3.4139    1.3988   -0.3495 C   0  0  0  0  0  0  0  0  0  0  0  0
    4.6763   -0.5201    0.3994 C   0  0  0  0  0  0  0  0  0  0  0  0
    4.5176    2.2178   -0.1118 C   0  0  0  0  0  0  0  0  0  0  0  0
    5.7801    0.2987    0.6371 C   0  0  0  0  0  0  0  0  0  0  0  0
    5.7007    1.6677    0.3815 C   0  0  0  0  0  0  0  0  0  0  0  0
   -1.4131   -2.5100    2.1795 H   0  0  0  0  0  0  0  0  0  0  0  0
   -0.7697   -3.7964    1.1339 H   0  0  0  0  0  0  0  0  0  0  0  0
   -3.2310   -3.6665   -0.9112 H   0  0  0  0  0  0  0  0  0  0  0  0
   -4.0813   -2.4017    0.0019 H   0  0  0  0  0  0  0  0  0  0  0  0
   -1.1906   -1.6870   -2.0629 H   0  0  0  0  0  0  0  0  0  0  0  0
   -0.8367   -3.3059   -1.5616 H   0  0  0  0  0  0  0  0  0  0  0  0
   -1.3189   -0.3314    0.8288 H   0  0  0  0  0  0  0  0  0  0  0  0
   -3.2533   -0.6586   -1.3889 H   0  0  0  0  0  0  0  0  0  0  0  0
   -1.7971    0.2999   -1.3549 H   0  0  0  0  0  0  0  0  0  0  0  0
    0.6364    0.3258   -1.1174 H   0  0  0  0  0  0  0  0  0  0  0  0
   -5.1698   -0.1267    0.2016 H   0  0  0  0  0  0  0  0  0  0  0  0
   -3.3631    4.4943    0.0925 H   0  0  0  0  0  0  0  0  0  0  0  0
   -6.5653    1.7688    0.9419 H   0  0  0  0  0  0  0  0  0  0  0  0
   -5.6629    4.0788    0.8871 H   0  0  0  0  0  0  0  0  0  0  0  0
    2.5056    1.8558   -0.7339 H   0  0  0  0  0  0  0  0  0  0  0  0
    4.7764   -1.5817    0.6107 H   0  0  0  0  0  0  0  0  0  0  0  0
   -1.5092    3.6066   -0.6938 H   0  0  0  0  0  0  0  0  0  0  0  0
    4.4566    3.2837   -0.3105 H   0  0  0  0  0  0  0  0  0  0  0  0
    6.7016   -0.1287    1.0211 H   0  0  0  0  0  0  0  0  0  0  0  0
  1 26  1  0  0  0  0
  2  8  1  0  0  0  0
  2  9  1  0  0  0  0
  3  6  1  0  0  0  0
  3 15  1  0  0  0  0
  4 16  1  0  0  0  0
  4 43  1  0  0  0  0
  5  7  1  0  0  0  0
  5 11  1  0  0  0  0
  5 33  1  0  0  0  0
  6 12  2  0  0  0  0
  7  8  1  0  0  0  0
  7  9  1  0  0  0  0
  7 10  1  0  0  0  0
  8 27  1  0  0  0  0
  8 28  1  0  0  0  0
  9 29  1  0  0  0  0
  9 30  1  0  0  0  0
 10 12  1  0  0  0  0
 10 31  1  0  0  0  0
 10 32  1  0  0  0  0
 11 13  1  0  0  0  0
 11 34  1  0  0  0  0
 11 35  1  0  0  0  0
 12 14  1  0  0  0  0
 13 16  1  0  0  0  0
 13 17  2  0  0  0  0
 14 15  2  0  0  0  0
 14 36  1  0  0  0  0
 15 18  1  0  0  0  0
 16 19  2  0  0  0  0
 17 20  1  0  0  0  0
 17 37  1  0  0  0  0
 18 22  2  0  0  0  0
 18 23  1  0  0  0  0
 19 21  1  0  0  0  0
 19 38  1  0  0  0  0
 20 21  2  0  0  0  0
 20 39  1  0  0  0  0
 21 40  1  0  0  0  0
 22 24  1  0  0  0  0
 22 41  1  0  0  0  0
 23 25  2  0  0  0  0
 23 42  1  0  0  0  0
 24 26  2  0  0  0  0
 24 44  1  0  0  0  0
 25 26  1  0  0  0  0
 25 45  1  0  0  0  0
M  END
> <PUBCHEM_COMPOUND_CID>
56775498

> <PUBCHEM_CONFORMER_RMSD>
0.8

> <PUBCHEM_CONFORMER_DIVERSEORDER>
1
11
116
149
27
189
111
88
187
161
215
77
193
143
148
168
210
170
255
217
46
202
67
124
228
208
91
119
109
172
48
165
169
140
244
128
252
132
157
155
261
211
68
178
264
98
107
235
142
72
113
166
138
153
59
95
197
238
99
135
231
89
139
198
71
260
144
146
257
137
251
203
239
130
171
151
221
205
57
243
154
218
232
100
237
206
12
164
73
173
258
118
200
32
101
84
225
245
31
230
54
265
75
241
123
233
213
115
97
82
163
191
185
262
61
190
152
159
92
158
180
64
52
199
136
226
40
114
250
240
56
234
34
214
227
28
177
179
125
174
53
15
131
223
222
21
201
246
87
24
86
39
196
120
186
156
216
80
117
176
188
83
22
236
254
195
224
96
16
93
74
112
25
70
150
50
248
37
220
256
19
184
209
49
263
192
104
121
94
133
147
207
204
194
23
141
249
65
175
69
55
127
122
134
9
10
58
29
18
212
242
47
30
42
102
219
106
259
45
229
247
126
182
167
85
105
17
44
13
66
162
8
81
20
181
108
26
60
51
145
110
90
103
3
4
160
78
14
62
7
129
63
5
6
33
36
43
2
183
79
253
38
76
41
35

> <PUBCHEM_MMFF94_PARTIAL_CHARGES>
37
1 -0.19
10 0.18
11 0.41
12 0.11
13 -0.14
14 -0.15
15 0.09
16 0.08
17 -0.15
18 0.05
19 -0.15
2 -0.52
20 -0.15
21 -0.15
22 -0.15
23 -0.15
24 -0.15
25 -0.15
26 0.19
3 -0.02
33 0.36
36 0.15
37 0.15
38 0.15
39 0.15
4 -0.53
40 0.15
41 0.15
42 0.15
43 0.45
44 0.15
45 0.15
5 -0.84
6 -0.41
7 0.21
8 0.26
9 0.26

> <PUBCHEM_EFFECTIVE_ROTOR_COUNT>
6.8

> <PUBCHEM_PHARMACOPHORE_FEATURES>
9
1 2 acceptor
1 4 donor
1 5 cation
1 5 donor
1 6 acceptor
4 2 7 8 9 rings
5 3 6 12 14 15 rings
6 13 16 17 19 20 21 rings
6 18 22 23 24 25 26 rings

> <PUBCHEM_HEAVY_ATOM_COUNT>
26

> <PUBCHEM_ATOM_DEF_STEREO_COUNT>
0

> <PUBCHEM_ATOM_UDEF_STEREO_COUNT>
0

> <PUBCHEM_BOND_DEF_STEREO_COUNT>
0

> <PUBCHEM_BOND_UDEF_STEREO_COUNT>
0

> <PUBCHEM_ISOTOPIC_ATOM_COUNT>
0

> <PUBCHEM_COMPONENT_COUNT>
1

> <PUBCHEM_CACTVS_TAUTO_COUNT>
3

> <PUBCHEM_CONFORMER_ID>
0362534A00000001

> <PUBCHEM_MMFF94_ENERGY>
62.3873

> <PUBCHEM_FEATURE_SELFOVERLAP>
45.672

> <PUBCHEM_SHAPE_FINGERPRINT>
10074138 170 18041573524206495499
10670039 82 18190755317866373732
10675989 125 17693659221014971777
11135609 187 18338500964509699957
12107183 9 18263070025758145242
12390115 104 18341624758289081646
12403259 118 18338790234645680930
12633257 1 18187632566908416530
12788726 201 17827381052322538215
12925494 130 18411976979316692521
12930653 34 18408888468413500350
13402501 40 18341049635871485201
13540713 4 18270983279019537158
13965767 371 17896319112544037398
14251764 38 18337955713614974692
14251764 75 17984711021845523313
14347329 18 18343575261857403272
14395042 24 18188498007830790313
14565420 104 18120944906552177041
14713325 29 18337954601107584595
14849402 71 17977952280328911282
15142526 21 18193000305766598081
15338160 23 18337674242796049004
19246450 95 17394415063279260360
20715895 44 18269272365969724088
21302155 148 18409738391017517020
21401589 2 18411986828119209929
23227448 37 18411983559422276605
23559900 14 18270400465285392238
24771293 8 18200048356101362163
2838139 119 18342452595586109046
3117164 225 18189886540350607058
3246875 12 18411703154530946961
50009960 94 17174090852262429571
5081480 168 17342977804549776822
5104073 3 18189037829264088234
5171179 24 17486194910379349881
5969126 39 18127684049373757967
636775 72 17911228744823329576
6376802 137 17318179685190173179
6700243 42 17552394319418007150
7288768 16 18260550000551109507
7808743 9 18411695487054104385
9981440 41 18411136939606270051

> <PUBCHEM_SHAPE_MULTIPOLES>
500.22
13.87
4.91
0.94
12.6
0.91
-0.03
-14.47
-3.47
-4.87
-0.73
-0.21
0.4
0.57

> <PUBCHEM_SHAPE_SELFOVERLAP>
1094.097

> <PUBCHEM_SHAPE_VOLUME>
273.3

> <PUBCHEM_COORDINATE_TYPE>
2
5
10

$$$$
