71693478
  -OEChem-12032416233D

 56 58  0     1  0  0  0  0  0999 V2000
   -5.1407    0.8435    0.8566 S   0  0  0  0  0  0  0  0  0  0  0  0
   -3.0519   -4.4214   -0.7925 F   0  0  0  0  0  0  0  0  0  0  0  0
    1.8855    2.9272   -0.3314 O   0  0  0  0  0  0  0  0  0  0  0  0
    2.0099   -1.1067   -1.2703 O   0  0  0  0  0  0  0  0  0  0  0  0
    5.3447    2.2124    0.1335 O   0  0  0  0  0  0  0  0  0  0  0  0
    4.7246   -0.9820   -1.1868 O   0  0  0  0  0  0  0  0  0  0  0  0
   -6.5591    0.8479    0.5511 O   0  0  0  0  0  0  0  0  0  0  0  0
   -4.6957    1.0909    2.2146 O   0  0  0  0  0  0  0  0  0  0  0  0
    3.5113    0.7960    0.3892 N   0  0  0  0  0  0  0  0  0  0  0  0
    5.6760   -2.2247    0.5256 N   0  0  0  0  0  0  0  0  0  0  0  0
   -4.3293    1.9030   -0.2330 N   0  0  0  0  0  0  0  0  0  0  0  0
    2.0370    0.6338    0.3663 C   0  0  1  0  0  0  0  0  0  0  0  0
    1.3829    1.6217   -0.6191 C   0  0  1  0  0  0  0  0  0  0  0  0
    1.6087   -0.8067    0.0508 C   0  0  0  0  0  0  0  0  0  0  0  0
   -0.1264    1.6950   -0.5166 C   0  0  0  0  0  0  0  0  0  0  0  0
    4.1389    1.9852    0.0131 C   0  0  0  0  0  0  0  0  0  0  0  0
    4.3058   -0.2346    1.0520 C   0  0  0  0  0  0  0  0  0  0  0  0
    3.2525    3.0192   -0.6524 C   0  0  0  0  0  0  0  0  0  0  0  0
   -0.7289    2.0036    0.7030 C   0  0  0  0  0  0  0  0  0  0  0  0
   -0.9140    1.4549   -1.6425 C   0  0  0  0  0  0  0  0  0  0  0  0
    4.9121   -1.1675    0.0185 C   0  0  0  0  0  0  0  0  0  0  0  0
   -2.1188    2.0722    0.7967 C   0  0  0  0  0  0  0  0  0  0  0  0
   -2.3039    1.5234   -1.5490 C   0  0  0  0  0  0  0  0  0  0  0  0
   -2.9064    1.8321   -0.3293 C   0  0  0  0  0  0  0  0  0  0  0  0
    6.3227   -3.2081   -0.3397 C   0  0  0  0  0  0  0  0  0  0  0  0
    5.8830   -2.4229    1.9548 C   0  0  0  0  0  0  0  0  0  0  0  0
   -4.5138   -0.7363    0.3625 C   0  0  0  0  0  0  0  0  0  0  0  0
   -3.3582   -1.2449    0.9555 C   0  0  0  0  0  0  0  0  0  0  0  0
   -5.1757   -1.4726   -0.6201 C   0  0  0  0  0  0  0  0  0  0  0  0
   -2.8645   -2.4899    0.5657 C   0  0  0  0  0  0  0  0  0  0  0  0
   -4.6819   -2.7175   -1.0098 C   0  0  0  0  0  0  0  0  0  0  0  0
   -3.5264   -3.2263   -0.4168 C   0  0  0  0  0  0  0  0  0  0  0  0
    1.7306    0.8684    1.3934 H   0  0  0  0  0  0  0  0  0  0  0  0
    1.6600    1.3746   -1.6533 H   0  0  0  0  0  0  0  0  0  0  0  0
    0.5210   -0.9150    0.1148 H   0  0  0  0  0  0  0  0  0  0  0  0
    2.0406   -1.5462    0.7292 H   0  0  0  0  0  0  0  0  0  0  0  0
    3.6923   -0.7671    1.7824 H   0  0  0  0  0  0  0  0  0  0  0  0
    5.1270    0.2581    1.5850 H   0  0  0  0  0  0  0  0  0  0  0  0
    3.5966    4.0104   -0.3392 H   0  0  0  0  0  0  0  0  0  0  0  0
    3.3869    2.9469   -1.7379 H   0  0  0  0  0  0  0  0  0  0  0  0
   -0.1337    2.2114    1.5877 H   0  0  0  0  0  0  0  0  0  0  0  0
   -0.4594    1.2119   -2.5991 H   0  0  0  0  0  0  0  0  0  0  0  0
   -2.5601    2.3449    1.7502 H   0  0  0  0  0  0  0  0  0  0  0  0
   -2.9076    1.3323   -2.4324 H   0  0  0  0  0  0  0  0  0  0  0  0
    1.7183   -2.0144   -1.4609 H   0  0  0  0  0  0  0  0  0  0  0  0
   -4.8140    2.0908   -1.1205 H   0  0  0  0  0  0  0  0  0  0  0  0
    5.9520   -4.2041   -0.0812 H   0  0  0  0  0  0  0  0  0  0  0  0
    6.1063   -3.0067   -1.3918 H   0  0  0  0  0  0  0  0  0  0  0  0
    7.4038   -3.1619   -0.1814 H   0  0  0  0  0  0  0  0  0  0  0  0
    5.5148   -1.6173    2.5874 H   0  0  0  0  0  0  0  0  0  0  0  0
    6.9571   -2.5282    2.1388 H   0  0  0  0  0  0  0  0  0  0  0  0
    5.3809   -3.3507    2.2461 H   0  0  0  0  0  0  0  0  0  0  0  0
   -2.8289   -0.6944    1.7274 H   0  0  0  0  0  0  0  0  0  0  0  0
   -6.0726   -1.0925   -1.1006 H   0  0  0  0  0  0  0  0  0  0  0  0
   -1.9648   -2.8862    1.0271 H   0  0  0  0  0  0  0  0  0  0  0  0
   -5.1955   -3.2902   -1.7763 H   0  0  0  0  0  0  0  0  0  0  0  0
  1  7  2  0  0  0  0
  1  8  2  0  0  0  0
  1 11  1  0  0  0  0
  1 27  1  0  0  0  0
  2 32  1  0  0  0  0
  3 13  1  0  0  0  0
  3 18  1  0  0  0  0
  4 14  1  0  0  0  0
  4 45  1  0  0  0  0
  5 16  2  0  0  0  0
  6 21  2  0  0  0  0
  9 12  1  0  0  0  0
  9 16  1  0  0  0  0
  9 17  1  0  0  0  0
 10 21  1  0  0  0  0
 10 25  1  0  0  0  0
 10 26  1  0  0  0  0
 11 24  1  0  0  0  0
 11 46  1  0  0  0  0
 12 13  1  0  0  0  0
 12 14  1  0  0  0  0
 12 33  1  0  0  0  0
 13 15  1  0  0  0  0
 13 34  1  0  0  0  0
 14 35  1  0  0  0  0
 14 36  1  0  0  0  0
 15 19  2  0  0  0  0
 15 20  1  0  0  0  0
 16 18  1  0  0  0  0
 17 21  1  0  0  0  0
 17 37  1  0  0  0  0
 17 38  1  0  0  0  0
 18 39  1  0  0  0  0
 18 40  1  0  0  0  0
 19 22  1  0  0  0  0
 19 41  1  0  0  0  0
 20 23  2  0  0  0  0
 20 42  1  0  0  0  0
 22 24  2  0  0  0  0
 22 43  1  0  0  0  0
 23 24  1  0  0  0  0
 23 44  1  0  0  0  0
 25 47  1  0  0  0  0
 25 48  1  0  0  0  0
 25 49  1  0  0  0  0
 26 50  1  0  0  0  0
 26 51  1  0  0  0  0
 26 52  1  0  0  0  0
 27 28  2  0  0  0  0
 27 29  1  0  0  0  0
 28 30  1  0  0  0  0
 28 53  1  0  0  0  0
 29 31  2  0  0  0  0
 29 54  1  0  0  0  0
 30 32  2  0  0  0  0
 30 55  1  0  0  0  0
 31 32  1  0  0  0  0
 31 56  1  0  0  0  0
M  END
> <PUBCHEM_COMPOUND_CID>
71693478

> <PUBCHEM_CONFORMER_RMSD>
1

> <PUBCHEM_CONFORMER_DIVERSEORDER>
1
150
91
178
66
135
180
61
126
197
128
222
115
109
179
173
187
103
215
12
106
182
36
81
35
78
93
185
201
223
16
184
212
50
136
43
19
142
100
97
64
4
75
108
48
172
127
33
77
195
47
214
14
121
27
99
25
224
176
130
32
29
158
138
169
45
49
114
13
65
53
147
230
71
17
119
156
209
193
70
107
216
207
34
181
186
117
51
18
145
41
227
62
190
149
153
129
123
58
229
79
141
159
85
22
143
86
37
219
189
140
177
161
168
167
160
52
39
194
134
188
124
232
84
31
175
102
199
174
68
220
131
192
46
132
151
89
218
226
20
83
118
231
15
163
96
55
74
157
205
213
59
228
221
82
101
57
133
21
210
122
28
148
98
72
60
139
202
44
6
137
10
200
144
80
171
154
166
225
208
87
206
146
211
155
162
88
94
11
203
183
165
56
217
90
191
105
54
92
152
111
116
30
8
196
204
24
73
113
26
164
120
198
7
125
5
69
38
110
2
42
95
112
3
76
170
63
233
40
67
9
23
104

> <PUBCHEM_MMFF94_PARTIAL_CHARGES>
42
1 1.45
10 -0.66
11 -0.76
12 0.3
13 0.42
14 0.28
15 -0.14
16 0.57
17 0.36
18 0.34
19 -0.15
2 -0.19
20 -0.15
21 0.57
22 -0.15
23 -0.15
24 0.2
25 0.3
26 0.3
27 -0.01
28 -0.15
29 -0.15
3 -0.56
30 -0.15
31 -0.15
32 0.19
4 -0.68
41 0.15
42 0.15
43 0.15
44 0.15
45 0.4
46 0.42
5 -0.57
53 0.15
54 0.15
55 0.15
56 0.15
6 -0.57
7 -0.65
8 -0.65
9 -0.66

> <PUBCHEM_EFFECTIVE_ROTOR_COUNT>
9

> <PUBCHEM_PHARMACOPHORE_FEATURES>
11
1 11 donor
1 3 acceptor
1 4 acceptor
1 4 donor
1 5 acceptor
1 6 acceptor
1 7 acceptor
1 8 acceptor
6 15 19 20 22 23 24 rings
6 27 28 29 30 31 32 rings
6 3 9 12 13 16 18 rings

> <PUBCHEM_HEAVY_ATOM_COUNT>
32

> <PUBCHEM_ATOM_DEF_STEREO_COUNT>
2

> <PUBCHEM_ATOM_UDEF_STEREO_COUNT>
0

> <PUBCHEM_BOND_DEF_STEREO_COUNT>
0

> <PUBCHEM_BOND_UDEF_STEREO_COUNT>
0

> <PUBCHEM_ISOTOPIC_ATOM_COUNT>
0

> <PUBCHEM_COMPONENT_COUNT>
1

> <PUBCHEM_CACTVS_TAUTO_COUNT>
2

> <PUBCHEM_CONFORMER_ID>
0445F4A600000001

> <PUBCHEM_MMFF94_ENERGY>
84.1527

> <PUBCHEM_FEATURE_SELFOVERLAP>
55.849

> <PUBCHEM_SHAPE_FINGERPRINT>
10622 236 18125708222435848215
10864689 126 17834681487202507478
10928967 22 18040990696817289362
11136131 41 18046614879788547536
11477941 20 16371296515621904238
11513181 2 18269282433584459150
11524674 6 18059005082673867591
11552529 35 18057327399728423305
11756154 67 18194686969705390302
12107183 9 18339929216690416201
12422481 6 18272933812699523974
12633257 1 18341341028364869569
13690498 29 17822293410368112492
13782708 43 17604147017867358832
14117953 113 18339642214365154173
14341114 176 18410015420571220320
14950920 106 18131070419962999289
15001296 14 18187920728854263186
15250474 111 18265893733998270831
15361156 5 18114194063280007724
15799311 1 18339376218023297276
16112460 7 18410866455339489617
17857418 61 18336542832467381257
20028762 73 18342453721163647654
21033648 29 14404915661173742881
23559900 14 18340480179723235553
3633792 109 18340484462285541069
392239 28 18341335495988089035
5104073 3 18201997741975541744
57816373 69 18411700950584983364
7970288 3 18192990410215189026
8863177 126 18410572864882385756

> <PUBCHEM_SHAPE_MULTIPOLES>
604.96
15.82
4.49
1.37
7.67
2.8
-0.2
9.42
-3.18
0.81
0.78
-0.35
0.1
-1.8

> <PUBCHEM_SHAPE_SELFOVERLAP>
1268.913

> <PUBCHEM_SHAPE_VOLUME>
344.4

> <PUBCHEM_COORDINATE_TYPE>
2
5
10

$$$$
