28960653
  -OEChem-12032416353D

 49 52  0     1  0  0  0  0  0999 V2000
    7.1898   -2.2656    0.2028 F   0  0  0  0  0  0  0  0  0  0  0  0
    6.2749   -1.5888    2.0556 F   0  0  0  0  0  0  0  0  0  0  0  0
    5.2624   -3.0581    0.8229 F   0  0  0  0  0  0  0  0  0  0  0  0
   -4.9602    1.1758   -0.5965 O   0  0  0  0  0  0  0  0  0  0  0  0
    1.7076    2.8576   -1.4060 O   0  0  0  0  0  0  0  0  0  0  0  0
   -2.5464    2.8417    1.3567 N   0  0  1  0  0  0  0  0  0  0  0  0
    0.2569    2.3995    0.3346 N   0  0  0  0  0  0  0  0  0  0  0  0
   -3.1484    0.0296    0.0521 N   0  0  0  0  0  0  0  0  0  0  0  0
    2.2032    1.1939    0.1742 N   0  0  0  0  0  0  0  0  0  0  0  0
   -5.3107   -0.1785   -0.6659 N   0  0  0  0  0  0  0  0  0  0  0  0
   -5.1728   -2.9309   -0.5218 N   0  0  0  0  0  0  0  0  0  0  0  0
   -2.7966   -4.1628    0.3163 N   0  0  0  0  0  0  0  0  0  0  0  0
   -0.7418    3.3809   -0.0169 C   0  0  1  0  0  0  0  0  0  0  0  0
   -3.0501    2.5803   -0.0052 C   0  0  1  0  0  0  0  0  0  0  0  0
   -1.8242    2.7849   -0.9168 C   0  0  0  0  0  0  0  0  0  0  0  0
   -1.5025    3.8609    1.2099 C   0  0  0  0  0  0  0  0  0  0  0  0
   -3.6720    1.2096   -0.1659 C   0  0  0  0  0  0  0  0  0  0  0  0
   -3.5902    3.2617    2.2840 C   0  0  0  0  0  0  0  0  0  0  0  0
    1.4310    2.2070   -0.4011 C   0  0  0  0  0  0  0  0  0  0  0  0
   -4.1910   -0.7903   -0.2683 C   0  0  0  0  0  0  0  0  0  0  0  0
    3.4540    0.7005   -0.2648 C   0  0  0  0  0  0  0  0  0  0  0  0
   -4.0808   -2.2178   -0.1818 C   0  0  0  0  0  0  0  0  0  0  0  0
    4.0860   -0.3250    0.4386 C   0  0  0  0  0  0  0  0  0  0  0  0
    4.0556    1.2399   -1.4020 C   0  0  0  0  0  0  0  0  0  0  0  0
    5.3195   -0.8111    0.0051 C   0  0  0  0  0  0  0  0  0  0  0  0
   -2.9137   -2.8229    0.2299 C   0  0  0  0  0  0  0  0  0  0  0  0
    5.2890    0.7535   -1.8357 C   0  0  0  0  0  0  0  0  0  0  0  0
    5.9210   -0.2717   -1.1321 C   0  0  0  0  0  0  0  0  0  0  0  0
    5.9951   -1.9072    0.7571 C   0  0  0  0  0  0  0  0  0  0  0  0
   -5.0558   -4.2708   -0.4353 C   0  0  0  0  0  0  0  0  0  0  0  0
   -3.8887   -4.8759   -0.0237 C   0  0  0  0  0  0  0  0  0  0  0  0
   -0.2411    4.2170   -0.5177 H   0  0  0  0  0  0  0  0  0  0  0  0
   -3.7969    3.3388   -0.2811 H   0  0  0  0  0  0  0  0  0  0  0  0
   -1.4901    1.8648   -1.4103 H   0  0  0  0  0  0  0  0  0  0  0  0
   -2.0829    3.5049   -1.7035 H   0  0  0  0  0  0  0  0  0  0  0  0
   -0.8700    3.9272    2.1016 H   0  0  0  0  0  0  0  0  0  0  0  0
   -1.9403    4.8481    1.0127 H   0  0  0  0  0  0  0  0  0  0  0  0
    0.0649    1.7725    1.1101 H   0  0  0  0  0  0  0  0  0  0  0  0
   -4.3448    2.4763    2.3993 H   0  0  0  0  0  0  0  0  0  0  0  0
   -4.0949    4.1779    1.9570 H   0  0  0  0  0  0  0  0  0  0  0  0
   -3.1659    3.4406    3.2779 H   0  0  0  0  0  0  0  0  0  0  0  0
    1.8282    0.7530    1.0102 H   0  0  0  0  0  0  0  0  0  0  0  0
    3.6200   -0.7480    1.3257 H   0  0  0  0  0  0  0  0  0  0  0  0
    3.6297    2.0339   -1.9987 H   0  0  0  0  0  0  0  0  0  0  0  0
   -2.0234   -2.2704    0.5081 H   0  0  0  0  0  0  0  0  0  0  0  0
    5.7583    1.1727   -2.7211 H   0  0  0  0  0  0  0  0  0  0  0  0
    6.8813   -0.6360   -1.4865 H   0  0  0  0  0  0  0  0  0  0  0  0
   -5.9328   -4.8445   -0.7083 H   0  0  0  0  0  0  0  0  0  0  0  0
   -3.7956   -5.9527    0.0455 H   0  0  0  0  0  0  0  0  0  0  0  0
  1 29  1  0  0  0  0
  2 29  1  0  0  0  0
  3 29  1  0  0  0  0
  4 10  1  0  0  0  0
  4 17  1  0  0  0  0
  5 19  2  0  0  0  0
  6 14  1  0  0  0  0
  6 16  1  0  0  0  0
  6 18  1  0  0  0  0
  7 13  1  0  0  0  0
  7 19  1  0  0  0  0
  7 38  1  0  0  0  0
  8 17  2  0  0  0  0
  8 20  1  0  0  0  0
  9 19  1  0  0  0  0
  9 21  1  0  0  0  0
  9 42  1  0  0  0  0
 10 20  2  0  0  0  0
 11 22  2  0  0  0  0
 11 30  1  0  0  0  0
 12 26  2  0  0  0  0
 12 31  1  0  0  0  0
 13 15  1  0  0  0  0
 13 16  1  0  0  0  0
 13 32  1  0  0  0  0
 14 15  1  0  0  0  0
 14 17  1  0  0  0  0
 14 33  1  0  0  0  0
 15 34  1  0  0  0  0
 15 35  1  0  0  0  0
 16 36  1  0  0  0  0
 16 37  1  0  0  0  0
 18 39  1  0  0  0  0
 18 40  1  0  0  0  0
 18 41  1  0  0  0  0
 20 22  1  0  0  0  0
 21 23  1  0  0  0  0
 21 24  2  0  0  0  0
 22 26  1  0  0  0  0
 23 25  2  0  0  0  0
 23 43  1  0  0  0  0
 24 27  1  0  0  0  0
 24 44  1  0  0  0  0
 25 28  1  0  0  0  0
 25 29  1  0  0  0  0
 26 45  1  0  0  0  0
 27 28  2  0  0  0  0
 27 46  1  0  0  0  0
 28 47  1  0  0  0  0
 30 31  2  0  0  0  0
 30 48  1  0  0  0  0
 31 49  1  0  0  0  0
M  END
> <PUBCHEM_COMPOUND_CID>
28960653

> <PUBCHEM_CONFORMER_RMSD>
1

> <PUBCHEM_CONFORMER_DIVERSEORDER>
1
241
288
265
260
81
267
156
197
276
99
137
96
229
97
115
268
116
126
251
273
147
292
220
50
198
89
209
44
258
289
226
284
134
266
17
76
272
243
185
92
155
107
181
118
160
153
38
246
186
75
232
285
83
249
80
125
200
207
283
187
280
270
124
109
262
39
63
274
65
128
53
114
240
90
179
40
221
119
146
290
192
108
82
247
34
257
233
278
101
205
100
68
121
106
254
189
150
113
57
117
168
32
242
93
74
287
184
259
86
31
203
88
271
51
212
219
45
252
204
227
291
70
49
15
190
193
176
149
48
166
282
22
253
194
35
228
162
199
236
183
174
85
210
201
62
71
269
133
277
191
27
286
248
164
13
211
29
41
261
159
235
275
263
54
36
213
69
216
154
144
37
140
255
132
238
122
135
151
77
145
142
67
256
14
10
279
196
79
195
95
112
237
3
104
264
28
208
250
223
16
127
169
21
42
172
30
84
56
66
230
7
217
165
215
131
102
239
234
73
110
136
163
161
120
98
11
188
244
222
60
111
224
23
170
231
148
245
281
138
180
52
218
33
46
158
129
94
20
58
103
59
225
9
78
139
87
143
130
202
18
25
177
171
26
182
157
2
64
61
214
19
91
141
47
206
175
173
55
123
6
72
12
178
8
24
152
5
167
4
105
43

> <PUBCHEM_MMFF94_PARTIAL_CHARGES>
39
1 -0.34
10 -0.41
11 -0.62
12 -0.62
13 0.3
14 0.45
16 0.27
17 0.3
18 0.27
19 0.69
2 -0.34
20 0.46
21 0.12
22 0.36
23 -0.15
24 -0.15
25 -0.14
26 0.16
27 -0.15
28 -0.15
29 1.16
3 -0.34
30 0.16
31 0.16
38 0.37
4 -0.02
42 0.37
43 0.15
44 0.15
45 0.15
46 0.15
47 0.15
48 0.15
49 0.15
5 -0.57
6 -0.81
7 -0.73
8 -0.57
9 -0.55

> <PUBCHEM_EFFECTIVE_ROTOR_COUNT>
8

> <PUBCHEM_PHARMACOPHORE_FEATURES>
11
1 11 acceptor
1 12 acceptor
1 5 acceptor
1 6 cation
1 7 donor
1 9 donor
3 8 10 20 cation
5 4 8 10 17 20 rings
5 6 13 14 15 16 rings
6 11 12 22 26 30 31 rings
6 21 23 24 25 27 28 rings

> <PUBCHEM_HEAVY_ATOM_COUNT>
31

> <PUBCHEM_ATOM_DEF_STEREO_COUNT>
2

> <PUBCHEM_ATOM_UDEF_STEREO_COUNT>
0

> <PUBCHEM_BOND_DEF_STEREO_COUNT>
0

> <PUBCHEM_BOND_UDEF_STEREO_COUNT>
0

> <PUBCHEM_ISOTOPIC_ATOM_COUNT>
0

> <PUBCHEM_COMPONENT_COUNT>
1

> <PUBCHEM_CACTVS_TAUTO_COUNT>
3

> <PUBCHEM_CONFORMER_ID>
01B9E78D00000001

> <PUBCHEM_MMFF94_ENERGY>
65.0362

> <PUBCHEM_FEATURE_SELFOVERLAP>
55.877

> <PUBCHEM_SHAPE_FINGERPRINT>
10305334 12 18340491050385155695
10571361 74 18263638468668931994
10622 236 18260260859052656594
11285246 1 17751638986409009395
117089 54 18193563487047892735
12202916 173 18059844031641971453
12969540 37 17906449184207883949
13165053 137 18196650701229897867
1361 4 18411421701002751214
14866123 147 18341901805734843385
15250474 111 18335986368225274130
15320294 125 18189899712260409956
15351339 4 18115857680155310290
15538507 19 18339919296017569416
15728490 83 18335710480880365891
15803439 3 17318979795196072613
17138139 8 18187080698055008880
17909252 39 18124319560470933432
18393751 57 10447657928780842573
19246450 95 18127152813907049081
19301676 85 18122054575736598735
20156587 161 17315883664931220450
20775530 9 18054514870311559967
20843269 155 18410854391113984302
21223535 225 15068886543246037188
24204213 92 16605194906534582915
260245 28 18261665974826422626
2835820 82 17548414161037201455
3146122 72 11452570775991743203
32027 91 18268983358227050453
3383291 50 18342179934800018769
437795 139 18411693314227868978
4435113 14 17558287444419388542
484985 159 18412832370036705345
50080093 196 17751629953945885746
5104073 3 18060701663375726280
7970288 3 18409444803942413518

> <PUBCHEM_SHAPE_MULTIPOLES>
569.54
17.21
6.69
1.39
21.62
3.66
-0.35
17.35
0.22
-9.96
-1.59
1.18
-0.84
-3.6

> <PUBCHEM_SHAPE_SELFOVERLAP>
1235.093

> <PUBCHEM_SHAPE_VOLUME>
313.4

> <PUBCHEM_COORDINATE_TYPE>
2
5
10

$$$$
