7050120
  -OEChem-12032416153D

 68 70  0     1  0  0  0  0  0999 V2000
   -3.6576   -1.9478    0.7070 O   0  0  0  0  0  0  0  0  0  0  0  0
   -6.2449   -0.5634    1.1889 O   0  0  0  0  0  0  0  0  0  0  0  0
   -6.8371    0.9674   -0.3880 O   0  0  0  0  0  0  0  0  0  0  0  0
   -0.4830   -3.5861   -1.6309 O   0  0  0  0  0  0  0  0  0  0  0  0
    0.1804   -4.7526    1.7724 O   0  0  0  0  0  0  0  0  0  0  0  0
    3.7166   -1.7341    1.5378 O   0  0  0  0  0  0  0  0  0  0  0  0
    5.0803   -1.0704   -2.1470 O   0  0  0  0  0  0  0  0  0  0  0  0
   -1.6759   -1.4213   -0.3880 N   0  0  0  0  0  0  0  0  0  0  0  0
    3.0836   -0.5097   -0.3422 N   0  0  0  0  0  0  0  0  0  0  0  0
    6.5796   -0.0178   -0.7611 N   0  0  0  0  0  0  0  0  0  0  0  0
   -3.7752    1.0619   -0.5640 C   0  0  0  0  0  0  0  0  0  0  0  0
   -2.3761    1.6210   -0.2712 C   0  0  0  0  0  0  0  0  0  0  0  0
   -4.2922    2.0539   -1.6149 C   0  0  0  0  0  0  0  0  0  0  0  0
   -2.5406    3.1388   -0.3019 C   0  0  0  0  0  0  0  0  0  0  0  0
   -3.7719    3.4168   -1.1639 C   0  0  0  0  0  0  0  0  0  0  0  0
   -3.7079   -0.3625   -1.1189 C   0  0  0  0  0  0  0  0  0  0  0  0
   -4.6560    1.0737    0.6960 C   0  0  0  0  0  0  0  0  0  0  0  0
   -3.0427   -1.3316   -0.1592 C   0  0  0  0  0  0  0  0  0  0  0  0
   -6.0241    0.5273    0.4108 C   0  0  0  0  0  0  0  0  0  0  0  0
   -0.7996   -2.2686    0.3836 C   0  0  1  0  0  0  0  0  0  0  0  0
   -0.6979   -3.6819   -0.2212 C   0  0  2  0  0  0  0  0  0  0  0  0
    0.4562   -4.4779    0.4004 C   0  0  1  0  0  0  0  0  0  0  0  0
    0.5337   -1.5861    0.5276 C   0  0  0  0  0  0  0  0  0  0  0  0
    1.8020   -3.7443    0.2693 C   0  0  0  0  0  0  0  0  0  0  0  0
    1.6929   -2.2589    0.4660 C   0  0  0  0  0  0  0  0  0  0  0  0
    2.9310   -1.4903    0.6225 C   0  0  0  0  0  0  0  0  0  0  0  0
    4.2235    0.3773   -0.3932 C   0  0  2  0  0  0  0  0  0  0  0  0
    3.8810    1.7251   -1.0382 C   0  0  0  0  0  0  0  0  0  0  0  0
    5.3076   -0.3319   -1.1916 C   0  0  0  0  0  0  0  0  0  0  0  0
    3.1732    2.6628   -0.0905 C   0  0  0  0  0  0  0  0  0  0  0  0
    1.7806    2.6534   -0.0105 C   0  0  0  0  0  0  0  0  0  0  0  0
    3.9117    3.5383    0.7056 C   0  0  0  0  0  0  0  0  0  0  0  0
    1.1264    3.5197    0.8653 C   0  0  0  0  0  0  0  0  0  0  0  0
    3.2574    4.4046    1.5816 C   0  0  0  0  0  0  0  0  0  0  0  0
    1.8648    4.3952    1.6615 C   0  0  0  0  0  0  0  0  0  0  0  0
   -1.9612    1.2854    0.6850 H   0  0  0  0  0  0  0  0  0  0  0  0
   -1.6687    1.3385   -1.0609 H   0  0  0  0  0  0  0  0  0  0  0  0
   -3.8443    1.8256   -2.5917 H   0  0  0  0  0  0  0  0  0  0  0  0
   -5.3698    2.0723   -1.7757 H   0  0  0  0  0  0  0  0  0  0  0  0
   -1.6523    3.6263   -0.7151 H   0  0  0  0  0  0  0  0  0  0  0  0
   -2.6932    3.5323    0.7094 H   0  0  0  0  0  0  0  0  0  0  0  0
   -4.5307    3.9409   -0.5719 H   0  0  0  0  0  0  0  0  0  0  0  0
   -3.5309    4.0534   -2.0215 H   0  0  0  0  0  0  0  0  0  0  0  0
   -3.1548   -0.3724   -2.0680 H   0  0  0  0  0  0  0  0  0  0  0  0
   -4.6980   -0.7604   -1.3698 H   0  0  0  0  0  0  0  0  0  0  0  0
   -4.1859    0.5089    1.5099 H   0  0  0  0  0  0  0  0  0  0  0  0
   -4.7958    2.0860    1.0936 H   0  0  0  0  0  0  0  0  0  0  0  0
   -1.2216   -2.3536    1.3936 H   0  0  0  0  0  0  0  0  0  0  0  0
   -1.2714   -0.9118   -1.1686 H   0  0  0  0  0  0  0  0  0  0  0  0
   -1.6504   -4.2032   -0.0667 H   0  0  0  0  0  0  0  0  0  0  0  0
    0.5445   -5.4474   -0.1051 H   0  0  0  0  0  0  0  0  0  0  0  0
    0.5264   -0.5147    0.7179 H   0  0  0  0  0  0  0  0  0  0  0  0
    2.2071   -3.9178   -0.7356 H   0  0  0  0  0  0  0  0  0  0  0  0
    2.5179   -4.1587    0.9891 H   0  0  0  0  0  0  0  0  0  0  0  0
   -7.1313   -0.9524    1.0299 H   0  0  0  0  0  0  0  0  0  0  0  0
   -0.4533   -4.4914   -1.9844 H   0  0  0  0  0  0  0  0  0  0  0  0
    0.9106   -5.2944    2.1166 H   0  0  0  0  0  0  0  0  0  0  0  0
    2.4013   -0.4415   -1.0927 H   0  0  0  0  0  0  0  0  0  0  0  0
    4.5869    0.5219    0.6325 H   0  0  0  0  0  0  0  0  0  0  0  0
    3.2701    1.5821   -1.9399 H   0  0  0  0  0  0  0  0  0  0  0  0
    4.7963    2.2196   -1.3909 H   0  0  0  0  0  0  0  0  0  0  0  0
    1.1933    1.9744   -0.6230 H   0  0  0  0  0  0  0  0  0  0  0  0
    4.9972    3.5530    0.6544 H   0  0  0  0  0  0  0  0  0  0  0  0
    6.7529    0.6129    0.0150 H   0  0  0  0  0  0  0  0  0  0  0  0
    7.3955   -0.4127   -1.2168 H   0  0  0  0  0  0  0  0  0  0  0  0
    0.0452    3.5077    0.9410 H   0  0  0  0  0  0  0  0  0  0  0  0
    3.8322    5.0854    2.2026 H   0  0  0  0  0  0  0  0  0  0  0  0
    1.3555    5.0674    2.3459 H   0  0  0  0  0  0  0  0  0  0  0  0
  1 18  2  0  0  0  0
  2 19  1  0  0  0  0
  2 55  1  0  0  0  0
  3 19  2  0  0  0  0
  4 21  1  0  0  0  0
  4 56  1  0  0  0  0
  5 22  1  0  0  0  0
  5 57  1  0  0  0  0
  6 26  2  0  0  0  0
  7 29  2  0  0  0  0
  8 18  1  0  0  0  0
  8 20  1  0  0  0  0
  8 49  1  0  0  0  0
  9 26  1  0  0  0  0
  9 27  1  0  0  0  0
  9 58  1  0  0  0  0
 10 29  1  0  0  0  0
 10 64  1  0  0  0  0
 10 65  1  0  0  0  0
 11 12  1  0  0  0  0
 11 13  1  0  0  0  0
 11 16  1  0  0  0  0
 11 17  1  0  0  0  0
 12 14  1  0  0  0  0
 12 36  1  0  0  0  0
 12 37  1  0  0  0  0
 13 15  1  0  0  0  0
 13 38  1  0  0  0  0
 13 39  1  0  0  0  0
 14 15  1  0  0  0  0
 14 40  1  0  0  0  0
 14 41  1  0  0  0  0
 15 42  1  0  0  0  0
 15 43  1  0  0  0  0
 16 18  1  0  0  0  0
 16 44  1  0  0  0  0
 16 45  1  0  0  0  0
 17 19  1  0  0  0  0
 17 46  1  0  0  0  0
 17 47  1  0  0  0  0
 20 21  1  0  0  0  0
 20 23  1  0  0  0  0
 20 48  1  0  0  0  0
 21 22  1  0  0  0  0
 21 50  1  0  0  0  0
 22 24  1  0  0  0  0
 22 51  1  0  0  0  0
 23 25  2  0  0  0  0
 23 52  1  0  0  0  0
 24 25  1  0  0  0  0
 24 53  1  0  0  0  0
 24 54  1  0  0  0  0
 25 26  1  0  0  0  0
 27 28  1  0  0  0  0
 27 29  1  0  0  0  0
 27 59  1  0  0  0  0
 28 30  1  0  0  0  0
 28 60  1  0  0  0  0
 28 61  1  0  0  0  0
 30 31  2  0  0  0  0
 30 32  1  0  0  0  0
 31 33  1  0  0  0  0
 31 62  1  0  0  0  0
 32 34  2  0  0  0  0
 32 63  1  0  0  0  0
 33 35  2  0  0  0  0
 33 66  1  0  0  0  0
 34 35  1  0  0  0  0
 34 67  1  0  0  0  0
 35 68  1  0  0  0  0
M  END
> <PUBCHEM_COMPOUND_CID>
7050120

> <PUBCHEM_CONFORMER_RMSD>
1.2

> <PUBCHEM_CONFORMER_DIVERSEORDER>
1
63
24
109
143
168
160
162
53
48
127
58
66
10
129
91
119
97
94
84
131
165
38
95
96
86
116
76
135
80
68
132
150
121
89
149
167
35
142
44
23
117
61
148
115
7
156
144
107
46
92
141
136
123
137
128
99
152
36
100
72
124
20
79
47
154
120
32
105
6
56
159
102
67
126
39
65
85
64
40
133
114
155
151
161
26
75
146
78
88
73
62
45
9
169
59
18
12
69
139
140
101
29
87
60
125
33
98
108
13
145
30
41
52
164
113
81
147
57
158
70
37
106
28
42
110
122
8
51
34
55
71
43
49
14
77
90
82
163
130
50
104
93
118
21
25
74
138
153
112
83
5
19
15
54
31
16
166
22
103
11
157
4
134
17
27
3
2
111

> <PUBCHEM_MMFF94_PARTIAL_CHARGES>
43
1 -0.57
10 -0.8
16 0.06
17 0.06
18 0.57
19 0.66
2 -0.65
20 0.44
21 0.28
22 0.28
23 -0.29
24 0.14
25 -0.12
26 0.62
27 0.36
28 0.14
29 0.57
3 -0.57
30 -0.14
31 -0.15
32 -0.15
33 -0.15
34 -0.15
35 -0.15
4 -0.68
49 0.37
5 -0.68
52 0.15
55 0.5
56 0.4
57 0.4
58 0.37
6 -0.57
62 0.15
63 0.15
64 0.37
65 0.37
66 0.15
67 0.15
68 0.15
7 -0.57
8 -0.73
9 -0.73

> <PUBCHEM_EFFECTIVE_ROTOR_COUNT>
13.8

> <PUBCHEM_PHARMACOPHORE_FEATURES>
16
1 1 acceptor
1 10 donor
1 2 acceptor
1 3 acceptor
1 4 acceptor
1 4 donor
1 5 acceptor
1 5 donor
1 6 acceptor
1 7 acceptor
1 8 donor
1 9 donor
3 2 3 19 anion
5 11 12 13 14 15 rings
6 20 21 22 23 24 25 rings
6 30 31 32 33 34 35 rings

> <PUBCHEM_HEAVY_ATOM_COUNT>
35

> <PUBCHEM_ATOM_DEF_STEREO_COUNT>
4

> <PUBCHEM_ATOM_UDEF_STEREO_COUNT>
0

> <PUBCHEM_BOND_DEF_STEREO_COUNT>
0

> <PUBCHEM_BOND_UDEF_STEREO_COUNT>
0

> <PUBCHEM_ISOTOPIC_ATOM_COUNT>
0

> <PUBCHEM_COMPONENT_COUNT>
1

> <PUBCHEM_CACTVS_TAUTO_COUNT>
8

> <PUBCHEM_CONFORMER_ID>
006B938800000001

> <PUBCHEM_MMFF94_ENERGY>
81.595

> <PUBCHEM_FEATURE_SELFOVERLAP>
81.266

> <PUBCHEM_SHAPE_FINGERPRINT>
10439779 11 18194099859774361016
10581848 127 17183368629439027657
11014199 57 17475513872016561083
12925494 130 18265045843922029437
12978246 48 18336822001014622329
140371 6 17113812990878210271
14068700 686 17334776873609680424
14747282 125 18198074770429122718
15001296 14 18337105765040408713
15082195 135 18268122346085898559
15320467 1 18410008810574301737
15351339 4 18265335006567420384
15890870 6 18334860498035127734
16067689 134 17695640545944017713
16112460 7 18272379688888299304
17627616 140 17904769881806113780
20764821 26 18267280171011520041
21458453 9 18189350129168822411
3298306 158 18410007693982765605
508180 173 18411147943971170490
5265222 85 18261406575912606788
5776283 40 18337965592377378756
653340 110 17691114259850100304

> <PUBCHEM_SHAPE_MULTIPOLES>
664.26
13.07
7.08
1.46
7.49
1.13
-0.1
-6.45
-2.57
-3.85
2.58
-0.69
-0.19
2.1

> <PUBCHEM_SHAPE_SELFOVERLAP>
1396.286

> <PUBCHEM_SHAPE_VOLUME>
370.6

> <PUBCHEM_COORDINATE_TYPE>
2
5
10

$$$$
