75536813
  -OEChem-12032416323D

 54 56  0     1  0  0  0  0  0999 V2000
    0.4109    0.4822    1.2028 O   0  0  0  0  0  0  0  0  0  0  0  0
   -0.4456    0.6407   -2.2825 O   0  0  0  0  0  0  0  0  0  0  0  0
    4.0101   -0.4561   -1.3224 O   0  0  0  0  0  0  0  0  0  0  0  0
   -2.8447    1.0878   -0.3025 N   0  0  0  0  0  0  0  0  0  0  0  0
   -6.6562   -0.7758   -0.0510 N   0  0  0  0  0  0  0  0  0  0  0  0
    3.1330    0.8866    0.3671 N   0  0  0  0  0  0  0  0  0  0  0  0
   -1.5607    0.4305   -0.1209 C   0  0  1  0  0  0  0  0  0  0  0  0
   -3.9307    0.2567    0.2121 C   0  0  0  0  0  0  0  0  0  0  0  0
   -0.4379    1.0534   -0.9297 C   0  0  1  0  0  0  0  0  0  0  0  0
    0.7838    0.5332   -0.1844 C   0  0  1  0  0  0  0  0  0  0  0  0
   -1.0223    0.5646    1.2941 C   0  0  0  0  0  0  0  0  0  0  0  0
   -5.1617    1.1060    0.5421 C   0  0  0  0  0  0  0  0  0  0  0  0
   -4.3000   -0.8237   -0.8077 C   0  0  0  0  0  0  0  0  0  0  0  0
    5.1349   -0.3784    0.7810 C   0  0  0  0  0  0  0  0  0  0  0  0
    2.0100    1.4124   -0.3542 C   0  0  0  0  0  0  0  0  0  0  0  0
   -6.3357    0.2247    0.9765 C   0  0  0  0  0  0  0  0  0  0  0  0
   -5.5020   -1.6421   -0.3290 C   0  0  0  0  0  0  0  0  0  0  0  0
    5.6752   -1.7756    0.4723 C   0  0  0  0  0  0  0  0  0  0  0  0
    6.3207    0.5820    0.6346 C   0  0  0  0  0  0  0  0  0  0  0  0
    6.9500   -1.5281   -0.3213 C   0  0  0  0  0  0  0  0  0  0  0  0
    7.5338   -0.2956    0.3453 C   0  0  0  0  0  0  0  0  0  0  0  0
    4.0455   -0.0090   -0.1789 C   0  0  0  0  0  0  0  0  0  0  0  0
   -7.8105   -1.5763    0.3566 C   0  0  0  0  0  0  0  0  0  0  0  0
   -1.6116   -0.6299   -0.3974 H   0  0  0  0  0  0  0  0  0  0  0  0
   -3.6277   -0.2302    1.1487 H   0  0  0  0  0  0  0  0  0  0  0  0
   -0.4862    2.1489   -0.8938 H   0  0  0  0  0  0  0  0  0  0  0  0
    1.0219   -0.4922   -0.4965 H   0  0  0  0  0  0  0  0  0  0  0  0
   -3.0001    1.2907   -1.2894 H   0  0  0  0  0  0  0  0  0  0  0  0
   -1.2615    1.5368    1.7404 H   0  0  0  0  0  0  0  0  0  0  0  0
   -1.3855   -0.2207    1.9638 H   0  0  0  0  0  0  0  0  0  0  0  0
   -5.4591    1.6989   -0.3335 H   0  0  0  0  0  0  0  0  0  0  0  0
   -4.9252    1.8180    1.3423 H   0  0  0  0  0  0  0  0  0  0  0  0
   -3.4671   -1.5123   -0.9859 H   0  0  0  0  0  0  0  0  0  0  0  0
   -4.5437   -0.3661   -1.7764 H   0  0  0  0  0  0  0  0  0  0  0  0
    4.7398   -0.3608    1.8038 H   0  0  0  0  0  0  0  0  0  0  0  0
    2.2736    1.5069   -1.4131 H   0  0  0  0  0  0  0  0  0  0  0  0
    1.8260    2.4138    0.0501 H   0  0  0  0  0  0  0  0  0  0  0  0
   -7.2039    0.8734    1.1456 H   0  0  0  0  0  0  0  0  0  0  0  0
   -6.0993   -0.2589    1.9336 H   0  0  0  0  0  0  0  0  0  0  0  0
   -5.7603   -2.3608   -1.1163 H   0  0  0  0  0  0  0  0  0  0  0  0
   -5.2229   -2.2207    0.5616 H   0  0  0  0  0  0  0  0  0  0  0  0
    4.9775   -2.4265   -0.0638 H   0  0  0  0  0  0  0  0  0  0  0  0
    5.9317   -2.2792    1.4132 H   0  0  0  0  0  0  0  0  0  0  0  0
    6.4760    1.1678    1.5470 H   0  0  0  0  0  0  0  0  0  0  0  0
    6.1703    1.2949   -0.1851 H   0  0  0  0  0  0  0  0  0  0  0  0
    6.7151   -1.3194   -1.3714 H   0  0  0  0  0  0  0  0  0  0  0  0
    7.6327   -2.3819   -0.2858 H   0  0  0  0  0  0  0  0  0  0  0  0
    8.0256   -0.5737    1.2852 H   0  0  0  0  0  0  0  0  0  0  0  0
    8.2710    0.2106   -0.2845 H   0  0  0  0  0  0  0  0  0  0  0  0
    3.2585    1.1953    1.3268 H   0  0  0  0  0  0  0  0  0  0  0  0
   -0.4054   -0.3304   -2.3064 H   0  0  0  0  0  0  0  0  0  0  0  0
   -8.6858   -0.9366    0.5153 H   0  0  0  0  0  0  0  0  0  0  0  0
   -7.6209   -2.1369    1.2792 H   0  0  0  0  0  0  0  0  0  0  0  0
   -8.0820   -2.2887   -0.4303 H   0  0  0  0  0  0  0  0  0  0  0  0
  1 10  1  0  0  0  0
  1 11  1  0  0  0  0
  2  9  1  0  0  0  0
  2 51  1  0  0  0  0
  3 22  2  0  0  0  0
  4  7  1  0  0  0  0
  4  8  1  0  0  0  0
  4 28  1  0  0  0  0
  5 16  1  0  0  0  0
  5 17  1  0  0  0  0
  5 23  1  0  0  0  0
  6 15  1  0  0  0  0
  6 22  1  0  0  0  0
  6 50  1  0  0  0  0
  7  9  1  0  0  0  0
  7 11  1  0  0  0  0
  7 24  1  0  0  0  0
  8 12  1  0  0  0  0
  8 13  1  0  0  0  0
  8 25  1  0  0  0  0
  9 10  1  0  0  0  0
  9 26  1  0  0  0  0
 10 15  1  0  0  0  0
 10 27  1  0  0  0  0
 11 29  1  0  0  0  0
 11 30  1  0  0  0  0
 12 16  1  0  0  0  0
 12 31  1  0  0  0  0
 12 32  1  0  0  0  0
 13 17  1  0  0  0  0
 13 33  1  0  0  0  0
 13 34  1  0  0  0  0
 14 18  1  0  0  0  0
 14 19  1  0  0  0  0
 14 22  1  0  0  0  0
 14 35  1  0  0  0  0
 15 36  1  0  0  0  0
 15 37  1  0  0  0  0
 16 38  1  0  0  0  0
 16 39  1  0  0  0  0
 17 40  1  0  0  0  0
 17 41  1  0  0  0  0
 18 20  1  0  0  0  0
 18 42  1  0  0  0  0
 18 43  1  0  0  0  0
 19 21  1  0  0  0  0
 19 44  1  0  0  0  0
 19 45  1  0  0  0  0
 20 21  1  0  0  0  0
 20 46  1  0  0  0  0
 20 47  1  0  0  0  0
 21 48  1  0  0  0  0
 21 49  1  0  0  0  0
 23 52  1  0  0  0  0
 23 53  1  0  0  0  0
 23 54  1  0  0  0  0
M  END
> <PUBCHEM_COMPOUND_CID>
75536813

> <PUBCHEM_CONFORMER_RMSD>
1

> <PUBCHEM_CONFORMER_DIVERSEORDER>
1
61
66
72
29
108
100
92
130
79
77
31
91
10
5
13
48
123
71
102
75
109
27
63
25
69
70
110
22
82
112
37
116
96
28
45
97
36
128
118
76
20
104
43
95
64
65
3
33
113
50
126
111
107
105
7
127
53
42
98
35
24
80
17
34
122
74
124
84
54
58
23
15
4
120
46
81
16
114
90
59
129
9
94
55
30
39
93
52
89
49
106
101
85
115
40
21
32
103
47
99
67
68
8
121
6
44
57
88
56
26
18
73
60
117
2
12
119
83
86
19
87
41
11
51
78
62
125
38
14

> <PUBCHEM_MMFF94_PARTIAL_CHARGES>
20
1 -0.56
10 0.28
11 0.28
14 0.06
15 0.3
16 0.27
17 0.27
2 -0.68
22 0.57
23 0.27
28 0.36
3 -0.57
4 -0.9
5 -0.81
50 0.37
51 0.4
6 -0.73
7 0.27
8 0.27
9 0.28

> <PUBCHEM_EFFECTIVE_ROTOR_COUNT>
9.2

> <PUBCHEM_PHARMACOPHORE_FEATURES>
11
1 1 acceptor
1 2 acceptor
1 2 donor
1 3 acceptor
1 4 cation
1 4 donor
1 5 cation
1 6 donor
5 1 7 9 10 11 rings
5 14 18 19 20 21 rings
6 5 8 12 13 16 17 rings

> <PUBCHEM_HEAVY_ATOM_COUNT>
23

> <PUBCHEM_ATOM_DEF_STEREO_COUNT>
3

> <PUBCHEM_ATOM_UDEF_STEREO_COUNT>
0

> <PUBCHEM_BOND_DEF_STEREO_COUNT>
0

> <PUBCHEM_BOND_UDEF_STEREO_COUNT>
0

> <PUBCHEM_ISOTOPIC_ATOM_COUNT>
0

> <PUBCHEM_COMPONENT_COUNT>
1

> <PUBCHEM_CACTVS_TAUTO_COUNT>
2

> <PUBCHEM_CONFORMER_ID>
048099AD00000001

> <PUBCHEM_MMFF94_ENERGY>
31.8346

> <PUBCHEM_FEATURE_SELFOVERLAP>
55.821

> <PUBCHEM_SHAPE_FINGERPRINT>
10 15 16773795921847816112
10087517 78 10447937165715718299
10299344 5 18411421713001215058
106641 1 16559028320026486266
10670039 82 14345785028973809183
11315181 36 18343302574737331249
11524674 6 16988560221477976279
11646440 116 14549019883823454898
117890 112 10663818585431283064
11991303 11 15068633724528658235
12166972 35 18410857672548834544
12236239 1 17988923366855006584
125118 31 10447922884923020282
12516196 113 18409728457048155760
12596602 18 18060418006559936042
13288520 33 18334856126333504469
13533116 47 18408887369307859560
13540713 4 15287071564999407413
13540713 5 15624228022290561425
13668630 136 17967250910097196483
13673619 4 17894628158223859508
13685833 64 18408322185823095128
13885169 127 18410854327001035953
13968360 50 13479123584836461416
14123256 10 15140959552111317891
14251752 14 13912319092673168360
14251764 18 18131069359142590669
14251764 46 16950564385139668913
14556957 393 15213307369779706511
15048467 5 9943808884955622529
15183329 4 14201396071329714108
15198563 99 15647325291182598110
15348495 7 16702009932999465827
15690457 1 18412822517075714647
15706992 2 11095886020630793491
15716309 27 18202844370255174279
17834072 8 14707209919998388326
18006028 8 17603304855847220428
18222031 100 16877657984988956269
18335252 114 11097850813581604442
20281389 69 11527954443192227514
20735858 18 16702304559408357157
21150785 3 13984662555286344019
21267235 1 18335422369693236089
21424621 283 11311787176322698263
21623969 137 17561368374415177934
21637258 2 18410004451345500597
23035841 295 18040998458091847947
23522609 53 18045532800515959684
23536379 177 18413107255736901649
23559900 14 17459759300878845861
23569943 247 17751351790040372035
23576562 1 14346371176895356623
246663 6 17676491657502053091
2838139 119 8934997075140900187
3178227 256 16487259893378335907
33532 11 18408602539713641098
4340502 62 17560804324876171942
465052 167 18413110571699249214
5104073 3 15553583253396457274
5385378 56 13758082870484459508
543368 44 10231759985860715447
559249 180 18411418402425325159
5758199 1 12751241406669544621
59682541 35 17274818090627546962
59755656 215 16515399659939477019
999808 66 18260838128844021651

> <PUBCHEM_SHAPE_MULTIPOLES>
440.78
22.97
1.51
1.18
1.48
0.47
0.32
11.75
-4.07
-0.35
0.05
-0.07
-0.17
-0.22

> <PUBCHEM_SHAPE_SELFOVERLAP>
899.517

> <PUBCHEM_SHAPE_VOLUME>
257.6

> <PUBCHEM_COORDINATE_TYPE>
2
5
10

$$$$
