11912908
  -OEChem-12032416253D

 56 60  0     1  0  0  0  0  0999 V2000
    3.3848   -1.2762    1.8713 S   0  0  0  0  0  0  0  0  0  0  0  0
   -0.2011    1.6506    1.9410 O   0  0  0  0  0  0  0  0  0  0  0  0
   -1.1897    3.4683   -0.3681 O   0  0  0  0  0  0  0  0  0  0  0  0
   -3.0813    0.7736    1.2785 N   0  0  0  0  0  0  0  0  0  0  0  0
    1.2317    1.8375   -1.4148 N   0  0  0  0  0  0  0  0  0  0  0  0
    2.7484    0.2773   -0.5359 N   0  0  0  0  0  0  0  0  0  0  0  0
    2.3752    0.4382   -2.9112 N   0  0  0  0  0  0  0  0  0  0  0  0
   -1.4843    2.1077   -0.0054 C   0  0  1  0  0  0  0  0  0  0  0  0
   -0.1978    1.4934    0.5108 C   0  0  1  0  0  0  0  0  0  0  0  0
   -2.4168    2.0719    1.1856 C   0  0  2  0  0  0  0  0  0  0  0  0
    0.8882    2.3441   -0.1041 C   0  0  2  0  0  0  0  0  0  0  0  0
   -1.4476    2.2367    2.3461 C   0  0  0  0  0  0  0  0  0  0  0  0
    0.2194    3.7016   -0.2232 C   0  0  0  0  0  0  0  0  0  0  0  0
   -4.7043   -0.7692    0.2580 C   0  0  0  0  0  0  0  0  0  0  0  0
   -4.0075    0.5873    0.1720 C   0  0  0  0  0  0  0  0  0  0  0  0
   -3.6739   -1.9047    0.3220 C   0  0  0  0  0  0  0  0  0  0  0  0
   -5.6592   -0.9641   -0.9276 C   0  0  0  0  0  0  0  0  0  0  0  0
   -4.3466   -3.2753    0.3547 C   0  0  0  0  0  0  0  0  0  0  0  0
   -6.3285   -2.3362   -0.8928 C   0  0  0  0  0  0  0  0  0  0  0  0
   -5.3014   -3.4618   -0.8203 C   0  0  0  0  0  0  0  0  0  0  0  0
    2.1458    0.8206   -1.6268 C   0  0  0  0  0  0  0  0  0  0  0  0
    3.6331   -0.7117   -0.7796 C   0  0  0  0  0  0  0  0  0  0  0  0
    3.2715   -0.5558   -3.0819 C   0  0  0  0  0  0  0  0  0  0  0  0
    3.9374   -1.1741   -2.0436 C   0  0  0  0  0  0  0  0  0  0  0  0
    4.2548   -1.2662    0.3934 C   0  0  0  0  0  0  0  0  0  0  0  0
    5.5097   -1.8245    0.5353 C   0  0  0  0  0  0  0  0  0  0  0  0
    5.7566   -2.2634    1.8682 C   0  0  0  0  0  0  0  0  0  0  0  0
    4.6834   -2.0256    2.6984 C   0  0  0  0  0  0  0  0  0  0  0  0
   -1.8195    1.6308   -0.9268 H   0  0  0  0  0  0  0  0  0  0  0  0
   -0.1216    0.4217    0.3010 H   0  0  0  0  0  0  0  0  0  0  0  0
   -3.1529    2.8839    1.1934 H   0  0  0  0  0  0  0  0  0  0  0  0
    1.7828    2.4385    0.5222 H   0  0  0  0  0  0  0  0  0  0  0  0
   -1.2618    3.2977    2.5490 H   0  0  0  0  0  0  0  0  0  0  0  0
   -1.7832    1.7746    3.2802 H   0  0  0  0  0  0  0  0  0  0  0  0
    0.3565    4.2860    0.6934 H   0  0  0  0  0  0  0  0  0  0  0  0
    0.5755    4.3006   -1.0671 H   0  0  0  0  0  0  0  0  0  0  0  0
   -5.3008   -0.7970    1.1811 H   0  0  0  0  0  0  0  0  0  0  0  0
   -3.5865    0.7087    2.1619 H   0  0  0  0  0  0  0  0  0  0  0  0
   -3.5106    0.6337   -0.8004 H   0  0  0  0  0  0  0  0  0  0  0  0
   -4.7677    1.3788    0.1845 H   0  0  0  0  0  0  0  0  0  0  0  0
   -3.0051   -1.8527   -0.5470 H   0  0  0  0  0  0  0  0  0  0  0  0
   -3.0440   -1.8148    1.2144 H   0  0  0  0  0  0  0  0  0  0  0  0
   -6.4312   -0.1854   -0.9183 H   0  0  0  0  0  0  0  0  0  0  0  0
   -5.1109   -0.8567   -1.8724 H   0  0  0  0  0  0  0  0  0  0  0  0
   -3.5829   -4.0610    0.3364 H   0  0  0  0  0  0  0  0  0  0  0  0
   -4.8989   -3.3883    1.2956 H   0  0  0  0  0  0  0  0  0  0  0  0
   -6.9959   -2.3943   -0.0241 H   0  0  0  0  0  0  0  0  0  0  0  0
   -6.9530   -2.4641   -1.7842 H   0  0  0  0  0  0  0  0  0  0  0  0
    0.7502    2.1987   -2.2304 H   0  0  0  0  0  0  0  0  0  0  0  0
   -5.8156   -4.4251   -0.7286 H   0  0  0  0  0  0  0  0  0  0  0  0
   -4.7280   -3.4930   -1.7549 H   0  0  0  0  0  0  0  0  0  0  0  0
    3.4439   -0.8524   -4.1110 H   0  0  0  0  0  0  0  0  0  0  0  0
    4.6433   -1.9725   -2.2351 H   0  0  0  0  0  0  0  0  0  0  0  0
    6.2286   -1.9153   -0.2696 H   0  0  0  0  0  0  0  0  0  0  0  0
    6.6752   -2.7285    2.2015 H   0  0  0  0  0  0  0  0  0  0  0  0
    4.5999   -2.2558    3.7512 H   0  0  0  0  0  0  0  0  0  0  0  0
  1 25  1  0  0  0  0
  1 28  1  0  0  0  0
  2  9  1  0  0  0  0
  2 12  1  0  0  0  0
  3  8  1  0  0  0  0
  3 13  1  0  0  0  0
  4 10  1  0  0  0  0
  4 15  1  0  0  0  0
  4 38  1  0  0  0  0
  5 11  1  0  0  0  0
  5 21  1  0  0  0  0
  5 49  1  0  0  0  0
  6 21  1  0  0  0  0
  6 22  2  0  0  0  0
  7 21  2  0  0  0  0
  7 23  1  0  0  0  0
  8  9  1  0  0  0  0
  8 10  1  0  0  0  0
  8 29  1  0  0  0  0
  9 11  1  0  0  0  0
  9 30  1  0  0  0  0
 10 12  1  0  0  0  0
 10 31  1  0  0  0  0
 11 13  1  0  0  0  0
 11 32  1  0  0  0  0
 12 33  1  0  0  0  0
 12 34  1  0  0  0  0
 13 35  1  0  0  0  0
 13 36  1  0  0  0  0
 14 15  1  0  0  0  0
 14 16  1  0  0  0  0
 14 17  1  0  0  0  0
 14 37  1  0  0  0  0
 15 39  1  0  0  0  0
 15 40  1  0  0  0  0
 16 18  1  0  0  0  0
 16 41  1  0  0  0  0
 16 42  1  0  0  0  0
 17 19  1  0  0  0  0
 17 43  1  0  0  0  0
 17 44  1  0  0  0  0
 18 20  1  0  0  0  0
 18 45  1  0  0  0  0
 18 46  1  0  0  0  0
 19 20  1  0  0  0  0
 19 47  1  0  0  0  0
 19 48  1  0  0  0  0
 20 50  1  0  0  0  0
 20 51  1  0  0  0  0
 22 24  1  0  0  0  0
 22 25  1  0  0  0  0
 23 24  2  0  0  0  0
 23 52  1  0  0  0  0
 24 53  1  0  0  0  0
 25 26  2  0  0  0  0
 26 27  1  0  0  0  0
 26 54  1  0  0  0  0
 27 28  2  0  0  0  0
 27 55  1  0  0  0  0
 28 56  1  0  0  0  0
M  END
> <PUBCHEM_COMPOUND_CID>
11912908

> <PUBCHEM_CONFORMER_RMSD>
1

> <PUBCHEM_CONFORMER_DIVERSEORDER>
1
79
189
72
259
284
48
291
269
217
198
275
21
302
57
149
254
267
46
115
163
312
237
287
110
168
127
116
313
272
252
250
37
238
118
231
292
108
243
262
257
285
41
98
308
42
167
61
81
290
99
317
151
235
283
71
172
91
232
138
183
233
295
288
296
140
182
187
157
80
36
184
253
162
153
244
234
148
112
226
83
263
124
158
179
310
175
202
305
203
207
268
195
188
281
316
251
228
242
52
213
146
131
173
256
160
119
174
106
122
314
135
319
258
199
130
274
239
67
84
280
44
161
266
39
218
63
76
307
209
12
51
212
156
193
249
117
221
24
321
121
301
7
96
13
85
215
17
208
248
191
186
304
278
86
245
6
154
236
74
192
169
145
227
65
220
73
205
273
241
260
16
246
165
88
53
311
210
300
132
222
22
43
23
225
293
64
297
35
126
320
78
113
294
3
56
68
229
204
133
58
147
55
289
298
60
264
69
177
276
214
219
128
206
150
201
101
190
277
19
142
34
70
14
104
159
170
18
180
315
15
255
164
20
62
137
40
107
306
125
143
144
109
95
129
270
75
318
247
139
197
8
178
155
10
103
29
181
38
211
120
59
152
114
4
136
93
87
309
2
66
166
261
303
141
240
279
265
224
47
49
123
111
33
271
230
45
223
196
299
216
105
54
176
28
90
30
97
82
282
102
94
286
92
322
27
31
77
50
5
171
134
25
89
26
100
9
185
11
194
32
200

> <PUBCHEM_MMFF94_PARTIAL_CHARGES>
29
1 -0.08
10 0.27
11 0.37
12 0.28
13 0.28
15 0.27
2 -0.56
21 0.72
22 0.36
23 0.16
24 -0.15
25 -0.01
26 -0.15
27 -0.15
28 -0.11
3 -0.56
38 0.36
4 -0.9
49 0.4
5 -0.87
52 0.15
53 0.15
54 0.15
55 0.15
56 0.15
6 -0.62
7 -0.62
8 0.28
9 0.28

> <PUBCHEM_EFFECTIVE_ROTOR_COUNT>
8.4

> <PUBCHEM_PHARMACOPHORE_FEATURES>
12
1 2 acceptor
1 3 acceptor
1 4 cation
1 4 donor
1 5 donor
1 6 acceptor
4 5 6 7 21 cation
5 1 25 26 27 28 rings
5 2 8 9 10 12 rings
5 3 8 9 11 13 rings
6 14 16 17 18 19 20 rings
6 6 7 21 22 23 24 rings

> <PUBCHEM_HEAVY_ATOM_COUNT>
28

> <PUBCHEM_ATOM_DEF_STEREO_COUNT>
4

> <PUBCHEM_ATOM_UDEF_STEREO_COUNT>
0

> <PUBCHEM_BOND_DEF_STEREO_COUNT>
0

> <PUBCHEM_BOND_UDEF_STEREO_COUNT>
0

> <PUBCHEM_ISOTOPIC_ATOM_COUNT>
0

> <PUBCHEM_COMPONENT_COUNT>
1

> <PUBCHEM_CACTVS_TAUTO_COUNT>
3

> <PUBCHEM_CONFORMER_ID>
00B5C6CC00000001

> <PUBCHEM_MMFF94_ENERGY>
57.7188

> <PUBCHEM_FEATURE_SELFOVERLAP>
61.606

> <PUBCHEM_SHAPE_FINGERPRINT>
10622 236 17605266294655465778
10794284 68 17983855864361038198
11069576 57 17821733806305302254
11135926 11 16155716404867136566
11720765 8 18115298003336116549
11796584 16 18342179942894548565
12147406 95 17765418139280774975
12166972 35 17967244308379294407
12559416 39 18129931382142608855
12977781 61 18046311284728546460
13583140 156 15337158468609223572
13782708 43 17273993345807479750
13828863 39 13038891274614306434
14068700 675 18187916253978076690
14480069 147 17531828942484500435
14508693 111 18411709806623223386
14674994 50 17172347799049218980
14848178 5 18130793365013576869
15003188 105 18121222240310268367
15510800 12 18060699481515807519
19032999 76 18409724032767285944
20626108 58 18342462564427086665
20775530 9 18196388115666151711
21223535 225 15213566846049568575
21315763 87 16415761951165465983
21315764 21 16588308327522464658
21458453 9 16844144935268028130
21585480 29 16128076958260739663
23572383 38 17917431986913789047
2838139 119 11963666785418271309
3459 110 15769476686531591302
392239 28 15625640761814432388
4017518 198 16820508355795669310
4280585 95 18337098008671941315
437795 139 18261100898731495571
4394409 98 18262786381854708855
46194498 28 13986389914066048452
463206 1 18187090541856320299
4756261 7 17195977760003354882
50009960 94 17912338099904127335
59025328 239 17022900125755230702
6034566 193 8610455872879149726
613672 6 18059857259966870565
66674814 147 17531242829609103210

> <PUBCHEM_SHAPE_MULTIPOLES>
548.41
14.2
4.4
2.64
6.41
1.16
0.7
-18.51
-0.58
3.82
-0.81
-4.16
-0.31
-3.47

> <PUBCHEM_SHAPE_SELFOVERLAP>
1166.156

> <PUBCHEM_SHAPE_VOLUME>
307.2

> <PUBCHEM_COORDINATE_TYPE>
2
5
10

$$$$
