40778248
  -OEChem-12032416173D

 52 53  0     1  0  0  0  0  0999 V2000
   -2.2340    0.1075   -0.6237 O   0  0  0  0  0  0  0  0  0  0  0  0
   -4.8571   -1.8516    0.8530 O   0  0  0  0  0  0  0  0  0  0  0  0
   -5.2323    0.0140   -1.1338 O   0  0  0  0  0  0  0  0  0  0  0  0
   -0.3894   -1.8247   -1.4752 O   0  0  0  0  0  0  0  0  0  0  0  0
    0.0176    1.2507    0.9538 O   0  0  0  0  0  0  0  0  0  0  0  0
   -1.5151    2.7737    0.1000 N   0  0  0  0  0  0  0  0  0  0  0  0
    0.5376   -2.8494    0.3933 N   0  0  0  0  0  0  0  0  0  0  0  0
    0.7447    3.0991   -0.2456 N   0  0  0  0  0  0  0  0  0  0  0  0
    4.3838   -0.6059   -1.0670 N   0  0  0  0  0  0  0  0  0  0  0  0
   -3.9366   -0.7875    0.7397 C   0  0  2  0  0  0  0  0  0  0  0  0
   -4.5016    0.4211    0.0225 C   0  0  1  0  0  0  0  0  0  0  0  0
   -2.7578   -1.1455   -0.1493 C   0  0  2  0  0  0  0  0  0  0  0  0
   -3.2368    1.1336   -0.4435 C   0  0  1  0  0  0  0  0  0  0  0  0
   -1.6675   -1.9136    0.5763 C   0  0  0  0  0  0  0  0  0  0  0  0
   -2.7044    2.1311    0.5761 C   0  0  0  0  0  0  0  0  0  0  0  0
   -0.4566   -2.1749   -0.3001 C   0  0  0  0  0  0  0  0  0  0  0  0
   -0.2260    2.2807    0.3265 C   0  0  0  0  0  0  0  0  0  0  0  0
    1.7985   -3.2267   -0.2028 C   0  0  0  0  0  0  0  0  0  0  0  0
    2.1579    2.8159   -0.1578 C   0  0  0  0  0  0  0  0  0  0  0  0
    2.8392   -2.1569   -0.0405 C   0  0  0  0  0  0  0  0  0  0  0  0
    2.7439    3.4321    1.1060 C   0  0  0  0  0  0  0  0  0  0  0  0
    2.8817    3.3150   -1.4021 C   0  0  0  0  0  0  0  0  0  0  0  0
    3.2313   -1.7237    1.2212 C   0  0  0  0  0  0  0  0  0  0  0  0
    3.4405   -1.5713   -1.1430 C   0  0  0  0  0  0  0  0  0  0  0  0
    4.1990   -0.7323    1.3401 C   0  0  0  0  0  0  0  0  0  0  0  0
    4.7394   -0.2105    0.1760 C   0  0  0  0  0  0  0  0  0  0  0  0
   -3.5961   -0.5057    1.7432 H   0  0  0  0  0  0  0  0  0  0  0  0
   -5.1668    1.0257    0.6453 H   0  0  0  0  0  0  0  0  0  0  0  0
   -3.0870   -1.7209   -1.0245 H   0  0  0  0  0  0  0  0  0  0  0  0
   -3.3758    1.6241   -1.4141 H   0  0  0  0  0  0  0  0  0  0  0  0
   -2.0536   -2.8736    0.9373 H   0  0  0  0  0  0  0  0  0  0  0  0
   -1.3171   -1.3374    1.4421 H   0  0  0  0  0  0  0  0  0  0  0  0
   -2.4684    1.6372    1.5251 H   0  0  0  0  0  0  0  0  0  0  0  0
   -3.4443    2.9146    0.7690 H   0  0  0  0  0  0  0  0  0  0  0  0
   -5.6334   -1.5155    1.3325 H   0  0  0  0  0  0  0  0  0  0  0  0
   -5.5426    0.8203   -1.5801 H   0  0  0  0  0  0  0  0  0  0  0  0
   -1.6152    3.6267   -0.4416 H   0  0  0  0  0  0  0  0  0  0  0  0
    0.3879   -3.0833    1.3707 H   0  0  0  0  0  0  0  0  0  0  0  0
    1.6338   -3.4575   -1.2615 H   0  0  0  0  0  0  0  0  0  0  0  0
    2.1376   -4.1463    0.2869 H   0  0  0  0  0  0  0  0  0  0  0  0
    0.4485    3.9683   -0.6797 H   0  0  0  0  0  0  0  0  0  0  0  0
    2.2815    1.7284   -0.0998 H   0  0  0  0  0  0  0  0  0  0  0  0
    2.2435    3.0439    1.9999 H   0  0  0  0  0  0  0  0  0  0  0  0
    3.8115    3.2053    1.1929 H   0  0  0  0  0  0  0  0  0  0  0  0
    2.6244    4.5213    1.1090 H   0  0  0  0  0  0  0  0  0  0  0  0
    3.9484    3.0722   -1.3583 H   0  0  0  0  0  0  0  0  0  0  0  0
    2.7822    4.4006   -1.5126 H   0  0  0  0  0  0  0  0  0  0  0  0
    2.4657    2.8523   -2.3038 H   0  0  0  0  0  0  0  0  0  0  0  0
    2.7937   -2.1524    2.1186 H   0  0  0  0  0  0  0  0  0  0  0  0
    3.1773   -1.8650   -2.1544 H   0  0  0  0  0  0  0  0  0  0  0  0
    4.5196   -0.3785    2.3132 H   0  0  0  0  0  0  0  0  0  0  0  0
    5.4958    0.5665    0.2144 H   0  0  0  0  0  0  0  0  0  0  0  0
  1 12  1  0  0  0  0
  1 13  1  0  0  0  0
  2 10  1  0  0  0  0
  2 35  1  0  0  0  0
  3 11  1  0  0  0  0
  3 36  1  0  0  0  0
  4 16  2  0  0  0  0
  5 17  2  0  0  0  0
  6 15  1  0  0  0  0
  6 17  1  0  0  0  0
  6 37  1  0  0  0  0
  7 16  1  0  0  0  0
  7 18  1  0  0  0  0
  7 38  1  0  0  0  0
  8 17  1  0  0  0  0
  8 19  1  0  0  0  0
  8 41  1  0  0  0  0
  9 24  1  0  0  0  0
  9 26  2  0  0  0  0
 10 11  1  0  0  0  0
 10 12  1  0  0  0  0
 10 27  1  0  0  0  0
 11 13  1  0  0  0  0
 11 28  1  0  0  0  0
 12 14  1  0  0  0  0
 12 29  1  0  0  0  0
 13 15  1  0  0  0  0
 13 30  1  0  0  0  0
 14 16  1  0  0  0  0
 14 31  1  0  0  0  0
 14 32  1  0  0  0  0
 15 33  1  0  0  0  0
 15 34  1  0  0  0  0
 18 20  1  0  0  0  0
 18 39  1  0  0  0  0
 18 40  1  0  0  0  0
 19 21  1  0  0  0  0
 19 22  1  0  0  0  0
 19 42  1  0  0  0  0
 20 23  1  0  0  0  0
 20 24  2  0  0  0  0
 21 43  1  0  0  0  0
 21 44  1  0  0  0  0
 21 45  1  0  0  0  0
 22 46  1  0  0  0  0
 22 47  1  0  0  0  0
 22 48  1  0  0  0  0
 23 25  2  0  0  0  0
 23 49  1  0  0  0  0
 24 50  1  0  0  0  0
 25 26  1  0  0  0  0
 25 51  1  0  0  0  0
 26 52  1  0  0  0  0
M  END
> <PUBCHEM_COMPOUND_CID>
40778248

> <PUBCHEM_CONFORMER_RMSD>
1.2

> <PUBCHEM_CONFORMER_DIVERSEORDER>
1
54
51
101
135
121
40
100
64
86
31
97
137
173
132
57
139
116
70
60
159
43
76
20
55
32
48
115
153
164
104
133
71
126
52
9
59
72
74
34
102
42
28
44
117
136
129
7
47
58
81
3
141
111
50
39
62
93
120
107
157
161
87
103
16
68
105
91
66
45
127
154
113
172
23
65
119
63
77
96
15
128
30
80
92
143
90
69
18
106
21
26
167
131
49
145
17
148
108
35
24
46
150
73
138
169
6
152
122
110
142
37
29
11
61
25
95
140
109
79
94
144
10
124
19
53
114
99
146
75
134
160
67
156
155
162
22
147
38
88
170
165
36
123
149
56
85
118
8
13
166
171
12
14
82
98
158
33
78
5
130
27
83
125
89
4
163
84
2
112
168
151
41

> <PUBCHEM_MMFF94_PARTIAL_CHARGES>
33
1 -0.56
10 0.28
11 0.28
12 0.28
13 0.28
14 0.06
15 0.3
16 0.57
17 0.69
18 0.44
19 0.3
2 -0.68
20 -0.14
23 -0.15
24 0.16
25 -0.15
26 0.16
3 -0.68
35 0.4
36 0.4
37 0.37
38 0.37
4 -0.57
41 0.37
49 0.15
5 -0.57
50 0.15
51 0.15
52 0.15
6 -0.73
7 -0.73
8 -0.73
9 -0.62

> <PUBCHEM_EFFECTIVE_ROTOR_COUNT>
11

> <PUBCHEM_PHARMACOPHORE_FEATURES>
14
1 1 acceptor
1 2 acceptor
1 2 donor
1 3 acceptor
1 3 donor
1 4 acceptor
1 5 acceptor
1 6 donor
1 7 donor
1 8 donor
1 9 acceptor
3 19 21 22 hydrophobe
5 1 10 11 12 13 rings
6 9 20 23 24 25 26 rings

> <PUBCHEM_HEAVY_ATOM_COUNT>
26

> <PUBCHEM_ATOM_DEF_STEREO_COUNT>
4

> <PUBCHEM_ATOM_UDEF_STEREO_COUNT>
0

> <PUBCHEM_BOND_DEF_STEREO_COUNT>
0

> <PUBCHEM_BOND_UDEF_STEREO_COUNT>
0

> <PUBCHEM_ISOTOPIC_ATOM_COUNT>
0

> <PUBCHEM_COMPONENT_COUNT>
1

> <PUBCHEM_CACTVS_TAUTO_COUNT>
6

> <PUBCHEM_CONFORMER_ID>
026E3A0800000001

> <PUBCHEM_MMFF94_ENERGY>
48.35

> <PUBCHEM_FEATURE_SELFOVERLAP>
71.115

> <PUBCHEM_SHAPE_FINGERPRINT>
10498660 4 18267023843268722478
10670039 82 18265064539787529894
11112241 14 16771516699053120704
12166972 35 17822582616323067478
12553582 1 18265903449457316320
12978246 48 18410854386724032584
13122387 1 18266740169495609580
13140716 1 18267018534552124714
13402501 40 18411976966842610608
14020679 6 17970087573256894569
14117953 113 17472696927811492372
14787075 74 18187089468273446491
14931854 50 18337685156566229860
15210252 30 18335432223118320724
18785283 64 18262811781863399009
19930381 70 18410013273102967931
20715895 44 17320127629131415677
23227448 37 18341047535643046622
23559900 14 18409722984843290625
3298306 158 18194404630569607069
338550 245 18263644138083674364
3524813 1 17988063505638463442
3680242 22 18191028902222925835
5265222 85 17470740269603372580
532947 4 18340197609307707493

> <PUBCHEM_SHAPE_MULTIPOLES>
485.8
9.7
4.77
1.2
3.88
2.76
0.08
-1.83
-0.11
-3.28
0.05
-0.69
0.05
0.01

> <PUBCHEM_SHAPE_SELFOVERLAP>
996.092

> <PUBCHEM_SHAPE_VOLUME>
279.1

> <PUBCHEM_COORDINATE_TYPE>
2
5
10

$$$$
