11867206
  -OEChem-12032416113D

 43 46  0     1  0  0  0  0  0999 V2000
    7.0134    2.1692   -0.0521 Cl  0  0  0  0  0  0  0  0  0  0  0  0
    1.9107   -1.4362   -0.3795 S   0  0  0  0  0  0  0  0  0  0  0  0
   -1.0487   -2.3703   -0.0552 O   0  0  0  0  0  0  0  0  0  0  0  0
    2.3528   -2.8172   -0.3349 O   0  0  0  0  0  0  0  0  0  0  0  0
    1.1141   -0.9596   -1.4943 O   0  0  0  0  0  0  0  0  0  0  0  0
   -2.4886   -0.5638    0.3350 N   0  0  0  0  0  0  0  0  0  0  0  0
   -4.0430    1.3043   -1.7478 N   0  0  0  0  0  0  0  0  0  0  0  0
    1.1494   -1.0337    1.0776 N   0  0  0  0  0  0  0  0  0  0  0  0
   -4.9577   -0.5637   -0.3472 C   0  0  2  0  0  0  0  0  0  0  0  0
   -4.0008    1.4077    0.7491 C   0  0  2  0  0  0  0  0  0  0  0  0
   -5.1297    0.3831    0.8340 C   0  0  0  0  0  0  0  0  0  0  0  0
   -3.6342   -1.3230   -0.1837 C   0  0  0  0  0  0  0  0  0  0  0  0
   -5.0272    0.2255   -1.6690 C   0  0  0  0  0  0  0  0  0  0  0  0
   -4.1107    2.1855   -0.5795 C   0  0  0  0  0  0  0  0  0  0  0  0
   -2.6482    0.7277    0.8558 C   0  0  0  0  0  0  0  0  0  0  0  0
   -1.6102    1.3657    1.4268 C   0  0  0  0  0  0  0  0  0  0  0  0
   -1.2476   -1.2336    0.3715 C   0  0  0  0  0  0  0  0  0  0  0  0
   -0.1364   -0.4707    0.9939 C   0  0  0  0  0  0  0  0  0  0  0  0
   -0.3119    0.7512    1.4984 C   0  0  0  0  0  0  0  0  0  0  0  0
    3.3538   -0.4177   -0.2885 C   0  0  0  0  0  0  0  0  0  0  0  0
    4.4986   -0.9211    0.3031 C   0  0  0  0  0  0  0  0  0  0  0  0
    3.3091    0.8633   -0.8095 C   0  0  0  0  0  0  0  0  0  0  0  0
    5.6362   -0.1172    0.3762 C   0  0  0  0  0  0  0  0  0  0  0  0
    4.4467    1.6674   -0.7365 C   0  0  0  0  0  0  0  0  0  0  0  0
    5.6103    1.1770   -0.1436 C   0  0  0  0  0  0  0  0  0  0  0  0
   -5.7760   -1.2945   -0.3543 H   0  0  0  0  0  0  0  0  0  0  0  0
   -4.1228    2.1188    1.5767 H   0  0  0  0  0  0  0  0  0  0  0  0
   -5.0935   -0.1657    1.7833 H   0  0  0  0  0  0  0  0  0  0  0  0
   -6.1055    0.8820    0.7871 H   0  0  0  0  0  0  0  0  0  0  0  0
   -3.7891   -2.1454    0.5281 H   0  0  0  0  0  0  0  0  0  0  0  0
   -3.3401   -1.7959   -1.1292 H   0  0  0  0  0  0  0  0  0  0  0  0
   -4.8685   -0.4563   -2.5123 H   0  0  0  0  0  0  0  0  0  0  0  0
   -6.0342    0.6447   -1.7899 H   0  0  0  0  0  0  0  0  0  0  0  0
   -5.0524    2.7487   -0.6002 H   0  0  0  0  0  0  0  0  0  0  0  0
   -3.3027    2.9232   -0.6509 H   0  0  0  0  0  0  0  0  0  0  0  0
   -4.1956    1.8476   -2.5966 H   0  0  0  0  0  0  0  0  0  0  0  0
   -1.7111    2.3681    1.8295 H   0  0  0  0  0  0  0  0  0  0  0  0
    0.4900    1.3197    1.9572 H   0  0  0  0  0  0  0  0  0  0  0  0
    1.7534   -0.5508    1.7578 H   0  0  0  0  0  0  0  0  0  0  0  0
    4.5358   -1.9226    0.7204 H   0  0  0  0  0  0  0  0  0  0  0  0
    2.4105    1.2653   -1.2669 H   0  0  0  0  0  0  0  0  0  0  0  0
    6.5353   -0.5116    0.8428 H   0  0  0  0  0  0  0  0  0  0  0  0
    4.4114    2.6746   -1.1437 H   0  0  0  0  0  0  0  0  0  0  0  0
  1 25  1  0  0  0  0
  2  4  2  0  0  0  0
  2  5  2  0  0  0  0
  2  8  1  0  0  0  0
  2 20  1  0  0  0  0
  3 17  2  0  0  0  0
  6 12  1  0  0  0  0
  6 15  1  0  0  0  0
  6 17  1  0  0  0  0
  7 13  1  0  0  0  0
  7 14  1  0  0  0  0
  7 36  1  0  0  0  0
  8 18  1  0  0  0  0
  8 39  1  0  0  0  0
  9 11  1  0  0  0  0
  9 12  1  0  0  0  0
  9 13  1  0  0  0  0
  9 26  1  0  0  0  0
 10 11  1  0  0  0  0
 10 14  1  0  0  0  0
 10 15  1  0  0  0  0
 10 27  1  0  0  0  0
 11 28  1  0  0  0  0
 11 29  1  0  0  0  0
 12 30  1  0  0  0  0
 12 31  1  0  0  0  0
 13 32  1  0  0  0  0
 13 33  1  0  0  0  0
 14 34  1  0  0  0  0
 14 35  1  0  0  0  0
 15 16  2  0  0  0  0
 16 19  1  0  0  0  0
 16 37  1  0  0  0  0
 17 18  1  0  0  0  0
 18 19  2  0  0  0  0
 19 38  1  0  0  0  0
 20 21  2  0  0  0  0
 20 22  1  0  0  0  0
 21 23  1  0  0  0  0
 21 40  1  0  0  0  0
 22 24  2  0  0  0  0
 22 41  1  0  0  0  0
 23 25  2  0  0  0  0
 23 42  1  0  0  0  0
 24 25  1  0  0  0  0
 24 43  1  0  0  0  0
M  END
> <PUBCHEM_COMPOUND_CID>
11867206

> <PUBCHEM_CONFORMER_RMSD>
0.8

> <PUBCHEM_CONFORMER_DIVERSEORDER>
1
2
4
3
5
8
6
7

> <PUBCHEM_MMFF94_PARTIAL_CHARGES>
31
1 -0.18
10 0.14
12 0.3
13 0.27
14 0.27
15 -0.03
16 -0.15
17 0.62
18 0.21
19 -0.15
2 1.45
20 -0.01
21 -0.15
22 -0.15
23 -0.15
24 -0.15
25 0.18
3 -0.57
36 0.36
37 0.15
38 0.15
39 0.42
4 -0.65
40 0.15
41 0.15
42 0.15
43 0.15
5 -0.65
6 -0.47
7 -0.9
8 -0.75

> <PUBCHEM_EFFECTIVE_ROTOR_COUNT>
4

> <PUBCHEM_PHARMACOPHORE_FEATURES>
10
1 3 acceptor
1 4 acceptor
1 5 acceptor
1 7 cation
1 7 donor
1 8 donor
6 20 21 22 23 24 25 rings
6 6 15 16 17 18 19 rings
6 6 9 10 11 12 15 rings
6 7 9 10 11 13 14 rings

> <PUBCHEM_HEAVY_ATOM_COUNT>
25

> <PUBCHEM_ATOM_DEF_STEREO_COUNT>
2

> <PUBCHEM_ATOM_UDEF_STEREO_COUNT>
0

> <PUBCHEM_BOND_DEF_STEREO_COUNT>
0

> <PUBCHEM_BOND_UDEF_STEREO_COUNT>
0

> <PUBCHEM_ISOTOPIC_ATOM_COUNT>
0

> <PUBCHEM_COMPONENT_COUNT>
1

> <PUBCHEM_CACTVS_TAUTO_COUNT>
1

> <PUBCHEM_CONFORMER_ID>
00B5144600000001

> <PUBCHEM_MMFF94_ENERGY>
51.8705

> <PUBCHEM_FEATURE_SELFOVERLAP>
52.312

> <PUBCHEM_SHAPE_FINGERPRINT>
10042902 136 14835537281242107677
10090160 65 18341895160539838442
10595046 47 18342176661069854187
11089746 13 17894909612210549226
11552529 35 7996240653227154645
11961588 58 18342449378945722090
12166972 35 18409172104138179112
12236239 1 18410855469266956642
12422481 6 11963660102158859416
12633257 1 13190347858973991175
12670546 177 18343016675511561445
12760667 363 8718835266578412552
12788726 201 16915952764130230017
128620 24 16917351407144763920
13103583 49 7853566963480966501
13583140 156 17604159184882000307
13631057 29 18199184165098828351
13911987 19 18059856181650685975
14251764 30 10592047964276806196
14251764 38 17821733801382737804
14420673 8 8718560418958273072
14466204 15 14056995001551180815
14528608 73 18202283615330793160
14739800 52 16516509024528678277
14767858 380 18131062762231053719
14790565 3 17267805174075876969
14950920 106 10737869512857746805
15183329 4 18407758140642769144
15188451 53 14490764532305608689
15463212 79 18040711489657443363
15537594 2 15913327975074690519
16110190 28 11025802020173830250
17349148 13 18272091561022343416
17959699 21 18334294258010189360
1813 80 12463567349047349082
19438510 23 16372395975873966477
20511986 3 18336534006746937912
20715895 44 18120372060250663877
21033648 29 16877944914663400668
21403212 168 12252167568695319509
22950370 63 9871749096426802770
23227448 37 18335988661173444366
23402539 116 18202282472357757033
23559900 14 18058725939685213200
2838139 119 18410853265938437588
34797466 226 17489598895542243916
351380 180 17821447958719191804
351380 3 9223235126741690840
3737641 26 12247417673741735492
4325135 7 18342177769519361757
465052 167 8358251558005014016
474 4 18187091676091689386
543368 44 18413673517574338209
67856867 119 18340485556927065378
7226269 152 15068619370515533892
7237137 82 18270397312657662047
8863177 126 10807921691901695132
9981440 41 18336835276970148618
999808 66 10519712215293083972

> <PUBCHEM_SHAPE_MULTIPOLES>
487.66
14.98
2.28
1.33
12.31
0.33
0.15
-7.74
2.77
0.96
0.23
-1.22
-0.33
-0.2

> <PUBCHEM_SHAPE_SELFOVERLAP>
1042.297

> <PUBCHEM_SHAPE_VOLUME>
269.8

> <PUBCHEM_COORDINATE_TYPE>
2
5
10

$$$$
