75536612
  -OEChem-12032416303D

 39 40  0     1  0  0  0  0  0999 V2000
   -1.3901    1.2425   -0.0819 O   0  0  0  0  0  0  0  0  0  0  0  0
   -2.9655   -1.9819    0.0824 O   0  0  0  0  0  0  0  0  0  0  0  0
    1.6725   -1.9992    0.2629 O   0  0  0  0  0  0  0  0  0  0  0  0
   -4.9414    0.4606    0.0069 N   0  0  0  0  0  0  0  0  0  0  0  0
    0.9679   -0.1541   -0.9545 N   0  0  0  0  0  0  0  0  0  0  0  0
   -3.5451    0.3681    0.4010 C   0  0  1  0  0  0  0  0  0  0  0  0
   -2.7574   -0.6634   -0.3853 C   0  0  1  0  0  0  0  0  0  0  0  0
   -1.3303   -0.1924   -0.1394 C   0  0  1  0  0  0  0  0  0  0  0  0
   -2.7612    1.6359    0.1037 C   0  0  0  0  0  0  0  0  0  0  0  0
   -0.3606   -0.6226   -1.2256 C   0  0  0  0  0  0  0  0  0  0  0  0
   -5.6386   -0.8040    0.2592 C   0  0  0  0  0  0  0  0  0  0  0  0
   -5.6115    1.5547    0.7159 C   0  0  0  0  0  0  0  0  0  0  0  0
    1.8919   -0.8917   -0.2206 C   0  0  0  0  0  0  0  0  0  0  0  0
    3.2169   -0.2553   -0.0052 C   0  0  0  0  0  0  0  0  0  0  0  0
    3.9790   -0.5916    1.1136 C   0  0  0  0  0  0  0  0  0  0  0  0
    3.6995    0.6775   -0.9230 C   0  0  0  0  0  0  0  0  0  0  0  0
    5.2237    0.0050    1.3149 C   0  0  0  0  0  0  0  0  0  0  0  0
    4.9442    1.2741   -0.7220 C   0  0  0  0  0  0  0  0  0  0  0  0
    5.7063    0.9379    0.3969 C   0  0  0  0  0  0  0  0  0  0  0  0
   -3.4669    0.1406    1.4748 H   0  0  0  0  0  0  0  0  0  0  0  0
   -3.0062   -0.6225   -1.4532 H   0  0  0  0  0  0  0  0  0  0  0  0
   -0.9684   -0.5436    0.8359 H   0  0  0  0  0  0  0  0  0  0  0  0
   -3.0807    2.1190   -0.8270 H   0  0  0  0  0  0  0  0  0  0  0  0
   -2.8146    2.3701    0.9134 H   0  0  0  0  0  0  0  0  0  0  0  0
   -0.6472   -0.1905   -2.1907 H   0  0  0  0  0  0  0  0  0  0  0  0
   -0.3489   -1.7135   -1.3233 H   0  0  0  0  0  0  0  0  0  0  0  0
   -2.7500   -2.0073    1.0301 H   0  0  0  0  0  0  0  0  0  0  0  0
   -6.7135   -0.6915    0.0725 H   0  0  0  0  0  0  0  0  0  0  0  0
   -5.5143   -1.1531    1.2907 H   0  0  0  0  0  0  0  0  0  0  0  0
   -5.3123   -1.5867   -0.4319 H   0  0  0  0  0  0  0  0  0  0  0  0
   -6.6688    1.6045    0.4302 H   0  0  0  0  0  0  0  0  0  0  0  0
   -5.1883    2.5289    0.4507 H   0  0  0  0  0  0  0  0  0  0  0  0
   -5.5595    1.4343    1.8042 H   0  0  0  0  0  0  0  0  0  0  0  0
    1.1905    0.7853   -1.2655 H   0  0  0  0  0  0  0  0  0  0  0  0
    3.6185   -1.3130    1.8423 H   0  0  0  0  0  0  0  0  0  0  0  0
    3.1529    0.9442   -1.8226 H   0  0  0  0  0  0  0  0  0  0  0  0
    5.8169   -0.2561    2.1863 H   0  0  0  0  0  0  0  0  0  0  0  0
    5.3237    1.9952   -1.4401 H   0  0  0  0  0  0  0  0  0  0  0  0
    6.6761    1.4014    0.5526 H   0  0  0  0  0  0  0  0  0  0  0  0
  1  8  1  0  0  0  0
  1  9  1  0  0  0  0
  2  7  1  0  0  0  0
  2 27  1  0  0  0  0
  3 13  2  0  0  0  0
  4  6  1  0  0  0  0
  4 11  1  0  0  0  0
  4 12  1  0  0  0  0
  5 10  1  0  0  0  0
  5 13  1  0  0  0  0
  5 34  1  0  0  0  0
  6  7  1  0  0  0  0
  6  9  1  0  0  0  0
  6 20  1  0  0  0  0
  7  8  1  0  0  0  0
  7 21  1  0  0  0  0
  8 10  1  0  0  0  0
  8 22  1  0  0  0  0
  9 23  1  0  0  0  0
  9 24  1  0  0  0  0
 10 25  1  0  0  0  0
 10 26  1  0  0  0  0
 11 28  1  0  0  0  0
 11 29  1  0  0  0  0
 11 30  1  0  0  0  0
 12 31  1  0  0  0  0
 12 32  1  0  0  0  0
 12 33  1  0  0  0  0
 13 14  1  0  0  0  0
 14 15  2  0  0  0  0
 14 16  1  0  0  0  0
 15 17  1  0  0  0  0
 15 35  1  0  0  0  0
 16 18  2  0  0  0  0
 16 36  1  0  0  0  0
 17 19  2  0  0  0  0
 17 37  1  0  0  0  0
 18 19  1  0  0  0  0
 18 38  1  0  0  0  0
 19 39  1  0  0  0  0
M  END
> <PUBCHEM_COMPOUND_CID>
75536612

> <PUBCHEM_CONFORMER_RMSD>
0.8

> <PUBCHEM_CONFORMER_DIVERSEORDER>
1
21
17
11
7
20
28
5
16
14
13
19
15
2
30
4
26
10
12
23
24
18
3
22
27
25
29
31
8
9
6

> <PUBCHEM_MMFF94_PARTIAL_CHARGES>
26
1 -0.56
10 0.3
11 0.27
12 0.27
13 0.54
14 0.09
15 -0.15
16 -0.15
17 -0.15
18 -0.15
19 -0.15
2 -0.68
27 0.4
3 -0.57
34 0.37
35 0.15
36 0.15
37 0.15
38 0.15
39 0.15
4 -0.81
5 -0.73
6 0.27
7 0.28
8 0.28
9 0.28

> <PUBCHEM_EFFECTIVE_ROTOR_COUNT>
6

> <PUBCHEM_PHARMACOPHORE_FEATURES>
8
1 1 acceptor
1 2 acceptor
1 2 donor
1 3 acceptor
1 4 cation
1 5 donor
5 1 6 7 8 9 rings
6 14 15 16 17 18 19 rings

> <PUBCHEM_HEAVY_ATOM_COUNT>
19

> <PUBCHEM_ATOM_DEF_STEREO_COUNT>
3

> <PUBCHEM_ATOM_UDEF_STEREO_COUNT>
0

> <PUBCHEM_BOND_DEF_STEREO_COUNT>
0

> <PUBCHEM_BOND_UDEF_STEREO_COUNT>
0

> <PUBCHEM_ISOTOPIC_ATOM_COUNT>
0

> <PUBCHEM_COMPONENT_COUNT>
1

> <PUBCHEM_CACTVS_TAUTO_COUNT>
2

> <PUBCHEM_CONFORMER_ID>
048098E400000001

> <PUBCHEM_MMFF94_ENERGY>
49.7905

> <PUBCHEM_FEATURE_SELFOVERLAP>
40.596

> <PUBCHEM_SHAPE_FINGERPRINT>
10354089 29 18113899369180034292
10670039 82 17703243823452333544
117890 112 18343303626603398329
11796584 16 11458427933606579936
12107183 9 17612863803943997592
12236239 1 18114180843312557228
12596602 18 17894631461090308617
12616971 3 17458343069830224558
12730499 353 16343709841499737478
12916748 109 16774082868939818624
13288520 33 7853577911283882415
13533116 47 17313380094107385466
13668630 136 11458421311151910848
13897977 58 18342460344034203917
14251751 18 14418430922257979449
14251752 14 10879723056780424691
14341114 176 18334576815708977282
14341114 328 18334012804719214402
14848160 23 15140678089787491513
15788980 27 13695587766994527970
17870717 6 11025795358141627209
17980427 23 18409732889464747605
19050596 39 18260828215515708662
19784866 240 11602822371702089079
200 152 13695870320255845829
20645477 56 17489584571440884805
20645477 70 8142080975294137802
21065198 48 18260828163923217250
21150785 3 14333116482354134369
221357 26 13398631627931348770
2215653 11 11819270074920481249
22224240 67 16370724881529556272
23402539 116 18187078485867406023
23402655 69 12679461997726577886
23559900 14 18199768954559757551
26918003 58 17022905661604084153
2916195 48 17703497913780264408
29717793 49 9871475339817624544
300161 21 18410571760975563949
32948 21 10303814276161671891
3472631 163 17845931939876981300
34797466 226 17417540214534737908
351380 3 7925912573625373024
3545911 37 18343304747557973870
465052 167 10953747681346898024
5104073 3 18338243639848712539
5374978 207 18186520990654293444
542803 24 18114183038019811436
559249 180 9006794067610969372
58051976 100 9799402321950866593
67856867 119 18042129923812589589
960060 61 11600004375636032544

> <PUBCHEM_SHAPE_MULTIPOLES>
363.44
14.72
1.6
1.03
1.19
0.1
0.02
-4.3
3.71
0.93
0.08
-0.95
0
-0.77

> <PUBCHEM_SHAPE_SELFOVERLAP>
753.757

> <PUBCHEM_SHAPE_VOLUME>
209.1

> <PUBCHEM_COORDINATE_TYPE>
2
5
10

$$$$
