11865736
  -OEChem-12032416403D

 67 69  0     1  0  0  0  0  0999 V2000
    1.4979    1.0705    1.1364 O   0  0  0  0  0  0  0  0  0  0  0  0
    4.5424    1.4786    0.4889 O   0  0  0  0  0  0  0  0  0  0  0  0
   -0.8547   -3.1938   -1.4937 O   0  0  0  0  0  0  0  0  0  0  0  0
    0.8183    4.6092   -0.5604 O   0  0  0  0  0  0  0  0  0  0  0  0
    3.2819   -0.3386   -0.2038 N   0  0  0  0  0  0  0  0  0  0  0  0
    0.5781   -2.0024   -0.1081 N   0  0  0  0  0  0  0  0  0  0  0  0
    0.4561    1.8930   -0.7760 N   0  0  0  0  0  0  0  0  0  0  0  0
   -1.5036   -2.6140    0.6572 N   0  0  0  0  0  0  0  0  0  0  0  0
   -3.5871   -0.4005   -1.4367 N   0  0  0  0  0  0  0  0  0  0  0  0
   -0.4879    4.5975    1.3290 N   0  0  0  0  0  0  0  0  0  0  0  0
    1.6773   -1.8895   -1.0339 C   0  0  1  0  0  0  0  0  0  0  0  0
    2.3399    0.4317   -1.0044 C   0  0  1  0  0  0  0  0  0  0  0  0
    1.6007   -0.5996   -1.8531 C   0  0  0  0  0  0  0  0  0  0  0  0
    3.0176   -1.7757   -0.3130 C   0  0  0  0  0  0  0  0  0  0  0  0
    1.4057    1.1599   -0.0851 C   0  0  0  0  0  0  0  0  0  0  0  0
    4.3610    0.2630    0.4218 C   0  0  0  0  0  0  0  0  0  0  0  0
   -0.5747    2.6666   -0.1224 C   0  0  2  0  0  0  0  0  0  0  0  0
   -0.6154   -2.6531   -0.4148 C   0  0  0  0  0  0  0  0  0  0  0  0
   -1.8360    2.7999   -0.9851 C   0  0  0  0  0  0  0  0  0  0  0  0
    5.3513   -0.6352    1.0483 C   0  0  0  0  0  0  0  0  0  0  0  0
   -2.7086    1.5779   -0.9454 C   0  0  0  0  0  0  0  0  0  0  0  0
    0.0149    4.0380    0.1733 C   0  0  0  0  0  0  0  0  0  0  0  0
   -3.7670    1.3213   -0.0294 C   0  0  0  0  0  0  0  0  0  0  0  0
    6.6521   -0.6941    0.7160 C   0  0  0  0  0  0  0  0  0  0  0  0
   -2.6224    0.5014   -1.7978 C   0  0  0  0  0  0  0  0  0  0  0  0
   -4.3012    0.0739   -0.3595 C   0  0  0  0  0  0  0  0  0  0  0  0
   -2.8162   -3.2135    0.6081 C   0  0  0  0  0  0  0  0  0  0  0  0
   -4.3234    2.0326    1.0521 C   0  0  0  0  0  0  0  0  0  0  0  0
    7.1869    0.2033   -0.3703 C   0  0  0  0  0  0  0  0  0  0  0  0
    7.6889   -1.5934    1.3297 C   0  0  0  0  0  0  0  0  0  0  0  0
   -5.3684   -0.5000    0.3408 C   0  0  0  0  0  0  0  0  0  0  0  0
   -5.3912    1.4711    1.7616 C   0  0  0  0  0  0  0  0  0  0  0  0
   -5.9040    0.2241    1.4096 C   0  0  0  0  0  0  0  0  0  0  0  0
   -2.7247   -4.6268    1.0789 C   0  0  0  0  0  0  0  0  0  0  0  0
   -3.0848   -5.6834    0.3413 C   0  0  0  0  0  0  0  0  0  0  0  0
    1.6598   -2.7700   -1.6855 H   0  0  0  0  0  0  0  0  0  0  0  0
    2.8772    1.1659   -1.6155 H   0  0  0  0  0  0  0  0  0  0  0  0
    0.5766   -0.3288   -2.1254 H   0  0  0  0  0  0  0  0  0  0  0  0
    2.1612   -0.7471   -2.7856 H   0  0  0  0  0  0  0  0  0  0  0  0
    3.8242   -2.2046   -0.9187 H   0  0  0  0  0  0  0  0  0  0  0  0
    3.0319   -2.2430    0.6764 H   0  0  0  0  0  0  0  0  0  0  0  0
    0.6506   -1.5328    0.7895 H   0  0  0  0  0  0  0  0  0  0  0  0
    0.5300    1.9626   -1.7871 H   0  0  0  0  0  0  0  0  0  0  0  0
   -0.8124    2.1770    0.8310 H   0  0  0  0  0  0  0  0  0  0  0  0
   -2.4307    3.6593   -0.6486 H   0  0  0  0  0  0  0  0  0  0  0  0
   -1.5648    3.0197   -2.0266 H   0  0  0  0  0  0  0  0  0  0  0  0
    4.9649   -1.3020    1.8141 H   0  0  0  0  0  0  0  0  0  0  0  0
   -1.2114   -2.1590    1.5167 H   0  0  0  0  0  0  0  0  0  0  0  0
   -1.9626    0.2945   -2.6290 H   0  0  0  0  0  0  0  0  0  0  0  0
   -3.7534   -1.2850   -1.8963 H   0  0  0  0  0  0  0  0  0  0  0  0
   -3.4645   -2.6443    1.2800 H   0  0  0  0  0  0  0  0  0  0  0  0
   -3.2137   -3.1477   -0.4093 H   0  0  0  0  0  0  0  0  0  0  0  0
   -3.9344    3.0049    1.3409 H   0  0  0  0  0  0  0  0  0  0  0  0
    7.7941    1.0018    0.0689 H   0  0  0  0  0  0  0  0  0  0  0  0
    6.4199    0.6617   -0.9996 H   0  0  0  0  0  0  0  0  0  0  0  0
    7.8261   -0.3740   -1.0483 H   0  0  0  0  0  0  0  0  0  0  0  0
    8.1106   -2.2643    0.5747 H   0  0  0  0  0  0  0  0  0  0  0  0
    7.2589   -2.2114    2.1249 H   0  0  0  0  0  0  0  0  0  0  0  0
    8.4988   -1.0005    1.7665 H   0  0  0  0  0  0  0  0  0  0  0  0
   -1.1701    4.1239    1.9125 H   0  0  0  0  0  0  0  0  0  0  0  0
   -0.1882    5.5171    1.6352 H   0  0  0  0  0  0  0  0  0  0  0  0
   -5.7681   -1.4707    0.0676 H   0  0  0  0  0  0  0  0  0  0  0  0
   -5.8239    2.0150    2.5971 H   0  0  0  0  0  0  0  0  0  0  0  0
   -6.7334   -0.1935    1.9746 H   0  0  0  0  0  0  0  0  0  0  0  0
   -2.3570   -4.7998    2.0874 H   0  0  0  0  0  0  0  0  0  0  0  0
   -3.0017   -6.6874    0.7427 H   0  0  0  0  0  0  0  0  0  0  0  0
   -3.4646   -5.5678   -0.6678 H   0  0  0  0  0  0  0  0  0  0  0  0
  1 15  2  0  0  0  0
  2 16  2  0  0  0  0
  3 18  2  0  0  0  0
  4 22  2  0  0  0  0
  5 12  1  0  0  0  0
  5 14  1  0  0  0  0
  5 16  1  0  0  0  0
  6 11  1  0  0  0  0
  6 18  1  0  0  0  0
  6 42  1  0  0  0  0
  7 15  1  0  0  0  0
  7 17  1  0  0  0  0
  7 43  1  0  0  0  0
  8 18  1  0  0  0  0
  8 27  1  0  0  0  0
  8 48  1  0  0  0  0
  9 25  1  0  0  0  0
  9 26  1  0  0  0  0
  9 50  1  0  0  0  0
 10 22  1  0  0  0  0
 10 60  1  0  0  0  0
 10 61  1  0  0  0  0
 11 13  1  0  0  0  0
 11 14  1  0  0  0  0
 11 36  1  0  0  0  0
 12 13  1  0  0  0  0
 12 15  1  0  0  0  0
 12 37  1  0  0  0  0
 13 38  1  0  0  0  0
 13 39  1  0  0  0  0
 14 40  1  0  0  0  0
 14 41  1  0  0  0  0
 16 20  1  0  0  0  0
 17 19  1  0  0  0  0
 17 22  1  0  0  0  0
 17 44  1  0  0  0  0
 19 21  1  0  0  0  0
 19 45  1  0  0  0  0
 19 46  1  0  0  0  0
 20 24  2  0  0  0  0
 20 47  1  0  0  0  0
 21 23  1  0  0  0  0
 21 25  2  0  0  0  0
 23 26  1  0  0  0  0
 23 28  2  0  0  0  0
 24 29  1  0  0  0  0
 24 30  1  0  0  0  0
 25 49  1  0  0  0  0
 26 31  2  0  0  0  0
 27 34  1  0  0  0  0
 27 51  1  0  0  0  0
 27 52  1  0  0  0  0
 28 32  1  0  0  0  0
 28 53  1  0  0  0  0
 29 54  1  0  0  0  0
 29 55  1  0  0  0  0
 29 56  1  0  0  0  0
 30 57  1  0  0  0  0
 30 58  1  0  0  0  0
 30 59  1  0  0  0  0
 31 33  1  0  0  0  0
 31 62  1  0  0  0  0
 32 33  2  0  0  0  0
 32 63  1  0  0  0  0
 33 64  1  0  0  0  0
 34 35  2  0  0  0  0
 34 65  1  0  0  0  0
 35 66  1  0  0  0  0
 35 67  1  0  0  0  0
M  END
> <PUBCHEM_COMPOUND_CID>
11865736

> <PUBCHEM_CONFORMER_RMSD>
1.2

> <PUBCHEM_CONFORMER_DIVERSEORDER>
1
48
11
27
7
47
34
31
37
46
26
44
50
12
33
43
49
5
18
14
22
40
8
41
28
23
24
38
42
17
51
9
30
32
39
10
13
20
29
15
21
4
25
35
45
36
16
19
3
2
6

> <PUBCHEM_MMFF94_PARTIAL_CHARGES>
48
1 -0.57
10 -0.8
11 0.3
12 0.36
14 0.3
15 0.57
16 0.62
17 0.36
18 0.69
19 0.18
2 -0.57
20 -0.14
21 -0.18
22 0.57
24 -0.28
25 -0.3
26 -0.15
27 0.44
28 -0.15
29 0.14
3 -0.57
30 0.14
31 -0.15
32 -0.15
33 -0.15
34 -0.29
35 -0.3
4 -0.57
42 0.37
43 0.37
47 0.15
48 0.37
49 0.15
5 -0.66
50 0.27
53 0.15
6 -0.73
60 0.37
61 0.37
62 0.15
63 0.15
64 0.15
65 0.15
66 0.15
67 0.15
7 -0.73
8 -0.73
9 0.03

> <PUBCHEM_EFFECTIVE_ROTOR_COUNT>
14

> <PUBCHEM_PHARMACOPHORE_FEATURES>
15
1 1 acceptor
1 10 donor
1 2 acceptor
1 3 acceptor
1 35 hydrophobe
1 4 acceptor
1 6 donor
1 7 donor
1 8 donor
1 9 cation
1 9 donor
3 24 29 30 hydrophobe
5 5 11 12 13 14 rings
5 9 21 23 25 26 rings
6 23 26 28 31 32 33 rings

> <PUBCHEM_HEAVY_ATOM_COUNT>
35

> <PUBCHEM_ATOM_DEF_STEREO_COUNT>
3

> <PUBCHEM_ATOM_UDEF_STEREO_COUNT>
0

> <PUBCHEM_BOND_DEF_STEREO_COUNT>
0

> <PUBCHEM_BOND_UDEF_STEREO_COUNT>
0

> <PUBCHEM_ISOTOPIC_ATOM_COUNT>
0

> <PUBCHEM_COMPONENT_COUNT>
1

> <PUBCHEM_CACTVS_TAUTO_COUNT>
12

> <PUBCHEM_CONFORMER_ID>
00B50E8800000001

> <PUBCHEM_MMFF94_ENERGY>
67.9715

> <PUBCHEM_FEATURE_SELFOVERLAP>
76.265

> <PUBCHEM_SHAPE_FINGERPRINT>
10119406 146 18267584603512243726
10290309 65 18118966893344187511
10675989 125 16602634629210184221
11578080 2 17201614870683541378
12166972 35 17385732374568715516
12633257 1 18336551603006416485
13140716 1 18338796831493875460
13402501 40 18412263913338669751
13947930 73 17750821971976166803
14394314 77 18338798905910916769
14725015 67 18335979874567337475
14765038 42 18130797702482497161
14856354 85 18411416220244556814
15328829 1 17458922474526212862
16112460 7 18341617065713147528
19311894 1 18336258024427257346
20764821 26 18264779937736614343
21796203 349 18192459491468777753
392239 28 18411980226274713388
469060 322 18266477411485923640
6004065 56 18342733036262016053
9896288 288 18055357933374043457

> <PUBCHEM_SHAPE_MULTIPOLES>
666.92
14.46
6.07
1.5
20.94
3.3
0.12
2.89
-6.82
-6.29
-1.11
-0.62
-0.06
-0.26

> <PUBCHEM_SHAPE_SELFOVERLAP>
1402.978

> <PUBCHEM_SHAPE_VOLUME>
375.7

> <PUBCHEM_COORDINATE_TYPE>
2
5
10

$$$$
