11884513
  -OEChem-12032416153D

 55 58  0     1  0  0  0  0  0999 V2000
    5.5331   -3.7931    1.0152 Cl  0  0  0  0  0  0  0  0  0  0  0  0
    4.1372   -5.5651   -0.9087 F   0  0  0  0  0  0  0  0  0  0  0  0
   -0.6720   -1.8768   -0.0724 O   0  0  0  0  0  0  0  0  0  0  0  0
    3.4267    0.3702    0.3300 O   0  0  0  0  0  0  0  0  0  0  0  0
   -3.0892   -0.2860   -1.2188 O   0  0  0  0  0  0  0  0  0  0  0  0
   -5.4151   -0.3298   -0.1750 O   0  0  0  0  0  0  0  0  0  0  0  0
   -8.9683   -0.7961   -0.0132 O   0  0  0  0  0  0  0  0  0  0  0  0
   -7.5341   -0.9342   -1.7772 O   0  0  0  0  0  0  0  0  0  0  0  0
   -1.9817    0.3511    0.7103 N   0  0  0  0  0  0  0  0  0  0  0  0
    1.4803    1.4324    0.9391 N   0  0  0  0  0  0  0  0  0  0  0  0
    1.4186   -0.8219    0.1388 N   0  0  0  0  0  0  0  0  0  0  0  0
    0.0414    1.4463    1.0682 C   0  0  1  0  0  0  0  0  0  0  0  0
   -0.6591    0.5122    0.1039 C   0  0  1  0  0  0  0  0  0  0  0  0
   -0.4883    0.9960    2.4317 C   0  0  0  0  0  0  0  0  0  0  0  0
   -1.9546    0.7074    2.1300 C   0  0  0  0  0  0  0  0  0  0  0  0
    0.0058   -0.8541    0.0518 C   0  0  0  0  0  0  0  0  0  0  0  0
    2.1995    0.3246    0.4755 C   0  0  0  0  0  0  0  0  0  0  0  0
    2.1798    2.6376    1.3701 C   0  0  0  0  0  0  0  0  0  0  0  0
   -3.1067    0.0084   -0.0226 C   0  0  0  0  0  0  0  0  0  0  0  0
    2.1296   -2.0568   -0.1300 C   0  0  0  0  0  0  0  0  0  0  0  0
    2.3851    3.6030    0.2388 C   0  0  0  0  0  0  0  0  0  0  0  0
   -4.4044    0.0039    0.7452 C   0  0  0  0  0  0  0  0  0  0  0  0
    3.3428   -2.2982    0.4994 C   0  0  0  0  0  0  0  0  0  0  0  0
    1.5870   -2.9787   -1.0143 C   0  0  0  0  0  0  0  0  0  0  0  0
    3.5376    3.5214   -0.5340 C   0  0  0  0  0  0  0  0  0  0  0  0
    1.4206    4.5686   -0.0249 C   0  0  0  0  0  0  0  0  0  0  0  0
    4.0273   -3.4854    0.2392 C   0  0  0  0  0  0  0  0  0  0  0  0
    2.2713   -4.1659   -1.2746 C   0  0  0  0  0  0  0  0  0  0  0  0
    3.7283    4.4183   -1.5853 C   0  0  0  0  0  0  0  0  0  0  0  0
    1.6114    5.4653   -1.0762 C   0  0  0  0  0  0  0  0  0  0  0  0
    3.4914   -4.4194   -0.6477 C   0  0  0  0  0  0  0  0  0  0  0  0
    2.7653    5.3901   -1.8563 C   0  0  0  0  0  0  0  0  0  0  0  0
   -6.7041   -0.3675    0.4350 C   0  0  0  0  0  0  0  0  0  0  0  0
   -7.7425   -0.7278   -0.5911 C   0  0  0  0  0  0  0  0  0  0  0  0
   -0.3211    2.4639    0.8753 H   0  0  0  0  0  0  0  0  0  0  0  0
   -0.7318    0.9060   -0.9152 H   0  0  0  0  0  0  0  0  0  0  0  0
    0.0195    0.0851    2.7719 H   0  0  0  0  0  0  0  0  0  0  0  0
   -0.3645    1.7543    3.2106 H   0  0  0  0  0  0  0  0  0  0  0  0
   -2.5721    1.6005    2.2711 H   0  0  0  0  0  0  0  0  0  0  0  0
   -2.3575   -0.1079    2.7374 H   0  0  0  0  0  0  0  0  0  0  0  0
    3.1536    2.3560    1.7905 H   0  0  0  0  0  0  0  0  0  0  0  0
    1.6272    3.1075    2.1933 H   0  0  0  0  0  0  0  0  0  0  0  0
   -4.3539   -0.7456    1.5416 H   0  0  0  0  0  0  0  0  0  0  0  0
   -4.5885    0.9992    1.1620 H   0  0  0  0  0  0  0  0  0  0  0  0
    3.7523   -1.6389    1.2583 H   0  0  0  0  0  0  0  0  0  0  0  0
    0.6881   -2.7997   -1.5940 H   0  0  0  0  0  0  0  0  0  0  0  0
    4.3019    2.7776   -0.3308 H   0  0  0  0  0  0  0  0  0  0  0  0
    0.5216    4.6457    0.5796 H   0  0  0  0  0  0  0  0  0  0  0  0
    1.8642   -4.8853   -1.9791 H   0  0  0  0  0  0  0  0  0  0  0  0
    4.6278    4.3613   -2.1913 H   0  0  0  0  0  0  0  0  0  0  0  0
    0.8626    6.2235   -1.2861 H   0  0  0  0  0  0  0  0  0  0  0  0
    2.9143    6.0890   -2.6742 H   0  0  0  0  0  0  0  0  0  0  0  0
   -6.9434    0.6197    0.8441 H   0  0  0  0  0  0  0  0  0  0  0  0
   -6.7108   -1.1277    1.2232 H   0  0  0  0  0  0  0  0  0  0  0  0
   -9.6661   -1.0305   -0.6616 H   0  0  0  0  0  0  0  0  0  0  0  0
  1 27  1  0  0  0  0
  2 31  1  0  0  0  0
  3 16  2  0  0  0  0
  4 17  2  0  0  0  0
  5 19  2  0  0  0  0
  6 22  1  0  0  0  0
  6 33  1  0  0  0  0
  7 34  1  0  0  0  0
  7 55  1  0  0  0  0
  8 34  2  0  0  0  0
  9 13  1  0  0  0  0
  9 15  1  0  0  0  0
  9 19  1  0  0  0  0
 10 12  1  0  0  0  0
 10 17  1  0  0  0  0
 10 18  1  0  0  0  0
 11 16  1  0  0  0  0
 11 17  1  0  0  0  0
 11 20  1  0  0  0  0
 12 13  1  0  0  0  0
 12 14  1  0  0  0  0
 12 35  1  0  0  0  0
 13 16  1  0  0  0  0
 13 36  1  0  0  0  0
 14 15  1  0  0  0  0
 14 37  1  0  0  0  0
 14 38  1  0  0  0  0
 15 39  1  0  0  0  0
 15 40  1  0  0  0  0
 18 21  1  0  0  0  0
 18 41  1  0  0  0  0
 18 42  1  0  0  0  0
 19 22  1  0  0  0  0
 20 23  2  0  0  0  0
 20 24  1  0  0  0  0
 21 25  2  0  0  0  0
 21 26  1  0  0  0  0
 22 43  1  0  0  0  0
 22 44  1  0  0  0  0
 23 27  1  0  0  0  0
 23 45  1  0  0  0  0
 24 28  2  0  0  0  0
 24 46  1  0  0  0  0
 25 29  1  0  0  0  0
 25 47  1  0  0  0  0
 26 30  2  0  0  0  0
 26 48  1  0  0  0  0
 27 31  2  0  0  0  0
 28 31  1  0  0  0  0
 28 49  1  0  0  0  0
 29 32  2  0  0  0  0
 29 50  1  0  0  0  0
 30 32  1  0  0  0  0
 30 51  1  0  0  0  0
 32 52  1  0  0  0  0
 33 34  1  0  0  0  0
 33 53  1  0  0  0  0
 33 54  1  0  0  0  0
M  END
> <PUBCHEM_COMPOUND_CID>
11884513

> <PUBCHEM_CONFORMER_RMSD>
1

> <PUBCHEM_CONFORMER_DIVERSEORDER>
1
167
144
88
68
160
132
157
84
150
104
17
174
106
48
14
139
74
51
96
147
91
30
72
52
131
13
95
19
135
137
118
71
25
112
127
138
114
161
77
56
78
60
45
140
63
103
102
76
93
33
22
151
67
134
44
165
178
43
8
73
173
11
87
66
21
16
125
171
75
115
109
100
26
124
108
28
164
24
70
122
23
31
168
32
97
128
37
111
53
130
120
155
81
79
47
116
145
156
50
158
4
61
92
9
46
54
85
82
64
119
59
113
166
172
38
146
29
15
170
34
99
154
36
110
80
86
152
55
6
141
35
98
143
136
65
57
129
20
42
7
10
121
62
117
41
177
39
40
159
176
89
148
27
107
58
133
105
142
123
169
149
3
153
162
163
175
101
69
5
126
12
49
83
90
2
18
94

> <PUBCHEM_MMFF94_PARTIAL_CHARGES>
42
1 -0.18
10 -0.66
11 -0.24
12 0.3
13 0.36
15 0.3
16 0.57
17 0.69
18 0.44
19 0.57
2 -0.19
20 0.12
21 -0.14
22 0.34
23 -0.15
24 -0.15
25 -0.15
26 -0.15
27 0.18
28 -0.15
29 -0.15
3 -0.57
30 -0.15
31 0.19
32 -0.15
33 0.34
34 0.66
4 -0.57
45 0.15
46 0.15
47 0.15
48 0.15
49 0.15
5 -0.57
50 0.15
51 0.15
52 0.15
55 0.5
6 -0.56
7 -0.65
8 -0.57
9 -0.66

> <PUBCHEM_EFFECTIVE_ROTOR_COUNT>
9

> <PUBCHEM_PHARMACOPHORE_FEATURES>
11
1 3 acceptor
1 4 acceptor
1 5 acceptor
1 6 acceptor
1 7 acceptor
1 8 acceptor
3 7 8 34 anion
5 9 12 13 14 15 rings
6 10 11 12 13 16 17 rings
6 20 23 24 27 28 31 rings
6 21 25 26 29 30 32 rings

> <PUBCHEM_HEAVY_ATOM_COUNT>
34

> <PUBCHEM_ATOM_DEF_STEREO_COUNT>
2

> <PUBCHEM_ATOM_UDEF_STEREO_COUNT>
0

> <PUBCHEM_BOND_DEF_STEREO_COUNT>
0

> <PUBCHEM_BOND_UDEF_STEREO_COUNT>
0

> <PUBCHEM_ISOTOPIC_ATOM_COUNT>
0

> <PUBCHEM_COMPONENT_COUNT>
1

> <PUBCHEM_CACTVS_TAUTO_COUNT>
1

> <PUBCHEM_CONFORMER_ID>
00B557E100000001

> <PUBCHEM_MMFF94_ENERGY>
101.3877

> <PUBCHEM_FEATURE_SELFOVERLAP>
56.092

> <PUBCHEM_SHAPE_FINGERPRINT>
10074138 170 8897141963696528804
10258939 38 18120643644650883402
10411042 1 18267021639971930090
10554248 39 18340752798977879597
10673678 19 18121224435566271941
10721379 63 18340781402473854437
11045515 52 18050291362491669720
11411753 29 18114467782775097645
11445158 3 18342731893600048463
11621639 208 18043232567105300893
11763715 3 17905351536337114134
12522641 126 18341042021442719319
12741549 16 17823411605214201182
12788726 201 17250343790837797992
13540713 5 17987818319167653553
13617811 41 18408609141985060862
13782708 43 18261111825772342571
14790565 3 17690845983054402979
15082195 135 18408882941376087853
1813 80 18128546954967467230
19319366 153 17986386896403246477
20771845 171 18337103588245973625
21049683 271 18342456994492573650
21133410 58 18337944615926644095
21792964 463 18126594356563798489
23522609 53 17916047775491016033
24771750 20 18264213671925925316
255183 451 18270686346296707430
3103668 31 17614003989129136789
3380486 145 17760949345798397977
3388396 114 17832468295846599566
3534868 343 18342464755182674425
4409770 3 17112982859826209656
46194498 28 18261384564479163477
5223283 242 18119237365063046493
6058803 2 17986696812896511657
6086070 43 17970331634704878057
6609424 69 17023724819215709117
6695519 79 17694520530019831051
9962374 69 18342726430613312575

> <PUBCHEM_SHAPE_MULTIPOLES>
644.14
14.28
8.45
1.6
46.72
4.41
-0.29
-10.52
3.84
-20.43
4.62
0.08
0.77
-1.84

> <PUBCHEM_SHAPE_SELFOVERLAP>
1387.016

> <PUBCHEM_SHAPE_VOLUME>
354.2

> <PUBCHEM_COORDINATE_TYPE>
2
5
10

$$$$
