26743726
  -OEChem-12032416403D

 52 55  0     1  0  0  0  0  0999 V2000
    7.7315   -0.3455    0.7398 F   0  0  0  0  0  0  0  0  0  0  0  0
    6.0547    1.0085    1.1015 F   0  0  0  0  0  0  0  0  0  0  0  0
    6.2344   -0.8769    2.2405 F   0  0  0  0  0  0  0  0  0  0  0  0
   -4.6175    3.8738    1.6625 O   0  0  0  0  0  0  0  0  0  0  0  0
   -1.1614    1.5725   -2.2419 O   0  0  0  0  0  0  0  0  0  0  0  0
    5.6858   -0.9739    0.0221 O   0  0  0  0  0  0  0  0  0  0  0  0
   -3.3164    0.7163    0.6097 N   0  0  1  0  0  0  0  0  0  0  0  0
   -3.6791   -3.4961    0.1753 N   0  0  0  0  0  0  0  0  0  0  0  0
   -0.4591    0.8239   -0.2512 N   0  0  0  0  0  0  0  0  0  0  0  0
    0.1887    1.2375   -2.4059 N   0  0  0  0  0  0  0  0  0  0  0  0
   -3.8438   -0.5744    0.1726 C   0  0  0  0  0  0  0  0  0  0  0  0
   -2.8849    1.5783   -0.5094 C   0  0  1  0  0  0  0  0  0  0  0  0
   -4.3016    1.4848    1.3682 C   0  0  0  0  0  0  0  0  0  0  0  0
   -3.0787    3.0172    0.0045 C   0  0  0  0  0  0  0  0  0  0  0  0
   -3.6651    2.8611    1.4021 C   0  0  1  0  0  0  0  0  0  0  0  0
   -4.2585   -1.4147    1.3831 C   0  0  0  0  0  0  0  0  0  0  0  0
   -2.8090   -1.3352   -0.6616 C   0  0  0  0  0  0  0  0  0  0  0  0
   -4.7211   -2.8086    0.9507 C   0  0  0  0  0  0  0  0  0  0  0  0
   -3.3187   -2.7318   -1.0271 C   0  0  0  0  0  0  0  0  0  0  0  0
   -1.4622    1.2989   -0.9454 C   0  0  0  0  0  0  0  0  0  0  0  0
   -4.1161   -4.8440   -0.1871 C   0  0  0  0  0  0  0  0  0  0  0  0
    0.5316    0.8040   -1.1893 C   0  0  0  0  0  0  0  0  0  0  0  0
    1.8548    0.3463   -0.8777 C   0  0  0  0  0  0  0  0  0  0  0  0
    2.1560   -0.0937    0.4112 C   0  0  0  0  0  0  0  0  0  0  0  0
    2.8411    0.3424   -1.8641 C   0  0  0  0  0  0  0  0  0  0  0  0
    3.4432   -0.5373    0.7140 C   0  0  0  0  0  0  0  0  0  0  0  0
    4.1285   -0.1011   -1.5615 C   0  0  0  0  0  0  0  0  0  0  0  0
    4.4296   -0.5409   -0.2725 C   0  0  0  0  0  0  0  0  0  0  0  0
    6.4133   -0.2914    1.0373 C   0  0  0  0  0  0  0  0  0  0  0  0
   -4.7340   -0.4176   -0.4542 H   0  0  0  0  0  0  0  0  0  0  0  0
   -3.5496    1.4479   -1.3754 H   0  0  0  0  0  0  0  0  0  0  0  0
   -4.4409    1.1182    2.3904 H   0  0  0  0  0  0  0  0  0  0  0  0
   -5.2838    1.5219    0.8788 H   0  0  0  0  0  0  0  0  0  0  0  0
   -2.1467    3.5925    0.0461 H   0  0  0  0  0  0  0  0  0  0  0  0
   -3.7686    3.5644   -0.6501 H   0  0  0  0  0  0  0  0  0  0  0  0
   -2.8748    2.9067    2.1613 H   0  0  0  0  0  0  0  0  0  0  0  0
   -5.0864   -0.9500    1.9304 H   0  0  0  0  0  0  0  0  0  0  0  0
   -3.4201   -1.5124    2.0861 H   0  0  0  0  0  0  0  0  0  0  0  0
   -1.8662   -1.4414   -0.1101 H   0  0  0  0  0  0  0  0  0  0  0  0
   -2.6032   -0.8335   -1.6115 H   0  0  0  0  0  0  0  0  0  0  0  0
   -4.9521   -3.3866    1.8539 H   0  0  0  0  0  0  0  0  0  0  0  0
   -5.6498   -2.7257    0.3706 H   0  0  0  0  0  0  0  0  0  0  0  0
   -4.1769   -2.6455   -1.7068 H   0  0  0  0  0  0  0  0  0  0  0  0
   -2.5228   -3.2538   -1.5727 H   0  0  0  0  0  0  0  0  0  0  0  0
   -4.1602    4.7293    1.5941 H   0  0  0  0  0  0  0  0  0  0  0  0
   -3.3210   -5.3758   -0.7214 H   0  0  0  0  0  0  0  0  0  0  0  0
   -5.0104   -4.8333   -0.8208 H   0  0  0  0  0  0  0  0  0  0  0  0
   -4.3368   -5.4316    0.7110 H   0  0  0  0  0  0  0  0  0  0  0  0
    1.4088   -0.1044    1.2009 H   0  0  0  0  0  0  0  0  0  0  0  0
    2.6440    0.6778   -2.8793 H   0  0  0  0  0  0  0  0  0  0  0  0
    3.6626   -0.8839    1.7201 H   0  0  0  0  0  0  0  0  0  0  0  0
    4.8931   -0.1016   -2.3336 H   0  0  0  0  0  0  0  0  0  0  0  0
  1 29  1  0  0  0  0
  2 29  1  0  0  0  0
  3 29  1  0  0  0  0
  4 15  1  0  0  0  0
  4 45  1  0  0  0  0
  5 10  1  0  0  0  0
  5 20  1  0  0  0  0
  6 28  1  0  0  0  0
  6 29  1  0  0  0  0
  7 11  1  0  0  0  0
  7 12  1  0  0  0  0
  7 13  1  0  0  0  0
  8 18  1  0  0  0  0
  8 19  1  0  0  0  0
  8 21  1  0  0  0  0
  9 20  2  0  0  0  0
  9 22  1  0  0  0  0
 10 22  2  0  0  0  0
 11 16  1  0  0  0  0
 11 17  1  0  0  0  0
 11 30  1  0  0  0  0
 12 14  1  0  0  0  0
 12 20  1  0  0  0  0
 12 31  1  0  0  0  0
 13 15  1  0  0  0  0
 13 32  1  0  0  0  0
 13 33  1  0  0  0  0
 14 15  1  0  0  0  0
 14 34  1  0  0  0  0
 14 35  1  0  0  0  0
 15 36  1  0  0  0  0
 16 18  1  0  0  0  0
 16 37  1  0  0  0  0
 16 38  1  0  0  0  0
 17 19  1  0  0  0  0
 17 39  1  0  0  0  0
 17 40  1  0  0  0  0
 18 41  1  0  0  0  0
 18 42  1  0  0  0  0
 19 43  1  0  0  0  0
 19 44  1  0  0  0  0
 21 46  1  0  0  0  0
 21 47  1  0  0  0  0
 21 48  1  0  0  0  0
 22 23  1  0  0  0  0
 23 24  2  0  0  0  0
 23 25  1  0  0  0  0
 24 26  1  0  0  0  0
 24 49  1  0  0  0  0
 25 27  2  0  0  0  0
 25 50  1  0  0  0  0
 26 28  2  0  0  0  0
 26 51  1  0  0  0  0
 27 28  1  0  0  0  0
 27 52  1  0  0  0  0
M  END
> <PUBCHEM_COMPOUND_CID>
26743726

> <PUBCHEM_CONFORMER_RMSD>
0.8

> <PUBCHEM_CONFORMER_DIVERSEORDER>
1
48
95
86
101
106
71
55
43
112
37
111
107
87
109
92
50
34
32
83
49
4
94
63
118
44
116
98
25
113
75
20
51
76
104
54
119
90
69
60
82
41
105
99
65
27
73
30
15
81
26
21
45
22
14
66
93
35
77
7
88
52
91
11
33
96
23
103
24
38
9
58
78
100
108
68
40
110
114
120
13
70
61
89
6
115
72
16
80
67
42
97
29
28
62
5
85
79
53
10
12
47
36
84
3
102
17
56
74
117
2
8
57
18
64
59
19
31
46
39

> <PUBCHEM_MMFF94_PARTIAL_CHARGES>
31
1 -0.34
10 -0.41
11 0.27
12 0.45
13 0.27
15 0.28
18 0.27
19 0.27
2 -0.34
20 0.3
21 0.27
22 0.46
23 0.05
24 -0.15
25 -0.15
26 -0.15
27 -0.15
28 0.08
29 1.3
3 -0.34
4 -0.68
45 0.4
49 0.15
5 -0.02
50 0.15
51 0.15
52 0.15
6 -0.36
7 -0.81
8 -0.81
9 -0.57

> <PUBCHEM_EFFECTIVE_ROTOR_COUNT>
7.2

> <PUBCHEM_PHARMACOPHORE_FEATURES>
10
1 4 acceptor
1 4 donor
1 6 acceptor
1 7 cation
1 8 cation
3 9 10 22 cation
5 5 9 10 20 22 rings
5 7 12 13 14 15 rings
6 23 24 25 26 27 28 rings
6 8 11 16 17 18 19 rings

> <PUBCHEM_HEAVY_ATOM_COUNT>
29

> <PUBCHEM_ATOM_DEF_STEREO_COUNT>
2

> <PUBCHEM_ATOM_UDEF_STEREO_COUNT>
0

> <PUBCHEM_BOND_DEF_STEREO_COUNT>
0

> <PUBCHEM_BOND_UDEF_STEREO_COUNT>
0

> <PUBCHEM_ISOTOPIC_ATOM_COUNT>
0

> <PUBCHEM_COMPONENT_COUNT>
1

> <PUBCHEM_CACTVS_TAUTO_COUNT>
1

> <PUBCHEM_CONFORMER_ID>
019813AE00000001

> <PUBCHEM_MMFF94_ENERGY>
60.0768

> <PUBCHEM_FEATURE_SELFOVERLAP>
50.747

> <PUBCHEM_SHAPE_FINGERPRINT>
10319688 67 18200886067749482913
10319926 262 18272661121220648788
10622 236 17969221316586431575
11370993 144 18129664076034639766
11552529 35 18411420618032396429
12422481 6 18337111142809273342
12523318 42 18343026583906076945
12616971 3 17385736763766354812
12788726 201 18049192083340604287
12988421 55 17980485560132095697
13004483 165 18198635526360740647
13009979 54 18263092174640336855
13540713 5 18042704942460654100
13583140 156 17489866029274740190
13782708 43 17822557319587848666
14068700 675 18264768938499838703
14178342 30 18339372898219487871
14705955 166 17488756592747768577
14844126 61 18410296930487645747
14856354 85 18341894078492825980
14950920 106 18411693309875301176
15131766 46 15505512631358824493
15163728 17 9583255945333026289
15250474 111 18261397758154602966
15326921 28 17902221222375298613
15348495 7 18272649026803830608
16994733 274 15768372644837451721
17349148 13 16732704939578365764
17780758 139 18410572898830758331
17857418 61 17603302648718930422
17913733 40 16845855689878174862
18927931 339 16371293216580617484
19377110 9 18260835955469081420
20028762 73 17894629267085252490
20554085 129 17983856684494830177
21033648 29 17489036946226733309
21315759 148 18202569475638204014
21814621 53 17917707956149075858
22956985 138 17836359728947269641
23522609 53 17969812751237798868
244849 19 17345494607892796198
25147074 1 17968955179016615132
312425 54 18339080372508085274
3383291 50 18412832387417060667
3459 110 17489302061408717017
397830 11 18271802467459477984
4073 2 18271527512127298718
4144715 1 18201446848454229960
4169191 19 13829259833371566898
484985 159 18187916297023059055
4938544 92 18342175540073015841
5080951 261 18262221270946557967
5104073 3 18410003348082627512
5364581 5 18130500950550175944
5924683 9 18409729577649173303
602551 16 18341339937169019590
6058803 2 17971499487557415333
6431902 208 17095520695432227754
6691757 9 18339927018100053809
9953998 17 18411132528932839200

> <PUBCHEM_SHAPE_MULTIPOLES>
537.45
15.66
4.17
1.88
28.94
2.34
0.31
5.44
-8.99
-11.57
-0.82
1.01
-0.69
-1.75

> <PUBCHEM_SHAPE_SELFOVERLAP>
1153.97

> <PUBCHEM_SHAPE_VOLUME>
299.7

> <PUBCHEM_COORDINATE_TYPE>
2
5
10

$$$$
