45783339
  -OEChem-12032416203D

 66 70  0     1  0  0  0  0  0999 V2000
    0.1962   -3.7980   -0.1449 S   0  0  0  0  0  0  0  0  0  0  0  0
   -3.6721    0.9115   -1.9841 O   0  0  0  0  0  0  0  0  0  0  0  0
    5.8357   -0.7643    1.7641 O   0  0  0  0  0  0  0  0  0  0  0  0
    1.3145   -3.7657    0.7878 O   0  0  0  0  0  0  0  0  0  0  0  0
   -0.3858   -5.0754   -0.5313 O   0  0  0  0  0  0  0  0  0  0  0  0
   -4.0287    1.1042    1.6684 N   0  0  1  0  0  0  0  0  0  0  0  0
    3.0654    1.0513   -0.3535 N   0  0  0  0  0  0  0  0  0  0  0  0
   -1.9996    1.1847   -0.5195 N   0  0  0  0  0  0  0  0  0  0  0  0
   -2.4875    0.7090   -2.7035 N   0  0  0  0  0  0  0  0  0  0  0  0
    2.5860    0.5554   -2.6183 N   0  0  0  0  0  0  0  0  0  0  0  0
    7.3624    0.9225    1.4204 N   0  0  0  0  0  0  0  0  0  0  0  0
   -4.4094    1.4472    0.2837 C   0  0  1  0  0  0  0  0  0  0  0  0
   -4.8147    2.9316    0.3458 C   0  0  0  0  0  0  0  0  0  0  0  0
   -4.6884    3.3172    1.8128 C   0  0  0  0  0  0  0  0  0  0  0  0
   -4.7971    1.9926    2.5406 C   0  0  0  0  0  0  0  0  0  0  0  0
   -4.2424   -0.3006    1.9916 C   0  0  0  0  0  0  0  0  0  0  0  0
    5.0411    1.4915    1.7280 C   0  0  0  0  0  0  0  0  0  0  0  0
    5.0103    2.3290    0.4511 C   0  0  0  0  0  0  0  0  0  0  0  0
    3.6699    0.8913    2.0310 C   0  0  0  0  0  0  0  0  0  0  0  0
   -3.2950    1.1866   -0.7080 C   0  0  0  0  0  0  0  0  0  0  0  0
    4.3784    1.5902   -0.7283 C   0  0  0  0  0  0  0  0  0  0  0  0
    3.0338    0.1877    0.8303 C   0  0  0  0  0  0  0  0  0  0  0  0
   -3.1361   -1.1728    1.4600 C   0  0  0  0  0  0  0  0  0  0  0  0
    2.1339    0.8506   -1.3789 C   0  0  0  0  0  0  0  0  0  0  0  0
    6.0974    0.4293    1.6368 C   0  0  0  0  0  0  0  0  0  0  0  0
   -1.5463    0.8868   -1.7717 C   0  0  0  0  0  0  0  0  0  0  0  0
    0.7931    0.9707   -1.0505 C   0  0  0  0  0  0  0  0  0  0  0  0
   -0.1440    0.7755   -2.0592 C   0  0  0  0  0  0  0  0  0  0  0  0
   -3.4295   -2.2069    0.5711 C   0  0  0  0  0  0  0  0  0  0  0  0
   -1.8180   -0.9464    1.8561 C   0  0  0  0  0  0  0  0  0  0  0  0
   -2.4049   -3.0149    0.0785 C   0  0  0  0  0  0  0  0  0  0  0  0
   -0.7932   -1.7543    1.3635 C   0  0  0  0  0  0  0  0  0  0  0  0
   -1.0867   -2.7886    0.4748 C   0  0  0  0  0  0  0  0  0  0  0  0
    0.2823    0.4705   -3.3470 C   0  0  0  0  0  0  0  0  0  0  0  0
    1.6459    0.3726   -3.5726 C   0  0  0  0  0  0  0  0  0  0  0  0
    0.7333   -2.9716   -1.6254 C   0  0  0  0  0  0  0  0  0  0  0  0
   -5.2935    0.8746   -0.0301 H   0  0  0  0  0  0  0  0  0  0  0  0
   -4.1998    3.5849   -0.2826 H   0  0  0  0  0  0  0  0  0  0  0  0
   -5.8581    3.0423    0.0262 H   0  0  0  0  0  0  0  0  0  0  0  0
   -5.4588    4.0301    2.1210 H   0  0  0  0  0  0  0  0  0  0  0  0
   -3.7079    3.7746    1.9948 H   0  0  0  0  0  0  0  0  0  0  0  0
   -5.8476    1.6834    2.6132 H   0  0  0  0  0  0  0  0  0  0  0  0
   -4.3722    2.0510    3.5475 H   0  0  0  0  0  0  0  0  0  0  0  0
   -4.2382   -0.4371    3.0823 H   0  0  0  0  0  0  0  0  0  0  0  0
   -5.2277   -0.6498    1.6560 H   0  0  0  0  0  0  0  0  0  0  0  0
    5.3253    2.1395    2.5681 H   0  0  0  0  0  0  0  0  0  0  0  0
    6.0004    2.6924    0.1575 H   0  0  0  0  0  0  0  0  0  0  0  0
    4.4091    3.2266    0.6519 H   0  0  0  0  0  0  0  0  0  0  0  0
    3.0024    1.7071    2.3404 H   0  0  0  0  0  0  0  0  0  0  0  0
    3.7195    0.1968    2.8782 H   0  0  0  0  0  0  0  0  0  0  0  0
    5.0312    0.7761   -1.0665 H   0  0  0  0  0  0  0  0  0  0  0  0
    4.2834    2.3032   -1.5573 H   0  0  0  0  0  0  0  0  0  0  0  0
    2.0092   -0.0815    1.1064 H   0  0  0  0  0  0  0  0  0  0  0  0
    3.5516   -0.7516    0.6046 H   0  0  0  0  0  0  0  0  0  0  0  0
    0.4891    1.2268   -0.0398 H   0  0  0  0  0  0  0  0  0  0  0  0
   -4.4514   -2.3920    0.2510 H   0  0  0  0  0  0  0  0  0  0  0  0
   -1.5741   -0.1474    2.5514 H   0  0  0  0  0  0  0  0  0  0  0  0
   -2.6554   -3.8088   -0.6194 H   0  0  0  0  0  0  0  0  0  0  0  0
    0.2253   -1.5618    1.6856 H   0  0  0  0  0  0  0  0  0  0  0  0
    8.1555    0.2948    1.3394 H   0  0  0  0  0  0  0  0  0  0  0  0
    7.5692    1.9149    1.3800 H   0  0  0  0  0  0  0  0  0  0  0  0
   -0.4020    0.3065   -4.1728 H   0  0  0  0  0  0  0  0  0  0  0  0
    2.0304    0.1361   -4.5593 H   0  0  0  0  0  0  0  0  0  0  0  0
    1.1690   -2.0132   -1.3477 H   0  0  0  0  0  0  0  0  0  0  0  0
   -0.1200   -2.8408   -2.2930 H   0  0  0  0  0  0  0  0  0  0  0  0
    1.4901   -3.5956   -2.1057 H   0  0  0  0  0  0  0  0  0  0  0  0
  1  4  2  0  0  0  0
  1  5  2  0  0  0  0
  1 33  1  0  0  0  0
  1 36  1  0  0  0  0
  2  9  1  0  0  0  0
  2 20  1  0  0  0  0
  3 25  2  0  0  0  0
  6 12  1  0  0  0  0
  6 15  1  0  0  0  0
  6 16  1  0  0  0  0
  7 21  1  0  0  0  0
  7 22  1  0  0  0  0
  7 24  1  0  0  0  0
  8 20  2  0  0  0  0
  8 26  1  0  0  0  0
  9 26  2  0  0  0  0
 10 24  2  0  0  0  0
 10 35  1  0  0  0  0
 11 25  1  0  0  0  0
 11 60  1  0  0  0  0
 11 61  1  0  0  0  0
 12 13  1  0  0  0  0
 12 20  1  0  0  0  0
 12 37  1  0  0  0  0
 13 14  1  0  0  0  0
 13 38  1  0  0  0  0
 13 39  1  0  0  0  0
 14 15  1  0  0  0  0
 14 40  1  0  0  0  0
 14 41  1  0  0  0  0
 15 42  1  0  0  0  0
 15 43  1  0  0  0  0
 16 23  1  0  0  0  0
 16 44  1  0  0  0  0
 16 45  1  0  0  0  0
 17 18  1  0  0  0  0
 17 19  1  0  0  0  0
 17 25  1  0  0  0  0
 17 46  1  0  0  0  0
 18 21  1  0  0  0  0
 18 47  1  0  0  0  0
 18 48  1  0  0  0  0
 19 22  1  0  0  0  0
 19 49  1  0  0  0  0
 19 50  1  0  0  0  0
 21 51  1  0  0  0  0
 21 52  1  0  0  0  0
 22 53  1  0  0  0  0
 22 54  1  0  0  0  0
 23 29  2  0  0  0  0
 23 30  1  0  0  0  0
 24 27  1  0  0  0  0
 26 28  1  0  0  0  0
 27 28  2  0  0  0  0
 27 55  1  0  0  0  0
 28 34  1  0  0  0  0
 29 31  1  0  0  0  0
 29 56  1  0  0  0  0
 30 32  2  0  0  0  0
 30 57  1  0  0  0  0
 31 33  2  0  0  0  0
 31 58  1  0  0  0  0
 32 33  1  0  0  0  0
 32 59  1  0  0  0  0
 34 35  2  0  0  0  0
 34 62  1  0  0  0  0
 35 63  1  0  0  0  0
 36 64  1  0  0  0  0
 36 65  1  0  0  0  0
 36 66  1  0  0  0  0
M  END
> <PUBCHEM_COMPOUND_CID>
45783339

> <PUBCHEM_CONFORMER_RMSD>
1

> <PUBCHEM_CONFORMER_DIVERSEORDER>
1
188
241
32
236
79
277
67
93
293
92
292
54
89
199
60
246
129
116
270
98
273
290
163
125
113
86
230
220
97
203
31
183
112
282
91
151
205
95
217
196
227
136
249
224
18
30
291
53
124
286
261
169
198
153
181
55
36
239
80
175
26
48
255
51
76
274
209
184
84
193
99
107
52
275
237
272
21
65
283
108
176
285
7
83
218
269
122
27
271
182
231
119
252
78
250
127
101
131
180
81
173
263
278
5
238
114
62
28
154
197
242
208
267
248
128
103
34
258
280
194
71
141
58
102
288
279
29
195
44
245
213
90
85
135
192
167
133
191
172
256
72
6
225
158
11
178
43
61
121
140
159
142
174
42
222
9
19
45
161
276
264
206
70
284
204
287
165
14
211
168
4
109
115
179
251
229
190
148
212
88
10
68
130
155
8
171
59
254
262
177
3
201
234
40
123
120
240
186
215
149
137
39
132
150
111
143
105
73
66
265
243
138
162
110
145
77
126
38
106
22
289
82
233
219
166
164
207
253
2
41
50
160
260
146
69
170
156
157
33
57
74
20
226
144
187
13
244
247
37
228
25
221
12
210
134
189
16
235
104
47
15
100
152
257
118
87
96
259
63
35
117
202
24
214
200
232
185
281
23
266
46
56
94
75
17
216
223
139
64
147
49
268

> <PUBCHEM_MMFF94_PARTIAL_CHARGES>
41
1 1.2
10 -0.62
11 -0.8
12 0.45
15 0.27
16 0.41
17 0.06
2 -0.02
20 0.3
21 0.37
22 0.37
23 -0.14
24 0.41
25 0.57
26 0.46
27 -0.15
28 0.05
29 -0.15
3 -0.57
30 -0.15
31 -0.15
32 -0.15
33 -0.01
34 -0.15
35 0.16
36 0.11
4 -0.65
5 -0.65
55 0.15
56 0.15
57 0.15
58 0.15
59 0.15
6 -0.81
60 0.37
61 0.37
62 0.15
63 0.15
7 -0.84
8 -0.57
9 -0.41

> <PUBCHEM_EFFECTIVE_ROTOR_COUNT>
9.2

> <PUBCHEM_PHARMACOPHORE_FEATURES>
12
1 11 donor
1 3 acceptor
1 4 acceptor
1 5 acceptor
1 6 cation
3 7 10 24 cation
3 8 9 26 cation
5 2 8 9 20 26 rings
5 6 12 13 14 15 rings
6 10 24 27 28 34 35 rings
6 23 29 30 31 32 33 rings
6 7 17 18 19 21 22 rings

> <PUBCHEM_HEAVY_ATOM_COUNT>
36

> <PUBCHEM_ATOM_DEF_STEREO_COUNT>
1

> <PUBCHEM_ATOM_UDEF_STEREO_COUNT>
0

> <PUBCHEM_BOND_DEF_STEREO_COUNT>
0

> <PUBCHEM_BOND_UDEF_STEREO_COUNT>
0

> <PUBCHEM_ISOTOPIC_ATOM_COUNT>
0

> <PUBCHEM_COMPONENT_COUNT>
1

> <PUBCHEM_CACTVS_TAUTO_COUNT>
2

> <PUBCHEM_CONFORMER_ID>
02BA992B00000001

> <PUBCHEM_MMFF94_ENERGY>
80.7181

> <PUBCHEM_FEATURE_SELFOVERLAP>
60.916

> <PUBCHEM_SHAPE_FINGERPRINT>
11112241 14 18269551650797781237
11582403 64 17632013061719954389
1200032 147 16701472156424451425
12422481 6 17749394728088247448
12633257 1 18261109694693038692
12741549 16 16970554310066516195
12788726 201 17831887985081478847
13642711 20 17846227626593967569
14068700 675 18052522568169474407
14468879 13 17346326981366494145
14950920 106 18338791342526275512
16110190 28 17167865261947125348
19438510 23 17489033660682104417
20554085 129 18338521833787426409
20764821 26 17968675842744097223
21033648 29 18272104793785297608
21133410 90 17764012963768085343
21796203 349 16516836700463583796
22223350 30 18263097542880906890
244849 19 17774463623535538526
4112364 45 17770508534788597969
484985 159 15864611973322710707
513202 73 17241587474167458674
5171179 24 17541937594961025973
5265222 85 17540871312888623838
550186 83 16806759237519889502
581034 39 18335705009202800138
5951187 136 16983798043360439217
7064713 232 18333739017449282849

> <PUBCHEM_SHAPE_MULTIPOLES>
691.35
12.45
4.42
3.3
14
5.57
2.32
-11.28
-10.23
-3.32
-1.04
0.68
-1.1
-0.15

> <PUBCHEM_SHAPE_SELFOVERLAP>
1482.287

> <PUBCHEM_SHAPE_VOLUME>
385.6

> <PUBCHEM_COORDINATE_TYPE>
2
5
10

$$$$
