45360525
  -OEChem-12032416183D

 81 85  0     1  0  0  0  0  0999 V2000
    2.9760    2.8009   -1.0039 O   0  0  0  0  0  0  0  0  0  0  0  0
   -4.6916    1.1170   -1.6142 O   0  0  0  0  0  0  0  0  0  0  0  0
    8.5744   -0.7686   -1.7839 O   0  0  0  0  0  0  0  0  0  0  0  0
   -0.7052    2.1868    2.7702 N   0  0  0  0  0  0  0  0  0  0  0  0
    3.9727    0.7170   -0.7717 N   0  0  0  0  0  0  0  0  0  0  0  0
    6.3947   -0.5272   -0.0307 N   0  0  0  0  0  0  0  0  0  0  0  0
   -3.3432    1.4278   -1.7419 N   0  0  0  0  0  0  0  0  0  0  0  0
    0.6397    2.2409    0.1444 C   0  0  1  0  0  0  0  0  0  0  0  0
   -0.8127    1.7406    0.3299 C   0  0  2  0  0  0  0  0  0  0  0  0
    0.9874    3.2077    1.2888 C   0  0  0  0  0  0  0  0  0  0  0  0
   -1.0494    1.1969    1.7489 C   0  0  0  0  0  0  0  0  0  0  0  0
    1.6786    1.1175    0.0447 C   0  0  0  0  0  0  0  0  0  0  0  0
    0.6882    2.6144    2.6648 C   0  0  0  0  0  0  0  0  0  0  0  0
   -1.2288    0.7071   -0.7177 C   0  0  0  0  0  0  0  0  0  0  0  0
    2.9293    1.6278   -0.6250 C   0  0  0  0  0  0  0  0  0  0  0  0
   -2.7220    0.6413   -0.8583 C   0  0  0  0  0  0  0  0  0  0  0  0
    5.2133    1.1175   -1.4305 C   0  0  0  0  0  0  0  0  0  0  0  0
    3.9561   -0.6807   -0.3362 C   0  0  0  0  0  0  0  0  0  0  0  0
    6.4145    0.8594   -0.5237 C   0  0  0  0  0  0  0  0  0  0  0  0
    5.1384   -0.9730    0.5874 C   0  0  0  0  0  0  0  0  0  0  0  0
   -3.6182   -0.1790   -0.1514 C   0  0  0  0  0  0  0  0  0  0  0  0
    7.6078   -1.0848    0.3890 C   0  0  0  0  0  0  0  0  0  0  0  0
   -4.8426    0.1591   -0.6641 C   0  0  0  0  0  0  0  0  0  0  0  0
   -6.1902   -0.2666   -0.4199 C   0  0  0  0  0  0  0  0  0  0  0  0
    8.6814   -1.1967   -0.4944 C   0  0  0  0  0  0  0  0  0  0  0  0
    7.7381   -1.5292    1.7048 C   0  0  0  0  0  0  0  0  0  0  0  0
  -10.2128   -1.5361    0.3110 C   0  0  0  0  0  0  0  0  0  0  0  0
   -8.8114   -1.0934    0.0565 C   0  0  0  0  0  0  0  0  0  0  0  0
   -6.4491   -1.2470    0.5379 C   0  0  0  0  0  0  0  0  0  0  0  0
   -7.2421    0.3006   -1.1394 C   0  0  0  0  0  0  0  0  0  0  0  0
    9.8852   -1.7531   -0.0622 C   0  0  0  0  0  0  0  0  0  0  0  0
   -7.7596   -1.6605    0.7760 C   0  0  0  0  0  0  0  0  0  0  0  0
   -8.5527   -0.1129   -0.9012 C   0  0  0  0  0  0  0  0  0  0  0  0
    8.9419   -2.0857    2.1369 C   0  0  0  0  0  0  0  0  0  0  0  0
  -11.3077   -0.8308   -0.5564 C   0  0  0  0  0  0  0  0  0  0  0  0
  -10.3834   -3.0620    0.0340 C   0  0  0  0  0  0  0  0  0  0  0  0
  -10.6270   -1.2779    1.7928 C   0  0  0  0  0  0  0  0  0  0  0  0
   10.0154   -2.1977    1.2537 C   0  0  0  0  0  0  0  0  0  0  0  0
    8.1165   -1.7174   -2.7451 C   0  0  0  0  0  0  0  0  0  0  0  0
    0.6411    2.8159   -0.7920 H   0  0  0  0  0  0  0  0  0  0  0  0
   -1.4575    2.6259    0.2124 H   0  0  0  0  0  0  0  0  0  0  0  0
    2.0374    3.5170    1.2511 H   0  0  0  0  0  0  0  0  0  0  0  0
    0.3963    4.1253    1.1643 H   0  0  0  0  0  0  0  0  0  0  0  0
   -2.1042    0.9449    1.8911 H   0  0  0  0  0  0  0  0  0  0  0  0
   -0.4773    0.2756    1.9148 H   0  0  0  0  0  0  0  0  0  0  0  0
    1.3081    0.3002   -0.5808 H   0  0  0  0  0  0  0  0  0  0  0  0
    1.9264    0.7127    1.0295 H   0  0  0  0  0  0  0  0  0  0  0  0
    0.8741    3.3805    3.4260 H   0  0  0  0  0  0  0  0  0  0  0  0
    1.3607    1.7804    2.8934 H   0  0  0  0  0  0  0  0  0  0  0  0
   -0.8026    0.9680   -1.6953 H   0  0  0  0  0  0  0  0  0  0  0  0
   -0.8516   -0.2913   -0.4643 H   0  0  0  0  0  0  0  0  0  0  0  0
   -0.8666    1.7880    3.6946 H   0  0  0  0  0  0  0  0  0  0  0  0
    5.2970    0.5284   -2.3518 H   0  0  0  0  0  0  0  0  0  0  0  0
    5.1827    2.1737   -1.7159 H   0  0  0  0  0  0  0  0  0  0  0  0
    3.0258   -0.9522    0.1651 H   0  0  0  0  0  0  0  0  0  0  0  0
    4.0250   -1.2956   -1.2422 H   0  0  0  0  0  0  0  0  0  0  0  0
    7.3253    1.1151   -1.0723 H   0  0  0  0  0  0  0  0  0  0  0  0
    6.3711    1.5338    0.3417 H   0  0  0  0  0  0  0  0  0  0  0  0
    5.1577   -2.0520    0.7836 H   0  0  0  0  0  0  0  0  0  0  0  0
    4.9925   -0.4509    1.5415 H   0  0  0  0  0  0  0  0  0  0  0  0
   -3.3962   -0.9079    0.6143 H   0  0  0  0  0  0  0  0  0  0  0  0
    6.9304   -1.4438    2.4260 H   0  0  0  0  0  0  0  0  0  0  0  0
   -5.6505   -1.7069    1.1143 H   0  0  0  0  0  0  0  0  0  0  0  0
   -7.0802    1.0670   -1.8932 H   0  0  0  0  0  0  0  0  0  0  0  0
   10.7263   -1.8427   -0.7444 H   0  0  0  0  0  0  0  0  0  0  0  0
   -7.9329   -2.4256    1.5274 H   0  0  0  0  0  0  0  0  0  0  0  0
   -9.3320    0.3604   -1.4882 H   0  0  0  0  0  0  0  0  0  0  0  0
    9.0450   -2.4284    3.1624 H   0  0  0  0  0  0  0  0  0  0  0  0
  -11.1499   -1.0103   -1.6263 H   0  0  0  0  0  0  0  0  0  0  0  0
  -12.3083   -1.2083   -0.3126 H   0  0  0  0  0  0  0  0  0  0  0  0
  -11.3228    0.2514   -0.3822 H   0  0  0  0  0  0  0  0  0  0  0  0
  -11.4195   -3.3828    0.1930 H   0  0  0  0  0  0  0  0  0  0  0  0
  -10.1115   -3.3025   -1.0006 H   0  0  0  0  0  0  0  0  0  0  0  0
   -9.7526   -3.6704    0.6913 H   0  0  0  0  0  0  0  0  0  0  0  0
  -11.6661   -1.5763    1.9742 H   0  0  0  0  0  0  0  0  0  0  0  0
  -10.0024   -1.8394    2.4962 H   0  0  0  0  0  0  0  0  0  0  0  0
  -10.5335   -0.2146    2.0435 H   0  0  0  0  0  0  0  0  0  0  0  0
   10.9531   -2.6300    1.5906 H   0  0  0  0  0  0  0  0  0  0  0  0
    8.8127   -2.5592   -2.8140 H   0  0  0  0  0  0  0  0  0  0  0  0
    7.1155   -2.0777   -2.4876 H   0  0  0  0  0  0  0  0  0  0  0  0
    8.0690   -1.2221   -3.7187 H   0  0  0  0  0  0  0  0  0  0  0  0
  1 15  2  0  0  0  0
  2  7  1  0  0  0  0
  2 23  1  0  0  0  0
  3 25  1  0  0  0  0
  3 39  1  0  0  0  0
  4 11  1  0  0  0  0
  4 13  1  0  0  0  0
  4 52  1  0  0  0  0
  5 15  1  0  0  0  0
  5 17  1  0  0  0  0
  5 18  1  0  0  0  0
  6 19  1  0  0  0  0
  6 20  1  0  0  0  0
  6 22  1  0  0  0  0
  7 16  2  0  0  0  0
  8  9  1  0  0  0  0
  8 10  1  0  0  0  0
  8 12  1  0  0  0  0
  8 40  1  0  0  0  0
  9 11  1  0  0  0  0
  9 14  1  0  0  0  0
  9 41  1  0  0  0  0
 10 13  1  0  0  0  0
 10 42  1  0  0  0  0
 10 43  1  0  0  0  0
 11 44  1  0  0  0  0
 11 45  1  0  0  0  0
 12 15  1  0  0  0  0
 12 46  1  0  0  0  0
 12 47  1  0  0  0  0
 13 48  1  0  0  0  0
 13 49  1  0  0  0  0
 14 16  1  0  0  0  0
 14 50  1  0  0  0  0
 14 51  1  0  0  0  0
 16 21  1  0  0  0  0
 17 19  1  0  0  0  0
 17 53  1  0  0  0  0
 17 54  1  0  0  0  0
 18 20  1  0  0  0  0
 18 55  1  0  0  0  0
 18 56  1  0  0  0  0
 19 57  1  0  0  0  0
 19 58  1  0  0  0  0
 20 59  1  0  0  0  0
 20 60  1  0  0  0  0
 21 23  2  0  0  0  0
 21 61  1  0  0  0  0
 22 25  1  0  0  0  0
 22 26  2  0  0  0  0
 23 24  1  0  0  0  0
 24 29  2  0  0  0  0
 24 30  1  0  0  0  0
 25 31  2  0  0  0  0
 26 34  1  0  0  0  0
 26 62  1  0  0  0  0
 27 28  1  0  0  0  0
 27 35  1  0  0  0  0
 27 36  1  0  0  0  0
 27 37  1  0  0  0  0
 28 32  2  0  0  0  0
 28 33  1  0  0  0  0
 29 32  1  0  0  0  0
 29 63  1  0  0  0  0
 30 33  2  0  0  0  0
 30 64  1  0  0  0  0
 31 38  1  0  0  0  0
 31 65  1  0  0  0  0
 32 66  1  0  0  0  0
 33 67  1  0  0  0  0
 34 38  2  0  0  0  0
 34 68  1  0  0  0  0
 35 69  1  0  0  0  0
 35 70  1  0  0  0  0
 35 71  1  0  0  0  0
 36 72  1  0  0  0  0
 36 73  1  0  0  0  0
 36 74  1  0  0  0  0
 37 75  1  0  0  0  0
 37 76  1  0  0  0  0
 37 77  1  0  0  0  0
 38 78  1  0  0  0  0
 39 79  1  0  0  0  0
 39 80  1  0  0  0  0
 39 81  1  0  0  0  0
M  END
> <PUBCHEM_COMPOUND_CID>
45360525

> <PUBCHEM_CONFORMER_RMSD>
1.4

> <PUBCHEM_CONFORMER_DIVERSEORDER>
1
16
26
63
86
119
53
98
75
10
45
69
94
55
95
32
23
100
130
61
103
107
71
21
117
96
15
34
80
72
58
127
19
105
78
46
87
62
83
113
42
114
97
70
104
132
79
76
44
59
112
77
8
99
109
111
123
91
38
60
129
4
110
51
74
106
39
2
116
125
68
50
28
18
37
90
81
115
5
36
52
20
17
3
118
82
88
24
9
128
89
73
35
40
41
56
47
85
14
92
22
31
49
131
54
48
57
7
25
126
121
43
120
33
93
84
65
66
29
11
64
102
30
27
13
108
122
101
124
67
6
12

> <PUBCHEM_MMFF94_PARTIAL_CHARGES>
43
1 -0.57
11 0.27
12 0.06
13 0.27
14 0.18
15 0.57
16 0.11
17 0.3
18 0.3
19 0.37
2 -0.02
20 0.37
21 -0.15
22 0.1
23 0.09
24 0.05
25 0.08
26 -0.15
27 0.14
28 -0.14
29 -0.15
3 -0.36
30 -0.15
31 -0.15
32 -0.15
33 -0.15
34 -0.15
38 -0.15
39 0.28
4 -0.9
5 -0.66
52 0.36
6 -0.84
61 0.15
62 0.15
63 0.15
64 0.15
65 0.15
66 0.15
67 0.15
68 0.15
7 -0.41
78 0.15

> <PUBCHEM_EFFECTIVE_ROTOR_COUNT>
11.4

> <PUBCHEM_PHARMACOPHORE_FEATURES>
12
1 1 acceptor
1 3 acceptor
1 4 cation
1 4 donor
1 6 cation
1 7 acceptor
4 27 35 36 37 hydrophobe
5 2 7 16 21 23 rings
6 22 25 26 31 34 38 rings
6 24 28 29 30 32 33 rings
6 4 8 9 10 11 13 rings
6 5 6 17 18 19 20 rings

> <PUBCHEM_HEAVY_ATOM_COUNT>
39

> <PUBCHEM_ATOM_DEF_STEREO_COUNT>
2

> <PUBCHEM_ATOM_UDEF_STEREO_COUNT>
0

> <PUBCHEM_BOND_DEF_STEREO_COUNT>
0

> <PUBCHEM_BOND_UDEF_STEREO_COUNT>
0

> <PUBCHEM_ISOTOPIC_ATOM_COUNT>
0

> <PUBCHEM_COMPONENT_COUNT>
1

> <PUBCHEM_CACTVS_TAUTO_COUNT>
1

> <PUBCHEM_CONFORMER_ID>
02B4258D00000001

> <PUBCHEM_MMFF94_ENERGY>
122.4027

> <PUBCHEM_FEATURE_SELFOVERLAP>
60.897

> <PUBCHEM_SHAPE_FINGERPRINT>
10168742 298 17022627480968113963
10533779 47 16559040359242109686
10625338 86 13542468635586895163
10930396 42 15123509203689494427
11146851 88 18411980265103810782
11374522 79 18411981334872329954
11411753 29 18335129913335522005
11456790 92 17275110565917011505
11578821 258 10663821884373238643
12013929 2 18259699013992299637
12522641 33 14273453660967251808
12522641 68 8358249367778642592
12539745 222 18412544276441889225
12758862 56 18272646879003587155
13150687 139 14779267492719956872
13383665 225 12974144261483131559
15247644 1 18343019995659490703
15320294 125 18131630105703956679
15347590 135 15913327962422234322
15350500 55 9871752394571282861
15419008 145 17275114912577383505
15890870 6 18040435482121664834
16728433 110 18409444817529435668
1754911 235 13623531264405957015
19301679 30 17417265238075557477
19841028 212 18410292541104831032
20105231 36 17822296825642618243
20156587 128 15792000144152073567
2026 5 18260260815771044666
20721686 146 10015866500252207264
20771845 65 18343581871612670344
21057603 199 18186800305500637547
21792961 116 18410569579839468845
21895431 317 17604138226349633074
232437 2 18040715866249930735
23569917 315 18192710043889440186
23576562 1 12829792754740645215
24771293 8 13039181516210423665
25269216 80 17167856448990544029
2851757 41 18410014295907233742
3383291 50 18202562874089211262
3986486 107 16370723707969548701
4149490 64 18337950194682096328
439807 62 18187646928920384119
4403749 210 9655284956654581757
44389302 135 18202845439671409399
4516262 110 7997969081479771096
45377200 153 17386292125266990867
4874694 18 15646777783076086048
54039377 194 18408039606744455439
5719381 82 18408039606813280387
9937071 3 18131352994535785630
9953998 17 14764337245875108276
9962374 69 17703501212394541909

> <PUBCHEM_SHAPE_MULTIPOLES>
765.07
44.45
2.95
2.05
32.42
0.95
-0.56
-47.16
-0.94
-1.5
-1.23
-2.73
0.4
0.03

> <PUBCHEM_SHAPE_SELFOVERLAP>
1630.797

> <PUBCHEM_SHAPE_VOLUME>
424

> <PUBCHEM_COORDINATE_TYPE>
2
5
10

$$$$
