11882073
  -OEChem-12032416123D

 65 68  0     1  0  0  0  0  0999 V2000
   -3.5837    5.2302    1.7911 S   0  0  0  0  0  0  0  0  0  0  0  0
   -2.5473    0.5264   -1.9058 O   0  0  0  0  0  0  0  0  0  0  0  0
   -2.6805   -1.0635    1.3500 O   0  0  0  0  0  0  0  0  0  0  0  0
    2.7236    0.4711   -0.8779 O   0  0  0  0  0  0  0  0  0  0  0  0
    0.0251    3.4927   -2.5652 O   0  0  0  0  0  0  0  0  0  0  0  0
    6.9574    1.6453    0.8399 O   0  0  0  0  0  0  0  0  0  0  0  0
   -1.6182   -1.6280   -0.6448 N   0  0  0  0  0  0  0  0  0  0  0  0
    1.4684   -1.4542   -1.1281 N   0  0  0  0  0  0  0  0  0  0  0  0
   -1.1380    1.8940   -0.6558 N   0  0  0  0  0  0  0  0  0  0  0  0
    3.5469   -1.6089   -0.1661 N   0  0  0  0  0  0  0  0  0  0  0  0
   -2.3247   -4.2481    0.5587 N   0  0  0  0  0  0  0  0  0  0  0  0
   -2.0663    4.2968   -3.0712 N   0  0  0  0  0  0  0  0  0  0  0  0
   -5.1212   -4.4614    0.5730 N   0  0  0  0  0  0  0  0  0  0  0  0
    0.3234   -0.8287   -1.7465 C   0  0  2  0  0  0  0  0  0  0  0  0
   -0.7371   -0.4668   -0.7068 C   0  0  1  0  0  0  0  0  0  0  0  0
   -0.4033   -1.8085   -2.6701 C   0  0  0  0  0  0  0  0  0  0  0  0
   -1.3409   -2.5621   -1.7354 C   0  0  0  0  0  0  0  0  0  0  0  0
   -1.5856    0.6842   -1.1583 C   0  0  0  0  0  0  0  0  0  0  0  0
   -2.4555   -1.8572    0.4392 C   0  0  0  0  0  0  0  0  0  0  0  0
   -1.7686    3.1582   -0.9599 C   0  0  1  0  0  0  0  0  0  0  0  0
    2.6065   -0.7432   -0.7316 C   0  0  0  0  0  0  0  0  0  0  0  0
   -3.1234   -3.1636    0.5059 C   0  0  0  0  0  0  0  0  0  0  0  0
   -1.5798    4.1874    0.1612 C   0  0  0  0  0  0  0  0  0  0  0  0
   -1.1513    3.6652   -2.2552 C   0  0  0  0  0  0  0  0  0  0  0  0
   -4.4969   -3.2684    0.5127 C   0  0  0  0  0  0  0  0  0  0  0  0
   -2.5340    3.9654    1.3110 C   0  0  0  0  0  0  0  0  0  0  0  0
    4.8213   -1.2853    0.3553 C   0  0  0  0  0  0  0  0  0  0  0  0
   -2.7006    2.8350    2.0806 C   0  0  0  0  0  0  0  0  0  0  0  0
   -2.9490   -5.4410    0.6192 C   0  0  0  0  0  0  0  0  0  0  0  0
    5.2662    0.0366    0.3402 C   0  0  0  0  0  0  0  0  0  0  0  0
   -4.3226   -5.5458    0.6260 C   0  0  0  0  0  0  0  0  0  0  0  0
    5.6333   -2.2885    0.8844 C   0  0  0  0  0  0  0  0  0  0  0  0
   -3.7035    3.0096    3.0774 C   0  0  0  0  0  0  0  0  0  0  0  0
   -4.2650    4.2666    3.0318 C   0  0  0  0  0  0  0  0  0  0  0  0
    6.5229    0.3554    0.8544 C   0  0  0  0  0  0  0  0  0  0  0  0
    6.8902   -1.9697    1.3986 C   0  0  0  0  0  0  0  0  0  0  0  0
    7.3350   -0.6478    1.3835 C   0  0  0  0  0  0  0  0  0  0  0  0
    6.0768    2.6208    0.2844 C   0  0  0  0  0  0  0  0  0  0  0  0
    0.6711    0.0462   -2.3074 H   0  0  0  0  0  0  0  0  0  0  0  0
   -0.3256   -0.2695    0.2902 H   0  0  0  0  0  0  0  0  0  0  0  0
   -0.9957   -1.2507   -3.4055 H   0  0  0  0  0  0  0  0  0  0  0  0
    0.2641   -2.4810   -3.2180 H   0  0  0  0  0  0  0  0  0  0  0  0
   -0.8343   -3.4406   -1.3237 H   0  0  0  0  0  0  0  0  0  0  0  0
   -2.2696   -2.8754   -2.2211 H   0  0  0  0  0  0  0  0  0  0  0  0
    1.4213   -2.4451   -0.9108 H   0  0  0  0  0  0  0  0  0  0  0  0
   -0.2806    1.9119   -0.1106 H   0  0  0  0  0  0  0  0  0  0  0  0
   -2.8369    2.9710   -1.1305 H   0  0  0  0  0  0  0  0  0  0  0  0
   -1.7161    5.1986   -0.2445 H   0  0  0  0  0  0  0  0  0  0  0  0
   -0.5523    4.1527    0.5473 H   0  0  0  0  0  0  0  0  0  0  0  0
    3.2929   -2.5925   -0.1210 H   0  0  0  0  0  0  0  0  0  0  0  0
   -5.1464   -2.4020    0.4685 H   0  0  0  0  0  0  0  0  0  0  0  0
   -1.7885    4.6689   -3.9734 H   0  0  0  0  0  0  0  0  0  0  0  0
   -3.0365    4.4296   -2.8045 H   0  0  0  0  0  0  0  0  0  0  0  0
   -2.1315    1.9239    1.9509 H   0  0  0  0  0  0  0  0  0  0  0  0
   -2.3079   -6.3127    0.6613 H   0  0  0  0  0  0  0  0  0  0  0  0
    4.6453    0.8139   -0.0658 H   0  0  0  0  0  0  0  0  0  0  0  0
    5.2988   -3.3225    0.9023 H   0  0  0  0  0  0  0  0  0  0  0  0
   -4.8234   -6.5048    0.6743 H   0  0  0  0  0  0  0  0  0  0  0  0
   -3.9967    2.2523    3.7927 H   0  0  0  0  0  0  0  0  0  0  0  0
   -5.0425    4.6653    3.6682 H   0  0  0  0  0  0  0  0  0  0  0  0
    7.5225   -2.7507    1.8106 H   0  0  0  0  0  0  0  0  0  0  0  0
    8.3150   -0.4055    1.7855 H   0  0  0  0  0  0  0  0  0  0  0  0
    6.5845    3.5885    0.3555 H   0  0  0  0  0  0  0  0  0  0  0  0
    5.1511    2.7070    0.8637 H   0  0  0  0  0  0  0  0  0  0  0  0
    5.8913    2.4393   -0.7798 H   0  0  0  0  0  0  0  0  0  0  0  0
  1 26  1  0  0  0  0
  1 34  1  0  0  0  0
  2 18  2  0  0  0  0
  3 19  2  0  0  0  0
  4 21  2  0  0  0  0
  5 24  2  0  0  0  0
  6 35  1  0  0  0  0
  6 38  1  0  0  0  0
  7 15  1  0  0  0  0
  7 17  1  0  0  0  0
  7 19  1  0  0  0  0
  8 14  1  0  0  0  0
  8 21  1  0  0  0  0
  8 45  1  0  0  0  0
  9 18  1  0  0  0  0
  9 20  1  0  0  0  0
  9 46  1  0  0  0  0
 10 21  1  0  0  0  0
 10 27  1  0  0  0  0
 10 50  1  0  0  0  0
 11 22  2  0  0  0  0
 11 29  1  0  0  0  0
 12 24  1  0  0  0  0
 12 52  1  0  0  0  0
 12 53  1  0  0  0  0
 13 25  2  0  0  0  0
 13 31  1  0  0  0  0
 14 15  1  0  0  0  0
 14 16  1  0  0  0  0
 14 39  1  0  0  0  0
 15 18  1  0  0  0  0
 15 40  1  0  0  0  0
 16 17  1  0  0  0  0
 16 41  1  0  0  0  0
 16 42  1  0  0  0  0
 17 43  1  0  0  0  0
 17 44  1  0  0  0  0
 19 22  1  0  0  0  0
 20 23  1  0  0  0  0
 20 24  1  0  0  0  0
 20 47  1  0  0  0  0
 22 25  1  0  0  0  0
 23 26  1  0  0  0  0
 23 48  1  0  0  0  0
 23 49  1  0  0  0  0
 25 51  1  0  0  0  0
 26 28  2  0  0  0  0
 27 30  2  0  0  0  0
 27 32  1  0  0  0  0
 28 33  1  0  0  0  0
 28 54  1  0  0  0  0
 29 31  2  0  0  0  0
 29 55  1  0  0  0  0
 30 35  1  0  0  0  0
 30 56  1  0  0  0  0
 31 58  1  0  0  0  0
 32 36  2  0  0  0  0
 32 57  1  0  0  0  0
 33 34  2  0  0  0  0
 33 59  1  0  0  0  0
 34 60  1  0  0  0  0
 35 37  2  0  0  0  0
 36 37  1  0  0  0  0
 36 61  1  0  0  0  0
 37 62  1  0  0  0  0
 38 63  1  0  0  0  0
 38 64  1  0  0  0  0
 38 65  1  0  0  0  0
M  END
> <PUBCHEM_COMPOUND_CID>
11882073

> <PUBCHEM_CONFORMER_RMSD>
1.2

> <PUBCHEM_CONFORMER_DIVERSEORDER>
1
47
38
28
69
85
27
36
54
101
63
42
95
74
78
59
97
16
25
61
8
80
19
91
62
100
46
75
57
72
22
9
102
55
98
64
99
45
4
37
41
65
86
39
17
5
33
70
96
76
26
18
3
49
82
23
58
84
21
77
50
11
14
43
81
53
56
60
79
71
51
6
73
35
32
48
90
66
89
67
7
83
68
20
52
12
29
88
40
24
93
31
34
44
87
15
30
13
92
10
94
2

> <PUBCHEM_MMFF94_PARTIAL_CHARGES>
52
1 -0.08
10 -0.55
11 -0.62
12 -0.8
13 -0.62
14 0.3
15 0.36
17 0.3
18 0.57
19 0.54
2 -0.57
20 0.36
21 0.69
22 0.4
23 0.18
24 0.57
25 0.16
26 -0.14
27 0.12
28 -0.15
29 0.16
3 -0.57
30 -0.15
31 0.16
32 -0.15
33 -0.15
34 -0.11
35 0.08
36 -0.15
37 -0.15
38 0.28
4 -0.57
45 0.37
46 0.37
5 -0.57
50 0.37
51 0.15
52 0.37
53 0.37
54 0.15
55 0.15
56 0.15
57 0.15
58 0.15
59 0.15
6 -0.36
60 0.15
61 0.15
62 0.15
7 -0.66
8 -0.73
9 -0.73

> <PUBCHEM_EFFECTIVE_ROTOR_COUNT>
14

> <PUBCHEM_PHARMACOPHORE_FEATURES>
15
1 10 donor
1 11 acceptor
1 12 donor
1 13 acceptor
1 2 acceptor
1 3 acceptor
1 4 acceptor
1 5 acceptor
1 6 acceptor
1 8 donor
1 9 donor
5 1 26 28 33 34 rings
5 7 14 15 16 17 rings
6 11 13 22 25 29 31 rings
6 27 30 32 35 36 37 rings

> <PUBCHEM_HEAVY_ATOM_COUNT>
38

> <PUBCHEM_ATOM_DEF_STEREO_COUNT>
3

> <PUBCHEM_ATOM_UDEF_STEREO_COUNT>
0

> <PUBCHEM_BOND_DEF_STEREO_COUNT>
0

> <PUBCHEM_BOND_UDEF_STEREO_COUNT>
0

> <PUBCHEM_ISOTOPIC_ATOM_COUNT>
0

> <PUBCHEM_COMPONENT_COUNT>
1

> <PUBCHEM_CACTVS_TAUTO_COUNT>
12

> <PUBCHEM_CONFORMER_ID>
00B54E5900000001

> <PUBCHEM_MMFF94_ENERGY>
110.7332

> <PUBCHEM_FEATURE_SELFOVERLAP>
76.184

> <PUBCHEM_SHAPE_FINGERPRINT>
10074138 170 18337682910155973563
12988421 55 17978505334656148305
14150022 121 18341051899856833592
14394314 77 18187641474613514843
14565420 104 17623578544936438385
15338160 23 18272655640621229120
15351339 4 17402639809465774565
15357212 105 18340225011806068572
15513586 35 18339071705422941416
15775530 1 18127428755858444127
15950262 2 15120725098466534251
16114785 44 18200033933110110499
18393751 57 18122073000813307073
21344244 78 18124321755083274294
22889206 1 16970828676223485640
22956985 138 17540531748521658959
255183 313 18191599553432776889
3418910 222 18189051070822945524
3886686 26 18191016799649261462
4144715 1 18338227156281369770
56638632 10 17258505439881501011
56638632 33 17833272304449244531
6697151 62 17910668002002738671
7288768 16 17913772717242369225
9896288 288 18342179947205833834

> <PUBCHEM_SHAPE_MULTIPOLES>
721.66
14.8
9.18
2.75
38.76
2.72
0.83
0.28
-11.73
-19.8
-3.06
-2.9
-3.37
-1.61

> <PUBCHEM_SHAPE_SELFOVERLAP>
1532.151

> <PUBCHEM_SHAPE_VOLUME>
402.8

> <PUBCHEM_COORDINATE_TYPE>
2
5
10

$$$$
