75537125
  -OEChem-12032416333D

 51 54  0     1  0  0  0  0  0999 V2000
    6.2624   -1.2197    0.1581 O   0  0  0  0  0  0  0  0  0  0  0  0
   -2.0941    2.6502   -0.4903 O   0  0  0  0  0  0  0  0  0  0  0  0
   -0.2422    1.3908    0.2192 N   0  0  0  0  0  0  0  0  0  0  0  0
   -2.2443    0.3776    0.1237 N   0  0  0  0  0  0  0  0  0  0  0  0
    2.3808    0.3767    0.2638 N   0  0  1  0  0  0  0  0  0  0  0  0
   -0.0085    0.0720    0.7696 C   0  0  1  0  0  0  0  0  0  0  0  0
   -1.3107   -0.6746    0.4871 C   0  0  0  0  0  0  0  0  0  0  0  0
    1.2386   -0.5520    0.1442 C   0  0  0  0  0  0  0  0  0  0  0  0
   -3.6411    0.1100   -0.1200 C   0  0  0  0  0  0  0  0  0  0  0  0
    0.8538    2.3347    0.1509 C   0  0  0  0  0  0  0  0  0  0  0  0
    3.5924   -0.2349   -0.2771 C   0  0  0  0  0  0  0  0  0  0  0  0
    2.0971    1.6521   -0.4249 C   0  0  0  0  0  0  0  0  0  0  0  0
   -1.5907    1.6070   -0.0950 C   0  0  0  0  0  0  0  0  0  0  0  0
   -4.3506   -0.2663    1.1829 C   0  0  0  0  0  0  0  0  0  0  0  0
   -3.8067   -0.9823   -1.1801 C   0  0  0  0  0  0  0  0  0  0  0  0
   -5.8198   -0.6063    0.9457 C   0  0  0  0  0  0  0  0  0  0  0  0
   -5.2768   -1.3197   -1.4145 C   0  0  0  0  0  0  0  0  0  0  0  0
    3.8708   -1.5870    0.3869 C   0  0  0  0  0  0  0  0  0  0  0  0
    4.7910    0.6990   -0.0869 C   0  0  0  0  0  0  0  0  0  0  0  0
   -5.9826   -1.6924   -0.1138 C   0  0  0  0  0  0  0  0  0  0  0  0
    5.2060   -2.1471   -0.0911 C   0  0  0  0  0  0  0  0  0  0  0  0
    6.0752    0.0122   -0.5386 C   0  0  0  0  0  0  0  0  0  0  0  0
    0.1255    0.1974    1.8523 H   0  0  0  0  0  0  0  0  0  0  0  0
   -1.2021   -1.3628   -0.3567 H   0  0  0  0  0  0  0  0  0  0  0  0
   -1.6551   -1.2240    1.3668 H   0  0  0  0  0  0  0  0  0  0  0  0
    1.3971   -1.4832    0.6947 H   0  0  0  0  0  0  0  0  0  0  0  0
    1.0596   -0.8037   -0.9098 H   0  0  0  0  0  0  0  0  0  0  0  0
   -4.0963    1.0329   -0.5018 H   0  0  0  0  0  0  0  0  0  0  0  0
    1.0437    2.6861    1.1717 H   0  0  0  0  0  0  0  0  0  0  0  0
    0.5573    3.1969   -0.4549 H   0  0  0  0  0  0  0  0  0  0  0  0
    3.4677   -0.4125   -1.3558 H   0  0  0  0  0  0  0  0  0  0  0  0
    1.9546    1.4823   -1.5004 H   0  0  0  0  0  0  0  0  0  0  0  0
    2.9034    2.3796   -0.3033 H   0  0  0  0  0  0  0  0  0  0  0  0
   -4.2764    0.5586    1.9021 H   0  0  0  0  0  0  0  0  0  0  0  0
   -3.8676   -1.1312    1.6534 H   0  0  0  0  0  0  0  0  0  0  0  0
   -3.2954   -1.9036   -0.8754 H   0  0  0  0  0  0  0  0  0  0  0  0
   -3.3461   -0.6652   -2.1236 H   0  0  0  0  0  0  0  0  0  0  0  0
   -6.3557    0.2965    0.6278 H   0  0  0  0  0  0  0  0  0  0  0  0
   -6.2787   -0.9354    1.8848 H   0  0  0  0  0  0  0  0  0  0  0  0
   -5.3564   -2.1480   -2.1275 H   0  0  0  0  0  0  0  0  0  0  0  0
   -5.7805   -0.4577   -1.8690 H   0  0  0  0  0  0  0  0  0  0  0  0
    3.1158   -2.3407    0.1446 H   0  0  0  0  0  0  0  0  0  0  0  0
    3.9031   -1.4669    1.4775 H   0  0  0  0  0  0  0  0  0  0  0  0
    4.7092    1.6205   -0.6698 H   0  0  0  0  0  0  0  0  0  0  0  0
    4.8850    0.9709    0.9725 H   0  0  0  0  0  0  0  0  0  0  0  0
   -7.0477   -1.8618   -0.3076 H   0  0  0  0  0  0  0  0  0  0  0  0
   -5.5725   -2.6364    0.2659 H   0  0  0  0  0  0  0  0  0  0  0  0
    5.1787   -2.3894   -1.1601 H   0  0  0  0  0  0  0  0  0  0  0  0
    5.4385   -3.0694    0.4507 H   0  0  0  0  0  0  0  0  0  0  0  0
    6.0691   -0.1771   -1.6186 H   0  0  0  0  0  0  0  0  0  0  0  0
    6.9364    0.6518   -0.3202 H   0  0  0  0  0  0  0  0  0  0  0  0
  1 21  1  0  0  0  0
  1 22  1  0  0  0  0
  2 13  2  0  0  0  0
  3  6  1  0  0  0  0
  3 10  1  0  0  0  0
  3 13  1  0  0  0  0
  4  7  1  0  0  0  0
  4  9  1  0  0  0  0
  4 13  1  0  0  0  0
  5  8  1  0  0  0  0
  5 11  1  0  0  0  0
  5 12  1  0  0  0  0
  6  7  1  0  0  0  0
  6  8  1  0  0  0  0
  6 23  1  0  0  0  0
  7 24  1  0  0  0  0
  7 25  1  0  0  0  0
  8 26  1  0  0  0  0
  8 27  1  0  0  0  0
  9 14  1  0  0  0  0
  9 15  1  0  0  0  0
  9 28  1  0  0  0  0
 10 12  1  0  0  0  0
 10 29  1  0  0  0  0
 10 30  1  0  0  0  0
 11 18  1  0  0  0  0
 11 19  1  0  0  0  0
 11 31  1  0  0  0  0
 12 32  1  0  0  0  0
 12 33  1  0  0  0  0
 14 16  1  0  0  0  0
 14 34  1  0  0  0  0
 14 35  1  0  0  0  0
 15 17  1  0  0  0  0
 15 36  1  0  0  0  0
 15 37  1  0  0  0  0
 16 20  1  0  0  0  0
 16 38  1  0  0  0  0
 16 39  1  0  0  0  0
 17 20  1  0  0  0  0
 17 40  1  0  0  0  0
 17 41  1  0  0  0  0
 18 21  1  0  0  0  0
 18 42  1  0  0  0  0
 18 43  1  0  0  0  0
 19 22  1  0  0  0  0
 19 44  1  0  0  0  0
 19 45  1  0  0  0  0
 20 46  1  0  0  0  0
 20 47  1  0  0  0  0
 21 48  1  0  0  0  0
 21 49  1  0  0  0  0
 22 50  1  0  0  0  0
 22 51  1  0  0  0  0
M  END
> <PUBCHEM_COMPOUND_CID>
75537125

> <PUBCHEM_CONFORMER_RMSD>
0.8

> <PUBCHEM_CONFORMER_DIVERSEORDER>
1
22
8
23
16
25
9
10
11
12
13
17
19
15
6
7
2
14
18
20
21
24
5
3
4

> <PUBCHEM_MMFF94_PARTIAL_CHARGES>
15
1 -0.56
10 0.3
11 0.27
12 0.27
13 0.69
2 -0.57
21 0.28
22 0.28
3 -0.66
4 -0.66
5 -0.81
6 0.3
7 0.3
8 0.27
9 0.3

> <PUBCHEM_EFFECTIVE_ROTOR_COUNT>
5.6

> <PUBCHEM_PHARMACOPHORE_FEATURES>
7
1 1 acceptor
1 2 acceptor
1 5 cation
5 3 4 6 7 13 rings
6 1 11 18 19 21 22 rings
6 3 5 6 8 10 12 rings
6 9 14 15 16 17 20 rings

> <PUBCHEM_HEAVY_ATOM_COUNT>
22

> <PUBCHEM_ATOM_DEF_STEREO_COUNT>
1

> <PUBCHEM_ATOM_UDEF_STEREO_COUNT>
0

> <PUBCHEM_BOND_DEF_STEREO_COUNT>
0

> <PUBCHEM_BOND_UDEF_STEREO_COUNT>
0

> <PUBCHEM_ISOTOPIC_ATOM_COUNT>
0

> <PUBCHEM_COMPONENT_COUNT>
1

> <PUBCHEM_CACTVS_TAUTO_COUNT>
1

> <PUBCHEM_CONFORMER_ID>
04809AE500000001

> <PUBCHEM_MMFF94_ENERGY>
39.6387

> <PUBCHEM_FEATURE_SELFOVERLAP>
35.618

> <PUBCHEM_SHAPE_FINGERPRINT>
10 15 12319450008839306606
10447042 23 18261108565627946510
10493431 412 9943805607964316453
10595046 47 18408325458825746404
11524674 6 16056879134970767983
11963148 33 18411132550166212726
12166972 35 17676211273251915588
12236239 1 18060143167170488793
12516196 113 18344145899738870104
12596602 18 16917067788990377410
12670543 26 18040989627385840901
12760667 363 18411420605184554315
13150687 139 18191610712686194940
13288520 33 18412826889388929445
13533116 47 18341334487277851680
13583140 156 15338835314146087155
13685833 64 18335424599345953803
13862211 1 18410009927539904050
13955234 65 18055349394984191032
14251752 14 18187639164178714901
14347332 77 18409445847772570572
14350574 20 18187366553771656395
14508225 48 18186796989553581213
14576447 43 18409164403277245406
14767858 380 18260558839973424876
15183329 4 16225758601826697380
15188451 53 16271633594919918495
15196674 1 18336266730832075728
15348495 7 14189282803039896678
17492 89 18194683653732362994
17780758 139 17632859720465766123
17857418 61 18343019999362730279
1813 80 18340501027288340093
18222031 100 18411691097766242008
19784866 140 18186798071868781131
19784866 170 11455891364459846536
200 152 18411700980280346105
20028762 73 18130785676606314854
204376 136 9871753498905651945
20567600 247 18341889723132561511
20645477 70 18187927325849676184
21150785 3 16298674953427963990
21236236 1 18337675217991021417
21267235 1 18410019810533796226
21637258 2 17560792256292253095
221357 26 18261107478315340589
22950370 63 18341896307395897971
23402539 116 18409166597704879349
23522609 53 18126035790532262928
23559900 14 17968097589521116609
23569914 152 17398633867709548319
25147074 1 18340506511487251704
2767999 5 7853575694785605567
2838139 119 11530481142456531447
2871803 45 18113894966004969872
3004659 81 18113336406151709618
314194 84 18412266146658659130
335352 9 18410854344455069109
3411729 13 16199012007104038096
34797466 226 16226340290585554102
351380 3 18342737420574279726
397830 11 15266763533478369522
46194498 28 17313384577916196676
463206 1 18341893051616145638
465052 167 18342744052040701711
5104073 3 18268988701018492576
559249 180 18202282503356399591
5718773 13 18263358093652397978
59682541 35 18271236227719227560
7495541 125 17847054493898240456
76465 3 18342452647036045693
7970288 3 18412258463115693071
9709674 26 18264498295641645266
999808 66 18187375376247257283

> <PUBCHEM_SHAPE_MULTIPOLES>
426.07
15.53
2.19
0.96
2.64
0.77
-0.08
-9.79
-1.12
0.62
-0.25
-1.18
-0.2
-0.59

> <PUBCHEM_SHAPE_SELFOVERLAP>
887.319

> <PUBCHEM_SHAPE_VOLUME>
240.7

> <PUBCHEM_COORDINATE_TYPE>
2
5
10

$$$$
