75536589
  -OEChem-12032416333D

 40 41  0     1  0  0  0  0  0999 V2000
   -5.7531    1.6120    0.0122 S   0  0  0  0  0  0  0  0  0  0  0  0
    0.9166    1.1723   -0.3080 O   0  0  0  0  0  0  0  0  0  0  0  0
   -0.0299   -2.2356    0.3212 O   0  0  0  0  0  0  0  0  0  0  0  0
    4.5533   -1.3420    0.4645 O   0  0  0  0  0  0  0  0  0  0  0  0
    6.7455    0.2079    0.6624 O   0  0  0  0  0  0  0  0  0  0  0  0
   -2.4266   -0.2423   -0.0770 N   0  0  0  0  0  0  0  0  0  0  0  0
    3.5089    0.1355   -0.9986 N   0  0  0  0  0  0  0  0  0  0  0  0
   -1.0446   -0.0151    0.3130 C   0  0  1  0  0  0  0  0  0  0  0  0
   -0.0644   -0.9797   -0.3285 C   0  0  1  0  0  0  0  0  0  0  0  0
    1.2449   -0.2197   -0.1645 C   0  0  1  0  0  0  0  0  0  0  0  0
   -0.5068    1.3232   -0.1664 C   0  0  0  0  0  0  0  0  0  0  0  0
    2.2965   -0.6073   -1.1889 C   0  0  0  0  0  0  0  0  0  0  0  0
   -3.3448    0.4687    0.8047 C   0  0  0  0  0  0  0  0  0  0  0  0
   -4.7811    0.2583    0.4056 C   0  0  0  0  0  0  0  0  0  0  0  0
    4.5479   -0.2967   -0.1799 C   0  0  0  0  0  0  0  0  0  0  0  0
   -5.4776   -0.9257    0.3022 C   0  0  0  0  0  0  0  0  0  0  0  0
    5.7040    0.6805   -0.1652 C   0  0  0  0  0  0  0  0  0  0  0  0
   -6.8269   -0.7188   -0.1057 C   0  0  0  0  0  0  0  0  0  0  0  0
   -7.1105    0.6154   -0.2983 C   0  0  0  0  0  0  0  0  0  0  0  0
    7.8485    1.1091    0.6952 C   0  0  0  0  0  0  0  0  0  0  0  0
   -0.9398   -0.0994    1.4040 H   0  0  0  0  0  0  0  0  0  0  0  0
   -0.3009   -1.1363   -1.3883 H   0  0  0  0  0  0  0  0  0  0  0  0
    1.6497   -0.3572    0.8468 H   0  0  0  0  0  0  0  0  0  0  0  0
   -0.9011    1.6026   -1.1503 H   0  0  0  0  0  0  0  0  0  0  0  0
   -0.7161    2.1382    0.5330 H   0  0  0  0  0  0  0  0  0  0  0  0
    1.9507   -0.3766   -2.2025 H   0  0  0  0  0  0  0  0  0  0  0  0
    2.5156   -1.6788   -1.1310 H   0  0  0  0  0  0  0  0  0  0  0  0
   -2.6242   -1.2421   -0.0275 H   0  0  0  0  0  0  0  0  0  0  0  0
   -3.1109    1.5402    0.8074 H   0  0  0  0  0  0  0  0  0  0  0  0
   -3.2299    0.1128    1.8371 H   0  0  0  0  0  0  0  0  0  0  0  0
    0.1786   -2.0890    1.2593 H   0  0  0  0  0  0  0  0  0  0  0  0
    3.6005    1.0247   -1.4815 H   0  0  0  0  0  0  0  0  0  0  0  0
   -5.0461   -1.8967    0.5101 H   0  0  0  0  0  0  0  0  0  0  0  0
    6.0685    0.8021   -1.1918 H   0  0  0  0  0  0  0  0  0  0  0  0
    5.3377    1.6439    0.2082 H   0  0  0  0  0  0  0  0  0  0  0  0
   -7.5529   -1.5083   -0.2500 H   0  0  0  0  0  0  0  0  0  0  0  0
   -8.0498    1.0524   -0.6064 H   0  0  0  0  0  0  0  0  0  0  0  0
    7.5379    2.0783    1.0973 H   0  0  0  0  0  0  0  0  0  0  0  0
    8.2704    1.2330   -0.3068 H   0  0  0  0  0  0  0  0  0  0  0  0
    8.6166    0.6880    1.3493 H   0  0  0  0  0  0  0  0  0  0  0  0
  1 14  1  0  0  0  0
  1 19  1  0  0  0  0
  2 10  1  0  0  0  0
  2 11  1  0  0  0  0
  3  9  1  0  0  0  0
  3 31  1  0  0  0  0
  4 15  2  0  0  0  0
  5 17  1  0  0  0  0
  5 20  1  0  0  0  0
  6  8  1  0  0  0  0
  6 13  1  0  0  0  0
  6 28  1  0  0  0  0
  7 12  1  0  0  0  0
  7 15  1  0  0  0  0
  7 32  1  0  0  0  0
  8  9  1  0  0  0  0
  8 11  1  0  0  0  0
  8 21  1  0  0  0  0
  9 10  1  0  0  0  0
  9 22  1  0  0  0  0
 10 12  1  0  0  0  0
 10 23  1  0  0  0  0
 11 24  1  0  0  0  0
 11 25  1  0  0  0  0
 12 26  1  0  0  0  0
 12 27  1  0  0  0  0
 13 14  1  0  0  0  0
 13 29  1  0  0  0  0
 13 30  1  0  0  0  0
 14 16  2  0  0  0  0
 15 17  1  0  0  0  0
 16 18  1  0  0  0  0
 16 33  1  0  0  0  0
 17 34  1  0  0  0  0
 17 35  1  0  0  0  0
 18 19  2  0  0  0  0
 18 36  1  0  0  0  0
 19 37  1  0  0  0  0
 20 38  1  0  0  0  0
 20 39  1  0  0  0  0
 20 40  1  0  0  0  0
M  END
> <PUBCHEM_COMPOUND_CID>
75536589

> <PUBCHEM_CONFORMER_RMSD>
0.8

> <PUBCHEM_CONFORMER_DIVERSEORDER>
1
62
199
122
98
87
78
151
52
193
35
181
119
121
22
99
105
37
64
208
49
106
77
139
75
125
2
179
39
48
191
128
25
101
184
186
195
167
51
149
152
90
66
93
110
180
79
56
88
80
117
158
96
83
159
204
120
185
160
150
182
135
100
103
153
47
74
168
124
178
16
68
12
60
19
31
92
205
196
176
113
189
130
200
118
174
82
30
36
123
26
84
144
81
23
209
187
76
129
43
54
21
206
147
172
134
175
59
143
24
161
57
198
70
50
89
163
171
154
44
7
85
126
132
61
40
133
41
97
127
73
188
11
27
165
111
162
166
108
164
138
157
170
173
136
155
63
201
33
94
183
10
69
91
32
197
137
71
194
146
190
65
156
29
142
203
18
141
13
169
20
177
14
95
115
107
140
42
102
9
72
112
34
38
207
8
104
5
192
202
15
114
3
55
17
67
131
4
6
109
145
86
46
53
28
58
116
45
148

> <PUBCHEM_MMFF94_PARTIAL_CHARGES>
26
1 -0.08
10 0.28
11 0.28
12 0.3
13 0.45
14 -0.14
15 0.57
16 -0.15
17 0.34
18 -0.15
19 -0.11
2 -0.56
20 0.28
28 0.36
3 -0.68
31 0.4
32 0.37
33 0.15
36 0.15
37 0.15
4 -0.57
5 -0.56
6 -0.9
7 -0.73
8 0.27
9 0.28

> <PUBCHEM_EFFECTIVE_ROTOR_COUNT>
9

> <PUBCHEM_PHARMACOPHORE_FEATURES>
10
1 2 acceptor
1 3 acceptor
1 3 donor
1 4 acceptor
1 5 acceptor
1 6 cation
1 6 donor
1 7 donor
5 1 14 16 18 19 rings
5 2 8 9 10 11 rings

> <PUBCHEM_HEAVY_ATOM_COUNT>
20

> <PUBCHEM_ATOM_DEF_STEREO_COUNT>
3

> <PUBCHEM_ATOM_UDEF_STEREO_COUNT>
0

> <PUBCHEM_BOND_DEF_STEREO_COUNT>
0

> <PUBCHEM_BOND_UDEF_STEREO_COUNT>
0

> <PUBCHEM_ISOTOPIC_ATOM_COUNT>
0

> <PUBCHEM_COMPONENT_COUNT>
1

> <PUBCHEM_CACTVS_TAUTO_COUNT>
2

> <PUBCHEM_CONFORMER_ID>
048098CD00000001

> <PUBCHEM_MMFF94_ENERGY>
31.1749

> <PUBCHEM_FEATURE_SELFOVERLAP>
50.754

> <PUBCHEM_SHAPE_FINGERPRINT>
10299344 5 10735879469303558981
106641 1 18342457079753427698
10968037 39 16917067763795137869
11315181 36 17775568637849727233
11796584 16 16371015117252776585
12091667 2 18408325493354023507
12236239 1 18201440242678269583
13533116 47 17968376733037733898
13885169 127 12107775303256987974
14123256 10 16702303455512201632
14251718 22 17988927756353495237
14251764 18 18114180847955755684
14251764 46 18410855468718102884
15048467 5 16487256569015437860
15183329 4 15864075347128731503
18006028 8 14418131824924678758
18681886 176 18272081738927983787
200 152 18201723930058853961
21054139 6 18410571817048204335
21095086 128 14476963380665197204
21150785 3 16200430277871168877
21365058 27 14620797110991892957
22224240 67 18131629002446103606
23035841 295 9871749083283548477
23402539 116 17240205439384638215
23536379 177 17821731619992271117
23559900 14 18411696626238809369
246663 6 10809341127216705072
28498 318 13262670435620103496
3009799 131 18333452036614720425
34797466 226 15985109630233090384
4072396 5 18187363199122948338
4325135 7 16773797004227261709
4340502 62 16370728119101370210
4463277 17 18410856555492684293
5207 217 17346600780867063415
59682541 35 17845933025833437162
6438161 24 9583250423028840468

> <PUBCHEM_SHAPE_MULTIPOLES>
382
21.28
1.45
0.84
8.79
0.15
0.06
-5.17
-2.75
-0.37
-0.09
0.42
0.01
0.38

> <PUBCHEM_SHAPE_SELFOVERLAP>
763.074

> <PUBCHEM_SHAPE_VOLUME>
227

> <PUBCHEM_COORDINATE_TYPE>
2
5
10

$$$$
