11882931
  -OEChem-12032416313D

 74 77  0     1  0  0  0  0  0999 V2000
    0.1403    2.2861   -0.3778 S   0  0  0  0  0  0  0  0  0  0  0  0
   -7.5301    0.6596   -0.7601 O   0  0  0  0  0  0  0  0  0  0  0  0
   -6.9835    2.8689   -0.0084 O   0  0  0  0  0  0  0  0  0  0  0  0
    0.5886   -2.4975    2.0597 O   0  0  0  0  0  0  0  0  0  0  0  0
    3.0689   -1.1650    0.7113 O   0  0  0  0  0  0  0  0  0  0  0  0
    0.4772   -3.0078   -2.3865 O   0  0  0  0  0  0  0  0  0  0  0  0
    8.6929    1.4482   -0.1856 O   0  0  0  0  0  0  0  0  0  0  0  0
    0.2987   -0.1795    0.3893 N   0  0  0  0  0  0  0  0  0  0  0  0
   -0.5973   -3.3525    0.2530 N   0  0  0  0  0  0  0  0  0  0  0  0
    2.3791    0.9868    0.0412 N   0  0  0  0  0  0  0  0  0  0  0  0
   -3.5371   -0.1679    0.7825 C   0  0  2  0  0  0  0  0  0  0  0  0
   -3.7331    0.8887   -0.3925 C   0  0  1  0  0  0  0  0  0  0  0  0
   -5.1986    1.4144   -0.6454 C   0  0  1  0  0  0  0  0  0  0  0  0
   -2.1187   -0.8751    0.5781 C   0  0  1  0  0  0  0  0  0  0  0  0
   -4.6417   -1.2525    0.6902 C   0  0  0  0  0  0  0  0  0  0  0  0
   -6.1797    0.2081   -0.6624 C   0  0  1  0  0  0  0  0  0  0  0  0
   -2.6645    2.0186   -0.3253 C   0  0  0  0  0  0  0  0  0  0  0  0
   -6.0500   -0.6893    0.5633 C   0  0  0  0  0  0  0  0  0  0  0  0
   -3.5920    0.4790    2.1884 C   0  0  0  0  0  0  0  0  0  0  0  0
   -1.0428    0.1409    0.2923 C   0  0  0  0  0  0  0  0  0  0  0  0
   -5.6723    2.4955    0.3511 C   0  0  0  0  0  0  0  0  0  0  0  0
   -5.2626    2.0823   -2.0482 C   0  0  0  0  0  0  0  0  0  0  0  0
   -1.3093    1.4277   -0.1292 C   0  0  0  0  0  0  0  0  0  0  0  0
   -1.7091   -1.8230    1.7132 C   0  0  0  0  0  0  0  0  0  0  0  0
   -0.4389   -2.5762    1.3918 C   0  0  0  0  0  0  0  0  0  0  0  0
    1.0142    0.8762    0.0671 C   0  0  0  0  0  0  0  0  0  0  0  0
    0.4555   -4.1787   -0.2920 C   0  0  0  0  0  0  0  0  0  0  0  0
    3.3097   -0.0162    0.3572 C   0  0  0  0  0  0  0  0  0  0  0  0
    1.2971   -3.4170   -1.2995 C   0  0  0  0  0  0  0  0  0  0  0  0
    4.7379    0.3722    0.2127 C   0  0  0  0  0  0  0  0  0  0  0  0
    5.6696   -0.6079   -0.0553 C   0  0  0  0  0  0  0  0  0  0  0  0
    5.0827    1.7000    0.3518 C   0  0  0  0  0  0  0  0  0  0  0  0
    1.2233   -2.2930   -3.3621 C   0  0  0  0  0  0  0  0  0  0  0  0
    7.0092   -0.2434   -0.1906 C   0  0  0  0  0  0  0  0  0  0  0  0
    6.4224    2.0646    0.2165 C   0  0  0  0  0  0  0  0  0  0  0  0
    7.3856    1.0929   -0.0548 C   0  0  0  0  0  0  0  0  0  0  0  0
    9.0081    2.8315   -0.0348 C   0  0  0  0  0  0  0  0  0  0  0  0
   -3.4939    0.3162   -1.3056 H   0  0  0  0  0  0  0  0  0  0  0  0
   -2.2044   -1.4523   -0.3532 H   0  0  0  0  0  0  0  0  0  0  0  0
   -4.6115   -1.9089    1.5679 H   0  0  0  0  0  0  0  0  0  0  0  0
   -4.4521   -1.8962   -0.1790 H   0  0  0  0  0  0  0  0  0  0  0  0
   -5.9860   -0.4088   -1.5503 H   0  0  0  0  0  0  0  0  0  0  0  0
   -2.6722    2.6014   -1.2523 H   0  0  0  0  0  0  0  0  0  0  0  0
   -2.8754    2.7069    0.4999 H   0  0  0  0  0  0  0  0  0  0  0  0
   -6.7656   -1.5173    0.4790 H   0  0  0  0  0  0  0  0  0  0  0  0
   -6.3460   -0.1520    1.4712 H   0  0  0  0  0  0  0  0  0  0  0  0
   -3.4825   -0.2754    2.9753 H   0  0  0  0  0  0  0  0  0  0  0  0
   -4.5422    0.9643    2.3975 H   0  0  0  0  0  0  0  0  0  0  0  0
   -2.8012    1.2189    2.3415 H   0  0  0  0  0  0  0  0  0  0  0  0
   -5.0372    3.3869    0.3428 H   0  0  0  0  0  0  0  0  0  0  0  0
   -5.7281    2.1341    1.3740 H   0  0  0  0  0  0  0  0  0  0  0  0
   -4.6879    3.0141   -2.0784 H   0  0  0  0  0  0  0  0  0  0  0  0
   -4.8496    1.4165   -2.8152 H   0  0  0  0  0  0  0  0  0  0  0  0
   -6.2799    2.3297   -2.3666 H   0  0  0  0  0  0  0  0  0  0  0  0
   -1.5209   -1.2703    2.6412 H   0  0  0  0  0  0  0  0  0  0  0  0
   -2.4890   -2.5630    1.9205 H   0  0  0  0  0  0  0  0  0  0  0  0
   -7.6876    0.9408   -1.6764 H   0  0  0  0  0  0  0  0  0  0  0  0
   -6.9243    3.5803   -0.6683 H   0  0  0  0  0  0  0  0  0  0  0  0
   -1.5019   -3.3971   -0.2054 H   0  0  0  0  0  0  0  0  0  0  0  0
    2.7029    1.8911   -0.2870 H   0  0  0  0  0  0  0  0  0  0  0  0
    1.0838   -4.5484    0.5246 H   0  0  0  0  0  0  0  0  0  0  0  0
   -0.0354   -5.0311   -0.7730 H   0  0  0  0  0  0  0  0  0  0  0  0
    1.7413   -2.5337   -0.8362 H   0  0  0  0  0  0  0  0  0  0  0  0
    2.0996   -4.0650   -1.6698 H   0  0  0  0  0  0  0  0  0  0  0  0
    5.3938   -1.6518   -0.1706 H   0  0  0  0  0  0  0  0  0  0  0  0
    4.3736    2.4815    0.6032 H   0  0  0  0  0  0  0  0  0  0  0  0
    1.6516   -1.3846   -2.9268 H   0  0  0  0  0  0  0  0  0  0  0  0
    0.5461   -2.0059   -4.1709 H   0  0  0  0  0  0  0  0  0  0  0  0
    2.0162   -2.9229   -3.7769 H   0  0  0  0  0  0  0  0  0  0  0  0
    7.7551   -1.0045   -0.4032 H   0  0  0  0  0  0  0  0  0  0  0  0
    6.6472    3.1182    0.3433 H   0  0  0  0  0  0  0  0  0  0  0  0
   10.0895    2.9335   -0.1729 H   0  0  0  0  0  0  0  0  0  0  0  0
    8.7798    3.1882    0.9753 H   0  0  0  0  0  0  0  0  0  0  0  0
    8.5282    3.4405   -0.8085 H   0  0  0  0  0  0  0  0  0  0  0  0
  1 23  1  0  0  0  0
  1 26  1  0  0  0  0
  2 16  1  0  0  0  0
  2 57  1  0  0  0  0
  3 21  1  0  0  0  0
  3 58  1  0  0  0  0
  4 25  2  0  0  0  0
  5 28  2  0  0  0  0
  6 29  1  0  0  0  0
  6 33  1  0  0  0  0
  7 36  1  0  0  0  0
  7 37  1  0  0  0  0
  8 20  1  0  0  0  0
  8 26  2  0  0  0  0
  9 25  1  0  0  0  0
  9 27  1  0  0  0  0
  9 59  1  0  0  0  0
 10 26  1  0  0  0  0
 10 28  1  0  0  0  0
 10 60  1  0  0  0  0
 11 12  1  0  0  0  0
 11 14  1  0  0  0  0
 11 15  1  0  0  0  0
 11 19  1  0  0  0  0
 12 13  1  0  0  0  0
 12 17  1  0  0  0  0
 12 38  1  0  0  0  0
 13 16  1  0  0  0  0
 13 21  1  0  0  0  0
 13 22  1  0  0  0  0
 14 20  1  0  0  0  0
 14 24  1  0  0  0  0
 14 39  1  0  0  0  0
 15 18  1  0  0  0  0
 15 40  1  0  0  0  0
 15 41  1  0  0  0  0
 16 18  1  0  0  0  0
 16 42  1  0  0  0  0
 17 23  1  0  0  0  0
 17 43  1  0  0  0  0
 17 44  1  0  0  0  0
 18 45  1  0  0  0  0
 18 46  1  0  0  0  0
 19 47  1  0  0  0  0
 19 48  1  0  0  0  0
 19 49  1  0  0  0  0
 20 23  2  0  0  0  0
 21 50  1  0  0  0  0
 21 51  1  0  0  0  0
 22 52  1  0  0  0  0
 22 53  1  0  0  0  0
 22 54  1  0  0  0  0
 24 25  1  0  0  0  0
 24 55  1  0  0  0  0
 24 56  1  0  0  0  0
 27 29  1  0  0  0  0
 27 61  1  0  0  0  0
 27 62  1  0  0  0  0
 28 30  1  0  0  0  0
 29 63  1  0  0  0  0
 29 64  1  0  0  0  0
 30 31  2  0  0  0  0
 30 32  1  0  0  0  0
 31 34  1  0  0  0  0
 31 65  1  0  0  0  0
 32 35  2  0  0  0  0
 32 66  1  0  0  0  0
 33 67  1  0  0  0  0
 33 68  1  0  0  0  0
 33 69  1  0  0  0  0
 34 36  2  0  0  0  0
 34 70  1  0  0  0  0
 35 36  1  0  0  0  0
 35 71  1  0  0  0  0
 37 72  1  0  0  0  0
 37 73  1  0  0  0  0
 37 74  1  0  0  0  0
M  END
> <PUBCHEM_COMPOUND_CID>
11882931

> <PUBCHEM_CONFORMER_RMSD>
1.2

> <PUBCHEM_CONFORMER_DIVERSEORDER>
1
7
10
9
6
14
8
16
5
11
12
2
13
15
4
3

> <PUBCHEM_MMFF94_PARTIAL_CHARGES>
38
1 -0.08
10 -0.49
14 0.18
16 0.28
17 0.18
2 -0.68
20 0.05
21 0.28
23 -0.14
24 0.06
25 0.57
26 0.44
27 0.3
28 0.54
29 0.28
3 -0.68
30 0.09
31 -0.15
32 -0.15
33 0.28
34 -0.15
35 -0.15
36 0.08
37 0.28
4 -0.57
5 -0.57
57 0.4
58 0.4
59 0.37
6 -0.56
60 0.37
65 0.15
66 0.15
7 -0.36
70 0.15
71 0.15
8 -0.57
9 -0.73

> <PUBCHEM_EFFECTIVE_ROTOR_COUNT>
12.2

> <PUBCHEM_PHARMACOPHORE_FEATURES>
14
1 10 donor
1 2 acceptor
1 2 donor
1 3 acceptor
1 3 donor
1 4 acceptor
1 5 acceptor
1 6 acceptor
1 7 acceptor
1 9 donor
5 1 8 20 23 26 rings
6 11 12 13 15 16 18 rings
6 11 12 14 17 20 23 rings
6 30 31 32 34 35 36 rings

> <PUBCHEM_HEAVY_ATOM_COUNT>
37

> <PUBCHEM_ATOM_DEF_STEREO_COUNT>
5

> <PUBCHEM_ATOM_UDEF_STEREO_COUNT>
0

> <PUBCHEM_BOND_DEF_STEREO_COUNT>
0

> <PUBCHEM_BOND_UDEF_STEREO_COUNT>
0

> <PUBCHEM_ISOTOPIC_ATOM_COUNT>
0

> <PUBCHEM_COMPONENT_COUNT>
1

> <PUBCHEM_CACTVS_TAUTO_COUNT>
6

> <PUBCHEM_CONFORMER_ID>
00B551B300000001

> <PUBCHEM_MMFF94_ENERGY>
125.4149

> <PUBCHEM_FEATURE_SELFOVERLAP>
71.196

> <PUBCHEM_SHAPE_FINGERPRINT>
10190206 1 18266723852625157191
10369192 42 18408037412079581565
10411042 1 17611194045683668547
10906281 52 18336561433838735065
11007060 377 18334580195378845481
11135609 187 18411417280637488729
11135926 11 18335133143007658933
11315181 36 18408886248416379905
11421498 54 16486978332354898211
11488393 25 17914905231573382438
11524674 6 17988645233357532326
11578080 2 16517633760947393863
11991303 11 18130220575264090582
12522641 33 18342737399151983359
12539765 74 18272093751656521204
12838862 33 18114728421931792040
13402501 40 18408042905136835938
13811026 1 18409167705590527670
14394314 77 18187646886034781289
14856354 85 14779269734587403321
15183329 4 17894625946378985777
15849732 13 18040152941839297732
18681886 176 18261386797371930345
23559900 14 18409724101450612681
249057 3 18187928421837139084
3383291 50 17895481443787425331
3411729 13 18337670793963618923
4017518 198 18201727275649175862
4073 2 17895198857236766560
4093350 32 17630606722498545407
44802255 64 18199758106190168814
504843 32 18272370927334584430
5085150 59 18408325509790191854
5265222 85 18339363097135772912
57527573 199 17968101893241877419
59755656 215 18340207397290281327
6669772 16 18412266108215515406

> <PUBCHEM_SHAPE_MULTIPOLES>
715.13
20.83
4.04
1.71
27.82
3.28
0.97
-20.24
1.21
0.4
1.03
-1.13
1.47
1.75

> <PUBCHEM_SHAPE_SELFOVERLAP>
1503.593

> <PUBCHEM_SHAPE_VOLUME>
406.5

> <PUBCHEM_COORDINATE_TYPE>
2
5
10

$$$$
