45783310
  -OEChem-12032416203D

 63 67  0     1  0  0  0  0  0999 V2000
   -3.6445    1.0431   -1.9049 O   0  0  0  0  0  0  0  0  0  0  0  0
    5.8546   -1.1201    1.6082 O   0  0  0  0  0  0  0  0  0  0  0  0
    1.1964   -3.4300    0.0344 O   0  0  0  0  0  0  0  0  0  0  0  0
   -0.1845   -4.5641   -1.3705 O   0  0  0  0  0  0  0  0  0  0  0  0
   -3.9923    0.8355    1.7476 N   0  0  1  0  0  0  0  0  0  0  0  0
    3.0971    0.9424   -0.2885 N   0  0  0  0  0  0  0  0  0  0  0  0
   -1.9668    1.1384   -0.4241 N   0  0  0  0  0  0  0  0  0  0  0  0
   -2.4632    0.9105   -2.6457 N   0  0  0  0  0  0  0  0  0  0  0  0
    2.6088    0.7032   -2.5928 N   0  0  0  0  0  0  0  0  0  0  0  0
    7.3962    0.5806    1.4478 N   0  0  0  0  0  0  0  0  0  0  0  0
   -4.3725    1.3324    0.4102 C   0  0  1  0  0  0  0  0  0  0  0  0
   -4.7640    2.8044    0.6365 C   0  0  0  0  0  0  0  0  0  0  0  0
   -4.6314    3.0250    2.1367 C   0  0  0  0  0  0  0  0  0  0  0  0
   -4.7508    1.6293    2.7146 C   0  0  0  0  0  0  0  0  0  0  0  0
    5.0807    1.1329    1.8230 C   0  0  0  0  0  0  0  0  0  0  0  0
   -4.2183   -0.5943    1.9147 C   0  0  0  0  0  0  0  0  0  0  0  0
    3.7046    0.5153    2.0620 C   0  0  0  0  0  0  0  0  0  0  0  0
    5.0552    2.1062    0.6462 C   0  0  0  0  0  0  0  0  0  0  0  0
    3.0598   -0.0460    0.7930 C   0  0  0  0  0  0  0  0  0  0  0  0
    4.4143    1.5075   -0.6056 C   0  0  0  0  0  0  0  0  0  0  0  0
   -3.2625    1.1726   -0.6074 C   0  0  0  0  0  0  0  0  0  0  0  0
   -3.1211   -1.4125    1.2871 C   0  0  0  0  0  0  0  0  0  0  0  0
    2.1618    0.8641   -1.3271 C   0  0  0  0  0  0  0  0  0  0  0  0
    6.1271    0.0779    1.6123 C   0  0  0  0  0  0  0  0  0  0  0  0
   -1.5186    0.9762   -1.7027 C   0  0  0  0  0  0  0  0  0  0  0  0
    0.8228    0.9593   -0.9836 C   0  0  0  0  0  0  0  0  0  0  0  0
   -0.1180    0.8847   -2.0049 C   0  0  0  0  0  0  0  0  0  0  0  0
   -3.4262   -2.3396    0.2906 C   0  0  0  0  0  0  0  0  0  0  0  0
   -1.8002   -1.2434    1.7019 C   0  0  0  0  0  0  0  0  0  0  0  0
    0.3030    0.7196   -3.3197 C   0  0  0  0  0  0  0  0  0  0  0  0
    1.6652    0.6350   -3.5587 C   0  0  0  0  0  0  0  0  0  0  0  0
   -2.4102   -3.0978   -0.2910 C   0  0  0  0  0  0  0  0  0  0  0  0
   -0.7842   -2.0016    1.1202 C   0  0  0  0  0  0  0  0  0  0  0  0
   -1.0891   -2.9286    0.1236 C   0  0  0  0  0  0  0  0  0  0  0  0
   -0.0292   -3.7183   -0.4833 C   0  0  0  0  0  0  0  0  0  0  0  0
   -5.2625    0.8058    0.0378 H   0  0  0  0  0  0  0  0  0  0  0  0
   -5.8070    2.9590    0.3342 H   0  0  0  0  0  0  0  0  0  0  0  0
   -4.1443    3.5175    0.0821 H   0  0  0  0  0  0  0  0  0  0  0  0
   -3.6463    3.4507    2.3650 H   0  0  0  0  0  0  0  0  0  0  0  0
   -5.3946    3.7065    2.5238 H   0  0  0  0  0  0  0  0  0  0  0  0
   -5.8040    1.3234    2.7557 H   0  0  0  0  0  0  0  0  0  0  0  0
   -4.3235    1.5727    3.7204 H   0  0  0  0  0  0  0  0  0  0  0  0
    5.3725    1.6819    2.7284 H   0  0  0  0  0  0  0  0  0  0  0  0
   -5.2075   -0.8956    1.5457 H   0  0  0  0  0  0  0  0  0  0  0  0
   -4.2132   -0.8501    2.9838 H   0  0  0  0  0  0  0  0  0  0  0  0
    3.7496   -0.2687    2.8275 H   0  0  0  0  0  0  0  0  0  0  0  0
    3.0453    1.2980    2.4613 H   0  0  0  0  0  0  0  0  0  0  0  0
    6.0481    2.4909    0.3914 H   0  0  0  0  0  0  0  0  0  0  0  0
    4.4626    2.9816    0.9463 H   0  0  0  0  0  0  0  0  0  0  0  0
    2.0333   -0.3346    1.0410 H   0  0  0  0  0  0  0  0  0  0  0  0
    3.5687   -0.9593    0.4640 H   0  0  0  0  0  0  0  0  0  0  0  0
    5.0590    0.7299   -1.0333 H   0  0  0  0  0  0  0  0  0  0  0  0
    4.3242    2.3083   -1.3507 H   0  0  0  0  0  0  0  0  0  0  0  0
    0.5232    1.1056    0.0500 H   0  0  0  0  0  0  0  0  0  0  0  0
   -4.4506   -2.4801   -0.0437 H   0  0  0  0  0  0  0  0  0  0  0  0
   -1.5480   -0.5292    2.4815 H   0  0  0  0  0  0  0  0  0  0  0  0
    8.1833   -0.0414    1.2958 H   0  0  0  0  0  0  0  0  0  0  0  0
    7.6119    1.5696    1.5163 H   0  0  0  0  0  0  0  0  0  0  0  0
   -0.3843    0.6545   -4.1566 H   0  0  0  0  0  0  0  0  0  0  0  0
    2.0457    0.5058   -4.5666 H   0  0  0  0  0  0  0  0  0  0  0  0
   -2.6683   -3.8140   -1.0667 H   0  0  0  0  0  0  0  0  0  0  0  0
    0.2284   -1.8441    1.4783 H   0  0  0  0  0  0  0  0  0  0  0  0
    1.9043   -3.9661   -0.3823 H   0  0  0  0  0  0  0  0  0  0  0  0
  1  8  1  0  0  0  0
  1 21  1  0  0  0  0
  2 24  2  0  0  0  0
  3 35  1  0  0  0  0
  3 63  1  0  0  0  0
  4 35  2  0  0  0  0
  5 11  1  0  0  0  0
  5 14  1  0  0  0  0
  5 16  1  0  0  0  0
  6 19  1  0  0  0  0
  6 20  1  0  0  0  0
  6 23  1  0  0  0  0
  7 21  2  0  0  0  0
  7 25  1  0  0  0  0
  8 25  2  0  0  0  0
  9 23  2  0  0  0  0
  9 31  1  0  0  0  0
 10 24  1  0  0  0  0
 10 57  1  0  0  0  0
 10 58  1  0  0  0  0
 11 12  1  0  0  0  0
 11 21  1  0  0  0  0
 11 36  1  0  0  0  0
 12 13  1  0  0  0  0
 12 37  1  0  0  0  0
 12 38  1  0  0  0  0
 13 14  1  0  0  0  0
 13 39  1  0  0  0  0
 13 40  1  0  0  0  0
 14 41  1  0  0  0  0
 14 42  1  0  0  0  0
 15 17  1  0  0  0  0
 15 18  1  0  0  0  0
 15 24  1  0  0  0  0
 15 43  1  0  0  0  0
 16 22  1  0  0  0  0
 16 44  1  0  0  0  0
 16 45  1  0  0  0  0
 17 19  1  0  0  0  0
 17 46  1  0  0  0  0
 17 47  1  0  0  0  0
 18 20  1  0  0  0  0
 18 48  1  0  0  0  0
 18 49  1  0  0  0  0
 19 50  1  0  0  0  0
 19 51  1  0  0  0  0
 20 52  1  0  0  0  0
 20 53  1  0  0  0  0
 22 28  2  0  0  0  0
 22 29  1  0  0  0  0
 23 26  1  0  0  0  0
 25 27  1  0  0  0  0
 26 27  2  0  0  0  0
 26 54  1  0  0  0  0
 27 30  1  0  0  0  0
 28 32  1  0  0  0  0
 28 55  1  0  0  0  0
 29 33  2  0  0  0  0
 29 56  1  0  0  0  0
 30 31  2  0  0  0  0
 30 59  1  0  0  0  0
 31 60  1  0  0  0  0
 32 34  2  0  0  0  0
 32 61  1  0  0  0  0
 33 34  1  0  0  0  0
 33 62  1  0  0  0  0
 34 35  1  0  0  0  0
M  END
> <PUBCHEM_COMPOUND_CID>
45783310

> <PUBCHEM_CONFORMER_RMSD>
1

> <PUBCHEM_CONFORMER_DIVERSEORDER>
1
79
49
15
42
63
76
84
74
16
83
59
6
43
69
35
75
73
20
4
55
22
10
33
30
11
64
61
47
85
17
5
78
32
18
72
39
56
29
58
71
45
53
24
68
60
12
26
27
37
62
40
86
52
31
80
87
36
66
57
70
82
8
2
41
14
67
21
7
3
19
81
46
77
28
34
38
54
25
51
65
9
48
50
23
13
44

> <PUBCHEM_MMFF94_PARTIAL_CHARGES>
41
1 -0.02
10 -0.8
11 0.45
14 0.27
15 0.06
16 0.41
19 0.37
2 -0.57
20 0.37
21 0.3
22 -0.14
23 0.41
24 0.57
25 0.46
26 -0.15
27 0.05
28 -0.15
29 -0.15
3 -0.65
30 -0.15
31 0.16
32 -0.15
33 -0.15
34 0.09
35 0.63
4 -0.57
5 -0.81
54 0.15
55 0.15
56 0.15
57 0.37
58 0.37
59 0.15
6 -0.84
60 0.15
61 0.15
62 0.15
63 0.5
7 -0.57
8 -0.41
9 -0.62

> <PUBCHEM_EFFECTIVE_ROTOR_COUNT>
9.2

> <PUBCHEM_PHARMACOPHORE_FEATURES>
13
1 10 donor
1 2 acceptor
1 3 acceptor
1 4 acceptor
1 5 cation
3 3 4 35 anion
3 6 9 23 cation
3 7 8 25 cation
5 1 7 8 21 25 rings
5 5 11 12 13 14 rings
6 22 28 29 32 33 34 rings
6 6 15 17 18 19 20 rings
6 9 23 26 27 30 31 rings

> <PUBCHEM_HEAVY_ATOM_COUNT>
35

> <PUBCHEM_ATOM_DEF_STEREO_COUNT>
1

> <PUBCHEM_ATOM_UDEF_STEREO_COUNT>
0

> <PUBCHEM_BOND_DEF_STEREO_COUNT>
0

> <PUBCHEM_BOND_UDEF_STEREO_COUNT>
0

> <PUBCHEM_ISOTOPIC_ATOM_COUNT>
0

> <PUBCHEM_COMPONENT_COUNT>
1

> <PUBCHEM_CACTVS_TAUTO_COUNT>
2

> <PUBCHEM_CONFORMER_ID>
02BA990E00000001

> <PUBCHEM_MMFF94_ENERGY>
90.0778

> <PUBCHEM_FEATURE_SELFOVERLAP>
66.03

> <PUBCHEM_SHAPE_FINGERPRINT>
11552529 35 18052808436897377550
11582403 64 17489304136152208085
12422481 6 17895199861230426234
12633257 1 18197788901558351840
12788726 201 17833857210454278975
13642711 20 17775014448912087267
14068700 675 17982152715927171343
14468879 13 17131841949574868801
14950920 106 18340480188065165976
16110190 28 17458065962972637524
19438510 23 17346328033707218457
20554085 129 18340774733091556065
21033648 29 18130805454893165688
21133410 90 18051117392878447343
21796203 349 16806757030303201460
244849 19 17631755810316888150
4112364 45 17699579035375173521
513202 73 17168971302357812778
5171179 24 17615687333093794133
5265222 85 17615179620145088230
581034 39 18337393859042016938
5951187 136 16840809850413322289
7064713 232 18335427867320005353
9981440 41 16845287254507328285

> <PUBCHEM_SHAPE_MULTIPOLES>
666.92
12.85
3.96
3.3
16
4.78
2.03
-8.21
-11.48
-3.77
-0.14
0.46
-1.55
-1.01

> <PUBCHEM_SHAPE_SELFOVERLAP>
1451.741

> <PUBCHEM_SHAPE_VOLUME>
361.3

> <PUBCHEM_COORDINATE_TYPE>
2
5
10

$$$$
