11886074
  -OEChem-12032416373D

 61 66  0     1  0  0  0  0  0999 V2000
    1.7616    0.3489   -1.2661 O   0  0  0  0  0  0  0  0  0  0  0  0
   -0.3657   -1.6211   -0.1942 O   0  0  0  0  0  0  0  0  0  0  0  0
    3.2126   -1.7741   -0.2381 O   0  0  0  0  0  0  0  0  0  0  0  0
    4.1071   -0.2220    1.1834 O   0  0  0  0  0  0  0  0  0  0  0  0
   -0.9672    1.9848   -0.4264 N   0  0  0  0  0  0  0  0  0  0  0  0
   -0.0659    2.9687   -0.3403 N   0  0  0  0  0  0  0  0  0  0  0  0
   -2.0537    3.6681    0.3875 N   0  0  0  0  0  0  0  0  0  0  0  0
   -0.7373    3.9992    0.1592 N   0  0  0  0  0  0  0  0  0  0  0  0
    5.4378   -1.4162   -0.3276 N   0  0  0  0  0  0  0  0  0  0  0  0
   -0.0568   -0.2502    0.1411 C   0  0  1  0  0  0  0  0  0  0  0  0
    1.4502   -0.1084    0.0592 C   0  0  1  0  0  0  0  0  0  0  0  0
   -0.5848    0.6687   -0.9434 C   0  0  2  0  0  0  0  0  0  0  0  0
    1.9302   -1.5217    0.2893 C   0  0  1  0  0  0  0  0  0  0  0  0
    0.5495    0.6715   -1.9631 C   0  0  0  0  0  0  0  0  0  0  0  0
    0.8604   -2.3361   -0.4000 C   0  0  0  0  0  0  0  0  0  0  0  0
   -2.1730    2.4141    0.0164 C   0  0  0  0  0  0  0  0  0  0  0  0
    4.2597   -1.0504    0.2941 C   0  0  0  0  0  0  0  0  0  0  0  0
   -3.3654    1.6071    0.0609 C   0  0  0  0  0  0  0  0  0  0  0  0
   -3.6603    0.8570    1.2006 C   0  0  0  0  0  0  0  0  0  0  0  0
   -4.2282    1.5730   -1.0359 C   0  0  0  0  0  0  0  0  0  0  0  0
   -4.8149    0.0753    1.2434 C   0  0  0  0  0  0  0  0  0  0  0  0
   -5.3828    0.7915   -0.9930 C   0  0  0  0  0  0  0  0  0  0  0  0
   -5.6760    0.0426    0.1466 C   0  0  0  0  0  0  0  0  0  0  0  0
    6.7397   -0.9219   -0.0854 C   0  0  0  0  0  0  0  0  0  0  0  0
   -6.8732   -0.7685    0.1908 C   0  0  0  0  0  0  0  0  0  0  0  0
    6.9276    0.0519    0.8825 C   0  0  0  0  0  0  0  0  0  0  0  0
    7.8031   -1.4207   -0.8210 C   0  0  0  0  0  0  0  0  0  0  0  0
    8.2125    0.5396    1.1212 C   0  0  0  0  0  0  0  0  0  0  0  0
    9.0880   -0.9332   -0.5822 C   0  0  0  0  0  0  0  0  0  0  0  0
   -8.0666   -0.2252    0.6669 C   0  0  0  0  0  0  0  0  0  0  0  0
   -6.8346   -2.0938   -0.2431 C   0  0  0  0  0  0  0  0  0  0  0  0
    9.2927    0.0469    0.3889 C   0  0  0  0  0  0  0  0  0  0  0  0
   -9.2211   -1.0071    0.7093 C   0  0  0  0  0  0  0  0  0  0  0  0
   -7.9891   -2.8754   -0.2008 C   0  0  0  0  0  0  0  0  0  0  0  0
   10.6663    0.5688    0.6438 C   0  0  0  0  0  0  0  0  0  0  0  0
   -9.1823   -2.3320    0.2755 C   0  0  0  0  0  0  0  0  0  0  0  0
   -0.4544   -0.0600    1.1430 H   0  0  0  0  0  0  0  0  0  0  0  0
    1.8397    0.6299    0.7650 H   0  0  0  0  0  0  0  0  0  0  0  0
   -1.4826    0.2669   -1.4272 H   0  0  0  0  0  0  0  0  0  0  0  0
    1.9108   -1.7560    1.3622 H   0  0  0  0  0  0  0  0  0  0  0  0
    0.3942   -0.1176   -2.7075 H   0  0  0  0  0  0  0  0  0  0  0  0
    0.6757    1.6159   -2.5007 H   0  0  0  0  0  0  0  0  0  0  0  0
    0.7722   -3.3446    0.0150 H   0  0  0  0  0  0  0  0  0  0  0  0
    1.0391   -2.4332   -1.4768 H   0  0  0  0  0  0  0  0  0  0  0  0
    5.3616   -2.1289   -1.0493 H   0  0  0  0  0  0  0  0  0  0  0  0
   -2.9989    0.8714    2.0637 H   0  0  0  0  0  0  0  0  0  0  0  0
   -4.0133    2.1507   -1.9318 H   0  0  0  0  0  0  0  0  0  0  0  0
   -5.0284   -0.5028    2.1395 H   0  0  0  0  0  0  0  0  0  0  0  0
   -6.0432    0.7770   -1.8569 H   0  0  0  0  0  0  0  0  0  0  0  0
    6.1424    0.4813    1.4876 H   0  0  0  0  0  0  0  0  0  0  0  0
    7.6546   -2.1837   -1.5801 H   0  0  0  0  0  0  0  0  0  0  0  0
    8.3603    1.3048    1.8789 H   0  0  0  0  0  0  0  0  0  0  0  0
    9.9212   -1.3234   -1.1606 H   0  0  0  0  0  0  0  0  0  0  0  0
   -8.1145    0.8060    1.0089 H   0  0  0  0  0  0  0  0  0  0  0  0
   -5.9128   -2.5331   -0.6173 H   0  0  0  0  0  0  0  0  0  0  0  0
  -10.1501   -0.5841    1.0801 H   0  0  0  0  0  0  0  0  0  0  0  0
   -7.9592   -3.9072   -0.5385 H   0  0  0  0  0  0  0  0  0  0  0  0
   10.7870    0.8685    1.6904 H   0  0  0  0  0  0  0  0  0  0  0  0
   11.4239   -0.1958    0.4406 H   0  0  0  0  0  0  0  0  0  0  0  0
   10.8632    1.4358    0.0055 H   0  0  0  0  0  0  0  0  0  0  0  0
  -10.0812   -2.9408    0.3085 H   0  0  0  0  0  0  0  0  0  0  0  0
  1 11  1  0  0  0  0
  1 14  1  0  0  0  0
  2 10  1  0  0  0  0
  2 15  1  0  0  0  0
  3 13  1  0  0  0  0
  3 17  1  0  0  0  0
  4 17  2  0  0  0  0
  5  6  1  0  0  0  0
  5 12  1  0  0  0  0
  5 16  1  0  0  0  0
  6  8  2  0  0  0  0
  7  8  1  0  0  0  0
  7 16  2  0  0  0  0
  9 17  1  0  0  0  0
  9 24  1  0  0  0  0
  9 45  1  0  0  0  0
 10 11  1  0  0  0  0
 10 12  1  0  0  0  0
 10 37  1  0  0  0  0
 11 13  1  0  0  0  0
 11 38  1  0  0  0  0
 12 14  1  0  0  0  0
 12 39  1  0  0  0  0
 13 15  1  0  0  0  0
 13 40  1  0  0  0  0
 14 41  1  0  0  0  0
 14 42  1  0  0  0  0
 15 43  1  0  0  0  0
 15 44  1  0  0  0  0
 16 18  1  0  0  0  0
 18 19  2  0  0  0  0
 18 20  1  0  0  0  0
 19 21  1  0  0  0  0
 19 46  1  0  0  0  0
 20 22  2  0  0  0  0
 20 47  1  0  0  0  0
 21 23  2  0  0  0  0
 21 48  1  0  0  0  0
 22 23  1  0  0  0  0
 22 49  1  0  0  0  0
 23 25  1  0  0  0  0
 24 26  2  0  0  0  0
 24 27  1  0  0  0  0
 25 30  2  0  0  0  0
 25 31  1  0  0  0  0
 26 28  1  0  0  0  0
 26 50  1  0  0  0  0
 27 29  2  0  0  0  0
 27 51  1  0  0  0  0
 28 32  2  0  0  0  0
 28 52  1  0  0  0  0
 29 32  1  0  0  0  0
 29 53  1  0  0  0  0
 30 33  1  0  0  0  0
 30 54  1  0  0  0  0
 31 34  2  0  0  0  0
 31 55  1  0  0  0  0
 32 35  1  0  0  0  0
 33 36  2  0  0  0  0
 33 56  1  0  0  0  0
 34 36  1  0  0  0  0
 34 57  1  0  0  0  0
 35 58  1  0  0  0  0
 35 59  1  0  0  0  0
 35 60  1  0  0  0  0
 36 61  1  0  0  0  0
M  END
> <PUBCHEM_COMPOUND_CID>
11886074

> <PUBCHEM_CONFORMER_RMSD>
1

> <PUBCHEM_CONFORMER_DIVERSEORDER>
1
21
35
16
37
26
7
56
59
11
14
58
3
32
68
28
70
50
29
31
49
19
62
24
9
64
23
61
73
13
6
5
8
15
71
2
67
10
52
46
34
40
65
43
51
48
22
41
63
39
12
30
57
55
42
4
27
60
72
44
69
18
25
54
45
36
47
38
20
17
33
53
66

> <PUBCHEM_MMFF94_PARTIAL_CHARGES>
47
1 -0.56
10 0.28
11 0.28
12 0.26
13 0.28
14 0.28
15 0.28
16 0.13
17 0.78
18 0.05
19 -0.15
2 -0.56
20 -0.15
21 -0.15
22 -0.15
24 0.12
26 -0.15
27 -0.15
28 -0.15
29 -0.15
3 -0.43
30 -0.15
31 -0.15
32 -0.14
33 -0.15
34 -0.15
35 0.14
36 -0.15
4 -0.57
45 0.37
46 0.15
47 0.15
48 0.15
49 0.15
5 0.31
50 0.15
51 0.15
52 0.15
53 0.15
54 0.15
55 0.15
56 0.15
57 0.15
6 -0.42
61 0.15
7 -0.34
9 -0.55

> <PUBCHEM_EFFECTIVE_ROTOR_COUNT>
8.2

> <PUBCHEM_PHARMACOPHORE_FEATURES>
11
1 1 acceptor
1 2 acceptor
1 4 acceptor
1 9 donor
3 5 7 16 cation
5 1 10 11 12 14 rings
5 2 10 11 13 15 rings
5 5 6 7 8 16 rings
6 18 19 20 21 22 23 rings
6 24 26 27 28 29 32 rings
6 25 30 31 33 34 36 rings

> <PUBCHEM_HEAVY_ATOM_COUNT>
36

> <PUBCHEM_ATOM_DEF_STEREO_COUNT>
4

> <PUBCHEM_ATOM_UDEF_STEREO_COUNT>
0

> <PUBCHEM_BOND_DEF_STEREO_COUNT>
0

> <PUBCHEM_BOND_UDEF_STEREO_COUNT>
0

> <PUBCHEM_ISOTOPIC_ATOM_COUNT>
0

> <PUBCHEM_COMPONENT_COUNT>
1

> <PUBCHEM_CACTVS_TAUTO_COUNT>
2

> <PUBCHEM_CONFORMER_ID>
00B55DFA00000001

> <PUBCHEM_MMFF94_ENERGY>
111.2974

> <PUBCHEM_FEATURE_SELFOVERLAP>
56.525

> <PUBCHEM_SHAPE_FINGERPRINT>
10 15 18334573526323100586
10076449 9 18410013242837632867
10162869 55 16950002543926386350
10165383 225 9871751278755369057
10258705 36 17916598531199516750
10369192 42 16774074042988208484
106641 1 18408040715231119994
10674148 151 9079115549045851670
11135609 99 18336549429948637335
11146851 88 17894635872343669691
11211813 128 18412829071079939246
11408170 132 10087628335471471322
11409948 8 18340763849337784640
11410812 94 16370994180120808031
11497681 19 18188771635306918606
11621639 148 18339919433008656256
11621639 179 10663553555995450403
12098696 120 9727641618149656579
12107183 9 18269851839986458705
12144600 37 18200036110785721262
12522641 126 18042412498512269100
13631057 29 18261112937661878825
13740195 50 18335980948414559450
13782708 43 18053672382539130342
13811026 1 18260270775757343657
14068700 675 18334299769123650101
14150022 121 17703233914762374353
14394314 77 18337957784337753449
14918687 75 17632289125613372879
15183329 4 9079112254826924172
15274700 256 18335979844570988874
15347591 1 18121216476854358650
15444296 7 18341613750003248022
15728490 51 18412543219278242503
16067689 302 18342459279083164540
16664035 7 18040154015771799556
16992752 21 18411143511169814421
17686467 74 18342172267318602937
18335252 98 18342739598803226206
18603816 31 13623540082074225152
18608769 82 18343016692913113010
19611394 137 18410295838964370906
20105231 36 18272654524573375494
20771845 171 17751647778007435557
21033648 29 18058994178643225706
21130935 74 18266177219843174074
21133410 52 18057311993517800879
21365058 27 16845568699720189086
21792965 184 18200614522452518809
21795232 338 17560792281936015311
23729398 52 18191876840764710997
23729417 116 18334010584728564669
249057 3 9799684900834561746
25019877 29 18059857238676891470
2747138 104 18342172258728551560
3383291 50 18408042910149410090
3986486 107 16515950533838014031
4149490 64 17386583486851987305
4461854 278 17988647423928867823
474113 269 14562801141745082352
5381727 24 18334570219467931698
54039377 194 18335140912809420711
57303763 176 11386904680671263247
58260988 521 17561085791231195718
59682541 35 18273493481112905418
6673363 416 18343023273167657012
6691757 9 16298396738436998377
9663363 56 18410009936831049231

> <PUBCHEM_SHAPE_MULTIPOLES>
692.48
33.34
3.09
1.12
33.33
2.14
-0.15
-18.61
7.02
-4.51
-0.2
0.2
0.19
0.98

> <PUBCHEM_SHAPE_SELFOVERLAP>
1535.478

> <PUBCHEM_SHAPE_VOLUME>
372.5

> <PUBCHEM_COORDINATE_TYPE>
2
5
10

$$$$
