9424630
  -OEChem-12032416333D

 64 68  0     1  0  0  0  0  0999 V2000
    1.6666    3.8847   -2.6389 O   0  0  0  0  0  0  0  0  0  0  0  0
    5.4907   -3.9926   -1.5817 O   0  0  0  0  0  0  0  0  0  0  0  0
   -2.9848    0.1998   -1.5050 O   0  0  0  0  0  0  0  0  0  0  0  0
    2.3313    0.5569    1.0577 N   0  0  2  0  0  0  0  0  0  0  0  0
    1.0500    2.9910   -0.5637 N   0  0  0  0  0  0  0  0  0  0  0  0
    3.9717   -3.1862   -0.0195 N   0  0  0  0  0  0  0  0  0  0  0  0
   -2.1150    1.3530    0.3081 N   0  0  0  0  0  0  0  0  0  0  0  0
   -3.9100   -0.0306    0.6396 N   0  0  0  0  0  0  0  0  0  0  0  0
    2.6280    3.0145    1.4564 C   0  0  1  0  0  0  0  0  0  0  0  0
    0.4013    2.0204    1.6633 C   0  0  2  0  0  0  0  0  0  0  0  0
    1.3433    3.0600    2.2662 C   0  0  0  0  0  0  0  0  0  0  0  0
    3.2502    1.6039    1.5211 C   0  0  0  0  0  0  0  0  0  0  0  0
    1.0457    0.6192    1.7689 C   0  0  0  0  0  0  0  0  0  0  0  0
    2.9368   -0.7663    1.1867 C   0  0  0  0  0  0  0  0  0  0  0  0
    2.3130    3.4576    0.0248 C   0  0  0  0  0  0  0  0  0  0  0  0
    0.0680    2.3440    0.2082 C   0  0  0  0  0  0  0  0  0  0  0  0
    4.2979   -0.7938    0.4795 C   0  0  0  0  0  0  0  0  0  0  0  0
    2.0042   -1.8317    0.5959 C   0  0  0  0  0  0  0  0  0  0  0  0
    4.9051   -2.1951    0.5201 C   0  0  0  0  0  0  0  0  0  0  0  0
    2.6573   -3.2133    0.6342 C   0  0  0  0  0  0  0  0  0  0  0  0
   -1.1136    2.0076   -0.3568 C   0  0  0  0  0  0  0  0  0  0  0  0
    0.8507    3.3072   -1.9199 C   0  0  0  0  0  0  0  0  0  0  0  0
   -1.3689    2.3124   -1.7441 C   0  0  0  0  0  0  0  0  0  0  0  0
   -0.4555    2.9171   -2.5058 C   0  0  0  0  0  0  0  0  0  0  0  0
    4.3791   -4.0352   -1.0479 C   0  0  0  0  0  0  0  0  0  0  0  0
    3.3755   -5.0580   -1.5173 C   0  0  0  0  0  0  0  0  0  0  0  0
   -3.0105    0.4721   -0.3069 C   0  0  0  0  0  0  0  0  0  0  0  0
   -4.9687   -0.9452    0.4318 C   0  0  0  0  0  0  0  0  0  0  0  0
   -5.7567   -1.3258    1.5059 C   0  0  0  0  0  0  0  0  0  0  0  0
   -5.1968   -1.4413   -0.8415 C   0  0  0  0  0  0  0  0  0  0  0  0
   -6.8012   -2.2274    1.3012 C   0  0  0  0  0  0  0  0  0  0  0  0
   -6.2413   -2.3430   -1.0461 C   0  0  0  0  0  0  0  0  0  0  0  0
   -7.0435   -2.7359    0.0253 C   0  0  0  0  0  0  0  0  0  0  0  0
    3.3552    3.7169    1.8829 H   0  0  0  0  0  0  0  0  0  0  0  0
   -0.5040    2.0341    2.2802 H   0  0  0  0  0  0  0  0  0  0  0  0
    1.5456    2.8296    3.3195 H   0  0  0  0  0  0  0  0  0  0  0  0
    0.8952    4.0611    2.2360 H   0  0  0  0  0  0  0  0  0  0  0  0
    4.1451    1.6589    0.8939 H   0  0  0  0  0  0  0  0  0  0  0  0
    3.5751    1.4056    2.5514 H   0  0  0  0  0  0  0  0  0  0  0  0
    0.3182   -0.0832    1.3520 H   0  0  0  0  0  0  0  0  0  0  0  0
    1.1769    0.3624    2.8289 H   0  0  0  0  0  0  0  0  0  0  0  0
    3.1007   -1.0008    2.2487 H   0  0  0  0  0  0  0  0  0  0  0  0
    2.2589    4.5550    0.0042 H   0  0  0  0  0  0  0  0  0  0  0  0
    3.1340    3.1865   -0.6509 H   0  0  0  0  0  0  0  0  0  0  0  0
    4.1913   -0.4759   -0.5661 H   0  0  0  0  0  0  0  0  0  0  0  0
    5.0310   -0.1384    0.9602 H   0  0  0  0  0  0  0  0  0  0  0  0
    1.0682   -1.9226    1.1549 H   0  0  0  0  0  0  0  0  0  0  0  0
    1.7509   -1.5801   -0.4425 H   0  0  0  0  0  0  0  0  0  0  0  0
    5.8485   -2.2053   -0.0351 H   0  0  0  0  0  0  0  0  0  0  0  0
    5.1304   -2.4871    1.5528 H   0  0  0  0  0  0  0  0  0  0  0  0
    2.8187   -3.5318    1.6711 H   0  0  0  0  0  0  0  0  0  0  0  0
    1.9873   -3.9416    0.1739 H   0  0  0  0  0  0  0  0  0  0  0  0
   -2.3466    2.1846   -2.1922 H   0  0  0  0  0  0  0  0  0  0  0  0
   -0.6603    3.1917   -3.5339 H   0  0  0  0  0  0  0  0  0  0  0  0
   -2.0753    1.3133    1.3207 H   0  0  0  0  0  0  0  0  0  0  0  0
    2.4958   -4.5598   -1.9333 H   0  0  0  0  0  0  0  0  0  0  0  0
    3.0907   -5.7163   -0.6924 H   0  0  0  0  0  0  0  0  0  0  0  0
    3.8234   -5.6730   -2.3040 H   0  0  0  0  0  0  0  0  0  0  0  0
   -3.7978    0.2992    1.5951 H   0  0  0  0  0  0  0  0  0  0  0  0
   -5.5767   -0.9357    2.5038 H   0  0  0  0  0  0  0  0  0  0  0  0
   -4.6223   -1.1867   -1.7196 H   0  0  0  0  0  0  0  0  0  0  0  0
   -7.4259   -2.5334    2.1353 H   0  0  0  0  0  0  0  0  0  0  0  0
   -6.4313   -2.7399   -2.0393 H   0  0  0  0  0  0  0  0  0  0  0  0
   -7.8567   -3.4378   -0.1341 H   0  0  0  0  0  0  0  0  0  0  0  0
  1 22  2  0  0  0  0
  2 25  2  0  0  0  0
  3 27  2  0  0  0  0
  4 12  1  0  0  0  0
  4 13  1  0  0  0  0
  4 14  1  0  0  0  0
  5 15  1  0  0  0  0
  5 16  1  0  0  0  0
  5 22  1  0  0  0  0
  6 19  1  0  0  0  0
  6 20  1  0  0  0  0
  6 25  1  0  0  0  0
  7 21  1  0  0  0  0
  7 27  1  0  0  0  0
  7 55  1  0  0  0  0
  8 27  1  0  0  0  0
  8 28  1  0  0  0  0
  8 59  1  0  0  0  0
  9 11  1  0  0  0  0
  9 12  1  0  0  0  0
  9 15  1  0  0  0  0
  9 34  1  0  0  0  0
 10 11  1  0  0  0  0
 10 13  1  0  0  0  0
 10 16  1  0  0  0  0
 10 35  1  0  0  0  0
 11 36  1  0  0  0  0
 11 37  1  0  0  0  0
 12 38  1  0  0  0  0
 12 39  1  0  0  0  0
 13 40  1  0  0  0  0
 13 41  1  0  0  0  0
 14 17  1  0  0  0  0
 14 18  1  0  0  0  0
 14 42  1  0  0  0  0
 15 43  1  0  0  0  0
 15 44  1  0  0  0  0
 16 21  2  0  0  0  0
 17 19  1  0  0  0  0
 17 45  1  0  0  0  0
 17 46  1  0  0  0  0
 18 20  1  0  0  0  0
 18 47  1  0  0  0  0
 18 48  1  0  0  0  0
 19 49  1  0  0  0  0
 19 50  1  0  0  0  0
 20 51  1  0  0  0  0
 20 52  1  0  0  0  0
 21 23  1  0  0  0  0
 22 24  1  0  0  0  0
 23 24  2  0  0  0  0
 23 53  1  0  0  0  0
 24 54  1  0  0  0  0
 25 26  1  0  0  0  0
 26 56  1  0  0  0  0
 26 57  1  0  0  0  0
 26 58  1  0  0  0  0
 28 29  2  0  0  0  0
 28 30  1  0  0  0  0
 29 31  1  0  0  0  0
 29 60  1  0  0  0  0
 30 32  2  0  0  0  0
 30 61  1  0  0  0  0
 31 33  2  0  0  0  0
 31 62  1  0  0  0  0
 32 33  1  0  0  0  0
 32 63  1  0  0  0  0
 33 64  1  0  0  0  0
M  END
> <PUBCHEM_COMPOUND_CID>
9424630

> <PUBCHEM_CONFORMER_RMSD>
1

> <PUBCHEM_CONFORMER_DIVERSEORDER>
2
20
16
9
17
11
22
21
5
19
7
15
10
13
3
18
4
14
8
6
12
1

> <PUBCHEM_MMFF94_PARTIAL_CHARGES>
38
1 -0.57
10 0.14
12 0.27
13 0.27
14 0.27
15 0.3
16 -0.03
19 0.3
2 -0.57
20 0.3
21 0.11
22 0.62
23 -0.15
24 -0.14
25 0.57
26 0.06
27 0.69
28 0.12
29 -0.15
3 -0.57
30 -0.15
31 -0.15
32 -0.15
33 -0.15
4 -0.81
5 -0.47
53 0.15
54 0.15
55 0.37
59 0.37
6 -0.66
60 0.15
61 0.15
62 0.15
63 0.15
64 0.15
7 -0.54
8 -0.55

> <PUBCHEM_EFFECTIVE_ROTOR_COUNT>
8.2

> <PUBCHEM_PHARMACOPHORE_FEATURES>
11
1 1 acceptor
1 2 acceptor
1 3 acceptor
1 4 cation
1 7 donor
1 8 donor
6 28 29 30 31 32 33 rings
6 4 9 10 11 12 13 rings
6 5 16 21 22 23 24 rings
6 5 9 10 11 15 16 rings
6 6 14 17 18 19 20 rings

> <PUBCHEM_HEAVY_ATOM_COUNT>
33

> <PUBCHEM_ATOM_DEF_STEREO_COUNT>
2

> <PUBCHEM_ATOM_UDEF_STEREO_COUNT>
0

> <PUBCHEM_BOND_DEF_STEREO_COUNT>
0

> <PUBCHEM_BOND_UDEF_STEREO_COUNT>
0

> <PUBCHEM_ISOTOPIC_ATOM_COUNT>
0

> <PUBCHEM_COMPONENT_COUNT>
1

> <PUBCHEM_CACTVS_TAUTO_COUNT>
3

> <PUBCHEM_CONFORMER_ID>
008FCEF600000002

> <PUBCHEM_MMFF94_ENERGY>
96.042

> <PUBCHEM_FEATURE_SELFOVERLAP>
57.421

> <PUBCHEM_SHAPE_FINGERPRINT>
10319688 140 18340207487516191074
11093857 51 18117851125254107726
11181472 205 18115873061888645253
11399939 17 18197783417239251327
117089 54 18200320900681028062
12107183 9 17987247638483563465
12623949 98 18411698807132421690
13533116 47 18270397334538349427
14251764 30 18271529688916445838
14863182 85 18120367915575685433
14918310 93 17677320766605740132
15297060 5 17838338836554326584
15484559 13 17170675759480571660
15803439 3 17249242505510043516
18365409 1 17257651647622383100
19319366 153 17628626754795957905
1979834 28 18118394283924934601
20771845 140 18047750691472860040
20775530 9 18337107843836247859
21133410 38 17771048686522946311
21307412 95 18121209892906650405
21344244 181 18122640598343433364
21360442 43 17116362763214010110
21365058 27 17979918538269719248
21716022 299 18263105286970121204
21796203 349 16558455380881727890
22849339 104 17613150776347095140
23428019 142 16683439916431287606
23466295 7 17837495154827362882
23523787 8 17614593718129413332
239999 70 17314777710783615697
3737641 26 18341327820881550682
3886686 26 17984712117177702105
4017518 198 17903655308572628340
4394409 98 15522915215798560206
46194498 28 17677603327887176301
484985 159 17622729717310860904
49967989 163 17044862617229197438
57527585 103 17265824923310075990
6201320 221 17413838211526931823
86090 222 17968093170633253331
9831232 110 18114737244443880139
9980921 177 18200331922858398113

> <PUBCHEM_SHAPE_MULTIPOLES>
636.61
13.96
6.88
2.23
27.47
3.93
-0.73
21.03
1.58
-9.97
-3.59
-0.65
-1.77
2.78

> <PUBCHEM_SHAPE_SELFOVERLAP>
1374.759

> <PUBCHEM_SHAPE_VOLUME>
339.7

> <PUBCHEM_COORDINATE_TYPE>
2
5
10

$$$$
