11884024
  -OEChem-12032416373D

 64 68  0     1  0  0  0  0  0999 V2000
   -2.4707    1.8870    0.9922 O   0  0  0  0  0  0  0  0  0  0  0  0
   -3.4639    2.2677   -1.8840 O   0  0  0  0  0  0  0  0  0  0  0  0
   -0.1545    2.1153   -0.5209 O   0  0  0  0  0  0  0  0  0  0  0  0
   -7.0948    0.1452   -0.5924 O   0  0  0  0  0  0  0  0  0  0  0  0
    0.8598    0.0901   -0.8365 O   0  0  0  0  0  0  0  0  0  0  0  0
    6.9677   -0.2397    1.4293 O   0  0  0  0  0  0  0  0  0  0  0  0
   -5.1947    0.3717    0.7342 N   0  0  0  0  0  0  0  0  0  0  0  0
    1.9629    1.8669    0.2151 N   0  0  0  0  0  0  0  0  0  0  0  0
   -3.6292    1.1787   -0.9519 C   0  0  1  0  0  0  0  0  0  0  0  0
   -2.3319    1.0628   -0.1772 C   0  0  1  0  0  0  0  0  0  0  0  0
   -4.6483    1.5471    0.1010 C   0  0  2  0  0  0  0  0  0  0  0  0
   -1.3219    1.6307   -1.1452 C   0  0  1  0  0  0  0  0  0  0  0  0
   -3.8215    2.3667    1.0767 C   0  0  0  0  0  0  0  0  0  0  0  0
   -2.1083    2.7341   -1.8163 C   0  0  0  0  0  0  0  0  0  0  0  0
   -6.7023   -1.4504    1.1419 C   0  0  0  0  0  0  0  0  0  0  0  0
   -6.3764   -0.2302    0.3304 C   0  0  0  0  0  0  0  0  0  0  0  0
   -8.2156   -1.6391    1.2671 C   0  0  0  0  0  0  0  0  0  0  0  0
   -5.9995   -2.6763    0.5552 C   0  0  0  0  0  0  0  0  0  0  0  0
   -8.8663   -2.1922   -0.0003 C   0  0  0  0  0  0  0  0  0  0  0  0
   -6.6708   -3.2014   -0.7129 C   0  0  0  0  0  0  0  0  0  0  0  0
   -8.1601   -3.4470   -0.5006 C   0  0  0  0  0  0  0  0  0  0  0  0
    0.9061    1.2394   -0.4154 C   0  0  0  0  0  0  0  0  0  0  0  0
    3.2349    1.3322    0.5222 C   0  0  0  0  0  0  0  0  0  0  0  0
    4.1859    2.1220    1.1683 C   0  0  0  0  0  0  0  0  0  0  0  0
    3.5385    0.0145    0.1804 C   0  0  0  0  0  0  0  0  0  0  0  0
    5.4407    1.5940    1.4726 C   0  0  0  0  0  0  0  0  0  0  0  0
    4.7932   -0.5136    0.4845 C   0  0  0  0  0  0  0  0  0  0  0  0
    5.7442    0.2762    1.1305 C   0  0  0  0  0  0  0  0  0  0  0  0
    7.6150   -0.9713    0.4476 C   0  0  0  0  0  0  0  0  0  0  0  0
    7.6545   -0.4973   -0.8636 C   0  0  0  0  0  0  0  0  0  0  0  0
    8.2266   -2.1827    0.7699 C   0  0  0  0  0  0  0  0  0  0  0  0
    8.3056   -1.2348   -1.8526 C   0  0  0  0  0  0  0  0  0  0  0  0
    8.8779   -2.9201   -0.2189 C   0  0  0  0  0  0  0  0  0  0  0  0
    8.9172   -2.4461   -1.5302 C   0  0  0  0  0  0  0  0  0  0  0  0
   -3.8712    0.2807   -1.5293 H   0  0  0  0  0  0  0  0  0  0  0  0
   -2.0990    0.0477    0.1571 H   0  0  0  0  0  0  0  0  0  0  0  0
   -5.4743    2.1444   -0.3001 H   0  0  0  0  0  0  0  0  0  0  0  0
   -1.0924    0.8805   -1.9147 H   0  0  0  0  0  0  0  0  0  0  0  0
   -4.1660    2.3004    2.1132 H   0  0  0  0  0  0  0  0  0  0  0  0
   -3.8071    3.4228    0.7856 H   0  0  0  0  0  0  0  0  0  0  0  0
   -1.7438    2.9510   -2.8249 H   0  0  0  0  0  0  0  0  0  0  0  0
   -2.0838    3.6691   -1.2455 H   0  0  0  0  0  0  0  0  0  0  0  0
   -4.6462   -0.0652    1.4696 H   0  0  0  0  0  0  0  0  0  0  0  0
   -6.3142   -1.2868    2.1568 H   0  0  0  0  0  0  0  0  0  0  0  0
   -8.4116   -2.3405    2.0888 H   0  0  0  0  0  0  0  0  0  0  0  0
   -8.7015   -0.6948    1.5412 H   0  0  0  0  0  0  0  0  0  0  0  0
   -4.9466   -2.4577    0.3399 H   0  0  0  0  0  0  0  0  0  0  0  0
   -6.0047   -3.4758    1.3074 H   0  0  0  0  0  0  0  0  0  0  0  0
   -9.9151   -2.4314    0.2128 H   0  0  0  0  0  0  0  0  0  0  0  0
   -8.8854   -1.4397   -0.7948 H   0  0  0  0  0  0  0  0  0  0  0  0
   -6.5288   -2.4863   -1.5319 H   0  0  0  0  0  0  0  0  0  0  0  0
   -6.1862   -4.1345   -1.0222 H   0  0  0  0  0  0  0  0  0  0  0  0
   -8.2977   -4.2586    0.2245 H   0  0  0  0  0  0  0  0  0  0  0  0
   -8.6175   -3.7779   -1.4398 H   0  0  0  0  0  0  0  0  0  0  0  0
    1.8106    2.8331    0.4940 H   0  0  0  0  0  0  0  0  0  0  0  0
    3.9620    3.1503    1.4404 H   0  0  0  0  0  0  0  0  0  0  0  0
    2.8517   -0.6576   -0.3150 H   0  0  0  0  0  0  0  0  0  0  0  0
    6.1776    2.2138    1.9760 H   0  0  0  0  0  0  0  0  0  0  0  0
    4.9948   -1.5505    0.2281 H   0  0  0  0  0  0  0  0  0  0  0  0
    7.2055    0.4534   -1.1381 H   0  0  0  0  0  0  0  0  0  0  0  0
    8.1985   -2.5568    1.7896 H   0  0  0  0  0  0  0  0  0  0  0  0
    8.3407   -0.8635   -2.8726 H   0  0  0  0  0  0  0  0  0  0  0  0
    9.3543   -3.8633    0.0321 H   0  0  0  0  0  0  0  0  0  0  0  0
    9.4253   -3.0197   -2.2999 H   0  0  0  0  0  0  0  0  0  0  0  0
  1 10  1  0  0  0  0
  1 13  1  0  0  0  0
  2  9  1  0  0  0  0
  2 14  1  0  0  0  0
  3 12  1  0  0  0  0
  3 22  1  0  0  0  0
  4 16  2  0  0  0  0
  5 22  2  0  0  0  0
  6 28  1  0  0  0  0
  6 29  1  0  0  0  0
  7 11  1  0  0  0  0
  7 16  1  0  0  0  0
  7 43  1  0  0  0  0
  8 22  1  0  0  0  0
  8 23  1  0  0  0  0
  8 55  1  0  0  0  0
  9 10  1  0  0  0  0
  9 11  1  0  0  0  0
  9 35  1  0  0  0  0
 10 12  1  0  0  0  0
 10 36  1  0  0  0  0
 11 13  1  0  0  0  0
 11 37  1  0  0  0  0
 12 14  1  0  0  0  0
 12 38  1  0  0  0  0
 13 39  1  0  0  0  0
 13 40  1  0  0  0  0
 14 41  1  0  0  0  0
 14 42  1  0  0  0  0
 15 16  1  0  0  0  0
 15 17  1  0  0  0  0
 15 18  1  0  0  0  0
 15 44  1  0  0  0  0
 17 19  1  0  0  0  0
 17 45  1  0  0  0  0
 17 46  1  0  0  0  0
 18 20  1  0  0  0  0
 18 47  1  0  0  0  0
 18 48  1  0  0  0  0
 19 21  1  0  0  0  0
 19 49  1  0  0  0  0
 19 50  1  0  0  0  0
 20 21  1  0  0  0  0
 20 51  1  0  0  0  0
 20 52  1  0  0  0  0
 21 53  1  0  0  0  0
 21 54  1  0  0  0  0
 23 24  2  0  0  0  0
 23 25  1  0  0  0  0
 24 26  1  0  0  0  0
 24 56  1  0  0  0  0
 25 27  2  0  0  0  0
 25 57  1  0  0  0  0
 26 28  2  0  0  0  0
 26 58  1  0  0  0  0
 27 28  1  0  0  0  0
 27 59  1  0  0  0  0
 29 30  2  0  0  0  0
 29 31  1  0  0  0  0
 30 32  1  0  0  0  0
 30 60  1  0  0  0  0
 31 33  2  0  0  0  0
 31 61  1  0  0  0  0
 32 34  2  0  0  0  0
 32 62  1  0  0  0  0
 33 34  1  0  0  0  0
 33 63  1  0  0  0  0
 34 64  1  0  0  0  0
M  END
> <PUBCHEM_COMPOUND_CID>
11884024

> <PUBCHEM_CONFORMER_RMSD>
1.2

> <PUBCHEM_CONFORMER_DIVERSEORDER>
1
21
43
37
47
19
45
31
39
4
11
46
28
23
48
44
8
17
32
41
34
15
42
6
36
10
33
40
27
18
16
25
2
5
20
14
35
26
3
12
9
29
38
7
22
24
30
13

> <PUBCHEM_MMFF94_PARTIAL_CHARGES>
40
1 -0.56
10 0.28
11 0.3
12 0.28
13 0.28
14 0.28
15 0.06
16 0.57
2 -0.56
22 0.78
23 0.12
24 -0.15
25 -0.15
26 -0.15
27 -0.15
28 0.08
29 0.08
3 -0.43
30 -0.15
31 -0.15
32 -0.15
33 -0.15
34 -0.15
4 -0.57
43 0.37
5 -0.57
55 0.37
56 0.15
57 0.15
58 0.15
59 0.15
6 -0.17
60 0.15
61 0.15
62 0.15
63 0.15
64 0.15
7 -0.73
8 -0.55
9 0.28

> <PUBCHEM_EFFECTIVE_ROTOR_COUNT>
11.4

> <PUBCHEM_PHARMACOPHORE_FEATURES>
12
1 1 acceptor
1 2 acceptor
1 4 acceptor
1 5 acceptor
1 6 acceptor
1 7 donor
1 8 donor
5 1 9 10 11 13 rings
5 2 9 10 12 14 rings
6 15 17 18 19 20 21 rings
6 23 24 25 26 27 28 rings
6 29 30 31 32 33 34 rings

> <PUBCHEM_HEAVY_ATOM_COUNT>
34

> <PUBCHEM_ATOM_DEF_STEREO_COUNT>
4

> <PUBCHEM_ATOM_UDEF_STEREO_COUNT>
0

> <PUBCHEM_BOND_DEF_STEREO_COUNT>
0

> <PUBCHEM_BOND_UDEF_STEREO_COUNT>
0

> <PUBCHEM_ISOTOPIC_ATOM_COUNT>
0

> <PUBCHEM_COMPONENT_COUNT>
1

> <PUBCHEM_CACTVS_TAUTO_COUNT>
4

> <PUBCHEM_CONFORMER_ID>
00B555F800000001

> <PUBCHEM_MMFF94_ENERGY>
97.1482

> <PUBCHEM_FEATURE_SELFOVERLAP>
61.616

> <PUBCHEM_SHAPE_FINGERPRINT>
10029044 110 9151174250837565622
10258705 36 18342464703685577046
10280341 67 11455623045612127099
10533779 47 16558480703549768190
10625338 131 11383827177900794534
11146346 178 18262230132862964359
11456790 92 16343985806038779778
11475781 23 9943810010632959664
11607047 74 18117003393632870068
11621639 179 7925646462147976911
11621639 254 13190611712665719519
11672396 43 18413392046486237512
11761917 87 17561091255200041278
125118 31 10663807595422577058
12539745 222 18272374144887334449
12717326 120 18338528550414696518
13008946 119 10447930581773473357
13627175 4 18260820480601869090
13782708 43 18409160034784289904
14344974 204 18270398424849093791
15392192 29 17386019342987783257
15455200 90 17168684364910825967
15461852 350 17676489414948791525
16067689 68 18337689581126265611
16126227 98 10519714401689302715
16728433 281 11819536127266504647
16989713 51 18186515484685562261
16991971 28 17894917342777369636
16992779 147 16914800695088776696
16993089 31 18410571769291244358
16994733 274 9727631700743116212
1818759 1 18040442096470630971
19302320 297 12535343523663839330
19611394 137 18130788988394663537
20105231 36 18201443554646947774
2026 5 18408884005815860130
212700 22 18337100285395797387
21585481 151 18342179934182840128
21756936 100 11384111943539930725
21781051 124 18412269428752145262
23389318 12 17167868586509801430
23569943 247 17978511924144023994
23576562 1 15141542366294004687
255183 451 18113619014731547844
2747138 104 18272365356999020864
406291 66 18408884070551098923
4339292 15 17967526870615266218
44802255 64 12324247165919959609
4516262 110 10807672047750320529
45377200 153 18409172117102566530
4625314 4 18407476661176328389
4760202 70 18041850626864157724
5028188 123 18261961756634023668
504579 68 16008754615050912252
54076057 127 18201434823126439936
5937810 71 11602814675838613583
6201320 82 7925634465740115670
6289498 60 12967132713601656562
636775 8 18337114471819702510
6691757 9 15338824361948574861
9896288 288 18058735680855838457
9980921 177 11959463250008594028
999808 66 18201997724652981093

> <PUBCHEM_SHAPE_MULTIPOLES>
654.53
34.73
3.88
1.53
17.01
1.74
0.32
39.48
-0.82
-3.88
0.68
1.11
-0.38
2.74

> <PUBCHEM_SHAPE_SELFOVERLAP>
1413.85

> <PUBCHEM_SHAPE_VOLUME>
356.8

> <PUBCHEM_COORDINATE_TYPE>
2
5
10

$$$$
