11884096
  -OEChem-12032416373D

 61 64  0     1  0  0  0  0  0999 V2000
   -7.0846   -4.0893   -0.3438 F   0  0  0  0  0  0  0  0  0  0  0  0
   -9.1089   -3.3179   -0.2375 F   0  0  0  0  0  0  0  0  0  0  0  0
   -7.8656   -3.3498    1.5461 F   0  0  0  0  0  0  0  0  0  0  0  0
    0.6813    1.8937    1.4367 O   0  0  0  0  0  0  0  0  0  0  0  0
    0.0185    3.8418   -0.8369 O   0  0  0  0  0  0  0  0  0  0  0  0
    3.0535    2.1404    0.0160 O   0  0  0  0  0  0  0  0  0  0  0  0
   -4.1033    2.5201   -0.3801 O   0  0  0  0  0  0  0  0  0  0  0  0
    3.4588    0.3073   -1.2899 O   0  0  0  0  0  0  0  0  0  0  0  0
   -2.3424    1.5159    0.7320 N   0  0  0  0  0  0  0  0  0  0  0  0
   -4.2683    0.3099    0.3934 N   0  0  0  0  0  0  0  0  0  0  0  0
    4.9603    0.9895    0.3715 N   0  0  0  0  0  0  0  0  0  0  0  0
   -0.5104    2.5401   -0.5088 C   0  0  1  0  0  0  0  0  0  0  0  0
    0.6485    1.7134    0.0111 C   0  0  1  0  0  0  0  0  0  0  0  0
   -1.4428    2.6422    0.6756 C   0  0  2  0  0  0  0  0  0  0  0  0
    1.8367    2.3574   -0.6619 C   0  0  1  0  0  0  0  0  0  0  0  0
   -0.4765    2.6370    1.8476 C   0  0  0  0  0  0  0  0  0  0  0  0
    1.4441    3.8176   -0.6736 C   0  0  0  0  0  0  0  0  0  0  0  0
   -3.6330    1.5379    0.1887 C   0  0  0  0  0  0  0  0  0  0  0  0
    3.8082    1.0585   -0.3877 C   0  0  0  0  0  0  0  0  0  0  0  0
   -5.5722   -0.0694   -0.0024 C   0  0  0  0  0  0  0  0  0  0  0  0
    6.0029    0.0388    0.2866 C   0  0  0  0  0  0  0  0  0  0  0  0
    5.9355   -0.9886   -0.6544 C   0  0  0  0  0  0  0  0  0  0  0  0
    7.0994    0.1286    1.1443 C   0  0  0  0  0  0  0  0  0  0  0  0
   -6.0457   -1.3487    0.2887 C   0  0  0  0  0  0  0  0  0  0  0  0
   -6.3843    0.8362   -0.6852 C   0  0  0  0  0  0  0  0  0  0  0  0
    8.0611   -1.8368    0.1197 C   0  0  0  0  0  0  0  0  0  0  0  0
    9.1615   -2.8396    0.0316 C   0  0  0  0  0  0  0  0  0  0  0  0
    6.9647   -1.9263   -0.7379 C   0  0  0  0  0  0  0  0  0  0  0  0
    8.1285   -0.8093    1.0608 C   0  0  0  0  0  0  0  0  0  0  0  0
   -7.3313   -1.7223   -0.1030 C   0  0  0  0  0  0  0  0  0  0  0  0
   -7.6698    0.4624   -1.0768 C   0  0  0  0  0  0  0  0  0  0  0  0
    8.6813   -4.2698    0.3426 C   0  0  0  0  0  0  0  0  0  0  0  0
    9.8744   -2.8132   -1.3337 C   0  0  0  0  0  0  0  0  0  0  0  0
   -8.1433   -0.8168   -0.7858 C   0  0  0  0  0  0  0  0  0  0  0  0
   -7.8371   -3.0909    0.2064 C   0  0  0  0  0  0  0  0  0  0  0  0
   -0.9647    2.1280   -1.4155 H   0  0  0  0  0  0  0  0  0  0  0  0
    0.5582    0.6413   -0.1864 H   0  0  0  0  0  0  0  0  0  0  0  0
   -2.0339    3.5643    0.6710 H   0  0  0  0  0  0  0  0  0  0  0  0
    1.8871    2.0258   -1.7083 H   0  0  0  0  0  0  0  0  0  0  0  0
   -0.8885    2.1924    2.7588 H   0  0  0  0  0  0  0  0  0  0  0  0
   -0.1406    3.6532    2.0818 H   0  0  0  0  0  0  0  0  0  0  0  0
    1.9169    4.3693   -1.4918 H   0  0  0  0  0  0  0  0  0  0  0  0
    1.7018    4.3254    0.2626 H   0  0  0  0  0  0  0  0  0  0  0  0
   -2.0017    0.6445    1.1270 H   0  0  0  0  0  0  0  0  0  0  0  0
   -3.7362   -0.4027    0.8866 H   0  0  0  0  0  0  0  0  0  0  0  0
    5.0757    1.7100    1.0800 H   0  0  0  0  0  0  0  0  0  0  0  0
    5.1189   -1.1214   -1.3504 H   0  0  0  0  0  0  0  0  0  0  0  0
    7.1641    0.9243    1.8819 H   0  0  0  0  0  0  0  0  0  0  0  0
   -5.4151   -2.0578    0.8204 H   0  0  0  0  0  0  0  0  0  0  0  0
    9.9236   -2.5969    0.7848 H   0  0  0  0  0  0  0  0  0  0  0  0
   -6.0896    1.8426   -0.9467 H   0  0  0  0  0  0  0  0  0  0  0  0
    6.8927   -2.7188   -1.4778 H   0  0  0  0  0  0  0  0  0  0  0  0
    8.9754   -0.7249    1.7366 H   0  0  0  0  0  0  0  0  0  0  0  0
   -8.3029    1.1668   -1.6087 H   0  0  0  0  0  0  0  0  0  0  0  0
    7.9695   -4.6348   -0.4056 H   0  0  0  0  0  0  0  0  0  0  0  0
    8.1902   -4.3111    1.3212 H   0  0  0  0  0  0  0  0  0  0  0  0
    9.5290   -4.9634    0.3623 H   0  0  0  0  0  0  0  0  0  0  0  0
   10.2418   -1.8063   -1.5613 H   0  0  0  0  0  0  0  0  0  0  0  0
   10.7340   -3.4921   -1.3309 H   0  0  0  0  0  0  0  0  0  0  0  0
    9.2100   -3.1200   -2.1487 H   0  0  0  0  0  0  0  0  0  0  0  0
   -9.1473   -1.0893   -1.0995 H   0  0  0  0  0  0  0  0  0  0  0  0
  1 35  1  0  0  0  0
  2 35  1  0  0  0  0
  3 35  1  0  0  0  0
  4 13  1  0  0  0  0
  4 16  1  0  0  0  0
  5 12  1  0  0  0  0
  5 17  1  0  0  0  0
  6 15  1  0  0  0  0
  6 19  1  0  0  0  0
  7 18  2  0  0  0  0
  8 19  2  0  0  0  0
  9 14  1  0  0  0  0
  9 18  1  0  0  0  0
  9 44  1  0  0  0  0
 10 18  1  0  0  0  0
 10 20  1  0  0  0  0
 10 45  1  0  0  0  0
 11 19  1  0  0  0  0
 11 21  1  0  0  0  0
 11 46  1  0  0  0  0
 12 13  1  0  0  0  0
 12 14  1  0  0  0  0
 12 36  1  0  0  0  0
 13 15  1  0  0  0  0
 13 37  1  0  0  0  0
 14 16  1  0  0  0  0
 14 38  1  0  0  0  0
 15 17  1  0  0  0  0
 15 39  1  0  0  0  0
 16 40  1  0  0  0  0
 16 41  1  0  0  0  0
 17 42  1  0  0  0  0
 17 43  1  0  0  0  0
 20 24  1  0  0  0  0
 20 25  2  0  0  0  0
 21 22  2  0  0  0  0
 21 23  1  0  0  0  0
 22 28  1  0  0  0  0
 22 47  1  0  0  0  0
 23 29  2  0  0  0  0
 23 48  1  0  0  0  0
 24 30  2  0  0  0  0
 24 49  1  0  0  0  0
 25 31  1  0  0  0  0
 25 51  1  0  0  0  0
 26 27  1  0  0  0  0
 26 28  2  0  0  0  0
 26 29  1  0  0  0  0
 27 32  1  0  0  0  0
 27 33  1  0  0  0  0
 27 50  1  0  0  0  0
 28 52  1  0  0  0  0
 29 53  1  0  0  0  0
 30 34  1  0  0  0  0
 30 35  1  0  0  0  0
 31 34  2  0  0  0  0
 31 54  1  0  0  0  0
 32 55  1  0  0  0  0
 32 56  1  0  0  0  0
 32 57  1  0  0  0  0
 33 58  1  0  0  0  0
 33 59  1  0  0  0  0
 33 60  1  0  0  0  0
 34 61  1  0  0  0  0
M  END
> <PUBCHEM_COMPOUND_CID>
11884096

> <PUBCHEM_CONFORMER_RMSD>
1.2

> <PUBCHEM_CONFORMER_DIVERSEORDER>
1
62
111
54
28
118
6
46
9
73
49
57
136
56
70
45
91
138
135
26
88
15
14
36
90
32
35
100
47
99
64
109
108
101
72
113
76
75
124
103
123
95
83
24
107
58
55
65
115
98
29
89
116
16
60
40
87
93
121
34
137
92
68
130
133
69
104
114
12
31
97
102
119
71
21
59
134
3
125
50
39
120
20
122
67
80
79
42
81
78
140
13
19
27
22
94
96
53
110
7
63
131
129
48
41
52
85
86
126
66
139
30
106
105
132
25
61
23
5
33
8
37
51
74
44
127
117
128
112
38
43
18
82
77
10
2
4
17
84
11

> <PUBCHEM_MMFF94_PARTIAL_CHARGES>
44
1 -0.34
10 -0.55
11 -0.55
12 0.28
13 0.28
14 0.3
15 0.28
16 0.28
17 0.28
18 0.69
19 0.78
2 -0.34
20 0.12
21 0.12
22 -0.15
23 -0.15
24 -0.15
25 -0.15
26 -0.14
27 0.14
28 -0.15
29 -0.15
3 -0.34
30 -0.14
31 -0.15
34 -0.15
35 1.16
4 -0.56
44 0.37
45 0.37
46 0.37
47 0.15
48 0.15
49 0.15
5 -0.56
51 0.15
52 0.15
53 0.15
54 0.15
6 -0.43
61 0.15
7 -0.57
8 -0.57
9 -0.73

> <PUBCHEM_EFFECTIVE_ROTOR_COUNT>
11.2

> <PUBCHEM_PHARMACOPHORE_FEATURES>
12
1 10 donor
1 11 donor
1 4 acceptor
1 5 acceptor
1 7 acceptor
1 8 acceptor
1 9 donor
3 27 32 33 hydrophobe
5 4 12 13 14 16 rings
5 5 12 13 15 17 rings
6 20 24 25 30 31 34 rings
6 21 22 23 26 28 29 rings

> <PUBCHEM_HEAVY_ATOM_COUNT>
35

> <PUBCHEM_ATOM_DEF_STEREO_COUNT>
4

> <PUBCHEM_ATOM_UDEF_STEREO_COUNT>
0

> <PUBCHEM_BOND_DEF_STEREO_COUNT>
0

> <PUBCHEM_BOND_UDEF_STEREO_COUNT>
0

> <PUBCHEM_ISOTOPIC_ATOM_COUNT>
0

> <PUBCHEM_COMPONENT_COUNT>
1

> <PUBCHEM_CACTVS_TAUTO_COUNT>
6

> <PUBCHEM_CONFORMER_ID>
00B5564000000001

> <PUBCHEM_MMFF94_ENERGY>
94.3802

> <PUBCHEM_FEATURE_SELFOVERLAP>
61.665

> <PUBCHEM_SHAPE_FINGERPRINT>
10 15 11383834874740684565
10100884 174 18409167706255744386
10190206 1 12757144650044294079
10258705 36 17984429538775023430
10533779 1 9943531773851106827
10669705 251 18272093777563702326
10740516 88 18412550907301448274
10883706 17 18334580186731069923
11607047 74 18263647437278486780
11672396 167 18339636850510508423
11828042 75 18261968395905371459
12013929 112 17385990768897073351
12013929 27 18187644773601065831
12013929 94 18343022169602771500
12522641 68 11169919389424323120
12539765 74 7853579023876520616
13383668 90 17822007567820884837
13782708 43 18268432503102033677
13974486 7 18336537270844053074
14344974 204 18340489955068418134
14359421 15 17967527952393800187
15152005 304 18339092543945255430
15152005 77 18201997711895304223
15198563 99 16226043332684610108
15347591 1 18411419535839152065
15455199 99 18194120947981115782
15510800 12 18272941513374977607
15773216 30 18192997247556016564
16067689 68 18130239159650773409
16126227 98 9727624012546155144
16990366 60 18411698798827648592
16991971 28 18334575746045752090
16994733 274 10952051151905618133
19303781 99 18341603850235291597
19841028 212 18409165524184764112
20105231 36 18041002904274822723
2026 5 18409729547648355411
20721686 146 8214148460125011763
20982279 24 17605004779394242867
21095123 293 9655566427409567050
21130935 74 18413107277460294736
212700 22 18411691089161086986
21307412 95 17676215675271868033
21987483 16 18342174514398492480
23528940 14 18265891364575178994
23569943 247 18337956679602484145
25025965 108 18058719326079623335
25242607 90 18411412921488062168
2835820 83 18410858780724230143
2851757 41 18411142441348735959
3711267 37 9079112301956039558
3918712 181 9079118847702236422
406291 66 18411139142813326522
4169191 19 9150904867121798651
44802255 64 12973902385092462608
4516262 110 9727638272128085977
4760202 70 18261405451606731460
5718773 13 18410293622687795445

> <PUBCHEM_SHAPE_MULTIPOLES>
654.17
36.2
5.42
1.17
11.4
2.25
-0.2
54.77
2.56
-2.46
-0.04
0.44
-0.22
1.42

> <PUBCHEM_SHAPE_SELFOVERLAP>
1406.219

> <PUBCHEM_SHAPE_VOLUME>
362.5

> <PUBCHEM_COORDINATE_TYPE>
2
5
10

$$$$
