28960004
  -OEChem-12032416133D

 78 82  0     1  0  0  0  0  0999 V2000
    4.6448    2.3845    1.6950 O   0  0  0  0  0  0  0  0  0  0  0  0
    4.3200   -5.7229    0.4814 O   0  0  0  0  0  0  0  0  0  0  0  0
    6.1123   -4.3502    0.1906 O   0  0  0  0  0  0  0  0  0  0  0  0
   -3.4926    0.5734    2.2603 O   0  0  0  0  0  0  0  0  0  0  0  0
    4.6118    0.7637    0.0372 N   0  0  0  0  0  0  0  0  0  0  0  0
   -0.2376   -0.4446   -0.7127 N   0  0  0  0  0  0  0  0  0  0  0  0
   -4.3547   -0.4130    0.2762 N   0  0  0  0  0  0  0  0  0  0  0  0
    3.2864    2.7148   -0.1227 N   0  0  0  0  0  0  0  0  0  0  0  0
   -5.7997    0.1868    1.9141 N   0  0  0  0  0  0  0  0  0  0  0  0
    3.4839   -1.1625   -1.0412 C   0  0  1  0  0  0  0  0  0  0  0  0
    4.4516   -2.1088   -0.2824 C   0  0  1  0  0  0  0  0  0  0  0  0
    2.1180   -0.9937   -0.3656 C   0  0  0  0  0  0  0  0  0  0  0  0
    4.1554    0.2066   -1.2446 C   0  0  0  0  0  0  0  0  0  0  0  0
    4.9861   -1.4635    1.0092 C   0  0  0  0  0  0  0  0  0  0  0  0
    1.0508   -0.6169   -1.3835 C   0  0  0  0  0  0  0  0  0  0  0  0
    5.5783   -0.0809    0.7404 C   0  0  0  0  0  0  0  0  0  0  0  0
    3.8426   -3.4794    0.0120 C   0  0  0  0  0  0  0  0  0  0  0  0
   -3.1480   -0.6364   -0.4802 C   0  0  0  0  0  0  0  0  0  0  0  0
   -0.8808   -1.7474   -0.4928 C   0  0  0  0  0  0  0  0  0  0  0  0
   -1.1054    0.4516   -1.4893 C   0  0  0  0  0  0  0  0  0  0  0  0
   -2.2053   -1.5890    0.2558 C   0  0  0  0  0  0  0  0  0  0  0  0
   -2.4382    0.6847   -0.7757 C   0  0  0  0  0  0  0  0  0  0  0  0
    4.2131    1.9825    0.6093 C   0  0  0  0  0  0  0  0  0  0  0  0
    2.7728    3.9856    0.3385 C   0  0  0  0  0  0  0  0  0  0  0  0
    2.4619    4.9144   -0.8400 C   0  0  0  0  0  0  0  0  0  0  0  0
    1.5434    3.7915    1.2322 C   0  0  0  0  0  0  0  0  0  0  0  0
    4.9034   -4.5229    0.2287 C   0  0  0  0  0  0  0  0  0  0  0  0
    1.2281    4.4698   -1.6253 C   0  0  0  0  0  0  0  0  0  0  0  0
    0.3110    3.3486    0.4434 C   0  0  0  0  0  0  0  0  0  0  0  0
    0.0152    4.2942   -0.7166 C   0  0  0  0  0  0  0  0  0  0  0  0
   -5.6495   -0.7348   -0.1496 C   0  0  0  0  0  0  0  0  0  0  0  0
   -4.4179    0.1682    1.5707 C   0  0  0  0  0  0  0  0  0  0  0  0
   -6.5328   -0.3635    0.8623 C   0  0  0  0  0  0  0  0  0  0  0  0
   -6.0956   -1.3104   -1.3209 C   0  0  0  0  0  0  0  0  0  0  0  0
   -7.8941   -0.5459    0.7582 C   0  0  0  0  0  0  0  0  0  0  0  0
   -7.4747   -1.5061   -1.4502 C   0  0  0  0  0  0  0  0  0  0  0  0
   -8.3639   -1.1281   -0.4221 C   0  0  0  0  0  0  0  0  0  0  0  0
    3.3252   -1.6066   -2.0338 H   0  0  0  0  0  0  0  0  0  0  0  0
    5.3154   -2.2509   -0.9490 H   0  0  0  0  0  0  0  0  0  0  0  0
    2.1609   -0.2462    0.4359 H   0  0  0  0  0  0  0  0  0  0  0  0
    1.8266   -1.9297    0.1153 H   0  0  0  0  0  0  0  0  0  0  0  0
    5.0540    0.0811   -1.8630 H   0  0  0  0  0  0  0  0  0  0  0  0
    3.5133    0.8813   -1.8074 H   0  0  0  0  0  0  0  0  0  0  0  0
    5.7521   -2.0927    1.4749 H   0  0  0  0  0  0  0  0  0  0  0  0
    4.1696   -1.3660    1.7363 H   0  0  0  0  0  0  0  0  0  0  0  0
    0.9887   -1.3538   -2.1947 H   0  0  0  0  0  0  0  0  0  0  0  0
    1.3499    0.3302   -1.8483 H   0  0  0  0  0  0  0  0  0  0  0  0
    5.8880    0.3758    1.6854 H   0  0  0  0  0  0  0  0  0  0  0  0
    6.4707   -0.1606    0.1085 H   0  0  0  0  0  0  0  0  0  0  0  0
    3.2106   -3.4493    0.9064 H   0  0  0  0  0  0  0  0  0  0  0  0
    3.2398   -3.8088   -0.8427 H   0  0  0  0  0  0  0  0  0  0  0  0
   -3.4042   -1.0985   -1.4403 H   0  0  0  0  0  0  0  0  0  0  0  0
   -0.2456   -2.4055    0.1091 H   0  0  0  0  0  0  0  0  0  0  0  0
   -1.0625   -2.2601   -1.4469 H   0  0  0  0  0  0  0  0  0  0  0  0
   -1.2958    0.0312   -2.4862 H   0  0  0  0  0  0  0  0  0  0  0  0
   -0.6229    1.4211   -1.6464 H   0  0  0  0  0  0  0  0  0  0  0  0
   -2.6821   -2.5706    0.3693 H   0  0  0  0  0  0  0  0  0  0  0  0
   -1.9932   -1.2312    1.2706 H   0  0  0  0  0  0  0  0  0  0  0  0
   -2.2474    1.2476    0.1459 H   0  0  0  0  0  0  0  0  0  0  0  0
   -3.0794    1.3216   -1.3975 H   0  0  0  0  0  0  0  0  0  0  0  0
    3.5581    4.4598    0.9402 H   0  0  0  0  0  0  0  0  0  0  0  0
    2.8253    2.3059   -0.9224 H   0  0  0  0  0  0  0  0  0  0  0  0
    3.3224    4.9711   -1.5174 H   0  0  0  0  0  0  0  0  0  0  0  0
    2.2897    5.9290   -0.4587 H   0  0  0  0  0  0  0  0  0  0  0  0
    1.3159    4.7402    1.7350 H   0  0  0  0  0  0  0  0  0  0  0  0
    1.7513    3.0583    2.0207 H   0  0  0  0  0  0  0  0  0  0  0  0
    1.4331    3.5289   -2.1494 H   0  0  0  0  0  0  0  0  0  0  0  0
    1.0005    5.2141   -2.3972 H   0  0  0  0  0  0  0  0  0  0  0  0
   -0.5568    3.3007    1.1108 H   0  0  0  0  0  0  0  0  0  0  0  0
    0.4805    2.3360    0.0677 H   0  0  0  0  0  0  0  0  0  0  0  0
   -0.2861    5.2717   -0.3200 H   0  0  0  0  0  0  0  0  0  0  0  0
   -0.8312    3.9136   -1.2988 H   0  0  0  0  0  0  0  0  0  0  0  0
   -6.1982    0.5384    2.7760 H   0  0  0  0  0  0  0  0  0  0  0  0
   -5.4293   -1.6072   -2.1214 H   0  0  0  0  0  0  0  0  0  0  0  0
    4.9850   -6.4288    0.6284 H   0  0  0  0  0  0  0  0  0  0  0  0
   -8.5755   -0.2549    1.5485 H   0  0  0  0  0  0  0  0  0  0  0  0
   -7.8704   -1.9567   -2.3569 H   0  0  0  0  0  0  0  0  0  0  0  0
   -9.4304   -1.2934   -0.5527 H   0  0  0  0  0  0  0  0  0  0  0  0
  1 23  2  0  0  0  0
  2 27  1  0  0  0  0
  2 75  1  0  0  0  0
  3 27  2  0  0  0  0
  4 32  2  0  0  0  0
  5 13  1  0  0  0  0
  5 16  1  0  0  0  0
  5 23  1  0  0  0  0
  6 15  1  0  0  0  0
  6 19  1  0  0  0  0
  6 20  1  0  0  0  0
  7 18  1  0  0  0  0
  7 31  1  0  0  0  0
  7 32  1  0  0  0  0
  8 23  1  0  0  0  0
  8 24  1  0  0  0  0
  8 62  1  0  0  0  0
  9 32  1  0  0  0  0
  9 33  1  0  0  0  0
  9 73  1  0  0  0  0
 10 11  1  0  0  0  0
 10 12  1  0  0  0  0
 10 13  1  0  0  0  0
 10 38  1  0  0  0  0
 11 14  1  0  0  0  0
 11 17  1  0  0  0  0
 11 39  1  0  0  0  0
 12 15  1  0  0  0  0
 12 40  1  0  0  0  0
 12 41  1  0  0  0  0
 13 42  1  0  0  0  0
 13 43  1  0  0  0  0
 14 16  1  0  0  0  0
 14 44  1  0  0  0  0
 14 45  1  0  0  0  0
 15 46  1  0  0  0  0
 15 47  1  0  0  0  0
 16 48  1  0  0  0  0
 16 49  1  0  0  0  0
 17 27  1  0  0  0  0
 17 50  1  0  0  0  0
 17 51  1  0  0  0  0
 18 21  1  0  0  0  0
 18 22  1  0  0  0  0
 18 52  1  0  0  0  0
 19 21  1  0  0  0  0
 19 53  1  0  0  0  0
 19 54  1  0  0  0  0
 20 22  1  0  0  0  0
 20 55  1  0  0  0  0
 20 56  1  0  0  0  0
 21 57  1  0  0  0  0
 21 58  1  0  0  0  0
 22 59  1  0  0  0  0
 22 60  1  0  0  0  0
 24 25  1  0  0  0  0
 24 26  1  0  0  0  0
 24 61  1  0  0  0  0
 25 28  1  0  0  0  0
 25 63  1  0  0  0  0
 25 64  1  0  0  0  0
 26 29  1  0  0  0  0
 26 65  1  0  0  0  0
 26 66  1  0  0  0  0
 28 30  1  0  0  0  0
 28 67  1  0  0  0  0
 28 68  1  0  0  0  0
 29 30  1  0  0  0  0
 29 69  1  0  0  0  0
 29 70  1  0  0  0  0
 30 71  1  0  0  0  0
 30 72  1  0  0  0  0
 31 33  1  0  0  0  0
 31 34  2  0  0  0  0
 33 35  2  0  0  0  0
 34 36  1  0  0  0  0
 34 74  1  0  0  0  0
 35 37  1  0  0  0  0
 35 76  1  0  0  0  0
 36 37  2  0  0  0  0
 36 77  1  0  0  0  0
 37 78  1  0  0  0  0
M  END
> <PUBCHEM_COMPOUND_CID>
28960004

> <PUBCHEM_CONFORMER_RMSD>
1.2

> <PUBCHEM_CONFORMER_DIVERSEORDER>
1
53
35
83
128
29
13
71
60
117
20
11
106
119
39
108
136
122
24
110
65
111
54
126
76
89
131
66
91
46
51
115
129
92
47
5
48
87
28
125
10
33
137
99
93
130
16
118
45
114
132
61
85
42
103
80
127
62
77
14
74
94
31
36
79
68
57
105
21
113
116
139
133
58
38
95
135
104
134
26
63
124
22
50
84
52
43
64
81
86
6
96
41
107
121
109
82
138
112
100
69
18
72
17
98
88
40
70
32
7
23
19
75
123
59
101
27
4
49
120
97
25
30
102
34
73
67
78
9
2
8
55
56
44
12
37
15
90
3

> <PUBCHEM_MMFF94_PARTIAL_CHARGES>
33
1 -0.57
13 0.3
15 0.27
16 0.3
17 0.06
18 0.3
19 0.27
2 -0.65
20 0.27
23 0.69
24 0.3
27 0.66
3 -0.57
31 0.12
32 0.69
33 0.12
34 -0.15
35 -0.15
36 -0.15
37 -0.15
4 -0.57
5 -0.66
6 -0.81
62 0.37
7 -0.48
73 0.37
74 0.15
75 0.5
76 0.15
77 0.15
78 0.15
8 -0.73
9 -0.55

> <PUBCHEM_EFFECTIVE_ROTOR_COUNT>
12.6

> <PUBCHEM_PHARMACOPHORE_FEATURES>
13
1 1 acceptor
1 2 acceptor
1 3 acceptor
1 4 acceptor
1 6 cation
1 8 donor
1 9 donor
3 2 3 27 anion
5 7 9 31 32 33 rings
6 24 25 26 28 29 30 rings
6 31 33 34 35 36 37 rings
6 5 10 11 13 14 16 rings
6 6 18 19 20 21 22 rings

> <PUBCHEM_HEAVY_ATOM_COUNT>
37

> <PUBCHEM_ATOM_DEF_STEREO_COUNT>
2

> <PUBCHEM_ATOM_UDEF_STEREO_COUNT>
0

> <PUBCHEM_BOND_DEF_STEREO_COUNT>
0

> <PUBCHEM_BOND_UDEF_STEREO_COUNT>
0

> <PUBCHEM_ISOTOPIC_ATOM_COUNT>
0

> <PUBCHEM_COMPONENT_COUNT>
1

> <PUBCHEM_CACTVS_TAUTO_COUNT>
4

> <PUBCHEM_CONFORMER_ID>
01B9E50400000001

> <PUBCHEM_MMFF94_ENERGY>
74.0293

> <PUBCHEM_FEATURE_SELFOVERLAP>
66.13

> <PUBCHEM_SHAPE_FINGERPRINT>
10190108 129 18412259546349070536
11374522 58 18335422374500030085
11505856 67 16312764387558136612
12166972 35 18342178860683680633
13533116 47 18409167688521701118
13692115 27 18046062654437640030
13782708 43 18040996203081575983
14004852 214 16908654076933459081
15264996 44 18340782523249654349
15328829 1 17560231557218310629
15400415 2 17617377724421023813
15419008 47 17822283587735903877
16096371 109 18267309914050662801
19301679 30 18192423088064376874
21344244 78 18269261397235277594
23559900 14 17023191582626288045
249057 25 17845945108594493945
3044373 193 18042689580132541669
3504750 166 17910108019629203311
394071 54 18339082691252413161
4149490 64 18266181811722493155
4760202 170 18338784664569561813
513532 50 16987738929141980212
57816373 69 18342462486865137686
6898599 12 10157681506109299226
86090 222 17458348519933318354
9962374 69 18335130986692308198

> <PUBCHEM_SHAPE_MULTIPOLES>
713.06
19.52
6.66
1.54
36.14
1.72
-0.25
-15.35
-2.92
-16.17
0.28
1.16
0.64
-1.05

> <PUBCHEM_SHAPE_SELFOVERLAP>
1501.111

> <PUBCHEM_SHAPE_VOLUME>
394.5

> <PUBCHEM_COORDINATE_TYPE>
2
5
10

$$$$
