71694322
  -OEChem-12032416273D

 45 48  0     1  0  0  0  0  0999 V2000
   -7.0900    0.7213   -0.2227 F   0  0  0  0  0  0  0  0  0  0  0  0
   -7.3488   -1.2407    0.7046 F   0  0  0  0  0  0  0  0  0  0  0  0
   -5.8531    0.1330    1.5119 F   0  0  0  0  0  0  0  0  0  0  0  0
    4.8507    2.4998    0.1480 O   0  0  0  0  0  0  0  0  0  0  0  0
    2.9000   -1.8823    1.5247 O   0  0  0  0  0  0  0  0  0  0  0  0
   -5.4785   -0.8771   -0.5057 O   0  0  0  0  0  0  0  0  0  0  0  0
    3.9353   -0.1742    0.3215 N   0  0  0  0  0  0  0  0  0  0  0  0
    0.7372    0.5171    0.4680 N   0  0  0  0  0  0  0  0  0  0  0  0
    1.7136    2.1613   -0.6610 N   0  0  0  0  0  0  0  0  0  0  0  0
    4.3743   -2.5628   -0.1554 C   0  0  0  0  0  0  0  0  0  0  0  0
    3.7467   -3.9114   -0.2658 C   0  0  0  0  0  0  0  0  0  0  0  0
    3.7762   -2.9944   -1.4518 C   0  0  0  0  0  0  0  0  0  0  0  0
    3.6680   -1.5128    0.6403 C   0  0  0  0  0  0  0  0  0  0  0  0
    3.1752    0.9002    0.9906 C   0  0  1  0  0  0  0  0  0  0  0  0
    4.8564    0.2509   -0.7392 C   0  0  0  0  0  0  0  0  0  0  0  0
    4.0715    2.1160    1.2818 C   0  0  0  0  0  0  0  0  0  0  0  0
    5.6950    1.4342   -0.2828 C   0  0  0  0  0  0  0  0  0  0  0  0
    1.8863    1.2229    0.2431 C   0  0  0  0  0  0  0  0  0  0  0  0
   -0.2298    1.0387   -0.3446 C   0  0  0  0  0  0  0  0  0  0  0  0
    0.3967    2.0518   -1.0315 C   0  0  0  0  0  0  0  0  0  0  0  0
   -1.5813    0.5458   -0.3849 C   0  0  0  0  0  0  0  0  0  0  0  0
   -2.6301    1.4107   -0.6974 C   0  0  0  0  0  0  0  0  0  0  0  0
   -1.8422   -0.7970   -0.1122 C   0  0  0  0  0  0  0  0  0  0  0  0
   -3.9399    0.9328   -0.7370 C   0  0  0  0  0  0  0  0  0  0  0  0
   -3.1521   -1.2750   -0.1518 C   0  0  0  0  0  0  0  0  0  0  0  0
   -4.2009   -0.4100   -0.4641 C   0  0  0  0  0  0  0  0  0  0  0  0
   -6.4366   -0.2986    0.3735 C   0  0  0  0  0  0  0  0  0  0  0  0
    5.4561   -2.5627   -0.0644 H   0  0  0  0  0  0  0  0  0  0  0  0
    2.7833   -4.0996    0.1916 H   0  0  0  0  0  0  0  0  0  0  0  0
    4.4021   -4.7743   -0.2820 H   0  0  0  0  0  0  0  0  0  0  0  0
    4.4514   -3.2380   -2.2628 H   0  0  0  0  0  0  0  0  0  0  0  0
    2.8404   -2.5497   -1.7680 H   0  0  0  0  0  0  0  0  0  0  0  0
    2.8561    0.5203    1.9715 H   0  0  0  0  0  0  0  0  0  0  0  0
    4.2309    0.5391   -1.5920 H   0  0  0  0  0  0  0  0  0  0  0  0
    5.5089   -0.5620   -1.0624 H   0  0  0  0  0  0  0  0  0  0  0  0
    3.4721    2.9802    1.5880 H   0  0  0  0  0  0  0  0  0  0  0  0
    4.7592    1.8893    2.1063 H   0  0  0  0  0  0  0  0  0  0  0  0
    6.3737    1.1539    0.5315 H   0  0  0  0  0  0  0  0  0  0  0  0
    6.3044    1.8035   -1.1134 H   0  0  0  0  0  0  0  0  0  0  0  0
    0.6300   -0.2447    1.1250 H   0  0  0  0  0  0  0  0  0  0  0  0
   -0.0239    2.7109   -1.7780 H   0  0  0  0  0  0  0  0  0  0  0  0
   -2.4542    2.4623   -0.9099 H   0  0  0  0  0  0  0  0  0  0  0  0
   -1.0459   -1.4988    0.1231 H   0  0  0  0  0  0  0  0  0  0  0  0
   -4.7467    1.6159   -0.9879 H   0  0  0  0  0  0  0  0  0  0  0  0
   -3.3494   -2.3226    0.0588 H   0  0  0  0  0  0  0  0  0  0  0  0
  1 27  1  0  0  0  0
  2 27  1  0  0  0  0
  3 27  1  0  0  0  0
  4 16  1  0  0  0  0
  4 17  1  0  0  0  0
  5 13  2  0  0  0  0
  6 26  1  0  0  0  0
  6 27  1  0  0  0  0
  7 13  1  0  0  0  0
  7 14  1  0  0  0  0
  7 15  1  0  0  0  0
  8 18  1  0  0  0  0
  8 19  1  0  0  0  0
  8 40  1  0  0  0  0
  9 18  2  0  0  0  0
  9 20  1  0  0  0  0
 10 11  1  0  0  0  0
 10 12  1  0  0  0  0
 10 13  1  0  0  0  0
 10 28  1  0  0  0  0
 11 12  1  0  0  0  0
 11 29  1  0  0  0  0
 11 30  1  0  0  0  0
 12 31  1  0  0  0  0
 12 32  1  0  0  0  0
 14 16  1  0  0  0  0
 14 18  1  0  0  0  0
 14 33  1  0  0  0  0
 15 17  1  0  0  0  0
 15 34  1  0  0  0  0
 15 35  1  0  0  0  0
 16 36  1  0  0  0  0
 16 37  1  0  0  0  0
 17 38  1  0  0  0  0
 17 39  1  0  0  0  0
 19 20  2  0  0  0  0
 19 21  1  0  0  0  0
 20 41  1  0  0  0  0
 21 22  2  0  0  0  0
 21 23  1  0  0  0  0
 22 24  1  0  0  0  0
 22 42  1  0  0  0  0
 23 25  2  0  0  0  0
 23 43  1  0  0  0  0
 24 26  2  0  0  0  0
 24 44  1  0  0  0  0
 25 26  1  0  0  0  0
 25 45  1  0  0  0  0
M  END
> <PUBCHEM_COMPOUND_CID>
71694322

> <PUBCHEM_CONFORMER_RMSD>
0.8

> <PUBCHEM_CONFORMER_DIVERSEORDER>
1
12
91
79
77
96
51
41
73
109
110
95
53
88
74
26
93
87
106
50
25
102
6
56
107
111
85
8
34
103
78
94
104
63
29
75
54
48
42
19
72
66
27
99
68
100
62
44
76
7
28
23
65
82
90
46
40
5
101
105
31
35
70
22
64
49
69
89
61
45
10
39
97
81
32
60
52
58
47
71
18
57
24
20
3
11
17
108
36
14
80
83
84
38
92
55
33
30
67
15
21
43
2
98
37
86
4
9
59
13
16

> <PUBCHEM_MMFF94_PARTIAL_CHARGES>
38
1 -0.34
10 -0.1
11 -0.2
12 -0.2
13 0.63
14 0.48
15 0.3
16 0.28
17 0.28
18 0.01
19 -0.2
2 -0.34
20 0.08
21 0.05
22 -0.15
23 -0.15
24 -0.15
25 -0.15
26 0.08
27 1.3
28 0.1
29 0.1
3 -0.34
30 0.1
31 0.1
32 0.1
4 -0.56
40 0.27
41 0.15
42 0.15
43 0.15
44 0.15
45 0.15
5 -0.57
6 -0.36
7 -0.66
8 0.03
9 -0.57

> <PUBCHEM_EFFECTIVE_ROTOR_COUNT>
7.8

> <PUBCHEM_PHARMACOPHORE_FEATURES>
8
1 4 acceptor
1 5 acceptor
1 6 acceptor
1 8 donor
3 8 9 18 cation
5 8 9 18 19 20 rings
6 21 22 23 24 25 26 rings
6 4 7 14 15 16 17 rings

> <PUBCHEM_HEAVY_ATOM_COUNT>
27

> <PUBCHEM_ATOM_DEF_STEREO_COUNT>
1

> <PUBCHEM_ATOM_UDEF_STEREO_COUNT>
0

> <PUBCHEM_BOND_DEF_STEREO_COUNT>
0

> <PUBCHEM_BOND_UDEF_STEREO_COUNT>
0

> <PUBCHEM_ISOTOPIC_ATOM_COUNT>
0

> <PUBCHEM_COMPONENT_COUNT>
1

> <PUBCHEM_CACTVS_TAUTO_COUNT>
2

> <PUBCHEM_CONFORMER_ID>
0445F7F200000001

> <PUBCHEM_MMFF94_ENERGY>
63.5252

> <PUBCHEM_FEATURE_SELFOVERLAP>
40.597

> <PUBCHEM_SHAPE_FINGERPRINT>
10319688 140 18342178813671941790
10906281 52 17823142387911031520
11045977 3 11239996784642317564
11089746 13 9943532907510949805
11135609 99 16298651842694183704
11181472 205 18201165356540762929
11796584 16 17489310836058772719
12107183 9 17840595790328929497
12422481 6 18059292059608997679
12596602 18 17488744617677216081
12623949 98 18341900645313069006
12730499 353 18411138061135435904
13073987 5 18341332210528472825
13150687 139 17896621638484879508
13533116 47 18201999919418192667
13551218 46 18411980252677481135
1361 2 18409728477958918427
13617811 41 16443066093368931071
13785724 45 17772201803579261670
13955234 65 18272079505597731048
14211702 104 18263370342946611835
14341114 176 18408323289729968913
14347424 109 18272649004959748625
14617045 38 18410859880066448942
14863182 85 18334858359732199604
14866123 147 17478047155491863216
15081414 286 18334855030426104996
15183329 4 17561366180208933985
15250474 111 17987779925790518591
15537594 2 18413105091009957647
15664445 248 18187937200839944068
15799311 1 18342188773088709975
17492 89 18267863883174155022
17844677 252 18338518530265920337
17859628 70 18342454799590406822
1813 80 16950280693791360325
1979834 28 18341601638680561536
20554085 129 14907901540630223303
20567600 75 18333727997243618701
20645477 70 18409724037542248998
21033650 10 16444190790410708780
21049683 118 12535334654519008581
21130935 74 18413672414174087515
21133410 32 16739233809945652570
21267235 1 18335702724247913456
21279426 13 18261948528108033981
21285901 2 17967526861814465236
21344244 246 18339371748197219174
21521721 280 18200310052695561408
21682296 61 18338802200535636071
220451 1 18060418053799255797
23516275 137 17630635433796816094
23559900 14 18265888236498829921
239999 70 18186798089428497328
3004659 81 18187644657552733966
3178227 256 18342170103725756672
3421961 26 18341325605311467366
345986 75 17560517292380553034
34797466 226 17022910059497647445
394071 54 18408326613465210297
4073 2 18267305511387144779
4340502 62 18200583805109869192
46194498 28 17603305972818214972
5104073 3 18337944593665214033
59755656 215 18411421738834316012
70251023 43 18265336093358209514

> <PUBCHEM_SHAPE_MULTIPOLES>
501.28
16.68
3.28
1.11
25.99
2.42
0.13
3.38
2.04
-6.52
-0.46
-0.35
0.05
1.11

> <PUBCHEM_SHAPE_SELFOVERLAP>
1082.877

> <PUBCHEM_SHAPE_VOLUME>
277.3

> <PUBCHEM_COORDINATE_TYPE>
2
5
10

$$$$
