26761953
  -OEChem-12032416353D

 47 51  0     1  0  0  0  0  0999 V2000
   -6.3079    2.8592   -0.2910 Cl  0  0  0  0  0  0  0  0  0  0  0  0
   -7.1411    0.2273    0.7884 F   0  0  0  0  0  0  0  0  0  0  0  0
    0.2029    1.2700   -0.9968 O   0  0  0  0  0  0  0  0  0  0  0  0
    2.9447    2.2237    0.5929 O   0  0  0  0  0  0  0  0  0  0  0  0
    3.3331    4.0551   -1.7574 O   0  0  0  0  0  0  0  0  0  0  0  0
    2.2287   -1.0298    0.7340 N   0  0  2  0  0  0  0  0  0  0  0  0
    1.1824   -4.6032    0.6740 N   0  0  0  0  0  0  0  0  0  0  0  0
    1.2682   -4.3675   -1.5480 N   0  0  0  0  0  0  0  0  0  0  0  0
   -0.8716   -0.5107   -0.1656 N   0  0  0  0  0  0  0  0  0  0  0  0
   -1.1391    1.6498   -0.8689 N   0  0  0  0  0  0  0  0  0  0  0  0
    1.6543   -0.6730   -0.5991 C   0  0  1  0  0  0  0  0  0  0  0  0
    1.7405   -1.8735   -1.6084 C   0  0  0  0  0  0  0  0  0  0  0  0
    1.5978   -2.1850    1.4068 C   0  0  0  0  0  0  0  0  0  0  0  0
    1.4353   -3.2871    0.4342 C   0  0  0  0  0  0  0  0  0  0  0  0
    1.4784   -3.1662   -0.9327 C   0  0  0  0  0  0  0  0  0  0  0  0
    2.3751    0.1026    1.6417 C   0  0  0  0  0  0  0  0  0  0  0  0
    0.2735   -0.0152   -0.5616 C   0  0  0  0  0  0  0  0  0  0  0  0
    3.4130    1.0795    1.1566 C   0  0  0  0  0  0  0  0  0  0  0  0
    1.0908   -5.2139   -0.5524 C   0  0  0  0  0  0  0  0  0  0  0  0
    4.7886    1.0691    1.1576 C   0  0  0  0  0  0  0  0  0  0  0  0
   -1.7083    0.5472   -0.3727 C   0  0  0  0  0  0  0  0  0  0  0  0
    4.0333    2.9521    0.2301 C   0  0  0  0  0  0  0  0  0  0  0  0
    5.1914    2.2852    0.5560 C   0  0  0  0  0  0  0  0  0  0  0  0
   -3.1092    0.4693   -0.0746 C   0  0  0  0  0  0  0  0  0  0  0  0
    3.7650    4.2485   -0.4083 C   0  0  0  0  0  0  0  0  0  0  0  0
   -3.9332    1.5719   -0.3001 C   0  0  0  0  0  0  0  0  0  0  0  0
   -3.6475   -0.7099    0.4407 C   0  0  0  0  0  0  0  0  0  0  0  0
   -5.2954    1.4953   -0.0104 C   0  0  0  0  0  0  0  0  0  0  0  0
   -5.0098   -0.7865    0.7305 C   0  0  0  0  0  0  0  0  0  0  0  0
   -5.8337    0.3162    0.5048 C   0  0  0  0  0  0  0  0  0  0  0  0
    2.3153    0.0825   -1.0473 H   0  0  0  0  0  0  0  0  0  0  0  0
    2.7558   -1.9149   -2.0232 H   0  0  0  0  0  0  0  0  0  0  0  0
    1.0447   -1.7323   -2.4432 H   0  0  0  0  0  0  0  0  0  0  0  0
    0.6195   -1.9115    1.8197 H   0  0  0  0  0  0  0  0  0  0  0  0
    2.2334   -2.5227    2.2339 H   0  0  0  0  0  0  0  0  0  0  0  0
    2.7223   -0.2493    2.6225 H   0  0  0  0  0  0  0  0  0  0  0  0
    1.4218    0.6132    1.8234 H   0  0  0  0  0  0  0  0  0  0  0  0
    1.0770   -5.0485    1.5762 H   0  0  0  0  0  0  0  0  0  0  0  0
    0.8936   -6.2723   -0.6472 H   0  0  0  0  0  0  0  0  0  0  0  0
    5.4233    0.2840    1.5428 H   0  0  0  0  0  0  0  0  0  0  0  0
    6.2008    2.6299    0.3826 H   0  0  0  0  0  0  0  0  0  0  0  0
    2.9805    4.7896    0.1302 H   0  0  0  0  0  0  0  0  0  0  0  0
    4.6660    4.8700   -0.4241 H   0  0  0  0  0  0  0  0  0  0  0  0
   -3.5350    2.5014   -0.7014 H   0  0  0  0  0  0  0  0  0  0  0  0
   -3.0317   -1.5862    0.6276 H   0  0  0  0  0  0  0  0  0  0  0  0
   -5.4294   -1.7043    1.1317 H   0  0  0  0  0  0  0  0  0  0  0  0
    3.1682    4.9377   -2.1309 H   0  0  0  0  0  0  0  0  0  0  0  0
  1 28  1  0  0  0  0
  2 30  1  0  0  0  0
  3 10  1  0  0  0  0
  3 17  1  0  0  0  0
  4 18  1  0  0  0  0
  4 22  1  0  0  0  0
  5 25  1  0  0  0  0
  5 47  1  0  0  0  0
  6 11  1  0  0  0  0
  6 13  1  0  0  0  0
  6 16  1  0  0  0  0
  7 14  1  0  0  0  0
  7 19  1  0  0  0  0
  7 38  1  0  0  0  0
  8 15  1  0  0  0  0
  8 19  2  0  0  0  0
  9 17  2  0  0  0  0
  9 21  1  0  0  0  0
 10 21  2  0  0  0  0
 11 12  1  0  0  0  0
 11 17  1  0  0  0  0
 11 31  1  0  0  0  0
 12 15  1  0  0  0  0
 12 32  1  0  0  0  0
 12 33  1  0  0  0  0
 13 14  1  0  0  0  0
 13 34  1  0  0  0  0
 13 35  1  0  0  0  0
 14 15  2  0  0  0  0
 16 18  1  0  0  0  0
 16 36  1  0  0  0  0
 16 37  1  0  0  0  0
 18 20  2  0  0  0  0
 19 39  1  0  0  0  0
 20 23  1  0  0  0  0
 20 40  1  0  0  0  0
 21 24  1  0  0  0  0
 22 23  2  0  0  0  0
 22 25  1  0  0  0  0
 23 41  1  0  0  0  0
 24 26  2  0  0  0  0
 24 27  1  0  0  0  0
 25 42  1  0  0  0  0
 25 43  1  0  0  0  0
 26 28  1  0  0  0  0
 26 44  1  0  0  0  0
 27 29  2  0  0  0  0
 27 45  1  0  0  0  0
 28 30  2  0  0  0  0
 29 30  1  0  0  0  0
 29 46  1  0  0  0  0
M  END
> <PUBCHEM_COMPOUND_CID>
26761953

> <PUBCHEM_CONFORMER_RMSD>
1

> <PUBCHEM_CONFORMER_DIVERSEORDER>
7
105
139
151
68
187
79
9
140
83
124
164
5
186
177
132
182
86
159
104
119
154
122
58
166
161
108
44
143
150
35
103
100
141
176
42
170
117
78
1
97
70
130
88
102
185
189
3
67
125
172
111
101
188
173
73
171
77
178
153
92
87
94
41
64
71
118
156
114
36
183
133
109
89
19
157
54
60
91
57
52
163
106
179
165
43
90
22
27
96
121
138
160
66
76
131
167
181
37
16
24
136
145
148
158
169
184
128
93
48
107
59
135
142
55
46
50
80
31
72
162
137
144
62
75
17
190
39
155
51
149
126
69
8
40
116
112
99
38
134
20
56
82
113
12
4
147
175
110
61
26
127
30
123
129
34
146
28
33
10
115
53
95
174
98
152
47
168
23
13
74
120
18
29
32
2
63
14
25
180
85
81
45
21
6
11
84
65
49
15

> <PUBCHEM_MMFF94_PARTIAL_CHARGES>
38
1 -0.18
10 -0.41
11 0.45
12 0.18
13 0.45
14 -0.33
15 0.05
16 0.45
17 0.3
18 -0.04
19 0.04
2 -0.19
20 -0.15
21 0.46
22 -0.04
23 -0.15
24 0.05
25 0.46
26 -0.15
27 -0.15
28 0.18
29 -0.15
3 -0.02
30 0.19
38 0.27
39 0.15
4 -0.28
40 0.15
41 0.15
44 0.15
45 0.15
46 0.15
47 0.4
5 -0.68
6 -0.81
7 0.03
8 -0.57
9 -0.57

> <PUBCHEM_EFFECTIVE_ROTOR_COUNT>
5.8

> <PUBCHEM_PHARMACOPHORE_FEATURES>
12
1 4 acceptor
1 5 acceptor
1 5 donor
1 6 cation
1 7 donor
3 7 8 19 cation
3 9 10 21 cation
5 3 9 10 17 21 rings
5 4 18 20 22 23 rings
5 7 8 14 15 19 rings
6 24 26 27 28 29 30 rings
6 6 11 12 13 14 15 rings

> <PUBCHEM_HEAVY_ATOM_COUNT>
30

> <PUBCHEM_ATOM_DEF_STEREO_COUNT>
1

> <PUBCHEM_ATOM_UDEF_STEREO_COUNT>
0

> <PUBCHEM_BOND_DEF_STEREO_COUNT>
0

> <PUBCHEM_BOND_UDEF_STEREO_COUNT>
0

> <PUBCHEM_ISOTOPIC_ATOM_COUNT>
0

> <PUBCHEM_COMPONENT_COUNT>
1

> <PUBCHEM_CACTVS_TAUTO_COUNT>
2

> <PUBCHEM_CONFORMER_ID>
01985AE100000007

> <PUBCHEM_MMFF94_ENERGY>
47.3479

> <PUBCHEM_FEATURE_SELFOVERLAP>
60.998

> <PUBCHEM_SHAPE_FINGERPRINT>
11421498 54 17846501404636213712
11505856 67 17691120856598198253
12788726 201 16681495988442013390
13533116 47 18197779891508008723
13757389 114 17904216067185263380
13955234 65 18341335474629719363
14068700 686 18337677524778609139
1454969 45 18194679496182525375
14790565 3 18266176329983006021
14955137 171 18196081146017533266
15183329 4 11455904576001328065
15439362 3 18341897429042297604
16114785 44 17758394463375650506
16992610 120 18190191264460304676
21049683 271 18195253209471761734
21133410 32 16523346861298409098
21716022 299 14691195460463517876
21756936 100 18126554855163162768
23559900 14 18264777554166941335
239999 70 18200879474030522023
3178227 256 18411417272627848418
3411729 13 18411134714722916201
3610482 184 17390237271777655556
38695281 34 18339076098572448880
394071 54 18335706001461461153
4058900 60 18341059574515187056
4461854 278 18049742994369931147
469060 322 13553412238348628010
5047190 48 18335984272191543495
5104073 3 18263089830089581073
5219985 13 18268708483955697288
59444896 2 17028825629655434798
621550 34 18336260163457802373
6442390 28 18340485672643002394
9658208 31 18056192720961403128

> <PUBCHEM_SHAPE_MULTIPOLES>
569.47
12.81
6.24
1.33
22.7
5.32
-0.1
-13.49
3.26
-8.49
-2.06
-1.09
0.24
0.59

> <PUBCHEM_SHAPE_SELFOVERLAP>
1250.602

> <PUBCHEM_SHAPE_VOLUME>
311

> <PUBCHEM_COORDINATE_TYPE>
2
5
10

$$$$
