7134574
  -OEChem-12032416333D

 77 80  0     1  0  0  0  0  0999 V2000
    9.3063    0.3520   -1.7305 F   0  0  0  0  0  0  0  0  0  0  0  0
   -3.1269    4.2832    0.7624 O   0  0  0  0  0  0  0  0  0  0  0  0
   -2.0013    0.5725    1.9488 O   0  0  0  0  0  0  0  0  0  0  0  0
    0.8933   -2.1791    1.7786 O   0  0  0  0  0  0  0  0  0  0  0  0
    3.1899   -0.3104    0.7099 O   0  0  0  0  0  0  0  0  0  0  0  0
   -1.5380    2.6184    0.4084 N   0  0  0  0  0  0  0  0  0  0  0  0
   -1.2388   -1.0092    0.4204 N   0  0  0  0  0  0  0  0  0  0  0  0
   -4.4289    3.7459   -1.4327 N   0  0  0  0  0  0  0  0  0  0  0  0
    2.6200    1.8161    0.0045 N   0  0  0  0  0  0  0  0  0  0  0  0
   -0.5976   -2.9460    3.3482 N   0  0  0  0  0  0  0  0  0  0  0  0
    4.7411    1.0441   -0.4167 N   0  0  0  0  0  0  0  0  0  0  0  0
   -3.0034   -3.2082   -0.5700 C   0  0  0  0  0  0  0  0  0  0  0  0
   -1.1632    1.3141   -0.1617 C   0  0  1  0  0  0  0  0  0  0  0  0
    0.3105    1.2346   -0.5667 C   0  0  0  0  0  0  0  0  0  0  0  0
    1.2623    1.7971    0.4929 C   0  0  2  0  0  0  0  0  0  0  0  0
   -4.2620   -2.8326    0.2238 C   0  0  0  0  0  0  0  0  0  0  0  0
   -3.2466   -4.4643   -1.4177 C   0  0  0  0  0  0  0  0  0  0  0  0
   -1.8150   -3.4121    0.3677 C   0  0  0  0  0  0  0  0  0  0  0  0
    0.8210    3.1979    0.9106 C   0  0  0  0  0  0  0  0  0  0  0  0
   -0.6206    3.1894    1.4016 C   0  0  0  0  0  0  0  0  0  0  0  0
   -5.4773   -2.6755   -0.6873 C   0  0  0  0  0  0  0  0  0  0  0  0
   -4.4635   -4.3043   -2.3261 C   0  0  0  0  0  0  0  0  0  0  0  0
   -5.7105   -3.9225   -1.5345 C   0  0  0  0  0  0  0  0  0  0  0  0
   -1.4724   -2.1880    1.2229 C   0  0  1  0  0  0  0  0  0  0  0  0
   -3.6576    2.6496   -0.8471 C   0  0  1  0  0  0  0  0  0  0  0  0
   -2.7616    3.2587    0.1793 C   0  0  0  0  0  0  0  0  0  0  0  0
   -1.5255    0.2729    0.8569 C   0  0  0  0  0  0  0  0  0  0  0  0
   -4.6730    1.6911   -0.2335 C   0  0  0  0  0  0  0  0  0  0  0  0
   -6.0219    2.3469   -0.4857 C   0  0  0  0  0  0  0  0  0  0  0  0
   -5.7636    3.2174   -1.6978 C   0  0  0  0  0  0  0  0  0  0  0  0
   -0.2631   -2.4152    2.1205 C   0  0  0  0  0  0  0  0  0  0  0  0
    3.5014    0.7389    0.1519 C   0  0  0  0  0  0  0  0  0  0  0  0
    5.8939    0.2267   -0.4759 C   0  0  0  0  0  0  0  0  0  0  0  0
    7.0545    0.7014   -1.0867 C   0  0  0  0  0  0  0  0  0  0  0  0
    5.8703   -1.0535    0.0771 C   0  0  0  0  0  0  0  0  0  0  0  0
    8.1918   -0.1041   -1.1442 C   0  0  0  0  0  0  0  0  0  0  0  0
    7.0076   -1.8592    0.0196 C   0  0  0  0  0  0  0  0  0  0  0  0
    8.1683   -1.3845   -0.5911 C   0  0  0  0  0  0  0  0  0  0  0  0
   -2.7762   -2.3856   -1.2613 H   0  0  0  0  0  0  0  0  0  0  0  0
   -1.7467    1.0737   -1.0496 H   0  0  0  0  0  0  0  0  0  0  0  0
    0.6221    0.2210   -0.8404 H   0  0  0  0  0  0  0  0  0  0  0  0
    0.4344    1.8294   -1.4836 H   0  0  0  0  0  0  0  0  0  0  0  0
    1.2322    1.1421    1.3731 H   0  0  0  0  0  0  0  0  0  0  0  0
   -4.4720   -3.5984    0.9812 H   0  0  0  0  0  0  0  0  0  0  0  0
   -4.1273   -1.8836    0.7527 H   0  0  0  0  0  0  0  0  0  0  0  0
   -3.3974   -5.3330   -0.7640 H   0  0  0  0  0  0  0  0  0  0  0  0
   -2.3639   -4.6785   -2.0319 H   0  0  0  0  0  0  0  0  0  0  0  0
   -0.9343   -3.6833   -0.2306 H   0  0  0  0  0  0  0  0  0  0  0  0
   -2.0012   -4.2694    1.0282 H   0  0  0  0  0  0  0  0  0  0  0  0
    1.4780    3.5827    1.6999 H   0  0  0  0  0  0  0  0  0  0  0  0
    0.9133    3.8873    0.0608 H   0  0  0  0  0  0  0  0  0  0  0  0
   -0.7037    2.6116    2.3278 H   0  0  0  0  0  0  0  0  0  0  0  0
   -0.9191    4.2143    1.6465 H   0  0  0  0  0  0  0  0  0  0  0  0
   -5.3309   -1.8099   -1.3451 H   0  0  0  0  0  0  0  0  0  0  0  0
   -6.3674   -2.4693   -0.0823 H   0  0  0  0  0  0  0  0  0  0  0  0
   -4.6435   -5.2392   -2.8687 H   0  0  0  0  0  0  0  0  0  0  0  0
   -4.2581   -3.5327   -3.0783 H   0  0  0  0  0  0  0  0  0  0  0  0
   -5.9990   -4.7570   -0.8835 H   0  0  0  0  0  0  0  0  0  0  0  0
   -6.5459   -3.7502   -2.2224 H   0  0  0  0  0  0  0  0  0  0  0  0
   -2.3137   -1.9643    1.8895 H   0  0  0  0  0  0  0  0  0  0  0  0
   -3.1210    2.1852   -1.6741 H   0  0  0  0  0  0  0  0  0  0  0  0
   -4.6299    0.7265   -0.7533 H   0  0  0  0  0  0  0  0  0  0  0  0
   -4.5230    1.5039    0.8347 H   0  0  0  0  0  0  0  0  0  0  0  0
   -0.8476   -1.1497   -0.5055 H   0  0  0  0  0  0  0  0  0  0  0  0
   -6.8143    1.6123   -0.6561 H   0  0  0  0  0  0  0  0  0  0  0  0
   -6.3050    2.9637    0.3762 H   0  0  0  0  0  0  0  0  0  0  0  0
   -3.9934    4.0922   -2.2857 H   0  0  0  0  0  0  0  0  0  0  0  0
   -6.5026    4.0170   -1.7964 H   0  0  0  0  0  0  0  0  0  0  0  0
   -5.7647    2.6199   -2.6169 H   0  0  0  0  0  0  0  0  0  0  0  0
    2.9279    2.6196   -0.5349 H   0  0  0  0  0  0  0  0  0  0  0  0
    0.1176   -3.1529    4.0376 H   0  0  0  0  0  0  0  0  0  0  0  0
   -1.5554   -3.1551    3.6107 H   0  0  0  0  0  0  0  0  0  0  0  0
    4.8350    1.9638   -0.8403 H   0  0  0  0  0  0  0  0  0  0  0  0
    7.0866    1.6970   -1.5215 H   0  0  0  0  0  0  0  0  0  0  0  0
    5.0110   -1.4908    0.5655 H   0  0  0  0  0  0  0  0  0  0  0  0
    6.9906   -2.8564    0.4498 H   0  0  0  0  0  0  0  0  0  0  0  0
    9.0539   -2.0114   -0.6361 H   0  0  0  0  0  0  0  0  0  0  0  0
  1 36  1  0  0  0  0
  2 26  2  0  0  0  0
  3 27  2  0  0  0  0
  4 31  2  0  0  0  0
  5 32  2  0  0  0  0
  6 13  1  0  0  0  0
  6 20  1  0  0  0  0
  6 26  1  0  0  0  0
  7 24  1  0  0  0  0
  7 27  1  0  0  0  0
  7 64  1  0  0  0  0
  8 25  1  0  0  0  0
  8 30  1  0  0  0  0
  8 67  1  0  0  0  0
  9 15  1  0  0  0  0
  9 32  1  0  0  0  0
  9 70  1  0  0  0  0
 10 31  1  0  0  0  0
 10 71  1  0  0  0  0
 10 72  1  0  0  0  0
 11 32  1  0  0  0  0
 11 33  1  0  0  0  0
 11 73  1  0  0  0  0
 12 16  1  0  0  0  0
 12 17  1  0  0  0  0
 12 18  1  0  0  0  0
 12 39  1  0  0  0  0
 13 14  1  0  0  0  0
 13 27  1  0  0  0  0
 13 40  1  0  0  0  0
 14 15  1  0  0  0  0
 14 41  1  0  0  0  0
 14 42  1  0  0  0  0
 15 19  1  0  0  0  0
 15 43  1  0  0  0  0
 16 21  1  0  0  0  0
 16 44  1  0  0  0  0
 16 45  1  0  0  0  0
 17 22  1  0  0  0  0
 17 46  1  0  0  0  0
 17 47  1  0  0  0  0
 18 24  1  0  0  0  0
 18 48  1  0  0  0  0
 18 49  1  0  0  0  0
 19 20  1  0  0  0  0
 19 50  1  0  0  0  0
 19 51  1  0  0  0  0
 20 52  1  0  0  0  0
 20 53  1  0  0  0  0
 21 23  1  0  0  0  0
 21 54  1  0  0  0  0
 21 55  1  0  0  0  0
 22 23  1  0  0  0  0
 22 56  1  0  0  0  0
 22 57  1  0  0  0  0
 23 58  1  0  0  0  0
 23 59  1  0  0  0  0
 24 31  1  0  0  0  0
 24 60  1  0  0  0  0
 25 26  1  0  0  0  0
 25 28  1  0  0  0  0
 25 61  1  0  0  0  0
 28 29  1  0  0  0  0
 28 62  1  0  0  0  0
 28 63  1  0  0  0  0
 29 30  1  0  0  0  0
 29 65  1  0  0  0  0
 29 66  1  0  0  0  0
 30 68  1  0  0  0  0
 30 69  1  0  0  0  0
 33 34  2  0  0  0  0
 33 35  1  0  0  0  0
 34 36  1  0  0  0  0
 34 74  1  0  0  0  0
 35 37  2  0  0  0  0
 35 75  1  0  0  0  0
 36 38  2  0  0  0  0
 37 38  1  0  0  0  0
 37 76  1  0  0  0  0
 38 77  1  0  0  0  0
M  END
> <PUBCHEM_COMPOUND_CID>
7134574

> <PUBCHEM_CONFORMER_RMSD>
1.4

> <PUBCHEM_CONFORMER_DIVERSEORDER>
1
61
60
67
37
26
65
33
56
44
9
7
5
24
35
15
41
30
14
70
57
50
27
48
11
29
64
36
20
34
55
49
13
53
43
40
25
28
39
69
3
51
52
32
66
4
18
38
45
17
22
19
42
59
8
68
23
58
6
47
16
10
31
12
21
46
54
2
63
62

> <PUBCHEM_MMFF94_PARTIAL_CHARGES>
37
1 -0.19
10 -0.8
11 -0.55
13 0.36
15 0.3
2 -0.57
20 0.3
24 0.36
25 0.33
26 0.57
27 0.57
3 -0.57
30 0.27
31 0.57
32 0.69
33 0.12
34 -0.15
35 -0.15
36 0.19
37 -0.15
38 -0.15
4 -0.57
5 -0.57
6 -0.66
64 0.37
67 0.36
7 -0.73
70 0.37
71 0.37
72 0.37
73 0.37
74 0.15
75 0.15
76 0.15
77 0.15
8 -0.9
9 -0.73

> <PUBCHEM_EFFECTIVE_ROTOR_COUNT>
15.4

> <PUBCHEM_PHARMACOPHORE_FEATURES>
14
1 10 donor
1 11 donor
1 2 acceptor
1 3 acceptor
1 4 acceptor
1 5 acceptor
1 7 donor
1 8 cation
1 8 donor
1 9 donor
5 8 25 28 29 30 rings
6 12 16 17 21 22 23 rings
6 33 34 35 36 37 38 rings
6 6 13 14 15 19 20 rings

> <PUBCHEM_HEAVY_ATOM_COUNT>
38

> <PUBCHEM_ATOM_DEF_STEREO_COUNT>
4

> <PUBCHEM_ATOM_UDEF_STEREO_COUNT>
0

> <PUBCHEM_BOND_DEF_STEREO_COUNT>
0

> <PUBCHEM_BOND_UDEF_STEREO_COUNT>
0

> <PUBCHEM_ISOTOPIC_ATOM_COUNT>
0

> <PUBCHEM_COMPONENT_COUNT>
1

> <PUBCHEM_CACTVS_TAUTO_COUNT>
12

> <PUBCHEM_CONFORMER_ID>
006CDD6E00000001

> <PUBCHEM_MMFF94_ENERGY>
78.8289

> <PUBCHEM_FEATURE_SELFOVERLAP>
71.101

> <PUBCHEM_SHAPE_FINGERPRINT>
10050765 1 18340766061225719364
10190206 1 18260537940393816583
10483366 6 18411693314529023063
11135609 149 17553736832058656239
11991303 11 18335134259023897341
12645989 146 18127126596904622599
12788726 201 18189043369059769523
12977781 61 17987215906585308912
13165053 182 16953117580384439244
13540713 4 18058153094037886640
13690498 29 18409729603487542327
14068700 675 17702954776047236586
14340393 91 18340485685585751236
14556957 393 18261965157920977414
14681490 219 18265606765859264963
14931854 50 18114170991011696662
15064986 266 18041574640749967164
15361156 5 18336278937192317532
15444296 8 18201153372827276759
15444296 9 18130799996612582543
15927050 60 18265610996470207763
16067689 391 18200861985651615863
19301676 85 18192719938976540658
21703447 108 18053370283034135608
23576562 1 18113901593177367076
244849 19 17559653204757999729
3383291 50 18270680866065864416
4440575 13 18188762839757222450
469060 322 14117803500646617394
5080951 261 18271816726181162187
5171179 24 18127684044561436209
5265222 85 18113625581709967516
57828716 94 16662032644023578682
58902169 19 17821736018413712900
59755656 520 18261670376766103932
6036956 94 17899149475276550084

> <PUBCHEM_SHAPE_MULTIPOLES>
721.39
19.78
6.75
1.9
50.01
1.64
-0.82
5.35
13.94
-15.47
1.26
-0.96
1.43
-0.96

> <PUBCHEM_SHAPE_SELFOVERLAP>
1508.88

> <PUBCHEM_SHAPE_VOLUME>
406

> <PUBCHEM_COORDINATE_TYPE>
2
5
10

$$$$
