26744501
  -OEChem-12032416283D

 39 41  0     1  0  0  0  0  0999 V2000
   -1.6395    0.2750    0.6165 S   0  0  0  0  0  0  0  0  0  0  0  0
   -7.3018   -0.9876   -0.4350 F   0  0  0  0  0  0  0  0  0  0  0  0
    6.1933   -2.2287   -0.8742 O   0  0  0  0  0  0  0  0  0  0  0  0
    2.2207    2.1463   -0.7934 O   0  0  0  0  0  0  0  0  0  0  0  0
   -1.5858    1.5252    1.3507 O   0  0  0  0  0  0  0  0  0  0  0  0
   -1.0278   -0.9239    1.1579 O   0  0  0  0  0  0  0  0  0  0  0  0
    4.0877   -0.1374    1.1168 N   0  0  1  0  0  0  0  0  0  0  0  0
    1.4178    0.0723   -0.5275 N   0  0  0  0  0  0  0  0  0  0  0  0
    0.8420    2.2297   -1.0256 N   0  0  0  0  0  0  0  0  0  0  0  0
    3.9174    0.4858   -0.2115 C   0  0  1  0  0  0  0  0  0  0  0  0
    4.4927   -0.5408   -1.2049 C   0  0  0  0  0  0  0  0  0  0  0  0
    5.0027   -1.6853   -0.3381 C   0  0  2  0  0  0  0  0  0  0  0  0
    5.2392   -1.0315    1.0099 C   0  0  0  0  0  0  0  0  0  0  0  0
    2.4760    0.8428   -0.5073 C   0  0  0  0  0  0  0  0  0  0  0  0
    4.2456    0.8341    2.1911 C   0  0  0  0  0  0  0  0  0  0  0  0
    0.4397    0.9676   -0.8501 C   0  0  0  0  0  0  0  0  0  0  0  0
   -0.9658    0.5724   -0.9945 C   0  0  0  0  0  0  0  0  0  0  0  0
   -3.3361   -0.1040    0.3019 C   0  0  0  0  0  0  0  0  0  0  0  0
   -3.7264   -1.4245    0.0785 C   0  0  0  0  0  0  0  0  0  0  0  0
   -4.2854    0.9178    0.2765 C   0  0  0  0  0  0  0  0  0  0  0  0
   -5.0659   -1.7231   -0.1702 C   0  0  0  0  0  0  0  0  0  0  0  0
   -5.6249    0.6190    0.0278 C   0  0  0  0  0  0  0  0  0  0  0  0
   -6.0153   -0.7014   -0.1955 C   0  0  0  0  0  0  0  0  0  0  0  0
    4.5295    1.3958   -0.2874 H   0  0  0  0  0  0  0  0  0  0  0  0
    3.7564   -0.9106   -1.9277 H   0  0  0  0  0  0  0  0  0  0  0  0
    5.3124   -0.0924   -1.7803 H   0  0  0  0  0  0  0  0  0  0  0  0
    4.2488   -2.4782   -0.2593 H   0  0  0  0  0  0  0  0  0  0  0  0
    5.2629   -1.7741    1.8142 H   0  0  0  0  0  0  0  0  0  0  0  0
    6.1957   -0.4920    1.0189 H   0  0  0  0  0  0  0  0  0  0  0  0
    3.3593    1.4729    2.2684 H   0  0  0  0  0  0  0  0  0  0  0  0
    5.1212    1.4771    2.0458 H   0  0  0  0  0  0  0  0  0  0  0  0
    4.3523    0.3227    3.1541 H   0  0  0  0  0  0  0  0  0  0  0  0
    5.9877   -2.5608   -1.7648 H   0  0  0  0  0  0  0  0  0  0  0  0
   -1.0557   -0.3489   -1.5772 H   0  0  0  0  0  0  0  0  0  0  0  0
   -1.5605    1.3576   -1.4712 H   0  0  0  0  0  0  0  0  0  0  0  0
   -3.0028   -2.2347    0.0864 H   0  0  0  0  0  0  0  0  0  0  0  0
   -4.0018    1.9533    0.4413 H   0  0  0  0  0  0  0  0  0  0  0  0
   -5.3702   -2.7507   -0.3459 H   0  0  0  0  0  0  0  0  0  0  0  0
   -6.3642    1.4143    0.0062 H   0  0  0  0  0  0  0  0  0  0  0  0
  1  5  2  0  0  0  0
  1  6  2  0  0  0  0
  1 17  1  0  0  0  0
  1 18  1  0  0  0  0
  2 23  1  0  0  0  0
  3 12  1  0  0  0  0
  3 33  1  0  0  0  0
  4  9  1  0  0  0  0
  4 14  1  0  0  0  0
  7 10  1  0  0  0  0
  7 13  1  0  0  0  0
  7 15  1  0  0  0  0
  8 14  2  0  0  0  0
  8 16  1  0  0  0  0
  9 16  2  0  0  0  0
 10 11  1  0  0  0  0
 10 14  1  0  0  0  0
 10 24  1  0  0  0  0
 11 12  1  0  0  0  0
 11 25  1  0  0  0  0
 11 26  1  0  0  0  0
 12 13  1  0  0  0  0
 12 27  1  0  0  0  0
 13 28  1  0  0  0  0
 13 29  1  0  0  0  0
 15 30  1  0  0  0  0
 15 31  1  0  0  0  0
 15 32  1  0  0  0  0
 16 17  1  0  0  0  0
 17 34  1  0  0  0  0
 17 35  1  0  0  0  0
 18 19  2  0  0  0  0
 18 20  1  0  0  0  0
 19 21  1  0  0  0  0
 19 36  1  0  0  0  0
 20 22  2  0  0  0  0
 20 37  1  0  0  0  0
 21 23  2  0  0  0  0
 21 38  1  0  0  0  0
 22 23  1  0  0  0  0
 22 39  1  0  0  0  0
M  END
> <PUBCHEM_COMPOUND_CID>
26744501

> <PUBCHEM_CONFORMER_RMSD>
0.8

> <PUBCHEM_CONFORMER_DIVERSEORDER>
1
25
68
59
36
42
22
75
71
46
31
27
52
5
41
67
70
65
66
19
51
77
24
69
55
30
28
62
35
8
38
39
56
85
61
12
89
74
47
40
43
86
57
73
21
49
17
7
91
4
3
37
14
16
88
50
18
26
13
33
15
10
78
48
53
11
23
2
84
72
34
83
20
54
64
79
81
45
9
44
90
6
87
32
80
63
29
60
58
82
76

> <PUBCHEM_MMFF94_PARTIAL_CHARGES>
27
1 1.2
10 0.45
12 0.28
13 0.27
14 0.3
15 0.27
16 0.34
17 0.29
18 -0.01
19 -0.15
2 -0.19
20 -0.15
21 -0.15
22 -0.15
23 0.19
3 -0.68
33 0.4
36 0.15
37 0.15
38 0.15
39 0.15
4 -0.02
5 -0.65
6 -0.65
7 -0.81
8 -0.57
9 -0.41

> <PUBCHEM_EFFECTIVE_ROTOR_COUNT>
5

> <PUBCHEM_PHARMACOPHORE_FEATURES>
9
1 3 acceptor
1 3 donor
1 5 acceptor
1 6 acceptor
1 7 cation
3 8 9 16 cation
5 4 8 9 14 16 rings
5 7 10 11 12 13 rings
6 18 19 20 21 22 23 rings

> <PUBCHEM_HEAVY_ATOM_COUNT>
23

> <PUBCHEM_ATOM_DEF_STEREO_COUNT>
2

> <PUBCHEM_ATOM_UDEF_STEREO_COUNT>
0

> <PUBCHEM_BOND_DEF_STEREO_COUNT>
0

> <PUBCHEM_BOND_UDEF_STEREO_COUNT>
0

> <PUBCHEM_ISOTOPIC_ATOM_COUNT>
0

> <PUBCHEM_COMPONENT_COUNT>
1

> <PUBCHEM_CACTVS_TAUTO_COUNT>
1

> <PUBCHEM_CONFORMER_ID>
019816B500000001

> <PUBCHEM_MMFF94_ENERGY>
32.1441

> <PUBCHEM_FEATURE_SELFOVERLAP>
45.689

> <PUBCHEM_SHAPE_FINGERPRINT>
106641 1 18202277027241169394
10692045 39 11599451218482535516
11069576 57 16081916046039101082
11724838 91 14979662326040793916
11796584 16 17458347476245208810
11858739 19 18410009940239936383
12166972 35 18413111671074331033
12236239 1 18411702093246568313
12403259 118 15195294083708464538
12516196 113 18334575750552092436
12596602 18 18060418010659802442
12788726 201 13912311378722053365
12895836 83 12396591753281250856
12895837 130 7924753684518069018
12916748 109 11241963776653079607
13533116 47 18343021116412877968
13583140 156 16987994986348608540
13668630 136 18187086161153571807
13862211 1 18040712550086512515
13914758 101 18333726902390987469
14211702 104 18190465046533350819
14251752 14 17022895723350357551
14341114 176 17203607082446995858
14341114 328 14548736230950028324
14366163 111 11674881099996492100
14787075 74 12535347904904357831
14848160 23 18060699489952520323
15048467 5 8935000361085754599
15183329 4 17603583019773098871
15188451 53 18201998811211141515
15348495 7 17632290215864905715
15420108 30 17688597056943760513
15788980 27 18131634508562301245
16752209 62 17313099701520650064
17349148 13 18411428318819165281
17492 89 18118975934155620635
17857418 61 18333448750748311751
18222031 100 18334298660720971876
190975 80 15769488850749567639
19377110 9 12967129389486067621
19489759 90 18202284684904315441
19784866 240 18336272279423244853
200 152 18342461456536228653
20028762 73 18342457045215276918
20567600 234 15410609328625986409
20645477 70 17967816085017627116
21150785 3 10809632562602104561
21267235 1 18187372043378261659
21285901 2 16009020644882634534
21521239 73 18114456873046658035
22061861 79 15285352907949519411
22079108 93 12319735869209533805
2215653 11 17313104163622229963
23016692 55 18114187406555524278
23402539 116 18412544306595928533
23522609 53 17825137868018493044
23559900 14 18336830904297457433
25122255 55 18343313560578190439
2916195 48 8934707882255378910
29717793 49 18259987084577488685
3004659 81 17749111088917453126
3411729 13 18117274977204802260
345986 75 17605250939968164544
3472631 163 8430303641805785394
351380 3 17748825202698203402
404807 14 17194059799165878095
4325135 7 14333411163859141889
4340502 62 15841554067468021623
465052 167 18410018736517789558
5104073 3 17775575238322963585
5207 123 18334861606110316286
5283156 175 18341894104874403063
543368 44 8934997058419628999
559249 180 18410857629920187167
59682541 35 11671771690204398983
59682541 52 13984652634175621642
59755656 520 11455883642626165404
6138700 20 18260551073966340554
6913067 236 15770058302824675205
8988823 20 17703504484568641160
960060 61 16732706056127398958
9971528 1 17895475937597387133
9981440 41 16890618191140508617

> <PUBCHEM_SHAPE_MULTIPOLES>
431.48
16.61
1.9
1.32
8.03
0.07
0.47
8.96
0.14
-0.99
-0.35
-1.75
-0.3
0.22

> <PUBCHEM_SHAPE_SELFOVERLAP>
907.618

> <PUBCHEM_SHAPE_VOLUME>
246

> <PUBCHEM_COORDINATE_TYPE>
2
5
10

$$$$
