40780112
  -OEChem-12032416163D

 63 67  0     1  0  0  0  0  0999 V2000
    2.3851    1.7456   -0.1490 O   0  0  0  0  0  0  0  0  0  0  0  0
    3.2535    0.6021    1.6308 O   0  0  0  0  0  0  0  0  0  0  0  0
   -1.1635   -2.5656    0.8555 O   0  0  0  0  0  0  0  0  0  0  0  0
   -0.4974    3.9476    0.6737 N   0  0  2  0  0  0  0  0  0  0  0  0
   -4.0968    0.8349    0.6164 N   0  0  0  0  0  0  0  0  0  0  0  0
   -4.3699   -0.4810    0.6211 N   0  0  0  0  0  0  0  0  0  0  0  0
    4.1757    0.4308   -0.5141 N   0  0  0  0  0  0  0  0  0  0  0  0
   -1.6319    2.9606   -1.4528 C   0  0  2  0  0  0  0  0  0  0  0  0
   -2.4417    2.5858   -0.1808 C   0  0  2  0  0  0  0  0  0  0  0  0
    0.5071    3.2225   -0.1482 C   0  0  2  0  0  0  0  0  0  0  0  0
   -0.1806    2.4583   -1.2999 C   0  0  0  0  0  0  0  0  0  0  0  0
   -1.5750    4.5024   -1.5061 C   0  0  0  0  0  0  0  0  0  0  0  0
   -1.6026    3.0314    1.0508 C   0  0  0  0  0  0  0  0  0  0  0  0
   -1.0630    5.0374   -0.1573 C   0  0  0  0  0  0  0  0  0  0  0  0
   -2.9495    1.1573   -0.0472 C   0  0  0  0  0  0  0  0  0  0  0  0
    1.3964    2.3052    0.6938 C   0  0  0  0  0  0  0  0  0  0  0  0
   -2.4362   -0.0303   -0.5083 C   0  0  0  0  0  0  0  0  0  0  0  0
   -3.3521   -1.0043   -0.0676 C   0  0  0  0  0  0  0  0  0  0  0  0
   -4.9981    1.7450    1.2843 C   0  0  0  0  0  0  0  0  0  0  0  0
   -3.2724   -2.4245   -0.2902 C   0  0  0  0  0  0  0  0  0  0  0  0
    3.2853    0.8851    0.4394 C   0  0  0  0  0  0  0  0  0  0  0  0
   -2.1845   -3.1623    0.1760 C   0  0  0  0  0  0  0  0  0  0  0  0
   -4.3022   -3.0617   -0.9823 C   0  0  0  0  0  0  0  0  0  0  0  0
   -2.1263   -4.5375   -0.0499 C   0  0  0  0  0  0  0  0  0  0  0  0
   -4.2440   -4.4370   -1.2083 C   0  0  0  0  0  0  0  0  0  0  0  0
    5.2558   -0.4640   -0.3401 C   0  0  0  0  0  0  0  0  0  0  0  0
   -3.1560   -5.1750   -0.7421 C   0  0  0  0  0  0  0  0  0  0  0  0
    6.0554   -0.8120   -1.4287 C   0  0  0  0  0  0  0  0  0  0  0  0
    5.5220   -0.9993    0.9201 C   0  0  0  0  0  0  0  0  0  0  0  0
   -1.2890   -2.4888    2.2735 C   0  0  0  0  0  0  0  0  0  0  0  0
    7.1213   -1.6954   -1.2572 C   0  0  0  0  0  0  0  0  0  0  0  0
    6.5878   -1.8826    1.0918 C   0  0  0  0  0  0  0  0  0  0  0  0
    7.3875   -2.2307    0.0030 C   0  0  0  0  0  0  0  0  0  0  0  0
   -2.0927    2.5539   -2.3591 H   0  0  0  0  0  0  0  0  0  0  0  0
   -3.3400    3.2206   -0.2118 H   0  0  0  0  0  0  0  0  0  0  0  0
    1.1834    3.9635   -0.5998 H   0  0  0  0  0  0  0  0  0  0  0  0
   -0.1467    1.3804   -1.1353 H   0  0  0  0  0  0  0  0  0  0  0  0
    0.3665    2.6469   -2.2325 H   0  0  0  0  0  0  0  0  0  0  0  0
   -2.5681    4.9156   -1.7179 H   0  0  0  0  0  0  0  0  0  0  0  0
   -0.9106    4.8232   -2.3177 H   0  0  0  0  0  0  0  0  0  0  0  0
   -2.2589    3.5476    1.7639 H   0  0  0  0  0  0  0  0  0  0  0  0
   -1.2129    2.1707    1.6063 H   0  0  0  0  0  0  0  0  0  0  0  0
   -0.3041    5.8110   -0.3273 H   0  0  0  0  0  0  0  0  0  0  0  0
   -1.8748    5.5369    0.3868 H   0  0  0  0  0  0  0  0  0  0  0  0
    0.8177    1.4951    1.1511 H   0  0  0  0  0  0  0  0  0  0  0  0
    1.8815    2.8849    1.4885 H   0  0  0  0  0  0  0  0  0  0  0  0
   -1.5419   -0.1898   -1.0902 H   0  0  0  0  0  0  0  0  0  0  0  0
   -5.4660    2.3831    0.5308 H   0  0  0  0  0  0  0  0  0  0  0  0
   -5.7670    1.1736    1.8116 H   0  0  0  0  0  0  0  0  0  0  0  0
   -4.4304    2.3390    2.0038 H   0  0  0  0  0  0  0  0  0  0  0  0
   -5.1575   -2.5043   -1.3573 H   0  0  0  0  0  0  0  0  0  0  0  0
    4.0401    0.7815   -1.4591 H   0  0  0  0  0  0  0  0  0  0  0  0
   -1.2816   -5.1191    0.3094 H   0  0  0  0  0  0  0  0  0  0  0  0
   -5.0453   -4.9332   -1.7479 H   0  0  0  0  0  0  0  0  0  0  0  0
   -3.1104   -6.2457   -0.9184 H   0  0  0  0  0  0  0  0  0  0  0  0
    5.8588   -0.4021   -2.4161 H   0  0  0  0  0  0  0  0  0  0  0  0
    4.9472   -0.7764    1.8083 H   0  0  0  0  0  0  0  0  0  0  0  0
   -0.4228   -1.9476    2.6641 H   0  0  0  0  0  0  0  0  0  0  0  0
   -1.2995   -3.4925    2.7101 H   0  0  0  0  0  0  0  0  0  0  0  0
   -2.1958   -1.9470    2.5592 H   0  0  0  0  0  0  0  0  0  0  0  0
    7.7439   -1.9665   -2.1048 H   0  0  0  0  0  0  0  0  0  0  0  0
    6.7962   -2.3001    2.0726 H   0  0  0  0  0  0  0  0  0  0  0  0
    8.2173   -2.9185    0.1367 H   0  0  0  0  0  0  0  0  0  0  0  0
  1 16  1  0  0  0  0
  1 21  1  0  0  0  0
  2 21  2  0  0  0  0
  3 22  1  0  0  0  0
  3 30  1  0  0  0  0
  4 10  1  0  0  0  0
  4 13  1  0  0  0  0
  4 14  1  0  0  0  0
  5  6  1  0  0  0  0
  5 15  1  0  0  0  0
  5 19  1  0  0  0  0
  6 18  2  0  0  0  0
  7 21  1  0  0  0  0
  7 26  1  0  0  0  0
  7 52  1  0  0  0  0
  8  9  1  0  0  0  0
  8 11  1  0  0  0  0
  8 12  1  0  0  0  0
  8 34  1  0  0  0  0
  9 13  1  0  0  0  0
  9 15  1  0  0  0  0
  9 35  1  0  0  0  0
 10 11  1  0  0  0  0
 10 16  1  0  0  0  0
 10 36  1  0  0  0  0
 11 37  1  0  0  0  0
 11 38  1  0  0  0  0
 12 14  1  0  0  0  0
 12 39  1  0  0  0  0
 12 40  1  0  0  0  0
 13 41  1  0  0  0  0
 13 42  1  0  0  0  0
 14 43  1  0  0  0  0
 14 44  1  0  0  0  0
 15 17  2  0  0  0  0
 16 45  1  0  0  0  0
 16 46  1  0  0  0  0
 17 18  1  0  0  0  0
 17 47  1  0  0  0  0
 18 20  1  0  0  0  0
 19 48  1  0  0  0  0
 19 49  1  0  0  0  0
 19 50  1  0  0  0  0
 20 22  1  0  0  0  0
 20 23  2  0  0  0  0
 22 24  2  0  0  0  0
 23 25  1  0  0  0  0
 23 51  1  0  0  0  0
 24 27  1  0  0  0  0
 24 53  1  0  0  0  0
 25 27  2  0  0  0  0
 25 54  1  0  0  0  0
 26 28  2  0  0  0  0
 26 29  1  0  0  0  0
 27 55  1  0  0  0  0
 28 31  1  0  0  0  0
 28 56  1  0  0  0  0
 29 32  2  0  0  0  0
 29 57  1  0  0  0  0
 30 58  1  0  0  0  0
 30 59  1  0  0  0  0
 30 60  1  0  0  0  0
 31 33  2  0  0  0  0
 31 61  1  0  0  0  0
 32 33  1  0  0  0  0
 32 62  1  0  0  0  0
 33 63  1  0  0  0  0
M  END
> <PUBCHEM_COMPOUND_CID>
40780112

> <PUBCHEM_CONFORMER_RMSD>
1.2

> <PUBCHEM_CONFORMER_DIVERSEORDER>
1
33
9
44
15
21
30
48
71
70
29
28
31
45
12
56
65
8
17
52
13
62
43
53
46
10
27
49
47
11
39
26
40
7
66
64
68
60
24
34
6
20
4
16
35
14
23
63
57
61
3
32
36
18
41
19
5
59
22
38
2
55
25
42
37
54
67
50
58
69
51

> <PUBCHEM_MMFF94_PARTIAL_CHARGES>
41
1 -0.43
10 0.27
13 0.27
14 0.27
15 -0.33
16 0.28
17 -0.15
18 0.23
19 0.26
2 -0.57
20 0.05
21 0.78
22 0.08
23 -0.15
24 -0.15
25 -0.15
26 0.12
27 -0.15
28 -0.15
29 -0.15
3 -0.36
30 0.28
31 -0.15
32 -0.15
33 -0.15
4 -0.81
47 0.15
5 0.31
51 0.15
52 0.37
53 0.15
54 0.15
55 0.15
56 0.15
57 0.15
6 -0.71
61 0.15
62 0.15
63 0.15
7 -0.55
9 0.18

> <PUBCHEM_EFFECTIVE_ROTOR_COUNT>
9.2

> <PUBCHEM_PHARMACOPHORE_FEATURES>
9
1 2 acceptor
1 3 acceptor
1 4 cation
1 6 acceptor
1 7 donor
5 5 6 15 17 18 rings
6 20 22 23 24 25 27 rings
6 26 28 29 31 32 33 rings
8 4 8 9 10 11 12 13 14 rings

> <PUBCHEM_HEAVY_ATOM_COUNT>
33

> <PUBCHEM_ATOM_DEF_STEREO_COUNT>
3

> <PUBCHEM_ATOM_UDEF_STEREO_COUNT>
0

> <PUBCHEM_BOND_DEF_STEREO_COUNT>
0

> <PUBCHEM_BOND_UDEF_STEREO_COUNT>
0

> <PUBCHEM_ISOTOPIC_ATOM_COUNT>
0

> <PUBCHEM_COMPONENT_COUNT>
1

> <PUBCHEM_CACTVS_TAUTO_COUNT>
2

> <PUBCHEM_CONFORMER_ID>
026E415000000001

> <PUBCHEM_MMFF94_ENERGY>
102.0632

> <PUBCHEM_FEATURE_SELFOVERLAP>
45.672

> <PUBCHEM_SHAPE_FINGERPRINT>
10290309 65 17979358551484640183
10622 236 18125999614465171495
10928967 22 18261103080432230450
10940486 97 18261115106900568980
11069576 57 17402885017732746245
11285246 1 18044370762811830515
11455722 242 18337389440353554358
117089 54 18268998751026349574
11756154 67 18410578413611243959
11763389 116 18193554463726883013
12677640 9 18272375296017015249
12788726 201 18260260811792069178
12969540 37 17834109019649543765
1361 4 18413111654875358086
13692115 46 18115307757533796661
13761468 95 17969778575391415222
14114206 34 17531236279519576000
14117953 113 18410845548235147719
14251757 5 18334862688779567920
14444916 359 17980773635887626721
14659021 117 18337099129779815904
14866123 147 18413110572137306811
15320291 9 17475506652509807382
15320294 125 18115865196928112142
15420108 30 18198063582967945425
15439362 3 16895388391803553476
15803439 3 17464784927969103181
15927050 60 17764866897524032981
17492 89 18052819444777640839
17627616 140 17901384485705022130
19301676 85 18338227280281943167
19311894 1 18410570708339766155
20764821 26 18265632016072004558
20771845 38 18125442999683256217
20775530 9 18190461743090888305
23559900 14 18051120699581713247
3146121 3 18337104696954567816
32027 91 18269827787230480357
3383291 50 18341895143718353689
3610482 184 17968961733395483334
3886686 26 18272092721133538145
4017518 198 18122341272896720893
404807 14 18266457784049694399
437795 70 18410296925881812170
437795 96 18129668478788627838
4435113 14 17630905806862724422
44880168 125 18342178860109038227
484985 159 18338511937533663685
508706 21 18342738473347780510
56633871 153 18340494464641368187
57527452 28 18264787475747857945
70251023 43 17832988630512380587
9896288 288 18126296237997640417

> <PUBCHEM_SHAPE_MULTIPOLES>
641.59
14.82
7.97
1.48
36.6
0.8
-0.2
14.69
1.07
-10.88
1.94
0.16
0.08
-0.92

> <PUBCHEM_SHAPE_SELFOVERLAP>
1392.629

> <PUBCHEM_SHAPE_VOLUME>
347.2

> <PUBCHEM_COORDINATE_TYPE>
2
5
10

$$$$
