25388796
  -OEChem-12032416163D

 58 61  0     1  0  0  0  0  0999 V2000
   -6.8360    0.2730   -0.5690 S   0  0  0  0  0  0  0  0  0  0  0  0
   -2.1765   -1.1828    1.6693 O   0  0  0  0  0  0  0  0  0  0  0  0
    2.5485   -2.9701    0.2057 N   0  0  2  0  0  0  0  0  0  0  0  0
    3.4584    1.7802    0.5112 N   0  0  1  0  0  0  0  0  0  0  0  0
   -1.1178   -2.1274   -0.1544 N   0  0  0  0  0  0  0  0  0  0  0  0
   -3.2216   -1.2760   -0.4305 N   0  0  0  0  0  0  0  0  0  0  0  0
    3.0249   -0.7209   -1.0114 C   0  0  2  0  0  0  0  0  0  0  0  0
    3.5263   -0.6743    0.4499 C   0  0  2  0  0  0  0  0  0  0  0  0
    1.3014   -2.4568   -0.4229 C   0  0  2  0  0  0  0  0  0  0  0  0
    1.5209   -1.0507   -1.0242 C   0  0  0  0  0  0  0  0  0  0  0  0
    3.0899   -1.9744    1.1622 C   0  0  0  0  0  0  0  0  0  0  0  0
    3.7545   -1.8914   -1.6978 C   0  0  0  0  0  0  0  0  0  0  0  0
    3.5515   -3.1718   -0.8683 C   0  0  0  0  0  0  0  0  0  0  0  0
    3.0600    0.5666    1.2076 C   0  0  0  0  0  0  0  0  0  0  0  0
    0.1098   -2.4847    0.5371 C   0  0  0  0  0  0  0  0  0  0  0  0
    2.6036    2.9052    0.8987 C   0  0  0  0  0  0  0  0  0  0  0  0
    4.8629    2.0966    0.7825 C   0  0  0  0  0  0  0  0  0  0  0  0
   -2.1839   -1.4923    0.4803 C   0  0  0  0  0  0  0  0  0  0  0  0
    1.2599    2.8476    0.2216 C   0  0  0  0  0  0  0  0  0  0  0  0
    1.0743    3.4698   -1.0129 C   0  0  0  0  0  0  0  0  0  0  0  0
    0.2012    2.1723    0.8285 C   0  0  0  0  0  0  0  0  0  0  0  0
   -4.4735   -0.6630   -0.1905 C   0  0  0  0  0  0  0  0  0  0  0  0
   -0.1704    3.4167   -1.6406 C   0  0  0  0  0  0  0  0  0  0  0  0
   -1.0434    2.1191    0.2011 C   0  0  0  0  0  0  0  0  0  0  0  0
   -1.2292    2.7413   -1.0336 C   0  0  0  0  0  0  0  0  0  0  0  0
   -4.8992   -0.1442    1.0664 C   0  0  0  0  0  0  0  0  0  0  0  0
   -5.4310   -0.5016   -1.1677 C   0  0  0  0  0  0  0  0  0  0  0  0
   -6.1654    0.3942    1.0019 C   0  0  0  0  0  0  0  0  0  0  0  0
    3.2234    0.2071   -1.5565 H   0  0  0  0  0  0  0  0  0  0  0  0
    4.6246   -0.6781    0.4276 H   0  0  0  0  0  0  0  0  0  0  0  0
    1.0445   -3.1383   -1.2477 H   0  0  0  0  0  0  0  0  0  0  0  0
    0.9582   -0.2846   -0.4863 H   0  0  0  0  0  0  0  0  0  0  0  0
    1.1541   -1.0386   -2.0585 H   0  0  0  0  0  0  0  0  0  0  0  0
    3.9563   -2.4110    1.6766 H   0  0  0  0  0  0  0  0  0  0  0  0
    2.3655   -1.7807    1.9609 H   0  0  0  0  0  0  0  0  0  0  0  0
    4.8249   -1.6730   -1.7900 H   0  0  0  0  0  0  0  0  0  0  0  0
    3.3631   -2.0335   -2.7124 H   0  0  0  0  0  0  0  0  0  0  0  0
    3.2381   -3.9946   -1.5228 H   0  0  0  0  0  0  0  0  0  0  0  0
    4.5048   -3.4937   -0.4300 H   0  0  0  0  0  0  0  0  0  0  0  0
    1.9817    0.4751    1.3270 H   0  0  0  0  0  0  0  0  0  0  0  0
    3.4577    0.5517    2.2321 H   0  0  0  0  0  0  0  0  0  0  0  0
   -0.0380   -3.4931    0.9398 H   0  0  0  0  0  0  0  0  0  0  0  0
    0.2458   -1.8039    1.3835 H   0  0  0  0  0  0  0  0  0  0  0  0
   -1.2443   -2.4466   -1.1101 H   0  0  0  0  0  0  0  0  0  0  0  0
    2.4831    2.9674    1.9894 H   0  0  0  0  0  0  0  0  0  0  0  0
    3.0709    3.8566    0.6080 H   0  0  0  0  0  0  0  0  0  0  0  0
    5.1654    2.9930    0.2287 H   0  0  0  0  0  0  0  0  0  0  0  0
    5.0486    2.2767    1.8477 H   0  0  0  0  0  0  0  0  0  0  0  0
    5.5314    1.2990    0.4444 H   0  0  0  0  0  0  0  0  0  0  0  0
   -3.0779   -1.5888   -1.3872 H   0  0  0  0  0  0  0  0  0  0  0  0
    1.8915    3.9971   -1.4980 H   0  0  0  0  0  0  0  0  0  0  0  0
    0.3093    1.7141    1.8076 H   0  0  0  0  0  0  0  0  0  0  0  0
   -0.3151    3.9009   -2.6019 H   0  0  0  0  0  0  0  0  0  0  0  0
   -1.8719    1.6067    0.6800 H   0  0  0  0  0  0  0  0  0  0  0  0
   -2.1992    2.7017   -1.5204 H   0  0  0  0  0  0  0  0  0  0  0  0
   -4.3331   -0.1482    1.9874 H   0  0  0  0  0  0  0  0  0  0  0  0
   -5.3787   -0.7991   -2.2061 H   0  0  0  0  0  0  0  0  0  0  0  0
   -6.7289    0.8531    1.8021 H   0  0  0  0  0  0  0  0  0  0  0  0
  1 27  1  0  0  0  0
  1 28  1  0  0  0  0
  2 18  2  0  0  0  0
  3  9  1  0  0  0  0
  3 11  1  0  0  0  0
  3 13  1  0  0  0  0
  4 14  1  0  0  0  0
  4 16  1  0  0  0  0
  4 17  1  0  0  0  0
  5 15  1  0  0  0  0
  5 18  1  0  0  0  0
  5 44  1  0  0  0  0
  6 18  1  0  0  0  0
  6 22  1  0  0  0  0
  6 50  1  0  0  0  0
  7  8  1  0  0  0  0
  7 10  1  0  0  0  0
  7 12  1  0  0  0  0
  7 29  1  0  0  0  0
  8 11  1  0  0  0  0
  8 14  1  0  0  0  0
  8 30  1  0  0  0  0
  9 10  1  0  0  0  0
  9 15  1  0  0  0  0
  9 31  1  0  0  0  0
 10 32  1  0  0  0  0
 10 33  1  0  0  0  0
 11 34  1  0  0  0  0
 11 35  1  0  0  0  0
 12 13  1  0  0  0  0
 12 36  1  0  0  0  0
 12 37  1  0  0  0  0
 13 38  1  0  0  0  0
 13 39  1  0  0  0  0
 14 40  1  0  0  0  0
 14 41  1  0  0  0  0
 15 42  1  0  0  0  0
 15 43  1  0  0  0  0
 16 19  1  0  0  0  0
 16 45  1  0  0  0  0
 16 46  1  0  0  0  0
 17 47  1  0  0  0  0
 17 48  1  0  0  0  0
 17 49  1  0  0  0  0
 19 20  2  0  0  0  0
 19 21  1  0  0  0  0
 20 23  1  0  0  0  0
 20 51  1  0  0  0  0
 21 24  2  0  0  0  0
 21 52  1  0  0  0  0
 22 26  1  0  0  0  0
 22 27  2  0  0  0  0
 23 25  2  0  0  0  0
 23 53  1  0  0  0  0
 24 25  1  0  0  0  0
 24 54  1  0  0  0  0
 25 55  1  0  0  0  0
 26 28  2  0  0  0  0
 26 56  1  0  0  0  0
 27 57  1  0  0  0  0
 28 58  1  0  0  0  0
M  END
> <PUBCHEM_COMPOUND_CID>
25388796

> <PUBCHEM_CONFORMER_RMSD>
1.2

> <PUBCHEM_CONFORMER_DIVERSEORDER>
3
43
42
76
5
31
77
65
80
32
23
105
47
56
85
7
25
67
93
16
39
69
62
95
92
46
54
78
27
84
26
70
19
96
91
28
33
38
72
103
59
97
83
15
75
60
30
100
71
34
6
104
81
98
101
87
99
21
12
48
58
41
73
9
94
63
45
11
29
50
86
22
64
53
52
44
20
36
49
74
2
13
68
18
24
8
1
10
90
82
17
51
4
66
14
40
35
61
37
79
57
55
88
89
102

> <PUBCHEM_MMFF94_PARTIAL_CHARGES>
34
1 -0.08
11 0.27
13 0.27
14 0.27
15 0.3
16 0.41
17 0.27
18 0.69
19 -0.14
2 -0.57
20 -0.15
21 -0.15
22 0.06
23 -0.15
24 -0.15
25 -0.15
26 -0.15
27 -0.11
28 -0.11
3 -0.81
4 -0.81
44 0.37
5 -0.73
50 0.37
51 0.15
52 0.15
53 0.15
54 0.15
55 0.15
56 0.15
57 0.15
58 0.15
6 -0.49
9 0.27

> <PUBCHEM_EFFECTIVE_ROTOR_COUNT>
10.2

> <PUBCHEM_PHARMACOPHORE_FEATURES>
8
1 2 acceptor
1 3 cation
1 4 cation
1 5 donor
1 6 donor
5 1 22 26 27 28 rings
6 19 20 21 23 24 25 rings
8 3 7 8 9 10 11 12 13 rings

> <PUBCHEM_HEAVY_ATOM_COUNT>
28

> <PUBCHEM_ATOM_DEF_STEREO_COUNT>
3

> <PUBCHEM_ATOM_UDEF_STEREO_COUNT>
0

> <PUBCHEM_BOND_DEF_STEREO_COUNT>
0

> <PUBCHEM_BOND_UDEF_STEREO_COUNT>
0

> <PUBCHEM_ISOTOPIC_ATOM_COUNT>
0

> <PUBCHEM_COMPONENT_COUNT>
1

> <PUBCHEM_CACTVS_TAUTO_COUNT>
3

> <PUBCHEM_CONFORMER_ID>
018366FC00000003

> <PUBCHEM_MMFF94_ENERGY>
68.6883

> <PUBCHEM_FEATURE_SELFOVERLAP>
40.65

> <PUBCHEM_SHAPE_FINGERPRINT>
10483366 6 18191330328172488292
10688039 33 18114461145868710869
10864689 126 17689431590769567837
10906281 52 18188499110836266176
11513181 2 17846787316419622991
12156800 1 17537969521293028008
12422481 6 18195218187870587288
12645989 146 18199753526921874070
12788726 201 18042975254801511570
13075007 39 17823434845435136105
13402501 40 18335976536491563948
1361 2 18342171194114946495
14117953 113 18409164454780430260
14251757 17 18261377924396478669
14725015 67 18190447273335681299
14790565 3 17832708242041569892
15081414 286 18409733975743397397
15210252 30 18041293144108510228
15420108 30 18057027228801609134
15475509 84 17971456413272134242
15664445 248 18113904900560478372
15840311 113 17988094284049255489
17093844 170 18337951293930135840
17818456 19 17845667949785940761
18785283 64 18043263533760253689
20511986 3 17631720669226819921
20554085 129 16443331059103064363
20587220 17 17846486054951065741
20642791 105 17609485034555176742
20775530 9 18266459810825092476
21033648 29 17603860084325039671
21285901 2 18260819402237965013
21298829 104 18343865537333308329
21860390 5 18342177807852587446
3014063 31 18338234864950736901
338550 245 18410302380690854809
394071 54 18411704305096840241
474 4 18269270325739036531
513532 50 17775015629791022212
5265222 85 17904772428664510260
550186 83 17677872682202790872
57527573 199 18042400408516005250
6443956 14 18341053003262911001
70251023 43 18196942067152196818

> <PUBCHEM_SHAPE_MULTIPOLES>
554.28
11.93
4.74
1.45
21.48
2.18
0.16
-2.48
-0.56
-5
0.94
-0.22
0.17
1.38

> <PUBCHEM_SHAPE_SELFOVERLAP>
1158.9

> <PUBCHEM_SHAPE_VOLUME>
316.3

> <PUBCHEM_COORDINATE_TYPE>
2
5
10

$$$$
