75367706
  -OEChem-12032416403D

 39 41  0     1  0  0  0  0  0999 V2000
   -2.9789    4.0993    0.3998 F   0  0  0  0  0  0  0  0  0  0  0  0
    1.3015   -3.6714    0.4718 O   0  0  0  0  0  0  0  0  0  0  0  0
    1.6812   -0.0970    1.2028 O   0  0  0  0  0  0  0  0  0  0  0  0
   -2.9933   -1.8733   -1.3876 O   0  0  0  0  0  0  0  0  0  0  0  0
   -1.2447   -2.0354    0.1655 N   0  0  0  0  0  0  0  0  0  0  0  0
    2.7018    0.3485   -0.8381 N   0  0  0  0  0  0  0  0  0  0  0  0
    4.0386    2.5159    0.3373 N   0  0  0  0  0  0  0  0  0  0  0  0
    1.0437   -1.1786    0.5254 C   0  0  2  0  0  0  0  0  0  0  0  0
   -0.3409   -1.3934    1.1335 C   0  0  0  0  0  0  0  0  0  0  0  0
   -1.0352   -3.4658   -0.0715 C   0  0  0  0  0  0  0  0  0  0  0  0
    1.9493   -2.4117    0.5968 C   0  0  0  0  0  0  0  0  0  0  0  0
    0.3647   -3.7713   -0.5949 C   0  0  0  0  0  0  0  0  0  0  0  0
   -2.2463   -1.3674   -0.5515 C   0  0  0  0  0  0  0  0  0  0  0  0
   -2.4380    0.0664   -0.3016 C   0  0  0  0  0  0  0  0  0  0  0  0
    2.5342    0.6714    0.4597 C   0  0  0  0  0  0  0  0  0  0  0  0
   -1.7329    1.0057   -1.0541 C   0  0  0  0  0  0  0  0  0  0  0  0
   -3.3256    0.4896    0.6877 C   0  0  0  0  0  0  0  0  0  0  0  0
   -1.9153    2.3681   -0.8171 C   0  0  0  0  0  0  0  0  0  0  0  0
   -3.5079    1.8519    0.9248 C   0  0  0  0  0  0  0  0  0  0  0  0
    3.1908    1.7360    1.0370 C   0  0  0  0  0  0  0  0  0  0  0  0
   -2.8028    2.7912    0.1724 C   0  0  0  0  0  0  0  0  0  0  0  0
    3.5497    1.1283   -1.5378 C   0  0  0  0  0  0  0  0  0  0  0  0
    4.2063    2.1928   -0.9604 C   0  0  0  0  0  0  0  0  0  0  0  0
    0.8621   -0.9280   -0.5283 H   0  0  0  0  0  0  0  0  0  0  0  0
   -0.7508   -0.4352    1.4634 H   0  0  0  0  0  0  0  0  0  0  0  0
   -0.2912   -2.0188    2.0331 H   0  0  0  0  0  0  0  0  0  0  0  0
   -1.7737   -3.8344   -0.7903 H   0  0  0  0  0  0  0  0  0  0  0  0
   -1.2121   -3.9768    0.8821 H   0  0  0  0  0  0  0  0  0  0  0  0
    2.7314   -2.3497   -0.1693 H   0  0  0  0  0  0  0  0  0  0  0  0
    2.4809   -2.4270    1.5558 H   0  0  0  0  0  0  0  0  0  0  0  0
    0.3884   -4.8138   -0.9295 H   0  0  0  0  0  0  0  0  0  0  0  0
    0.6499   -3.1454   -1.4484 H   0  0  0  0  0  0  0  0  0  0  0  0
   -1.0379    0.6869   -1.8266 H   0  0  0  0  0  0  0  0  0  0  0  0
   -3.8799   -0.2339    1.2800 H   0  0  0  0  0  0  0  0  0  0  0  0
   -1.3659    3.0996   -1.4023 H   0  0  0  0  0  0  0  0  0  0  0  0
   -4.1987    2.1818    1.6950 H   0  0  0  0  0  0  0  0  0  0  0  0
    3.0588    1.9992    2.0797 H   0  0  0  0  0  0  0  0  0  0  0  0
    3.6847    0.8693   -2.5805 H   0  0  0  0  0  0  0  0  0  0  0  0
    4.8874    2.8189   -1.5233 H   0  0  0  0  0  0  0  0  0  0  0  0
  1 21  1  0  0  0  0
  2 11  1  0  0  0  0
  2 12  1  0  0  0  0
  3  8  1  0  0  0  0
  3 15  1  0  0  0  0
  4 13  2  0  0  0  0
  5  9  1  0  0  0  0
  5 10  1  0  0  0  0
  5 13  1  0  0  0  0
  6 15  2  0  0  0  0
  6 22  1  0  0  0  0
  7 20  2  0  0  0  0
  7 23  1  0  0  0  0
  8  9  1  0  0  0  0
  8 11  1  0  0  0  0
  8 24  1  0  0  0  0
  9 25  1  0  0  0  0
  9 26  1  0  0  0  0
 10 12  1  0  0  0  0
 10 27  1  0  0  0  0
 10 28  1  0  0  0  0
 11 29  1  0  0  0  0
 11 30  1  0  0  0  0
 12 31  1  0  0  0  0
 12 32  1  0  0  0  0
 13 14  1  0  0  0  0
 14 16  2  0  0  0  0
 14 17  1  0  0  0  0
 15 20  1  0  0  0  0
 16 18  1  0  0  0  0
 16 33  1  0  0  0  0
 17 19  2  0  0  0  0
 17 34  1  0  0  0  0
 18 21  2  0  0  0  0
 18 35  1  0  0  0  0
 19 21  1  0  0  0  0
 19 36  1  0  0  0  0
 20 37  1  0  0  0  0
 22 23  2  0  0  0  0
 22 38  1  0  0  0  0
 23 39  1  0  0  0  0
M  END
> <PUBCHEM_COMPOUND_CID>
75367706

> <PUBCHEM_CONFORMER_RMSD>
0.8

> <PUBCHEM_CONFORMER_DIVERSEORDER>
6
168
33
54
156
145
108
123
155
35
120
179
138
69
134
97
2
29
85
176
56
57
144
135
112
170
141
89
94
90
9
121
24
75
10
150
184
165
44
71
87
159
171
86
36
142
128
125
73
132
81
169
21
105
5
72
34
52
158
70
111
106
153
30
59
140
109
67
22
130
60
3
17
79
48
167
53
77
96
151
136
38
62
124
163
80
172
157
129
99
154
78
40
68
147
166
1
28
182
178
110
76
51
101
114
115
164
65
12
55
4
177
42
133
161
32
103
88
118
39
7
160
19
143
127
180
20
146
84
91
18
183
98
181
64
104
126
66
49
137
74
61
31
15
63
83
148
50
26
11
149
175
139
113
43
27
152
162
23
16
41
116
102
100
92
13
174
14
8
122
107
131
95
58
93
173
117
46
47
82
37
45
25
119

> <PUBCHEM_MMFF94_PARTIAL_CHARGES>
30
1 -0.19
10 0.3
11 0.28
12 0.28
13 0.54
14 0.09
15 0.39
16 -0.15
17 -0.15
18 -0.15
19 -0.15
2 -0.56
20 0.16
21 0.19
22 0.16
23 0.16
3 -0.36
33 0.15
34 0.15
35 0.15
36 0.15
37 0.15
38 0.15
39 0.15
4 -0.57
5 -0.66
6 -0.62
7 -0.62
8 0.28
9 0.3

> <PUBCHEM_EFFECTIVE_ROTOR_COUNT>
5.4

> <PUBCHEM_PHARMACOPHORE_FEATURES>
6
1 2 acceptor
1 4 acceptor
1 7 acceptor
6 14 16 17 18 19 21 rings
6 6 7 15 20 22 23 rings
7 2 5 8 9 10 11 12 rings

> <PUBCHEM_HEAVY_ATOM_COUNT>
23

> <PUBCHEM_ATOM_DEF_STEREO_COUNT>
1

> <PUBCHEM_ATOM_UDEF_STEREO_COUNT>
0

> <PUBCHEM_BOND_DEF_STEREO_COUNT>
0

> <PUBCHEM_BOND_UDEF_STEREO_COUNT>
0

> <PUBCHEM_ISOTOPIC_ATOM_COUNT>
0

> <PUBCHEM_COMPONENT_COUNT>
1

> <PUBCHEM_CACTVS_TAUTO_COUNT>
1

> <PUBCHEM_CONFORMER_ID>
047E051A00000006

> <PUBCHEM_MMFF94_ENERGY>
75.5839

> <PUBCHEM_FEATURE_SELFOVERLAP>
30.448

> <PUBCHEM_SHAPE_FINGERPRINT>
10006869 2 18335982068964050755
10165383 225 18268733682402209729
10498660 4 18337381764044320317
10670039 82 18262524818156224980
10871710 139 18339924939108762973
11582403 64 16411491490936623754
11725454 13 16914224538384245146
12156800 1 11757162038974987956
12173636 292 18412260653400703869
12422481 6 17757518913018276826
12539773 59 17100335623863263054
12788726 201 18194114342198347807
128993 33 18336548196707291757
13140716 1 18191579761827578017
13761468 95 17821731667469541004
14081887 123 18051119595548381776
14123250 116 18410572920079014389
14713325 29 18043833067656284866
14790565 3 18265903643263795929
14955137 171 17687483664023855859
151778 21 18195256515879252153
17492 54 17899671730199122535
17818456 19 18192126383069636330
18785283 64 17977678506628969457
20465049 17 18053687792284903285
20671657 1 18195526995586158327
21524375 3 18260823821806480146
21860390 5 17621875388365473207
23557571 272 17691123064785718744
23558518 356 18193260924256200683
238 59 17250293273432540637
350125 39 18338233765312839915
469060 322 18047769357816759115
5048184 11 18410013204178321421
5252454 2 18340775844691552497
5312544 6 18267295435995352637
5939293 188 17688866441280947363
6287921 2 18263653874446908687
81228 2 17760933239681782226
9981440 41 18335690697975754954

> <PUBCHEM_SHAPE_MULTIPOLES>
433.5
7.07
5.14
1.24
3.9
2.08
0.14
-7.18
0.58
-1.34
0
0.32
-0.17
-1.05

> <PUBCHEM_SHAPE_SELFOVERLAP>
926.874

> <PUBCHEM_SHAPE_VOLUME>
238

> <PUBCHEM_COORDINATE_TYPE>
2
5
10

$$$$
