38030342
  -OEChem-12032416203D

 56 58  0     1  0  0  0  0  0999 V2000
   -1.5465    0.4274    0.8197 O   0  0  0  0  0  0  0  0  0  0  0  0
    3.5608   -1.4599    0.2405 N   0  0  0  0  0  0  0  0  0  0  0  0
   -1.7961    2.5884    1.3411 N   0  0  0  0  0  0  0  0  0  0  0  0
   -3.0436    2.0752    1.0385 N   0  0  0  0  0  0  0  0  0  0  0  0
    1.6097    0.2121   -1.3184 C   0  0  1  0  0  0  0  0  0  0  0  0
    3.1452    0.4152   -1.2905 C   0  0  1  0  0  0  0  0  0  0  0  0
    0.8877    1.5526   -1.1134 C   0  0  0  0  0  0  0  0  0  0  0  0
    1.2675    2.2207    0.2216 C   0  0  2  0  0  0  0  0  0  0  0  0
    1.1448   -0.4323   -2.6281 C   0  0  0  0  0  0  0  0  0  0  0  0
    2.7660    2.2179    0.4463 C   0  0  0  0  0  0  0  0  0  0  0  0
    3.5906    1.4139   -0.2482 C   0  0  0  0  0  0  0  0  0  0  0  0
    3.8751   -0.9144   -1.0687 C   0  0  0  0  0  0  0  0  0  0  0  0
    0.5352    1.5630    1.3964 C   0  0  0  0  0  0  0  0  0  0  0  0
   -0.1828   -1.1551   -2.4236 C   0  0  0  0  0  0  0  0  0  0  0  0
    1.0244    0.6202   -3.7255 C   0  0  0  0  0  0  0  0  0  0  0  0
    3.3009    3.1942    1.4568 C   0  0  0  0  0  0  0  0  0  0  0  0
   -0.9536    1.5918    1.2005 C   0  0  0  0  0  0  0  0  0  0  0  0
    4.2424   -2.7305    0.4571 C   0  0  0  0  0  0  0  0  0  0  0  0
   -2.8497    0.8118    0.7400 C   0  0  0  0  0  0  0  0  0  0  0  0
    3.9099   -3.2855    1.7728 C   0  0  0  0  0  0  0  0  0  0  0  0
   -3.7817   -0.2066    0.3510 C   0  0  0  0  0  0  0  0  0  0  0  0
   -5.1392    0.0949    0.2432 C   0  0  0  0  0  0  0  0  0  0  0  0
   -3.3304   -1.4983    0.0804 C   0  0  0  0  0  0  0  0  0  0  0  0
    3.6409   -3.7448    2.8490 C   0  0  0  0  0  0  0  0  0  0  0  0
   -6.0458   -0.8955   -0.1351 C   0  0  0  0  0  0  0  0  0  0  0  0
   -4.2369   -2.4888   -0.2978 C   0  0  0  0  0  0  0  0  0  0  0  0
   -5.5946   -2.1874   -0.4056 C   0  0  0  0  0  0  0  0  0  0  0  0
    1.3235   -0.4500   -0.4917 H   0  0  0  0  0  0  0  0  0  0  0  0
    3.4803    0.8144   -2.2564 H   0  0  0  0  0  0  0  0  0  0  0  0
   -0.1958    1.4531   -1.2203 H   0  0  0  0  0  0  0  0  0  0  0  0
    1.1962    2.2673   -1.8888 H   0  0  0  0  0  0  0  0  0  0  0  0
    0.9364    3.2669    0.1505 H   0  0  0  0  0  0  0  0  0  0  0  0
    1.8646   -1.1866   -2.9613 H   0  0  0  0  0  0  0  0  0  0  0  0
    4.6631    1.4892   -0.0790 H   0  0  0  0  0  0  0  0  0  0  0  0
    4.9578   -0.7478   -1.1514 H   0  0  0  0  0  0  0  0  0  0  0  0
    3.6129   -1.6322   -1.8525 H   0  0  0  0  0  0  0  0  0  0  0  0
    0.7542    2.0958    2.3297 H   0  0  0  0  0  0  0  0  0  0  0  0
    0.8668    0.5286    1.5468 H   0  0  0  0  0  0  0  0  0  0  0  0
   -0.9865   -0.4724   -2.1317 H   0  0  0  0  0  0  0  0  0  0  0  0
   -0.0947   -1.9268   -1.6514 H   0  0  0  0  0  0  0  0  0  0  0  0
   -0.4944   -1.6514   -3.3494 H   0  0  0  0  0  0  0  0  0  0  0  0
    0.1614    1.2816   -3.5958 H   0  0  0  0  0  0  0  0  0  0  0  0
    0.8721    0.1186   -4.6893 H   0  0  0  0  0  0  0  0  0  0  0  0
    1.9299    1.2248   -3.8325 H   0  0  0  0  0  0  0  0  0  0  0  0
    4.3955    3.1890    1.4956 H   0  0  0  0  0  0  0  0  0  0  0  0
    2.9358    2.9536    2.4595 H   0  0  0  0  0  0  0  0  0  0  0  0
    2.9860    4.2122    1.2052 H   0  0  0  0  0  0  0  0  0  0  0  0
    3.8384   -0.8036    0.9697 H   0  0  0  0  0  0  0  0  0  0  0  0
    3.9473   -3.4515   -0.3145 H   0  0  0  0  0  0  0  0  0  0  0  0
    5.3285   -2.5964    0.3877 H   0  0  0  0  0  0  0  0  0  0  0  0
   -5.5134    1.0950    0.4491 H   0  0  0  0  0  0  0  0  0  0  0  0
   -2.2810   -1.7718    0.1540 H   0  0  0  0  0  0  0  0  0  0  0  0
    3.4021   -4.1519    3.8037 H   0  0  0  0  0  0  0  0  0  0  0  0
   -7.1030   -0.6610   -0.2191 H   0  0  0  0  0  0  0  0  0  0  0  0
   -3.8859   -3.4948   -0.5087 H   0  0  0  0  0  0  0  0  0  0  0  0
   -6.3003   -2.9586   -0.7001 H   0  0  0  0  0  0  0  0  0  0  0  0
  1 17  1  0  0  0  0
  1 19  1  0  0  0  0
  2 12  1  0  0  0  0
  2 18  1  0  0  0  0
  2 48  1  0  0  0  0
  3  4  1  0  0  0  0
  3 17  2  0  0  0  0
  4 19  2  0  0  0  0
  5  6  1  0  0  0  0
  5  7  1  0  0  0  0
  5  9  1  0  0  0  0
  5 28  1  0  0  0  0
  6 11  1  0  0  0  0
  6 12  1  0  0  0  0
  6 29  1  0  0  0  0
  7  8  1  0  0  0  0
  7 30  1  0  0  0  0
  7 31  1  0  0  0  0
  8 10  1  0  0  0  0
  8 13  1  0  0  0  0
  8 32  1  0  0  0  0
  9 14  1  0  0  0  0
  9 15  1  0  0  0  0
  9 33  1  0  0  0  0
 10 11  2  0  0  0  0
 10 16  1  0  0  0  0
 11 34  1  0  0  0  0
 12 35  1  0  0  0  0
 12 36  1  0  0  0  0
 13 17  1  0  0  0  0
 13 37  1  0  0  0  0
 13 38  1  0  0  0  0
 14 39  1  0  0  0  0
 14 40  1  0  0  0  0
 14 41  1  0  0  0  0
 15 42  1  0  0  0  0
 15 43  1  0  0  0  0
 15 44  1  0  0  0  0
 16 45  1  0  0  0  0
 16 46  1  0  0  0  0
 16 47  1  0  0  0  0
 18 20  1  0  0  0  0
 18 49  1  0  0  0  0
 18 50  1  0  0  0  0
 19 21  1  0  0  0  0
 20 24  3  0  0  0  0
 21 22  2  0  0  0  0
 21 23  1  0  0  0  0
 22 25  1  0  0  0  0
 22 51  1  0  0  0  0
 23 26  2  0  0  0  0
 23 52  1  0  0  0  0
 24 53  1  0  0  0  0
 25 27  2  0  0  0  0
 25 54  1  0  0  0  0
 26 27  1  0  0  0  0
 26 55  1  0  0  0  0
 27 56  1  0  0  0  0
M  END
> <PUBCHEM_COMPOUND_CID>
38030342

> <PUBCHEM_CONFORMER_RMSD>
0.8

> <PUBCHEM_CONFORMER_DIVERSEORDER>
1
101
79
17
10
94
147
132
148
118
115
59
128
47
14
112
106
154
18
96
66
104
134
38
52
81
84
122
74
110
127
15
143
165
130
58
51
82
152
166
88
25
157
149
126
162
70
36
90
30
123
85
161
43
46
145
48
108
100
93
49
32
5
9
98
13
120
86
60
23
102
68
155
29
125
121
42
97
62
135
124
142
20
113
67
40
99
55
19
76
95
26
156
138
150
144
24
50
133
3
119
91
116
83
2
44
167
22
169
34
159
57
65
71
158
54
87
77
39
56
6
11
28
137
61
8
146
63
21
107
136
78
117
129
92
140
103
41
139
131
163
114
111
7
64
168
16
33
69
141
73
89
80
153
72
35
75
151
31
105
27
4
53
164
12
109
45
37
160

> <PUBCHEM_MMFF94_PARTIAL_CHARGES>
30
1 -0.28
10 -0.28
11 -0.29
12 0.27
13 0.18
16 0.14
17 0.3
18 0.47
19 0.43
2 -0.9
20 -0.2
21 0.05
22 -0.15
23 -0.15
24 -0.18
25 -0.15
26 -0.15
27 -0.15
3 -0.34
34 0.15
4 -0.34
48 0.36
51 0.15
52 0.15
53 0.18
54 0.15
55 0.15
56 0.15
6 0.14
8 0.14

> <PUBCHEM_EFFECTIVE_ROTOR_COUNT>
7.8

> <PUBCHEM_PHARMACOPHORE_FEATURES>
7
1 2 cation
1 2 donor
1 24 hydrophobe
3 9 14 15 hydrophobe
5 1 3 4 17 19 rings
6 21 22 23 25 26 27 rings
6 5 6 7 8 10 11 rings

> <PUBCHEM_HEAVY_ATOM_COUNT>
27

> <PUBCHEM_ATOM_DEF_STEREO_COUNT>
3

> <PUBCHEM_ATOM_UDEF_STEREO_COUNT>
0

> <PUBCHEM_BOND_DEF_STEREO_COUNT>
0

> <PUBCHEM_BOND_UDEF_STEREO_COUNT>
0

> <PUBCHEM_ISOTOPIC_ATOM_COUNT>
0

> <PUBCHEM_COMPONENT_COUNT>
1

> <PUBCHEM_CACTVS_TAUTO_COUNT>
1

> <PUBCHEM_CONFORMER_ID>
02444C0600000001

> <PUBCHEM_MMFF94_ENERGY>
48.3699

> <PUBCHEM_FEATURE_SELFOVERLAP>
35.522

> <PUBCHEM_SHAPE_FINGERPRINT>
11578080 2 17969209067529627556
12422481 6 16988837259568677903
12633257 1 18057338196838635177
12977781 61 17608890311050897664
131258 38 18409439294101642926
13165053 137 13571687779270211715
13402501 40 17773888669538596293
13533116 47 18334857229618165635
13583140 156 18339346518404008564
14028597 1 16549408843561937130
14178342 30 17058109700132159736
14480069 147 17895774949316029411
14674994 50 16886373552112326254
18681886 176 17131563816352032076
20626108 58 18271812272237052352
20775530 9 17027128693052533130
21315764 119 17676482853114774679
21703447 108 18342731944733863344
23559900 14 17702684154247024573
239999 70 17631465629563222492
25222932 49 17911236440607755407
3004659 81 18272662259365908965
3680242 22 18272102578014787075
46194498 28 15359987825862139114
484985 159 16962369575484808674
5104073 3 17918004897001969017
513532 50 16370725976007387580
59025328 239 17530963545144412190
66674814 147 17603869957875040114
6823239 73 17273163252634282676
9709674 26 17559417806770812117

> <PUBCHEM_SHAPE_MULTIPOLES>
534.83
11.3
4.05
2.66
14.1
2.43
-1.94
8.15
2.34
-4.71
3.43
-2.58
0.49
-2.64

> <PUBCHEM_SHAPE_SELFOVERLAP>
1118.406

> <PUBCHEM_SHAPE_VOLUME>
301.9

> <PUBCHEM_COORDINATE_TYPE>
2
5
10

$$$$
