11882080
  -OEChem-12032416363D

 67 69  0     1  0  0  0  0  0999 V2000
    5.4974   -3.5757    0.3587 S   0  0  0  0  0  0  0  0  0  0  0  0
   -6.4885    0.9109   -1.3793 S   0  0  0  0  0  0  0  0  0  0  0  0
    3.3774    0.2314    0.7536 O   0  0  0  0  0  0  0  0  0  0  0  0
    3.2446   -2.3183   -1.7697 O   0  0  0  0  0  0  0  0  0  0  0  0
   -1.9504   -0.0882    0.3284 O   0  0  0  0  0  0  0  0  0  0  0  0
    3.2823    1.5210   -3.0129 O   0  0  0  0  0  0  0  0  0  0  0  0
    2.3825   -2.2130    0.3759 N   0  0  0  0  0  0  0  0  0  0  0  0
   -0.6486   -1.8466    1.0754 N   0  0  0  0  0  0  0  0  0  0  0  0
    1.8142    1.1231   -0.7230 N   0  0  0  0  0  0  0  0  0  0  0  0
   -2.8074   -2.2719    0.4212 N   0  0  0  0  0  0  0  0  0  0  0  0
    4.5505    3.0710   -1.8876 N   0  0  0  0  0  0  0  0  0  0  0  0
    0.5410   -1.0731    1.3415 C   0  0  2  0  0  0  0  0  0  0  0  0
    1.4842   -1.0874    0.1386 C   0  0  1  0  0  0  0  0  0  0  0  0
    1.3775   -1.7042    2.4579 C   0  0  0  0  0  0  0  0  0  0  0  0
    2.2355   -2.7328    1.7327 C   0  0  0  0  0  0  0  0  0  0  0  0
    2.3422    0.1421    0.0988 C   0  0  0  0  0  0  0  0  0  0  0  0
    3.1423   -2.7841   -0.6336 C   0  0  0  0  0  0  0  0  0  0  0  0
    2.4376    2.4124   -0.9159 C   0  0  2  0  0  0  0  0  0  0  0  0
    3.8759   -4.0476   -0.2599 C   0  0  0  0  0  0  0  0  0  0  0  0
   -1.8299   -1.2852    0.5784 C   0  0  0  0  0  0  0  0  0  0  0  0
    1.4175    3.5038   -1.2598 C   0  0  0  0  0  0  0  0  0  0  0  0
    3.4480    2.2572   -2.0432 C   0  0  0  0  0  0  0  0  0  0  0  0
    0.6850    4.0216   -0.0460 C   0  0  0  0  0  0  0  0  0  0  0  0
   -4.1307   -2.1150   -0.0529 C   0  0  0  0  0  0  0  0  0  0  0  0
   -0.5042    3.4167    0.3614 C   0  0  0  0  0  0  0  0  0  0  0  0
    1.1971    5.1045    0.6687 C   0  0  0  0  0  0  0  0  0  0  0  0
    6.1481   -5.2247    0.7238 C   0  0  0  0  0  0  0  0  0  0  0  0
   -4.5922   -0.8538   -0.4302 C   0  0  0  0  0  0  0  0  0  0  0  0
   -4.9743   -3.2222   -0.1429 C   0  0  0  0  0  0  0  0  0  0  0  0
   -1.1814    3.8950    1.4832 C   0  0  0  0  0  0  0  0  0  0  0  0
    0.5200    5.5825    1.7906 C   0  0  0  0  0  0  0  0  0  0  0  0
   -0.6693    4.9778    2.1978 C   0  0  0  0  0  0  0  0  0  0  0  0
   -5.8977   -0.7000   -0.8972 C   0  0  0  0  0  0  0  0  0  0  0  0
   -6.2795   -3.0683   -0.6097 C   0  0  0  0  0  0  0  0  0  0  0  0
   -6.7413   -1.8073   -0.9870 C   0  0  0  0  0  0  0  0  0  0  0  0
   -6.3054    1.8483    0.1641 C   0  0  0  0  0  0  0  0  0  0  0  0
    0.2342   -0.0576    1.6170 H   0  0  0  0  0  0  0  0  0  0  0  0
    0.9727   -1.2288   -0.8206 H   0  0  0  0  0  0  0  0  0  0  0  0
    0.7815   -2.1526    3.2588 H   0  0  0  0  0  0  0  0  0  0  0  0
    2.0258   -0.9420    2.9071 H   0  0  0  0  0  0  0  0  0  0  0  0
    3.2067   -2.8729    2.2129 H   0  0  0  0  0  0  0  0  0  0  0  0
    1.7182   -3.6967    1.6761 H   0  0  0  0  0  0  0  0  0  0  0  0
   -0.6076   -2.8544    1.1929 H   0  0  0  0  0  0  0  0  0  0  0  0
    0.9752    0.9182   -1.2583 H   0  0  0  0  0  0  0  0  0  0  0  0
    2.9803    2.6678    0.0035 H   0  0  0  0  0  0  0  0  0  0  0  0
    3.9891   -4.6538   -1.1651 H   0  0  0  0  0  0  0  0  0  0  0  0
    3.3298   -4.6487    0.4692 H   0  0  0  0  0  0  0  0  0  0  0  0
    0.6925    3.1408   -2.0010 H   0  0  0  0  0  0  0  0  0  0  0  0
    1.9194    4.3517   -1.7455 H   0  0  0  0  0  0  0  0  0  0  0  0
   -2.5442   -3.2201    0.6775 H   0  0  0  0  0  0  0  0  0  0  0  0
    5.2953    3.0755   -2.5767 H   0  0  0  0  0  0  0  0  0  0  0  0
    4.6626    3.6920   -1.0927 H   0  0  0  0  0  0  0  0  0  0  0  0
   -0.9141    2.5736   -0.1879 H   0  0  0  0  0  0  0  0  0  0  0  0
    2.1240    5.5824    0.3628 H   0  0  0  0  0  0  0  0  0  0  0  0
    5.5260   -5.7212    1.4731 H   0  0  0  0  0  0  0  0  0  0  0  0
    6.1835   -5.8295   -0.1859 H   0  0  0  0  0  0  0  0  0  0  0  0
    7.1627   -5.1318    1.1201 H   0  0  0  0  0  0  0  0  0  0  0  0
   -3.9767    0.0336   -0.3908 H   0  0  0  0  0  0  0  0  0  0  0  0
   -4.6272   -4.2104    0.1479 H   0  0  0  0  0  0  0  0  0  0  0  0
   -2.1073    3.4238    1.7999 H   0  0  0  0  0  0  0  0  0  0  0  0
    0.9190    6.4252    2.3477 H   0  0  0  0  0  0  0  0  0  0  0  0
   -1.1964    5.3499    3.0715 H   0  0  0  0  0  0  0  0  0  0  0  0
   -6.9364   -3.9304   -0.6796 H   0  0  0  0  0  0  0  0  0  0  0  0
   -7.7619   -1.7071   -1.3483 H   0  0  0  0  0  0  0  0  0  0  0  0
   -6.7326    2.8455    0.0294 H   0  0  0  0  0  0  0  0  0  0  0  0
   -5.2506    1.9572    0.4296 H   0  0  0  0  0  0  0  0  0  0  0  0
   -6.8361    1.3479    0.9786 H   0  0  0  0  0  0  0  0  0  0  0  0
  1 19  1  0  0  0  0
  1 27  1  0  0  0  0
  2 33  1  0  0  0  0
  2 36  1  0  0  0  0
  3 16  2  0  0  0  0
  4 17  2  0  0  0  0
  5 20  2  0  0  0  0
  6 22  2  0  0  0  0
  7 13  1  0  0  0  0
  7 15  1  0  0  0  0
  7 17  1  0  0  0  0
  8 12  1  0  0  0  0
  8 20  1  0  0  0  0
  8 43  1  0  0  0  0
  9 16  1  0  0  0  0
  9 18  1  0  0  0  0
  9 44  1  0  0  0  0
 10 20  1  0  0  0  0
 10 24  1  0  0  0  0
 10 50  1  0  0  0  0
 11 22  1  0  0  0  0
 11 51  1  0  0  0  0
 11 52  1  0  0  0  0
 12 13  1  0  0  0  0
 12 14  1  0  0  0  0
 12 37  1  0  0  0  0
 13 16  1  0  0  0  0
 13 38  1  0  0  0  0
 14 15  1  0  0  0  0
 14 39  1  0  0  0  0
 14 40  1  0  0  0  0
 15 41  1  0  0  0  0
 15 42  1  0  0  0  0
 17 19  1  0  0  0  0
 18 21  1  0  0  0  0
 18 22  1  0  0  0  0
 18 45  1  0  0  0  0
 19 46  1  0  0  0  0
 19 47  1  0  0  0  0
 21 23  1  0  0  0  0
 21 48  1  0  0  0  0
 21 49  1  0  0  0  0
 23 25  2  0  0  0  0
 23 26  1  0  0  0  0
 24 28  2  0  0  0  0
 24 29  1  0  0  0  0
 25 30  1  0  0  0  0
 25 53  1  0  0  0  0
 26 31  2  0  0  0  0
 26 54  1  0  0  0  0
 27 55  1  0  0  0  0
 27 56  1  0  0  0  0
 27 57  1  0  0  0  0
 28 33  1  0  0  0  0
 28 58  1  0  0  0  0
 29 34  2  0  0  0  0
 29 59  1  0  0  0  0
 30 32  2  0  0  0  0
 30 60  1  0  0  0  0
 31 32  1  0  0  0  0
 31 61  1  0  0  0  0
 32 62  1  0  0  0  0
 33 35  2  0  0  0  0
 34 35  1  0  0  0  0
 34 63  1  0  0  0  0
 35 64  1  0  0  0  0
 36 65  1  0  0  0  0
 36 66  1  0  0  0  0
 36 67  1  0  0  0  0
M  END
> <PUBCHEM_COMPOUND_CID>
11882080

> <PUBCHEM_CONFORMER_RMSD>
1.2

> <PUBCHEM_CONFORMER_DIVERSEORDER>
1
45
28
27
63
8
41
55
52
38
5
60
36
31
24
12
51
4
47
15
23
34
65
54
22
59
66
56
7
33
40
62
64
53
39
20
37
61
9
6
49
32
16
25
3
30
29
42
19
35
43
21
46
26
14
50
10
44
57
13
48
58
18
17
2
11

> <PUBCHEM_MMFF94_PARTIAL_CHARGES>
49
1 -0.46
10 -0.55
11 -0.8
12 0.3
13 0.36
15 0.3
16 0.57
17 0.57
18 0.36
19 0.29
2 -0.33
20 0.69
21 0.14
22 0.57
23 -0.14
24 0.12
25 -0.15
26 -0.15
27 0.23
28 -0.15
29 -0.15
3 -0.57
30 -0.15
31 -0.15
32 -0.15
33 0.1
34 -0.15
35 -0.15
36 0.23
4 -0.57
43 0.37
44 0.37
5 -0.57
50 0.37
51 0.37
52 0.37
53 0.15
54 0.15
58 0.15
59 0.15
6 -0.57
60 0.15
61 0.15
62 0.15
63 0.15
64 0.15
7 -0.66
8 -0.73
9 -0.73

> <PUBCHEM_EFFECTIVE_ROTOR_COUNT>
15

> <PUBCHEM_PHARMACOPHORE_FEATURES>
13
1 10 donor
1 11 donor
1 27 hydrophobe
1 3 acceptor
1 36 hydrophobe
1 4 acceptor
1 5 acceptor
1 6 acceptor
1 8 donor
1 9 donor
5 7 12 13 14 15 rings
6 23 25 26 30 31 32 rings
6 24 28 29 33 34 35 rings

> <PUBCHEM_HEAVY_ATOM_COUNT>
36

> <PUBCHEM_ATOM_DEF_STEREO_COUNT>
3

> <PUBCHEM_ATOM_UDEF_STEREO_COUNT>
0

> <PUBCHEM_BOND_DEF_STEREO_COUNT>
0

> <PUBCHEM_BOND_UDEF_STEREO_COUNT>
0

> <PUBCHEM_ISOTOPIC_ATOM_COUNT>
0

> <PUBCHEM_COMPONENT_COUNT>
1

> <PUBCHEM_CACTVS_TAUTO_COUNT>
12

> <PUBCHEM_CONFORMER_ID>
00B54E6000000001

> <PUBCHEM_MMFF94_ENERGY>
96.0626

> <PUBCHEM_FEATURE_SELFOVERLAP>
66.024

> <PUBCHEM_SHAPE_FINGERPRINT>
10256941 240 16041959101305337688
10815517 723 17981047405977247737
11115154 58 18337667530215501739
11331351 85 18267007376227472938
12769317 202 18118684550541021949
13757389 114 17547871659015621054
14017579 90 17770749563952898343
14068700 675 18265609875504842434
14068700 686 17615968151204590099
15082195 135 18197481022030385191
15351339 4 18336548312629483913
15927050 60 17905925529537780940
15950262 2 15287899570395908772
18365409 1 17765998294482488529
21304303 172 18195526978865738234
21779490 27 18054783984541762861
21857420 4 18340475669490129533
21968339 14 18337673147510673950
23559900 14 18410001148785487355
24180151 40 18411711972135904200
3504750 166 17541651721875449450
376196 1 17756982681207168330
4046055 25 18267018354074275702
4461854 278 17333113935566721505
6695519 79 17330575635575100667

> <PUBCHEM_SHAPE_MULTIPOLES>
700.18
14.36
9
2
19.25
9.12
0.29
-19.42
5.63
-7.23
-2.99
-1.77
1.74
-3.48

> <PUBCHEM_SHAPE_SELFOVERLAP>
1438.071

> <PUBCHEM_SHAPE_VOLUME>
405.1

> <PUBCHEM_COORDINATE_TYPE>
2
5
10

$$$$
