38027996
  -OEChem-12032416243D

 67 69  0     1  0  0  0  0  0999 V2000
    2.3105    3.0233   -0.2478 O   0  0  0  0  0  0  0  0  0  0  0  0
   -3.1122   -1.6282    1.7784 O   0  0  0  0  0  0  0  0  0  0  0  0
    3.2122    0.8917   -0.4428 N   0  0  0  0  0  0  0  0  0  0  0  0
   -3.0319   -0.6243   -0.3124 N   0  0  0  0  0  0  0  0  0  0  0  0
    5.0549   -1.0714    0.5368 N   0  0  0  0  0  0  0  0  0  0  0  0
   -1.7028    1.8474    0.7684 C   0  0  1  0  0  0  0  0  0  0  0  0
   -2.9132    1.8091   -0.1978 C   0  0  1  0  0  0  0  0  0  0  0  0
   -0.6477    2.8451    0.2668 C   0  0  0  0  0  0  0  0  0  0  0  0
   -0.1360    2.4925   -1.1427 C   0  0  2  0  0  0  0  0  0  0  0  0
   -2.1251    2.2126    2.1949 C   0  0  0  0  0  0  0  0  0  0  0  0
   -1.2740    2.1768   -2.0920 C   0  0  0  0  0  0  0  0  0  0  0  0
   -2.5114    1.8869   -1.6520 C   0  0  0  0  0  0  0  0  0  0  0  0
    0.8723    1.3393   -1.0919 C   0  0  0  0  0  0  0  0  0  0  0  0
   -3.7638    0.5546    0.0306 C   0  0  0  0  0  0  0  0  0  0  0  0
   -1.1119    1.6793    3.2029 C   0  0  0  0  0  0  0  0  0  0  0  0
   -2.2816    3.7234    2.3331 C   0  0  0  0  0  0  0  0  0  0  0  0
   -0.9683    2.2465   -3.5624 C   0  0  0  0  0  0  0  0  0  0  0  0
    2.1922    1.8350   -0.5573 C   0  0  0  0  0  0  0  0  0  0  0  0
    4.5208    1.2925    0.0719 C   0  0  0  0  0  0  0  0  0  0  0  0
    3.1457   -0.4915   -0.9237 C   0  0  0  0  0  0  0  0  0  0  0  0
    5.0451    0.2877    1.0972 C   0  0  0  0  0  0  0  0  0  0  0  0
    3.7015   -1.4645    0.1178 C   0  0  0  0  0  0  0  0  0  0  0  0
   -2.7583   -1.6405    0.6024 C   0  0  0  0  0  0  0  0  0  0  0  0
    5.5885   -2.0241    1.5095 C   0  0  0  0  0  0  0  0  0  0  0  0
   -1.9632   -2.7885    0.0957 C   0  0  0  0  0  0  0  0  0  0  0  0
   -2.1034   -4.0470    0.6808 C   0  0  0  0  0  0  0  0  0  0  0  0
   -1.0774   -2.6081   -0.9665 C   0  0  0  0  0  0  0  0  0  0  0  0
   -1.3577   -5.1251    0.2038 C   0  0  0  0  0  0  0  0  0  0  0  0
   -0.3317   -3.6861   -1.4436 C   0  0  0  0  0  0  0  0  0  0  0  0
   -0.4718   -4.9445   -0.8584 C   0  0  0  0  0  0  0  0  0  0  0  0
   -1.2424    0.8530    0.7946 H   0  0  0  0  0  0  0  0  0  0  0  0
   -3.5579    2.6775   -0.0124 H   0  0  0  0  0  0  0  0  0  0  0  0
    0.1834    2.9198    0.9740 H   0  0  0  0  0  0  0  0  0  0  0  0
   -1.0773    3.8517    0.1814 H   0  0  0  0  0  0  0  0  0  0  0  0
    0.3525    3.3949   -1.5371 H   0  0  0  0  0  0  0  0  0  0  0  0
   -3.0863    1.7488    2.4392 H   0  0  0  0  0  0  0  0  0  0  0  0
   -3.3013    1.7144   -2.3807 H   0  0  0  0  0  0  0  0  0  0  0  0
    1.0595    0.9486   -2.0981 H   0  0  0  0  0  0  0  0  0  0  0  0
    0.5109    0.5169   -0.4675 H   0  0  0  0  0  0  0  0  0  0  0  0
   -4.6474    0.5745   -0.6190 H   0  0  0  0  0  0  0  0  0  0  0  0
   -4.1353    0.4943    1.0571 H   0  0  0  0  0  0  0  0  0  0  0  0
   -0.1178    2.1153    3.0651 H   0  0  0  0  0  0  0  0  0  0  0  0
   -1.0186    0.5906    3.1253 H   0  0  0  0  0  0  0  0  0  0  0  0
   -1.4326    1.9090    4.2250 H   0  0  0  0  0  0  0  0  0  0  0  0
   -1.3249    4.2561    2.3461 H   0  0  0  0  0  0  0  0  0  0  0  0
   -2.7602    3.9487    3.2944 H   0  0  0  0  0  0  0  0  0  0  0  0
   -2.9247    4.1545    1.5602 H   0  0  0  0  0  0  0  0  0  0  0  0
   -0.5463    3.2241   -3.8172 H   0  0  0  0  0  0  0  0  0  0  0  0
   -1.8656    2.1083   -4.1753 H   0  0  0  0  0  0  0  0  0  0  0  0
   -0.2528    1.4717   -3.8521 H   0  0  0  0  0  0  0  0  0  0  0  0
   -2.7864   -0.7486   -1.2890 H   0  0  0  0  0  0  0  0  0  0  0  0
    4.4698    2.2885    0.5237 H   0  0  0  0  0  0  0  0  0  0  0  0
    5.2004    1.3573   -0.7867 H   0  0  0  0  0  0  0  0  0  0  0  0
    3.7396   -0.5375   -1.8449 H   0  0  0  0  0  0  0  0  0  0  0  0
    2.1279   -0.7879   -1.1831 H   0  0  0  0  0  0  0  0  0  0  0  0
    6.0615    0.5833    1.3830 H   0  0  0  0  0  0  0  0  0  0  0  0
    4.4225    0.3278    2.0011 H   0  0  0  0  0  0  0  0  0  0  0  0
    3.0249   -1.4987    0.9823 H   0  0  0  0  0  0  0  0  0  0  0  0
    3.7227   -2.4680   -0.3238 H   0  0  0  0  0  0  0  0  0  0  0  0
    5.6354   -3.0295    1.0765 H   0  0  0  0  0  0  0  0  0  0  0  0
    4.9826   -2.0692    2.4216 H   0  0  0  0  0  0  0  0  0  0  0  0
    6.6131   -1.7547    1.7888 H   0  0  0  0  0  0  0  0  0  0  0  0
   -2.7918   -4.2081    1.5063 H   0  0  0  0  0  0  0  0  0  0  0  0
   -0.9179   -1.6386   -1.4296 H   0  0  0  0  0  0  0  0  0  0  0  0
   -1.4671   -6.1052    0.6589 H   0  0  0  0  0  0  0  0  0  0  0  0
    0.3639   -3.5440   -2.2656 H   0  0  0  0  0  0  0  0  0  0  0  0
    0.1102   -5.7833   -1.2288 H   0  0  0  0  0  0  0  0  0  0  0  0
  1 18  2  0  0  0  0
  2 23  2  0  0  0  0
  3 18  1  0  0  0  0
  3 19  1  0  0  0  0
  3 20  1  0  0  0  0
  4 14  1  0  0  0  0
  4 23  1  0  0  0  0
  4 51  1  0  0  0  0
  5 21  1  0  0  0  0
  5 22  1  0  0  0  0
  5 24  1  0  0  0  0
  6  7  1  0  0  0  0
  6  8  1  0  0  0  0
  6 10  1  0  0  0  0
  6 31  1  0  0  0  0
  7 12  1  0  0  0  0
  7 14  1  0  0  0  0
  7 32  1  0  0  0  0
  8  9  1  0  0  0  0
  8 33  1  0  0  0  0
  8 34  1  0  0  0  0
  9 11  1  0  0  0  0
  9 13  1  0  0  0  0
  9 35  1  0  0  0  0
 10 15  1  0  0  0  0
 10 16  1  0  0  0  0
 10 36  1  0  0  0  0
 11 12  2  0  0  0  0
 11 17  1  0  0  0  0
 12 37  1  0  0  0  0
 13 18  1  0  0  0  0
 13 38  1  0  0  0  0
 13 39  1  0  0  0  0
 14 40  1  0  0  0  0
 14 41  1  0  0  0  0
 15 42  1  0  0  0  0
 15 43  1  0  0  0  0
 15 44  1  0  0  0  0
 16 45  1  0  0  0  0
 16 46  1  0  0  0  0
 16 47  1  0  0  0  0
 17 48  1  0  0  0  0
 17 49  1  0  0  0  0
 17 50  1  0  0  0  0
 19 21  1  0  0  0  0
 19 52  1  0  0  0  0
 19 53  1  0  0  0  0
 20 22  1  0  0  0  0
 20 54  1  0  0  0  0
 20 55  1  0  0  0  0
 21 56  1  0  0  0  0
 21 57  1  0  0  0  0
 22 58  1  0  0  0  0
 22 59  1  0  0  0  0
 23 25  1  0  0  0  0
 24 60  1  0  0  0  0
 24 61  1  0  0  0  0
 24 62  1  0  0  0  0
 25 26  2  0  0  0  0
 25 27  1  0  0  0  0
 26 28  1  0  0  0  0
 26 63  1  0  0  0  0
 27 29  2  0  0  0  0
 27 64  1  0  0  0  0
 28 30  2  0  0  0  0
 28 65  1  0  0  0  0
 29 30  1  0  0  0  0
 29 66  1  0  0  0  0
 30 67  1  0  0  0  0
M  END
> <PUBCHEM_COMPOUND_CID>
38027996

> <PUBCHEM_CONFORMER_RMSD>
1

> <PUBCHEM_CONFORMER_DIVERSEORDER>
1
234
112
88
94
258
80
55
26
28
82
261
231
132
212
149
48
182
229
223
213
75
269
107
130
230
171
217
111
7
99
158
177
69
264
185
260
63
240
51
116
157
102
106
93
6
237
125
262
92
243
176
197
47
211
238
138
105
17
248
144
121
29
201
66
19
136
210
263
173
146
199
30
206
117
83
37
67
204
152
203
109
72
250
4
143
13
46
194
87
96
270
49
189
3
74
241
9
155
202
181
108
167
122
187
41
259
65
54
251
43
164
129
265
156
126
103
222
38
159
224
18
162
53
183
79
120
123
60
225
208
249
184
193
23
252
145
16
142
151
186
266
95
218
59
77
227
61
228
247
2
110
115
134
58
245
139
35
150
127
169
254
233
148
97
25
178
255
90
86
267
170
128
196
160
195
119
104
85
78
246
153
76
221
114
57
253
64
89
33
244
268
242
188
21
154
163
133
71
200
190
141
84
209
27
205
135
100
20
191
168
216
175
8
256
14
50
232
36
179
10
192
257
215
124
73
70
31
174
137
34
140
32
91
271
113
236
220
62
161
15
98
235
198
207
147
11
219
239
42
172
214
52
180
45
118
40
81
131
56
101
226
12
165
22
44
166
24
5
68
39

> <PUBCHEM_MMFF94_PARTIAL_CHARGES>
32
1 -0.57
11 -0.28
12 -0.29
13 0.06
14 0.3
17 0.14
18 0.57
19 0.3
2 -0.57
20 0.3
21 0.27
22 0.27
23 0.54
24 0.27
25 0.09
26 -0.15
27 -0.15
28 -0.15
29 -0.15
3 -0.66
30 -0.15
37 0.15
4 -0.73
5 -0.81
51 0.37
63 0.15
64 0.15
65 0.15
66 0.15
67 0.15
7 0.14
9 0.14

> <PUBCHEM_EFFECTIVE_ROTOR_COUNT>
10

> <PUBCHEM_PHARMACOPHORE_FEATURES>
8
1 1 acceptor
1 2 acceptor
1 4 donor
1 5 cation
3 10 15 16 hydrophobe
6 25 26 27 28 29 30 rings
6 3 5 19 20 21 22 rings
6 6 7 8 9 11 12 rings

> <PUBCHEM_HEAVY_ATOM_COUNT>
30

> <PUBCHEM_ATOM_DEF_STEREO_COUNT>
3

> <PUBCHEM_ATOM_UDEF_STEREO_COUNT>
0

> <PUBCHEM_BOND_DEF_STEREO_COUNT>
0

> <PUBCHEM_BOND_UDEF_STEREO_COUNT>
0

> <PUBCHEM_ISOTOPIC_ATOM_COUNT>
0

> <PUBCHEM_COMPONENT_COUNT>
1

> <PUBCHEM_CACTVS_TAUTO_COUNT>
2

> <PUBCHEM_CONFORMER_ID>
024442DC00000001

> <PUBCHEM_MMFF94_ENERGY>
68.0402

> <PUBCHEM_FEATURE_SELFOVERLAP>
40.596

> <PUBCHEM_SHAPE_FINGERPRINT>
11014199 57 17904200678702706006
11552529 35 18269274724165206224
12156800 1 17252522176632983047
12422481 6 18191050957333652377
13122387 1 17328586120459957302
14028597 1 17845661322968018201
16728300 4 17895744111118696803
19930381 70 17616253585523501565
20764821 26 17905616505907655926
20775438 99 16832015265051690783
20775530 9 17690567802328352983
229767 44 18265884766819564810
238918 7 18269550529738172518
3027735 51 18265603287378217861
3380486 77 18125470694054977601
463206 1 17618516809660427442
7097593 13 17762065736294764854

> <PUBCHEM_SHAPE_MULTIPOLES>
590.7
8.14
6.79
2.54
15.24
9.83
0.02
-0.74
-3.54
-3.97
0.17
-1.81
-2.44
-0.63

> <PUBCHEM_SHAPE_SELFOVERLAP>
1221.542

> <PUBCHEM_SHAPE_VOLUME>
336.1

> <PUBCHEM_COORDINATE_TYPE>
2
5
10

$$$$
