26761883
  -OEChem-12032416403D

 55 58  0     1  0  0  0  0  0999 V2000
    3.0750    2.2201    0.8672 O   0  0  0  0  0  0  0  0  0  0  0  0
   -0.1158    1.1003    1.6597 O   0  0  0  0  0  0  0  0  0  0  0  0
   -7.2594    0.1340   -0.7348 O   0  0  0  0  0  0  0  0  0  0  0  0
   -7.1473    0.5430    1.5277 O   0  0  0  0  0  0  0  0  0  0  0  0
    1.2112   -0.3322    0.4020 N   0  0  0  0  0  0  0  0  0  0  0  0
    2.6679   -3.3772   -1.2146 N   0  0  0  0  0  0  0  0  0  0  0  0
    3.8571   -3.5478    0.6686 N   0  0  0  0  0  0  0  0  0  0  0  0
    4.4266    0.6904   -0.0549 N   0  0  0  0  0  0  0  0  0  0  0  0
   -0.9800    0.2047   -0.3024 N   0  0  0  0  0  0  0  0  0  0  0  0
    4.0769    2.9368    0.2007 N   0  0  0  0  0  0  0  0  0  0  0  0
    2.3962   -0.1006    1.3000 C   0  0  1  0  0  0  0  0  0  0  0  0
    3.0220   -1.4392    1.7943 C   0  0  0  0  0  0  0  0  0  0  0  0
    1.3928   -1.2136   -0.7887 C   0  0  0  0  0  0  0  0  0  0  0  0
    3.0809   -2.4237    0.6938 C   0  0  0  0  0  0  0  0  0  0  0  0
    2.3372   -2.2963   -0.4527 C   0  0  0  0  0  0  0  0  0  0  0  0
    3.3559    0.9057    0.6669 C   0  0  0  0  0  0  0  0  0  0  0  0
    0.0091    0.3780    0.6682 C   0  0  0  0  0  0  0  0  0  0  0  0
    3.5858   -4.1015   -0.4963 C   0  0  0  0  0  0  0  0  0  0  0  0
    4.8347    1.9657   -0.3176 C   0  0  0  0  0  0  0  0  0  0  0  0
    6.0288    2.2555   -1.1191 C   0  0  0  0  0  0  0  0  0  0  0  0
   -2.3842    0.2411   -0.1170 C   0  0  0  0  0  0  0  0  0  0  0  0
    5.9292    1.7383   -2.5767 C   0  0  0  0  0  0  0  0  0  0  0  0
    7.3377    1.7186   -0.4859 C   0  0  0  0  0  0  0  0  0  0  0  0
   -2.9146    0.4716    1.1524 C   0  0  0  0  0  0  0  0  0  0  0  0
   -3.2363    0.0450   -1.2038 C   0  0  0  0  0  0  0  0  0  0  0  0
   -4.2969    0.5059    1.3349 C   0  0  0  0  0  0  0  0  0  0  0  0
   -4.6187    0.0793   -1.0213 C   0  0  0  0  0  0  0  0  0  0  0  0
   -5.1490    0.3100    0.2481 C   0  0  0  0  0  0  0  0  0  0  0  0
   -6.5902    0.3458    0.4396 C   0  0  0  0  0  0  0  0  0  0  0  0
   -8.6897    0.1461   -0.6756 C   0  0  0  0  0  0  0  0  0  0  0  0
   -9.2427   -0.1041   -2.0625 C   0  0  0  0  0  0  0  0  0  0  0  0
    2.0373    0.3974    2.2107 H   0  0  0  0  0  0  0  0  0  0  0  0
    2.3864   -1.8580    2.5845 H   0  0  0  0  0  0  0  0  0  0  0  0
    4.0166   -1.2692    2.2206 H   0  0  0  0  0  0  0  0  0  0  0  0
    1.7780   -0.5901   -1.6020 H   0  0  0  0  0  0  0  0  0  0  0  0
    0.4376   -1.6499   -1.0929 H   0  0  0  0  0  0  0  0  0  0  0  0
    2.3093   -3.6051   -2.1326 H   0  0  0  0  0  0  0  0  0  0  0  0
    4.0137   -5.0171   -0.8788 H   0  0  0  0  0  0  0  0  0  0  0  0
    6.1446    3.3465   -1.1867 H   0  0  0  0  0  0  0  0  0  0  0  0
   -0.6818   -0.0060   -1.2500 H   0  0  0  0  0  0  0  0  0  0  0  0
    5.8532    0.6456   -2.6033 H   0  0  0  0  0  0  0  0  0  0  0  0
    6.8092    2.0362   -3.1561 H   0  0  0  0  0  0  0  0  0  0  0  0
    5.0410    2.1478   -3.0703 H   0  0  0  0  0  0  0  0  0  0  0  0
    7.3243    0.6250   -0.4201 H   0  0  0  0  0  0  0  0  0  0  0  0
    7.4649    2.1136    0.5280 H   0  0  0  0  0  0  0  0  0  0  0  0
    8.2078    2.0169   -1.0798 H   0  0  0  0  0  0  0  0  0  0  0  0
   -2.3044    0.6048    2.0373 H   0  0  0  0  0  0  0  0  0  0  0  0
   -2.8353   -0.1358   -2.1979 H   0  0  0  0  0  0  0  0  0  0  0  0
   -4.6902    0.6814    2.3330 H   0  0  0  0  0  0  0  0  0  0  0  0
   -5.2434   -0.0787   -1.8959 H   0  0  0  0  0  0  0  0  0  0  0  0
   -9.0320   -0.6385    0.0081 H   0  0  0  0  0  0  0  0  0  0  0  0
   -9.0302    1.1211   -0.3100 H   0  0  0  0  0  0  0  0  0  0  0  0
   -8.8924    0.6630   -2.7610 H   0  0  0  0  0  0  0  0  0  0  0  0
   -8.8942   -1.0678   -2.4481 H   0  0  0  0  0  0  0  0  0  0  0  0
  -10.3362   -0.1014   -2.0539 H   0  0  0  0  0  0  0  0  0  0  0  0
  1 10  1  0  0  0  0
  1 16  1  0  0  0  0
  2 17  2  0  0  0  0
  3 29  1  0  0  0  0
  3 30  1  0  0  0  0
  4 29  2  0  0  0  0
  5 11  1  0  0  0  0
  5 13  1  0  0  0  0
  5 17  1  0  0  0  0
  6 15  1  0  0  0  0
  6 18  1  0  0  0  0
  6 37  1  0  0  0  0
  7 14  1  0  0  0  0
  7 18  2  0  0  0  0
  8 16  2  0  0  0  0
  8 19  1  0  0  0  0
  9 17  1  0  0  0  0
  9 21  1  0  0  0  0
  9 40  1  0  0  0  0
 10 19  2  0  0  0  0
 11 12  1  0  0  0  0
 11 16  1  0  0  0  0
 11 32  1  0  0  0  0
 12 14  1  0  0  0  0
 12 33  1  0  0  0  0
 12 34  1  0  0  0  0
 13 15  1  0  0  0  0
 13 35  1  0  0  0  0
 13 36  1  0  0  0  0
 14 15  2  0  0  0  0
 18 38  1  0  0  0  0
 19 20  1  0  0  0  0
 20 22  1  0  0  0  0
 20 23  1  0  0  0  0
 20 39  1  0  0  0  0
 21 24  2  0  0  0  0
 21 25  1  0  0  0  0
 22 41  1  0  0  0  0
 22 42  1  0  0  0  0
 22 43  1  0  0  0  0
 23 44  1  0  0  0  0
 23 45  1  0  0  0  0
 23 46  1  0  0  0  0
 24 26  1  0  0  0  0
 24 47  1  0  0  0  0
 25 27  2  0  0  0  0
 25 48  1  0  0  0  0
 26 28  2  0  0  0  0
 26 49  1  0  0  0  0
 27 28  1  0  0  0  0
 27 50  1  0  0  0  0
 28 29  1  0  0  0  0
 30 31  1  0  0  0  0
 30 51  1  0  0  0  0
 30 52  1  0  0  0  0
 31 53  1  0  0  0  0
 31 54  1  0  0  0  0
 31 55  1  0  0  0  0
M  END
> <PUBCHEM_COMPOUND_CID>
26761883

> <PUBCHEM_CONFORMER_RMSD>
1

> <PUBCHEM_CONFORMER_DIVERSEORDER>
1
20
5
16
10
6
13
15
8
17
21
9
23
26
22
11
14
2
19
25
7
4
12
18
3
24

> <PUBCHEM_MMFF94_PARTIAL_CHARGES>
35
1 -0.02
10 -0.41
11 0.48
12 0.18
13 0.48
14 0.05
15 -0.33
16 0.3
17 0.69
18 0.04
19 0.34
2 -0.57
20 0.18
21 0.12
24 -0.15
25 -0.15
26 -0.15
27 -0.15
28 0.09
29 0.63
3 -0.43
30 0.28
37 0.27
38 0.15
4 -0.57
40 0.37
47 0.15
48 0.15
49 0.15
5 -0.66
50 0.15
6 0.03
7 -0.57
8 -0.57
9 -0.55

> <PUBCHEM_EFFECTIVE_ROTOR_COUNT>
8.8

> <PUBCHEM_PHARMACOPHORE_FEATURES>
11
1 2 acceptor
1 4 acceptor
1 6 donor
1 9 donor
3 20 22 23 hydrophobe
3 6 7 18 cation
3 8 10 19 cation
5 1 8 10 16 19 rings
5 6 7 14 15 18 rings
6 21 24 25 26 27 28 rings
6 5 11 12 13 14 15 rings

> <PUBCHEM_HEAVY_ATOM_COUNT>
31

> <PUBCHEM_ATOM_DEF_STEREO_COUNT>
1

> <PUBCHEM_ATOM_UDEF_STEREO_COUNT>
0

> <PUBCHEM_BOND_DEF_STEREO_COUNT>
0

> <PUBCHEM_BOND_UDEF_STEREO_COUNT>
0

> <PUBCHEM_ISOTOPIC_ATOM_COUNT>
0

> <PUBCHEM_COMPONENT_COUNT>
1

> <PUBCHEM_CACTVS_TAUTO_COUNT>
8

> <PUBCHEM_CONFORMER_ID>
01985A9B00000001

> <PUBCHEM_MMFF94_ENERGY>
65.5961

> <PUBCHEM_FEATURE_SELFOVERLAP>
55.923

> <PUBCHEM_SHAPE_FINGERPRINT>
10165383 225 18334859459376105468
10319688 140 18340491050095512150
10369192 42 17968383467546350372
10554248 39 18129650886839355813
10670039 82 16128389146585461425
10693767 8 17702399372936624910
11181472 205 18340771438978383137
11621639 208 17534327956031087421
12539765 74 16950569917242227536
12597179 24 18188216498020133674
12730499 353 18335991930049725666
13150687 139 18342189882097439334
13383665 225 17750246832705573717
13533116 47 18272084968653927563
13540713 5 17914911837348569960
14118638 360 18412546483970462609
15183329 4 15769791151410883492
15392192 104 18343026614783698755
15840311 113 13334740159062413572
15961568 22 17676488354266722676
16993427 108 10951230843955994308
17844677 252 18263081020689474761
17980427 23 14852455500997186466
18335252 98 18334863861796633723
20721686 146 16588314946789449900
20771845 140 17775275033796253670
21304303 94 17846509127762969078
21344244 246 18270975540537866222
21344244 78 18058714798460569146
21781051 124 15769776888188140447
21792938 169 18338218389715626618
23081809 10 17846215528351583097
23522609 53 17774462524641511809
25147074 1 17916319250776058992
255183 451 18057048995685524046
34797466 226 17822006493773066005
4073 2 18260553350905552475
44880568 143 18042394748198171701
4516262 110 18340199782281955036
45377200 153 15840980213711150255
46194498 28 18262515880086422334
504579 68 17988920094184905477
54076057 127 18411149025459403859
57359948 33 17531243933578598573
57527306 92 16950845916627071756
6025842 7 18411418397597906810
70251023 43 18192431866396943578
9962374 69 18340190904558576359

> <PUBCHEM_SHAPE_MULTIPOLES>
584.6
22.65
3.34
1.72
46.54
3.6
-0.37
-9.89
-9.56
-10.13
-0.69
0.33
-0.26
-1.49

> <PUBCHEM_SHAPE_SELFOVERLAP>
1253.34

> <PUBCHEM_SHAPE_VOLUME>
323.3

> <PUBCHEM_COORDINATE_TYPE>
2
5
10

$$$$
