40777477
  -OEChem-12032416173D

 55 58  0     1  0  0  0  0  0999 V2000
    3.1523   -1.0905   -1.3797 O   0  0  0  0  0  0  0  0  0  0  0  0
   -4.5592    0.4936    1.4188 O   0  0  0  0  0  0  0  0  0  0  0  0
    0.0712    3.2412   -0.2381 N   0  0  0  0  0  0  0  0  0  0  0  0
    3.9062   -1.2178    0.8150 N   0  0  0  0  0  0  0  0  0  0  0  0
   -3.1951    0.5856    1.6674 N   0  0  0  0  0  0  0  0  0  0  0  0
   -7.0302    0.1581    0.7356 N   0  0  0  0  0  0  0  0  0  0  0  0
    0.9126    0.4535   -0.7147 C   0  0  1  0  0  0  0  0  0  0  0  0
   -0.4945    0.8239   -0.1882 C   0  0  2  0  0  0  0  0  0  0  0  0
    1.4910    1.6514   -1.4865 C   0  0  0  0  0  0  0  0  0  0  0  0
   -0.4818    2.1584    0.5762 C   0  0  0  0  0  0  0  0  0  0  0  0
    1.4329    2.9479   -0.6799 C   0  0  0  0  0  0  0  0  0  0  0  0
   -1.1242   -0.2779    0.6651 C   0  0  0  0  0  0  0  0  0  0  0  0
    1.8839   -0.0131    0.3761 C   0  0  0  0  0  0  0  0  0  0  0  0
   -2.6191   -0.1477    0.7105 C   0  0  0  0  0  0  0  0  0  0  0  0
    3.0312   -0.8244   -0.1870 C   0  0  0  0  0  0  0  0  0  0  0  0
   -3.5604   -0.7208   -0.1620 C   0  0  0  0  0  0  0  0  0  0  0  0
   -4.7641   -0.2869    0.3271 C   0  0  0  0  0  0  0  0  0  0  0  0
    5.0909   -2.0060    0.5634 C   0  0  0  0  0  0  0  0  0  0  0  0
    6.2883   -1.1457    0.2803 C   0  0  0  0  0  0  0  0  0  0  0  0
   -6.1338   -0.4748   -0.0539 C   0  0  0  0  0  0  0  0  0  0  0  0
    6.5804   -0.7669   -1.0300 C   0  0  0  0  0  0  0  0  0  0  0  0
    7.1086   -0.7254    1.3271 C   0  0  0  0  0  0  0  0  0  0  0  0
   -6.4766   -1.2496   -1.1504 C   0  0  0  0  0  0  0  0  0  0  0  0
    7.6929    0.0324   -1.2935 C   0  0  0  0  0  0  0  0  0  0  0  0
    8.2210    0.0738    1.0639 C   0  0  0  0  0  0  0  0  0  0  0  0
   -7.8263   -1.3832   -1.4561 C   0  0  0  0  0  0  0  0  0  0  0  0
    8.5132    0.4527   -0.2464 C   0  0  0  0  0  0  0  0  0  0  0  0
   -8.3327    0.0051    0.4074 C   0  0  0  0  0  0  0  0  0  0  0  0
   -8.7785   -0.7470   -0.6674 C   0  0  0  0  0  0  0  0  0  0  0  0
    0.7759   -0.3684   -1.4312 H   0  0  0  0  0  0  0  0  0  0  0  0
   -1.1249    0.9686   -1.0797 H   0  0  0  0  0  0  0  0  0  0  0  0
    0.9150    1.7846   -2.4123 H   0  0  0  0  0  0  0  0  0  0  0  0
    2.5247    1.4614   -1.7958 H   0  0  0  0  0  0  0  0  0  0  0  0
   -1.4994    2.4527    0.8498 H   0  0  0  0  0  0  0  0  0  0  0  0
    0.0851    2.0679    1.5110 H   0  0  0  0  0  0  0  0  0  0  0  0
    2.1122    2.9121    0.1789 H   0  0  0  0  0  0  0  0  0  0  0  0
    1.7772    3.7726   -1.3142 H   0  0  0  0  0  0  0  0  0  0  0  0
   -0.7281   -0.2688    1.6881 H   0  0  0  0  0  0  0  0  0  0  0  0
   -0.8862   -1.2623    0.2415 H   0  0  0  0  0  0  0  0  0  0  0  0
    1.3814   -0.6753    1.0889 H   0  0  0  0  0  0  0  0  0  0  0  0
    2.2894    0.8252    0.9518 H   0  0  0  0  0  0  0  0  0  0  0  0
    0.0712    4.1048    0.3039 H   0  0  0  0  0  0  0  0  0  0  0  0
   -3.3804   -1.3544   -1.0183 H   0  0  0  0  0  0  0  0  0  0  0  0
    3.7257   -0.9307    1.7728 H   0  0  0  0  0  0  0  0  0  0  0  0
    4.9041   -2.6876   -0.2749 H   0  0  0  0  0  0  0  0  0  0  0  0
    5.2654   -2.6297    1.4474 H   0  0  0  0  0  0  0  0  0  0  0  0
    5.9521   -1.0890   -1.8558 H   0  0  0  0  0  0  0  0  0  0  0  0
    6.8906   -1.0125    2.3523 H   0  0  0  0  0  0  0  0  0  0  0  0
   -5.7363   -1.7472   -1.7679 H   0  0  0  0  0  0  0  0  0  0  0  0
    7.9207    0.3270   -2.3137 H   0  0  0  0  0  0  0  0  0  0  0  0
    8.8596    0.4014    1.8789 H   0  0  0  0  0  0  0  0  0  0  0  0
   -8.1360   -1.9819   -2.3075 H   0  0  0  0  0  0  0  0  0  0  0  0
    9.3794    1.0750   -0.4514 H   0  0  0  0  0  0  0  0  0  0  0  0
   -9.0351    0.5212    1.0536 H   0  0  0  0  0  0  0  0  0  0  0  0
   -9.8362   -0.8371   -0.8871 H   0  0  0  0  0  0  0  0  0  0  0  0
  1 15  2  0  0  0  0
  2  5  1  0  0  0  0
  2 17  1  0  0  0  0
  3 10  1  0  0  0  0
  3 11  1  0  0  0  0
  3 42  1  0  0  0  0
  4 15  1  0  0  0  0
  4 18  1  0  0  0  0
  4 44  1  0  0  0  0
  5 14  2  0  0  0  0
  6 20  1  0  0  0  0
  6 28  2  0  0  0  0
  7  8  1  0  0  0  0
  7  9  1  0  0  0  0
  7 13  1  0  0  0  0
  7 30  1  0  0  0  0
  8 10  1  0  0  0  0
  8 12  1  0  0  0  0
  8 31  1  0  0  0  0
  9 11  1  0  0  0  0
  9 32  1  0  0  0  0
  9 33  1  0  0  0  0
 10 34  1  0  0  0  0
 10 35  1  0  0  0  0
 11 36  1  0  0  0  0
 11 37  1  0  0  0  0
 12 14  1  0  0  0  0
 12 38  1  0  0  0  0
 12 39  1  0  0  0  0
 13 15  1  0  0  0  0
 13 40  1  0  0  0  0
 13 41  1  0  0  0  0
 14 16  1  0  0  0  0
 16 17  2  0  0  0  0
 16 43  1  0  0  0  0
 17 20  1  0  0  0  0
 18 19  1  0  0  0  0
 18 45  1  0  0  0  0
 18 46  1  0  0  0  0
 19 21  2  0  0  0  0
 19 22  1  0  0  0  0
 20 23  2  0  0  0  0
 21 24  1  0  0  0  0
 21 47  1  0  0  0  0
 22 25  2  0  0  0  0
 22 48  1  0  0  0  0
 23 26  1  0  0  0  0
 23 49  1  0  0  0  0
 24 27  2  0  0  0  0
 24 50  1  0  0  0  0
 25 27  1  0  0  0  0
 25 51  1  0  0  0  0
 26 29  2  0  0  0  0
 26 52  1  0  0  0  0
 27 53  1  0  0  0  0
 28 29  1  0  0  0  0
 28 54  1  0  0  0  0
 29 55  1  0  0  0  0
M  END
> <PUBCHEM_COMPOUND_CID>
40777477

> <PUBCHEM_CONFORMER_RMSD>
1.2

> <PUBCHEM_CONFORMER_DIVERSEORDER>
3
10
85
40
76
59
72
84
67
81
113
111
37
27
35
51
95
99
86
100
91
112
53
73
83
102
94
64
36
29
97
19
74
43
58
50
15
30
46
60
77
68
70
49
117
98
17
109
92
20
101
25
75
47
88
120
103
48
57
54
80
6
89
116
39
9
93
42
56
8
61
1
82
32
78
110
96
45
33
69
41
7
87
118
63
13
66
55
107
14
31
90
62
2
12
121
11
119
44
5
24
104
108
71
38
34
115
16
106
114
105
28
18
23
4
21
65
26
79
52
22

> <PUBCHEM_MMFF94_PARTIAL_CHARGES>
38
1 -0.57
10 0.27
11 0.27
12 0.18
13 0.06
14 0.11
15 0.57
16 -0.15
17 0.09
18 0.44
19 -0.14
2 -0.02
20 0.36
21 -0.15
22 -0.15
23 -0.15
24 -0.15
25 -0.15
26 -0.15
27 -0.15
28 0.16
29 -0.15
3 -0.9
4 -0.73
42 0.36
43 0.15
44 0.37
47 0.15
48 0.15
49 0.15
5 -0.41
50 0.15
51 0.15
52 0.15
53 0.15
54 0.15
55 0.15
6 -0.62

> <PUBCHEM_EFFECTIVE_ROTOR_COUNT>
9.2

> <PUBCHEM_PHARMACOPHORE_FEATURES>
10
1 1 acceptor
1 3 cation
1 3 donor
1 4 donor
1 5 acceptor
1 6 acceptor
5 2 5 14 16 17 rings
6 19 21 22 24 25 27 rings
6 3 7 8 9 10 11 rings
6 6 20 23 26 28 29 rings

> <PUBCHEM_HEAVY_ATOM_COUNT>
29

> <PUBCHEM_ATOM_DEF_STEREO_COUNT>
2

> <PUBCHEM_ATOM_UDEF_STEREO_COUNT>
0

> <PUBCHEM_BOND_DEF_STEREO_COUNT>
0

> <PUBCHEM_BOND_UDEF_STEREO_COUNT>
0

> <PUBCHEM_ISOTOPIC_ATOM_COUNT>
0

> <PUBCHEM_COMPONENT_COUNT>
1

> <PUBCHEM_CACTVS_TAUTO_COUNT>
2

> <PUBCHEM_CONFORMER_ID>
026E370500000003

> <PUBCHEM_MMFF94_ENERGY>
51.3216

> <PUBCHEM_FEATURE_SELFOVERLAP>
50.747

> <PUBCHEM_SHAPE_FINGERPRINT>
10 15 14477241565654396999
10076449 9 18259701199307740077
10165383 225 9943805594926245346
10391435 84 18040436628808809074
106641 1 17274819168917194994
10670039 82 15864061049979020189
10674148 151 12684811121890647430
10883706 17 18268987773712628031
10904742 90 7925913677690340041
11135609 127 15285934614590021590
11135609 99 17774999163150198863
11315181 36 17489872631541697675
12144603 126 18341619196311753617
12516196 113 18408323263880952946
12522641 24 17988358278282731264
12643181 29 17530685429133047955
12838862 33 17822281405834371186
12857493 111 17748826319395905172
13617811 41 18040995142588397232
14150022 121 16988567849165821017
14251764 18 18413108355253758467
14251764 46 18341894099545636298
14257110 125 8862941676194633635
1454969 45 18412548713015901454
15183329 4 15068620465853454607
15301273 46 16415481536665374940
15357212 105 13612800099944640162
15461852 350 17775288261867601451
15728490 51 17489866050760399518
15840311 113 17703789258903421392
15849732 13 18131349717501813631
15979999 66 18114178661623029533
15980000 95 18410295808784802197
16120349 18 18410290354634349640
16991971 28 18341624728161098358
18006028 8 18335138682956203976
18365409 1 17774998059017186934
19611394 137 14979950419710288043
20105231 36 14476965584505393348
21095086 128 17704076171240078958
21585482 111 9150913676111116767
22224240 67 17988923371187163494
23559900 14 17531815770088613505
24771293 8 18272657817942411601
249057 3 18334294301461379475
3004659 81 17917439765432131109
3009799 131 17167865261994085034
335352 9 18334294288629101727
38570 142 8214140763575472937
4066623 53 17313106354103668204
4149490 64 18267869565901522475
474113 269 15213567963806474400
5219985 9 18409164406976581452
58083652 198 18260556653086933136
59682541 35 15841546396836174611
5969126 39 18334853888149635165
59755656 520 9727344714980772264
6004065 56 18409168835288109602
6081469 158 17022899039508331718
6126387 218 18412542085950013489
6523845 18 9079115531486193719
9663363 56 18333726914199670752
9962374 69 18336261353680850831

> <PUBCHEM_SHAPE_MULTIPOLES>
565.14
29.23
2.04
1.35
6.26
1.83
0.09
-12.46
2.14
-1.11
0.33
-0.13
-0.05
-1.74

> <PUBCHEM_SHAPE_SELFOVERLAP>
1209.297

> <PUBCHEM_SHAPE_VOLUME>
309.5

> <PUBCHEM_COORDINATE_TYPE>
2
5
10

$$$$
