11941501
  -OEChem-12032416353D

 46 49  0     1  0  0  0  0  0999 V2000
   -3.0879    3.6998    0.5400 S   0  0  0  0  0  0  0  0  0  0  0  0
    5.8551    2.6069   -0.7703 S   0  0  0  0  0  0  0  0  0  0  0  0
   -2.3680   -3.1054    1.1952 O   0  0  0  0  0  0  0  0  0  0  0  0
    0.5725   -0.9942   -2.6331 O   0  0  0  0  0  0  0  0  0  0  0  0
   -4.4075    0.8348    1.8469 O   0  0  0  0  0  0  0  0  0  0  0  0
   -1.2385   -1.1788   -1.2276 N   0  0  0  0  0  0  0  0  0  0  0  0
   -3.7354    0.5028   -0.3531 N   0  0  0  0  0  0  0  0  0  0  0  0
   -0.1948   -2.4241    1.2251 N   0  0  0  0  0  0  0  0  0  0  0  0
   -3.3637   -0.8884   -0.2314 C   0  0  2  0  0  0  0  0  0  0  0  0
   -1.8660   -1.0315    0.0725 C   0  0  1  0  0  0  0  0  0  0  0  0
   -3.5291   -1.6239   -1.5628 C   0  0  0  0  0  0  0  0  0  0  0  0
   -2.2237   -1.3361   -2.2877 C   0  0  0  0  0  0  0  0  0  0  0  0
   -1.5129   -2.2915    0.8411 C   0  0  0  0  0  0  0  0  0  0  0  0
    0.1047   -1.0227   -1.4949 C   0  0  0  0  0  0  0  0  0  0  0  0
    1.0384   -0.9073   -0.3444 C   0  0  0  0  0  0  0  0  0  0  0  0
    0.9139   -1.6334    0.8522 C   0  0  0  0  0  0  0  0  0  0  0  0
   -4.2289    1.2508    0.7033 C   0  0  0  0  0  0  0  0  0  0  0  0
    2.1963   -0.1408   -0.5708 C   0  0  0  0  0  0  0  0  0  0  0  0
    1.9840   -1.6258    1.7641 C   0  0  0  0  0  0  0  0  0  0  0  0
    3.2270   -0.1080    0.3672 C   0  0  0  0  0  0  0  0  0  0  0  0
   -4.5596    2.6726    0.3148 C   0  0  0  0  0  0  0  0  0  0  0  0
    3.1265   -0.8610    1.5298 C   0  0  0  0  0  0  0  0  0  0  0  0
    4.4003    0.6820    0.1203 C   0  0  0  0  0  0  0  0  0  0  0  0
    5.7303    0.4132    0.5609 C   0  0  0  0  0  0  0  0  0  0  0  0
    4.3286    1.8468   -0.6146 C   0  0  0  0  0  0  0  0  0  0  0  0
    6.6202    1.3795    0.1466 C   0  0  0  0  0  0  0  0  0  0  0  0
   -3.7817    5.2838    0.0108 C   0  0  0  0  0  0  0  0  0  0  0  0
   -3.9970   -1.3351    0.5424 H   0  0  0  0  0  0  0  0  0  0  0  0
   -1.4643   -0.1602    0.6033 H   0  0  0  0  0  0  0  0  0  0  0  0
   -4.4033   -1.3078   -2.1400 H   0  0  0  0  0  0  0  0  0  0  0  0
   -3.6131   -2.7021   -1.3798 H   0  0  0  0  0  0  0  0  0  0  0  0
   -1.9262   -2.1363   -2.9720 H   0  0  0  0  0  0  0  0  0  0  0  0
   -2.2694   -0.3956   -2.8481 H   0  0  0  0  0  0  0  0  0  0  0  0
   -3.5725    0.9637   -1.2439 H   0  0  0  0  0  0  0  0  0  0  0  0
   -0.0160   -3.1343    1.9312 H   0  0  0  0  0  0  0  0  0  0  0  0
    2.2899    0.3999   -1.5108 H   0  0  0  0  0  0  0  0  0  0  0  0
    1.9244   -2.1980    2.6881 H   0  0  0  0  0  0  0  0  0  0  0  0
   -5.3721    3.0293    0.9556 H   0  0  0  0  0  0  0  0  0  0  0  0
   -4.8948    2.7133   -0.7263 H   0  0  0  0  0  0  0  0  0  0  0  0
    3.9122   -0.8653    2.2809 H   0  0  0  0  0  0  0  0  0  0  0  0
    6.0369   -0.4448    1.1462 H   0  0  0  0  0  0  0  0  0  0  0  0
    3.4673    2.3212   -1.0652 H   0  0  0  0  0  0  0  0  0  0  0  0
    7.6833    1.4226    0.3368 H   0  0  0  0  0  0  0  0  0  0  0  0
   -3.0116    6.0563    0.0826 H   0  0  0  0  0  0  0  0  0  0  0  0
   -4.6188    5.5667    0.6542 H   0  0  0  0  0  0  0  0  0  0  0  0
   -4.1184    5.2240   -1.0274 H   0  0  0  0  0  0  0  0  0  0  0  0
  1 21  1  0  0  0  0
  1 27  1  0  0  0  0
  2 25  1  0  0  0  0
  2 26  1  0  0  0  0
  3 13  2  0  0  0  0
  4 14  2  0  0  0  0
  5 17  2  0  0  0  0
  6 10  1  0  0  0  0
  6 12  1  0  0  0  0
  6 14  1  0  0  0  0
  7  9  1  0  0  0  0
  7 17  1  0  0  0  0
  7 34  1  0  0  0  0
  8 13  1  0  0  0  0
  8 16  1  0  0  0  0
  8 35  1  0  0  0  0
  9 10  1  0  0  0  0
  9 11  1  0  0  0  0
  9 28  1  0  0  0  0
 10 13  1  0  0  0  0
 10 29  1  0  0  0  0
 11 12  1  0  0  0  0
 11 30  1  0  0  0  0
 11 31  1  0  0  0  0
 12 32  1  0  0  0  0
 12 33  1  0  0  0  0
 14 15  1  0  0  0  0
 15 16  2  0  0  0  0
 15 18  1  0  0  0  0
 16 19  1  0  0  0  0
 17 21  1  0  0  0  0
 18 20  2  0  0  0  0
 18 36  1  0  0  0  0
 19 22  2  0  0  0  0
 19 37  1  0  0  0  0
 20 22  1  0  0  0  0
 20 23  1  0  0  0  0
 21 38  1  0  0  0  0
 21 39  1  0  0  0  0
 22 40  1  0  0  0  0
 23 24  1  0  0  0  0
 23 25  2  0  0  0  0
 24 26  2  0  0  0  0
 24 41  1  0  0  0  0
 25 42  1  0  0  0  0
 26 43  1  0  0  0  0
 27 44  1  0  0  0  0
 27 45  1  0  0  0  0
 27 46  1  0  0  0  0
M  END
> <PUBCHEM_COMPOUND_CID>
11941501

> <PUBCHEM_CONFORMER_RMSD>
0.8

> <PUBCHEM_CONFORMER_DIVERSEORDER>
4
10
14
24
22
17
27
3
26
19
28
1
12
23
20
11
8
9
16
13
6
15
5
18
21
7
2
25

> <PUBCHEM_MMFF94_PARTIAL_CHARGES>
34
1 -0.46
10 0.36
12 0.3
13 0.57
14 0.54
15 0.09
16 0.12
17 0.57
18 -0.15
19 -0.15
2 -0.08
20 0.05
21 0.29
22 -0.15
23 -0.05
24 -0.15
25 -0.11
26 -0.11
27 0.23
3 -0.57
34 0.37
35 0.37
36 0.15
37 0.15
4 -0.57
40 0.15
41 0.15
42 0.15
43 0.15
5 -0.57
6 -0.66
7 -0.73
8 -0.55
9 0.3

> <PUBCHEM_EFFECTIVE_ROTOR_COUNT>
5.8

> <PUBCHEM_PHARMACOPHORE_FEATURES>
10
1 27 hydrophobe
1 3 acceptor
1 4 acceptor
1 5 acceptor
1 7 donor
1 8 donor
5 2 23 24 25 26 rings
5 6 9 10 11 12 rings
6 15 16 18 19 20 22 rings
7 6 8 10 13 14 15 16 rings

> <PUBCHEM_HEAVY_ATOM_COUNT>
27

> <PUBCHEM_ATOM_DEF_STEREO_COUNT>
2

> <PUBCHEM_ATOM_UDEF_STEREO_COUNT>
0

> <PUBCHEM_BOND_DEF_STEREO_COUNT>
0

> <PUBCHEM_BOND_UDEF_STEREO_COUNT>
0

> <PUBCHEM_ISOTOPIC_ATOM_COUNT>
0

> <PUBCHEM_COMPONENT_COUNT>
1

> <PUBCHEM_CACTVS_TAUTO_COUNT>
6

> <PUBCHEM_CONFORMER_ID>
00B6367D00000004

> <PUBCHEM_MMFF94_ENERGY>
82.882

> <PUBCHEM_FEATURE_SELFOVERLAP>
50.804

> <PUBCHEM_SHAPE_FINGERPRINT>
105312 117 17203894071502390324
10670039 82 18060413642541184812
11552529 35 17972313186207147594
11578080 2 17345779420338728671
1200032 147 17487640562343423443
12107183 9 18116985599445433202
12390115 104 17823142392516910430
12596602 18 17894911832560948657
12788726 201 18340193159679299961
13761468 95 17844267149753856864
13965767 371 17606687907465984829
14294032 229 17847059970493570341
14347329 18 17917710171671517088
14739800 52 18267847519591715048
14790565 3 18408324402153346600
14848178 5 8790597083335483960
15163728 17 17989216910215091415
15209294 21 17968095364991944050
21302155 148 18340209591834635276
21756936 100 18410854390992710602
21864079 5 18335419015571724003
22393880 68 15913320325485079262
23379529 103 9943509813466719665
23559900 14 18041833026647243522
23569943 247 16444723031912239674
2838139 119 18201714050985694368
392239 28 18043269018349043411
44802255 64 17560802195258182868
5104073 3 16154526719810247256
6201320 215 18131063823927610464
633830 44 18409445878127914406
6376802 137 17463427353368418939
6608658 132 18270950328288424509
7288768 16 17895199874463449337
7808743 9 18272087167376651809
9849439 229 18120383060231829077

> <PUBCHEM_SHAPE_MULTIPOLES>
530.8
12.8
4.48
1.79
14.17
6.31
-0.6
12.76
0.9
-6.38
0.71
-0.65
-1.18
-2.12

> <PUBCHEM_SHAPE_SELFOVERLAP>
1129.398

> <PUBCHEM_SHAPE_VOLUME>
297.7

> <PUBCHEM_COORDINATE_TYPE>
2
5
10

$$$$
