26743284
  -OEChem-12032416213D

 62 65  0     1  0  0  0  0  0999 V2000
    6.1832    0.2068    1.3609 O   0  0  0  0  0  0  0  0  0  0  0  0
   -1.7884    0.8074    1.7125 O   0  0  0  0  0  0  0  0  0  0  0  0
    6.4952    1.1148   -0.7555 N   0  0  0  0  0  0  0  0  0  0  0  0
    2.2586   -3.0879   -0.4569 N   0  0  0  0  0  0  0  0  0  0  0  0
   -0.4033    0.8751    1.8018 N   0  0  0  0  0  0  0  0  0  0  0  0
    3.6305   -0.7778    0.7631 C   0  0  1  0  0  0  0  0  0  0  0  0
    2.1051   -0.8036    0.5045 C   0  0  2  0  0  0  0  0  0  0  0  0
    7.8206    1.6481   -0.5398 C   0  0  0  0  0  0  0  0  0  0  0  0
    4.1433   -2.2227    0.8853 C   0  0  0  0  0  0  0  0  0  0  0  0
    8.7580    1.8851   -1.6872 C   0  0  0  0  0  0  0  0  0  0  0  0
    9.0401    0.7889   -0.7021 C   0  0  0  0  0  0  0  0  0  0  0  0
    4.4291   -0.0030   -0.2920 C   0  0  0  0  0  0  0  0  0  0  0  0
    1.7428   -1.7343   -0.6650 C   0  0  0  0  0  0  0  0  0  0  0  0
    3.7106   -3.0966   -0.2912 C   0  0  0  0  0  0  0  0  0  0  0  0
    1.5107    0.5885    0.2873 C   0  0  0  0  0  0  0  0  0  0  0  0
    5.7842    0.4340    0.2219 C   0  0  0  0  0  0  0  0  0  0  0  0
    0.0362    0.6039    0.5697 C   0  0  0  0  0  0  0  0  0  0  0  0
   -1.0155    0.3592   -0.3302 C   0  0  0  0  0  0  0  0  0  0  0  0
   -2.1407    0.4993    0.4382 C   0  0  0  0  0  0  0  0  0  0  0  0
   -7.7548    0.0778   -0.5456 C   0  0  0  0  0  0  0  0  0  0  0  0
   -3.5495    0.3942    0.1914 C   0  0  0  0  0  0  0  0  0  0  0  0
   -6.2898    0.1878   -0.2886 C   0  0  0  0  0  0  0  0  0  0  0  0
   -4.0121    0.0815   -1.0869 C   0  0  0  0  0  0  0  0  0  0  0  0
   -4.4571    0.6033    1.2297 C   0  0  0  0  0  0  0  0  0  0  0  0
   -5.3821   -0.0216   -1.3269 C   0  0  0  0  0  0  0  0  0  0  0  0
   -5.8272    0.5003    0.9897 C   0  0  0  0  0  0  0  0  0  0  0  0
   -8.1342   -1.3468   -1.0561 C   0  0  0  0  0  0  0  0  0  0  0  0
   -8.2183    1.1035   -1.6261 C   0  0  0  0  0  0  0  0  0  0  0  0
   -8.6750    0.3347    0.6938 C   0  0  0  0  0  0  0  0  0  0  0  0
    3.7781   -0.2897    1.7364 H   0  0  0  0  0  0  0  0  0  0  0  0
    1.6500   -1.2326    1.4112 H   0  0  0  0  0  0  0  0  0  0  0  0
    7.8396    2.3866    0.2557 H   0  0  0  0  0  0  0  0  0  0  0  0
    3.7491   -2.6583    1.8134 H   0  0  0  0  0  0  0  0  0  0  0  0
    5.2348   -2.2492    0.9762 H   0  0  0  0  0  0  0  0  0  0  0  0
    9.3850    2.7676   -1.6533 H   0  0  0  0  0  0  0  0  0  0  0  0
    8.4412    1.5974   -2.6822 H   0  0  0  0  0  0  0  0  0  0  0  0
    8.9109   -0.2332   -1.0363 H   0  0  0  0  0  0  0  0  0  0  0  0
    9.8556    0.9339   -0.0044 H   0  0  0  0  0  0  0  0  0  0  0  0
    3.9117    0.9207   -0.5721 H   0  0  0  0  0  0  0  0  0  0  0  0
    4.5664   -0.5818   -1.2109 H   0  0  0  0  0  0  0  0  0  0  0  0
    0.6568   -1.8183   -0.7646 H   0  0  0  0  0  0  0  0  0  0  0  0
    2.1191   -1.3337   -1.6145 H   0  0  0  0  0  0  0  0  0  0  0  0
    4.2014   -2.7843   -1.2195 H   0  0  0  0  0  0  0  0  0  0  0  0
    4.0321   -4.1268   -0.1010 H   0  0  0  0  0  0  0  0  0  0  0  0
    1.6791    0.9384   -0.7385 H   0  0  0  0  0  0  0  0  0  0  0  0
    1.9959    1.3141    0.9533 H   0  0  0  0  0  0  0  0  0  0  0  0
    6.0779    1.2615   -1.6710 H   0  0  0  0  0  0  0  0  0  0  0  0
    2.0067   -3.6713   -1.2543 H   0  0  0  0  0  0  0  0  0  0  0  0
   -0.9541    0.1199   -1.3819 H   0  0  0  0  0  0  0  0  0  0  0  0
   -3.3293   -0.0873   -1.9156 H   0  0  0  0  0  0  0  0  0  0  0  0
   -4.1352    0.8483    2.2387 H   0  0  0  0  0  0  0  0  0  0  0  0
   -5.7150   -0.2662   -2.3315 H   0  0  0  0  0  0  0  0  0  0  0  0
   -6.4884    0.6727    1.8319 H   0  0  0  0  0  0  0  0  0  0  0  0
   -9.2145   -1.4379   -1.2181 H   0  0  0  0  0  0  0  0  0  0  0  0
   -7.6440   -1.5850   -2.0064 H   0  0  0  0  0  0  0  0  0  0  0  0
   -7.8370   -2.1124   -0.3297 H   0  0  0  0  0  0  0  0  0  0  0  0
   -9.2998    1.0435   -1.7950 H   0  0  0  0  0  0  0  0  0  0  0  0
   -7.9824    2.1285   -1.3163 H   0  0  0  0  0  0  0  0  0  0  0  0
   -7.7306    0.9296   -2.5915 H   0  0  0  0  0  0  0  0  0  0  0  0
   -9.7342    0.2363    0.4263 H   0  0  0  0  0  0  0  0  0  0  0  0
   -8.4793   -0.3866    1.4958 H   0  0  0  0  0  0  0  0  0  0  0  0
   -8.5384    1.3466    1.0928 H   0  0  0  0  0  0  0  0  0  0  0  0
  1 16  2  0  0  0  0
  2  5  1  0  0  0  0
  2 19  1  0  0  0  0
  3  8  1  0  0  0  0
  3 16  1  0  0  0  0
  3 47  1  0  0  0  0
  4 13  1  0  0  0  0
  4 14  1  0  0  0  0
  4 48  1  0  0  0  0
  5 17  2  0  0  0  0
  6  7  1  0  0  0  0
  6  9  1  0  0  0  0
  6 12  1  0  0  0  0
  6 30  1  0  0  0  0
  7 13  1  0  0  0  0
  7 15  1  0  0  0  0
  7 31  1  0  0  0  0
  8 10  1  0  0  0  0
  8 11  1  0  0  0  0
  8 32  1  0  0  0  0
  9 14  1  0  0  0  0
  9 33  1  0  0  0  0
  9 34  1  0  0  0  0
 10 11  1  0  0  0  0
 10 35  1  0  0  0  0
 10 36  1  0  0  0  0
 11 37  1  0  0  0  0
 11 38  1  0  0  0  0
 12 16  1  0  0  0  0
 12 39  1  0  0  0  0
 12 40  1  0  0  0  0
 13 41  1  0  0  0  0
 13 42  1  0  0  0  0
 14 43  1  0  0  0  0
 14 44  1  0  0  0  0
 15 17  1  0  0  0  0
 15 45  1  0  0  0  0
 15 46  1  0  0  0  0
 17 18  1  0  0  0  0
 18 19  2  0  0  0  0
 18 49  1  0  0  0  0
 19 21  1  0  0  0  0
 20 22  1  0  0  0  0
 20 27  1  0  0  0  0
 20 28  1  0  0  0  0
 20 29  1  0  0  0  0
 21 23  2  0  0  0  0
 21 24  1  0  0  0  0
 22 25  2  0  0  0  0
 22 26  1  0  0  0  0
 23 25  1  0  0  0  0
 23 50  1  0  0  0  0
 24 26  2  0  0  0  0
 24 51  1  0  0  0  0
 25 52  1  0  0  0  0
 26 53  1  0  0  0  0
 27 54  1  0  0  0  0
 27 55  1  0  0  0  0
 27 56  1  0  0  0  0
 28 57  1  0  0  0  0
 28 58  1  0  0  0  0
 28 59  1  0  0  0  0
 29 60  1  0  0  0  0
 29 61  1  0  0  0  0
 29 62  1  0  0  0  0
M  END
> <PUBCHEM_COMPOUND_CID>
26743284

> <PUBCHEM_CONFORMER_RMSD>
1

> <PUBCHEM_CONFORMER_DIVERSEORDER>
1
71
75
94
3
46
51
19
139
80
128
18
72
124
61
92
68
35
87
106
105
137
90
111
140
14
116
57
22
117
47
145
138
62
131
115
148
27
109
144
66
53
127
20
17
101
43
110
143
59
93
85
147
88
28
77
32
83
30
129
114
119
126
89
118
98
67
16
95
96
81
112
34
91
121
99
141
39
8
7
50
125
63
48
97
49
58
130
133
33
55
12
44
41
52
79
134
11
64
45
5
113
102
31
142
132
73
69
15
13
40
36
38
100
103
4
56
23
26
84
74
136
120
54
10
60
29
25
146
2
108
104
107
82
9
42
76
21
24
135
37
123
65
86
122
78
6
70

> <PUBCHEM_MMFF94_PARTIAL_CHARGES>
35
1 -0.57
10 -0.2
11 -0.2
12 0.06
13 0.27
14 0.27
15 0.18
16 0.57
17 0.11
18 -0.15
19 0.09
2 -0.02
20 0.14
21 0.05
22 -0.14
23 -0.15
24 -0.15
25 -0.15
26 -0.15
3 -0.58
32 0.1
35 0.1
36 0.1
37 0.1
38 0.1
4 -0.9
47 0.37
48 0.36
49 0.15
5 -0.41
50 0.15
51 0.15
52 0.15
53 0.15
8 0.05

> <PUBCHEM_EFFECTIVE_ROTOR_COUNT>
9.8

> <PUBCHEM_PHARMACOPHORE_FEATURES>
9
1 1 acceptor
1 3 donor
1 4 cation
1 4 donor
1 5 acceptor
4 20 27 28 29 hydrophobe
5 2 5 17 18 19 rings
6 21 22 23 24 25 26 rings
6 4 6 7 9 13 14 rings

> <PUBCHEM_HEAVY_ATOM_COUNT>
29

> <PUBCHEM_ATOM_DEF_STEREO_COUNT>
2

> <PUBCHEM_ATOM_UDEF_STEREO_COUNT>
0

> <PUBCHEM_BOND_DEF_STEREO_COUNT>
0

> <PUBCHEM_BOND_UDEF_STEREO_COUNT>
0

> <PUBCHEM_ISOTOPIC_ATOM_COUNT>
0

> <PUBCHEM_COMPONENT_COUNT>
1

> <PUBCHEM_CACTVS_TAUTO_COUNT>
2

> <PUBCHEM_CONFORMER_ID>
019811F400000001

> <PUBCHEM_MMFF94_ENERGY>
63.9401

> <PUBCHEM_FEATURE_SELFOVERLAP>
45.671

> <PUBCHEM_SHAPE_FINGERPRINT>
10 15 17458344152193534010
10165383 225 18410013256941223300
10299344 5 17989486308107580499
10674148 151 15698281110290542518
10835480 77 18040719160151976857
11315181 36 18113901564087911233
11409948 35 15574982925125272072
11443803 9 18342168995766749146
12144603 126 18060146418972824913
12373685 5 17385996304308448090
13150687 139 18341345440008920462
13533116 47 18130783404605180963
14117953 113 18186811296869976404
14118638 360 18341051817909842793
14251764 18 17846775200965395371
14344974 52 16732984267535606621
1454969 45 18342176669992020104
15064986 266 18339371760306141025
15183329 4 18131062711440434737
15439362 3 18053098721248989784
1577012 14 17917151603075055769
16991971 28 16917066693879185617
1754911 235 18342459257202146292
18335252 114 18409171022339248724
18365409 1 18199749318238630414
20105231 36 16774080704524553191
20771845 171 18187651280967408246
21049683 271 18342455971526141937
21095086 128 14189575243141720245
21150785 3 18410855473313990889
21267235 1 16630526258862651097
21360443 126 18336269024450548630
23522609 53 17702126723215939512
23559900 14 18271794754009418401
246663 6 14549023186627073932
24771293 8 18040721346269764557
3004659 81 17346594188604097185
335352 9 17489582356562177341
4017518 198 14620794908127487453
4073 2 18260552221128920859
4325135 7 18342175570338039188
437795 160 14490479733056281433
4403749 210 17605286275370516322
44880568 143 18042963173538562941
45377200 153 15697707225276481759
5486654 2 18201720665340545986
6058803 2 17698174945808837642
6081469 158 15285351796544454506
636775 72 16660355958006653613
636775 8 17917712461664591519

> <PUBCHEM_SHAPE_MULTIPOLES>
570.12
30.11
2.05
1.43
0.06
1.92
-0.09
-12.12
10.73
4.51
0.56
-0.83
-0.31
-1.59

> <PUBCHEM_SHAPE_SELFOVERLAP>
1199.595

> <PUBCHEM_SHAPE_VOLUME>
321

> <PUBCHEM_COORDINATE_TYPE>
2
5
10

$$$$
