11883362
  -OEChem-12032416373D

 59 63  0     1  0  0  0  0  0999 V2000
    3.2249    2.0637   -1.0263 S   0  0  0  0  0  0  0  0  0  0  0  0
   -1.2772    1.2709    0.2632 O   0  0  0  0  0  0  0  0  0  0  0  0
    0.5052   -0.2915    2.2236 O   0  0  0  0  0  0  0  0  0  0  0  0
   -2.9204   -0.7247    1.2684 O   0  0  0  0  0  0  0  0  0  0  0  0
    3.3327    3.3609   -0.3863 O   0  0  0  0  0  0  0  0  0  0  0  0
    3.6045    1.9022   -2.4167 O   0  0  0  0  0  0  0  0  0  0  0  0
   -3.0879   -1.4312   -0.9105 O   0  0  0  0  0  0  0  0  0  0  0  0
    1.6531    1.4578   -0.8149 N   0  0  0  0  0  0  0  0  0  0  0  0
   -4.9567   -0.7412    0.2785 N   0  0  0  0  0  0  0  0  0  0  0  0
    3.7790   -0.7882   -1.6943 N   0  0  0  0  0  0  0  0  0  0  0  0
    0.6127   -0.0584    0.8037 C   0  0  1  0  0  0  0  0  0  0  0  0
   -0.7966   -0.0834    0.2459 C   0  0  1  0  0  0  0  0  0  0  0  0
    1.0807    1.3528    0.5484 C   0  0  2  0  0  0  0  0  0  0  0  0
   -1.5290   -0.9495    1.2426 C   0  0  1  0  0  0  0  0  0  0  0  0
   -0.2048    2.1532    0.6275 C   0  0  0  0  0  0  0  0  0  0  0  0
   -0.8661   -0.5649    2.5459 C   0  0  0  0  0  0  0  0  0  0  0  0
   -5.9468   -0.9356   -0.7573 C   0  0  0  0  0  0  0  0  0  0  0  0
   -7.2992   -1.3366   -0.1583 C   0  0  0  0  0  0  0  0  0  0  0  0
   -6.0770    0.3128   -1.6365 C   0  0  0  0  0  0  0  0  0  0  0  0
   -7.9857   -0.1774    0.5639 C   0  0  0  0  0  0  0  0  0  0  0  0
   -6.7656    1.4693   -0.9118 C   0  0  0  0  0  0  0  0  0  0  0  0
   -8.1137    1.0491   -0.3344 C   0  0  0  0  0  0  0  0  0  0  0  0
   -3.6134   -1.0056    0.1128 C   0  0  0  0  0  0  0  0  0  0  0  0
    4.1884    0.9133   -0.0920 C   0  0  0  0  0  0  0  0  0  0  0  0
    4.3507   -0.3873   -0.5430 C   0  0  0  0  0  0  0  0  0  0  0  0
    4.7603    1.3710    1.0909 C   0  0  0  0  0  0  0  0  0  0  0  0
    5.1296   -1.2604    0.2448 C   0  0  0  0  0  0  0  0  0  0  0  0
    5.5263    0.5056    1.8620 C   0  0  0  0  0  0  0  0  0  0  0  0
    5.7118   -0.8081    1.4411 C   0  0  0  0  0  0  0  0  0  0  0  0
    5.3001   -2.5775   -0.2023 C   0  0  0  0  0  0  0  0  0  0  0  0
    3.9680   -2.0676   -2.0905 C   0  0  0  0  0  0  0  0  0  0  0  0
    4.7123   -2.9936   -1.3882 C   0  0  0  0  0  0  0  0  0  0  0  0
    1.2571   -0.8389    0.3875 H   0  0  0  0  0  0  0  0  0  0  0  0
   -0.8351   -0.4377   -0.7876 H   0  0  0  0  0  0  0  0  0  0  0  0
    1.7891    1.7162    1.2981 H   0  0  0  0  0  0  0  0  0  0  0  0
   -1.3219   -2.0099    1.0445 H   0  0  0  0  0  0  0  0  0  0  0  0
   -0.3960    2.4857    1.6537 H   0  0  0  0  0  0  0  0  0  0  0  0
   -0.2205    3.0302   -0.0267 H   0  0  0  0  0  0  0  0  0  0  0  0
   -1.3114    0.3320    2.9910 H   0  0  0  0  0  0  0  0  0  0  0  0
   -0.9158   -1.3654    3.2900 H   0  0  0  0  0  0  0  0  0  0  0  0
    1.1870    0.9400   -1.5695 H   0  0  0  0  0  0  0  0  0  0  0  0
   -5.5941   -1.7604   -1.3890 H   0  0  0  0  0  0  0  0  0  0  0  0
   -7.1739   -2.1749    0.5376 H   0  0  0  0  0  0  0  0  0  0  0  0
   -7.9560   -1.6879   -0.9644 H   0  0  0  0  0  0  0  0  0  0  0  0
   -6.6627    0.0591   -2.5293 H   0  0  0  0  0  0  0  0  0  0  0  0
   -5.0914    0.6408   -1.9879 H   0  0  0  0  0  0  0  0  0  0  0  0
   -7.4262    0.0871    1.4688 H   0  0  0  0  0  0  0  0  0  0  0  0
   -8.9821   -0.4933    0.8937 H   0  0  0  0  0  0  0  0  0  0  0  0
   -6.9086    2.3040   -1.6074 H   0  0  0  0  0  0  0  0  0  0  0  0
   -6.1201    1.8369   -0.1048 H   0  0  0  0  0  0  0  0  0  0  0  0
   -8.8079    0.8285   -1.1547 H   0  0  0  0  0  0  0  0  0  0  0  0
   -8.5465    1.8795    0.2345 H   0  0  0  0  0  0  0  0  0  0  0  0
   -5.2490   -0.3473    1.1675 H   0  0  0  0  0  0  0  0  0  0  0  0
    4.6277    2.3891    1.4431 H   0  0  0  0  0  0  0  0  0  0  0  0
    5.9767    0.8507    2.7876 H   0  0  0  0  0  0  0  0  0  0  0  0
    6.3130   -1.4776    2.0523 H   0  0  0  0  0  0  0  0  0  0  0  0
    5.8921   -3.2868    0.3715 H   0  0  0  0  0  0  0  0  0  0  0  0
    3.4844   -2.3355   -3.0243 H   0  0  0  0  0  0  0  0  0  0  0  0
    4.8336   -4.0082   -1.7486 H   0  0  0  0  0  0  0  0  0  0  0  0
  1  5  2  0  0  0  0
  1  6  2  0  0  0  0
  1  8  1  0  0  0  0
  1 24  1  0  0  0  0
  2 12  1  0  0  0  0
  2 15  1  0  0  0  0
  3 11  1  0  0  0  0
  3 16  1  0  0  0  0
  4 14  1  0  0  0  0
  4 23  1  0  0  0  0
  7 23  2  0  0  0  0
  8 13  1  0  0  0  0
  8 41  1  0  0  0  0
  9 17  1  0  0  0  0
  9 23  1  0  0  0  0
  9 53  1  0  0  0  0
 10 25  1  0  0  0  0
 10 31  2  0  0  0  0
 11 12  1  0  0  0  0
 11 13  1  0  0  0  0
 11 33  1  0  0  0  0
 12 14  1  0  0  0  0
 12 34  1  0  0  0  0
 13 15  1  0  0  0  0
 13 35  1  0  0  0  0
 14 16  1  0  0  0  0
 14 36  1  0  0  0  0
 15 37  1  0  0  0  0
 15 38  1  0  0  0  0
 16 39  1  0  0  0  0
 16 40  1  0  0  0  0
 17 18  1  0  0  0  0
 17 19  1  0  0  0  0
 17 42  1  0  0  0  0
 18 20  1  0  0  0  0
 18 43  1  0  0  0  0
 18 44  1  0  0  0  0
 19 21  1  0  0  0  0
 19 45  1  0  0  0  0
 19 46  1  0  0  0  0
 20 22  1  0  0  0  0
 20 47  1  0  0  0  0
 20 48  1  0  0  0  0
 21 22  1  0  0  0  0
 21 49  1  0  0  0  0
 21 50  1  0  0  0  0
 22 51  1  0  0  0  0
 22 52  1  0  0  0  0
 24 25  1  0  0  0  0
 24 26  2  0  0  0  0
 25 27  2  0  0  0  0
 26 28  1  0  0  0  0
 26 54  1  0  0  0  0
 27 29  1  0  0  0  0
 27 30  1  0  0  0  0
 28 29  2  0  0  0  0
 28 55  1  0  0  0  0
 29 56  1  0  0  0  0
 30 32  2  0  0  0  0
 30 57  1  0  0  0  0
 31 32  1  0  0  0  0
 31 58  1  0  0  0  0
 32 59  1  0  0  0  0
M  END
> <PUBCHEM_COMPOUND_CID>
11883362

> <PUBCHEM_CONFORMER_RMSD>
1

> <PUBCHEM_CONFORMER_DIVERSEORDER>
1
270
165
205
18
328
5
87
220
197
26
94
146
398
56
300
379
169
107
113
148
293
204
383
25
246
264
322
345
406
211
260
151
133
108
95
371
229
326
331
251
327
73
234
312
178
367
65
97
150
101
290
298
86
188
159
33
403
258
230
39
302
125
27
259
19
323
394
183
337
172
88
332
58
395
60
237
382
102
7
256
389
192
3
209
278
43
145
283
294
271
374
116
198
333
98
347
250
311
291
252
119
142
284
179
334
29
63
228
405
376
276
70
80
375
340
360
166
6
167
232
392
239
286
10
84
212
136
75
202
12
218
128
373
11
380
238
221
168
233
115
268
40
130
401
127
158
281
176
214
321
170
257
315
173
76
381
64
388
280
213
140
182
400
354
303
71
396
241
105
30
288
77
201
162
272
386
206
277
319
78
269
305
336
109
126
184
219
135
121
358
118
404
66
24
299
282
242
83
285
21
390
200
335
131
32
106
253
344
248
254
112
287
92
187
210
177
129
72
48
154
369
224
316
49
59
110
62
227
359
273
329
53
174
8
103
385
240
216
318
13
203
36
99
132
275
297
235
304
163
4
123
120
368
377
339
317
67
295
208
89
348
37
289
41
190
274
356
74
16
14
85
357
207
54
114
249
45
189
155
90
46
313
185
137
279
266
9
393
365
262
175
47
50
52
402
156
191
310
117
61
387
186
100
152
301
308
199
96
351
194
364
55
31
217
309
343
22
222
363
144
307
391
82
350
111
261
180
42
292
384
352
164
157
171
57
372
366
306
139
44
265
267
38
28
342
15
51
124
225
223
138
243
147
153
81
195
263
353
330
325
104
160
215
231
134
35
399
141
2
355
362
122
361
341
23
338
314
370
296
149
91
244
68
69
193
34
20
196
397
378
181
346
161
93
349
17
143
247
236
324
79
226
245
320
255

> <PUBCHEM_MMFF94_PARTIAL_CHARGES>
34
1 1.45
10 -0.62
11 0.28
12 0.28
13 0.36
14 0.28
15 0.28
16 0.28
17 0.3
2 -0.56
23 0.78
24 -0.01
25 0.31
26 -0.15
28 -0.15
29 -0.15
3 -0.56
30 -0.15
31 0.16
32 -0.15
4 -0.43
41 0.42
5 -0.65
53 0.37
54 0.15
55 0.15
56 0.15
57 0.15
58 0.15
59 0.15
6 -0.65
7 -0.57
8 -0.91
9 -0.73

> <PUBCHEM_EFFECTIVE_ROTOR_COUNT>
9.4

> <PUBCHEM_PHARMACOPHORE_FEATURES>
13
1 10 acceptor
1 2 acceptor
1 3 acceptor
1 5 acceptor
1 6 acceptor
1 7 acceptor
1 8 donor
1 9 donor
5 2 11 12 13 15 rings
5 3 11 12 14 16 rings
6 10 25 27 30 31 32 rings
6 17 18 19 20 21 22 rings
6 24 25 26 27 28 29 rings

> <PUBCHEM_HEAVY_ATOM_COUNT>
32

> <PUBCHEM_ATOM_DEF_STEREO_COUNT>
4

> <PUBCHEM_ATOM_UDEF_STEREO_COUNT>
0

> <PUBCHEM_BOND_DEF_STEREO_COUNT>
0

> <PUBCHEM_BOND_UDEF_STEREO_COUNT>
0

> <PUBCHEM_ISOTOPIC_ATOM_COUNT>
0

> <PUBCHEM_COMPONENT_COUNT>
1

> <PUBCHEM_CACTVS_TAUTO_COUNT>
2

> <PUBCHEM_CONFORMER_ID>
00B5536200000001

> <PUBCHEM_MMFF94_ENERGY>
62.7405

> <PUBCHEM_FEATURE_SELFOVERLAP>
66.741

> <PUBCHEM_SHAPE_FINGERPRINT>
10675989 125 17530963618359575632
11135609 127 18199739413669596129
11991303 11 14924235940932414177
1200032 147 12901844826257790886
12098696 120 18335979750372410749
13533116 47 17632579344716041370
13782708 43 16845570925045665857
14294032 229 16952523581506234933
14429115 67 18130793347839202930
1454969 45 12895070764381890033
15082195 135 18337686273374225692
15119646 104 17846782892898706399
15183329 4 18202010940932118949
15419008 42 18197209261836707959
15475509 8 18041280980861399605
19315092 285 17417252014372893634
20511986 3 17632283618700258710
20715895 44 18335135410339038522
21458453 9 10231751219532024717
21781051 124 16732996335935136947
23559900 14 17968673712956580736
3004659 81 18335706056994848908
3044373 193 18336553797508014103
3459 83 18411707556492656001
4093350 32 18340199786761298336
437795 163 9006475210199471393
4625314 4 10881668110620407043
4760202 70 11098731540207909787
57816373 69 16843903953406235590
59682541 52 18343021112249604165
6081469 158 18410009898139901102
6441014 3 17121434840038125350
6443934 186 11312052145349661341
8988823 20 17418372515204443744
9658208 31 16660932191697192075

> <PUBCHEM_SHAPE_MULTIPOLES>
612.24
21.08
2.65
1.97
39.37
0.14
-0.16
-4.24
3.45
-4.12
1.19
-1.69
-0.1
1.09

> <PUBCHEM_SHAPE_SELFOVERLAP>
1314.368

> <PUBCHEM_SHAPE_VOLUME>
338.9

> <PUBCHEM_COORDINATE_TYPE>
2
5
10

$$$$
