25389601
  -OEChem-12032416163D

 72 76  0     1  0  0  0  0  0999 V2000
   -1.4220   -2.2495    0.1834 O   0  0  0  0  0  0  0  0  0  0  0  0
   -2.3664   -0.8757    1.7487 O   0  0  0  0  0  0  0  0  0  0  0  0
    3.4767    2.6318    2.0373 O   0  0  0  0  0  0  0  0  0  0  0  0
    1.8390   -3.7342    1.1817 N   0  0  2  0  0  0  0  0  0  0  0  0
    4.8241   -0.3735   -1.0250 N   0  0  0  0  0  0  0  0  0  0  0  0
    4.8715    0.9663   -1.1191 N   0  0  0  0  0  0  0  0  0  0  0  0
   -3.4299   -1.3448   -0.2833 N   0  0  0  0  0  0  0  0  0  0  0  0
    2.6593   -3.0990   -1.2072 C   0  0  2  0  0  0  0  0  0  0  0  0
    3.4669   -2.3225   -0.1306 C   0  0  2  0  0  0  0  0  0  0  0  0
    0.6781   -3.3802    0.3230 C   0  0  2  0  0  0  0  0  0  0  0  0
    1.1551   -2.8042   -1.0276 C   0  0  0  0  0  0  0  0  0  0  0  0
    2.8645   -4.6018   -0.9198 C   0  0  0  0  0  0  0  0  0  0  0  0
    2.7912   -2.5973    1.2432 C   0  0  0  0  0  0  0  0  0  0  0  0
    2.5328   -4.8853    0.5558 C   0  0  0  0  0  0  0  0  0  0  0  0
    3.7293   -0.8408   -0.3589 C   0  0  0  0  0  0  0  0  0  0  0  0
   -0.3038   -2.4421    1.0281 C   0  0  0  0  0  0  0  0  0  0  0  0
    3.0108    0.2706    0.0086 C   0  0  0  0  0  0  0  0  0  0  0  0
    3.7612    1.3541   -0.4859 C   0  0  0  0  0  0  0  0  0  0  0  0
    5.8866   -1.1599   -1.6078 C   0  0  0  0  0  0  0  0  0  0  0  0
    3.4388    2.7519   -0.3636 C   0  0  0  0  0  0  0  0  0  0  0  0
   -2.4199   -1.4259    0.6556 C   0  0  0  0  0  0  0  0  0  0  0  0
    3.3062    3.3491    0.8899 C   0  0  0  0  0  0  0  0  0  0  0  0
    3.2586    3.5105   -1.5202 C   0  0  0  0  0  0  0  0  0  0  0  0
    2.9934    4.7050    0.9870 C   0  0  0  0  0  0  0  0  0  0  0  0
    2.9458    4.8665   -1.4232 C   0  0  0  0  0  0  0  0  0  0  0  0
   -4.6352   -0.6109   -0.2039 C   0  0  0  0  0  0  0  0  0  0  0  0
    2.8132    5.4638   -0.1697 C   0  0  0  0  0  0  0  0  0  0  0  0
   -4.9140    0.1517    0.9305 C   0  0  0  0  0  0  0  0  0  0  0  0
   -5.5459   -0.6491   -1.2598 C   0  0  0  0  0  0  0  0  0  0  0  0
    4.7956    2.5779    2.5758 C   0  0  0  0  0  0  0  0  0  0  0  0
   -7.0142    0.8376   -0.0473 C   0  0  0  0  0  0  0  0  0  0  0  0
   -6.1036    0.8759    1.0088 C   0  0  0  0  0  0  0  0  0  0  0  0
   -6.7353    0.0751   -1.1814 C   0  0  0  0  0  0  0  0  0  0  0  0
   -8.2860    1.6119    0.0365 C   0  0  0  0  0  0  0  0  0  0  0  0
   -9.5310    0.7054   -0.0026 C   0  0  0  0  0  0  0  0  0  0  0  0
   -8.3915    2.6917   -1.0571 C   0  0  0  0  0  0  0  0  0  0  0  0
    2.9875   -2.8440   -2.2201 H   0  0  0  0  0  0  0  0  0  0  0  0
    4.4575   -2.7988   -0.0766 H   0  0  0  0  0  0  0  0  0  0  0  0
    0.1136   -4.3002    0.1094 H   0  0  0  0  0  0  0  0  0  0  0  0
    0.9807   -1.7242   -1.0945 H   0  0  0  0  0  0  0  0  0  0  0  0
    0.5886   -3.2705   -1.8433 H   0  0  0  0  0  0  0  0  0  0  0  0
    3.8996   -4.8939   -1.1315 H   0  0  0  0  0  0  0  0  0  0  0  0
    2.2182   -5.1984   -1.5750 H   0  0  0  0  0  0  0  0  0  0  0  0
    3.5729   -2.8344    1.9781 H   0  0  0  0  0  0  0  0  0  0  0  0
    2.2899   -1.7196    1.6614 H   0  0  0  0  0  0  0  0  0  0  0  0
    1.9087   -5.7844    0.6310 H   0  0  0  0  0  0  0  0  0  0  0  0
    3.4488   -5.1162    1.1143 H   0  0  0  0  0  0  0  0  0  0  0  0
    0.1532   -1.4699    1.2421 H   0  0  0  0  0  0  0  0  0  0  0  0
   -0.6345   -2.8921    1.9723 H   0  0  0  0  0  0  0  0  0  0  0  0
    2.0741    0.2973    0.5470 H   0  0  0  0  0  0  0  0  0  0  0  0
    6.5185   -0.5158   -2.2255 H   0  0  0  0  0  0  0  0  0  0  0  0
    6.4778   -1.5922   -0.7969 H   0  0  0  0  0  0  0  0  0  0  0  0
    5.4473   -1.9419   -2.2313 H   0  0  0  0  0  0  0  0  0  0  0  0
    3.3538    3.0635   -2.5071 H   0  0  0  0  0  0  0  0  0  0  0  0
   -3.2926   -1.8778   -1.1386 H   0  0  0  0  0  0  0  0  0  0  0  0
    2.8876    5.1774    1.9599 H   0  0  0  0  0  0  0  0  0  0  0  0
    2.8045    5.4571   -2.3236 H   0  0  0  0  0  0  0  0  0  0  0  0
    2.5692    6.5194   -0.0942 H   0  0  0  0  0  0  0  0  0  0  0  0
   -4.2576    0.2294    1.7860 H   0  0  0  0  0  0  0  0  0  0  0  0
   -5.3406   -1.2394   -2.1492 H   0  0  0  0  0  0  0  0  0  0  0  0
    4.7774    1.9362    3.4610 H   0  0  0  0  0  0  0  0  0  0  0  0
    5.1259    3.5774    2.8760 H   0  0  0  0  0  0  0  0  0  0  0  0
    5.4985    2.1534    1.8523 H   0  0  0  0  0  0  0  0  0  0  0  0
   -6.3062    1.4652    1.8993 H   0  0  0  0  0  0  0  0  0  0  0  0
   -7.4302    0.0309   -2.0155 H   0  0  0  0  0  0  0  0  0  0  0  0
   -8.3166    2.1406    0.9991 H   0  0  0  0  0  0  0  0  0  0  0  0
   -9.6321    0.1895   -0.9635 H   0  0  0  0  0  0  0  0  0  0  0  0
  -10.4403    1.2953    0.1563 H   0  0  0  0  0  0  0  0  0  0  0  0
   -9.4825   -0.0561    0.7837 H   0  0  0  0  0  0  0  0  0  0  0  0
   -8.4471    2.2549   -2.0600 H   0  0  0  0  0  0  0  0  0  0  0  0
   -7.5230    3.3592   -1.0297 H   0  0  0  0  0  0  0  0  0  0  0  0
   -9.2892    3.3015   -0.9089 H   0  0  0  0  0  0  0  0  0  0  0  0
  1 16  1  0  0  0  0
  1 21  1  0  0  0  0
  2 21  2  0  0  0  0
  3 22  1  0  0  0  0
  3 30  1  0  0  0  0
  4 10  1  0  0  0  0
  4 13  1  0  0  0  0
  4 14  1  0  0  0  0
  5  6  1  0  0  0  0
  5 15  1  0  0  0  0
  5 19  1  0  0  0  0
  6 18  2  0  0  0  0
  7 21  1  0  0  0  0
  7 26  1  0  0  0  0
  7 55  1  0  0  0  0
  8  9  1  0  0  0  0
  8 11  1  0  0  0  0
  8 12  1  0  0  0  0
  8 37  1  0  0  0  0
  9 13  1  0  0  0  0
  9 15  1  0  0  0  0
  9 38  1  0  0  0  0
 10 11  1  0  0  0  0
 10 16  1  0  0  0  0
 10 39  1  0  0  0  0
 11 40  1  0  0  0  0
 11 41  1  0  0  0  0
 12 14  1  0  0  0  0
 12 42  1  0  0  0  0
 12 43  1  0  0  0  0
 13 44  1  0  0  0  0
 13 45  1  0  0  0  0
 14 46  1  0  0  0  0
 14 47  1  0  0  0  0
 15 17  2  0  0  0  0
 16 48  1  0  0  0  0
 16 49  1  0  0  0  0
 17 18  1  0  0  0  0
 17 50  1  0  0  0  0
 18 20  1  0  0  0  0
 19 51  1  0  0  0  0
 19 52  1  0  0  0  0
 19 53  1  0  0  0  0
 20 22  1  0  0  0  0
 20 23  2  0  0  0  0
 22 24  2  0  0  0  0
 23 25  1  0  0  0  0
 23 54  1  0  0  0  0
 24 27  1  0  0  0  0
 24 56  1  0  0  0  0
 25 27  2  0  0  0  0
 25 57  1  0  0  0  0
 26 28  2  0  0  0  0
 26 29  1  0  0  0  0
 27 58  1  0  0  0  0
 28 32  1  0  0  0  0
 28 59  1  0  0  0  0
 29 33  2  0  0  0  0
 29 60  1  0  0  0  0
 30 61  1  0  0  0  0
 30 62  1  0  0  0  0
 30 63  1  0  0  0  0
 31 32  2  0  0  0  0
 31 33  1  0  0  0  0
 31 34  1  0  0  0  0
 32 64  1  0  0  0  0
 33 65  1  0  0  0  0
 34 35  1  0  0  0  0
 34 36  1  0  0  0  0
 34 66  1  0  0  0  0
 35 67  1  0  0  0  0
 35 68  1  0  0  0  0
 35 69  1  0  0  0  0
 36 70  1  0  0  0  0
 36 71  1  0  0  0  0
 36 72  1  0  0  0  0
M  END
> <PUBCHEM_COMPOUND_CID>
25389601

> <PUBCHEM_CONFORMER_RMSD>
1.2

> <PUBCHEM_CONFORMER_DIVERSEORDER>
3
105
103
61
36
56
68
95
89
85
92
22
44
72
70
49
83
81
75
58
99
106
111
37
26
91
50
84
15
78
55
66
30
73
88
109
52
74
71
104
57
28
21
90
79
38
40
110
93
18
33
17
34
67
13
46
25
53
96
1
9
11
62
59
102
39
54
65
41
77
108
48
42
69
60
76
10
100
31
98
7
107
86
20
14
16
51
101
87
29
12
47
24
19
82
97
8
80
6
64
27
63
5
4
45
2
43
23
35
94
32

> <PUBCHEM_MMFF94_PARTIAL_CHARGES>
41
1 -0.43
10 0.27
13 0.27
14 0.27
15 -0.33
16 0.28
17 -0.15
18 0.23
19 0.26
2 -0.57
20 0.05
21 0.78
22 0.08
23 -0.15
24 -0.15
25 -0.15
26 0.12
27 -0.15
28 -0.15
29 -0.15
3 -0.36
30 0.28
31 -0.14
32 -0.15
33 -0.15
34 0.14
4 -0.81
5 0.31
50 0.15
54 0.15
55 0.37
56 0.15
57 0.15
58 0.15
59 0.15
6 -0.71
60 0.15
64 0.15
65 0.15
7 -0.55
9 0.18

> <PUBCHEM_EFFECTIVE_ROTOR_COUNT>
10.2

> <PUBCHEM_PHARMACOPHORE_FEATURES>
10
1 2 acceptor
1 3 acceptor
1 4 cation
1 6 acceptor
1 7 donor
3 34 35 36 hydrophobe
5 5 6 15 17 18 rings
6 20 22 23 24 25 27 rings
6 26 28 29 31 32 33 rings
8 4 8 9 10 11 12 13 14 rings

> <PUBCHEM_HEAVY_ATOM_COUNT>
36

> <PUBCHEM_ATOM_DEF_STEREO_COUNT>
3

> <PUBCHEM_ATOM_UDEF_STEREO_COUNT>
0

> <PUBCHEM_BOND_DEF_STEREO_COUNT>
0

> <PUBCHEM_BOND_UDEF_STEREO_COUNT>
0

> <PUBCHEM_ISOTOPIC_ATOM_COUNT>
0

> <PUBCHEM_COMPONENT_COUNT>
1

> <PUBCHEM_CACTVS_TAUTO_COUNT>
2

> <PUBCHEM_CONFORMER_ID>
01836A2100000003

> <PUBCHEM_MMFF94_ENERGY>
109.3124

> <PUBCHEM_FEATURE_SELFOVERLAP>
50.747

> <PUBCHEM_SHAPE_FINGERPRINT>
10439779 11 18410851024012624930
10673678 19 18342459266324798059
10675989 125 18411981398743159528
10816530 23 17832425671763698704
10842077 115 16407596114086304304
10937287 8 18122907800615908378
11059845 2 17763721576065040472
11386260 185 18268996388778213879
11456790 92 17896034351964889891
11966995 178 18342464708243073253
12104220 4 17677888127216364860
12677640 9 17764871291159915289
12925494 130 18334580191738128715
13878862 14 18262504906534795087
13944108 23 18334019354639611604
14068700 686 18048325723744330499
14747282 540 18187091659144488596
15082195 135 18202283567933783043
15183329 4 17917711250388614555
15320295 198 18261121742661321077
15320295 44 18130498734753246359
15326921 28 17118875692823121520
15439362 3 18195814192325152772
15530120 55 17630598132226487381
15721738 15 18271247239151270025
15773879 134 18337949099919104341
16087824 20 18408327666776410668
16988056 13 18411426072931058382
17899979 129 18337394936646005804
19053607 189 18124027090331043792
21049683 118 17240482511888795267
21133410 127 17686628248087985636
21133410 230 18268697322585870474
21344244 78 17900245413371340778
21987440 362 17833279993105577092
24204213 163 18341879768410739442
376196 1 18191308376035838802
394071 54 18337401456870286199
4066623 53 18124613985460286070
4173938 77 18197237870477040331
44317340 157 18412827972032470131
4760202 170 18119798133268124517
5109719 28 18263091054017752921
5312510 48 18409731763987973935
57091435 61 18337949094927758459
58902169 19 18130783426475611375
5951187 136 18342747329195675182
6086070 43 18337121115739412490
6176135 31 18263635315999510097
9849439 229 18121215651898553004

> <PUBCHEM_SHAPE_MULTIPOLES>
703.33
21.15
7.79
1.67
66.87
3.72
-0.46
13.8
3.82
-15.12
0.01
-1.69
0.72
1.51

> <PUBCHEM_SHAPE_SELFOVERLAP>
1514.974

> <PUBCHEM_SHAPE_VOLUME>
385.4

> <PUBCHEM_COORDINATE_TYPE>
2
5
10

$$$$
