28962456
  -OEChem-12032416143D

 61 62  0     1  0  0  0  0  0999 V2000
    0.3312    1.9800   -0.8267 O   0  0  0  0  0  0  0  0  0  0  0  0
    4.5698   -1.1874   -0.7971 O   0  0  0  0  0  0  0  0  0  0  0  0
   -5.9077    0.7255    1.8365 O   0  0  0  0  0  0  0  0  0  0  0  0
   -4.8186    0.4225   -0.1981 N   0  0  0  0  0  0  0  0  0  0  0  0
    4.6243    0.8356    0.3362 N   0  0  0  0  0  0  0  0  0  0  0  0
   -0.9717   -1.4896    0.0895 C   0  0  1  0  0  0  0  0  0  0  0  0
   -0.9806    0.0664   -0.0766 C   0  0  2  0  0  0  0  0  0  0  0  0
   -2.3713    0.5637   -0.6117 C   0  0  1  0  0  0  0  0  0  0  0  0
    0.2585    0.5546   -0.8811 C   0  0  2  0  0  0  0  0  0  0  0  0
    0.3680   -1.9334    0.7230 C   0  0  0  0  0  0  0  0  0  0  0  0
    1.5903    0.0217   -0.3033 C   0  0  1  0  0  0  0  0  0  0  0  0
   -2.1076   -1.9001    1.0550 C   0  0  0  0  0  0  0  0  0  0  0  0
   -3.5131    0.0812    0.3266 C   0  0  2  0  0  0  0  0  0  0  0  0
    1.5820   -1.4910   -0.0832 C   0  0  0  0  0  0  0  0  0  0  0  0
   -3.4794   -1.4220    0.6013 C   0  0  0  0  0  0  0  0  0  0  0  0
   -1.1549   -2.2320   -1.2586 C   0  0  0  0  0  0  0  0  0  0  0  0
    2.7863    0.4048   -1.1836 C   0  0  2  0  0  0  0  0  0  0  0  0
   -2.4595    2.0909   -0.7716 C   0  0  0  0  0  0  0  0  0  0  0  0
    2.6078   -0.1628   -2.5874 C   0  0  0  0  0  0  0  0  0  0  0  0
    4.0810   -0.0881   -0.5449 C   0  0  0  0  0  0  0  0  0  0  0  0
   -5.9032    0.7151    0.6084 C   0  0  0  0  0  0  0  0  0  0  0  0
   -7.1299    1.0598   -0.1933 C   0  0  0  0  0  0  0  0  0  0  0  0
    5.8482    0.5946    1.0645 C   0  0  0  0  0  0  0  0  0  0  0  0
    5.5506   -0.1101    2.3816 C   0  0  0  0  0  0  0  0  0  0  0  0
    6.5995    1.9001    1.2943 C   0  0  0  0  0  0  0  0  0  0  0  0
   -0.8809    0.5054    0.9293 H   0  0  0  0  0  0  0  0  0  0  0  0
   -2.5378    0.1421   -1.6112 H   0  0  0  0  0  0  0  0  0  0  0  0
    0.1111    0.2759   -1.9262 H   0  0  0  0  0  0  0  0  0  0  0  0
    0.3914   -3.0248    0.8376 H   0  0  0  0  0  0  0  0  0  0  0  0
    0.4522   -1.5181    1.7365 H   0  0  0  0  0  0  0  0  0  0  0  0
    1.7420    0.4939    0.6790 H   0  0  0  0  0  0  0  0  0  0  0  0
   -1.9100   -1.4873    2.0534 H   0  0  0  0  0  0  0  0  0  0  0  0
   -2.1300   -2.9909    1.1736 H   0  0  0  0  0  0  0  0  0  0  0  0
   -3.4001    0.5974    1.2901 H   0  0  0  0  0  0  0  0  0  0  0  0
    2.4658   -1.8032    0.4846 H   0  0  0  0  0  0  0  0  0  0  0  0
    1.6007   -2.0595   -1.0148 H   0  0  0  0  0  0  0  0  0  0  0  0
   -3.7957   -1.9767   -0.2905 H   0  0  0  0  0  0  0  0  0  0  0  0
   -4.2153   -1.6743    1.3759 H   0  0  0  0  0  0  0  0  0  0  0  0
   -2.1194   -2.0256   -1.7292 H   0  0  0  0  0  0  0  0  0  0  0  0
   -1.0981   -3.3169   -1.1113 H   0  0  0  0  0  0  0  0  0  0  0  0
   -0.3891   -1.9636   -1.9916 H   0  0  0  0  0  0  0  0  0  0  0  0
    2.8481    1.4971   -1.2737 H   0  0  0  0  0  0  0  0  0  0  0  0
   -2.1430    2.6050    0.1418 H   0  0  0  0  0  0  0  0  0  0  0  0
   -3.4779    2.4203   -1.0010 H   0  0  0  0  0  0  0  0  0  0  0  0
   -1.8465    2.4362   -1.6088 H   0  0  0  0  0  0  0  0  0  0  0  0
   -4.9505    0.3870   -1.2051 H   0  0  0  0  0  0  0  0  0  0  0  0
    0.4109    2.2431    0.1060 H   0  0  0  0  0  0  0  0  0  0  0  0
    2.5058   -1.2492   -2.6287 H   0  0  0  0  0  0  0  0  0  0  0  0
    3.5034    0.0667   -3.1796 H   0  0  0  0  0  0  0  0  0  0  0  0
    1.7745    0.2930   -3.1275 H   0  0  0  0  0  0  0  0  0  0  0  0
    4.1121    1.6905    0.5343 H   0  0  0  0  0  0  0  0  0  0  0  0
   -7.3556    0.2542   -0.8980 H   0  0  0  0  0  0  0  0  0  0  0  0
   -7.9840    1.1910    0.4767 H   0  0  0  0  0  0  0  0  0  0  0  0
   -6.9601    1.9895   -0.7434 H   0  0  0  0  0  0  0  0  0  0  0  0
    6.4815   -0.0646    0.4584 H   0  0  0  0  0  0  0  0  0  0  0  0
    4.9012    0.4995    3.0198 H   0  0  0  0  0  0  0  0  0  0  0  0
    5.0396   -1.0638    2.2094 H   0  0  0  0  0  0  0  0  0  0  0  0
    6.4739   -0.3172    2.9326 H   0  0  0  0  0  0  0  0  0  0  0  0
    6.0067    2.6006    1.8932 H   0  0  0  0  0  0  0  0  0  0  0  0
    6.8248    2.3907    0.3410 H   0  0  0  0  0  0  0  0  0  0  0  0
    7.5456    1.7213    1.8155 H   0  0  0  0  0  0  0  0  0  0  0  0
  1  9  1  0  0  0  0
  1 47  1  0  0  0  0
  2 20  2  0  0  0  0
  3 21  2  0  0  0  0
  4 13  1  0  0  0  0
  4 21  1  0  0  0  0
  4 46  1  0  0  0  0
  5 20  1  0  0  0  0
  5 23  1  0  0  0  0
  5 51  1  0  0  0  0
  6  7  1  0  0  0  0
  6 10  1  0  0  0  0
  6 12  1  0  0  0  0
  6 16  1  0  0  0  0
  7  8  1  0  0  0  0
  7  9  1  0  0  0  0
  7 26  1  0  0  0  0
  8 13  1  0  0  0  0
  8 18  1  0  0  0  0
  8 27  1  0  0  0  0
  9 11  1  0  0  0  0
  9 28  1  0  0  0  0
 10 14  1  0  0  0  0
 10 29  1  0  0  0  0
 10 30  1  0  0  0  0
 11 14  1  0  0  0  0
 11 17  1  0  0  0  0
 11 31  1  0  0  0  0
 12 15  1  0  0  0  0
 12 32  1  0  0  0  0
 12 33  1  0  0  0  0
 13 15  1  0  0  0  0
 13 34  1  0  0  0  0
 14 35  1  0  0  0  0
 14 36  1  0  0  0  0
 15 37  1  0  0  0  0
 15 38  1  0  0  0  0
 16 39  1  0  0  0  0
 16 40  1  0  0  0  0
 16 41  1  0  0  0  0
 17 19  1  0  0  0  0
 17 20  1  0  0  0  0
 17 42  1  0  0  0  0
 18 43  1  0  0  0  0
 18 44  1  0  0  0  0
 18 45  1  0  0  0  0
 19 48  1  0  0  0  0
 19 49  1  0  0  0  0
 19 50  1  0  0  0  0
 21 22  1  0  0  0  0
 22 52  1  0  0  0  0
 22 53  1  0  0  0  0
 22 54  1  0  0  0  0
 23 24  1  0  0  0  0
 23 25  1  0  0  0  0
 23 55  1  0  0  0  0
 24 56  1  0  0  0  0
 24 57  1  0  0  0  0
 24 58  1  0  0  0  0
 25 59  1  0  0  0  0
 25 60  1  0  0  0  0
 25 61  1  0  0  0  0
M  END
> <PUBCHEM_COMPOUND_CID>
28962456

> <PUBCHEM_CONFORMER_RMSD>
0.8

> <PUBCHEM_CONFORMER_DIVERSEORDER>
1
33
49
28
11
14
47
34
17
30
12
29
35
50
42
20
41
40
18
6
32
27
31
8
16
44
5
36
10
21
48
45
19
46
43
4
7
15
22
39
24
3
23
38
26
37
13
2
9
25

> <PUBCHEM_MMFF94_PARTIAL_CHARGES>
15
1 -0.68
13 0.3
17 0.06
2 -0.57
20 0.57
21 0.57
22 0.06
23 0.3
3 -0.57
4 -0.73
46 0.37
47 0.4
5 -0.73
51 0.37
9 0.28

> <PUBCHEM_EFFECTIVE_ROTOR_COUNT>
7.6

> <PUBCHEM_PHARMACOPHORE_FEATURES>
10
1 1 acceptor
1 1 donor
1 19 hydrophobe
1 2 acceptor
1 3 acceptor
1 4 donor
1 5 donor
3 23 24 25 hydrophobe
6 6 7 8 12 13 15 rings
6 6 7 9 10 11 14 rings

> <PUBCHEM_HEAVY_ATOM_COUNT>
25

> <PUBCHEM_ATOM_DEF_STEREO_COUNT>
7

> <PUBCHEM_ATOM_UDEF_STEREO_COUNT>
0

> <PUBCHEM_BOND_DEF_STEREO_COUNT>
0

> <PUBCHEM_BOND_UDEF_STEREO_COUNT>
0

> <PUBCHEM_ISOTOPIC_ATOM_COUNT>
0

> <PUBCHEM_COMPONENT_COUNT>
1

> <PUBCHEM_CACTVS_TAUTO_COUNT>
4

> <PUBCHEM_CONFORMER_ID>
01B9EE9800000001

> <PUBCHEM_MMFF94_ENERGY>
66.1167

> <PUBCHEM_FEATURE_SELFOVERLAP>
50.76

> <PUBCHEM_SHAPE_FINGERPRINT>
10 15 18113337526637358368
11578080 2 17774154763757469827
11646440 116 18339655481340179705
11961588 58 14836116680693256174
12035758 1 18334305279402790321
12166972 35 11746943079112003911
12236239 1 16805326604044612845
12403259 415 18341050714350979236
12422481 6 17750777871446993754
12616971 3 17022906791033004463
12838862 33 18260533521236614917
13140716 1 18117005579300860565
13533116 47 18058455313927838542
13540713 5 17679592408767036078
13685833 64 13334732427889373176
14123256 34 9583509937330968029
14251764 18 17967816093058850811
14347332 77 8285939955448781228
14528608 73 14261352475031743578
15048467 5 16343702131711791008
15238133 3 17967822664379854478
16994733 274 17060338492380729145
173720 79 17749392555103820871
17980427 23 18265326391005742476
1813 80 15792006737296521414
2026 5 10953996167266261016
21033648 29 18059000796628510256
21150785 3 15841546380246837193
21424621 283 17774731874597802737
21637258 2 13840262615089399673
21792934 111 17969498217680902209
21859007 373 17749654208870570445
22182313 1 18115873984219898367
22224240 67 18411982451848306267
23402539 116 18409443725916373383
23559900 14 18337405885298131902
23569914 2 16482150282366551033
3004659 81 17603879900771081702
335352 9 18187655699465285663
3472631 163 18131347544469699650
34934 24 18408885144045113399
3680242 22 18186522103029815320
4072396 5 18113901545847459399
4340502 62 18040438767639069059
465052 167 15791738494528181882
474 4 15697996388418568498
5104073 3 17823428269270772833
59755656 215 18188501154961104943

> <PUBCHEM_SHAPE_MULTIPOLES>
486.92
15.32
2.05
1.71
0.59
0.37
-0.06
-7.97
8.1
0.54
0
-1.98
0.01
0.8

> <PUBCHEM_SHAPE_SELFOVERLAP>
982.628

> <PUBCHEM_SHAPE_VOLUME>
282.8

> <PUBCHEM_COORDINATE_TYPE>
2
5
10

$$$$
