7674768
  -OEChem-12032416153D

 60 64  0     1  0  0  0  0  0999 V2000
    7.9569    0.6669   -0.8150 F   0  0  0  0  0  0  0  0  0  0  0  0
    5.9339    0.9077   -1.6057 F   0  0  0  0  0  0  0  0  0  0  0  0
    6.6733    2.2385   -0.0037 F   0  0  0  0  0  0  0  0  0  0  0  0
    0.4765   -0.9909   -1.7714 O   0  0  0  0  0  0  0  0  0  0  0  0
    6.2246    0.0519    0.4953 O   0  0  0  0  0  0  0  0  0  0  0  0
   -4.1222    0.1009   -0.0960 N   0  0  2  0  0  0  0  0  0  0  0  0
   -1.4352   -1.5536   -0.5603 N   0  0  0  0  0  0  0  0  0  0  0  0
   -2.9829    3.5616    0.2171 N   0  0  0  0  0  0  0  0  0  0  0  0
   -3.7370   -1.8251   -1.6544 C   0  0  1  0  0  0  0  0  0  0  0  0
   -3.4917   -2.1607    0.7585 C   0  0  2  0  0  0  0  0  0  0  0  0
   -3.9927   -2.8152   -0.5260 C   0  0  0  0  0  0  0  0  0  0  0  0
   -4.4899   -0.5057   -1.3815 C   0  0  0  0  0  0  0  0  0  0  0  0
   -4.2767   -0.8534    1.0122 C   0  0  0  0  0  0  0  0  0  0  0  0
   -4.8955    1.3196    0.1500 C   0  0  0  0  0  0  0  0  0  0  0  0
   -2.2230   -1.6207   -1.7996 C   0  0  0  0  0  0  0  0  0  0  0  0
   -2.0032   -1.8778    0.6740 C   0  0  0  0  0  0  0  0  0  0  0  0
   -4.7234    2.3022   -1.0134 C   0  0  0  0  0  0  0  0  0  0  0  0
   -4.4392    1.9861    1.4524 C   0  0  0  0  0  0  0  0  0  0  0  0
   -3.3195    2.9150   -1.0590 C   0  0  0  0  0  0  0  0  0  0  0  0
   -3.0437    2.6084    1.3339 C   0  0  0  0  0  0  0  0  0  0  0  0
   -1.2393   -1.9193    1.7770 C   0  0  0  0  0  0  0  0  0  0  0  0
   -0.0666   -1.2487   -0.6956 C   0  0  0  0  0  0  0  0  0  0  0  0
    0.7575   -1.2697    0.5639 C   0  0  0  0  0  0  0  0  0  0  0  0
    0.1599   -1.6041    1.7174 C   0  0  0  0  0  0  0  0  0  0  0  0
   -1.6602    4.1821    0.1440 C   0  0  0  0  0  0  0  0  0  0  0  0
    2.1896   -0.9236    0.5453 C   0  0  0  0  0  0  0  0  0  0  0  0
    3.1464   -1.9191    0.3441 C   0  0  0  0  0  0  0  0  0  0  0  0
    2.5904    0.4003    0.7296 C   0  0  0  0  0  0  0  0  0  0  0  0
    4.5021   -1.5911    0.3272 C   0  0  0  0  0  0  0  0  0  0  0  0
    3.9461    0.7281    0.7126 C   0  0  0  0  0  0  0  0  0  0  0  0
    4.9020   -0.2676    0.5115 C   0  0  0  0  0  0  0  0  0  0  0  0
    6.6827    0.9772   -0.4846 C   0  0  0  0  0  0  0  0  0  0  0  0
   -4.1209   -2.2370   -2.5963 H   0  0  0  0  0  0  0  0  0  0  0  0
   -3.6898   -2.8498    1.5903 H   0  0  0  0  0  0  0  0  0  0  0  0
   -3.4743   -3.7638   -0.7134 H   0  0  0  0  0  0  0  0  0  0  0  0
   -5.0630   -3.0422   -0.4494 H   0  0  0  0  0  0  0  0  0  0  0  0
   -4.2330    0.1414   -2.2243 H   0  0  0  0  0  0  0  0  0  0  0  0
   -5.5706   -0.6966   -1.4243 H   0  0  0  0  0  0  0  0  0  0  0  0
   -5.3363   -1.0947    1.1712 H   0  0  0  0  0  0  0  0  0  0  0  0
   -3.8873   -0.4544    1.9527 H   0  0  0  0  0  0  0  0  0  0  0  0
   -5.9621    1.0719    0.2393 H   0  0  0  0  0  0  0  0  0  0  0  0
   -1.8098   -2.4668   -2.3658 H   0  0  0  0  0  0  0  0  0  0  0  0
   -2.0086   -0.7259   -2.3976 H   0  0  0  0  0  0  0  0  0  0  0  0
   -5.4340    3.1266   -0.8477 H   0  0  0  0  0  0  0  0  0  0  0  0
   -5.0150    1.9127   -1.9917 H   0  0  0  0  0  0  0  0  0  0  0  0
   -4.5071    1.3517    2.3391 H   0  0  0  0  0  0  0  0  0  0  0  0
   -5.1462    2.8023    1.6655 H   0  0  0  0  0  0  0  0  0  0  0  0
   -3.3042    3.6630   -1.8612 H   0  0  0  0  0  0  0  0  0  0  0  0
   -2.5804    2.1466   -1.3202 H   0  0  0  0  0  0  0  0  0  0  0  0
   -2.8274    3.1329    2.2727 H   0  0  0  0  0  0  0  0  0  0  0  0
   -2.2877    1.8202    1.2230 H   0  0  0  0  0  0  0  0  0  0  0  0
   -1.6566   -2.1618    2.7487 H   0  0  0  0  0  0  0  0  0  0  0  0
    0.7081   -1.6330    2.6546 H   0  0  0  0  0  0  0  0  0  0  0  0
   -1.4306    4.7097    1.0764 H   0  0  0  0  0  0  0  0  0  0  0  0
   -0.8682    3.4471   -0.0407 H   0  0  0  0  0  0  0  0  0  0  0  0
   -1.6297    4.9308   -0.6553 H   0  0  0  0  0  0  0  0  0  0  0  0
    2.8504   -2.9551    0.1981 H   0  0  0  0  0  0  0  0  0  0  0  0
    1.8570    1.1874    0.8881 H   0  0  0  0  0  0  0  0  0  0  0  0
    5.2422   -2.3710    0.1696 H   0  0  0  0  0  0  0  0  0  0  0  0
    4.2438    1.7620    0.8641 H   0  0  0  0  0  0  0  0  0  0  0  0
  1 32  1  0  0  0  0
  2 32  1  0  0  0  0
  3 32  1  0  0  0  0
  4 22  2  0  0  0  0
  5 31  1  0  0  0  0
  5 32  1  0  0  0  0
  6 12  1  0  0  0  0
  6 13  1  0  0  0  0
  6 14  1  0  0  0  0
  7 15  1  0  0  0  0
  7 16  1  0  0  0  0
  7 22  1  0  0  0  0
  8 19  1  0  0  0  0
  8 20  1  0  0  0  0
  8 25  1  0  0  0  0
  9 11  1  0  0  0  0
  9 12  1  0  0  0  0
  9 15  1  0  0  0  0
  9 33  1  0  0  0  0
 10 11  1  0  0  0  0
 10 13  1  0  0  0  0
 10 16  1  0  0  0  0
 10 34  1  0  0  0  0
 11 35  1  0  0  0  0
 11 36  1  0  0  0  0
 12 37  1  0  0  0  0
 12 38  1  0  0  0  0
 13 39  1  0  0  0  0
 13 40  1  0  0  0  0
 14 17  1  0  0  0  0
 14 18  1  0  0  0  0
 14 41  1  0  0  0  0
 15 42  1  0  0  0  0
 15 43  1  0  0  0  0
 16 21  2  0  0  0  0
 17 19  1  0  0  0  0
 17 44  1  0  0  0  0
 17 45  1  0  0  0  0
 18 20  1  0  0  0  0
 18 46  1  0  0  0  0
 18 47  1  0  0  0  0
 19 48  1  0  0  0  0
 19 49  1  0  0  0  0
 20 50  1  0  0  0  0
 20 51  1  0  0  0  0
 21 24  1  0  0  0  0
 21 52  1  0  0  0  0
 22 23  1  0  0  0  0
 23 24  2  0  0  0  0
 23 26  1  0  0  0  0
 24 53  1  0  0  0  0
 25 54  1  0  0  0  0
 25 55  1  0  0  0  0
 25 56  1  0  0  0  0
 26 27  2  0  0  0  0
 26 28  1  0  0  0  0
 27 29  1  0  0  0  0
 27 57  1  0  0  0  0
 28 30  2  0  0  0  0
 28 58  1  0  0  0  0
 29 31  2  0  0  0  0
 29 59  1  0  0  0  0
 30 31  1  0  0  0  0
 30 60  1  0  0  0  0
M  END
> <PUBCHEM_COMPOUND_CID>
7674768

> <PUBCHEM_CONFORMER_RMSD>
0.8

> <PUBCHEM_CONFORMER_DIVERSEORDER>
1
10
12
4
5
11
8
15
9
13
7
6
14
2
3

> <PUBCHEM_MMFF94_PARTIAL_CHARGES>
34
1 -0.34
10 0.14
12 0.27
13 0.27
14 0.27
15 0.3
16 -0.03
19 0.27
2 -0.34
20 0.27
21 -0.15
22 0.62
23 -0.01
24 -0.15
25 0.27
26 0.03
27 -0.15
28 -0.15
29 -0.15
3 -0.34
30 -0.15
31 0.08
32 1.3
4 -0.57
5 -0.36
52 0.15
53 0.15
57 0.15
58 0.15
59 0.15
6 -0.81
60 0.15
7 -0.47
8 -0.81

> <PUBCHEM_EFFECTIVE_ROTOR_COUNT>
6.2

> <PUBCHEM_PHARMACOPHORE_FEATURES>
9
1 4 acceptor
1 5 acceptor
1 6 cation
1 8 cation
6 26 27 28 29 30 31 rings
6 6 9 10 11 12 13 rings
6 7 16 21 22 23 24 rings
6 7 9 10 11 15 16 rings
6 8 14 17 18 19 20 rings

> <PUBCHEM_HEAVY_ATOM_COUNT>
32

> <PUBCHEM_ATOM_DEF_STEREO_COUNT>
2

> <PUBCHEM_ATOM_UDEF_STEREO_COUNT>
0

> <PUBCHEM_BOND_DEF_STEREO_COUNT>
0

> <PUBCHEM_BOND_UDEF_STEREO_COUNT>
0

> <PUBCHEM_ISOTOPIC_ATOM_COUNT>
0

> <PUBCHEM_COMPONENT_COUNT>
1

> <PUBCHEM_CACTVS_TAUTO_COUNT>
1

> <PUBCHEM_CONFORMER_ID>
00751B9000000001

> <PUBCHEM_MMFF94_ENERGY>
85.1511

> <PUBCHEM_FEATURE_SELFOVERLAP>
47.226

> <PUBCHEM_SHAPE_FINGERPRINT>
10087517 78 18408882945021611080
10165383 225 17275111613884276387
10291535 26 18334579061845225659
10454371 7 18341899601884422548
10670039 82 18412823607733416860
10816530 145 17458345277358823527
11135926 11 16558762195790906526
11477941 20 18129928096364915189
11578080 2 17702965624928605735
12596602 18 17385724677480295553
13690498 29 17488171802095109630
13761468 95 17986684666248917673
14068700 675 14925667552464521209
14347329 18 18342732992831951512
14394314 77 18338521842224769857
14713325 29 18272930514692303991
14840074 17 18338518517935478345
14856354 85 18267870655942858422
14950920 106 10881403114521380734
15064981 113 17630595726627965852
15163728 17 18200601297673097287
15183329 4 17775567537847644662
15348495 7 11458424657005456286
15484559 13 13962499467371749194
15575132 122 18272934955461095582
15604295 49 18129095792888118744
15876981 60 18336265760011121199
17492 54 18124003795435602669
17913733 40 15140675861269288360
19958102 18 16630531730645711718
21236236 1 18410573989699821048
21927370 108 18265623268052174403
22956985 138 16961840139340585659
2838139 119 18408882971387292978
3493558 16 18261399965957742700
3610482 184 18409456864279139684
392239 28 13045954494445674182
397830 11 11458717153116038534
4058900 60 18410015416767272714
4098825 35 18411704245500262430
4169191 19 17386853988335034764
4197921 191 18409444748160651242
44249763 50 17916567839477989856
445580 204 18335420180098834540
445580 37 18408330990754010988
44802255 64 18060142085150454550
4616759 239 17604707923395333472
469060 322 16298387942254155159
50677037 204 18335419063096848532
5171179 24 17987223620177949376
531348 171 18131349691769485190
550186 7 18272652329005992719
57527585 21 17556842652182009253
5937810 71 17969519250653209964
6036956 94 18189900820695561661
6201320 215 18342731881142946720
6608658 132 18340194254706076205
6700243 42 17556049057371739943
7237137 82 18273215304771376384
7288768 16 17531530863475089347

> <PUBCHEM_SHAPE_MULTIPOLES>
610.04
15.66
4
1.6
32.03
3.57
-0.18
7.63
-3.05
-5.11
0.12
-1.06
-0.39
-1.24

> <PUBCHEM_SHAPE_SELFOVERLAP>
1326.161

> <PUBCHEM_SHAPE_VOLUME>
332.7

> <PUBCHEM_COORDINATE_TYPE>
2
5
10

$$$$
