45361630
  -OEChem-12032416353D

 70 73  0     1  0  0  0  0  0999 V2000
    0.9435    4.6938   -0.8135 F   0  0  0  0  0  0  0  0  0  0  0  0
    1.4294   -2.5278    1.6881 O   0  0  0  0  0  0  0  0  0  0  0  0
    3.8387   -0.6651    2.3721 O   0  0  0  0  0  0  0  0  0  0  0  0
   -4.8403   -1.8597   -1.0285 O   0  0  0  0  0  0  0  0  0  0  0  0
   -3.2307   -0.4518   -0.1327 N   0  0  0  0  0  0  0  0  0  0  0  0
    4.9392   -0.0352    0.4300 N   0  0  0  0  0  0  0  0  0  0  0  0
   -7.8567    0.8052    0.1795 N   0  0  0  0  0  0  0  0  0  0  0  0
   -6.3394    1.5210    1.9092 N   0  0  0  0  0  0  0  0  0  0  0  0
    0.7022   -1.0792   -1.7685 C   0  0  1  0  0  0  0  0  0  0  0  0
    0.4050   -1.7158   -0.3701 C   0  0  2  0  0  0  0  0  0  0  0  0
   -0.8551   -1.0501    0.2907 C   0  0  1  0  0  0  0  0  0  0  0  0
    1.6835   -1.7523    0.5159 C   0  0  2  0  0  0  0  0  0  0  0  0
    1.8757   -1.8317   -2.4391 C   0  0  0  0  0  0  0  0  0  0  0  0
   -0.5411   -1.2452   -2.6725 C   0  0  0  0  0  0  0  0  0  0  0  0
    2.8843   -2.4136   -0.1999 C   0  0  1  0  0  0  0  0  0  0  0  0
   -2.0810   -1.1567   -0.6594 C   0  0  2  0  0  0  0  0  0  0  0  0
    3.1411   -1.8356   -1.5915 C   0  0  0  0  0  0  0  0  0  0  0  0
   -1.8022   -0.6414   -2.0712 C   0  0  0  0  0  0  0  0  0  0  0  0
    1.0655    0.4243   -1.6717 C   0  0  0  0  0  0  0  0  0  0  0  0
    4.1661   -2.3228    0.6371 C   0  0  2  0  0  0  0  0  0  0  0  0
   -1.2221   -1.6494    1.6588 C   0  0  0  0  0  0  0  0  0  0  0  0
    4.1746   -3.4120    1.7040 C   0  0  0  0  0  0  0  0  0  0  0  0
    4.2842   -0.9346    1.2586 C   0  0  0  0  0  0  0  0  0  0  0  0
   -4.5285   -0.8724   -0.3677 C   0  0  0  0  0  0  0  0  0  0  0  0
   -5.5981   -0.0253    0.2202 C   0  0  0  0  0  0  0  0  0  0  0  0
    5.1703    1.3419    0.7993 C   0  0  0  0  0  0  0  0  0  0  0  0
   -6.8624    0.0470   -0.3275 C   0  0  0  0  0  0  0  0  0  0  0  0
   -5.3917    0.7409    1.3492 C   0  0  0  0  0  0  0  0  0  0  0  0
    4.0432    2.2357    0.3695 C   0  0  0  0  0  0  0  0  0  0  0  0
    4.0737    2.8412   -0.8868 C   0  0  0  0  0  0  0  0  0  0  0  0
    2.9654    2.4608    1.2260 C   0  0  0  0  0  0  0  0  0  0  0  0
   -7.5310    1.5061    1.2823 C   0  0  0  0  0  0  0  0  0  0  0  0
    3.0269    3.6718   -1.2865 C   0  0  0  0  0  0  0  0  0  0  0  0
    1.9185    3.2914    0.8264 C   0  0  0  0  0  0  0  0  0  0  0  0
    1.9493    3.8968   -0.4298 C   0  0  0  0  0  0  0  0  0  0  0  0
    0.1240   -2.7676   -0.5403 H   0  0  0  0  0  0  0  0  0  0  0  0
   -0.6421    0.0115    0.4700 H   0  0  0  0  0  0  0  0  0  0  0  0
    1.8874   -0.7273    0.8333 H   0  0  0  0  0  0  0  0  0  0  0  0
    1.5839   -2.8724   -2.6346 H   0  0  0  0  0  0  0  0  0  0  0  0
    2.1017   -1.3888   -3.4175 H   0  0  0  0  0  0  0  0  0  0  0  0
   -0.3601   -0.7906   -3.6549 H   0  0  0  0  0  0  0  0  0  0  0  0
   -0.7227   -2.3125   -2.8576 H   0  0  0  0  0  0  0  0  0  0  0  0
    2.6469   -3.4776   -0.3470 H   0  0  0  0  0  0  0  0  0  0  0  0
   -2.3513   -2.2187   -0.7411 H   0  0  0  0  0  0  0  0  0  0  0  0
    3.5327   -0.8175   -1.5477 H   0  0  0  0  0  0  0  0  0  0  0  0
    3.9053   -2.4334   -2.1040 H   0  0  0  0  0  0  0  0  0  0  0  0
   -2.6518   -0.8736   -2.7263 H   0  0  0  0  0  0  0  0  0  0  0  0
   -1.7302    0.4531   -2.0667 H   0  0  0  0  0  0  0  0  0  0  0  0
    0.2516    1.0342   -1.2722 H   0  0  0  0  0  0  0  0  0  0  0  0
    1.3124    0.8272   -2.6608 H   0  0  0  0  0  0  0  0  0  0  0  0
    1.9284    0.5922   -1.0265 H   0  0  0  0  0  0  0  0  0  0  0  0
    5.0409   -2.5047   -0.0012 H   0  0  0  0  0  0  0  0  0  0  0  0
   -0.4895   -1.3703    2.4213 H   0  0  0  0  0  0  0  0  0  0  0  0
   -1.2914   -2.7409    1.6091 H   0  0  0  0  0  0  0  0  0  0  0  0
   -2.1823   -1.2729    2.0260 H   0  0  0  0  0  0  0  0  0  0  0  0
   -3.0564    0.4305    0.3377 H   0  0  0  0  0  0  0  0  0  0  0  0
    1.1734   -3.4231    1.4079 H   0  0  0  0  0  0  0  0  0  0  0  0
    3.4996   -3.2205    2.5415 H   0  0  0  0  0  0  0  0  0  0  0  0
    5.1772   -3.4779    2.1443 H   0  0  0  0  0  0  0  0  0  0  0  0
    3.9437   -4.3959    1.2830 H   0  0  0  0  0  0  0  0  0  0  0  0
    5.3077   -0.3489   -0.4625 H   0  0  0  0  0  0  0  0  0  0  0  0
    5.3195    1.4103    1.8835 H   0  0  0  0  0  0  0  0  0  0  0  0
    6.1097    1.6556    0.3299 H   0  0  0  0  0  0  0  0  0  0  0  0
   -7.1319   -0.5120   -1.2181 H   0  0  0  0  0  0  0  0  0  0  0  0
   -4.4488    0.7513    1.8857 H   0  0  0  0  0  0  0  0  0  0  0  0
    4.9062    2.6713   -1.5644 H   0  0  0  0  0  0  0  0  0  0  0  0
    2.9284    1.9974    2.2080 H   0  0  0  0  0  0  0  0  0  0  0  0
   -8.3108    2.1237    1.7107 H   0  0  0  0  0  0  0  0  0  0  0  0
    3.0495    4.1421   -2.2651 H   0  0  0  0  0  0  0  0  0  0  0  0
    1.0789    3.4661    1.4926 H   0  0  0  0  0  0  0  0  0  0  0  0
  1 35  1  0  0  0  0
  2 12  1  0  0  0  0
  2 57  1  0  0  0  0
  3 23  2  0  0  0  0
  4 24  2  0  0  0  0
  5 16  1  0  0  0  0
  5 24  1  0  0  0  0
  5 56  1  0  0  0  0
  6 23  1  0  0  0  0
  6 26  1  0  0  0  0
  6 61  1  0  0  0  0
  7 27  2  0  0  0  0
  7 32  1  0  0  0  0
  8 28  1  0  0  0  0
  8 32  2  0  0  0  0
  9 10  1  0  0  0  0
  9 13  1  0  0  0  0
  9 14  1  0  0  0  0
  9 19  1  0  0  0  0
 10 11  1  0  0  0  0
 10 12  1  0  0  0  0
 10 36  1  0  0  0  0
 11 16  1  0  0  0  0
 11 21  1  0  0  0  0
 11 37  1  0  0  0  0
 12 15  1  0  0  0  0
 12 38  1  0  0  0  0
 13 17  1  0  0  0  0
 13 39  1  0  0  0  0
 13 40  1  0  0  0  0
 14 18  1  0  0  0  0
 14 41  1  0  0  0  0
 14 42  1  0  0  0  0
 15 17  1  0  0  0  0
 15 20  1  0  0  0  0
 15 43  1  0  0  0  0
 16 18  1  0  0  0  0
 16 44  1  0  0  0  0
 17 45  1  0  0  0  0
 17 46  1  0  0  0  0
 18 47  1  0  0  0  0
 18 48  1  0  0  0  0
 19 49  1  0  0  0  0
 19 50  1  0  0  0  0
 19 51  1  0  0  0  0
 20 22  1  0  0  0  0
 20 23  1  0  0  0  0
 20 52  1  0  0  0  0
 21 53  1  0  0  0  0
 21 54  1  0  0  0  0
 21 55  1  0  0  0  0
 22 58  1  0  0  0  0
 22 59  1  0  0  0  0
 22 60  1  0  0  0  0
 24 25  1  0  0  0  0
 25 27  1  0  0  0  0
 25 28  2  0  0  0  0
 26 29  1  0  0  0  0
 26 62  1  0  0  0  0
 26 63  1  0  0  0  0
 27 64  1  0  0  0  0
 28 65  1  0  0  0  0
 29 30  2  0  0  0  0
 29 31  1  0  0  0  0
 30 33  1  0  0  0  0
 30 66  1  0  0  0  0
 31 34  2  0  0  0  0
 31 67  1  0  0  0  0
 32 68  1  0  0  0  0
 33 35  2  0  0  0  0
 33 69  1  0  0  0  0
 34 35  1  0  0  0  0
 34 70  1  0  0  0  0
M  END
> <PUBCHEM_COMPOUND_CID>
45361630

> <PUBCHEM_CONFORMER_RMSD>
1

> <PUBCHEM_CONFORMER_DIVERSEORDER>
1
221
67
36
126
101
39
45
100
224
211
157
17
51
229
9
143
188
167
163
52
82
145
130
173
61
30
148
95
144
156
114
6
227
87
231
171
27
26
62
76
107
154
158
24
152
12
79
203
37
22
190
153
84
112
4
136
121
232
197
34
164
66
25
220
96
141
68
161
137
42
40
63
175
65
206
104
127
177
160
226
55
223
58
214
139
46
166
178
191
81
16
217
72
92
125
115
90
57
162
103
124
123
135
168
31
218
207
20
38
88
99
219
230
71
47
194
94
8
225
212
11
59
201
78
54
183
196
189
97
205
10
213
48
174
187
43
75
128
200
216
108
122
208
186
119
49
133
132
151
98
204
155
198
147
73
85
56
180
74
150
142
179
18
228
170
193
165
53
134
146
3
199
181
23
192
118
69
64
2
131
184
202
93
138
19
60
210
14
195
50
215
70
15
102
89
140
13
120
35
77
159
29
113
222
33
185
44
129
86
41
80
5
91
172
105
117
182
116
111
110
83
149
7
106
109
209
21
169
176
28
32

> <PUBCHEM_MMFF94_PARTIAL_CHARGES>
34
1 -0.19
12 0.28
16 0.3
2 -0.68
20 0.06
23 0.57
24 0.54
25 0.09
26 0.44
27 0.16
28 0.16
29 -0.14
3 -0.57
30 -0.15
31 -0.15
32 0.47
33 -0.15
34 -0.15
35 0.19
4 -0.57
5 -0.73
56 0.37
57 0.4
6 -0.73
61 0.37
64 0.15
65 0.15
66 0.15
67 0.15
68 0.15
69 0.15
7 -0.62
70 0.15
8 -0.62

> <PUBCHEM_EFFECTIVE_ROTOR_COUNT>
9.6

> <PUBCHEM_PHARMACOPHORE_FEATURES>
13
1 2 acceptor
1 2 donor
1 22 hydrophobe
1 3 acceptor
1 4 acceptor
1 5 donor
1 6 donor
1 7 acceptor
3 7 8 32 cation
6 29 30 31 33 34 35 rings
6 7 8 25 27 28 32 rings
6 9 10 11 14 16 18 rings
6 9 10 12 13 15 17 rings

> <PUBCHEM_HEAVY_ATOM_COUNT>
35

> <PUBCHEM_ATOM_DEF_STEREO_COUNT>
6

> <PUBCHEM_ATOM_UDEF_STEREO_COUNT>
1

> <PUBCHEM_BOND_DEF_STEREO_COUNT>
0

> <PUBCHEM_BOND_UDEF_STEREO_COUNT>
0

> <PUBCHEM_ISOTOPIC_ATOM_COUNT>
0

> <PUBCHEM_COMPONENT_COUNT>
1

> <PUBCHEM_CACTVS_TAUTO_COUNT>
4

> <PUBCHEM_CONFORMER_ID>
02B429DE00000001

> <PUBCHEM_MMFF94_ENERGY>
99.9691

> <PUBCHEM_FEATURE_SELFOVERLAP>
65.986

> <PUBCHEM_SHAPE_FINGERPRINT>
10165383 225 17821450175734888206
10190108 129 18337663128380503922
10439779 11 17989212538503497705
10673678 19 17846780749488382235
10674148 151 18128825308642924228
10675989 125 18339927146606934952
11456790 92 17968088677674708290
11578080 2 17969520366141679579
12156800 1 17911824396530265284
12422481 6 18342170038647365833
12633257 1 17678714943033024632
13165053 68 18191584371462519419
13965767 371 17702355456927684218
14114211 80 17899703654928183260
14849402 71 18334582360074205365
15082195 135 17488480619302397015
151778 21 17753884215202585428
15475509 35 11746934312772145812
15475509 84 18046620110435935612
21298829 104 18271804687488682424
21860390 5 18412832408358679334
21927370 108 17972586707579406306
22122407 14 18342183301490058729
22223350 30 17531826748004105995
23559900 14 17560255630225583855
23569914 152 11524615085409682001
3411729 13 18339928211330679532
3493558 16 18273223001637692009
35225 105 17111019686584172604
373842 8 18338514136879133549
392239 28 18114166558325508571
394071 54 18261108573616273483
397830 11 18187656846907466523
5104073 3 18335994138206695931
513532 50 17775294876196638340
57816373 69 18192989323141012079
6609424 69 18199470956875780668

> <PUBCHEM_SHAPE_MULTIPOLES>
675.48
15.59
4.65
2.24
36.79
4.78
0.51
5.37
-6.98
-7.17
0.07
-0.73
-0.94
-2.52

> <PUBCHEM_SHAPE_SELFOVERLAP>
1434.64

> <PUBCHEM_SHAPE_VOLUME>
373.9

> <PUBCHEM_COORDINATE_TYPE>
2
5
10

$$$$
