26744574
  -OEChem-12032416293D

 46 49  0     1  0  0  0  0  0999 V2000
   -1.9395   -0.4548   -2.3624 Cl  0  0  0  0  0  0  0  0  0  0  0  0
    2.0636   -5.4387   -0.6422 F   0  0  0  0  0  0  0  0  0  0  0  0
   -5.3483   -2.5435    0.7320 F   0  0  0  0  0  0  0  0  0  0  0  0
    5.1060    2.7332   -1.0631 O   0  0  0  0  0  0  0  0  0  0  0  0
   -0.0900    3.3375    1.2033 O   0  0  0  0  0  0  0  0  0  0  0  0
    2.4110    0.8078    0.2789 N   0  0  1  0  0  0  0  0  0  0  0  0
   -0.2885    1.8485   -0.4581 N   0  0  0  0  0  0  0  0  0  0  0  0
   -1.4306    3.3804    0.8000 N   0  0  0  0  0  0  0  0  0  0  0  0
    1.9872    2.1722    0.6534 C   0  0  1  0  0  0  0  0  0  0  0  0
    2.8857    3.1059   -0.1787 C   0  0  0  0  0  0  0  0  0  0  0  0
    3.8107    2.1758   -0.9536 C   0  0  2  0  0  0  0  0  0  0  0  0
    3.8125    0.9056   -0.1244 C   0  0  0  0  0  0  0  0  0  0  0  0
    2.2135   -0.1675    1.3433 C   0  0  0  0  0  0  0  0  0  0  0  0
    0.5116    2.4111    0.4120 C   0  0  0  0  0  0  0  0  0  0  0  0
    2.1737   -1.5761    0.8129 C   0  0  0  0  0  0  0  0  0  0  0  0
   -1.4689    2.4751   -0.1822 C   0  0  0  0  0  0  0  0  0  0  0  0
    0.9585   -2.1408    0.4251 C   0  0  0  0  0  0  0  0  0  0  0  0
    3.3514   -2.3161    0.7089 C   0  0  0  0  0  0  0  0  0  0  0  0
   -2.7038    2.1750   -0.9151 C   0  0  0  0  0  0  0  0  0  0  0  0
    0.9212   -3.4458   -0.0661 C   0  0  0  0  0  0  0  0  0  0  0  0
    3.3142   -3.6210    0.2177 C   0  0  0  0  0  0  0  0  0  0  0  0
   -3.4006    0.8854   -0.4924 C   0  0  0  0  0  0  0  0  0  0  0  0
    2.0989   -4.1858   -0.1698 C   0  0  0  0  0  0  0  0  0  0  0  0
   -3.1084   -0.3367   -1.0981 C   0  0  0  0  0  0  0  0  0  0  0  0
   -4.3507    0.9490    0.5269 C   0  0  0  0  0  0  0  0  0  0  0  0
   -3.7660   -1.4951   -0.6842 C   0  0  0  0  0  0  0  0  0  0  0  0
   -5.0083   -0.2092    0.9408 C   0  0  0  0  0  0  0  0  0  0  0  0
   -4.7159   -1.4313    0.3352 C   0  0  0  0  0  0  0  0  0  0  0  0
    2.2024    2.3587    1.7151 H   0  0  0  0  0  0  0  0  0  0  0  0
    2.3249    3.7457   -0.8699 H   0  0  0  0  0  0  0  0  0  0  0  0
    3.4600    3.7675    0.4819 H   0  0  0  0  0  0  0  0  0  0  0  0
    3.4152    1.9843   -1.9587 H   0  0  0  0  0  0  0  0  0  0  0  0
    4.1421    0.0566   -0.7315 H   0  0  0  0  0  0  0  0  0  0  0  0
    4.4976    1.0016    0.7284 H   0  0  0  0  0  0  0  0  0  0  0  0
    1.2551    0.0142    1.8494 H   0  0  0  0  0  0  0  0  0  0  0  0
    2.9702   -0.0759    2.1345 H   0  0  0  0  0  0  0  0  0  0  0  0
    5.0212    3.5780   -1.5372 H   0  0  0  0  0  0  0  0  0  0  0  0
    0.0339   -1.5743    0.4982 H   0  0  0  0  0  0  0  0  0  0  0  0
    4.3043   -1.8912    1.0126 H   0  0  0  0  0  0  0  0  0  0  0  0
   -2.5065    2.1687   -1.9935 H   0  0  0  0  0  0  0  0  0  0  0  0
   -3.4170    3.0026   -0.7913 H   0  0  0  0  0  0  0  0  0  0  0  0
   -0.0247   -3.8851   -0.3690 H   0  0  0  0  0  0  0  0  0  0  0  0
    4.2307   -4.1980    0.1377 H   0  0  0  0  0  0  0  0  0  0  0  0
   -4.5877    1.8935    1.0095 H   0  0  0  0  0  0  0  0  0  0  0  0
   -3.5496   -2.4554   -1.1453 H   0  0  0  0  0  0  0  0  0  0  0  0
   -5.7478   -0.1601    1.7345 H   0  0  0  0  0  0  0  0  0  0  0  0
  1 24  1  0  0  0  0
  2 23  1  0  0  0  0
  3 28  1  0  0  0  0
  4 11  1  0  0  0  0
  4 37  1  0  0  0  0
  5  8  1  0  0  0  0
  5 14  1  0  0  0  0
  6  9  1  0  0  0  0
  6 12  1  0  0  0  0
  6 13  1  0  0  0  0
  7 14  2  0  0  0  0
  7 16  1  0  0  0  0
  8 16  2  0  0  0  0
  9 10  1  0  0  0  0
  9 14  1  0  0  0  0
  9 29  1  0  0  0  0
 10 11  1  0  0  0  0
 10 30  1  0  0  0  0
 10 31  1  0  0  0  0
 11 12  1  0  0  0  0
 11 32  1  0  0  0  0
 12 33  1  0  0  0  0
 12 34  1  0  0  0  0
 13 15  1  0  0  0  0
 13 35  1  0  0  0  0
 13 36  1  0  0  0  0
 15 17  2  0  0  0  0
 15 18  1  0  0  0  0
 16 19  1  0  0  0  0
 17 20  1  0  0  0  0
 17 38  1  0  0  0  0
 18 21  2  0  0  0  0
 18 39  1  0  0  0  0
 19 22  1  0  0  0  0
 19 40  1  0  0  0  0
 19 41  1  0  0  0  0
 20 23  2  0  0  0  0
 20 42  1  0  0  0  0
 21 23  1  0  0  0  0
 21 43  1  0  0  0  0
 22 24  2  0  0  0  0
 22 25  1  0  0  0  0
 24 26  1  0  0  0  0
 25 27  2  0  0  0  0
 25 44  1  0  0  0  0
 26 28  2  0  0  0  0
 26 45  1  0  0  0  0
 27 28  1  0  0  0  0
 27 46  1  0  0  0  0
M  END
> <PUBCHEM_COMPOUND_CID>
26744574

> <PUBCHEM_CONFORMER_RMSD>
1.2

> <PUBCHEM_CONFORMER_DIVERSEORDER>
1
83
95
18
59
53
46
81
28
66
85
15
40
63
96
87
37
89
92
22
75
19
51
64
36
68
44
21
50
61
54
49
97
69
43
79
93
100
55
5
58
27
9
99
76
78
29
74
80
91
82
12
35
47
84
70
30
88
26
56
73
3
20
11
39
4
2
17
67
25
57
98
94
101
45
6
7
77
41
42
10
14
60
8
62
16
86
65
38
23
33
71
34
31
13
90
32
24
52
72
48

> <PUBCHEM_MMFF94_PARTIAL_CHARGES>
35
1 -0.18
11 0.28
12 0.27
13 0.41
14 0.3
15 -0.14
16 0.34
17 -0.15
18 -0.15
19 0.32
2 -0.19
20 -0.15
21 -0.15
22 -0.14
23 0.19
24 0.18
25 -0.15
26 -0.15
27 -0.15
28 0.19
3 -0.19
37 0.4
38 0.15
39 0.15
4 -0.68
42 0.15
43 0.15
44 0.15
45 0.15
46 0.15
5 -0.02
6 -0.81
7 -0.57
8 -0.41
9 0.45

> <PUBCHEM_EFFECTIVE_ROTOR_COUNT>
6

> <PUBCHEM_PHARMACOPHORE_FEATURES>
8
1 4 acceptor
1 4 donor
1 6 cation
3 7 8 16 cation
5 5 7 8 14 16 rings
5 6 9 10 11 12 rings
6 15 17 18 20 21 23 rings
6 22 24 25 26 27 28 rings

> <PUBCHEM_HEAVY_ATOM_COUNT>
28

> <PUBCHEM_ATOM_DEF_STEREO_COUNT>
2

> <PUBCHEM_ATOM_UDEF_STEREO_COUNT>
0

> <PUBCHEM_BOND_DEF_STEREO_COUNT>
0

> <PUBCHEM_BOND_UDEF_STEREO_COUNT>
0

> <PUBCHEM_ISOTOPIC_ATOM_COUNT>
0

> <PUBCHEM_COMPONENT_COUNT>
1

> <PUBCHEM_CACTVS_TAUTO_COUNT>
1

> <PUBCHEM_CONFORMER_ID>
019816FE00000001

> <PUBCHEM_MMFF94_ENERGY>
58.0242

> <PUBCHEM_FEATURE_SELFOVERLAP>
40.597

> <PUBCHEM_SHAPE_FINGERPRINT>
10674148 151 17559418979408010900
10928967 22 18201993365414124391
1100329 8 17907017270952357441
11014199 57 18050848819192436362
11135609 12 18192144906398674072
11135926 11 18409164411250592893
11136131 41 18260535750282580498
11488393 25 18261968362071756890
12553582 1 18269542996317769749
13122387 1 16251371394620771215
13402501 40 17971475349882850819
1361 2 18050280668482720755
14114211 80 18051151455277874571
14790565 3 18193282024787122972
15537594 2 18271247226408266189
17909252 39 18342179904297917578
18681886 176 18116429426961746136
19319366 153 18340483494999787708
19591789 44 18122060063880473056
19930381 70 18409726296637453459
20764821 26 17760359289984520302
20775530 9 18122053213402543274
21315759 227 18116420462583693163
21344244 181 18198083537063664900
21421861 104 18269007400799936793
235170 7 17168409554367428093
23559900 14 18265601092159792993
23566358 27 18265623086660766496
340366 18 17612876993726084772
3737641 26 18411429414077997921
4280585 95 17685483261725540490
445580 102 18410004416875174207
57091435 65 18413106134818846790
6287921 2 18336264557014310159
6433294 58 18409729534620502427

> <PUBCHEM_SHAPE_MULTIPOLES>
536.87
9.83
6.2
1.28
7.13
4.37
-0.42
2.01
0.25
-6.5
-0.14
0.5
-0.15
-0.59

> <PUBCHEM_SHAPE_SELFOVERLAP>
1156.135

> <PUBCHEM_SHAPE_VOLUME>
298.3

> <PUBCHEM_COORDINATE_TYPE>
2
5
10

$$$$
