75536134
  -OEChem-12032416293D

 50 52  0     1  0  0  0  0  0999 V2000
   -7.3376    0.2849   -0.7839 F   0  0  0  0  0  0  0  0  0  0  0  0
   -7.0316   -0.9487    0.9734 F   0  0  0  0  0  0  0  0  0  0  0  0
   -6.4457   -1.6879   -0.9858 F   0  0  0  0  0  0  0  0  0  0  0  0
    2.9335    3.8006   -1.3556 O   0  0  0  0  0  0  0  0  0  0  0  0
    5.0330    2.0310   -1.3373 O   0  0  0  0  0  0  0  0  0  0  0  0
    0.1121    0.2003   -0.8037 O   0  0  0  0  0  0  0  0  0  0  0  0
    2.8674   -4.6271   -0.0152 O   0  0  0  0  0  0  0  0  0  0  0  0
    1.0234    2.0095    0.3110 N   0  0  0  0  0  0  0  0  0  0  0  0
   -1.2423    1.6491    0.4521 N   0  0  0  0  0  0  0  0  0  0  0  0
    3.1654    0.9459    0.9555 C   0  0  2  0  0  0  0  0  0  0  0  0
    2.3897    1.7829   -0.0867 C   0  0  2  0  0  0  0  0  0  0  0  0
    3.1857    3.0850   -0.1610 C   0  0  1  0  0  0  0  0  0  0  0  0
    4.6072    1.5164    0.9669 C   0  0  0  0  0  0  0  0  0  0  0  0
    4.6325    2.6099   -0.0991 C   0  0  1  0  0  0  0  0  0  0  0  0
    3.0860   -0.5438    0.6965 C   0  0  0  0  0  0  0  0  0  0  0  0
    3.5607   -1.0686   -0.5055 C   0  0  0  0  0  0  0  0  0  0  0  0
    2.5379   -1.3913    1.6594 C   0  0  0  0  0  0  0  0  0  0  0  0
   -0.0380    1.1850   -0.0843 C   0  0  0  0  0  0  0  0  0  0  0  0
    3.4876   -2.4408   -0.7446 C   0  0  0  0  0  0  0  0  0  0  0  0
    2.4647   -2.7634    1.4203 C   0  0  0  0  0  0  0  0  0  0  0  0
    2.9396   -3.2883    0.2183 C   0  0  0  0  0  0  0  0  0  0  0  0
   -2.5347    1.0978    0.2894 C   0  0  0  0  0  0  0  0  0  0  0  0
   -2.7119   -0.0487   -0.4853 C   0  0  0  0  0  0  0  0  0  0  0  0
   -3.6321    1.7009    0.9039 C   0  0  0  0  0  0  0  0  0  0  0  0
    3.3714   -5.0961   -1.2651 C   0  0  0  0  0  0  0  0  0  0  0  0
   -3.9864   -0.5920   -0.6453 C   0  0  0  0  0  0  0  0  0  0  0  0
   -4.9067    1.1575    0.7438 C   0  0  0  0  0  0  0  0  0  0  0  0
   -5.0840    0.0110   -0.0307 C   0  0  0  0  0  0  0  0  0  0  0  0
   -6.4467   -0.5709   -0.2016 C   0  0  0  0  0  0  0  0  0  0  0  0
    2.7421    1.1414    1.9518 H   0  0  0  0  0  0  0  0  0  0  0  0
    2.3707    1.3108   -1.0765 H   0  0  0  0  0  0  0  0  0  0  0  0
    2.9561    3.7342    0.6934 H   0  0  0  0  0  0  0  0  0  0  0  0
    4.7917    1.9680    1.9499 H   0  0  0  0  0  0  0  0  0  0  0  0
    5.3744    0.7518    0.8048 H   0  0  0  0  0  0  0  0  0  0  0  0
    5.3273    3.4223    0.1338 H   0  0  0  0  0  0  0  0  0  0  0  0
    0.8282    2.7630    0.9632 H   0  0  0  0  0  0  0  0  0  0  0  0
    3.5404    4.5601   -1.3745 H   0  0  0  0  0  0  0  0  0  0  0  0
    5.9450    1.7114   -1.2288 H   0  0  0  0  0  0  0  0  0  0  0  0
    3.9942   -0.4293   -1.2682 H   0  0  0  0  0  0  0  0  0  0  0  0
    2.1626   -0.9980    2.6002 H   0  0  0  0  0  0  0  0  0  0  0  0
    3.8751   -2.7813   -1.6987 H   0  0  0  0  0  0  0  0  0  0  0  0
    2.0362   -3.4187    2.1738 H   0  0  0  0  0  0  0  0  0  0  0  0
   -1.1927    2.4844    1.0299 H   0  0  0  0  0  0  0  0  0  0  0  0
   -1.9126   -0.5716   -0.9911 H   0  0  0  0  0  0  0  0  0  0  0  0
   -3.5078    2.5946    1.5101 H   0  0  0  0  0  0  0  0  0  0  0  0
    3.2346   -6.1824   -1.2815 H   0  0  0  0  0  0  0  0  0  0  0  0
    4.4460   -4.9078   -1.3619 H   0  0  0  0  0  0  0  0  0  0  0  0
    2.8010   -4.6894   -2.1071 H   0  0  0  0  0  0  0  0  0  0  0  0
   -4.1043   -1.4856   -1.2522 H   0  0  0  0  0  0  0  0  0  0  0  0
   -5.7558    1.6342    1.2264 H   0  0  0  0  0  0  0  0  0  0  0  0
  1 29  1  0  0  0  0
  2 29  1  0  0  0  0
  3 29  1  0  0  0  0
  4 12  1  0  0  0  0
  4 37  1  0  0  0  0
  5 14  1  0  0  0  0
  5 38  1  0  0  0  0
  6 18  2  0  0  0  0
  7 21  1  0  0  0  0
  7 25  1  0  0  0  0
  8 11  1  0  0  0  0
  8 18  1  0  0  0  0
  8 36  1  0  0  0  0
  9 18  1  0  0  0  0
  9 22  1  0  0  0  0
  9 43  1  0  0  0  0
 10 11  1  0  0  0  0
 10 13  1  0  0  0  0
 10 15  1  0  0  0  0
 10 30  1  0  0  0  0
 11 12  1  0  0  0  0
 11 31  1  0  0  0  0
 12 14  1  0  0  0  0
 12 32  1  0  0  0  0
 13 14  1  0  0  0  0
 13 33  1  0  0  0  0
 13 34  1  0  0  0  0
 14 35  1  0  0  0  0
 15 16  2  0  0  0  0
 15 17  1  0  0  0  0
 16 19  1  0  0  0  0
 16 39  1  0  0  0  0
 17 20  2  0  0  0  0
 17 40  1  0  0  0  0
 19 21  2  0  0  0  0
 19 41  1  0  0  0  0
 20 21  1  0  0  0  0
 20 42  1  0  0  0  0
 22 23  2  0  0  0  0
 22 24  1  0  0  0  0
 23 26  1  0  0  0  0
 23 44  1  0  0  0  0
 24 27  2  0  0  0  0
 24 45  1  0  0  0  0
 25 46  1  0  0  0  0
 25 47  1  0  0  0  0
 25 48  1  0  0  0  0
 26 28  2  0  0  0  0
 26 49  1  0  0  0  0
 27 28  1  0  0  0  0
 27 50  1  0  0  0  0
 28 29  1  0  0  0  0
M  END
> <PUBCHEM_COMPOUND_CID>
75536134

> <PUBCHEM_CONFORMER_RMSD>
1

> <PUBCHEM_CONFORMER_DIVERSEORDER>
1
13
14
10
8
3
15
12
7
4
9
5
2
6
11

> <PUBCHEM_MMFF94_PARTIAL_CHARGES>
40
1 -0.34
10 0.14
11 0.3
12 0.28
14 0.28
15 -0.14
16 -0.15
17 -0.15
18 0.69
19 -0.15
2 -0.34
20 -0.15
21 0.08
22 0.12
23 -0.15
24 -0.15
25 0.28
26 -0.15
27 -0.15
28 -0.14
29 1.16
3 -0.34
36 0.37
37 0.4
38 0.4
39 0.15
4 -0.68
40 0.15
41 0.15
42 0.15
43 0.37
44 0.15
45 0.15
49 0.15
5 -0.68
50 0.15
6 -0.57
7 -0.36
8 -0.73
9 -0.55

> <PUBCHEM_EFFECTIVE_ROTOR_COUNT>
8

> <PUBCHEM_PHARMACOPHORE_FEATURES>
11
1 4 acceptor
1 4 donor
1 5 acceptor
1 5 donor
1 6 acceptor
1 7 acceptor
1 8 donor
1 9 donor
5 10 11 12 13 14 rings
6 15 16 17 19 20 21 rings
6 22 23 24 26 27 28 rings

> <PUBCHEM_HEAVY_ATOM_COUNT>
29

> <PUBCHEM_ATOM_DEF_STEREO_COUNT>
4

> <PUBCHEM_ATOM_UDEF_STEREO_COUNT>
0

> <PUBCHEM_BOND_DEF_STEREO_COUNT>
0

> <PUBCHEM_BOND_UDEF_STEREO_COUNT>
0

> <PUBCHEM_ISOTOPIC_ATOM_COUNT>
0

> <PUBCHEM_COMPONENT_COUNT>
1

> <PUBCHEM_CACTVS_TAUTO_COUNT>
3

> <PUBCHEM_CONFORMER_ID>
0480970600000001

> <PUBCHEM_MMFF94_ENERGY>
86.297

> <PUBCHEM_FEATURE_SELFOVERLAP>
55.885

> <PUBCHEM_SHAPE_FINGERPRINT>
10319688 140 18411704249241549502
10483366 6 18339094722579669798
10554248 39 18339067208845144037
11014199 57 17980480058161808208
11059845 2 16625192295669224667
11181472 205 18410014300539876141
11421498 54 18202002118964305448
11475781 23 16806145693711778661
117089 54 17839189515121476047
11719270 70 18410567427427733832
12107183 9 17839189511063132257
12788726 201 17846788412221923753
13150687 139 17970085516368986564
13533116 47 18342736317331706457
1361 2 18410291423806964963
13692114 37 18196643206717103882
13785724 45 17982739575531025559
14251740 57 18271240508731379042
14863182 85 18411132550893108536
15250474 111 18271230733950237983
15419008 42 17899386767629573781
15537594 2 18130221661848312397
16993438 75 17756991477395467594
17492 89 18268990895271792585
17818456 19 17842563942007930609
17844677 252 18337673014751841817
17859628 70 18412544276072039370
18365409 1 17906456885189000796
19319366 153 18271519918145026124
19427546 62 18048315836687390836
1979834 28 18341035372817222170
20028762 73 18413385454492049442
20645477 70 18334572438705006888
20775438 99 18336259115444480675
21133410 221 13414754939809903406
21133410 32 16376128877832693066
21197605 99 18191026900884944643
21285901 2 17603576430903448941
21344244 181 18270977821149091534
21344244 246 18339090281594112926
22224240 67 18339915035152179144
22956985 138 17899679186832015594
23559900 14 18126560124433699257
239999 70 18333448742380014514
25222932 49 18057037119984477447
255183 451 18127414454023283094
3421961 26 18268426841881060842
3534868 343 18337399317893216381
397830 11 11815602147871327621
4073 2 18261115227200974041
46194498 28 17967810561315528164
5104073 3 18059299769159839593
57359948 33 17530958056239343133
6025842 7 18335419097218586204
70251023 43 18267309729387797586
7970288 3 17763745390756979510

> <PUBCHEM_SHAPE_MULTIPOLES>
541.55
15.6
5.15
1.22
33.92
5.08
0.11
2.24
-1.29
-10.78
-1.48
-0.73
0.26
-0.84

> <PUBCHEM_SHAPE_SELFOVERLAP>
1161.804

> <PUBCHEM_SHAPE_VOLUME>
301.1

> <PUBCHEM_COORDINATE_TYPE>
2
5
10

$$$$
