11941672
  -OEChem-12032416163D

 50 53  0     1  0  0  0  0  0999 V2000
   -2.5877   -2.2931   -1.7759 O   0  0  0  0  0  0  0  0  0  0  0  0
   -1.1273    0.4638   -1.8315 O   0  0  0  0  0  0  0  0  0  0  0  0
   -5.8808   -0.1504    0.1148 O   0  0  0  0  0  0  0  0  0  0  0  0
   -6.4262    1.5872    2.0971 O   0  0  0  0  0  0  0  0  0  0  0  0
   -3.8116    0.8257   -0.3070 N   0  0  0  0  0  0  0  0  0  0  0  0
    0.1237   -2.6145   -0.3188 N   0  0  0  0  0  0  0  0  0  0  0  0
    1.9890   -1.2678    0.1435 N   0  0  0  0  0  0  0  0  0  0  0  0
    1.5313   -3.2389    1.4519 N   0  0  0  0  0  0  0  0  0  0  0  0
    2.8017    4.4328   -1.3474 N   0  0  0  0  0  0  0  0  0  0  0  0
   -1.1357   -0.6267   -0.8948 C   0  0  1  0  0  0  0  0  0  0  0  0
   -2.5461   -1.1826   -0.8644 C   0  0  1  0  0  0  0  0  0  0  0  0
   -0.2985   -1.7710   -1.4155 C   0  0  2  0  0  0  0  0  0  0  0  0
   -3.4003   -0.0471   -1.3799 C   0  0  2  0  0  0  0  0  0  0  0  0
   -1.2735   -2.5180   -2.3070 C   0  0  0  0  0  0  0  0  0  0  0  0
   -2.4566    0.6618   -2.3351 C   0  0  0  0  0  0  0  0  0  0  0  0
   -5.0255    0.6981    0.3529 C   0  0  0  0  0  0  0  0  0  0  0  0
    1.2480   -2.3663    0.4485 C   0  0  0  0  0  0  0  0  0  0  0  0
   -5.1910    1.7465    1.4324 C   0  0  0  0  0  0  0  0  0  0  0  0
    3.0780   -1.0563    0.9113 C   0  0  0  0  0  0  0  0  0  0  0  0
    2.6344   -2.9669    2.1796 C   0  0  0  0  0  0  0  0  0  0  0  0
    3.4533   -1.8797    1.9531 C   0  0  0  0  0  0  0  0  0  0  0  0
    3.8494    0.1153    0.5713 C   0  0  0  0  0  0  0  0  0  0  0  0
   -6.6087    2.5622    3.1198 C   0  0  0  0  0  0  0  0  0  0  0  0
    3.2221    1.2315    0.0135 C   0  0  0  0  0  0  0  0  0  0  0  0
    5.2271    0.1366    0.7996 C   0  0  0  0  0  0  0  0  0  0  0  0
    3.9687    2.3632   -0.3143 C   0  0  0  0  0  0  0  0  0  0  0  0
    5.9736    1.2684    0.4717 C   0  0  0  0  0  0  0  0  0  0  0  0
    5.3444    2.3817   -0.0853 C   0  0  0  0  0  0  0  0  0  0  0  0
    3.3250    3.5047   -0.8842 C   0  0  0  0  0  0  0  0  0  0  0  0
   -0.8173   -0.2251    0.0725 H   0  0  0  0  0  0  0  0  0  0  0  0
   -2.8379   -1.5567    0.1223 H   0  0  0  0  0  0  0  0  0  0  0  0
    0.5628   -1.4517   -2.0134 H   0  0  0  0  0  0  0  0  0  0  0  0
   -4.2937   -0.3958   -1.9092 H   0  0  0  0  0  0  0  0  0  0  0  0
   -1.0867   -3.5947   -2.3669 H   0  0  0  0  0  0  0  0  0  0  0  0
   -1.2624   -2.1115   -3.3244 H   0  0  0  0  0  0  0  0  0  0  0  0
   -2.6510    1.7340   -2.4352 H   0  0  0  0  0  0  0  0  0  0  0  0
   -2.4965    0.2096   -3.3322 H   0  0  0  0  0  0  0  0  0  0  0  0
   -0.4496   -3.4059   -0.0495 H   0  0  0  0  0  0  0  0  0  0  0  0
   -3.1550    1.5340    0.0096 H   0  0  0  0  0  0  0  0  0  0  0  0
   -4.3665    1.6416    2.1472 H   0  0  0  0  0  0  0  0  0  0  0  0
   -5.1436    2.7364    0.9638 H   0  0  0  0  0  0  0  0  0  0  0  0
    2.8452   -3.6675    2.9805 H   0  0  0  0  0  0  0  0  0  0  0  0
    4.3104   -1.7083    2.5914 H   0  0  0  0  0  0  0  0  0  0  0  0
   -7.5781    2.3855    3.5935 H   0  0  0  0  0  0  0  0  0  0  0  0
   -5.8256    2.4709    3.8786 H   0  0  0  0  0  0  0  0  0  0  0  0
   -6.6054    3.5694    2.6922 H   0  0  0  0  0  0  0  0  0  0  0  0
    2.1475    1.2392   -0.1623 H   0  0  0  0  0  0  0  0  0  0  0  0
    5.7622   -0.7167    1.2075 H   0  0  0  0  0  0  0  0  0  0  0  0
    7.0458    1.2810    0.6445 H   0  0  0  0  0  0  0  0  0  0  0  0
    5.9402    3.2559   -0.3367 H   0  0  0  0  0  0  0  0  0  0  0  0
  1 11  1  0  0  0  0
  1 14  1  0  0  0  0
  2 10  1  0  0  0  0
  2 15  1  0  0  0  0
  3 16  2  0  0  0  0
  4 18  1  0  0  0  0
  4 23  1  0  0  0  0
  5 13  1  0  0  0  0
  5 16  1  0  0  0  0
  5 39  1  0  0  0  0
  6 12  1  0  0  0  0
  6 17  1  0  0  0  0
  6 38  1  0  0  0  0
  7 17  1  0  0  0  0
  7 19  2  0  0  0  0
  8 17  2  0  0  0  0
  8 20  1  0  0  0  0
  9 29  3  0  0  0  0
 10 11  1  0  0  0  0
 10 12  1  0  0  0  0
 10 30  1  0  0  0  0
 11 13  1  0  0  0  0
 11 31  1  0  0  0  0
 12 14  1  0  0  0  0
 12 32  1  0  0  0  0
 13 15  1  0  0  0  0
 13 33  1  0  0  0  0
 14 34  1  0  0  0  0
 14 35  1  0  0  0  0
 15 36  1  0  0  0  0
 15 37  1  0  0  0  0
 16 18  1  0  0  0  0
 18 40  1  0  0  0  0
 18 41  1  0  0  0  0
 19 21  1  0  0  0  0
 19 22  1  0  0  0  0
 20 21  2  0  0  0  0
 20 42  1  0  0  0  0
 21 43  1  0  0  0  0
 22 24  1  0  0  0  0
 22 25  2  0  0  0  0
 23 44  1  0  0  0  0
 23 45  1  0  0  0  0
 23 46  1  0  0  0  0
 24 26  2  0  0  0  0
 24 47  1  0  0  0  0
 25 27  1  0  0  0  0
 25 48  1  0  0  0  0
 26 28  1  0  0  0  0
 26 29  1  0  0  0  0
 27 28  2  0  0  0  0
 27 49  1  0  0  0  0
 28 50  1  0  0  0  0
M  END
> <PUBCHEM_COMPOUND_CID>
11941672

> <PUBCHEM_CONFORMER_RMSD>
1

> <PUBCHEM_CONFORMER_DIVERSEORDER>
1
72
209
183
103
83
166
74
91
168
118
214
43
133
66
69
105
57
145
44
216
110
242
240
190
71
238
215
193
16
212
76
210
148
86
93
146
113
42
121
243
189
249
184
56
127
106
116
204
81
176
112
87
75
217
85
177
245
173
97
225
159
196
39
96
70
222
227
102
139
13
136
142
48
230
187
158
171
192
114
17
224
211
197
162
49
195
137
244
207
11
152
124
21
115
62
90
153
6
29
108
54
161
131
119
134
170
109
32
154
156
77
38
60
172
247
163
201
88
82
63
182
80
64
135
185
128
151
241
235
73
20
226
59
167
117
234
165
206
229
26
50
164
141
160
157
125
220
55
213
12
199
205
95
94
47
223
61
126
18
186
111
23
40
101
89
7
198
33
107
19
132
130
219
129
203
65
120
45
178
10
200
239
67
194
236
28
68
24
100
84
104
208
35
53
174
25
27
147
150
179
99
15
143
78
169
202
52
237
122
31
4
155
246
41
79
221
191
180
22
14
138
231
248
233
181
36
98
34
144
228
175
123
8
46
149
188
58
30
218
92
232
2
9
140
3
51
37
5

> <PUBCHEM_MMFF94_PARTIAL_CHARGES>
36
1 -0.56
10 0.28
11 0.28
12 0.37
13 0.3
14 0.28
15 0.28
16 0.57
17 0.72
18 0.34
19 0.31
2 -0.56
20 0.16
21 -0.15
23 0.28
24 -0.15
25 -0.15
26 0.07
27 -0.15
28 -0.15
29 0.48
3 -0.57
38 0.4
39 0.37
4 -0.56
42 0.15
43 0.15
47 0.15
48 0.15
49 0.15
5 -0.73
50 0.15
6 -0.87
7 -0.62
8 -0.62
9 -0.56

> <PUBCHEM_EFFECTIVE_ROTOR_COUNT>
8.2

> <PUBCHEM_PHARMACOPHORE_FEATURES>
13
1 1 acceptor
1 2 acceptor
1 3 acceptor
1 4 acceptor
1 5 donor
1 6 donor
1 7 acceptor
1 9 acceptor
4 6 7 8 17 cation
5 1 10 11 12 14 rings
5 2 10 11 13 15 rings
6 22 24 25 26 27 28 rings
6 7 8 17 19 20 21 rings

> <PUBCHEM_HEAVY_ATOM_COUNT>
29

> <PUBCHEM_ATOM_DEF_STEREO_COUNT>
4

> <PUBCHEM_ATOM_UDEF_STEREO_COUNT>
0

> <PUBCHEM_BOND_DEF_STEREO_COUNT>
0

> <PUBCHEM_BOND_UDEF_STEREO_COUNT>
0

> <PUBCHEM_ISOTOPIC_ATOM_COUNT>
0

> <PUBCHEM_COMPONENT_COUNT>
1

> <PUBCHEM_CACTVS_TAUTO_COUNT>
6

> <PUBCHEM_CONFORMER_ID>
00B6372800000001

> <PUBCHEM_MMFF94_ENERGY>
79.844

> <PUBCHEM_FEATURE_SELFOVERLAP>
66.687

> <PUBCHEM_SHAPE_FINGERPRINT>
10615611 76 18342454850823669335
10674148 151 18059583482125844732
11059048 146 17464543383878258388
12925494 130 18044072602140616205
12975358 362 17269783238813516049
13398642 44 17678465374989184828
13583140 156 17679002817279397855
13590594 115 17829304923394632914
13782708 43 16081921521732110698
13828863 39 18410579508901393643
14765038 42 18338237175965590708
14950920 106 17968935263300651987
15163728 17 17561373850851927615
15238133 3 17489012769549830498
15297060 5 17418099805828781306
16067690 210 17203325658314477016
19304671 126 14117222916117051339
21033650 10 16558739144390016535
21458453 9 17024326312258170433
21585480 29 17677630794641092907
23845131 108 17749937972901345106
3178227 256 17966968319035656984
3459 110 17822012063976605043
3680242 22 18042664218540387672
38570 142 18410020948631629526
392239 28 17821725052797651179
437795 70 13542193744974391331
474 4 18115848837376491598
5081480 168 17915747470744339470
5252454 2 18338217367238161804
57724786 102 18271806757325159071
86090 222 16371303116580365313

> <PUBCHEM_SHAPE_MULTIPOLES>
548.42
14.76
4.46
2.49
13.56
1.47
-0.7
13.92
-9.6
-3.45
-0.2
3.63
-0.08
-6.15

> <PUBCHEM_SHAPE_SELFOVERLAP>
1184.185

> <PUBCHEM_SHAPE_VOLUME>
298

> <PUBCHEM_COORDINATE_TYPE>
2
5
10

$$$$
