11911975
  -OEChem-12032416363D

 55 60  0     1  0  0  0  0  0999 V2000
   -3.0722   -1.1057   -0.4579 S   0  0  0  0  0  0  0  0  0  0  0  0
   -1.4249    2.0760   -1.4744 O   0  0  0  0  0  0  0  0  0  0  0  0
    3.4168    1.0429   -0.6872 N   0  0  2  0  0  0  0  0  0  0  0  0
    0.4786    2.1506   -0.1277 N   0  0  0  0  0  0  0  0  0  0  0  0
    0.3070   -4.0703    0.1954 N   0  0  0  0  0  0  0  0  0  0  0  0
    2.6046    3.4120   -0.8039 C   0  0  1  0  0  0  0  0  0  0  0  0
    2.5288    2.2170    1.3318 C   0  0  2  0  0  0  0  0  0  0  0  0
    2.8069    3.5763    0.6964 C   0  0  0  0  0  0  0  0  0  0  0  0
    3.5711    2.3415   -1.3541 C   0  0  0  0  0  0  0  0  0  0  0  0
    3.5230    1.1729    0.7738 C   0  0  0  0  0  0  0  0  0  0  0  0
    1.1326    3.0697   -1.0699 C   0  0  0  0  0  0  0  0  0  0  0  0
    1.0991    1.7816    1.0688 C   0  0  0  0  0  0  0  0  0  0  0  0
    4.3834    0.0737   -1.1976 C   0  0  0  0  0  0  0  0  0  0  0  0
    0.4407    1.0322    1.9677 C   0  0  0  0  0  0  0  0  0  0  0  0
   -0.8343    1.7474   -0.4441 C   0  0  0  0  0  0  0  0  0  0  0  0
   -1.5303    0.8814    0.5693 C   0  0  0  0  0  0  0  0  0  0  0  0
   -0.8950    0.5730    1.7095 C   0  0  0  0  0  0  0  0  0  0  0  0
    4.1744   -1.2916   -0.6090 C   0  0  0  0  0  0  0  0  0  0  0  0
   -2.8522    0.3956    0.3273 C   0  0  0  0  0  0  0  0  0  0  0  0
    2.8894   -1.8139   -0.5213 C   0  0  0  0  0  0  0  0  0  0  0  0
    5.2688   -2.0197   -0.1574 C   0  0  0  0  0  0  0  0  0  0  0  0
   -4.0596    0.9819    0.6466 C   0  0  0  0  0  0  0  0  0  0  0  0
    2.6960   -3.0824    0.0258 C   0  0  0  0  0  0  0  0  0  0  0  0
    5.0756   -3.2883    0.3897 C   0  0  0  0  0  0  0  0  0  0  0  0
   -5.1922    0.1964    0.2458 C   0  0  0  0  0  0  0  0  0  0  0  0
   -4.7908   -0.9881   -0.3795 C   0  0  0  0  0  0  0  0  0  0  0  0
    3.7892   -3.8195    0.4813 C   0  0  0  0  0  0  0  0  0  0  0  0
   -6.5795    0.4415    0.3879 C   0  0  0  0  0  0  0  0  0  0  0  0
   -5.7296   -1.9221   -0.8599 C   0  0  0  0  0  0  0  0  0  0  0  0
    1.3783   -3.6274    0.1194 C   0  0  0  0  0  0  0  0  0  0  0  0
   -7.5132   -0.4830   -0.0877 C   0  0  0  0  0  0  0  0  0  0  0  0
   -7.0904   -1.6516   -0.7049 C   0  0  0  0  0  0  0  0  0  0  0  0
    2.8356    4.3573   -1.3108 H   0  0  0  0  0  0  0  0  0  0  0  0
    2.6944    2.3075    2.4135 H   0  0  0  0  0  0  0  0  0  0  0  0
    2.1352    4.3445    1.0994 H   0  0  0  0  0  0  0  0  0  0  0  0
    3.8326    3.8994    0.9128 H   0  0  0  0  0  0  0  0  0  0  0  0
    3.3894    2.2247   -2.4298 H   0  0  0  0  0  0  0  0  0  0  0  0
    4.6009    2.7074   -1.2418 H   0  0  0  0  0  0  0  0  0  0  0  0
    4.5426    1.4715    1.0553 H   0  0  0  0  0  0  0  0  0  0  0  0
    3.3226    0.2246    1.2850 H   0  0  0  0  0  0  0  0  0  0  0  0
    0.5460    3.9979   -1.0314 H   0  0  0  0  0  0  0  0  0  0  0  0
    1.0058    2.6759   -2.0863 H   0  0  0  0  0  0  0  0  0  0  0  0
    5.4081    0.4204   -1.0077 H   0  0  0  0  0  0  0  0  0  0  0  0
    4.2780   -0.0231   -2.2862 H   0  0  0  0  0  0  0  0  0  0  0  0
    0.9029    0.7267    2.9005 H   0  0  0  0  0  0  0  0  0  0  0  0
   -1.3566   -0.0460    2.4734 H   0  0  0  0  0  0  0  0  0  0  0  0
    2.0339   -1.2501   -0.8871 H   0  0  0  0  0  0  0  0  0  0  0  0
    6.2762   -1.6182   -0.2237 H   0  0  0  0  0  0  0  0  0  0  0  0
   -4.1382    1.9391    1.1489 H   0  0  0  0  0  0  0  0  0  0  0  0
    5.9268   -3.8622    0.7441 H   0  0  0  0  0  0  0  0  0  0  0  0
    3.6546   -4.8097    0.9101 H   0  0  0  0  0  0  0  0  0  0  0  0
   -6.9262    1.3527    0.8693 H   0  0  0  0  0  0  0  0  0  0  0  0
   -5.4077   -2.8397   -1.3442 H   0  0  0  0  0  0  0  0  0  0  0  0
   -8.5749   -0.2835    0.0273 H   0  0  0  0  0  0  0  0  0  0  0  0
   -7.8240   -2.3646   -1.0715 H   0  0  0  0  0  0  0  0  0  0  0  0
  1 19  1  0  0  0  0
  1 26  1  0  0  0  0
  2 15  2  0  0  0  0
  3  9  1  0  0  0  0
  3 10  1  0  0  0  0
  3 13  1  0  0  0  0
  4 11  1  0  0  0  0
  4 12  1  0  0  0  0
  4 15  1  0  0  0  0
  5 30  3  0  0  0  0
  6  8  1  0  0  0  0
  6  9  1  0  0  0  0
  6 11  1  0  0  0  0
  6 33  1  0  0  0  0
  7  8  1  0  0  0  0
  7 10  1  0  0  0  0
  7 12  1  0  0  0  0
  7 34  1  0  0  0  0
  8 35  1  0  0  0  0
  8 36  1  0  0  0  0
  9 37  1  0  0  0  0
  9 38  1  0  0  0  0
 10 39  1  0  0  0  0
 10 40  1  0  0  0  0
 11 41  1  0  0  0  0
 11 42  1  0  0  0  0
 12 14  2  0  0  0  0
 13 18  1  0  0  0  0
 13 43  1  0  0  0  0
 13 44  1  0  0  0  0
 14 17  1  0  0  0  0
 14 45  1  0  0  0  0
 15 16  1  0  0  0  0
 16 17  2  0  0  0  0
 16 19  1  0  0  0  0
 17 46  1  0  0  0  0
 18 20  2  0  0  0  0
 18 21  1  0  0  0  0
 19 22  2  0  0  0  0
 20 23  1  0  0  0  0
 20 47  1  0  0  0  0
 21 24  2  0  0  0  0
 21 48  1  0  0  0  0
 22 25  1  0  0  0  0
 22 49  1  0  0  0  0
 23 27  2  0  0  0  0
 23 30  1  0  0  0  0
 24 27  1  0  0  0  0
 24 50  1  0  0  0  0
 25 26  1  0  0  0  0
 25 28  2  0  0  0  0
 26 29  2  0  0  0  0
 27 51  1  0  0  0  0
 28 31  1  0  0  0  0
 28 52  1  0  0  0  0
 29 32  1  0  0  0  0
 29 53  1  0  0  0  0
 31 32  2  0  0  0  0
 31 54  1  0  0  0  0
 32 55  1  0  0  0  0
M  END
> <PUBCHEM_COMPOUND_CID>
11911975

> <PUBCHEM_CONFORMER_RMSD>
0.8

> <PUBCHEM_CONFORMER_DIVERSEORDER>
1
13
19
27
23
7
14
20
28
22
16
9
17
25
10
18
15
24
8
21
26
12
5
11
3
6
2
4

> <PUBCHEM_MMFF94_PARTIAL_CHARGES>
40
1 -0.08
10 0.27
11 0.3
12 -0.03
13 0.41
14 -0.15
15 0.62
16 0.06
17 -0.15
18 -0.14
19 -0.01
2 -0.57
20 -0.15
21 -0.15
22 -0.15
23 0.07
24 -0.15
26 0.04
27 -0.15
28 -0.15
29 -0.15
3 -0.81
30 0.48
31 -0.15
32 -0.15
4 -0.47
45 0.15
46 0.15
47 0.15
48 0.15
49 0.15
5 -0.56
50 0.15
51 0.15
52 0.15
53 0.15
54 0.15
55 0.15
7 0.14
9 0.27

> <PUBCHEM_EFFECTIVE_ROTOR_COUNT>
4

> <PUBCHEM_PHARMACOPHORE_FEATURES>
9
1 2 acceptor
1 3 cation
1 5 acceptor
5 1 19 22 25 26 rings
6 18 20 21 23 24 27 rings
6 25 26 28 29 31 32 rings
6 3 6 7 8 9 10 rings
6 4 12 14 15 16 17 rings
6 4 6 7 8 11 12 rings

> <PUBCHEM_HEAVY_ATOM_COUNT>
32

> <PUBCHEM_ATOM_DEF_STEREO_COUNT>
2

> <PUBCHEM_ATOM_UDEF_STEREO_COUNT>
0

> <PUBCHEM_BOND_DEF_STEREO_COUNT>
0

> <PUBCHEM_BOND_UDEF_STEREO_COUNT>
0

> <PUBCHEM_ISOTOPIC_ATOM_COUNT>
0

> <PUBCHEM_COMPONENT_COUNT>
1

> <PUBCHEM_CACTVS_TAUTO_COUNT>
1

> <PUBCHEM_CONFORMER_ID>
00B5C32700000001

> <PUBCHEM_MMFF94_ENERGY>
82.6958

> <PUBCHEM_FEATURE_SELFOVERLAP>
47.287

> <PUBCHEM_SHAPE_FINGERPRINT>
10675989 125 18268993257388358680
10816530 23 17686624953610367345
11014199 57 17619633479962742678
11135609 149 18263342755448049260
11146851 88 18333452019683473234
11227688 84 17910947261272365623
11796584 16 17560249136361327021
11828532 37 16588601901569384585
11963148 33 17910384328177164079
12107183 9 18126856989085931721
12166972 35 18042692710858167718
12236239 1 18189889998120987873
12522641 33 18266737060092645032
13150687 139 17897464989478430852
13533116 47 18343304803356015073
13560911 43 18042405742808150482
1361 2 18335985358332998640
13782708 43 16916503792019360437
14068700 675 18200314316964674338
14347332 77 18412825755665769641
14784336 7 18059011808745497553
15001296 14 18340762753937026951
15183329 4 17775295997452153561
15324884 4 17538032511938167912
15439362 3 18336546130770123585
15927050 60 18055067933060920670
17492 54 18189918512134150182
19026451 147 18339081480531046026
19315092 285 18059856164207190001
19958102 18 18338506539450330055
20028762 73 18200033932984445398
20567600 247 18413389839136700419
20775438 99 18263070188181263011
20775530 9 18267294331977618070
21133410 171 17028777985620916498
21703447 108 18059852887364012304
21781055 127 16845024421218808483
23522609 53 17914364431483634233
23559900 14 18412254039736390241
23569914 152 17613401513076117383
23569943 247 18263363603942354651
27425 322 16879631711381662480
3004659 81 18060427923212297101
338550 245 18340763857326630735
4073 2 18196091273280573297
439807 62 18410294684140738515
46194498 28 17894911857940843092
463206 1 18337117756937239242
484989 97 18265348372248053130
5309563 4 18266459806836060526
59682541 52 18335697265534469013
70251023 43 18335138657075890688

> <PUBCHEM_SHAPE_MULTIPOLES>
641.58
15.17
5.15
1.31
28.01
2.44
0.2
9.09
-2.52
-8.26
-0.15
-0.49
-0.77
-1.19

> <PUBCHEM_SHAPE_SELFOVERLAP>
1421.012

> <PUBCHEM_SHAPE_VOLUME>
343.1

> <PUBCHEM_COORDINATE_TYPE>
2
5
10

$$$$
