40779355
  -OEChem-12032416163D

 57 60  0     1  0  0  0  0  0999 V2000
    5.3387    1.8159   -0.8465 S   0  0  0  0  0  0  0  0  0  0  0  0
   -1.0227    2.0364    1.8817 O   0  0  0  0  0  0  0  0  0  0  0  0
   -3.2912    1.9950   -3.3462 O   0  0  0  0  0  0  0  0  0  0  0  0
   -5.2803    1.8495   -2.2600 O   0  0  0  0  0  0  0  0  0  0  0  0
   -1.1917   -2.9855    1.5971 N   0  0  2  0  0  0  0  0  0  0  0  0
    2.6605   -1.7111   -1.3375 N   0  0  0  0  0  0  0  0  0  0  0  0
   -2.6995    0.4343    1.9994 N   0  0  0  0  0  0  0  0  0  0  0  0
    3.5771   -0.7286   -1.3605 N   0  0  0  0  0  0  0  0  0  0  0  0
   -0.7392   -2.3327   -0.8832 C   0  0  2  0  0  0  0  0  0  0  0  0
    0.5992   -2.5685   -0.1301 C   0  0  2  0  0  0  0  0  0  0  0  0
   -1.9637   -1.7651    1.2438 C   0  0  2  0  0  0  0  0  0  0  0  0
   -1.5521   -1.2447   -0.1502 C   0  0  0  0  0  0  0  0  0  0  0  0
   -1.5444   -3.6460   -0.7819 C   0  0  0  0  0  0  0  0  0  0  0  0
    0.2574   -2.7521    1.3762 C   0  0  0  0  0  0  0  0  0  0  0  0
   -1.6278   -4.0766    0.6930 C   0  0  0  0  0  0  0  0  0  0  0  0
    1.7312   -1.5747   -0.3483 C   0  0  0  0  0  0  0  0  0  0  0  0
   -1.8550   -0.6765    2.3137 C   0  0  0  0  0  0  0  0  0  0  0  0
    2.0634   -0.4232    0.3226 C   0  0  0  0  0  0  0  0  0  0  0  0
    3.2072    0.0551   -0.3442 C   0  0  0  0  0  0  0  0  0  0  0  0
    2.7380   -2.7708   -2.3160 C   0  0  0  0  0  0  0  0  0  0  0  0
   -2.2080    1.7248    1.8050 C   0  0  0  0  0  0  0  0  0  0  0  0
    3.9505    1.2803    0.0010 C   0  0  0  0  0  0  0  0  0  0  0  0
   -3.3169    2.7215    1.5123 C   0  0  0  0  0  0  0  0  0  0  0  0
   -4.1254    2.3907    0.2593 C   0  0  0  0  0  0  0  0  0  0  0  0
    3.6172    2.1273    1.0350 C   0  0  0  0  0  0  0  0  0  0  0  0
   -3.2604    2.3661   -1.0025 C   0  0  0  0  0  0  0  0  0  0  0  0
    4.5135    3.2306    1.1327 C   0  0  0  0  0  0  0  0  0  0  0  0
    5.4975    3.1848    0.1698 C   0  0  0  0  0  0  0  0  0  0  0  0
   -4.0730    2.0437   -2.2358 C   0  0  0  0  0  0  0  0  0  0  0  0
   -0.5708   -2.0542   -1.9287 H   0  0  0  0  0  0  0  0  0  0  0  0
    0.9838   -3.5420   -0.4700 H   0  0  0  0  0  0  0  0  0  0  0  0
   -3.0275   -2.0433    1.1995 H   0  0  0  0  0  0  0  0  0  0  0  0
   -0.9546   -0.3287   -0.0868 H   0  0  0  0  0  0  0  0  0  0  0  0
   -2.4516   -1.0042   -0.7304 H   0  0  0  0  0  0  0  0  0  0  0  0
   -1.0655   -4.4348   -1.3737 H   0  0  0  0  0  0  0  0  0  0  0  0
   -2.5511   -3.4985   -1.1912 H   0  0  0  0  0  0  0  0  0  0  0  0
    0.8137   -3.6189    1.7591 H   0  0  0  0  0  0  0  0  0  0  0  0
    0.5968   -1.9213    2.0010 H   0  0  0  0  0  0  0  0  0  0  0  0
   -2.6546   -4.3765    0.9359 H   0  0  0  0  0  0  0  0  0  0  0  0
   -1.0132   -4.9696    0.8640 H   0  0  0  0  0  0  0  0  0  0  0  0
   -0.8247   -0.3330    2.4444 H   0  0  0  0  0  0  0  0  0  0  0  0
   -2.1940   -1.0670    3.2802 H   0  0  0  0  0  0  0  0  0  0  0  0
    1.5418    0.0070    1.1654 H   0  0  0  0  0  0  0  0  0  0  0  0
   -3.7025    0.2762    1.9874 H   0  0  0  0  0  0  0  0  0  0  0  0
    1.7581   -2.8944   -2.7827 H   0  0  0  0  0  0  0  0  0  0  0  0
    3.4731   -2.5061   -3.0810 H   0  0  0  0  0  0  0  0  0  0  0  0
    3.0464   -3.6867   -1.8061 H   0  0  0  0  0  0  0  0  0  0  0  0
   -3.9820    2.7547    2.3833 H   0  0  0  0  0  0  0  0  0  0  0  0
   -2.8639    3.7149    1.4134 H   0  0  0  0  0  0  0  0  0  0  0  0
   -4.6372    1.4277    0.3717 H   0  0  0  0  0  0  0  0  0  0  0  0
   -4.9155    3.1434    0.1439 H   0  0  0  0  0  0  0  0  0  0  0  0
    2.7769    1.9858    1.7031 H   0  0  0  0  0  0  0  0  0  0  0  0
   -2.7929    3.3459   -1.1499 H   0  0  0  0  0  0  0  0  0  0  0  0
   -2.4765    1.6077   -0.9145 H   0  0  0  0  0  0  0  0  0  0  0  0
    4.4402    4.0179    1.8717 H   0  0  0  0  0  0  0  0  0  0  0  0
    6.3019    3.8899    0.0146 H   0  0  0  0  0  0  0  0  0  0  0  0
   -3.8122    1.7869   -4.1509 H   0  0  0  0  0  0  0  0  0  0  0  0
  1 22  1  0  0  0  0
  1 28  1  0  0  0  0
  2 21  2  0  0  0  0
  3 29  1  0  0  0  0
  3 57  1  0  0  0  0
  4 29  2  0  0  0  0
  5 11  1  0  0  0  0
  5 14  1  0  0  0  0
  5 15  1  0  0  0  0
  6  8  1  0  0  0  0
  6 16  1  0  0  0  0
  6 20  1  0  0  0  0
  7 17  1  0  0  0  0
  7 21  1  0  0  0  0
  7 44  1  0  0  0  0
  8 19  2  0  0  0  0
  9 10  1  0  0  0  0
  9 12  1  0  0  0  0
  9 13  1  0  0  0  0
  9 30  1  0  0  0  0
 10 14  1  0  0  0  0
 10 16  1  0  0  0  0
 10 31  1  0  0  0  0
 11 12  1  0  0  0  0
 11 17  1  0  0  0  0
 11 32  1  0  0  0  0
 12 33  1  0  0  0  0
 12 34  1  0  0  0  0
 13 15  1  0  0  0  0
 13 35  1  0  0  0  0
 13 36  1  0  0  0  0
 14 37  1  0  0  0  0
 14 38  1  0  0  0  0
 15 39  1  0  0  0  0
 15 40  1  0  0  0  0
 16 18  2  0  0  0  0
 17 41  1  0  0  0  0
 17 42  1  0  0  0  0
 18 19  1  0  0  0  0
 18 43  1  0  0  0  0
 19 22  1  0  0  0  0
 20 45  1  0  0  0  0
 20 46  1  0  0  0  0
 20 47  1  0  0  0  0
 21 23  1  0  0  0  0
 22 25  2  0  0  0  0
 23 24  1  0  0  0  0
 23 48  1  0  0  0  0
 23 49  1  0  0  0  0
 24 26  1  0  0  0  0
 24 50  1  0  0  0  0
 24 51  1  0  0  0  0
 25 27  1  0  0  0  0
 25 52  1  0  0  0  0
 26 29  1  0  0  0  0
 26 53  1  0  0  0  0
 26 54  1  0  0  0  0
 27 28  2  0  0  0  0
 27 55  1  0  0  0  0
 28 56  1  0  0  0  0
M  END
> <PUBCHEM_COMPOUND_CID>
40779355

> <PUBCHEM_CONFORMER_RMSD>
1

> <PUBCHEM_CONFORMER_DIVERSEORDER>
6
53
61
30
27
20
89
16
52
14
84
25
35
68
26
12
9
50
37
31
57
32
23
69
81
39
67
91
56
80
66
24
18
87
60
17
70
77
29
85
8
59
90
19
11
15
83
44
41
79
38
3
74
55
47
76
1
22
36
21
58
45
7
73
42
86
43
72
75
10
28
51
13
40
46
4
49
65
2
33
64
54
48
62
71
34
63
78
5
88
82

> <PUBCHEM_MMFF94_PARTIAL_CHARGES>
31
1 -0.08
10 0.18
11 0.27
14 0.27
15 0.27
16 -0.33
17 0.3
18 -0.15
19 0.29
2 -0.57
20 0.26
21 0.57
22 0.04
23 0.06
25 -0.15
26 0.06
27 -0.15
28 -0.11
29 0.66
3 -0.65
4 -0.57
43 0.15
44 0.37
5 -0.81
52 0.15
55 0.15
56 0.15
57 0.5
6 0.31
7 -0.73
8 -0.71

> <PUBCHEM_EFFECTIVE_ROTOR_COUNT>
10.2

> <PUBCHEM_PHARMACOPHORE_FEATURES>
10
1 2 acceptor
1 3 acceptor
1 4 acceptor
1 5 cation
1 7 donor
1 8 acceptor
3 3 4 29 anion
5 1 22 25 27 28 rings
5 6 8 16 18 19 rings
8 5 9 10 11 12 13 14 15 rings

> <PUBCHEM_HEAVY_ATOM_COUNT>
29

> <PUBCHEM_ATOM_DEF_STEREO_COUNT>
3

> <PUBCHEM_ATOM_UDEF_STEREO_COUNT>
0

> <PUBCHEM_BOND_DEF_STEREO_COUNT>
0

> <PUBCHEM_BOND_UDEF_STEREO_COUNT>
0

> <PUBCHEM_ISOTOPIC_ATOM_COUNT>
0

> <PUBCHEM_COMPONENT_COUNT>
1

> <PUBCHEM_CACTVS_TAUTO_COUNT>
2

> <PUBCHEM_CONFORMER_ID>
026E3E5B00000006

> <PUBCHEM_MMFF94_ENERGY>
46.9212

> <PUBCHEM_FEATURE_SELFOVERLAP>
50.805

> <PUBCHEM_SHAPE_FINGERPRINT>
10670039 82 17764895854383381788
10883706 163 17263837479140914992
11045515 52 17694214878097684111
11273773 118 18042132106558082076
11582403 64 17604415294193427649
11725454 13 17678469558592844115
12156800 1 17617046646934583129
1361 2 18262226743041692989
13761468 95 17546737409782701884
13947920 24 18337098081960613815
19309040 13 17273445831307234313
20600515 1 17466798494510549218
21095088 737 18273214222466192617
22907989 373 16917071070482320511
238 59 18049437050536155689
25019877 29 15620350131032183334
3187 122 17901686069449145891
376196 1 17897155824250722409
4371632 12 18337951195388689169
437795 139 14045462173054616604
469060 322 17679036025866070195
6086070 43 18192997015205328002

> <PUBCHEM_SHAPE_MULTIPOLES>
563.12
10.26
5.67
2.54
9.51
1.91
1.13
-13.17
3.21
-2.28
0.17
-3.05
-1
3.37

> <PUBCHEM_SHAPE_SELFOVERLAP>
1179.475

> <PUBCHEM_SHAPE_VOLUME>
320.3

> <PUBCHEM_COORDINATE_TYPE>
2
5
10

$$$$
