11912447
  -OEChem-12032416113D

 63 64  0     1  0  0  0  0  0999 V2000
    0.7688   -0.5838    2.3269 O   0  0  0  0  0  0  0  0  0  0  0  0
   -5.5805    1.1836   -1.2895 O   0  0  0  0  0  0  0  0  0  0  0  0
    6.6185   -0.0157   -1.7150 O   0  0  0  0  0  0  0  0  0  0  0  0
    6.8650    0.2999    0.5602 O   0  0  0  0  0  0  0  0  0  0  0  0
   -3.6340    0.2045   -0.4797 N   0  0  0  0  0  0  0  0  0  0  0  0
    2.1767   -0.9175    0.5093 N   0  0  0  0  0  0  0  0  0  0  0  0
   -1.1966    0.6927    1.0672 C   0  0  1  0  0  0  0  0  0  0  0  0
   -2.0136    1.8437    0.4289 C   0  0  2  0  0  0  0  0  0  0  0  0
   -2.1269   -0.5030    1.3418 C   0  0  0  0  0  0  0  0  0  0  0  0
   -2.8032    1.3681   -0.8000 C   0  0  0  0  0  0  0  0  0  0  0  0
   -2.9134   -0.9324    0.1046 C   0  0  0  0  0  0  0  0  0  0  0  0
    0.0222    0.2611    0.2435 C   0  0  0  0  0  0  0  0  0  0  0  0
   -1.1601    3.0626    0.0810 C   0  0  0  0  0  0  0  0  0  0  0  0
    1.0165   -0.4503    1.1257 C   0  0  0  0  0  0  0  0  0  0  0  0
   -4.9925    0.2165   -0.7983 C   0  0  0  0  0  0  0  0  0  0  0  0
   -5.7662   -1.0456   -0.5109 C   0  0  0  0  0  0  0  0  0  0  0  0
    3.1726   -1.6527    1.2915 C   0  0  0  0  0  0  0  0  0  0  0  0
    2.4989   -0.7736   -0.9159 C   0  0  0  0  0  0  0  0  0  0  0  0
    4.9484   -0.8628   -0.3150 C   0  0  0  0  0  0  0  0  0  0  0  0
   -0.3761    3.5422    1.2841 C   0  0  0  0  0  0  0  0  0  0  0  0
    4.5520   -1.0132    1.1563 C   0  0  0  0  0  0  0  0  0  0  0  0
    3.8651   -0.1153   -1.0973 C   0  0  0  0  0  0  0  0  0  0  0  0
   -5.6692   -1.3245    0.9896 C   0  0  0  0  0  0  0  0  0  0  0  0
   -5.1491   -2.1948   -1.3098 C   0  0  0  0  0  0  0  0  0  0  0  0
   -7.2242   -0.8348   -0.9226 C   0  0  0  0  0  0  0  0  0  0  0  0
    6.2491   -0.1266   -0.4072 C   0  0  0  0  0  0  0  0  0  0  0  0
    7.8517    0.6716   -1.9495 C   0  0  0  0  0  0  0  0  0  0  0  0
   -0.8654    1.0532    2.0497 H   0  0  0  0  0  0  0  0  0  0  0  0
   -2.7541    2.1606    1.1789 H   0  0  0  0  0  0  0  0  0  0  0  0
   -1.5696   -1.3623    1.7297 H   0  0  0  0  0  0  0  0  0  0  0  0
   -2.8345   -0.2149    2.1300 H   0  0  0  0  0  0  0  0  0  0  0  0
   -3.4234    2.1850   -1.1841 H   0  0  0  0  0  0  0  0  0  0  0  0
   -2.1272    1.0701   -1.6106 H   0  0  0  0  0  0  0  0  0  0  0  0
   -2.2306   -1.2932   -0.6734 H   0  0  0  0  0  0  0  0  0  0  0  0
   -3.4967   -1.7961    0.3804 H   0  0  0  0  0  0  0  0  0  0  0  0
   -0.2610   -0.3890   -0.5882 H   0  0  0  0  0  0  0  0  0  0  0  0
    0.5484    1.1269   -0.1652 H   0  0  0  0  0  0  0  0  0  0  0  0
   -0.4890    2.8723   -0.7631 H   0  0  0  0  0  0  0  0  0  0  0  0
   -1.8240    3.8741   -0.2438 H   0  0  0  0  0  0  0  0  0  0  0  0
    2.8867   -1.6947    2.3472 H   0  0  0  0  0  0  0  0  0  0  0  0
    3.1887   -2.6826    0.9156 H   0  0  0  0  0  0  0  0  0  0  0  0
    2.5010   -1.7809   -1.3493 H   0  0  0  0  0  0  0  0  0  0  0  0
    1.7479   -0.1940   -1.4547 H   0  0  0  0  0  0  0  0  0  0  0  0
    5.0977   -1.8637   -0.7405 H   0  0  0  0  0  0  0  0  0  0  0  0
    0.4340    2.8595    1.5550 H   0  0  0  0  0  0  0  0  0  0  0  0
    0.0873    4.5092    1.0601 H   0  0  0  0  0  0  0  0  0  0  0  0
   -1.0233    3.6816    2.1561 H   0  0  0  0  0  0  0  0  0  0  0  0
    5.2917   -1.6199    1.6926 H   0  0  0  0  0  0  0  0  0  0  0  0
    4.5336   -0.0295    1.6448 H   0  0  0  0  0  0  0  0  0  0  0  0
    3.8145    0.9276   -0.7570 H   0  0  0  0  0  0  0  0  0  0  0  0
    4.1073   -0.0852   -2.1662 H   0  0  0  0  0  0  0  0  0  0  0  0
   -5.2774   -2.3152    1.2434 H   0  0  0  0  0  0  0  0  0  0  0  0
   -5.1213   -0.5663    1.5584 H   0  0  0  0  0  0  0  0  0  0  0  0
   -6.6732   -1.3183    1.4362 H   0  0  0  0  0  0  0  0  0  0  0  0
   -4.8035   -3.0347   -0.6982 H   0  0  0  0  0  0  0  0  0  0  0  0
   -4.3298   -1.8877   -1.9694 H   0  0  0  0  0  0  0  0  0  0  0  0
   -5.8969   -2.6373   -1.9815 H   0  0  0  0  0  0  0  0  0  0  0  0
   -7.8221   -1.7316   -0.7217 H   0  0  0  0  0  0  0  0  0  0  0  0
   -7.3151   -0.6130   -1.9928 H   0  0  0  0  0  0  0  0  0  0  0  0
   -7.6854   -0.0043   -0.3747 H   0  0  0  0  0  0  0  0  0  0  0  0
    8.0305    0.6907   -3.0277 H   0  0  0  0  0  0  0  0  0  0  0  0
    8.6782    0.1423   -1.4656 H   0  0  0  0  0  0  0  0  0  0  0  0
    7.7860    1.7015   -1.5859 H   0  0  0  0  0  0  0  0  0  0  0  0
  1 14  2  0  0  0  0
  2 15  2  0  0  0  0
  3 26  1  0  0  0  0
  3 27  1  0  0  0  0
  4 26  2  0  0  0  0
  5 10  1  0  0  0  0
  5 11  1  0  0  0  0
  5 15  1  0  0  0  0
  6 14  1  0  0  0  0
  6 17  1  0  0  0  0
  6 18  1  0  0  0  0
  7  8  1  0  0  0  0
  7  9  1  0  0  0  0
  7 12  1  0  0  0  0
  7 28  1  0  0  0  0
  8 10  1  0  0  0  0
  8 13  1  0  0  0  0
  8 29  1  0  0  0  0
  9 11  1  0  0  0  0
  9 30  1  0  0  0  0
  9 31  1  0  0  0  0
 10 32  1  0  0  0  0
 10 33  1  0  0  0  0
 11 34  1  0  0  0  0
 11 35  1  0  0  0  0
 12 14  1  0  0  0  0
 12 36  1  0  0  0  0
 12 37  1  0  0  0  0
 13 20  1  0  0  0  0
 13 38  1  0  0  0  0
 13 39  1  0  0  0  0
 15 16  1  0  0  0  0
 16 23  1  0  0  0  0
 16 24  1  0  0  0  0
 16 25  1  0  0  0  0
 17 21  1  0  0  0  0
 17 40  1  0  0  0  0
 17 41  1  0  0  0  0
 18 22  1  0  0  0  0
 18 42  1  0  0  0  0
 18 43  1  0  0  0  0
 19 21  1  0  0  0  0
 19 22  1  0  0  0  0
 19 26  1  0  0  0  0
 19 44  1  0  0  0  0
 20 45  1  0  0  0  0
 20 46  1  0  0  0  0
 20 47  1  0  0  0  0
 21 48  1  0  0  0  0
 21 49  1  0  0  0  0
 22 50  1  0  0  0  0
 22 51  1  0  0  0  0
 23 52  1  0  0  0  0
 23 53  1  0  0  0  0
 23 54  1  0  0  0  0
 24 55  1  0  0  0  0
 24 56  1  0  0  0  0
 24 57  1  0  0  0  0
 25 58  1  0  0  0  0
 25 59  1  0  0  0  0
 25 60  1  0  0  0  0
 27 61  1  0  0  0  0
 27 62  1  0  0  0  0
 27 63  1  0  0  0  0
M  END
> <PUBCHEM_COMPOUND_CID>
11912447

> <PUBCHEM_CONFORMER_RMSD>
1

> <PUBCHEM_CONFORMER_DIVERSEORDER>
1
106
15
119
104
140
154
71
53
44
77
97
132
31
100
115
42
123
2
43
118
76
95
138
12
157
144
23
139
39
162
91
151
93
126
161
64
111
160
29
58
57
33
99
61
11
159
85
62
113
114
51
79
155
4
28
48
21
50
152
134
83
121
122
105
17
9
89
101
90
163
35
94
137
145
66
92
30
146
150
78
55
158
117
148
18
24
120
68
80
63
102
129
56
142
86
127
3
147
60
7
109
143
73
46
27
75
88
130
52
108
74
96
36
82
59
128
112
45
84
32
141
13
69
10
87
41
54
156
149
37
125
47
65
16
6
135
131
67
19
72
49
153
34
107
20
25
40
116
14
81
103
22
136
110
26
124
70
98
5
133
38
8

> <PUBCHEM_MMFF94_PARTIAL_CHARGES>
17
1 -0.57
10 0.3
11 0.3
12 0.06
14 0.57
15 0.57
16 0.06
17 0.3
18 0.3
19 0.06
2 -0.57
26 0.66
27 0.28
3 -0.43
4 -0.57
5 -0.66
6 -0.66

> <PUBCHEM_EFFECTIVE_ROTOR_COUNT>
10.4

> <PUBCHEM_PHARMACOPHORE_FEATURES>
7
1 1 acceptor
1 2 acceptor
1 20 hydrophobe
1 4 acceptor
4 16 23 24 25 hydrophobe
6 5 7 8 9 10 11 rings
6 6 17 18 19 21 22 rings

> <PUBCHEM_HEAVY_ATOM_COUNT>
27

> <PUBCHEM_ATOM_DEF_STEREO_COUNT>
2

> <PUBCHEM_ATOM_UDEF_STEREO_COUNT>
0

> <PUBCHEM_BOND_DEF_STEREO_COUNT>
0

> <PUBCHEM_BOND_UDEF_STEREO_COUNT>
0

> <PUBCHEM_ISOTOPIC_ATOM_COUNT>
0

> <PUBCHEM_COMPONENT_COUNT>
1

> <PUBCHEM_CACTVS_TAUTO_COUNT>
1

> <PUBCHEM_CONFORMER_ID>
00B5C4FF00000001

> <PUBCHEM_MMFF94_ENERGY>
78.0133

> <PUBCHEM_FEATURE_SELFOVERLAP>
35.522

> <PUBCHEM_SHAPE_FINGERPRINT>
10076449 9 17968106365136334803
10299344 5 13973966515183305830
10305334 12 12247674972411178765
10319926 262 8142072174394620876
10595046 47 17968091980351752590
10692045 39 8069761710026139120
11089746 13 12107790730510580446
11135609 201 13551736385576262693
11387372 6 15195282049489988165
12166972 35 18040155132325645732
12236239 1 17894907391137743034
12516196 113 18272366486015749961
12788726 201 18338231562099703305
13673619 4 16774078458108645600
13782708 43 17274823502708320398
13914758 101 15068611670076904616
14251732 14 18343018887155864272
14347424 109 9655571903920104990
14466204 15 8646496240946522415
14556957 393 18261686908090478084
14674994 50 17417245593001420351
14767858 380 18187081767174934378
14931854 50 18186805760087107276
15064986 96 8862675607008190532
15183329 4 17095239220149249895
15461852 350 18411700968492716062
15537594 2 17632287969623773927
16994733 274 15357969020151889101
1813 80 18060421322396234625
19427546 20 18338235951768126941
20157964 124 16732983107499129362
20511986 3 17531514430413353378
20554085 129 12035722133030217101
20567600 254 10809335655591783435
21049683 271 18187929521169269381
21120745 212 18201162048825374657
21150785 3 18259984889881115086
21267235 1 14764352635085729810
21298829 104 17022624139425094468
21344244 246 18121499325967753973
21365058 113 16988844999384816456
21403212 168 10375879550007293877
21639891 77 11531354116688603229
21756936 100 11891332075974662913
2297311 6 18131634469411950601
23559900 14 18040714822235176777
23622692 88 10952048948529340258
249057 25 18115306658306595592
255183 451 18126836321924342695
2838139 119 14056999438389891687
3004659 81 18408318904172824957
312425 54 9655281602679586756
335352 9 18411691077457418325
34797466 226 17775566464411769352
3633792 109 17313378977337033154
4149490 64 16153705376097629755
4325135 7 18333729121855240982
437815 12 17561360703951415521
46194498 28 17775562053507055136
504579 68 18113908126713660478
513202 73 14548746066541168210
5207 217 18187366545234722818
5385378 56 8285936708569706037
5912855 24 18126853694470832737
6058803 2 17901663765973900800
7237137 82 18261948549366819781
999808 66 14907905968213582038

> <PUBCHEM_SHAPE_MULTIPOLES>
522.21
19.36
2.37
1.7
14.71
2.53
0.12
-6.69
-10.58
-2.23
0.44
1.26
-0.17
-0.88

> <PUBCHEM_SHAPE_SELFOVERLAP>
1058.86

> <PUBCHEM_SHAPE_VOLUME>
302.5

> <PUBCHEM_COORDINATE_TYPE>
2
5
10

$$$$
