56775375
  -OEChem-12032416273D

 41 43  0     1  0  0  0  0  0999 V2000
    0.7838    2.4130   -0.1505 O   0  0  0  0  0  0  0  0  0  0  0  0
   -5.4246   -0.9840   -0.1624 O   0  0  0  0  0  0  0  0  0  0  0  0
    3.7476    1.1159   -1.5470 O   0  0  0  0  0  0  0  0  0  0  0  0
    4.0482   -0.9427    1.3649 O   0  0  0  0  0  0  0  0  0  0  0  0
   -1.4244    0.0711    0.5531 N   0  0  1  0  0  0  0  0  0  0  0  0
    2.1266    0.0121   -0.2938 N   0  0  0  0  0  0  0  0  0  0  0  0
    4.2074   -2.9481    0.2517 N   0  0  0  0  0  0  0  0  0  0  0  0
    0.8853    0.0835    0.4719 C   0  0  1  0  0  0  0  0  0  0  0  0
    0.4641    1.4896    0.8874 C   0  0  2  0  0  0  0  0  0  0  0  0
   -0.3369   -0.3999   -0.3039 C   0  0  0  0  0  0  0  0  0  0  0  0
   -1.0625    1.4227    0.9995 C   0  0  0  0  0  0  0  0  0  0  0  0
   -2.7268    0.0198   -0.1068 C   0  0  0  0  0  0  0  0  0  0  0  0
   -3.8279    0.5734    0.8031 C   0  0  0  0  0  0  0  0  0  0  0  0
   -3.0597   -1.4175   -0.5173 C   0  0  0  0  0  0  0  0  0  0  0  0
    2.7528    1.1378   -0.8206 C   0  0  0  0  0  0  0  0  0  0  0  0
    2.1743    2.4622   -0.3709 C   0  0  0  0  0  0  0  0  0  0  0  0
   -5.1947    0.3893    0.1531 C   0  0  0  0  0  0  0  0  0  0  0  0
   -4.4692   -1.4912   -1.0941 C   0  0  0  0  0  0  0  0  0  0  0  0
    2.6531   -1.3164   -0.5790 C   0  0  0  0  0  0  0  0  0  0  0  0
    3.6835   -1.6904    0.4615 C   0  0  0  0  0  0  0  0  0  0  0  0
    1.0136   -0.5313    1.3740 H   0  0  0  0  0  0  0  0  0  0  0  0
    0.9307    1.8094    1.8264 H   0  0  0  0  0  0  0  0  0  0  0  0
   -0.3696    0.0436   -1.3079 H   0  0  0  0  0  0  0  0  0  0  0  0
   -0.3297   -1.4897   -0.3982 H   0  0  0  0  0  0  0  0  0  0  0  0
   -1.5230    2.2126    0.3934 H   0  0  0  0  0  0  0  0  0  0  0  0
   -1.3725    1.5508    2.0421 H   0  0  0  0  0  0  0  0  0  0  0  0
   -2.7018    0.6360   -1.0176 H   0  0  0  0  0  0  0  0  0  0  0  0
   -3.6867    1.6370    1.0223 H   0  0  0  0  0  0  0  0  0  0  0  0
   -3.8167    0.0330    1.7589 H   0  0  0  0  0  0  0  0  0  0  0  0
   -3.0015   -2.0736    0.3612 H   0  0  0  0  0  0  0  0  0  0  0  0
   -2.3624   -1.8014   -1.2693 H   0  0  0  0  0  0  0  0  0  0  0  0
    2.6954    2.7931    0.5346 H   0  0  0  0  0  0  0  0  0  0  0  0
    2.3580    3.2007   -1.1577 H   0  0  0  0  0  0  0  0  0  0  0  0
   -5.9813    0.7078    0.8445 H   0  0  0  0  0  0  0  0  0  0  0  0
   -5.2892    0.9936   -0.7569 H   0  0  0  0  0  0  0  0  0  0  0  0
   -4.5457   -0.9337   -2.0350 H   0  0  0  0  0  0  0  0  0  0  0  0
   -4.7309   -2.5330   -1.3050 H   0  0  0  0  0  0  0  0  0  0  0  0
    1.8501   -2.0585   -0.5904 H   0  0  0  0  0  0  0  0  0  0  0  0
    3.1406   -1.3141   -1.5602 H   0  0  0  0  0  0  0  0  0  0  0  0
    4.9214   -3.3251    0.8661 H   0  0  0  0  0  0  0  0  0  0  0  0
    3.9008   -3.5433   -0.5112 H   0  0  0  0  0  0  0  0  0  0  0  0
  1  9  1  0  0  0  0
  1 16  1  0  0  0  0
  2 17  1  0  0  0  0
  2 18  1  0  0  0  0
  3 15  2  0  0  0  0
  4 20  2  0  0  0  0
  5 10  1  0  0  0  0
  5 11  1  0  0  0  0
  5 12  1  0  0  0  0
  6  8  1  0  0  0  0
  6 15  1  0  0  0  0
  6 19  1  0  0  0  0
  7 20  1  0  0  0  0
  7 40  1  0  0  0  0
  7 41  1  0  0  0  0
  8  9  1  0  0  0  0
  8 10  1  0  0  0  0
  8 21  1  0  0  0  0
  9 11  1  0  0  0  0
  9 22  1  0  0  0  0
 10 23  1  0  0  0  0
 10 24  1  0  0  0  0
 11 25  1  0  0  0  0
 11 26  1  0  0  0  0
 12 13  1  0  0  0  0
 12 14  1  0  0  0  0
 12 27  1  0  0  0  0
 13 17  1  0  0  0  0
 13 28  1  0  0  0  0
 13 29  1  0  0  0  0
 14 18  1  0  0  0  0
 14 30  1  0  0  0  0
 14 31  1  0  0  0  0
 15 16  1  0  0  0  0
 16 32  1  0  0  0  0
 16 33  1  0  0  0  0
 17 34  1  0  0  0  0
 17 35  1  0  0  0  0
 18 36  1  0  0  0  0
 18 37  1  0  0  0  0
 19 20  1  0  0  0  0
 19 38  1  0  0  0  0
 19 39  1  0  0  0  0
M  END
> <PUBCHEM_COMPOUND_CID>
56775375

> <PUBCHEM_CONFORMER_RMSD>
0.8

> <PUBCHEM_CONFORMER_DIVERSEORDER>
1
41
42
18
24
39
27
19
32
5
34
28
26
10
33
15
35
6
21
20
8
13
38
40
36
16
3
30
12
4
9
31
43
29
37
2
17
7
11
22
25
14
23

> <PUBCHEM_MMFF94_PARTIAL_CHARGES>
20
1 -0.56
10 0.27
11 0.27
12 0.27
15 0.57
16 0.34
17 0.28
18 0.28
19 0.36
2 -0.56
20 0.57
3 -0.57
4 -0.57
40 0.37
41 0.37
5 -0.81
6 -0.66
7 -0.8
8 0.3
9 0.28

> <PUBCHEM_EFFECTIVE_ROTOR_COUNT>
5.4

> <PUBCHEM_PHARMACOPHORE_FEATURES>
9
1 1 acceptor
1 2 acceptor
1 3 acceptor
1 4 acceptor
1 5 cation
1 7 donor
5 5 8 9 10 11 rings
6 1 6 8 9 15 16 rings
6 2 12 13 14 17 18 rings

> <PUBCHEM_HEAVY_ATOM_COUNT>
20

> <PUBCHEM_ATOM_DEF_STEREO_COUNT>
2

> <PUBCHEM_ATOM_UDEF_STEREO_COUNT>
0

> <PUBCHEM_BOND_DEF_STEREO_COUNT>
0

> <PUBCHEM_BOND_UDEF_STEREO_COUNT>
0

> <PUBCHEM_ISOTOPIC_ATOM_COUNT>
0

> <PUBCHEM_COMPONENT_COUNT>
1

> <PUBCHEM_CACTVS_TAUTO_COUNT>
6

> <PUBCHEM_CONFORMER_ID>
036252CF00000001

> <PUBCHEM_MMFF94_ENERGY>
48.3554

> <PUBCHEM_FEATURE_SELFOVERLAP>
45.825

> <PUBCHEM_SHAPE_FINGERPRINT>
10062212 137 18202562882763008855
11265709 11 18337390423062359802
11578080 2 18198603498173540688
12236239 1 18342744013712718612
12293681 160 17625002786041129048
12553582 1 18059587900860851299
12730499 353 18044388337875527009
12788726 201 18059310776623137241
13083527 12 18334565829546832360
13533116 47 18336546109970494379
13675066 3 14764353738802478753
13760787 5 18334582339036854977
14178342 30 17701265724032852490
14252887 29 14980241742608593370
14576447 43 18341897449509123772
15183329 4 18130792248844611485
15250474 111 18200303455125031279
15342816 4 18273221923284285692
15442244 35 18413110533044822665
17349148 13 17775006786780146935
1813 80 18261105223821364114
18186145 218 17022620888282322897
18222031 100 18337391522716724162
18681886 176 17632020865929115852
20281475 54 18341890835876731159
20369508 70 17846495984614338657
20388580 30 18334295327800054330
20612939 158 18259988179904905845
20626108 58 18342444954770925475
20645477 70 18113339716949288690
21756936 100 8501781784726050458
22112679 90 18196386835639680408
221490 88 18263650721999332091
2255824 54 18338800133980815228
23419403 2 18055038061811400712
23557571 272 16702031815989681992
23559900 14 18410571824856832514
23598291 2 18337397054054047393
25147074 1 18267322962171831112
2748010 2 14741273220146059788
3004659 81 18411704270257053935
312423 11 18334585624481361457
5104073 3 18131073775165686627
5281201 14 17531242863978780229
633830 44 17458061565041982665
67856867 119 18341607182877146768
7164475 11 18337111151166846020
7970288 3 18264486183312410810
9971528 1 18411131412204405802
9981440 41 17618493728627738897

> <PUBCHEM_SHAPE_MULTIPOLES>
373.17
10.23
2.46
1.08
8.04
0.13
-0.04
5.18
-0.66
-2.61
-0.07
-0.51
-0.09
-1.71

> <PUBCHEM_SHAPE_SELFOVERLAP>
780.234

> <PUBCHEM_SHAPE_VOLUME>
210.8

> <PUBCHEM_COORDINATE_TYPE>
2
5
10

$$$$
