26742955
  -OEChem-12032416193D

 61 63  0     1  0  0  0  0  0999 V2000
    0.1546   -1.2196   -1.6173 O   0  0  0  0  0  0  0  0  0  0  0  0
    0.9016    3.7979    0.7549 O   0  0  0  0  0  0  0  0  0  0  0  0
    5.4515   -1.0302   -0.6248 N   0  0  0  0  0  0  0  0  0  0  0  0
   -0.3193   -2.7364    0.0722 N   0  0  0  0  0  0  0  0  0  0  0  0
    2.1385    3.2239    1.0223 N   0  0  0  0  0  0  0  0  0  0  0  0
    2.5782   -0.3587   -0.6236 C   0  0  1  0  0  0  0  0  0  0  0  0
    3.6129    0.3927    0.2477 C   0  0  2  0  0  0  0  0  0  0  0  0
    3.2972   -0.9805   -1.8325 C   0  0  0  0  0  0  0  0  0  0  0  0
    4.8237   -0.4943    0.5835 C   0  0  0  0  0  0  0  0  0  0  0  0
    3.0079    0.9811    1.5230 C   0  0  0  0  0  0  0  0  0  0  0  0
    4.5115   -1.8133   -1.4240 C   0  0  0  0  0  0  0  0  0  0  0  0
    1.7744   -1.4194    0.1379 C   0  0  0  0  0  0  0  0  0  0  0  0
    1.8839    1.9258    1.2097 C   0  0  0  0  0  0  0  0  0  0  0  0
    0.4709   -1.7701   -0.5593 C   0  0  0  0  0  0  0  0  0  0  0  0
    0.5175    1.6250    1.0746 C   0  0  0  0  0  0  0  0  0  0  0  0
   -0.0557    2.8358    0.7889 C   0  0  0  0  0  0  0  0  0  0  0  0
   -1.5998   -3.1800   -0.4739 C   0  0  0  0  0  0  0  0  0  0  0  0
    0.0754   -3.3734    1.3225 C   0  0  0  0  0  0  0  0  0  0  0  0
   -1.4324    3.2718    0.5260 C   0  0  0  0  0  0  0  0  0  0  0  0
   -1.9155    2.9240   -0.9001 C   0  0  0  0  0  0  0  0  0  0  0  0
   -2.7382   -2.3200   -0.0063 C   0  0  0  0  0  0  0  0  0  0  0  0
   -3.3335    3.4225   -1.1778 C   0  0  0  0  0  0  0  0  0  0  0  0
   -3.4225   -2.6454    1.1648 C   0  0  0  0  0  0  0  0  0  0  0  0
   -3.1115   -1.1959   -0.7428 C   0  0  0  0  0  0  0  0  0  0  0  0
   -3.7683    3.1029   -2.5993 C   0  0  0  0  0  0  0  0  0  0  0  0
   -4.4803   -1.8466    1.5994 C   0  0  0  0  0  0  0  0  0  0  0  0
   -4.1692   -0.3971   -0.3083 C   0  0  0  0  0  0  0  0  0  0  0  0
   -4.8536   -0.7224    0.8628 C   0  0  0  0  0  0  0  0  0  0  0  0
    1.8854    0.3871   -1.0336 H   0  0  0  0  0  0  0  0  0  0  0  0
    3.9893    1.2317   -0.3585 H   0  0  0  0  0  0  0  0  0  0  0  0
    3.6309   -0.1722   -2.4974 H   0  0  0  0  0  0  0  0  0  0  0  0
    2.6157   -1.6001   -2.4256 H   0  0  0  0  0  0  0  0  0  0  0  0
    5.5712    0.0989    1.1228 H   0  0  0  0  0  0  0  0  0  0  0  0
    4.5313   -1.3158    1.2494 H   0  0  0  0  0  0  0  0  0  0  0  0
    3.7872    1.5378    2.0622 H   0  0  0  0  0  0  0  0  0  0  0  0
    2.6755    0.2100    2.2256 H   0  0  0  0  0  0  0  0  0  0  0  0
    4.2125   -2.7174   -0.8827 H   0  0  0  0  0  0  0  0  0  0  0  0
    5.0260   -2.1516   -2.3306 H   0  0  0  0  0  0  0  0  0  0  0  0
    1.5019   -1.0770    1.1364 H   0  0  0  0  0  0  0  0  0  0  0  0
    2.3692   -2.3308    0.2481 H   0  0  0  0  0  0  0  0  0  0  0  0
    6.2423   -1.6176   -0.3619 H   0  0  0  0  0  0  0  0  0  0  0  0
    0.0061    0.6809    1.1802 H   0  0  0  0  0  0  0  0  0  0  0  0
   -1.7686   -4.2333   -0.2192 H   0  0  0  0  0  0  0  0  0  0  0  0
   -1.5426   -3.1387   -1.5690 H   0  0  0  0  0  0  0  0  0  0  0  0
   -0.6340   -3.0820    2.1023 H   0  0  0  0  0  0  0  0  0  0  0  0
    1.0751   -3.1244    1.6727 H   0  0  0  0  0  0  0  0  0  0  0  0
    0.0344   -4.4594    1.1903 H   0  0  0  0  0  0  0  0  0  0  0  0
   -2.1052    2.8034    1.2550 H   0  0  0  0  0  0  0  0  0  0  0  0
   -1.5164    4.3549    0.6793 H   0  0  0  0  0  0  0  0  0  0  0  0
   -1.8703    1.8376   -1.0464 H   0  0  0  0  0  0  0  0  0  0  0  0
   -1.2247    3.3655   -1.6303 H   0  0  0  0  0  0  0  0  0  0  0  0
   -4.0337    2.9644   -0.4703 H   0  0  0  0  0  0  0  0  0  0  0  0
   -3.3821    4.5066   -1.0236 H   0  0  0  0  0  0  0  0  0  0  0  0
   -3.1442   -3.5203    1.7462 H   0  0  0  0  0  0  0  0  0  0  0  0
   -2.5928   -0.9315   -1.6600 H   0  0  0  0  0  0  0  0  0  0  0  0
   -3.1139    3.5919   -3.3280 H   0  0  0  0  0  0  0  0  0  0  0  0
   -4.7904    3.4548   -2.7710 H   0  0  0  0  0  0  0  0  0  0  0  0
   -3.7437    2.0248   -2.7867 H   0  0  0  0  0  0  0  0  0  0  0  0
   -5.0138   -2.1004    2.5107 H   0  0  0  0  0  0  0  0  0  0  0  0
   -4.4661    0.4730   -0.8846 H   0  0  0  0  0  0  0  0  0  0  0  0
   -5.6783   -0.1012    1.2000 H   0  0  0  0  0  0  0  0  0  0  0  0
  1 14  2  0  0  0  0
  2  5  1  0  0  0  0
  2 16  1  0  0  0  0
  3  9  1  0  0  0  0
  3 11  1  0  0  0  0
  3 41  1  0  0  0  0
  4 14  1  0  0  0  0
  4 17  1  0  0  0  0
  4 18  1  0  0  0  0
  5 13  2  0  0  0  0
  6  7  1  0  0  0  0
  6  8  1  0  0  0  0
  6 12  1  0  0  0  0
  6 29  1  0  0  0  0
  7  9  1  0  0  0  0
  7 10  1  0  0  0  0
  7 30  1  0  0  0  0
  8 11  1  0  0  0  0
  8 31  1  0  0  0  0
  8 32  1  0  0  0  0
  9 33  1  0  0  0  0
  9 34  1  0  0  0  0
 10 13  1  0  0  0  0
 10 35  1  0  0  0  0
 10 36  1  0  0  0  0
 11 37  1  0  0  0  0
 11 38  1  0  0  0  0
 12 14  1  0  0  0  0
 12 39  1  0  0  0  0
 12 40  1  0  0  0  0
 13 15  1  0  0  0  0
 15 16  2  0  0  0  0
 15 42  1  0  0  0  0
 16 19  1  0  0  0  0
 17 21  1  0  0  0  0
 17 43  1  0  0  0  0
 17 44  1  0  0  0  0
 18 45  1  0  0  0  0
 18 46  1  0  0  0  0
 18 47  1  0  0  0  0
 19 20  1  0  0  0  0
 19 48  1  0  0  0  0
 19 49  1  0  0  0  0
 20 22  1  0  0  0  0
 20 50  1  0  0  0  0
 20 51  1  0  0  0  0
 21 23  2  0  0  0  0
 21 24  1  0  0  0  0
 22 25  1  0  0  0  0
 22 52  1  0  0  0  0
 22 53  1  0  0  0  0
 23 26  1  0  0  0  0
 23 54  1  0  0  0  0
 24 27  2  0  0  0  0
 24 55  1  0  0  0  0
 25 56  1  0  0  0  0
 25 57  1  0  0  0  0
 25 58  1  0  0  0  0
 26 28  2  0  0  0  0
 26 59  1  0  0  0  0
 27 28  1  0  0  0  0
 27 60  1  0  0  0  0
 28 61  1  0  0  0  0
M  END
> <PUBCHEM_COMPOUND_CID>
26742955

> <PUBCHEM_CONFORMER_RMSD>
1.4

> <PUBCHEM_CONFORMER_DIVERSEORDER>
1
19
51
128
94
100
69
22
10
18
33
9
45
50
3
111
73
53
26
11
28
60
102
42
77
61
87
21
129
88
113
125
124
63
85
4
8
36
89
112
104
32
38
107
56
79
127
80
29
46
54
27
93
101
96
70
14
92
119
86
13
47
122
71
82
116
44
78
115
126
75
5
41
67
118
12
109
110
72
99
6
84
114
52
90
103
31
16
20
117
76
62
68
91
23
35
24
121
15
83
64
55
30
74
66
39
48
40
57
120
59
108
7
81
17
97
58
106
105
98
49
43
123
2
34
65
37
95
25

> <PUBCHEM_MMFF94_PARTIAL_CHARGES>
29
1 -0.57
10 0.18
11 0.27
12 0.06
13 0.11
14 0.57
15 -0.15
16 -0.04
17 0.44
18 0.3
19 0.18
2 -0.02
21 -0.14
23 -0.15
24 -0.15
26 -0.15
27 -0.15
28 -0.15
3 -0.9
4 -0.66
41 0.36
42 0.15
5 -0.41
54 0.15
55 0.15
59 0.15
60 0.15
61 0.15
9 0.27

> <PUBCHEM_EFFECTIVE_ROTOR_COUNT>
11.2

> <PUBCHEM_PHARMACOPHORE_FEATURES>
8
1 1 acceptor
1 25 hydrophobe
1 3 cation
1 3 donor
1 5 acceptor
5 2 5 13 15 16 rings
6 21 23 24 26 27 28 rings
6 3 6 7 8 9 11 rings

> <PUBCHEM_HEAVY_ATOM_COUNT>
28

> <PUBCHEM_ATOM_DEF_STEREO_COUNT>
2

> <PUBCHEM_ATOM_UDEF_STEREO_COUNT>
0

> <PUBCHEM_BOND_DEF_STEREO_COUNT>
0

> <PUBCHEM_BOND_UDEF_STEREO_COUNT>
0

> <PUBCHEM_ISOTOPIC_ATOM_COUNT>
0

> <PUBCHEM_COMPONENT_COUNT>
1

> <PUBCHEM_CACTVS_TAUTO_COUNT>
1

> <PUBCHEM_CONFORMER_ID>
019810AB00000001

> <PUBCHEM_MMFF94_ENERGY>
42.8701

> <PUBCHEM_FEATURE_SELFOVERLAP>
40.596

> <PUBCHEM_SHAPE_FINGERPRINT>
10688039 33 18334863860757078377
108634 29 18128251191008745836
11421498 54 17749113300430446306
11513181 2 17558282178314391783
12293681 25 16912868557153767654
12633257 1 17976522120828138194
12645989 146 18201720664856016574
12788726 201 18338249184868106618
13122387 1 17547854053971067857
13402501 40 18413107234815790469
14725015 67 18335973247116152539
1601671 61 17984707972534059736
16067689 391 17197428732936861262
20567600 299 17557426783979594536
20764821 26 17977928113175138697
22182313 1 18272640247595544856
23536364 44 18125454016058404246
3052486 1 18336823083641702160
3493558 16 17535204555119720556
404807 78 18041003904321557541
4409770 3 18338802195507251063
463206 1 17764870195678601448
469060 322 17969527947328519497
5081480 168 17337643166967699782
508706 21 18336537262179219509
7226269 152 18408604781934567266

> <PUBCHEM_SHAPE_MULTIPOLES>
549.55
9.61
5.51
1.8
2.22
3.37
-0.57
-2.8
-1.25
-4.42
0.27
-0.38
0.6
3.79

> <PUBCHEM_SHAPE_SELFOVERLAP>
1133.537

> <PUBCHEM_SHAPE_VOLUME>
314.3

> <PUBCHEM_COORDINATE_TYPE>
2
5
10

$$$$
