51137876
  -OEChem-12032416203D

 51 54  0     1  0  0  0  0  0999 V2000
    7.7197   -0.4107    0.2335 O   0  0  0  0  0  0  0  0  0  0  0  0
   -5.2990   -3.1711    0.0718 O   0  0  0  0  0  0  0  0  0  0  0  0
    1.7249    0.8628    0.7313 N   0  0  1  0  0  0  0  0  0  0  0  0
    5.5031   -0.6375   -0.4246 N   0  0  0  0  0  0  0  0  0  0  0  0
   -2.8059    2.0581   -0.2709 N   0  0  0  0  0  0  0  0  0  0  0  0
   -2.3880   -0.0375    0.3400 N   0  0  0  0  0  0  0  0  0  0  0  0
   -3.1592   -2.5989    0.6657 N   0  0  0  0  0  0  0  0  0  0  0  0
    2.7641   -0.0832    0.3320 C   0  0  0  0  0  0  0  0  0  0  0  0
   -0.4925    1.6140    0.5957 C   0  0  2  0  0  0  0  0  0  0  0  0
    0.5931    0.8747   -0.1979 C   0  0  0  0  0  0  0  0  0  0  0  0
    1.1418    0.5334    2.0319 C   0  0  0  0  0  0  0  0  0  0  0  0
   -0.1111    1.3990    2.0707 C   0  0  0  0  0  0  0  0  0  0  0  0
    3.3034    0.2823   -1.0570 C   0  0  0  0  0  0  0  0  0  0  0  0
    3.8989   -0.0854    1.3642 C   0  0  0  0  0  0  0  0  0  0  0  0
    4.4580   -0.6367   -1.4559 C   0  0  0  0  0  0  0  0  0  0  0  0
    5.0405   -0.9971    0.9175 C   0  0  0  0  0  0  0  0  0  0  0  0
   -1.8916    1.1744    0.2309 C   0  0  0  0  0  0  0  0  0  0  0  0
    6.8535   -0.3684   -0.6442 C   0  0  0  0  0  0  0  0  0  0  0  0
   -3.9699    1.3707   -0.5012 C   0  0  0  0  0  0  0  0  0  0  0  0
   -3.6836    0.0651   -0.1119 C   0  0  0  0  0  0  0  0  0  0  0  0
    7.2495   -0.0030   -2.0525 C   0  0  0  0  0  0  0  0  0  0  0  0
   -4.6827   -0.9168   -0.2209 C   0  0  0  0  0  0  0  0  0  0  0  0
   -5.2107    1.7666   -1.0013 C   0  0  0  0  0  0  0  0  0  0  0  0
   -5.9362   -0.5420   -0.7204 C   0  0  0  0  0  0  0  0  0  0  0  0
   -6.1935    0.7764   -1.1032 C   0  0  0  0  0  0  0  0  0  0  0  0
   -4.4265   -2.2891    0.1766 C   0  0  0  0  0  0  0  0  0  0  0  0
    2.3471   -1.0997    0.2804 H   0  0  0  0  0  0  0  0  0  0  0  0
   -0.4008    2.6902    0.3881 H   0  0  0  0  0  0  0  0  0  0  0  0
    0.2719   -0.1420   -0.4609 H   0  0  0  0  0  0  0  0  0  0  0  0
    0.8120    1.4204   -1.1220 H   0  0  0  0  0  0  0  0  0  0  0  0
    1.7941    0.7860    2.8733 H   0  0  0  0  0  0  0  0  0  0  0  0
    0.8632   -0.5260    2.1010 H   0  0  0  0  0  0  0  0  0  0  0  0
    0.1136    2.3684    2.5332 H   0  0  0  0  0  0  0  0  0  0  0  0
   -0.9037    0.9258    2.6600 H   0  0  0  0  0  0  0  0  0  0  0  0
    2.5293    0.1941   -1.8272 H   0  0  0  0  0  0  0  0  0  0  0  0
    3.6554    1.3226   -1.0620 H   0  0  0  0  0  0  0  0  0  0  0  0
    4.2855    0.9335    1.5001 H   0  0  0  0  0  0  0  0  0  0  0  0
    3.5563   -0.4398    2.3424 H   0  0  0  0  0  0  0  0  0  0  0  0
    4.1054   -1.6699   -1.5590 H   0  0  0  0  0  0  0  0  0  0  0  0
    4.8443   -0.3303   -2.4296 H   0  0  0  0  0  0  0  0  0  0  0  0
    5.8606   -0.9419    1.6403 H   0  0  0  0  0  0  0  0  0  0  0  0
    4.7068   -2.0410    0.8800 H   0  0  0  0  0  0  0  0  0  0  0  0
   -2.6549    3.0432   -0.4431 H   0  0  0  0  0  0  0  0  0  0  0  0
    8.3260    0.1909   -2.0891 H   0  0  0  0  0  0  0  0  0  0  0  0
    7.0289   -0.8290   -2.7338 H   0  0  0  0  0  0  0  0  0  0  0  0
    6.7292    0.9053   -2.3679 H   0  0  0  0  0  0  0  0  0  0  0  0
   -5.4080    2.7906   -1.2977 H   0  0  0  0  0  0  0  0  0  0  0  0
   -6.7362   -1.2723   -0.8197 H   0  0  0  0  0  0  0  0  0  0  0  0
   -7.1760    1.0394   -1.4875 H   0  0  0  0  0  0  0  0  0  0  0  0
   -2.9401   -3.5489    0.9477 H   0  0  0  0  0  0  0  0  0  0  0  0
   -2.4102   -1.9233    0.7660 H   0  0  0  0  0  0  0  0  0  0  0  0
  1 18  2  0  0  0  0
  2 26  2  0  0  0  0
  3  8  1  0  0  0  0
  3 10  1  0  0  0  0
  3 11  1  0  0  0  0
  4 15  1  0  0  0  0
  4 16  1  0  0  0  0
  4 18  1  0  0  0  0
  5 17  1  0  0  0  0
  5 19  1  0  0  0  0
  5 43  1  0  0  0  0
  6 17  2  0  0  0  0
  6 20  1  0  0  0  0
  7 26  1  0  0  0  0
  7 50  1  0  0  0  0
  7 51  1  0  0  0  0
  8 13  1  0  0  0  0
  8 14  1  0  0  0  0
  8 27  1  0  0  0  0
  9 10  1  0  0  0  0
  9 12  1  0  0  0  0
  9 17  1  0  0  0  0
  9 28  1  0  0  0  0
 10 29  1  0  0  0  0
 10 30  1  0  0  0  0
 11 12  1  0  0  0  0
 11 31  1  0  0  0  0
 11 32  1  0  0  0  0
 12 33  1  0  0  0  0
 12 34  1  0  0  0  0
 13 15  1  0  0  0  0
 13 35  1  0  0  0  0
 13 36  1  0  0  0  0
 14 16  1  0  0  0  0
 14 37  1  0  0  0  0
 14 38  1  0  0  0  0
 15 39  1  0  0  0  0
 15 40  1  0  0  0  0
 16 41  1  0  0  0  0
 16 42  1  0  0  0  0
 18 21  1  0  0  0  0
 19 20  1  0  0  0  0
 19 23  2  0  0  0  0
 20 22  2  0  0  0  0
 21 44  1  0  0  0  0
 21 45  1  0  0  0  0
 21 46  1  0  0  0  0
 22 24  1  0  0  0  0
 22 26  1  0  0  0  0
 23 25  1  0  0  0  0
 23 47  1  0  0  0  0
 24 25  2  0  0  0  0
 24 48  1  0  0  0  0
 25 49  1  0  0  0  0
M  END
> <PUBCHEM_COMPOUND_CID>
51137876

> <PUBCHEM_CONFORMER_RMSD>
0.8

> <PUBCHEM_CONFORMER_DIVERSEORDER>
1
136
67
82
64
57
92
137
104
155
108
53
117
151
51
69
83
156
47
160
84
143
91
154
142
38
138
62
93
148
48
149
109
86
144
70
56
145
35
111
119
87
105
85
150
15
80
43
152
107
21
73
63
124
98
115
68
146
60
54
18
90
159
8
81
114
25
78
22
116
30
66
44
31
27
128
141
153
94
96
126
71
89
120
34
103
110
140
76
24
41
28
106
42
131
139
3
5
75
102
112
23
11
121
46
33
127
32
39
58
20
50
88
123
36
125
158
16
99
72
65
147
118
74
14
17
97
37
135
9
19
59
101
10
26
79
113
4
157
40
12
132
122
134
45
77
133
13
29
7
130
100
49
55
95
61
2
6
129
52

> <PUBCHEM_MMFF94_PARTIAL_CHARGES>
29
1 -0.57
10 0.27
11 0.27
15 0.3
16 0.3
17 0.01
18 0.57
19 -0.15
2 -0.57
20 0.23
21 0.06
22 0.09
23 -0.15
24 -0.15
25 -0.15
26 0.54
3 -0.81
4 -0.66
43 0.27
47 0.15
48 0.15
49 0.15
5 0.03
50 0.37
51 0.37
6 -0.57
7 -0.8
8 0.27
9 0.18

> <PUBCHEM_EFFECTIVE_ROTOR_COUNT>
6.2

> <PUBCHEM_PHARMACOPHORE_FEATURES>
10
1 1 acceptor
1 2 acceptor
1 3 cation
1 5 donor
1 7 donor
3 5 6 17 cation
5 3 9 10 11 12 rings
5 5 6 17 19 20 rings
6 19 20 22 23 24 25 rings
6 4 8 13 14 15 16 rings

> <PUBCHEM_HEAVY_ATOM_COUNT>
26

> <PUBCHEM_ATOM_DEF_STEREO_COUNT>
1

> <PUBCHEM_ATOM_UDEF_STEREO_COUNT>
0

> <PUBCHEM_BOND_DEF_STEREO_COUNT>
0

> <PUBCHEM_BOND_UDEF_STEREO_COUNT>
0

> <PUBCHEM_ISOTOPIC_ATOM_COUNT>
0

> <PUBCHEM_COMPONENT_COUNT>
1

> <PUBCHEM_CACTVS_TAUTO_COUNT>
12

> <PUBCHEM_CONFORMER_ID>
030C4D5400000001

> <PUBCHEM_MMFF94_ENERGY>
50.6107

> <PUBCHEM_FEATURE_SELFOVERLAP>
50.854

> <PUBCHEM_SHAPE_FINGERPRINT>
10674148 151 18272087176435981521
11135609 99 18270111298528844958
11315181 36 17704070694671434249
11393246 34 17916860344210863503
11524674 6 17560795542195813031
11796584 16 18412259515070775027
12236239 1 17386002836636829424
12516196 113 16845566504933741216
12643181 29 18412822486847387239
12760667 363 17275105020381294769
13103583 49 13470685953604476992
13257819 101 12179838411726819778
13402501 40 18131070445991369503
13673619 4 18131069350837915177
13685833 64 17132111342402302973
13690498 29 18187364385277694583
13911987 19 13912314703649063017
14251751 18 18341050804117952775
14617045 38 18410855443703050051
150020 25 18343584054172571676
15183329 4 18040713653951012861
15361156 5 18131064965803036253
15461852 350 18334863810499300734
15510800 12 17988646341417338679
16120349 21 18339087099102604483
17870717 6 18411417302734420813
1813 80 15841561785704288904
18681886 176 18335135427740362768
193927 3 17846787312013807240
20281389 69 10809348845409897918
21033648 144 13840263684720886065
21054139 6 18187365437465690810
21150785 3 17675926495055035068
21223535 225 15430024431597409703
21267235 1 15841551843703836940
21307412 95 18340475782119641703
21623969 137 17132117940025769622
220451 1 18187927244255977160
22288116 15 17531257196121467090
23198884 109 17240203222659312797
23559900 14 18339632447488762201
23569943 247 15194456200662352046
249057 3 18259983769501579005
2838139 119 15574714694741024734
3004659 81 18335135405964865296
335352 9 18336257986837830725
3663271 9 12391508681436083678
4107672 100 18186517679682875517
437815 12 17775281673203387273
44062 13 18410569630846267615
484985 159 18202010936869514243
504843 32 14490768887450082544
5265222 85 18335424616014145895
58902169 19 17530686507195992078
59755656 520 14562536179905216944
6823239 73 18340755035701130353
8863177 126 18059288893500993451
9862886 166 18413390938532387590
999808 66 17704078395051807078

> <PUBCHEM_SHAPE_MULTIPOLES>
498.42
19.64
2.12
1.57
19.39
1.32
-0.21
6.42
8.89
-4.6
-0.34
1.83
-0.34
1.08

> <PUBCHEM_SHAPE_SELFOVERLAP>
1075.439

> <PUBCHEM_SHAPE_VOLUME>
273.1

> <PUBCHEM_COORDINATE_TYPE>
2
5
10

$$$$
