56775321
  -OEChem-12032416273D

 42 44  0     1  0  0  0  0  0999 V2000
   -5.4254   -2.7229   -0.7418 F   0  0  0  0  0  0  0  0  0  0  0  0
    1.7541    2.2808   -0.8763 O   0  0  0  0  0  0  0  0  0  0  0  0
    3.7916   -0.3829   -2.0658 O   0  0  0  0  0  0  0  0  0  0  0  0
   -2.6602    2.6230    0.9824 O   0  0  0  0  0  0  0  0  0  0  0  0
    4.8183   -1.6930    0.4582 O   0  0  0  0  0  0  0  0  0  0  0  0
   -0.7436    1.3926    0.5269 N   0  0  0  0  0  0  0  0  0  0  0  0
    2.3669   -0.3520   -0.2265 N   0  0  0  0  0  0  0  0  0  0  0  0
    1.3972    0.3904    0.5691 C   0  0  1  0  0  0  0  0  0  0  0  0
    1.5591    1.9061    0.4850 C   0  0  2  0  0  0  0  0  0  0  0  0
   -0.0456    0.1813    0.1002 C   0  0  0  0  0  0  0  0  0  0  0  0
    0.2010    2.4250    0.9397 C   0  0  0  0  0  0  0  0  0  0  0  0
    3.0657    0.2295   -1.2811 C   0  0  0  0  0  0  0  0  0  0  0  0
    2.4612   -1.7846    0.0172 C   0  0  0  0  0  0  0  0  0  0  0  0
    2.9572    1.7415   -1.3752 C   0  0  0  0  0  0  0  0  0  0  0  0
   -2.1137    1.5841    0.6173 C   0  0  0  0  0  0  0  0  0  0  0  0
    3.5717   -2.1114    0.9988 C   0  0  0  0  0  0  0  0  0  0  0  0
   -2.9834    0.4521    0.2600 C   0  0  0  0  0  0  0  0  0  0  0  0
   -3.3727   -0.4636    1.2377 C   0  0  0  0  0  0  0  0  0  0  0  0
   -3.4189    0.2951   -1.0558 C   0  0  0  0  0  0  0  0  0  0  0  0
   -4.1974   -1.5364    0.8994 C   0  0  0  0  0  0  0  0  0  0  0  0
   -4.2435   -0.7778   -1.3940 C   0  0  0  0  0  0  0  0  0  0  0  0
    5.8932   -1.9832    1.3411 C   0  0  0  0  0  0  0  0  0  0  0  0
   -4.6328   -1.6936   -0.4165 C   0  0  0  0  0  0  0  0  0  0  0  0
    1.4926    0.0809    1.6183 H   0  0  0  0  0  0  0  0  0  0  0  0
    2.3779    2.3009    1.0964 H   0  0  0  0  0  0  0  0  0  0  0  0
   -0.1281    0.1127   -0.9906 H   0  0  0  0  0  0  0  0  0  0  0  0
   -0.4997   -0.7106    0.5409 H   0  0  0  0  0  0  0  0  0  0  0  0
   -0.0795    3.3833    0.4919 H   0  0  0  0  0  0  0  0  0  0  0  0
    0.1427    2.5000    2.0310 H   0  0  0  0  0  0  0  0  0  0  0  0
    2.6684   -2.2831   -0.9369 H   0  0  0  0  0  0  0  0  0  0  0  0
    1.5002   -2.1594    0.3843 H   0  0  0  0  0  0  0  0  0  0  0  0
    3.8112    2.1862   -0.8513 H   0  0  0  0  0  0  0  0  0  0  0  0
    3.0284    2.0207   -2.4314 H   0  0  0  0  0  0  0  0  0  0  0  0
    3.5949   -3.1927    1.1762 H   0  0  0  0  0  0  0  0  0  0  0  0
    3.3983   -1.6014    1.9536 H   0  0  0  0  0  0  0  0  0  0  0  0
   -3.0387   -0.3506    2.2658 H   0  0  0  0  0  0  0  0  0  0  0  0
   -3.1211    1.0027   -1.8252 H   0  0  0  0  0  0  0  0  0  0  0  0
   -4.5007   -2.2496    1.6601 H   0  0  0  0  0  0  0  0  0  0  0  0
   -4.5827   -0.9005   -2.4183 H   0  0  0  0  0  0  0  0  0  0  0  0
    6.8220   -1.6426    0.8758 H   0  0  0  0  0  0  0  0  0  0  0  0
    5.9654   -3.0608    1.5169 H   0  0  0  0  0  0  0  0  0  0  0  0
    5.7637   -1.4537    2.2900 H   0  0  0  0  0  0  0  0  0  0  0  0
  1 23  1  0  0  0  0
  2  9  1  0  0  0  0
  2 14  1  0  0  0  0
  3 12  2  0  0  0  0
  4 15  2  0  0  0  0
  5 16  1  0  0  0  0
  5 22  1  0  0  0  0
  6 10  1  0  0  0  0
  6 11  1  0  0  0  0
  6 15  1  0  0  0  0
  7  8  1  0  0  0  0
  7 12  1  0  0  0  0
  7 13  1  0  0  0  0
  8  9  1  0  0  0  0
  8 10  1  0  0  0  0
  8 24  1  0  0  0  0
  9 11  1  0  0  0  0
  9 25  1  0  0  0  0
 10 26  1  0  0  0  0
 10 27  1  0  0  0  0
 11 28  1  0  0  0  0
 11 29  1  0  0  0  0
 12 14  1  0  0  0  0
 13 16  1  0  0  0  0
 13 30  1  0  0  0  0
 13 31  1  0  0  0  0
 14 32  1  0  0  0  0
 14 33  1  0  0  0  0
 15 17  1  0  0  0  0
 16 34  1  0  0  0  0
 16 35  1  0  0  0  0
 17 18  2  0  0  0  0
 17 19  1  0  0  0  0
 18 20  1  0  0  0  0
 18 36  1  0  0  0  0
 19 21  2  0  0  0  0
 19 37  1  0  0  0  0
 20 23  2  0  0  0  0
 20 38  1  0  0  0  0
 21 23  1  0  0  0  0
 21 39  1  0  0  0  0
 22 40  1  0  0  0  0
 22 41  1  0  0  0  0
 22 42  1  0  0  0  0
M  END
> <PUBCHEM_COMPOUND_CID>
56775321

> <PUBCHEM_CONFORMER_RMSD>
0.8

> <PUBCHEM_CONFORMER_DIVERSEORDER>
1
14
33
16
39
15
31
21
32
44
18
36
6
45
4
13
42
8
27
23
25
26
43
38
24
20
19
35
7
34
17
41
2
22
28
30
5
40
37
29
11
12
9
3
10

> <PUBCHEM_MMFF94_PARTIAL_CHARGES>
27
1 -0.19
10 0.3
11 0.3
12 0.57
13 0.3
14 0.34
15 0.54
16 0.28
17 0.09
18 -0.15
19 -0.15
2 -0.56
20 -0.15
21 -0.15
22 0.28
23 0.19
3 -0.57
36 0.15
37 0.15
38 0.15
39 0.15
4 -0.57
5 -0.56
6 -0.66
7 -0.66
8 0.3
9 0.28

> <PUBCHEM_EFFECTIVE_ROTOR_COUNT>
6.2

> <PUBCHEM_PHARMACOPHORE_FEATURES>
7
1 2 acceptor
1 3 acceptor
1 4 acceptor
1 5 acceptor
5 6 8 9 10 11 rings
6 17 18 19 20 21 23 rings
6 2 7 8 9 12 14 rings

> <PUBCHEM_HEAVY_ATOM_COUNT>
23

> <PUBCHEM_ATOM_DEF_STEREO_COUNT>
2

> <PUBCHEM_ATOM_UDEF_STEREO_COUNT>
0

> <PUBCHEM_BOND_DEF_STEREO_COUNT>
0

> <PUBCHEM_BOND_UDEF_STEREO_COUNT>
0

> <PUBCHEM_ISOTOPIC_ATOM_COUNT>
0

> <PUBCHEM_COMPONENT_COUNT>
1

> <PUBCHEM_CACTVS_TAUTO_COUNT>
2

> <PUBCHEM_CONFORMER_ID>
0362529900000001

> <PUBCHEM_MMFF94_ENERGY>
64.1113

> <PUBCHEM_FEATURE_SELFOVERLAP>
35.724

> <PUBCHEM_SHAPE_FINGERPRINT>
10042902 136 18125447406547139526
10062212 137 18338806593564324673
10498660 4 13118001110763471727
10928967 22 18200038468401104295
11370993 144 14979403846028887667
11578080 2 18265313042074163284
12363563 72 18342739615592367563
12553582 1 18201447973429530815
12892183 10 14189579637093366693
13140716 1 18200877275149866985
13257819 101 14780987224038670526
13583140 156 13398087335732397105
13899415 180 17458624472003624292
13911987 19 17683260417980699445
14178342 30 17702392744963160705
14576447 43 18410017671223325684
14848178 5 18336538339936760554
15183329 4 8502366768215141658
15415430 10 18339355267294224626
17349148 13 18333736780293528906
18186145 218 14852184900529678232
20281475 54 18411421730666510977
20626108 58 18336260163684571144
21503847 285 10087652506649970684
23402539 116 18117275861766852018
235170 7 17313666083031426967
23559900 14 18260535754054943953
23596394 208 17603865632531105547
23622692 118 18411132528674155257
25147074 1 18339093609028053593
3004659 81 18187915188731332371
312423 11 18410866464092980009
312425 83 16805319994227185927
339767 52 18270667676047452302
4098825 35 17821725018775419165
439807 62 18187364376661886315
463206 1 18339919445825265299
474 4 8718561492884310421
5104073 3 18059859488986546593
633830 44 15936986140567758436
6669772 16 17980475982491928680
76465 3 18412822503932044731
7808743 9 8718536237964978587
7970288 3 18343016718430534439

> <PUBCHEM_SHAPE_MULTIPOLES>
432.62
11.41
2.98
1.48
0.16
0.23
-0.42
-10.37
-0.58
0.41
0.59
0.48
0.04
-2.11

> <PUBCHEM_SHAPE_SELFOVERLAP>
918.759

> <PUBCHEM_SHAPE_VOLUME>
242.9

> <PUBCHEM_COORDINATE_TYPE>
2
5
10

$$$$
