26744766
  -OEChem-12032416353D

 43 47  0     1  0  0  0  0  0999 V2000
    4.0584   -2.3597   -1.6776 S   0  0  0  0  0  0  0  0  0  0  0  0
   -0.6863   -1.6617    1.4570 O   0  0  0  0  0  0  0  0  0  0  0  0
    1.9151    0.0149    0.3922 N   0  0  2  0  0  0  0  0  0  0  0  0
    1.5136    3.2599   -1.3900 N   0  0  0  0  0  0  0  0  0  0  0  0
    0.7491    3.9995    0.5770 N   0  0  0  0  0  0  0  0  0  0  0  0
   -1.5559    0.1710    0.5074 N   0  0  0  0  0  0  0  0  0  0  0  0
   -1.9872   -2.0048    1.0674 N   0  0  0  0  0  0  0  0  0  0  0  0
    0.8471    0.2583    1.4092 C   0  0  1  0  0  0  0  0  0  0  0  0
    0.7555    1.7761    1.8031 C   0  0  0  0  0  0  0  0  0  0  0  0
    1.7675    0.7648   -0.8731 C   0  0  0  0  0  0  0  0  0  0  0  0
    1.4451    2.1758   -0.5694 C   0  0  0  0  0  0  0  0  0  0  0  0
    0.9697    2.6524    0.6272 C   0  0  0  0  0  0  0  0  0  0  0  0
    2.1943   -1.3958    0.1478 C   0  0  0  0  0  0  0  0  0  0  0  0
   -0.5135   -0.3647    1.0909 C   0  0  0  0  0  0  0  0  0  0  0  0
    3.6438   -1.6310   -0.1845 C   0  0  0  0  0  0  0  0  0  0  0  0
    1.0844    4.3362   -0.6532 C   0  0  0  0  0  0  0  0  0  0  0  0
    4.7560   -1.3337    0.5721 C   0  0  0  0  0  0  0  0  0  0  0  0
   -2.4345   -0.8730    0.5156 C   0  0  0  0  0  0  0  0  0  0  0  0
    5.9645   -1.7090   -0.0829 C   0  0  0  0  0  0  0  0  0  0  0  0
   -3.7535   -0.7517   -0.0350 C   0  0  0  0  0  0  0  0  0  0  0  0
    5.7299   -2.2789   -1.3148 C   0  0  0  0  0  0  0  0  0  0  0  0
   -4.1654    0.4566   -0.5969 C   0  0  0  0  0  0  0  0  0  0  0  0
   -4.6241   -1.8411   -0.0084 C   0  0  0  0  0  0  0  0  0  0  0  0
   -5.4481    0.5757   -1.1322 C   0  0  0  0  0  0  0  0  0  0  0  0
   -5.9066   -1.7222   -0.5435 C   0  0  0  0  0  0  0  0  0  0  0  0
   -6.3187   -0.5138   -1.1055 C   0  0  0  0  0  0  0  0  0  0  0  0
    1.1731   -0.2405    2.3346 H   0  0  0  0  0  0  0  0  0  0  0  0
    1.5464    1.9989    2.5308 H   0  0  0  0  0  0  0  0  0  0  0  0
   -0.2053    2.0024    2.2787 H   0  0  0  0  0  0  0  0  0  0  0  0
    0.9672    0.3373   -1.4897 H   0  0  0  0  0  0  0  0  0  0  0  0
    2.6988    0.7268   -1.4493 H   0  0  0  0  0  0  0  0  0  0  0  0
    1.5210   -1.8133   -0.6119 H   0  0  0  0  0  0  0  0  0  0  0  0
    2.0120   -1.9800    1.0608 H   0  0  0  0  0  0  0  0  0  0  0  0
    1.8162    3.2748   -2.3552 H   0  0  0  0  0  0  0  0  0  0  0  0
    1.0412    5.3313   -1.0725 H   0  0  0  0  0  0  0  0  0  0  0  0
    4.7105   -0.8703    1.5495 H   0  0  0  0  0  0  0  0  0  0  0  0
    6.9554   -1.5684    0.3287 H   0  0  0  0  0  0  0  0  0  0  0  0
    6.4601   -2.6516   -2.0192 H   0  0  0  0  0  0  0  0  0  0  0  0
   -3.5105    1.3237   -0.6329 H   0  0  0  0  0  0  0  0  0  0  0  0
   -4.3384   -2.7982    0.4210 H   0  0  0  0  0  0  0  0  0  0  0  0
   -5.7692    1.5165   -1.5698 H   0  0  0  0  0  0  0  0  0  0  0  0
   -6.5850   -2.5702   -0.5229 H   0  0  0  0  0  0  0  0  0  0  0  0
   -7.3174   -0.4213   -1.5221 H   0  0  0  0  0  0  0  0  0  0  0  0
  1 15  1  0  0  0  0
  1 21  1  0  0  0  0
  2  7  1  0  0  0  0
  2 14  1  0  0  0  0
  3  8  1  0  0  0  0
  3 10  1  0  0  0  0
  3 13  1  0  0  0  0
  4 11  1  0  0  0  0
  4 16  1  0  0  0  0
  4 34  1  0  0  0  0
  5 12  1  0  0  0  0
  5 16  2  0  0  0  0
  6 14  2  0  0  0  0
  6 18  1  0  0  0  0
  7 18  2  0  0  0  0
  8  9  1  0  0  0  0
  8 14  1  0  0  0  0
  8 27  1  0  0  0  0
  9 12  1  0  0  0  0
  9 28  1  0  0  0  0
  9 29  1  0  0  0  0
 10 11  1  0  0  0  0
 10 30  1  0  0  0  0
 10 31  1  0  0  0  0
 11 12  2  0  0  0  0
 13 15  1  0  0  0  0
 13 32  1  0  0  0  0
 13 33  1  0  0  0  0
 15 17  2  0  0  0  0
 16 35  1  0  0  0  0
 17 19  1  0  0  0  0
 17 36  1  0  0  0  0
 18 20  1  0  0  0  0
 19 21  2  0  0  0  0
 19 37  1  0  0  0  0
 20 22  2  0  0  0  0
 20 23  1  0  0  0  0
 21 38  1  0  0  0  0
 22 24  1  0  0  0  0
 22 39  1  0  0  0  0
 23 25  2  0  0  0  0
 23 40  1  0  0  0  0
 24 26  2  0  0  0  0
 24 41  1  0  0  0  0
 25 26  1  0  0  0  0
 25 42  1  0  0  0  0
 26 43  1  0  0  0  0
M  END
> <PUBCHEM_COMPOUND_CID>
26744766

> <PUBCHEM_CONFORMER_RMSD>
0.8

> <PUBCHEM_CONFORMER_DIVERSEORDER>
2
25
20
33
45
41
22
47
34
15
43
42
48
38
29
12
7
31
46
36
37
5
6
23
30
13
49
26
19
8
14
24
18
27
17
16
9
28
44
32
39
40
1
3
35
21
4
10
11

> <PUBCHEM_MMFF94_PARTIAL_CHARGES>
36
1 -0.08
10 0.45
11 -0.33
12 0.05
13 0.45
14 0.3
15 -0.14
16 0.04
17 -0.15
18 0.46
19 -0.15
2 -0.02
20 0.05
21 -0.11
22 -0.15
23 -0.15
24 -0.15
25 -0.15
26 -0.15
3 -0.81
34 0.27
35 0.15
36 0.15
37 0.15
38 0.15
39 0.15
4 0.03
40 0.15
41 0.15
42 0.15
43 0.15
5 -0.57
6 -0.57
7 -0.41
8 0.45
9 0.18

> <PUBCHEM_EFFECTIVE_ROTOR_COUNT>
4.8

> <PUBCHEM_PHARMACOPHORE_FEATURES>
9
1 3 cation
1 4 donor
3 4 5 16 cation
3 6 7 18 cation
5 1 15 17 19 21 rings
5 2 6 7 14 18 rings
5 4 5 11 12 16 rings
6 20 22 23 24 25 26 rings
6 3 8 9 10 11 12 rings

> <PUBCHEM_HEAVY_ATOM_COUNT>
26

> <PUBCHEM_ATOM_DEF_STEREO_COUNT>
1

> <PUBCHEM_ATOM_UDEF_STEREO_COUNT>
0

> <PUBCHEM_BOND_DEF_STEREO_COUNT>
0

> <PUBCHEM_BOND_UDEF_STEREO_COUNT>
0

> <PUBCHEM_ISOTOPIC_ATOM_COUNT>
0

> <PUBCHEM_COMPONENT_COUNT>
1

> <PUBCHEM_CACTVS_TAUTO_COUNT>
2

> <PUBCHEM_CONFORMER_ID>
019817BE00000002

> <PUBCHEM_MMFF94_ENERGY>
48.8547

> <PUBCHEM_FEATURE_SELFOVERLAP>
45.774

> <PUBCHEM_SHAPE_FINGERPRINT>
10670039 82 17168417174192994111
10815517 723 18126297337414446001
10930396 42 18194372616896376450
11115154 58 18270962341612716001
11265709 11 18338809922527735576
11386260 185 18337091455111569637
11421498 54 13190609508376376527
11497681 19 17845662439675449934
11513181 2 18119524586352188351
11578080 2 11532496548066979910
11720765 8 18413388765026442908
12166972 35 18273214218371497307
12516196 113 18411698773147470126
12788726 201 18044093454364404898
13004483 165 18337943486106918146
13009979 54 18059587866591161185
13134695 92 17989200486149596329
13540713 4 17824549805891821547
13782708 43 17487068760980188382
13911987 19 18115892783687846350
14347329 18 16082193118547355791
14508225 48 18338525140632071564
14556957 393 18044968730334677692
146900 427 7781521421063203239
14739800 52 11386632032168915719
15021287 119 18268448892454194737
15183329 4 18040997306534678063
15775530 1 17755040909381349610
15849732 13 17989199348099288054
16126227 98 9438531624037945190
16992727 255 17751359469441890292
17539 30 18122350077706206100
17980427 23 17846511308820228728
1813 80 18200887196835102174
18222031 100 18341334422858603906
18365409 1 17979358551680722101
18681886 176 18340195367134812947
19784866 240 17847064376481338347
20238998 120 18412821374672787208
20642791 13 18269558243588359648
20775438 99 17907838945541274479
21285901 2 18128817448113806966
21703447 108 18195799679804863138
21756936 100 7853272204349542562
221357 26 18334288760921464685
23419403 2 17986648447153681376
23536364 44 18190734241860504181
23559900 14 18338509850442957475
244849 19 17343752968568748896
249057 3 18341326718077223575
255183 313 17623029905492443800
283562 15 18193279598852852386
3004659 81 18187085036162277710
3009799 131 18333449829244305298
340366 18 18272082842302711999
4017518 198 17839474620447676284
4066623 53 18040427789576392116
4280585 95 18408881807176985586
4339292 15 17986678074566375694
437815 12 18410854334941773839
46194498 28 18335135457715326967
5081480 168 18116175370601851693
508180 173 18261390001934484873
5281201 14 18336824294985912333
54076057 255 16805602534719763357
57527452 28 17060618876014370462
5969126 39 18269271275638601878
59755656 520 8718532897055182082
613672 6 18339372889725141374
633830 44 18116134732227932151
7471813 234 18202284722984216009
9709674 26 18190741032457103843
9971528 1 18342168985979062368

> <PUBCHEM_SHAPE_MULTIPOLES>
508.14
13.2
4.21
1.47
8.47
5.84
-0.05
-13.48
5.99
-3.54
0.93
-0.41
0.06
0.95

> <PUBCHEM_SHAPE_SELFOVERLAP>
1112.771

> <PUBCHEM_SHAPE_VOLUME>
277.9

> <PUBCHEM_COORDINATE_TYPE>
2
5
10

$$$$
