11884215
  -OEChem-12032416133D

 60 64  0     1  0  0  0  0  0999 V2000
    8.2594    0.4006    2.3464 F   0  0  0  0  0  0  0  0  0  0  0  0
    2.5066    2.2854    0.4947 O   0  0  0  0  0  0  0  0  0  0  0  0
   -0.5584   -2.0047    0.8734 O   0  0  0  0  0  0  0  0  0  0  0  0
    5.3206    1.1274   -2.1781 O   0  0  0  0  0  0  0  0  0  0  0  0
   -5.0415    0.7216   -2.0378 O   0  0  0  0  0  0  0  0  0  0  0  0
   -8.9361   -1.1934   -0.0812 O   0  0  0  0  0  0  0  0  0  0  0  0
    1.0385   -0.6131   -0.0559 N   0  0  0  0  0  0  0  0  0  0  0  0
    3.7601   -0.0539   -0.9013 N   0  0  0  0  0  0  0  0  0  0  0  0
    0.2656    2.0959    0.8471 N   0  0  0  0  0  0  0  0  0  0  0  0
    1.3461    0.6050   -0.7926 C   0  0  2  0  0  0  0  0  0  0  0  0
    2.6151    0.4770   -1.6441 C   0  0  0  0  0  0  0  0  0  0  0  0
    2.0855   -1.6328    0.0227 C   0  0  0  0  0  0  0  0  0  0  0  0
    3.4670   -1.0124    0.1708 C   0  0  0  0  0  0  0  0  0  0  0  0
    1.4459    1.7067    0.2506 C   0  0  0  0  0  0  0  0  0  0  0  0
   -0.2361   -0.9054    0.4196 C   0  0  0  0  0  0  0  0  0  0  0  0
   -1.2688    0.1651    0.4161 C   0  0  0  0  0  0  0  0  0  0  0  0
   -1.0123    1.5131    0.7157 C   0  0  0  0  0  0  0  0  0  0  0  0
    5.0508    0.3270   -1.2837 C   0  0  0  0  0  0  0  0  0  0  0  0
   -2.6002   -0.2684    0.2759 C   0  0  0  0  0  0  0  0  0  0  0  0
   -2.0976    2.3790    0.9368 C   0  0  0  0  0  0  0  0  0  0  0  0
    6.1893   -0.2664   -0.5643 C   0  0  0  0  0  0  0  0  0  0  0  0
   -3.6637    0.6160    0.4508 C   0  0  0  0  0  0  0  0  0  0  0  0
   -3.4127    1.9377    0.7954 C   0  0  0  0  0  0  0  0  0  0  0  0
   -5.0256    0.1525    0.2977 C   0  0  0  0  0  0  0  0  0  0  0  0
    6.6927    0.3623    0.5709 C   0  0  0  0  0  0  0  0  0  0  0  0
    6.7558   -1.4519   -1.0235 C   0  0  0  0  0  0  0  0  0  0  0  0
   -5.6720    0.2190   -0.9380 C   0  0  0  0  0  0  0  0  0  0  0  0
   -5.6972   -0.3678    1.4055 C   0  0  0  0  0  0  0  0  0  0  0  0
    7.7721   -0.1997    1.2528 C   0  0  0  0  0  0  0  0  0  0  0  0
    7.8350   -2.0137   -0.3417 C   0  0  0  0  0  0  0  0  0  0  0  0
    8.3431   -1.3878    0.7966 C   0  0  0  0  0  0  0  0  0  0  0  0
   -6.9855   -0.2330   -1.0653 C   0  0  0  0  0  0  0  0  0  0  0  0
   -7.0105   -0.8198    1.2783 C   0  0  0  0  0  0  0  0  0  0  0  0
   -7.6548   -0.7524    0.0428 C   0  0  0  0  0  0  0  0  0  0  0  0
   -4.3153   -0.2020   -2.8454 C   0  0  0  0  0  0  0  0  0  0  0  0
   -9.5609   -1.7125    1.0920 C   0  0  0  0  0  0  0  0  0  0  0  0
    0.5133    0.8437   -1.4657 H   0  0  0  0  0  0  0  0  0  0  0  0
    2.4369   -0.2233   -2.4700 H   0  0  0  0  0  0  0  0  0  0  0  0
    2.8784    1.4414   -2.0932 H   0  0  0  0  0  0  0  0  0  0  0  0
    2.0243   -2.2255   -0.8983 H   0  0  0  0  0  0  0  0  0  0  0  0
    1.8851   -2.3092    0.8606 H   0  0  0  0  0  0  0  0  0  0  0  0
    3.5395   -0.4616    1.1160 H   0  0  0  0  0  0  0  0  0  0  0  0
    4.2221   -1.8027    0.1887 H   0  0  0  0  0  0  0  0  0  0  0  0
    0.3064    2.9685    1.3683 H   0  0  0  0  0  0  0  0  0  0  0  0
   -2.8110   -1.3123    0.0467 H   0  0  0  0  0  0  0  0  0  0  0  0
   -1.9265    3.4225    1.1948 H   0  0  0  0  0  0  0  0  0  0  0  0
   -4.2266    2.6413    0.9532 H   0  0  0  0  0  0  0  0  0  0  0  0
    6.2539    1.2875    0.9347 H   0  0  0  0  0  0  0  0  0  0  0  0
    6.3666   -1.9473   -1.9091 H   0  0  0  0  0  0  0  0  0  0  0  0
   -5.2101   -0.4279    2.3764 H   0  0  0  0  0  0  0  0  0  0  0  0
    8.2796   -2.9389   -0.6967 H   0  0  0  0  0  0  0  0  0  0  0  0
    9.1831   -1.8252    1.3278 H   0  0  0  0  0  0  0  0  0  0  0  0
   -7.4893   -0.1807   -2.0273 H   0  0  0  0  0  0  0  0  0  0  0  0
   -7.4709   -1.2113    2.1788 H   0  0  0  0  0  0  0  0  0  0  0  0
   -3.8943   -1.0269   -2.2622 H   0  0  0  0  0  0  0  0  0  0  0  0
   -3.4991    0.3362   -3.3348 H   0  0  0  0  0  0  0  0  0  0  0  0
   -4.9802   -0.6060   -3.6148 H   0  0  0  0  0  0  0  0  0  0  0  0
   -9.0485   -2.6088    1.4577 H   0  0  0  0  0  0  0  0  0  0  0  0
  -10.5746   -2.0164    0.8108 H   0  0  0  0  0  0  0  0  0  0  0  0
   -9.6606   -0.9456    1.8676 H   0  0  0  0  0  0  0  0  0  0  0  0
  1 29  1  0  0  0  0
  2 14  2  0  0  0  0
  3 15  2  0  0  0  0
  4 18  2  0  0  0  0
  5 27  1  0  0  0  0
  5 35  1  0  0  0  0
  6 34  1  0  0  0  0
  6 36  1  0  0  0  0
  7 10  1  0  0  0  0
  7 12  1  0  0  0  0
  7 15  1  0  0  0  0
  8 11  1  0  0  0  0
  8 13  1  0  0  0  0
  8 18  1  0  0  0  0
  9 14  1  0  0  0  0
  9 17  1  0  0  0  0
  9 44  1  0  0  0  0
 10 11  1  0  0  0  0
 10 14  1  0  0  0  0
 10 37  1  0  0  0  0
 11 38  1  0  0  0  0
 11 39  1  0  0  0  0
 12 13  1  0  0  0  0
 12 40  1  0  0  0  0
 12 41  1  0  0  0  0
 13 42  1  0  0  0  0
 13 43  1  0  0  0  0
 15 16  1  0  0  0  0
 16 17  2  0  0  0  0
 16 19  1  0  0  0  0
 17 20  1  0  0  0  0
 18 21  1  0  0  0  0
 19 22  2  0  0  0  0
 19 45  1  0  0  0  0
 20 23  2  0  0  0  0
 20 46  1  0  0  0  0
 21 25  2  0  0  0  0
 21 26  1  0  0  0  0
 22 23  1  0  0  0  0
 22 24  1  0  0  0  0
 23 47  1  0  0  0  0
 24 27  2  0  0  0  0
 24 28  1  0  0  0  0
 25 29  1  0  0  0  0
 25 48  1  0  0  0  0
 26 30  2  0  0  0  0
 26 49  1  0  0  0  0
 27 32  1  0  0  0  0
 28 33  2  0  0  0  0
 28 50  1  0  0  0  0
 29 31  2  0  0  0  0
 30 31  1  0  0  0  0
 30 51  1  0  0  0  0
 31 52  1  0  0  0  0
 32 34  2  0  0  0  0
 32 53  1  0  0  0  0
 33 34  1  0  0  0  0
 33 54  1  0  0  0  0
 35 55  1  0  0  0  0
 35 56  1  0  0  0  0
 35 57  1  0  0  0  0
 36 58  1  0  0  0  0
 36 59  1  0  0  0  0
 36 60  1  0  0  0  0
M  END
> <PUBCHEM_COMPOUND_CID>
11884215

> <PUBCHEM_CONFORMER_RMSD>
1

> <PUBCHEM_CONFORMER_DIVERSEORDER>
1
48
51
22
53
49
21
9
15
35
8
40
47
12
29
56
33
24
16
30
10
6
18
7
52
32
23
20
28
17
42
5
25
31
44
37
2
14
43
45
50
55
27
34
11
36
41
19
13
38
26
46
4
54
39
3

> <PUBCHEM_MMFF94_PARTIAL_CHARGES>
45
1 -0.19
10 0.36
11 0.3
12 0.3
13 0.3
14 0.57
15 0.54
16 0.09
17 0.12
18 0.54
19 -0.15
2 -0.57
20 -0.15
21 0.09
23 -0.15
25 -0.15
26 -0.15
27 0.08
28 -0.15
29 0.19
3 -0.57
30 -0.15
31 -0.15
32 -0.15
33 -0.15
34 0.08
35 0.28
36 0.28
4 -0.57
44 0.37
45 0.15
46 0.15
47 0.15
48 0.15
49 0.15
5 -0.36
50 0.15
51 0.15
52 0.15
53 0.15
54 0.15
6 -0.36
7 -0.66
8 -0.66
9 -0.55

> <PUBCHEM_EFFECTIVE_ROTOR_COUNT>
6

> <PUBCHEM_PHARMACOPHORE_FEATURES>
11
1 2 acceptor
1 3 acceptor
1 4 acceptor
1 5 acceptor
1 6 acceptor
1 9 donor
6 16 17 19 20 22 23 rings
6 21 25 26 29 30 31 rings
6 24 27 28 32 33 34 rings
6 7 8 10 11 12 13 rings
7 7 9 10 14 15 16 17 rings

> <PUBCHEM_HEAVY_ATOM_COUNT>
36

> <PUBCHEM_ATOM_DEF_STEREO_COUNT>
1

> <PUBCHEM_ATOM_UDEF_STEREO_COUNT>
0

> <PUBCHEM_BOND_DEF_STEREO_COUNT>
0

> <PUBCHEM_BOND_UDEF_STEREO_COUNT>
0

> <PUBCHEM_ISOTOPIC_ATOM_COUNT>
0

> <PUBCHEM_COMPONENT_COUNT>
1

> <PUBCHEM_CACTVS_TAUTO_COUNT>
3

> <PUBCHEM_CONFORMER_ID>
00B556B700000001

> <PUBCHEM_MMFF94_ENERGY>
148.773

> <PUBCHEM_FEATURE_SELFOVERLAP>
55.853

> <PUBCHEM_SHAPE_FINGERPRINT>
10670039 82 14996275899803008221
11135926 11 18409166580900017679
11181472 205 8502111654951446359
11719270 70 18113338596590890306
11991303 11 17749962175005218907
12082328 90 18334011658332257325
12166972 35 18040723597043643837
13692114 37 18410575098429955970
13811026 1 18410856533869992294
13914758 101 16515683312749475252
14279260 333 18342174419350555831
14849402 71 16343694487134235520
15064981 113 15719655624919330523
15131766 46 16446184454495206774
15183329 4 15068338995367240876
15328829 1 18261666005001332978
15461852 350 13190350093206285681
20156587 128 16298372549819463775
2026 5 18260547788242701243
21130935 74 17773887398133668670
21267235 1 18343588443228026761
21781051 124 18114190790842210275
21792938 703 17844511396792744311
21792961 116 18040155102687713579
21895431 317 17312812763050641034
22002106 203 17702375342764090839
22149856 69 15913342268731307596
23516275 137 14404367047525757591
23559900 14 18339080513678055849
23569917 315 18335147449402239226
23576562 1 14924813226980740510
24771293 8 17346594197468669776
335352 9 18040726857640986206
3383291 50 18410859862649774906
3418910 222 15482677900705708810
34797466 226 16200155387722829684
4073 2 15123513613977219327
4098825 35 16805317773749893495
4149490 64 17845089752777544699
4625314 4 17023189370491420031
474113 269 16298376921916499082
484989 97 18189628296751773731
5028188 123 7997672213371478906
54039377 194 18272653454973180695
6081469 158 17749108902837095933
6086070 43 13840560587225807725
6126387 218 17418094287824798369
6204607 403 15123504874198989522
6394761 36 13623530151740239338
6523845 18 18334006216630188271
9663363 56 18131630080968074617
9689198 14 10879986969899495420
9953998 17 15554442998965226423
9962374 69 17417805197665096629

> <PUBCHEM_SHAPE_MULTIPOLES>
689.3
28.18
1.96
1.74
0.24
0.57
0.84
-14.58
-5.05
-0.32
-0.51
0.15
0.07
0.45

> <PUBCHEM_SHAPE_SELFOVERLAP>
1522.919

> <PUBCHEM_SHAPE_VOLUME>
369.1

> <PUBCHEM_COORDINATE_TYPE>
2
5
10

$$$$
