25338452
  -OEChem-12032416213D

 50 53  0     1  0  0  0  0  0999 V2000
   -3.4857    1.5976   -1.3236 O   0  0  0  0  0  0  0  0  0  0  0  0
    3.4103    2.1439   -0.7473 O   0  0  0  0  0  0  0  0  0  0  0  0
   -1.2871    3.3809    0.7746 N   0  0  1  0  0  0  0  0  0  0  0  0
    1.5409    2.3437    0.6151 N   0  0  0  0  0  0  0  0  0  0  0  0
   -2.0986    0.4310   -0.0076 N   0  0  0  0  0  0  0  0  0  0  0  0
    3.2312    0.9009    1.2037 N   0  0  0  0  0  0  0  0  0  0  0  0
   -4.0553    0.3251   -1.1884 N   0  0  0  0  0  0  0  0  0  0  0  0
   -3.6953   -4.3202    0.8242 N   0  0  0  0  0  0  0  0  0  0  0  0
    0.8392    3.3237   -0.1794 C   0  0  1  0  0  0  0  0  0  0  0  0
   -1.5239    2.8515   -0.5820 C   0  0  1  0  0  0  0  0  0  0  0  0
   -0.1139    2.6629   -1.1752 C   0  0  0  0  0  0  0  0  0  0  0  0
   -0.0673    4.1893    0.6827 C   0  0  0  0  0  0  0  0  0  0  0  0
   -2.3371    1.5748   -0.5982 C   0  0  0  0  0  0  0  0  0  0  0  0
   -2.4113    4.1495    1.2952 C   0  0  0  0  0  0  0  0  0  0  0  0
    2.7848    1.8259    0.2632 C   0  0  0  0  0  0  0  0  0  0  0  0
   -3.1797   -0.3040   -0.3988 C   0  0  0  0  0  0  0  0  0  0  0  0
    4.4938    0.2107    1.0842 C   0  0  0  0  0  0  0  0  0  0  0  0
   -3.3546   -1.6659    0.0159 C   0  0  0  0  0  0  0  0  0  0  0  0
    4.3594   -1.0801    0.3293 C   0  0  0  0  0  0  0  0  0  0  0  0
   -2.4105   -2.2722    0.8375 C   0  0  0  0  0  0  0  0  0  0  0  0
   -4.4688   -2.3853   -0.4018 C   0  0  0  0  0  0  0  0  0  0  0  0
    4.0765   -2.2620    1.0140 C   0  0  0  0  0  0  0  0  0  0  0  0
    4.5172   -1.0977   -1.0564 C   0  0  0  0  0  0  0  0  0  0  0  0
   -2.6253   -3.5892    1.2101 C   0  0  0  0  0  0  0  0  0  0  0  0
   -4.5916   -3.6974    0.0263 C   0  0  0  0  0  0  0  0  0  0  0  0
    3.9513   -3.4615    0.3130 C   0  0  0  0  0  0  0  0  0  0  0  0
    4.3921   -2.2970   -1.7575 C   0  0  0  0  0  0  0  0  0  0  0  0
    4.1093   -3.4789   -1.0728 C   0  0  0  0  0  0  0  0  0  0  0  0
    1.5818    3.9353   -0.7039 H   0  0  0  0  0  0  0  0  0  0  0  0
   -2.0414    3.6047   -1.1937 H   0  0  0  0  0  0  0  0  0  0  0  0
    0.1443    1.6135   -1.3595 H   0  0  0  0  0  0  0  0  0  0  0  0
   -0.0601    3.1888   -2.1368 H   0  0  0  0  0  0  0  0  0  0  0  0
    0.3589    4.3969    1.6700 H   0  0  0  0  0  0  0  0  0  0  0  0
   -0.2633    5.1426    0.1746 H   0  0  0  0  0  0  0  0  0  0  0  0
    1.0753    1.9617    1.4329 H   0  0  0  0  0  0  0  0  0  0  0  0
   -3.3039    3.5207    1.3807 H   0  0  0  0  0  0  0  0  0  0  0  0
   -2.6567    5.0104    0.6630 H   0  0  0  0  0  0  0  0  0  0  0  0
   -2.1862    4.5173    2.3022 H   0  0  0  0  0  0  0  0  0  0  0  0
    2.6357    0.6847    1.9972 H   0  0  0  0  0  0  0  0  0  0  0  0
    4.8648    0.0256    2.0986 H   0  0  0  0  0  0  0  0  0  0  0  0
    5.2242    0.8652    0.5940 H   0  0  0  0  0  0  0  0  0  0  0  0
   -1.5240   -1.7562    1.1913 H   0  0  0  0  0  0  0  0  0  0  0  0
   -5.2374   -1.9655   -1.0423 H   0  0  0  0  0  0  0  0  0  0  0  0
    3.9494   -2.2610    2.0934 H   0  0  0  0  0  0  0  0  0  0  0  0
    4.7412   -0.1859   -1.6030 H   0  0  0  0  0  0  0  0  0  0  0  0
   -1.9188   -4.1079    1.8497 H   0  0  0  0  0  0  0  0  0  0  0  0
   -5.4422   -4.3017   -0.2714 H   0  0  0  0  0  0  0  0  0  0  0  0
    3.7305   -4.3817    0.8460 H   0  0  0  0  0  0  0  0  0  0  0  0
    4.5156   -2.3109   -2.8365 H   0  0  0  0  0  0  0  0  0  0  0  0
    4.0119   -4.4127   -1.6187 H   0  0  0  0  0  0  0  0  0  0  0  0
  1  7  1  0  0  0  0
  1 13  1  0  0  0  0
  2 15  2  0  0  0  0
  3 10  1  0  0  0  0
  3 12  1  0  0  0  0
  3 14  1  0  0  0  0
  4  9  1  0  0  0  0
  4 15  1  0  0  0  0
  4 35  1  0  0  0  0
  5 13  2  0  0  0  0
  5 16  1  0  0  0  0
  6 15  1  0  0  0  0
  6 17  1  0  0  0  0
  6 39  1  0  0  0  0
  7 16  2  0  0  0  0
  8 24  2  0  0  0  0
  8 25  1  0  0  0  0
  9 11  1  0  0  0  0
  9 12  1  0  0  0  0
  9 29  1  0  0  0  0
 10 11  1  0  0  0  0
 10 13  1  0  0  0  0
 10 30  1  0  0  0  0
 11 31  1  0  0  0  0
 11 32  1  0  0  0  0
 12 33  1  0  0  0  0
 12 34  1  0  0  0  0
 14 36  1  0  0  0  0
 14 37  1  0  0  0  0
 14 38  1  0  0  0  0
 16 18  1  0  0  0  0
 17 19  1  0  0  0  0
 17 40  1  0  0  0  0
 17 41  1  0  0  0  0
 18 20  2  0  0  0  0
 18 21  1  0  0  0  0
 19 22  2  0  0  0  0
 19 23  1  0  0  0  0
 20 24  1  0  0  0  0
 20 42  1  0  0  0  0
 21 25  2  0  0  0  0
 21 43  1  0  0  0  0
 22 26  1  0  0  0  0
 22 44  1  0  0  0  0
 23 27  2  0  0  0  0
 23 45  1  0  0  0  0
 24 46  1  0  0  0  0
 25 47  1  0  0  0  0
 26 28  2  0  0  0  0
 26 48  1  0  0  0  0
 27 28  1  0  0  0  0
 27 49  1  0  0  0  0
 28 50  1  0  0  0  0
M  END
> <PUBCHEM_COMPOUND_CID>
25338452

> <PUBCHEM_CONFORMER_RMSD>
1

> <PUBCHEM_CONFORMER_DIVERSEORDER>
1
44
139
83
149
189
170
20
112
84
158
85
187
64
190
140
14
24
200
171
50
194
56
94
69
108
121
73
103
38
155
88
53
47
66
60
77
182
23
46
176
136
70
16
76
188
146
61
96
120
39
152
202
150
203
45
195
107
52
40
36
71
25
54
159
160
26
193
95
192
63
143
106
58
11
137
57
127
3
179
133
141
185
126
101
130
174
34
178
156
18
110
180
81
35
172
124
184
21
99
147
74
153
145
186
62
65
29
165
164
75
173
59
148
104
169
27
5
8
166
13
114
177
93
41
157
78
12
22
201
183
48
30
89
144
113
131
162
32
82
98
67
10
37
55
161
151
87
15
199
100
123
49
42
17
135
197
142
154
4
198
19
79
117
72
129
111
97
33
51
196
181
6
125
175
116
119
138
115
86
118
167
109
28
68
9
43
31
92
90
122
105
191
7
128
80
91
134
132
2
168
163
102

> <PUBCHEM_MMFF94_PARTIAL_CHARGES>
38
1 -0.02
10 0.45
12 0.27
13 0.3
14 0.27
15 0.69
16 0.46
17 0.44
18 0.05
19 -0.14
2 -0.57
20 -0.15
21 -0.15
22 -0.15
23 -0.15
24 0.16
25 0.16
26 -0.15
27 -0.15
28 -0.15
3 -0.81
35 0.37
39 0.37
4 -0.73
42 0.15
43 0.15
44 0.15
45 0.15
46 0.15
47 0.15
48 0.15
49 0.15
5 -0.57
50 0.15
6 -0.73
7 -0.41
8 -0.62
9 0.3

> <PUBCHEM_EFFECTIVE_ROTOR_COUNT>
8

> <PUBCHEM_PHARMACOPHORE_FEATURES>
10
1 2 acceptor
1 3 cation
1 4 donor
1 6 donor
1 8 acceptor
3 5 7 16 cation
5 1 5 7 13 16 rings
5 3 9 10 11 12 rings
6 19 22 23 26 27 28 rings
6 8 18 20 21 24 25 rings

> <PUBCHEM_HEAVY_ATOM_COUNT>
28

> <PUBCHEM_ATOM_DEF_STEREO_COUNT>
2

> <PUBCHEM_ATOM_UDEF_STEREO_COUNT>
0

> <PUBCHEM_BOND_DEF_STEREO_COUNT>
0

> <PUBCHEM_BOND_UDEF_STEREO_COUNT>
0

> <PUBCHEM_ISOTOPIC_ATOM_COUNT>
0

> <PUBCHEM_COMPONENT_COUNT>
1

> <PUBCHEM_CACTVS_TAUTO_COUNT>
3

> <PUBCHEM_CONFORMER_ID>
0182A25400000001

> <PUBCHEM_MMFF94_ENERGY>
54.8524

> <PUBCHEM_FEATURE_SELFOVERLAP>
50.798

> <PUBCHEM_SHAPE_FINGERPRINT>
10928967 22 17972039137328313282
11059048 146 17832715577819168690
13383661 66 17545640041384907630
1361 2 17112409477265864307
1361 87 18127136277707835766
14068700 686 18271236223182582864
14251757 5 18193569861069029830
14863182 85 17688590880569824372
14866123 147 18197499520106265441
15927050 60 17620745086687818941
17909252 39 18339927121004884120
20764821 26 18335144172046039530
20775530 9 18409450322980799970
21315759 227 18335971026528304998
23572383 38 18339059567243229058
325973 47 18410008870667147990
3737641 26 18267601254361250768
404807 14 18412273822277608779
4394409 98 17176840373115894518
4435113 14 17557433085456831966
4573279 150 17972917815124382771
50080093 196 17691391332570416926
508706 21 18055355726023934910
5309563 4 18268713990119452102
54324442 115 17693948388299410222
56633871 153 18412553106762027881
57307002 29 17973740081642786636
5912855 24 18270978911037764608
613672 6 18268128985324109084
6433294 58 17904199583000001779
6679774 75 17687782383415111561

> <PUBCHEM_SHAPE_MULTIPOLES>
534.6
11.35
7.39
1.35
6.73
0.29
-0.13
-12.34
-1.18
-4.79
1.59
0.55
-0.08
1.47

> <PUBCHEM_SHAPE_SELFOVERLAP>
1151.062

> <PUBCHEM_SHAPE_VOLUME>
294.5

> <PUBCHEM_COORDINATE_TYPE>
2
5
10

$$$$
