51137800
  -OEChem-12032416223D

 51 54  0     1  0  0  0  0  0999 V2000
   -2.9447   -1.1930   -1.9924 O   0  0  0  0  0  0  0  0  0  0  0  0
    1.3987   -1.1209    0.0680 O   0  0  0  0  0  0  0  0  0  0  0  0
    1.2622    1.1845    1.2002 O   0  0  0  0  0  0  0  0  0  0  0  0
   -1.7625   -1.7265   -0.0800 N   0  0  0  0  0  0  0  0  0  0  0  0
    2.6072   -3.0012   -0.0244 N   0  0  0  0  0  0  0  0  0  0  0  0
    3.4670   -1.9320   -0.1941 N   0  0  0  0  0  0  0  0  0  0  0  0
   -3.3225    0.1468   -0.0707 C   0  0  0  0  0  0  0  0  0  0  0  0
    0.0768   -3.1711    0.3464 C   0  0  2  0  0  0  0  0  0  0  0  0
   -1.0369   -2.8507   -0.6586 C   0  0  0  0  0  0  0  0  0  0  0  0
   -2.4819    1.4175   -0.2036 C   0  0  0  0  0  0  0  0  0  0  0  0
   -4.7378    0.3510   -0.6139 C   0  0  0  0  0  0  0  0  0  0  0  0
   -0.5644   -2.7490    1.6777 C   0  0  0  0  0  0  0  0  0  0  0  0
   -1.3927   -1.5220    1.3159 C   0  0  0  0  0  0  0  0  0  0  0  0
   -2.6667   -0.9778   -0.8114 C   0  0  0  0  0  0  0  0  0  0  0  0
   -3.1683    2.6137    0.4508 C   0  0  0  0  0  0  0  0  0  0  0  0
   -5.4211    1.5503    0.0381 C   0  0  0  0  0  0  0  0  0  0  0  0
   -4.5802    2.8173   -0.0918 C   0  0  0  0  0  0  0  0  0  0  0  0
    1.4115   -2.4807    0.1251 C   0  0  0  0  0  0  0  0  0  0  0  0
    2.7183   -0.8556   -0.1332 C   0  0  0  0  0  0  0  0  0  0  0  0
    3.0700    0.5304   -0.2434 C   0  0  0  0  0  0  0  0  0  0  0  0
    2.3348    1.5104    0.4235 C   0  0  0  0  0  0  0  0  0  0  0  0
    4.1621    0.8935   -1.0315 C   0  0  0  0  0  0  0  0  0  0  0  0
    2.6916    2.8533    0.3024 C   0  0  0  0  0  0  0  0  0  0  0  0
    4.5189    2.2365   -1.1528 C   0  0  0  0  0  0  0  0  0  0  0  0
    3.7837    3.2164   -0.4858 C   0  0  0  0  0  0  0  0  0  0  0  0
    0.5770    2.2588    1.8397 C   0  0  0  0  0  0  0  0  0  0  0  0
   -3.4372   -0.0926    0.9894 H   0  0  0  0  0  0  0  0  0  0  0  0
    0.2782   -4.2492    0.3457 H   0  0  0  0  0  0  0  0  0  0  0  0
   -0.6711   -2.5981   -1.6589 H   0  0  0  0  0  0  0  0  0  0  0  0
   -1.7461   -3.6823   -0.7411 H   0  0  0  0  0  0  0  0  0  0  0  0
   -2.3069    1.6395   -1.2649 H   0  0  0  0  0  0  0  0  0  0  0  0
   -1.4940    1.2716    0.2391 H   0  0  0  0  0  0  0  0  0  0  0  0
   -4.7182    0.5144   -1.6995 H   0  0  0  0  0  0  0  0  0  0  0  0
   -5.3407   -0.5500   -0.4462 H   0  0  0  0  0  0  0  0  0  0  0  0
    0.1542   -2.5427    2.4771 H   0  0  0  0  0  0  0  0  0  0  0  0
   -1.2335   -3.5475    2.0233 H   0  0  0  0  0  0  0  0  0  0  0  0
   -2.2739   -1.4525    1.9582 H   0  0  0  0  0  0  0  0  0  0  0  0
   -0.8151   -0.5992    1.3984 H   0  0  0  0  0  0  0  0  0  0  0  0
   -3.2115    2.4602    1.5361 H   0  0  0  0  0  0  0  0  0  0  0  0
   -2.5739    3.5182    0.2798 H   0  0  0  0  0  0  0  0  0  0  0  0
   -5.5973    1.3369    1.0996 H   0  0  0  0  0  0  0  0  0  0  0  0
   -6.4028    1.7107   -0.4219 H   0  0  0  0  0  0  0  0  0  0  0  0
   -5.0665    3.6394    0.4453 H   0  0  0  0  0  0  0  0  0  0  0  0
   -4.5261    3.1123   -1.1470 H   0  0  0  0  0  0  0  0  0  0  0  0
    4.7474    0.1460   -1.5620 H   0  0  0  0  0  0  0  0  0  0  0  0
    2.1716    3.6711    0.7888 H   0  0  0  0  0  0  0  0  0  0  0  0
    5.3689    2.5195   -1.7669 H   0  0  0  0  0  0  0  0  0  0  0  0
    4.0627    4.2619   -0.5811 H   0  0  0  0  0  0  0  0  0  0  0  0
    1.2199    2.7732    2.5623 H   0  0  0  0  0  0  0  0  0  0  0  0
    0.1315    2.9478    1.1142 H   0  0  0  0  0  0  0  0  0  0  0  0
   -0.2484    1.8209    2.4107 H   0  0  0  0  0  0  0  0  0  0  0  0
  1 14  2  0  0  0  0
  2 18  1  0  0  0  0
  2 19  1  0  0  0  0
  3 21  1  0  0  0  0
  3 26  1  0  0  0  0
  4  9  1  0  0  0  0
  4 13  1  0  0  0  0
  4 14  1  0  0  0  0
  5  6  1  0  0  0  0
  5 18  2  0  0  0  0
  6 19  2  0  0  0  0
  7 10  1  0  0  0  0
  7 11  1  0  0  0  0
  7 14  1  0  0  0  0
  7 27  1  0  0  0  0
  8  9  1  0  0  0  0
  8 12  1  0  0  0  0
  8 18  1  0  0  0  0
  8 28  1  0  0  0  0
  9 29  1  0  0  0  0
  9 30  1  0  0  0  0
 10 15  1  0  0  0  0
 10 31  1  0  0  0  0
 10 32  1  0  0  0  0
 11 16  1  0  0  0  0
 11 33  1  0  0  0  0
 11 34  1  0  0  0  0
 12 13  1  0  0  0  0
 12 35  1  0  0  0  0
 12 36  1  0  0  0  0
 13 37  1  0  0  0  0
 13 38  1  0  0  0  0
 15 17  1  0  0  0  0
 15 39  1  0  0  0  0
 15 40  1  0  0  0  0
 16 17  1  0  0  0  0
 16 41  1  0  0  0  0
 16 42  1  0  0  0  0
 17 43  1  0  0  0  0
 17 44  1  0  0  0  0
 19 20  1  0  0  0  0
 20 21  1  0  0  0  0
 20 22  2  0  0  0  0
 21 23  2  0  0  0  0
 22 24  1  0  0  0  0
 22 45  1  0  0  0  0
 23 25  1  0  0  0  0
 23 46  1  0  0  0  0
 24 25  2  0  0  0  0
 24 47  1  0  0  0  0
 25 48  1  0  0  0  0
 26 49  1  0  0  0  0
 26 50  1  0  0  0  0
 26 51  1  0  0  0  0
M  END
> <PUBCHEM_COMPOUND_CID>
51137800

> <PUBCHEM_CONFORMER_RMSD>
1

> <PUBCHEM_CONFORMER_DIVERSEORDER>
5
118
77
129
55
98
84
71
57
130
137
8
28
65
150
69
119
27
51
113
97
151
145
46
62
133
41
35
122
87
109
61
64
19
102
114
20
112
147
138
14
121
128
15
141
3
43
24
78
38
103
33
83
131
36
13
93
96
149
30
88
6
123
66
56
107
32
1
86
85
100
44
37
124
89
75
29
72
91
58
11
54
142
18
82
39
136
34
80
135
59
106
4
53
12
22
68
26
16
52
90
70
23
140
105
60
134
17
2
95
148
110
40
111
132
116
117
63
127
73
45
120
47
7
31
144
99
48
79
9
21
49
115
101
125
10
126
143
81
74
67
50
108
92
94
104
146
76
42
139
25

> <PUBCHEM_MMFF94_PARTIAL_CHARGES>
24
1 -0.57
13 0.3
14 0.57
18 0.3
19 0.43
2 -0.28
20 0.05
21 0.08
22 -0.15
23 -0.15
24 -0.15
25 -0.15
26 0.28
3 -0.36
4 -0.66
45 0.15
46 0.15
47 0.15
48 0.15
5 -0.34
6 -0.34
7 0.06
8 0.18
9 0.3

> <PUBCHEM_EFFECTIVE_ROTOR_COUNT>
7.2

> <PUBCHEM_PHARMACOPHORE_FEATURES>
6
1 1 acceptor
1 3 acceptor
5 2 5 6 18 19 rings
5 4 8 9 12 13 rings
6 20 21 22 23 24 25 rings
6 7 10 11 15 16 17 rings

> <PUBCHEM_HEAVY_ATOM_COUNT>
26

> <PUBCHEM_ATOM_DEF_STEREO_COUNT>
1

> <PUBCHEM_ATOM_UDEF_STEREO_COUNT>
0

> <PUBCHEM_BOND_DEF_STEREO_COUNT>
0

> <PUBCHEM_BOND_UDEF_STEREO_COUNT>
0

> <PUBCHEM_ISOTOPIC_ATOM_COUNT>
0

> <PUBCHEM_COMPONENT_COUNT>
1

> <PUBCHEM_CACTVS_TAUTO_COUNT>
1

> <PUBCHEM_CONFORMER_ID>
030C4D0800000005

> <PUBCHEM_MMFF94_ENERGY>
60.8416

> <PUBCHEM_FEATURE_SELFOVERLAP>
30.449

> <PUBCHEM_SHAPE_FINGERPRINT>
10498660 4 17977094987903003254
10675989 125 18267586805844133448
10764073 3 17697839693926513082
1100329 8 18337955559106804986
11059048 146 18337687419650543036
11211813 163 18118703230204022340
11370993 70 18335984254590116396
12633257 1 18114445817431059624
12788726 201 17900531591052000723
13464514 151 18410015459526301054
13590594 115 17472425348239159818
13617811 41 18265039401523696973
138480 1 17905326225878235598
14117953 113 16107262795082997101
14251764 75 18341344305510150737
14468879 13 18188215415260574531
14713325 29 17899710234311464074
14848178 96 18335132094581912821
14931854 50 18342741784292883389
15142526 21 18186805738733830547
151778 21 18337954493728250661
15210252 30 17977388235369189490
15295992 7 18041286469445002019
15322687 12 18410573963735085305
17980427 23 18196341820287859178
18608769 82 18266464402646590579
20465049 17 18268723726857596687
21860390 5 18127129662935999390
21864079 5 18410009948687523943
22122407 14 18050017593356857617
221357 26 17984990542205243566
22393880 68 18201722911545326844
22907989 373 17685215371091771735
23227448 37 18340765953945943559
23536364 44 18055103006280525932
238 59 18411414012235779139
245318 6 18041297537633551773
338550 245 18338793412373159072
340366 18 17845087364043031927
474 4 18334572400345635239
5048184 11 18411139151508990093
5081480 168 17270640912740925790
5283173 99 17980486973402961612
54672768 99 18337111271499646732
7288768 16 17895194454141030683
9981440 41 18192985139794360858

> <PUBCHEM_SHAPE_MULTIPOLES>
502.52
9.6
4.77
1.28
4.2
0.87
0.2
-8.55
-3.11
-1.32
0.61
0.13
0.08
-0.59

> <PUBCHEM_SHAPE_SELFOVERLAP>
1079.822

> <PUBCHEM_SHAPE_VOLUME>
276.6

> <PUBCHEM_COORDINATE_TYPE>
2
5
10

$$$$
