56775724
  -OEChem-12032416273D

 52 55  0     0  0  0  0  0  0999 V2000
    0.1570   -1.8602   -2.4509 O   0  0  0  0  0  0  0  0  0  0  0  0
   -3.0957   -1.6491    0.9442 O   0  0  0  0  0  0  0  0  0  0  0  0
    6.1977    2.9514   -0.5491 O   0  0  0  0  0  0  0  0  0  0  0  0
   -5.9086    3.3769   -0.7470 O   0  0  0  0  0  0  0  0  0  0  0  0
    2.4407   -1.9151   -0.4561 N   0  0  0  0  0  0  0  0  0  0  0  0
    5.2718    1.0819    0.4733 N   0  0  0  0  0  0  0  0  0  0  0  0
   -1.7792   -2.0669    1.0967 N   0  0  0  0  0  0  0  0  0  0  0  0
    1.0165   -1.5740   -0.5182 C   0  0  0  0  0  0  0  0  0  0  0  0
    3.1518   -0.8814    0.2921 C   0  0  0  0  0  0  0  0  0  0  0  0
    0.7652   -0.7397   -1.7690 C   0  0  0  0  0  0  0  0  0  0  0  0
    0.2792   -2.6793   -1.2659 C   0  0  0  0  0  0  0  0  0  0  0  0
    0.4725   -1.0985    0.7941 C   0  0  0  0  0  0  0  0  0  0  0  0
    3.0755    0.4562   -0.4554 C   0  0  0  0  0  0  0  0  0  0  0  0
    4.6140   -1.2953    0.5027 C   0  0  0  0  0  0  0  0  0  0  0  0
    3.8934    1.5288    0.2616 C   0  0  0  0  0  0  0  0  0  0  0  0
    5.4024   -0.1870    1.2004 C   0  0  0  0  0  0  0  0  0  0  0  0
   -1.0389   -1.0101    0.7501 C   0  0  0  0  0  0  0  0  0  0  0  0
    6.3330    1.8698    0.0287 C   0  0  0  0  0  0  0  0  0  0  0  0
   -1.8255    0.0923    0.3736 C   0  0  0  0  0  0  0  0  0  0  0  0
   -3.1103   -0.3617    0.5132 C   0  0  0  0  0  0  0  0  0  0  0  0
    7.7213    1.3390    0.2822 C   0  0  0  0  0  0  0  0  0  0  0  0
   -4.4089    0.2120    0.3110 C   0  0  0  0  0  0  0  0  0  0  0  0
   -4.5287    1.5311   -0.1264 C   0  0  0  0  0  0  0  0  0  0  0  0
   -5.5526   -0.5489    0.5539 C   0  0  0  0  0  0  0  0  0  0  0  0
   -5.7920    2.0894   -0.3212 C   0  0  0  0  0  0  0  0  0  0  0  0
   -6.8159    0.0096    0.3594 C   0  0  0  0  0  0  0  0  0  0  0  0
   -6.9358    1.3286   -0.0783 C   0  0  0  0  0  0  0  0  0  0  0  0
    2.7648   -0.7674    1.3105 H   0  0  0  0  0  0  0  0  0  0  0  0
    2.8890   -2.0708   -1.3587 H   0  0  0  0  0  0  0  0  0  0  0  0
    0.0551    0.0878   -1.6862 H   0  0  0  0  0  0  0  0  0  0  0  0
    1.6114   -0.3935   -2.3687 H   0  0  0  0  0  0  0  0  0  0  0  0
    0.8530   -3.5895   -1.4798 H   0  0  0  0  0  0  0  0  0  0  0  0
   -0.7073   -3.0011   -0.9302 H   0  0  0  0  0  0  0  0  0  0  0  0
    0.8188   -0.0984    1.0787 H   0  0  0  0  0  0  0  0  0  0  0  0
    0.7406   -1.7843    1.6099 H   0  0  0  0  0  0  0  0  0  0  0  0
    2.0645    0.8626   -0.5197 H   0  0  0  0  0  0  0  0  0  0  0  0
    3.4769    0.3470   -1.4714 H   0  0  0  0  0  0  0  0  0  0  0  0
    5.0855   -1.5102   -0.4658 H   0  0  0  0  0  0  0  0  0  0  0  0
    4.6688   -2.2143    1.0988 H   0  0  0  0  0  0  0  0  0  0  0  0
    3.4645    1.7450    1.2474 H   0  0  0  0  0  0  0  0  0  0  0  0
    3.8704    2.4586   -0.3159 H   0  0  0  0  0  0  0  0  0  0  0  0
    6.4444   -0.4949    1.3026 H   0  0  0  0  0  0  0  0  0  0  0  0
    5.0145   -0.0209    2.2126 H   0  0  0  0  0  0  0  0  0  0  0  0
   -1.4971    1.0703    0.0536 H   0  0  0  0  0  0  0  0  0  0  0  0
    7.8569    0.3786   -0.2222 H   0  0  0  0  0  0  0  0  0  0  0  0
    7.8972    1.2375    1.3564 H   0  0  0  0  0  0  0  0  0  0  0  0
    8.4584    2.0415   -0.1190 H   0  0  0  0  0  0  0  0  0  0  0  0
   -3.6520    2.1440   -0.3220 H   0  0  0  0  0  0  0  0  0  0  0  0
   -5.5008   -1.5795    0.8956 H   0  0  0  0  0  0  0  0  0  0  0  0
   -7.7067   -0.5824    0.5486 H   0  0  0  0  0  0  0  0  0  0  0  0
   -7.9257    1.7518   -0.2259 H   0  0  0  0  0  0  0  0  0  0  0  0
   -6.8524    3.5978   -0.8274 H   0  0  0  0  0  0  0  0  0  0  0  0
  1 10  1  0  0  0  0
  1 11  1  0  0  0  0
  2  7  1  0  0  0  0
  2 20  1  0  0  0  0
  3 18  2  0  0  0  0
  4 25  1  0  0  0  0
  4 52  1  0  0  0  0
  5  8  1  0  0  0  0
  5  9  1  0  0  0  0
  5 29  1  0  0  0  0
  6 15  1  0  0  0  0
  6 16  1  0  0  0  0
  6 18  1  0  0  0  0
  7 17  2  0  0  0  0
  8 10  1  0  0  0  0
  8 11  1  0  0  0  0
  8 12  1  0  0  0  0
  9 13  1  0  0  0  0
  9 14  1  0  0  0  0
  9 28  1  0  0  0  0
 10 30  1  0  0  0  0
 10 31  1  0  0  0  0
 11 32  1  0  0  0  0
 11 33  1  0  0  0  0
 12 17  1  0  0  0  0
 12 34  1  0  0  0  0
 12 35  1  0  0  0  0
 13 15  1  0  0  0  0
 13 36  1  0  0  0  0
 13 37  1  0  0  0  0
 14 16  1  0  0  0  0
 14 38  1  0  0  0  0
 14 39  1  0  0  0  0
 15 40  1  0  0  0  0
 15 41  1  0  0  0  0
 16 42  1  0  0  0  0
 16 43  1  0  0  0  0
 17 19  1  0  0  0  0
 18 21  1  0  0  0  0
 19 20  2  0  0  0  0
 19 44  1  0  0  0  0
 20 22  1  0  0  0  0
 21 45  1  0  0  0  0
 21 46  1  0  0  0  0
 21 47  1  0  0  0  0
 22 23  2  0  0  0  0
 22 24  1  0  0  0  0
 23 25  1  0  0  0  0
 23 48  1  0  0  0  0
 24 26  2  0  0  0  0
 24 49  1  0  0  0  0
 25 27  2  0  0  0  0
 26 27  1  0  0  0  0
 26 50  1  0  0  0  0
 27 51  1  0  0  0  0
M  END
> <PUBCHEM_COMPOUND_CID>
56775724

> <PUBCHEM_CONFORMER_RMSD>
1

> <PUBCHEM_CONFORMER_DIVERSEORDER>
1
73
14
53
77
78
50
29
96
64
16
100
83
88
94
87
76
101
31
65
63
61
45
66
32
112
103
54
42
46
69
48
99
75
84
89
108
107
90
23
93
92
71
52
105
40
111
36
95
59
57
102
62
10
82
86
33
58
110
72
43
24
38
18
113
13
2
80
104
35
4
55
9
26
85
106
6
49
30
91
25
5
68
70
11
51
74
17
20
3
39
27
28
41
109
19
97
21
56
12
67
44
98
60
37
7
34
22
79
15
81
8
47

> <PUBCHEM_MMFF94_PARTIAL_CHARGES>
32
1 -0.52
10 0.26
11 0.26
12 0.18
15 0.3
16 0.3
17 0.11
18 0.57
19 -0.15
2 -0.02
20 0.09
21 0.06
22 0.05
23 -0.15
24 -0.15
25 0.08
26 -0.15
27 -0.15
29 0.36
3 -0.57
4 -0.53
44 0.15
48 0.15
49 0.15
5 -0.84
50 0.15
51 0.15
52 0.45
6 -0.66
7 -0.41
8 0.21
9 0.27

> <PUBCHEM_EFFECTIVE_ROTOR_COUNT>
8

> <PUBCHEM_PHARMACOPHORE_FEATURES>
10
1 1 acceptor
1 3 acceptor
1 4 donor
1 5 cation
1 5 donor
1 7 acceptor
4 1 8 10 11 rings
5 2 7 17 19 20 rings
6 22 23 24 25 26 27 rings
6 6 9 13 14 15 16 rings

> <PUBCHEM_HEAVY_ATOM_COUNT>
27

> <PUBCHEM_ATOM_DEF_STEREO_COUNT>
0

> <PUBCHEM_ATOM_UDEF_STEREO_COUNT>
0

> <PUBCHEM_BOND_DEF_STEREO_COUNT>
0

> <PUBCHEM_BOND_UDEF_STEREO_COUNT>
0

> <PUBCHEM_ISOTOPIC_ATOM_COUNT>
0

> <PUBCHEM_COMPONENT_COUNT>
1

> <PUBCHEM_CACTVS_TAUTO_COUNT>
3

> <PUBCHEM_CONFORMER_ID>
0362542C00000001

> <PUBCHEM_MMFF94_ENERGY>
66.1777

> <PUBCHEM_FEATURE_SELFOVERLAP>
50.747

> <PUBCHEM_SHAPE_FINGERPRINT>
10 15 18187368744384325971
10906281 52 18059308586416227915
11646440 116 13479130198869506504
11991303 11 17489583502063204998
12633257 1 16733546138792821294
13257819 101 18342738511606424823
13402501 40 18409728443941902585
13673619 4 8935000373786325843
13685833 64 7997973466287484762
13911987 19 17561368391806004403
14251751 18 9655577413434464736
14251764 18 17676206896426928786
14251764 30 9367342635030789165
14347424 109 18041551465433349874
14767858 380 16630806599609227995
14951699 99 18040442122245917348
15131766 46 18119246414728158204
15183329 4 18201721751682851793
15238133 3 17968104165970582700
15510800 12 11170177736729644904
15537594 2 14261344714495312263
15961568 22 18408605842469918029
17492 54 16845573114651227610
17980427 23 18115026415236731103
18335252 114 18131348601364262624
20157964 124 18343303639340769530
20281389 69 18113899342645365705
20642791 268 17386008429269948086
20715895 44 18337390435530712321
21033648 29 18040726843869704875
21344244 181 12535344618874926444
21521239 73 13470695845489127340
21641784 216 16630252411394431185
22122407 14 18114754853166189672
22950370 63 9583514330734449795
23559900 14 18196939863955371219
24771293 8 18408326567207377605
2838139 119 18340482365286140932
2916195 48 18334858286585847587
3103668 31 16699749410498009631
312425 54 17022618689375242570
33382 64 8862940593514871270
34797466 226 18130793305211179711
4073 2 17822296829077827306
4325135 7 18342736351981880975
504843 32 18059855124852199447
5104073 3 14997151175235306913
5718773 13 10231490592522104612
59682541 52 16486709000131415948
636775 8 8213872518047782440

> <PUBCHEM_SHAPE_MULTIPOLES>
517.23
19.97
2.88
1.24
0.46
1.02
-0.55
18.01
2.45
0.26
-0.86
0.22
-0.69
0.93

> <PUBCHEM_SHAPE_SELFOVERLAP>
1110.553

> <PUBCHEM_SHAPE_VOLUME>
285.7

> <PUBCHEM_COORDINATE_TYPE>
2
5
10

$$$$
