45783623
  -OEChem-12032416273D

 52 55  0     1  0  0  0  0  0999 V2000
   -1.8605   -3.1830    0.8995 O   0  0  0  0  0  0  0  0  0  0  0  0
    7.6855    2.0146   -0.7858 O   0  0  0  0  0  0  0  0  0  0  0  0
    5.1180    1.5970   -0.9515 O   0  0  0  0  0  0  0  0  0  0  0  0
   -3.9528   -0.4796   -0.4495 N   0  0  1  0  0  0  0  0  0  0  0  0
   -1.1130   -1.3489   -0.1466 N   0  0  0  0  0  0  0  0  0  0  0  0
   -0.4775   -3.1461    1.1183 N   0  0  0  0  0  0  0  0  0  0  0  0
    3.5632   -1.9298    1.0446 N   0  0  0  0  0  0  0  0  0  0  0  0
    5.1980   -0.3764    0.3320 N   0  0  0  0  0  0  0  0  0  0  0  0
   -3.6056   -1.8979   -0.2306 C   0  0  1  0  0  0  0  0  0  0  0  0
   -3.9748   -2.5994   -1.5508 C   0  0  0  0  0  0  0  0  0  0  0  0
   -4.5768   -1.5090   -2.4256 C   0  0  0  0  0  0  0  0  0  0  0  0
   -5.0401   -0.4665   -1.4281 C   0  0  0  0  0  0  0  0  0  0  0  0
   -4.3109    0.2202    0.7774 C   0  0  0  0  0  0  0  0  0  0  0  0
   -2.1516   -2.0899    0.1466 C   0  0  0  0  0  0  0  0  0  0  0  0
   -4.1793    1.7128    0.6306 C   0  0  0  0  0  0  0  0  0  0  0  0
   -2.9710    2.3399    0.9343 C   0  0  0  0  0  0  0  0  0  0  0  0
   -5.2660    2.4685    0.1906 C   0  0  0  0  0  0  0  0  0  0  0  0
   -0.1092   -2.0366    0.4710 C   0  0  0  0  0  0  0  0  0  0  0  0
   -2.8493    3.7229    0.7983 C   0  0  0  0  0  0  0  0  0  0  0  0
   -5.1445    3.8514    0.0546 C   0  0  0  0  0  0  0  0  0  0  0  0
    1.2525   -1.5886    0.4208 C   0  0  0  0  0  0  0  0  0  0  0  0
   -3.9361    4.4786    0.3584 C   0  0  0  0  0  0  0  0  0  0  0  0
    1.6009   -0.4295   -0.2637 C   0  0  0  0  0  0  0  0  0  0  0  0
    2.2619   -2.2966    1.0528 C   0  0  0  0  0  0  0  0  0  0  0  0
    2.9293   -0.0197   -0.2948 C   0  0  0  0  0  0  0  0  0  0  0  0
    3.8638   -0.7979    0.3692 C   0  0  0  0  0  0  0  0  0  0  0  0
    5.7268    0.7527   -0.3015 C   0  0  0  0  0  0  0  0  0  0  0  0
    7.2249    0.8587   -0.1171 C   0  0  0  0  0  0  0  0  0  0  0  0
    9.0943    2.1781   -0.6535 C   0  0  0  0  0  0  0  0  0  0  0  0
   -4.2323   -2.3255    0.5650 H   0  0  0  0  0  0  0  0  0  0  0  0
   -3.1250   -3.0753   -2.0519 H   0  0  0  0  0  0  0  0  0  0  0  0
   -4.7282   -3.3731   -1.3584 H   0  0  0  0  0  0  0  0  0  0  0  0
   -5.3925   -1.8837   -3.0509 H   0  0  0  0  0  0  0  0  0  0  0  0
   -3.8054   -1.0921   -3.0850 H   0  0  0  0  0  0  0  0  0  0  0  0
   -5.9986   -0.7683   -0.9871 H   0  0  0  0  0  0  0  0  0  0  0  0
   -5.1604    0.5050   -1.9162 H   0  0  0  0  0  0  0  0  0  0  0  0
   -5.3186   -0.0445    1.1261 H   0  0  0  0  0  0  0  0  0  0  0  0
   -3.6425   -0.0840    1.5950 H   0  0  0  0  0  0  0  0  0  0  0  0
   -2.1156    1.7625    1.2750 H   0  0  0  0  0  0  0  0  0  0  0  0
   -6.2152    1.9944   -0.0439 H   0  0  0  0  0  0  0  0  0  0  0  0
   -1.9083    4.2112    1.0341 H   0  0  0  0  0  0  0  0  0  0  0  0
   -5.9910    4.4400   -0.2867 H   0  0  0  0  0  0  0  0  0  0  0  0
   -3.8415    5.5553    0.2525 H   0  0  0  0  0  0  0  0  0  0  0  0
    0.8577    0.1726   -0.7804 H   0  0  0  0  0  0  0  0  0  0  0  0
    2.0741   -3.2108    1.6080 H   0  0  0  0  0  0  0  0  0  0  0  0
    3.1230    0.8870   -0.8438 H   0  0  0  0  0  0  0  0  0  0  0  0
    5.8438   -0.9812    0.8336 H   0  0  0  0  0  0  0  0  0  0  0  0
    7.6972   -0.0360   -0.5379 H   0  0  0  0  0  0  0  0  0  0  0  0
    7.4450    0.9277    0.9541 H   0  0  0  0  0  0  0  0  0  0  0  0
    9.3684    2.2895    0.3999 H   0  0  0  0  0  0  0  0  0  0  0  0
    9.6205    1.3253   -1.0930 H   0  0  0  0  0  0  0  0  0  0  0  0
    9.3868    3.0848   -1.1897 H   0  0  0  0  0  0  0  0  0  0  0  0
  1  6  1  0  0  0  0
  1 14  1  0  0  0  0
  2 28  1  0  0  0  0
  2 29  1  0  0  0  0
  3 27  2  0  0  0  0
  4  9  1  0  0  0  0
  4 12  1  0  0  0  0
  4 13  1  0  0  0  0
  5 14  2  0  0  0  0
  5 18  1  0  0  0  0
  6 18  2  0  0  0  0
  7 24  1  0  0  0  0
  7 26  2  0  0  0  0
  8 26  1  0  0  0  0
  8 27  1  0  0  0  0
  8 47  1  0  0  0  0
  9 10  1  0  0  0  0
  9 14  1  0  0  0  0
  9 30  1  0  0  0  0
 10 11  1  0  0  0  0
 10 31  1  0  0  0  0
 10 32  1  0  0  0  0
 11 12  1  0  0  0  0
 11 33  1  0  0  0  0
 11 34  1  0  0  0  0
 12 35  1  0  0  0  0
 12 36  1  0  0  0  0
 13 15  1  0  0  0  0
 13 37  1  0  0  0  0
 13 38  1  0  0  0  0
 15 16  2  0  0  0  0
 15 17  1  0  0  0  0
 16 19  1  0  0  0  0
 16 39  1  0  0  0  0
 17 20  2  0  0  0  0
 17 40  1  0  0  0  0
 18 21  1  0  0  0  0
 19 22  2  0  0  0  0
 19 41  1  0  0  0  0
 20 22  1  0  0  0  0
 20 42  1  0  0  0  0
 21 23  1  0  0  0  0
 21 24  2  0  0  0  0
 22 43  1  0  0  0  0
 23 25  2  0  0  0  0
 23 44  1  0  0  0  0
 24 45  1  0  0  0  0
 25 26  1  0  0  0  0
 25 46  1  0  0  0  0
 27 28  1  0  0  0  0
 28 48  1  0  0  0  0
 28 49  1  0  0  0  0
 29 50  1  0  0  0  0
 29 51  1  0  0  0  0
 29 52  1  0  0  0  0
M  END
> <PUBCHEM_COMPOUND_CID>
45783623

> <PUBCHEM_CONFORMER_RMSD>
1

> <PUBCHEM_CONFORMER_DIVERSEORDER>
1
56
47
13
45
22
34
6
46
9
58
49
8
26
40
19
48
16
53
18
7
12
36
24
23
50
44
30
35
5
2
20
42
33
39
3
25
55
57
11
21
52
51
41
4
54
17
37
38
28
14
31
15
29
43
27
10
32

> <PUBCHEM_MMFF94_PARTIAL_CHARGES>
36
1 -0.02
12 0.27
13 0.41
14 0.3
15 -0.14
16 -0.15
17 -0.15
18 0.46
19 -0.15
2 -0.56
20 -0.15
21 0.05
22 -0.15
23 -0.15
24 0.16
25 -0.15
26 0.43
27 0.57
28 0.34
29 0.28
3 -0.57
39 0.15
4 -0.81
40 0.15
41 0.15
42 0.15
43 0.15
44 0.15
45 0.15
46 0.15
47 0.37
5 -0.57
6 -0.41
7 -0.62
8 -0.55
9 0.45

> <PUBCHEM_EFFECTIVE_ROTOR_COUNT>
9

> <PUBCHEM_PHARMACOPHORE_FEATURES>
9
1 2 acceptor
1 3 acceptor
1 4 cation
1 8 donor
3 5 6 18 cation
5 1 5 6 14 18 rings
5 4 9 10 11 12 rings
6 15 16 17 19 20 22 rings
6 7 21 23 24 25 26 rings

> <PUBCHEM_HEAVY_ATOM_COUNT>
29

> <PUBCHEM_ATOM_DEF_STEREO_COUNT>
1

> <PUBCHEM_ATOM_UDEF_STEREO_COUNT>
0

> <PUBCHEM_BOND_DEF_STEREO_COUNT>
0

> <PUBCHEM_BOND_UDEF_STEREO_COUNT>
0

> <PUBCHEM_ISOTOPIC_ATOM_COUNT>
0

> <PUBCHEM_COMPONENT_COUNT>
1

> <PUBCHEM_CACTVS_TAUTO_COUNT>
11

> <PUBCHEM_CONFORMER_ID>
02BA9A4700000001

> <PUBCHEM_MMFF94_ENERGY>
67.3309

> <PUBCHEM_FEATURE_SELFOVERLAP>
45.683

> <PUBCHEM_SHAPE_FINGERPRINT>
10087517 78 18411136952575255916
10291535 26 18337678606551452163
10454371 7 18273220802762531932
10670039 82 18412823624860616592
10871710 139 18341044130688041749
10917259 128 18340754980753045288
10917259 69 18194972838602144300
11374522 363 17470158159547714404
11477941 20 17987223598918857861
12107183 9 17976249141355222594
12888983 3 17844514704197579600
12895837 130 18412827954493807465
14114211 80 17628924426901391649
14202776 33 18130782390902728669
14251764 75 17910403788441542401
14556957 393 18341602759646096349
14790565 3 18336268924979914090
15064981 113 17845358986396219302
15183329 4 18113891702763572854
15264996 163 18409161152351162245
15289351 153 18337945797537698008
155225 5 18340209592072077336
15575132 122 18269551651240821405
15685185 35 18333729122572925781
16112460 7 18187644674473958416
16992828 155 18262794056639806221
18603816 31 12252188536836461889
20511986 3 18042402426787436153
20771845 165 18130804329754568782
21033648 29 15864065421728849159
21133410 52 18128816534251364103
21774942 28 18412546510177732964
23569914 152 17268086653536802902
23576562 1 17335896787060133095
2838139 119 18412546548331057744
312425 83 17987523615148540383
397830 11 11098142227761244758
4169191 19 18040994081731299990
437795 83 18341334495894095204
44249763 50 17703208694471110250
445580 204 18411419531738090308
44802255 64 17632300120481542902
5104073 3 17603584132265198690
5171179 24 17773302633519443569
550186 7 17989485204185026087
563151 74 15502644954419734129
563151 97 18410573977110766386
6058803 2 18193535802047587499
6201320 215 18202001002594503160
6328613 192 18333730239258718778
636775 72 18339079419426954232
6608658 132 18342447179832958543
7288768 16 17895485709280748051
7808743 9 18341327774201270035
9982175 49 17895209834567423444

> <PUBCHEM_SHAPE_MULTIPOLES>
554.29
19.49
5.16
1.3
45.48
3.92
-0.52
18.34
-6.35
-7.31
0.85
-1.16
-0.73
-3.92

> <PUBCHEM_SHAPE_SELFOVERLAP>
1191.003

> <PUBCHEM_SHAPE_VOLUME>
306

> <PUBCHEM_COORDINATE_TYPE>
2
5
10

$$$$
