45361450
  -OEChem-12032416413D

 81 84  0     1  0  0  0  0  0999 V2000
   -0.7554   -0.8368   -0.8492 O   0  0  0  0  0  0  0  0  0  0  0  0
   -4.5883    2.7196   -0.3119 O   0  0  0  0  0  0  0  0  0  0  0  0
    5.7216   -0.3594    1.4767 O   0  0  0  0  0  0  0  0  0  0  0  0
    4.5468    0.1983   -0.4538 N   0  0  0  0  0  0  0  0  0  0  0  0
   -4.9575    0.6691    0.6949 N   0  0  0  0  0  0  0  0  0  0  0  0
    0.9219    2.4196    0.2268 C   0  0  1  0  0  0  0  0  0  0  0  0
    0.7737    0.8868   -0.0516 C   0  0  2  0  0  0  0  0  0  0  0  0
    2.0768    0.3101   -0.7127 C   0  0  1  0  0  0  0  0  0  0  0  0
   -0.5517    0.5762   -0.8051 C   0  0  2  0  0  0  0  0  0  0  0  0
   -0.3298    2.9309    0.9785 C   0  0  0  0  0  0  0  0  0  0  0  0
    2.1469    2.6497    1.1417 C   0  0  0  0  0  0  0  0  0  0  0  0
   -1.7904    1.1796   -0.1029 C   0  0  1  0  0  0  0  0  0  0  0  0
    3.3130    0.6133    0.1800 C   0  0  2  0  0  0  0  0  0  0  0  0
   -1.6260    2.6636    0.2250 C   0  0  0  0  0  0  0  0  0  0  0  0
    3.4380    2.0873    0.5644 C   0  0  0  0  0  0  0  0  0  0  0  0
    1.0937    3.2456   -1.0732 C   0  0  0  0  0  0  0  0  0  0  0  0
   -3.0675    0.9755   -0.9270 C   0  0  2  0  0  0  0  0  0  0  0  0
    2.0106   -1.2017   -0.9881 C   0  0  0  0  0  0  0  0  0  0  0  0
   -2.9122    1.6605   -2.2858 C   0  0  0  0  0  0  0  0  0  0  0  0
   -4.2713    1.5340   -0.1642 C   0  0  0  0  0  0  0  0  0  0  0  0
    5.6450   -0.2527    0.2555 C   0  0  0  0  0  0  0  0  0  0  0  0
    6.7806   -0.6412   -0.6464 C   0  0  0  0  0  0  0  0  0  0  0  0
    8.1300   -0.3909    0.0299 C   0  0  0  0  0  0  0  0  0  0  0  0
    6.6115   -2.0888   -1.1124 C   0  0  0  0  0  0  0  0  0  0  0  0
    8.4850   -1.4381    1.0849 C   0  0  0  0  0  0  0  0  0  0  0  0
    6.9691   -3.1103   -0.0341 C   0  0  0  0  0  0  0  0  0  0  0  0
    8.3571   -2.8569    0.5429 C   0  0  0  0  0  0  0  0  0  0  0  0
   -4.6707   -0.7493    0.8997 C   0  0  0  0  0  0  0  0  0  0  0  0
   -6.0961    1.1759    1.4535 C   0  0  0  0  0  0  0  0  0  0  0  0
   -5.8267   -1.6197    0.4992 C   0  0  0  0  0  0  0  0  0  0  0  0
   -6.8066   -1.9515    1.4347 C   0  0  0  0  0  0  0  0  0  0  0  0
   -5.9209   -2.0964   -0.8083 C   0  0  0  0  0  0  0  0  0  0  0  0
   -7.8807   -2.7601    1.0630 C   0  0  0  0  0  0  0  0  0  0  0  0
   -6.9949   -2.9050   -1.1801 C   0  0  0  0  0  0  0  0  0  0  0  0
   -7.9748   -3.2369   -0.2445 C   0  0  0  0  0  0  0  0  0  0  0  0
    0.6930    0.3812    0.9242 H   0  0  0  0  0  0  0  0  0  0  0  0
    2.2226    0.7918   -1.6879 H   0  0  0  0  0  0  0  0  0  0  0  0
   -0.4397    0.9203   -1.8347 H   0  0  0  0  0  0  0  0  0  0  0  0
   -0.2429    4.0076    1.1733 H   0  0  0  0  0  0  0  0  0  0  0  0
   -0.3921    2.4468    1.9626 H   0  0  0  0  0  0  0  0  0  0  0  0
    2.2794    3.7215    1.3372 H   0  0  0  0  0  0  0  0  0  0  0  0
    1.9711    2.1795    2.1186 H   0  0  0  0  0  0  0  0  0  0  0  0
   -1.9259    0.6480    0.8505 H   0  0  0  0  0  0  0  0  0  0  0  0
    3.2096    0.0353    1.1089 H   0  0  0  0  0  0  0  0  0  0  0  0
   -1.6447    3.3062   -0.6567 H   0  0  0  0  0  0  0  0  0  0  0  0
   -2.4372    3.0081    0.8760 H   0  0  0  0  0  0  0  0  0  0  0  0
    4.2393    2.2112    1.3044 H   0  0  0  0  0  0  0  0  0  0  0  0
    3.7517    2.6794   -0.3041 H   0  0  0  0  0  0  0  0  0  0  0  0
    2.0047    2.9909   -1.6208 H   0  0  0  0  0  0  0  0  0  0  0  0
    1.1485    4.3164   -0.8445 H   0  0  0  0  0  0  0  0  0  0  0  0
    0.2637    3.1051   -1.7712 H   0  0  0  0  0  0  0  0  0  0  0  0
   -3.2254   -0.0791   -1.1592 H   0  0  0  0  0  0  0  0  0  0  0  0
    1.7025   -1.7552   -0.0951 H   0  0  0  0  0  0  0  0  0  0  0  0
    2.9776   -1.6022   -1.3086 H   0  0  0  0  0  0  0  0  0  0  0  0
    1.3186   -1.4242   -1.8051 H   0  0  0  0  0  0  0  0  0  0  0  0
    4.6123    0.2951   -1.4630 H   0  0  0  0  0  0  0  0  0  0  0  0
   -0.8089   -1.1632    0.0652 H   0  0  0  0  0  0  0  0  0  0  0  0
   -2.7287    2.7358   -2.2403 H   0  0  0  0  0  0  0  0  0  0  0  0
   -3.8530    1.5537   -2.8423 H   0  0  0  0  0  0  0  0  0  0  0  0
   -2.1482    1.1962   -2.9138 H   0  0  0  0  0  0  0  0  0  0  0  0
    6.7410    0.0092   -1.5310 H   0  0  0  0  0  0  0  0  0  0  0  0
    8.1545    0.6062    0.4865 H   0  0  0  0  0  0  0  0  0  0  0  0
    8.9121   -0.4000   -0.7407 H   0  0  0  0  0  0  0  0  0  0  0  0
    7.2648   -2.2556   -1.9787 H   0  0  0  0  0  0  0  0  0  0  0  0
    5.5864   -2.2725   -1.4556 H   0  0  0  0  0  0  0  0  0  0  0  0
    7.8600   -1.3275    1.9766 H   0  0  0  0  0  0  0  0  0  0  0  0
    9.5166   -1.2728    1.4182 H   0  0  0  0  0  0  0  0  0  0  0  0
    6.9283   -4.1194   -0.4600 H   0  0  0  0  0  0  0  0  0  0  0  0
    6.2247   -3.0776    0.7704 H   0  0  0  0  0  0  0  0  0  0  0  0
    8.5617   -3.5772    1.3429 H   0  0  0  0  0  0  0  0  0  0  0  0
    9.1127   -3.0213   -0.2353 H   0  0  0  0  0  0  0  0  0  0  0  0
   -3.7606   -1.0840    0.4011 H   0  0  0  0  0  0  0  0  0  0  0  0
   -4.4592   -0.8821    1.9693 H   0  0  0  0  0  0  0  0  0  0  0  0
   -6.0417    0.8228    2.4874 H   0  0  0  0  0  0  0  0  0  0  0  0
   -6.1008    2.2697    1.4711 H   0  0  0  0  0  0  0  0  0  0  0  0
   -7.0256    0.8471    0.9811 H   0  0  0  0  0  0  0  0  0  0  0  0
   -6.7444   -1.5955    2.4595 H   0  0  0  0  0  0  0  0  0  0  0  0
   -5.1645   -1.8436   -1.5465 H   0  0  0  0  0  0  0  0  0  0  0  0
   -8.6428   -3.0200    1.7919 H   0  0  0  0  0  0  0  0  0  0  0  0
   -7.0685   -3.2759   -2.1982 H   0  0  0  0  0  0  0  0  0  0  0  0
   -8.8109   -3.8668   -0.5340 H   0  0  0  0  0  0  0  0  0  0  0  0
  1  9  1  0  0  0  0
  1 57  1  0  0  0  0
  2 20  2  0  0  0  0
  3 21  2  0  0  0  0
  4 13  1  0  0  0  0
  4 21  1  0  0  0  0
  4 56  1  0  0  0  0
  5 20  1  0  0  0  0
  5 28  1  0  0  0  0
  5 29  1  0  0  0  0
  6  7  1  0  0  0  0
  6 10  1  0  0  0  0
  6 11  1  0  0  0  0
  6 16  1  0  0  0  0
  7  8  1  0  0  0  0
  7  9  1  0  0  0  0
  7 36  1  0  0  0  0
  8 13  1  0  0  0  0
  8 18  1  0  0  0  0
  8 37  1  0  0  0  0
  9 12  1  0  0  0  0
  9 38  1  0  0  0  0
 10 14  1  0  0  0  0
 10 39  1  0  0  0  0
 10 40  1  0  0  0  0
 11 15  1  0  0  0  0
 11 41  1  0  0  0  0
 11 42  1  0  0  0  0
 12 14  1  0  0  0  0
 12 17  1  0  0  0  0
 12 43  1  0  0  0  0
 13 15  1  0  0  0  0
 13 44  1  0  0  0  0
 14 45  1  0  0  0  0
 14 46  1  0  0  0  0
 15 47  1  0  0  0  0
 15 48  1  0  0  0  0
 16 49  1  0  0  0  0
 16 50  1  0  0  0  0
 16 51  1  0  0  0  0
 17 19  1  0  0  0  0
 17 20  1  0  0  0  0
 17 52  1  0  0  0  0
 18 53  1  0  0  0  0
 18 54  1  0  0  0  0
 18 55  1  0  0  0  0
 19 58  1  0  0  0  0
 19 59  1  0  0  0  0
 19 60  1  0  0  0  0
 21 22  1  0  0  0  0
 22 23  1  0  0  0  0
 22 24  1  0  0  0  0
 22 61  1  0  0  0  0
 23 25  1  0  0  0  0
 23 62  1  0  0  0  0
 23 63  1  0  0  0  0
 24 26  1  0  0  0  0
 24 64  1  0  0  0  0
 24 65  1  0  0  0  0
 25 27  1  0  0  0  0
 25 66  1  0  0  0  0
 25 67  1  0  0  0  0
 26 27  1  0  0  0  0
 26 68  1  0  0  0  0
 26 69  1  0  0  0  0
 27 70  1  0  0  0  0
 27 71  1  0  0  0  0
 28 30  1  0  0  0  0
 28 72  1  0  0  0  0
 28 73  1  0  0  0  0
 29 74  1  0  0  0  0
 29 75  1  0  0  0  0
 29 76  1  0  0  0  0
 30 31  2  0  0  0  0
 30 32  1  0  0  0  0
 31 33  1  0  0  0  0
 31 77  1  0  0  0  0
 32 34  2  0  0  0  0
 32 78  1  0  0  0  0
 33 35  2  0  0  0  0
 33 79  1  0  0  0  0
 34 35  1  0  0  0  0
 34 80  1  0  0  0  0
 35 81  1  0  0  0  0
M  END
> <PUBCHEM_COMPOUND_CID>
45361450

> <PUBCHEM_CONFORMER_RMSD>
1.2

> <PUBCHEM_CONFORMER_DIVERSEORDER>
1
168
57
114
52
35
152
137
198
30
112
12
165
47
54
126
164
67
159
157
92
177
69
176
180
128
109
199
124
53
2
196
150
121
116
50
154
170
83
101
153
62
45
138
174
28
104
201
146
143
111
169
161
88
139
131
160
189
151
32
84
117
37
110
58
171
59
158
195
175
129
27
197
136
145
172
9
148
183
193
15
119
3
65
140
115
192
141
56
135
75
184
178
95
122
103
26
48
77
24
132
147
79
149
185
39
13
200
190
133
167
31
61
20
142
76
125
97
100
188
130
127
120
34
90
68
7
181
23
186
96
123
93
105
8
179
70
162
166
118
40
14
18
4
98
163
87
134
17
16
80
64
113
144
49
91
44
55
60
89
107
11
187
6
102
46
51
191
86
108
85
10
106
63
5
155
72
29
66
82
19
74
173
42
194
33
99
78
73
22
182
81
43
41
38
36
71
94
25
156
21

> <PUBCHEM_MMFF94_PARTIAL_CHARGES>
26
1 -0.68
13 0.3
17 0.06
2 -0.57
20 0.57
21 0.57
22 0.06
28 0.44
29 0.3
3 -0.57
30 -0.14
31 -0.15
32 -0.15
33 -0.15
34 -0.15
35 -0.15
4 -0.73
5 -0.66
56 0.37
57 0.4
77 0.15
78 0.15
79 0.15
80 0.15
81 0.15
9 0.28

> <PUBCHEM_EFFECTIVE_ROTOR_COUNT>
10.8

> <PUBCHEM_PHARMACOPHORE_FEATURES>
10
1 1 acceptor
1 1 donor
1 19 hydrophobe
1 2 acceptor
1 3 acceptor
1 4 donor
6 22 23 24 25 26 27 rings
6 30 31 32 33 34 35 rings
6 6 7 8 11 13 15 rings
6 6 7 9 10 12 14 rings

> <PUBCHEM_HEAVY_ATOM_COUNT>
35

> <PUBCHEM_ATOM_DEF_STEREO_COUNT>
6

> <PUBCHEM_ATOM_UDEF_STEREO_COUNT>
1

> <PUBCHEM_BOND_DEF_STEREO_COUNT>
0

> <PUBCHEM_BOND_UDEF_STEREO_COUNT>
0

> <PUBCHEM_ISOTOPIC_ATOM_COUNT>
0

> <PUBCHEM_COMPONENT_COUNT>
1

> <PUBCHEM_CACTVS_TAUTO_COUNT>
2

> <PUBCHEM_CONFORMER_ID>
02B4292A00000001

> <PUBCHEM_MMFF94_ENERGY>
99.1906

> <PUBCHEM_FEATURE_SELFOVERLAP>
50.761

> <PUBCHEM_SHAPE_FINGERPRINT>
11456790 92 16917063331589713090
11578821 258 9871161962057078266
117089 54 18335989730699740859
11963148 33 18336823096532814074
12013929 27 18115028503239956238
12120059 9 18191000379830552338
12166972 35 17967822639243651500
12522641 126 18041850643833238308
12539765 74 8358260363157820488
12645989 146 18340209704025615063
12895837 130 8214144041294487457
13673619 4 18333730256001011141
13782708 43 18260828202351225476
13811026 1 18412259545072067094
14359421 15 17676762132804574523
14931854 50 17458339745451925203
15064986 96 17346047667016576127
15347591 1 18410855473024828000
15510800 12 18115033012702266507
16994733 274 10519981552454475806
18608769 82 18339643343683024760
20105231 36 18060146427795004734
2026 5 18261110738612984082
20691028 202 9511164241208282586
21130935 74 18343865528326161568
21298829 104 9583518724422722810
21987483 16 17769931609016928043
23522609 53 18121815860668114757
23576562 1 8789728469228500490
25025965 108 18271796961275689319
255183 451 18187084004779491421
2747138 104 18131633353464323928
3178227 256 18060140929798514984
3383291 50 18408600383587727082
3504750 166 18201438117249622407
393628 194 9943516414852695995
406291 66 18411136965444515483
4169191 19 8790889588104676599
4339292 15 18040989661371357390
437795 83 11386367028423199535
4461854 278 17917153895802739183
4516262 110 10879449262075352579
4616759 239 17702946920746848457
474113 269 18271517711407575119
504579 68 15430034361619585631
5104073 3 18060419153253543681
54039377 194 18411421726424154942
5718773 13 18410292531771136771
57303763 176 18342174455234184069
58083652 198 16773500131777153424
5937810 71 10665225939267735655
6289498 60 11311781639757406362
636775 8 18341340981822122686
6376802 90 17901383394350617780
6691757 9 15625932149607460885
9896288 288 17986396594260306585
9962374 69 18269829981510551294
999808 66 18411700967442845484

> <PUBCHEM_SHAPE_MULTIPOLES>
692.71
26.78
4.3
1.39
13.37
0.36
0.16
34.17
-5.46
-2.74
-0.06
-1.01
-0.1
0.28

> <PUBCHEM_SHAPE_SELFOVERLAP>
1443.947

> <PUBCHEM_SHAPE_VOLUME>
387.5

> <PUBCHEM_COORDINATE_TYPE>
2
5
10

$$$$
