56775426
  -OEChem-12032416213D

 52 54  0     0  0  0  0  0  0999 V2000
    1.0181   -1.3618    2.3376 O   0  0  0  0  0  0  0  0  0  0  0  0
    3.9995   -1.0245   -1.2904 O   0  0  0  0  0  0  0  0  0  0  0  0
   -5.6626    2.5751    0.5691 O   0  0  0  0  0  0  0  0  0  0  0  0
   -1.3645   -1.8215    0.5184 N   0  0  0  0  0  0  0  0  0  0  0  0
   -4.5867    0.7560   -0.3956 N   0  0  0  0  0  0  0  0  0  0  0  0
    2.7348   -1.5994   -1.3189 N   0  0  0  0  0  0  0  0  0  0  0  0
    5.3761    1.6418    0.4598 N   0  0  0  0  0  0  0  0  0  0  0  0
    0.0098   -1.3154    0.4568 C   0  0  0  0  0  0  0  0  0  0  0  0
   -2.2400   -0.9326   -0.2414 C   0  0  0  0  0  0  0  0  0  0  0  0
    0.9198   -2.2723    1.2189 C   0  0  0  0  0  0  0  0  0  0  0  0
    0.2384   -0.3703    1.6308 C   0  0  0  0  0  0  0  0  0  0  0  0
    0.4087   -0.8759   -0.9186 C   0  0  0  0  0  0  0  0  0  0  0  0
   -2.2769    0.4549    0.4120 C   0  0  0  0  0  0  0  0  0  0  0  0
   -3.6527   -1.5259   -0.3204 C   0  0  0  0  0  0  0  0  0  0  0  0
   -3.2609    1.3723   -0.3117 C   0  0  0  0  0  0  0  0  0  0  0  0
   -4.6105   -0.5683   -1.0292 C   0  0  0  0  0  0  0  0  0  0  0  0
    1.8984   -0.6114   -0.9883 C   0  0  0  0  0  0  0  0  0  0  0  0
   -5.7040    1.4466    0.0725 C   0  0  0  0  0  0  0  0  0  0  0  0
    2.5716    0.5977   -0.7423 C   0  0  0  0  0  0  0  0  0  0  0  0
    3.8893    0.2840   -0.9458 C   0  0  0  0  0  0  0  0  0  0  0  0
   -7.0323    0.7429   -0.0470 C   0  0  0  0  0  0  0  0  0  0  0  0
    5.1399    1.0486   -0.8676 C   0  0  0  0  0  0  0  0  0  0  0  0
    6.3330    2.7379    0.3550 C   0  0  0  0  0  0  0  0  0  0  0  0
    5.8539    0.6215    1.3864 C   0  0  0  0  0  0  0  0  0  0  0  0
   -1.9348   -0.8482   -1.2900 H   0  0  0  0  0  0  0  0  0  0  0  0
   -1.7329   -1.9626    1.4587 H   0  0  0  0  0  0  0  0  0  0  0  0
    1.9145   -2.5017    0.8350 H   0  0  0  0  0  0  0  0  0  0  0  0
    0.4736   -3.2247    1.5308 H   0  0  0  0  0  0  0  0  0  0  0  0
   -0.6033   -0.0815    2.2661 H   0  0  0  0  0  0  0  0  0  0  0  0
    0.8380    0.5251    1.4447 H   0  0  0  0  0  0  0  0  0  0  0  0
   -0.0718    0.0550   -1.2407 H   0  0  0  0  0  0  0  0  0  0  0  0
    0.1732   -1.6444   -1.6679 H   0  0  0  0  0  0  0  0  0  0  0  0
   -1.3196    0.9784    0.3779 H   0  0  0  0  0  0  0  0  0  0  0  0
   -2.5971    0.3734    1.4589 H   0  0  0  0  0  0  0  0  0  0  0  0
   -4.0328   -1.7235    0.6910 H   0  0  0  0  0  0  0  0  0  0  0  0
   -3.6349   -2.4854   -0.8513 H   0  0  0  0  0  0  0  0  0  0  0  0
   -3.3126    2.3375    0.2022 H   0  0  0  0  0  0  0  0  0  0  0  0
   -2.9243    1.5652   -1.3374 H   0  0  0  0  0  0  0  0  0  0  0  0
   -4.3102   -0.4317   -2.0750 H   0  0  0  0  0  0  0  0  0  0  0  0
   -5.6126   -1.0005   -1.0370 H   0  0  0  0  0  0  0  0  0  0  0  0
    2.1620    1.5572   -0.4629 H   0  0  0  0  0  0  0  0  0  0  0  0
   -7.0198   -0.1880    0.5261 H   0  0  0  0  0  0  0  0  0  0  0  0
   -7.2625    0.5451   -1.0972 H   0  0  0  0  0  0  0  0  0  0  0  0
   -7.8211    1.3830    0.3602 H   0  0  0  0  0  0  0  0  0  0  0  0
    5.0510    1.8519   -1.6124 H   0  0  0  0  0  0  0  0  0  0  0  0
    5.9980    0.4421   -1.1868 H   0  0  0  0  0  0  0  0  0  0  0  0
    5.9448    3.5324   -0.2921 H   0  0  0  0  0  0  0  0  0  0  0  0
    7.2997    2.4087   -0.0434 H   0  0  0  0  0  0  0  0  0  0  0  0
    6.5043    3.1946    1.3364 H   0  0  0  0  0  0  0  0  0  0  0  0
    5.1170   -0.1793    1.5131 H   0  0  0  0  0  0  0  0  0  0  0  0
    6.0090    1.0534    2.3818 H   0  0  0  0  0  0  0  0  0  0  0  0
    6.7995    0.1716    1.0617 H   0  0  0  0  0  0  0  0  0  0  0  0
  1 10  1  0  0  0  0
  1 11  1  0  0  0  0
  2  6  1  0  0  0  0
  2 20  1  0  0  0  0
  3 18  2  0  0  0  0
  4  8  1  0  0  0  0
  4  9  1  0  0  0  0
  4 26  1  0  0  0  0
  5 15  1  0  0  0  0
  5 16  1  0  0  0  0
  5 18  1  0  0  0  0
  6 17  2  0  0  0  0
  7 22  1  0  0  0  0
  7 23  1  0  0  0  0
  7 24  1  0  0  0  0
  8 10  1  0  0  0  0
  8 11  1  0  0  0  0
  8 12  1  0  0  0  0
  9 13  1  0  0  0  0
  9 14  1  0  0  0  0
  9 25  1  0  0  0  0
 10 27  1  0  0  0  0
 10 28  1  0  0  0  0
 11 29  1  0  0  0  0
 11 30  1  0  0  0  0
 12 17  1  0  0  0  0
 12 31  1  0  0  0  0
 12 32  1  0  0  0  0
 13 15  1  0  0  0  0
 13 33  1  0  0  0  0
 13 34  1  0  0  0  0
 14 16  1  0  0  0  0
 14 35  1  0  0  0  0
 14 36  1  0  0  0  0
 15 37  1  0  0  0  0
 15 38  1  0  0  0  0
 16 39  1  0  0  0  0
 16 40  1  0  0  0  0
 17 19  1  0  0  0  0
 18 21  1  0  0  0  0
 19 20  2  0  0  0  0
 19 41  1  0  0  0  0
 20 22  1  0  0  0  0
 21 42  1  0  0  0  0
 21 43  1  0  0  0  0
 21 44  1  0  0  0  0
 22 45  1  0  0  0  0
 22 46  1  0  0  0  0
 23 47  1  0  0  0  0
 23 48  1  0  0  0  0
 23 49  1  0  0  0  0
 24 50  1  0  0  0  0
 24 51  1  0  0  0  0
 24 52  1  0  0  0  0
M  END
> <PUBCHEM_COMPOUND_CID>
56775426

> <PUBCHEM_CONFORMER_RMSD>
1

> <PUBCHEM_CONFORMER_DIVERSEORDER>
1
95
135
162
35
142
146
66
163
78
114
32
144
98
58
136
21
57
30
40
112
96
132
154
63
43
153
103
48
3
7
82
149
45
55
108
85
97
81
164
46
53
20
87
137
61
4
25
158
79
14
156
15
54
75
119
122
29
64
126
76
92
155
16
13
8
159
84
151
88
128
127
118
9
38
86
123
152
93
59
18
31
22
80
60
148
138
143
10
157
83
52
160
161
141
109
19
147
47
145
165
71
129
33
69
2
111
89
117
6
113
120
49
11
41
28
130
72
39
77
65
42
91
99
5
105
106
102
133
139
107
100
51
70
115
110
74
121
150
134
67
24
73
124
62
34
68
27
12
37
140
94
36
104
125
26
116
101
44
56
23
90
131
50
17

> <PUBCHEM_MMFF94_PARTIAL_CHARGES>
24
1 -0.52
10 0.26
11 0.26
12 0.18
15 0.3
16 0.3
17 0.11
18 0.57
19 -0.15
2 -0.02
20 -0.04
21 0.06
22 0.45
23 0.27
24 0.27
26 0.36
3 -0.57
4 -0.84
41 0.15
5 -0.66
6 -0.41
7 -0.81
8 0.21
9 0.27

> <PUBCHEM_EFFECTIVE_ROTOR_COUNT>
9

> <PUBCHEM_PHARMACOPHORE_FEATURES>
9
1 1 acceptor
1 3 acceptor
1 4 cation
1 4 donor
1 6 acceptor
1 7 cation
4 1 8 10 11 rings
5 2 6 17 19 20 rings
6 5 9 13 14 15 16 rings

> <PUBCHEM_HEAVY_ATOM_COUNT>
24

> <PUBCHEM_ATOM_DEF_STEREO_COUNT>
0

> <PUBCHEM_ATOM_UDEF_STEREO_COUNT>
0

> <PUBCHEM_BOND_DEF_STEREO_COUNT>
0

> <PUBCHEM_BOND_UDEF_STEREO_COUNT>
0

> <PUBCHEM_ISOTOPIC_ATOM_COUNT>
0

> <PUBCHEM_COMPONENT_COUNT>
1

> <PUBCHEM_CACTVS_TAUTO_COUNT>
1

> <PUBCHEM_CONFORMER_ID>
0362530200000001

> <PUBCHEM_MMFF94_ENERGY>
55.4323

> <PUBCHEM_FEATURE_SELFOVERLAP>
45.671

> <PUBCHEM_SHAPE_FINGERPRINT>
10319926 262 13190331327903422631
10692045 39 17676759891210823602
10906281 52 18041574649582742428
11135609 201 18411707595368668187
117890 112 18410011074496469796
11954058 11 9079106765631795266
11961588 58 18343858914308640471
12422481 6 16298927785352134510
12623949 98 10881402011210300656
12633257 1 14418146131249718777
12895836 83 18131068238757493831
12895837 130 18270683206681051301
13533116 47 18040990710313932434
13690498 29 16343128260452751799
13692114 37 17168152255988708107
13782708 43 11097853003598174408
13911987 19 16415205615065521718
13914758 101 18342738503792021298
13955234 65 17898010136006445723
14123256 34 11887665204780816109
14216079 64 8862946061325172445
14251757 52 18339644422321807089
14251764 38 18193277618424931964
14347332 77 12822201658539626908
14420673 8 7925370540030983252
14466204 15 17821720654798729916
14739800 52 18336815420966645168
15183329 4 14979960234073971961
15188451 53 11169919407389174681
17492 54 15984825964965152454
17980427 23 18115869770872812044
1813 80 12751238077948785218
18222031 100 12319735843218274774
18769570 83 18409162233949846768
19377110 9 17676203585540179947
20715895 44 18342739624430481712
20871999 31 14764358119173456363
21033648 29 18188502371011232134
212916 134 18187639258805145442
21304304 249 7997966873645275737
21403212 168 16515949433064920688
21424621 283 18407761447313627200
21637258 2 10375877355236664756
21641784 216 15841284683109229000
22950370 63 10015594917144302342
23016692 55 11743840265576909840
23559900 14 18129103325395495006
2838139 119 18342734156800145924
2916195 48 18410294735047038053
3472631 163 18409165541158859144
34797466 226 17561091297500783349
3680242 22 17967249784852869900
4340502 62 16660657219849521867
465052 167 12396300348693540546
474 4 17531260456259737503
5104073 3 18040156201777718923
5385378 56 17822007571662476450
543368 44 18412544310901393245
9981440 41 18187086182370102115

> <PUBCHEM_SHAPE_MULTIPOLES>
456.38
16.14
2.37
1.45
2.66
0.56
-0.44
13.88
0.21
-0.33
-0.52
-1.36
-0.55
0.09

> <PUBCHEM_SHAPE_SELFOVERLAP>
943.225

> <PUBCHEM_SHAPE_VOLUME>
263.5

> <PUBCHEM_COORDINATE_TYPE>
2
5
10

$$$$
