28962369
  -OEChem-12032416143D

 51 53  0     1  0  0  0  0  0999 V2000
   -2.9710    0.8221    1.5249 S   0  0  0  0  0  0  0  0  0  0  0  0
   -4.2166    0.3027   -1.0773 S   0  0  0  0  0  0  0  0  0  0  0  0
   -0.0738   -2.5744    0.7972 O   0  0  0  0  0  0  0  0  0  0  0  0
    1.1490   -1.6157   -1.7629 O   0  0  0  0  0  0  0  0  0  0  0  0
   -0.5435   -5.1311   -0.2740 O   0  0  0  0  0  0  0  0  0  0  0  0
   -2.2727    1.8817    2.2275 O   0  0  0  0  0  0  0  0  0  0  0  0
   -4.2263    0.3096    2.0398 O   0  0  0  0  0  0  0  0  0  0  0  0
    2.2911    0.1640    0.1736 N   0  0  0  0  0  0  0  0  0  0  0  0
   -1.9044   -0.4790    1.2652 N   0  0  0  0  0  0  0  0  0  0  0  0
    1.8257   -1.1649    0.5300 C   0  0  1  0  0  0  0  0  0  0  0  0
    0.4126   -1.2527    1.1206 C   0  0  1  0  0  0  0  0  0  0  0  0
    1.7817   -2.1655   -0.6146 C   0  0  1  0  0  0  0  0  0  0  0  0
    0.9127   -3.2567   -0.0007 C   0  0  2  0  0  0  0  0  0  0  0  0
    3.4040    0.0799   -0.7816 C   0  0  0  0  0  0  0  0  0  0  0  0
    2.6802    0.9124    1.3764 C   0  0  0  0  0  0  0  0  0  0  0  0
    4.2655    2.3245    0.0027 C   0  0  0  0  0  0  0  0  0  0  0  0
    3.8713    1.4728   -1.2088 C   0  0  0  0  0  0  0  0  0  0  0  0
    3.1221    2.3340    1.0229 C   0  0  0  0  0  0  0  0  0  0  0  0
   -0.6115   -0.2531    0.5947 C   0  0  0  0  0  0  0  0  0  0  0  0
    0.2120   -4.1684   -0.9914 C   0  0  0  0  0  0  0  0  0  0  0  0
    4.6347    3.7434   -0.4209 C   0  0  0  0  0  0  0  0  0  0  0  0
   -3.2770    1.3729   -0.1266 C   0  0  0  0  0  0  0  0  0  0  0  0
   -2.9135    2.5025   -0.8264 C   0  0  0  0  0  0  0  0  0  0  0  0
   -3.4131    2.4891   -2.1606 C   0  0  0  0  0  0  0  0  0  0  0  0
   -4.1393    1.3499   -2.4298 C   0  0  0  0  0  0  0  0  0  0  0  0
    2.5128   -1.6043    1.2713 H   0  0  0  0  0  0  0  0  0  0  0  0
    0.4590   -1.1767    2.2141 H   0  0  0  0  0  0  0  0  0  0  0  0
    2.7652   -2.5523   -0.9029 H   0  0  0  0  0  0  0  0  0  0  0  0
    1.5011   -3.8580    0.7044 H   0  0  0  0  0  0  0  0  0  0  0  0
    3.1347   -0.4195   -1.7150 H   0  0  0  0  0  0  0  0  0  0  0  0
    4.2497   -0.4708   -0.3478 H   0  0  0  0  0  0  0  0  0  0  0  0
    3.4938    0.4034    1.9104 H   0  0  0  0  0  0  0  0  0  0  0  0
    1.8356    0.9864    2.0713 H   0  0  0  0  0  0  0  0  0  0  0  0
    5.1475    1.8704    0.4740 H   0  0  0  0  0  0  0  0  0  0  0  0
    4.7258    1.3773   -1.8897 H   0  0  0  0  0  0  0  0  0  0  0  0
    3.0698    1.9691   -1.7721 H   0  0  0  0  0  0  0  0  0  0  0  0
    2.2651    2.8914    0.6221 H   0  0  0  0  0  0  0  0  0  0  0  0
    3.4398    2.8531    1.9351 H   0  0  0  0  0  0  0  0  0  0  0  0
   -0.7694   -0.3831   -0.4807 H   0  0  0  0  0  0  0  0  0  0  0  0
   -0.2745    0.7706    0.7806 H   0  0  0  0  0  0  0  0  0  0  0  0
    0.9351   -4.6879   -1.6274 H   0  0  0  0  0  0  0  0  0  0  0  0
   -0.4925   -3.6112   -1.6171 H   0  0  0  0  0  0  0  0  0  0  0  0
    3.7898    4.2497   -0.8998 H   0  0  0  0  0  0  0  0  0  0  0  0
    5.4685    3.7316   -1.1306 H   0  0  0  0  0  0  0  0  0  0  0  0
    4.9395    4.3397    0.4455 H   0  0  0  0  0  0  0  0  0  0  0  0
    1.2448   -2.2572   -2.4871 H   0  0  0  0  0  0  0  0  0  0  0  0
   -2.3341   -1.3831    1.0278 H   0  0  0  0  0  0  0  0  0  0  0  0
   -0.9773   -5.7021   -0.9307 H   0  0  0  0  0  0  0  0  0  0  0  0
   -2.3171    3.3012   -0.4045 H   0  0  0  0  0  0  0  0  0  0  0  0
   -3.2479    3.2749   -2.8863 H   0  0  0  0  0  0  0  0  0  0  0  0
   -4.6280    1.0825   -3.3561 H   0  0  0  0  0  0  0  0  0  0  0  0
  1  6  2  0  0  0  0
  1  7  2  0  0  0  0
  1  9  1  0  0  0  0
  1 22  1  0  0  0  0
  2 22  1  0  0  0  0
  2 25  1  0  0  0  0
  3 11  1  0  0  0  0
  3 13  1  0  0  0  0
  4 12  1  0  0  0  0
  4 46  1  0  0  0  0
  5 20  1  0  0  0  0
  5 48  1  0  0  0  0
  8 10  1  0  0  0  0
  8 14  1  0  0  0  0
  8 15  1  0  0  0  0
  9 19  1  0  0  0  0
  9 47  1  0  0  0  0
 10 11  1  0  0  0  0
 10 12  1  0  0  0  0
 10 26  1  0  0  0  0
 11 19  1  0  0  0  0
 11 27  1  0  0  0  0
 12 13  1  0  0  0  0
 12 28  1  0  0  0  0
 13 20  1  0  0  0  0
 13 29  1  0  0  0  0
 14 17  1  0  0  0  0
 14 30  1  0  0  0  0
 14 31  1  0  0  0  0
 15 18  1  0  0  0  0
 15 32  1  0  0  0  0
 15 33  1  0  0  0  0
 16 17  1  0  0  0  0
 16 18  1  0  0  0  0
 16 21  1  0  0  0  0
 16 34  1  0  0  0  0
 17 35  1  0  0  0  0
 17 36  1  0  0  0  0
 18 37  1  0  0  0  0
 18 38  1  0  0  0  0
 19 39  1  0  0  0  0
 19 40  1  0  0  0  0
 20 41  1  0  0  0  0
 20 42  1  0  0  0  0
 21 43  1  0  0  0  0
 21 44  1  0  0  0  0
 21 45  1  0  0  0  0
 22 23  2  0  0  0  0
 23 24  1  0  0  0  0
 23 49  1  0  0  0  0
 24 25  2  0  0  0  0
 24 50  1  0  0  0  0
 25 51  1  0  0  0  0
M  END
> <PUBCHEM_COMPOUND_CID>
28962369

> <PUBCHEM_CONFORMER_RMSD>
0.8

> <PUBCHEM_CONFORMER_DIVERSEORDER>
1
69
134
126
11
137
138
149
160
40
152
121
94
83
77
116
168
112
20
147
165
73
63
113
78
141
50
123
142
7
166
62
60
128
39
114
43
75
25
2
82
154
52
36
90
124
74
111
159
156
127
15
35
143
151
117
174
102
118
145
76
97
17
26
148
108
136
140
42
14
72
153
56
155
119
59
162
105
91
172
101
103
132
150
61
28
19
22
27
95
133
13
135
131
9
93
79
57
85
99
122
98
80
45
18
47
48
129
164
96
8
161
92
12
10
68
171
23
65
64
173
120
158
4
81
125
33
32
86
84
167
110
169
38
29
31
89
49
130
157
46
163
44
100
58
34
115
70
24
67
41
66
139
5
109
170
53
30
51
6
144
104
146
107
87
21
71
106
16
37
3
88
55
54

> <PUBCHEM_MMFF94_PARTIAL_CHARGES>
27
1 1.5
10 0.27
11 0.28
12 0.28
13 0.28
14 0.27
15 0.27
19 0.36
2 -0.08
20 0.28
22 -0.02
23 -0.15
24 -0.15
25 -0.11
3 -0.56
4 -0.68
46 0.4
47 0.42
48 0.4
49 0.15
5 -0.68
50 0.15
51 0.15
6 -0.65
7 -0.65
8 -0.81
9 -0.91

> <PUBCHEM_EFFECTIVE_ROTOR_COUNT>
8.2

> <PUBCHEM_PHARMACOPHORE_FEATURES>
12
1 3 acceptor
1 4 acceptor
1 4 donor
1 5 acceptor
1 5 donor
1 6 acceptor
1 7 acceptor
1 8 cation
1 9 donor
5 2 22 23 24 25 rings
5 3 10 11 12 13 rings
6 8 14 15 16 17 18 rings

> <PUBCHEM_HEAVY_ATOM_COUNT>
25

> <PUBCHEM_ATOM_DEF_STEREO_COUNT>
4

> <PUBCHEM_ATOM_UDEF_STEREO_COUNT>
0

> <PUBCHEM_BOND_DEF_STEREO_COUNT>
0

> <PUBCHEM_BOND_UDEF_STEREO_COUNT>
0

> <PUBCHEM_ISOTOPIC_ATOM_COUNT>
0

> <PUBCHEM_COMPONENT_COUNT>
1

> <PUBCHEM_CACTVS_TAUTO_COUNT>
1

> <PUBCHEM_CONFORMER_ID>
01B9EE4100000001

> <PUBCHEM_MMFF94_ENERGY>
42.7554

> <PUBCHEM_FEATURE_SELFOVERLAP>
60.92

> <PUBCHEM_SHAPE_FINGERPRINT>
10498660 4 18334011730751270952
10670039 82 17112706337464750044
10764073 3 11700566108375650698
10871710 139 17324374389883374332
10928967 22 13326564194329678653
11582403 64 17823112606406880147
12160290 23 18124308578166016578
12633257 1 13840257109258265780
12788726 201 17686037797637763522
13134695 92 17759521071361823982
13681431 1 17834957469021593194
13899415 180 17257918309135492183
13911987 19 18338796822651447745
13947920 24 18046889735840983527
14251764 38 18042109986537711669
14468879 13 17967808315495985689
14957384 54 18041265678025234696
15842332 3 17487333742870167769
20567600 299 18049432652442672276
21304303 282 17693048184944547798
21524375 3 18336554888566987330
21641784 216 17326343619608995588
21860390 5 17903619805464837862
22907989 373 17766563825821381620
23557571 272 17313966133905307401
238 59 18338790105169070340
26353 1 16901571529764290142
341906 21 16515687723512330109
376196 1 17968646134365373017
469060 322 18043818808549400411
59025328 239 17117444712361069839
621550 34 18262535714530128171
633830 44 17987817240518879752
6608658 132 16604082192619580300
7399639 24 18261126170640747475
7808743 9 18047195430212472928
9862522 239 18042404797408585764

> <PUBCHEM_SHAPE_MULTIPOLES>
482.88
8.92
5.23
2.05
0.93
5.84
0.09
-10.92
-2.12
-2.76
-1.75
2.3
-0.87
0.98

> <PUBCHEM_SHAPE_SELFOVERLAP>
973.45

> <PUBCHEM_SHAPE_VOLUME>
284

> <PUBCHEM_COORDINATE_TYPE>
2
5
10

$$$$
