7134479
  -OEChem-12032416153D

 62 63  0     1  0  0  0  0  0999 V2000
    3.7824   -0.4038   -0.3961 S   0  0  0  0  0  0  0  0  0  0  0  0
    0.2640    4.5743    1.5825 F   0  0  0  0  0  0  0  0  0  0  0  0
   -0.2366    2.5208    2.0686 F   0  0  0  0  0  0  0  0  0  0  0  0
    1.5523    3.4287    2.9076 F   0  0  0  0  0  0  0  0  0  0  0  0
   -0.8320   -1.9204    1.6534 O   0  0  0  0  0  0  0  0  0  0  0  0
    2.9953   -3.9417    0.3369 O   0  0  0  0  0  0  0  0  0  0  0  0
    0.6777   -5.6966    0.2788 O   0  0  0  0  0  0  0  0  0  0  0  0
   -3.0714   -2.6337   -0.6485 O   0  0  0  0  0  0  0  0  0  0  0  0
    4.9200   -0.3658   -1.2952 O   0  0  0  0  0  0  0  0  0  0  0  0
    3.9692   -0.7368    1.0032 O   0  0  0  0  0  0  0  0  0  0  0  0
   -4.2669    0.1113    1.9608 O   0  0  0  0  0  0  0  0  0  0  0  0
    2.5855   -1.4175   -1.0375 N   0  0  0  0  0  0  0  0  0  0  0  0
   -2.4501   -0.4825   -0.0123 N   0  0  0  0  0  0  0  0  0  0  0  0
   -5.9465    0.0215    0.3969 N   0  0  0  0  0  0  0  0  0  0  0  0
   -0.8984   -2.2848    0.2799 C   0  0  1  0  0  0  0  0  0  0  0  0
    1.5945   -2.0536   -0.1272 C   0  0  1  0  0  0  0  0  0  0  0  0
    0.1947   -1.5710   -0.5174 C   0  0  0  0  0  0  0  0  0  0  0  0
    1.7315   -3.5767   -0.2235 C   0  0  2  0  0  0  0  0  0  0  0  0
   -0.7689   -3.8017    0.1583 C   0  0  0  0  0  0  0  0  0  0  0  0
    0.6235   -4.2968    0.5529 C   0  0  1  0  0  0  0  0  0  0  0  0
   -2.2591   -1.8439   -0.1744 C   0  0  0  0  0  0  0  0  0  0  0  0
   -3.6677    0.1960   -0.3938 C   0  0  2  0  0  0  0  0  0  0  0  0
   -3.4257    1.6675   -0.7522 C   0  0  0  0  0  0  0  0  0  0  0  0
    2.9928    1.1768   -0.4486 C   0  0  0  0  0  0  0  0  0  0  0  0
   -2.4124    1.8976   -1.8921 C   0  0  0  0  0  0  0  0  0  0  0  0
   -4.6252    0.0909    0.7856 C   0  0  0  0  0  0  0  0  0  0  0  0
    2.2413    1.6180    0.6404 C   0  0  0  0  0  0  0  0  0  0  0  0
    3.1214    1.9831   -1.5796 C   0  0  0  0  0  0  0  0  0  0  0  0
   -2.2171    3.4000   -2.1140 C   0  0  0  0  0  0  0  0  0  0  0  0
   -2.8471    1.2362   -3.2006 C   0  0  0  0  0  0  0  0  0  0  0  0
    1.6184    2.8653    0.5985 C   0  0  0  0  0  0  0  0  0  0  0  0
    2.4987    3.2305   -1.6216 C   0  0  0  0  0  0  0  0  0  0  0  0
    1.7471    3.6716   -0.5324 C   0  0  0  0  0  0  0  0  0  0  0  0
    0.8148    3.3374    1.7627 C   0  0  0  0  0  0  0  0  0  0  0  0
    1.7839   -1.7412    0.9059 H   0  0  0  0  0  0  0  0  0  0  0  0
    0.0328   -1.7323   -1.5925 H   0  0  0  0  0  0  0  0  0  0  0  0
    0.1587   -0.4852   -0.3668 H   0  0  0  0  0  0  0  0  0  0  0  0
    1.7407   -3.9112   -1.2678 H   0  0  0  0  0  0  0  0  0  0  0  0
   -0.9867   -4.1300   -0.8676 H   0  0  0  0  0  0  0  0  0  0  0  0
   -1.5090   -4.3046    0.7958 H   0  0  0  0  0  0  0  0  0  0  0  0
    0.7820   -4.1767    1.6315 H   0  0  0  0  0  0  0  0  0  0  0  0
    2.6648   -1.7924   -1.9901 H   0  0  0  0  0  0  0  0  0  0  0  0
   -0.6647   -0.9659    1.7213 H   0  0  0  0  0  0  0  0  0  0  0  0
    3.0068   -3.6573    1.2668 H   0  0  0  0  0  0  0  0  0  0  0  0
   -0.0145   -6.1272    0.8090 H   0  0  0  0  0  0  0  0  0  0  0  0
   -1.7453    0.0717    0.4628 H   0  0  0  0  0  0  0  0  0  0  0  0
   -4.1058   -0.3379   -1.2449 H   0  0  0  0  0  0  0  0  0  0  0  0
   -3.0701    2.1983    0.1421 H   0  0  0  0  0  0  0  0  0  0  0  0
   -4.3843    2.1341   -1.0158 H   0  0  0  0  0  0  0  0  0  0  0  0
   -1.4412    1.4786   -1.6013 H   0  0  0  0  0  0  0  0  0  0  0  0
    2.1263    0.9961    1.5245 H   0  0  0  0  0  0  0  0  0  0  0  0
   -3.1514    3.8824   -2.4207 H   0  0  0  0  0  0  0  0  0  0  0  0
   -1.4686    3.5843   -2.8920 H   0  0  0  0  0  0  0  0  0  0  0  0
   -1.8684    3.8861   -1.1965 H   0  0  0  0  0  0  0  0  0  0  0  0
   -3.8459    1.5697   -3.5015 H   0  0  0  0  0  0  0  0  0  0  0  0
   -2.8631    0.1460   -3.1098 H   0  0  0  0  0  0  0  0  0  0  0  0
   -2.1507    1.4820   -4.0097 H   0  0  0  0  0  0  0  0  0  0  0  0
    3.6964    1.6554   -2.4410 H   0  0  0  0  0  0  0  0  0  0  0  0
   -6.2297    0.0286   -0.5777 H   0  0  0  0  0  0  0  0  0  0  0  0
   -6.6891   -0.0382    1.0856 H   0  0  0  0  0  0  0  0  0  0  0  0
    2.5969    3.8573   -2.5031 H   0  0  0  0  0  0  0  0  0  0  0  0
    1.2681    4.6453   -0.5846 H   0  0  0  0  0  0  0  0  0  0  0  0
  1  9  2  0  0  0  0
  1 10  2  0  0  0  0
  1 12  1  0  0  0  0
  1 24  1  0  0  0  0
  2 34  1  0  0  0  0
  3 34  1  0  0  0  0
  4 34  1  0  0  0  0
  5 15  1  0  0  0  0
  5 43  1  0  0  0  0
  6 18  1  0  0  0  0
  6 44  1  0  0  0  0
  7 20  1  0  0  0  0
  7 45  1  0  0  0  0
  8 21  2  0  0  0  0
 11 26  2  0  0  0  0
 12 16  1  0  0  0  0
 12 42  1  0  0  0  0
 13 21  1  0  0  0  0
 13 22  1  0  0  0  0
 13 46  1  0  0  0  0
 14 26  1  0  0  0  0
 14 59  1  0  0  0  0
 14 60  1  0  0  0  0
 15 17  1  0  0  0  0
 15 19  1  0  0  0  0
 15 21  1  0  0  0  0
 16 17  1  0  0  0  0
 16 18  1  0  0  0  0
 16 35  1  0  0  0  0
 17 36  1  0  0  0  0
 17 37  1  0  0  0  0
 18 20  1  0  0  0  0
 18 38  1  0  0  0  0
 19 20  1  0  0  0  0
 19 39  1  0  0  0  0
 19 40  1  0  0  0  0
 20 41  1  0  0  0  0
 22 23  1  0  0  0  0
 22 26  1  0  0  0  0
 22 47  1  0  0  0  0
 23 25  1  0  0  0  0
 23 48  1  0  0  0  0
 23 49  1  0  0  0  0
 24 27  1  0  0  0  0
 24 28  2  0  0  0  0
 25 29  1  0  0  0  0
 25 30  1  0  0  0  0
 25 50  1  0  0  0  0
 27 31  2  0  0  0  0
 27 51  1  0  0  0  0
 28 32  1  0  0  0  0
 28 58  1  0  0  0  0
 29 52  1  0  0  0  0
 29 53  1  0  0  0  0
 29 54  1  0  0  0  0
 30 55  1  0  0  0  0
 30 56  1  0  0  0  0
 30 57  1  0  0  0  0
 31 33  1  0  0  0  0
 31 34  1  0  0  0  0
 32 33  2  0  0  0  0
 32 61  1  0  0  0  0
 33 62  1  0  0  0  0
M  END
> <PUBCHEM_COMPOUND_CID>
7134479

> <PUBCHEM_CONFORMER_RMSD>
1.2

> <PUBCHEM_CONFORMER_DIVERSEORDER>
1
13
187
125
138
95
7
139
152
102
92
159
192
49
154
169
42
80
115
43
172
87
76
201
144
96
57
165
100
34
99
168
117
188
196
166
180
105
205
37
200
161
171
173
130
45
28
41
213
209
83
143
40
127
118
67
71
198
202
90
204
210
16
197
129
126
170
148
101
93
186
15
199
149
11
44
84
140
189
85
94
119
203
82
114
211
122
174
52
183
121
123
23
70
212
194
98
56
158
36
59
184
33
78
206
25
128
106
157
134
179
5
195
58
109
17
163
167
72
141
27
185
162
137
20
112
12
136
120
75
68
66
6
142
74
146
79
151
150
103
178
108
47
3
39
131
29
21
193
160
19
91
191
60
132
62
55
176
145
8
214
51
155
64
104
30
32
124
31
65
38
77
9
35
24
46
10
153
135
111
177
181
97
89
2
86
26
81
107
69
113
156
182
133
63
164
48
22
110
190
61
50
4
207
208
147
73
54
18
88
53
175
14
116

> <PUBCHEM_MMFF94_PARTIAL_CHARGES>
39
1 1.45
10 -0.65
11 -0.57
12 -0.91
13 -0.73
14 -0.8
15 0.34
16 0.36
18 0.28
2 -0.34
20 0.28
21 0.57
22 0.36
24 -0.01
26 0.57
27 -0.15
28 -0.15
3 -0.34
31 -0.14
32 -0.15
33 -0.15
34 1.16
4 -0.34
42 0.42
43 0.4
44 0.4
45 0.4
46 0.37
5 -0.68
51 0.15
58 0.15
59 0.37
6 -0.68
60 0.37
61 0.15
62 0.15
7 -0.68
8 -0.57
9 -0.65

> <PUBCHEM_EFFECTIVE_ROTOR_COUNT>
11.2

> <PUBCHEM_PHARMACOPHORE_FEATURES>
16
1 10 acceptor
1 11 acceptor
1 12 donor
1 13 donor
1 14 donor
1 5 acceptor
1 5 donor
1 6 acceptor
1 6 donor
1 7 acceptor
1 7 donor
1 8 acceptor
1 9 acceptor
3 25 29 30 hydrophobe
6 15 16 17 18 19 20 rings
6 24 27 28 31 32 33 rings

> <PUBCHEM_HEAVY_ATOM_COUNT>
34

> <PUBCHEM_ATOM_DEF_STEREO_COUNT>
5

> <PUBCHEM_ATOM_UDEF_STEREO_COUNT>
0

> <PUBCHEM_BOND_DEF_STEREO_COUNT>
0

> <PUBCHEM_BOND_UDEF_STEREO_COUNT>
0

> <PUBCHEM_ISOTOPIC_ATOM_COUNT>
0

> <PUBCHEM_COMPONENT_COUNT>
1

> <PUBCHEM_CACTVS_TAUTO_COUNT>
4

> <PUBCHEM_CONFORMER_ID>
006CDD0F00000001

> <PUBCHEM_MMFF94_ENERGY>
59.5033

> <PUBCHEM_FEATURE_SELFOVERLAP>
81.233

> <PUBCHEM_SHAPE_FINGERPRINT>
10165383 225 18264221368470954813
10190206 1 17904791898705896478
10721379 63 17409874373033744253
12156800 1 14432713217119477748
12633257 1 18341055202364963021
12769317 202 18336259055372220095
12788726 201 17267492894944806964
13122387 1 18120651336129896060
13402501 40 18334298673257837861
140371 6 17112125245120395167
14114211 80 18048629128443609965
14466204 15 18336253609823264930
150020 26 18334569101594454801
151778 21 18263089953773245909
20764821 26 18263067959103129981
23536364 44 18051150107111935598
238 59 18121462891997169509
3187 122 16607988756672853674
3524813 1 18334298656135880493
5252454 2 18120662588881141765

> <PUBCHEM_SHAPE_MULTIPOLES>
625.7
7.98
7.21
2.14
5.35
4.63
0.12
-1.9
-0.83
-3.22
0.96
0.64
-2.89
1.34

> <PUBCHEM_SHAPE_SELFOVERLAP>
1287.574

> <PUBCHEM_SHAPE_VOLUME>
362.5

> <PUBCHEM_COORDINATE_TYPE>
2
5
10

$$$$
