38027684
  -OEChem-12032416243D

 68 69  0     1  0  0  0  0  0999 V2000
   -2.7329   -2.3405    0.9948 O   0  0  0  0  0  0  0  0  0  0  0  0
    2.6940    2.7047    0.0209 O   0  0  0  0  0  0  0  0  0  0  0  0
    4.4011   -1.3624    0.4893 O   0  0  0  0  0  0  0  0  0  0  0  0
   -2.8787   -0.6675   -0.6206 N   0  0  0  0  0  0  0  0  0  0  0  0
    3.2336    0.7172   -1.0558 N   0  0  0  0  0  0  0  0  0  0  0  0
   -1.3671    1.3229    1.0516 C   0  0  1  0  0  0  0  0  0  0  0  0
   -2.6778    1.5935    0.2714 C   0  0  1  0  0  0  0  0  0  0  0  0
   -0.3458    2.4399    0.7880 C   0  0  0  0  0  0  0  0  0  0  0  0
   -0.0042    2.5758   -0.7079 C   0  0  2  0  0  0  0  0  0  0  0  0
   -1.6179    1.1943    2.5574 C   0  0  0  0  0  0  0  0  0  0  0  0
   -1.2491    2.5794   -1.5717 C   0  0  0  0  0  0  0  0  0  0  0  0
   -2.4379    2.1494   -1.1128 C   0  0  0  0  0  0  0  0  0  0  0  0
   -3.5338    0.3258    0.1713 C   0  0  0  0  0  0  0  0  0  0  0  0
    0.9698    1.4796   -1.1538 C   0  0  0  0  0  0  0  0  0  0  0  0
   -0.5149    0.3685    3.2118 C   0  0  0  0  0  0  0  0  0  0  0  0
   -1.7145    2.5740    3.2005 C   0  0  0  0  0  0  0  0  0  0  0  0
   -1.8742   -2.7844   -1.1902 C   0  0  0  0  0  0  0  0  0  0  0  0
   -1.1065    3.1321   -2.9625 C   0  0  0  0  0  0  0  0  0  0  0  0
   -0.6092   -2.1170   -1.7339 C   0  0  0  0  0  0  0  0  0  0  0  0
   -1.6124   -4.1862   -0.6356 C   0  0  0  0  0  0  0  0  0  0  0  0
   -2.5282   -1.9288   -0.1441 C   0  0  0  0  0  0  0  0  0  0  0  0
    0.5825   -2.2055   -0.7810 C   0  0  0  0  0  0  0  0  0  0  0  0
   -0.4188   -4.2400    0.3165 C   0  0  0  0  0  0  0  0  0  0  0  0
    0.8306   -3.6346   -0.3127 C   0  0  0  0  0  0  0  0  0  0  0  0
    2.3744    1.7287   -0.6523 C   0  0  0  0  0  0  0  0  0  0  0  0
    4.6391    0.6956   -0.7216 C   0  0  0  0  0  0  0  0  0  0  0  0
    4.8901   -0.0309    0.5871 C   0  0  0  0  0  0  0  0  0  0  0  0
    4.6088   -2.0839    1.6957 C   0  0  0  0  0  0  0  0  0  0  0  0
   -0.9369    0.3802    0.6978 H   0  0  0  0  0  0  0  0  0  0  0  0
   -3.2725    2.3464    0.8039 H   0  0  0  0  0  0  0  0  0  0  0  0
    0.5658    2.2857    1.3735 H   0  0  0  0  0  0  0  0  0  0  0  0
   -0.7514    3.4147    1.0883 H   0  0  0  0  0  0  0  0  0  0  0  0
    0.4790    3.5552   -0.8323 H   0  0  0  0  0  0  0  0  0  0  0  0
   -2.5590    0.6670    2.7441 H   0  0  0  0  0  0  0  0  0  0  0  0
   -3.3084    2.2190   -1.7624 H   0  0  0  0  0  0  0  0  0  0  0  0
   -4.4842    0.5494   -0.3284 H   0  0  0  0  0  0  0  0  0  0  0  0
   -3.7865   -0.0767    1.1559 H   0  0  0  0  0  0  0  0  0  0  0  0
    1.0326    1.4292   -2.2473 H   0  0  0  0  0  0  0  0  0  0  0  0
    0.6451    0.5002   -0.8049 H   0  0  0  0  0  0  0  0  0  0  0  0
   -0.4624   -0.6332    2.7713 H   0  0  0  0  0  0  0  0  0  0  0  0
   -0.7129    0.2461    4.2824 H   0  0  0  0  0  0  0  0  0  0  0  0
    0.4701    0.8345    3.1110 H   0  0  0  0  0  0  0  0  0  0  0  0
   -0.7471    3.0814    3.2780 H   0  0  0  0  0  0  0  0  0  0  0  0
   -2.0767    2.4659    4.2304 H   0  0  0  0  0  0  0  0  0  0  0  0
   -2.4266    3.2295    2.6904 H   0  0  0  0  0  0  0  0  0  0  0  0
   -2.5998   -2.8750   -2.0100 H   0  0  0  0  0  0  0  0  0  0  0  0
   -2.7597   -0.4704   -1.6097 H   0  0  0  0  0  0  0  0  0  0  0  0
   -0.6883    4.1434   -2.9284 H   0  0  0  0  0  0  0  0  0  0  0  0
   -2.0696    3.1941   -3.4806 H   0  0  0  0  0  0  0  0  0  0  0  0
   -0.4491    2.5033   -3.5695 H   0  0  0  0  0  0  0  0  0  0  0  0
   -0.7705   -1.0707   -2.0111 H   0  0  0  0  0  0  0  0  0  0  0  0
   -0.3324   -2.6295   -2.6652 H   0  0  0  0  0  0  0  0  0  0  0  0
   -1.4079   -4.8579   -1.4800 H   0  0  0  0  0  0  0  0  0  0  0  0
   -2.5011   -4.5897   -0.1353 H   0  0  0  0  0  0  0  0  0  0  0  0
    0.4054   -1.5732    0.0961 H   0  0  0  0  0  0  0  0  0  0  0  0
    1.4806   -1.8274   -1.2798 H   0  0  0  0  0  0  0  0  0  0  0  0
   -0.2192   -5.2837    0.5862 H   0  0  0  0  0  0  0  0  0  0  0  0
   -0.6456   -3.7168    1.2520 H   0  0  0  0  0  0  0  0  0  0  0  0
    1.1474   -4.2494   -1.1641 H   0  0  0  0  0  0  0  0  0  0  0  0
    1.6520   -3.6470    0.4128 H   0  0  0  0  0  0  0  0  0  0  0  0
    2.8718   -0.0480   -1.6168 H   0  0  0  0  0  0  0  0  0  0  0  0
    5.0171    1.7216   -0.6669 H   0  0  0  0  0  0  0  0  0  0  0  0
    5.1436    0.1781   -1.5442 H   0  0  0  0  0  0  0  0  0  0  0  0
    4.3778    0.4841    1.4087 H   0  0  0  0  0  0  0  0  0  0  0  0
    5.9656   -0.0477    0.7970 H   0  0  0  0  0  0  0  0  0  0  0  0
    4.2191   -3.0966    1.5621 H   0  0  0  0  0  0  0  0  0  0  0  0
    4.0716   -1.6101    2.5230 H   0  0  0  0  0  0  0  0  0  0  0  0
    5.6766   -2.1481    1.9261 H   0  0  0  0  0  0  0  0  0  0  0  0
  1 21  2  0  0  0  0
  2 25  2  0  0  0  0
  3 27  1  0  0  0  0
  3 28  1  0  0  0  0
  4 13  1  0  0  0  0
  4 21  1  0  0  0  0
  4 47  1  0  0  0  0
  5 25  1  0  0  0  0
  5 26  1  0  0  0  0
  5 61  1  0  0  0  0
  6  7  1  0  0  0  0
  6  8  1  0  0  0  0
  6 10  1  0  0  0  0
  6 29  1  0  0  0  0
  7 12  1  0  0  0  0
  7 13  1  0  0  0  0
  7 30  1  0  0  0  0
  8  9  1  0  0  0  0
  8 31  1  0  0  0  0
  8 32  1  0  0  0  0
  9 11  1  0  0  0  0
  9 14  1  0  0  0  0
  9 33  1  0  0  0  0
 10 15  1  0  0  0  0
 10 16  1  0  0  0  0
 10 34  1  0  0  0  0
 11 12  2  0  0  0  0
 11 18  1  0  0  0  0
 12 35  1  0  0  0  0
 13 36  1  0  0  0  0
 13 37  1  0  0  0  0
 14 25  1  0  0  0  0
 14 38  1  0  0  0  0
 14 39  1  0  0  0  0
 15 40  1  0  0  0  0
 15 41  1  0  0  0  0
 15 42  1  0  0  0  0
 16 43  1  0  0  0  0
 16 44  1  0  0  0  0
 16 45  1  0  0  0  0
 17 19  1  0  0  0  0
 17 20  1  0  0  0  0
 17 21  1  0  0  0  0
 17 46  1  0  0  0  0
 18 48  1  0  0  0  0
 18 49  1  0  0  0  0
 18 50  1  0  0  0  0
 19 22  1  0  0  0  0
 19 51  1  0  0  0  0
 19 52  1  0  0  0  0
 20 23  1  0  0  0  0
 20 53  1  0  0  0  0
 20 54  1  0  0  0  0
 22 24  1  0  0  0  0
 22 55  1  0  0  0  0
 22 56  1  0  0  0  0
 23 24  1  0  0  0  0
 23 57  1  0  0  0  0
 23 58  1  0  0  0  0
 24 59  1  0  0  0  0
 24 60  1  0  0  0  0
 26 27  1  0  0  0  0
 26 62  1  0  0  0  0
 26 63  1  0  0  0  0
 27 64  1  0  0  0  0
 27 65  1  0  0  0  0
 28 66  1  0  0  0  0
 28 67  1  0  0  0  0
 28 68  1  0  0  0  0
M  END
> <PUBCHEM_COMPOUND_CID>
38027684

> <PUBCHEM_CONFORMER_RMSD>
1.2

> <PUBCHEM_CONFORMER_DIVERSEORDER>
1
27
30
3
32
63
19
54
46
5
51
20
61
10
60
9
45
26
47
64
67
52
23
11
2
53
55
24
18
6
21
66
48
65
59
42
33
39
56
15
34
35
40
57
58
16
13
8
29
41
62
44
38
37
14
31
12
49
17
25
43
36
7
4
28
50
22

> <PUBCHEM_MMFF94_PARTIAL_CHARGES>
21
1 -0.57
11 -0.28
12 -0.29
13 0.3
14 0.06
17 0.06
18 0.14
2 -0.57
21 0.57
25 0.57
26 0.3
27 0.28
28 0.28
3 -0.56
35 0.15
4 -0.73
47 0.37
5 -0.73
61 0.37
7 0.14
9 0.14

> <PUBCHEM_EFFECTIVE_ROTOR_COUNT>
13

> <PUBCHEM_PHARMACOPHORE_FEATURES>
8
1 1 acceptor
1 2 acceptor
1 3 acceptor
1 4 donor
1 5 donor
3 10 15 16 hydrophobe
6 17 19 20 22 23 24 rings
6 6 7 8 9 11 12 rings

> <PUBCHEM_HEAVY_ATOM_COUNT>
28

> <PUBCHEM_ATOM_DEF_STEREO_COUNT>
3

> <PUBCHEM_ATOM_UDEF_STEREO_COUNT>
0

> <PUBCHEM_BOND_DEF_STEREO_COUNT>
0

> <PUBCHEM_BOND_UDEF_STEREO_COUNT>
0

> <PUBCHEM_ISOTOPIC_ATOM_COUNT>
0

> <PUBCHEM_COMPONENT_COUNT>
1

> <PUBCHEM_CACTVS_TAUTO_COUNT>
4

> <PUBCHEM_CONFORMER_ID>
024441A400000001

> <PUBCHEM_MMFF94_ENERGY>
43.0276

> <PUBCHEM_FEATURE_SELFOVERLAP>
40.596

> <PUBCHEM_SHAPE_FINGERPRINT>
11582403 64 16521013572937016125
12156800 1 17328237785579292990
12422481 6 18265352645929507865
12788726 201 17914355690396270632
13122387 1 17546444479869281550
14840074 17 18189075147533491084
15664445 248 15593537981263366941
19930381 70 17472413249405600469
20600515 1 18198354046292958957
20764821 26 17905331719695490438
20775530 9 17692538127159988070
23559900 14 16752953863063852463
3027735 51 18339069394207582679
35225 105 17917132941104700026
6287921 2 17554622690100611051

> <PUBCHEM_SHAPE_MULTIPOLES>
548.66
6.69
5.72
2.67
11.27
5.74
-1.74
-0.96
-1.45
-1.49
1.71
-1.5
-2.14
-0.98

> <PUBCHEM_SHAPE_SELFOVERLAP>
1098.469

> <PUBCHEM_SHAPE_VOLUME>
320.2

> <PUBCHEM_COORDINATE_TYPE>
2
5
10

$$$$
