26745467
  -OEChem-12032416183D

 55 59  0     1  0  0  0  0  0999 V2000
   -6.4043    3.1337    0.8012 Cl  0  0  0  0  0  0  0  0  0  0  0  0
    1.2647    0.0797    1.7685 S   0  0  0  0  0  0  0  0  0  0  0  0
    2.4590   -0.1055    2.5638 O   0  0  0  0  0  0  0  0  0  0  0  0
   -0.0463    0.0862    2.3809 O   0  0  0  0  0  0  0  0  0  0  0  0
    3.2757   -2.3979   -0.7621 O   0  0  0  0  0  0  0  0  0  0  0  0
    1.7621   -4.1397   -0.8698 O   0  0  0  0  0  0  0  0  0  0  0  0
    1.2706   -1.0524    0.4785 N   0  0  1  0  0  0  0  0  0  0  0  0
   -2.1773   -1.8584   -0.7461 N   0  0  0  0  0  0  0  0  0  0  0  0
   -2.0295   -3.5917    0.6561 N   0  0  0  0  0  0  0  0  0  0  0  0
    3.6872    1.0312    0.3026 N   0  0  0  0  0  0  0  0  0  0  0  0
    1.5953   -2.4767    0.8606 C   0  0  1  0  0  0  0  0  0  0  0  0
    0.1703   -0.8841   -0.5473 C   0  0  0  0  0  0  0  0  0  0  0  0
    0.3691   -3.2456    1.3929 C   0  0  0  0  0  0  0  0  0  0  0  0
   -0.9129   -1.8363   -0.2392 C   0  0  0  0  0  0  0  0  0  0  0  0
   -0.8452   -2.9105    0.6143 C   0  0  0  0  0  0  0  0  0  0  0  0
    2.1954   -3.1204   -0.3498 C   0  0  0  0  0  0  0  0  0  0  0  0
    1.4474    1.5822    0.8600 C   0  0  0  0  0  0  0  0  0  0  0  0
   -2.7514   -0.9430   -1.7020 C   0  0  0  0  0  0  0  0  0  0  0  0
   -2.8117   -2.9337   -0.1763 C   0  0  0  0  0  0  0  0  0  0  0  0
    2.6494    1.8857    0.2267 C   0  0  0  0  0  0  0  0  0  0  0  0
   -3.6668    0.0793   -1.0753 C   0  0  0  0  0  0  0  0  0  0  0  0
    0.3505    2.4454    0.8022 C   0  0  0  0  0  0  0  0  0  0  0  0
    2.7364    3.1009   -0.4843 C   0  0  0  0  0  0  0  0  0  0  0  0
    0.4432    3.6405    0.0999 C   0  0  0  0  0  0  0  0  0  0  0  0
    1.6333    3.9693   -0.5430 C   0  0  0  0  0  0  0  0  0  0  0  0
   -4.9634   -0.2791   -0.7066 C   0  0  0  0  0  0  0  0  0  0  0  0
   -3.2168    1.3827   -0.8644 C   0  0  0  0  0  0  0  0  0  0  0  0
    3.9463    3.4072   -1.1219 C   0  0  0  0  0  0  0  0  0  0  0  0
    3.9492   -2.9046   -1.9187 C   0  0  0  0  0  0  0  0  0  0  0  0
   -5.8102    0.6658   -0.1273 C   0  0  0  0  0  0  0  0  0  0  0  0
   -4.0635    2.3276   -0.2851 C   0  0  0  0  0  0  0  0  0  0  0  0
    4.8373    1.3643   -0.3269 C   0  0  0  0  0  0  0  0  0  0  0  0
    5.0173    2.5286   -1.0455 C   0  0  0  0  0  0  0  0  0  0  0  0
   -5.3602    1.9692    0.0834 C   0  0  0  0  0  0  0  0  0  0  0  0
    2.3787   -2.5010    1.6278 H   0  0  0  0  0  0  0  0  0  0  0  0
    0.5952   -1.0910   -1.5360 H   0  0  0  0  0  0  0  0  0  0  0  0
   -0.2072    0.1380   -0.5745 H   0  0  0  0  0  0  0  0  0  0  0  0
    0.5414   -4.3275    1.3863 H   0  0  0  0  0  0  0  0  0  0  0  0
    0.1910   -2.9536    2.4353 H   0  0  0  0  0  0  0  0  0  0  0  0
   -3.3058   -1.5391   -2.4380 H   0  0  0  0  0  0  0  0  0  0  0  0
   -1.9407   -0.4578   -2.2574 H   0  0  0  0  0  0  0  0  0  0  0  0
   -3.8347   -3.1957   -0.4090 H   0  0  0  0  0  0  0  0  0  0  0  0
   -0.5900    2.2125    1.2923 H   0  0  0  0  0  0  0  0  0  0  0  0
   -0.4076    4.3133    0.0510 H   0  0  0  0  0  0  0  0  0  0  0  0
    1.6950    4.9072   -1.0904 H   0  0  0  0  0  0  0  0  0  0  0  0
   -5.3331   -1.2869   -0.8733 H   0  0  0  0  0  0  0  0  0  0  0  0
   -2.2101    1.6756   -1.1490 H   0  0  0  0  0  0  0  0  0  0  0  0
    4.0604    4.3325   -1.6819 H   0  0  0  0  0  0  0  0  0  0  0  0
    4.3400   -3.9071   -1.7206 H   0  0  0  0  0  0  0  0  0  0  0  0
    3.2705   -2.9159   -2.7769 H   0  0  0  0  0  0  0  0  0  0  0  0
    4.7868   -2.2386   -2.1426 H   0  0  0  0  0  0  0  0  0  0  0  0
   -6.8187    0.3728    0.1533 H   0  0  0  0  0  0  0  0  0  0  0  0
   -3.6988    3.3393   -0.1264 H   0  0  0  0  0  0  0  0  0  0  0  0
    5.6387    0.6388   -0.2330 H   0  0  0  0  0  0  0  0  0  0  0  0
    5.9597    2.7493   -1.5326 H   0  0  0  0  0  0  0  0  0  0  0  0
  1 34  1  0  0  0  0
  2  3  2  0  0  0  0
  2  4  2  0  0  0  0
  2  7  1  0  0  0  0
  2 17  1  0  0  0  0
  5 16  1  0  0  0  0
  5 29  1  0  0  0  0
  6 16  2  0  0  0  0
  7 11  1  0  0  0  0
  7 12  1  0  0  0  0
  8 14  1  0  0  0  0
  8 18  1  0  0  0  0
  8 19  1  0  0  0  0
  9 15  1  0  0  0  0
  9 19  2  0  0  0  0
 10 20  1  0  0  0  0
 10 32  2  0  0  0  0
 11 13  1  0  0  0  0
 11 16  1  0  0  0  0
 11 35  1  0  0  0  0
 12 14  1  0  0  0  0
 12 36  1  0  0  0  0
 12 37  1  0  0  0  0
 13 15  1  0  0  0  0
 13 38  1  0  0  0  0
 13 39  1  0  0  0  0
 14 15  2  0  0  0  0
 17 20  1  0  0  0  0
 17 22  2  0  0  0  0
 18 21  1  0  0  0  0
 18 40  1  0  0  0  0
 18 41  1  0  0  0  0
 19 42  1  0  0  0  0
 20 23  2  0  0  0  0
 21 26  2  0  0  0  0
 21 27  1  0  0  0  0
 22 24  1  0  0  0  0
 22 43  1  0  0  0  0
 23 25  1  0  0  0  0
 23 28  1  0  0  0  0
 24 25  2  0  0  0  0
 24 44  1  0  0  0  0
 25 45  1  0  0  0  0
 26 30  1  0  0  0  0
 26 46  1  0  0  0  0
 27 31  2  0  0  0  0
 27 47  1  0  0  0  0
 28 33  2  0  0  0  0
 28 48  1  0  0  0  0
 29 49  1  0  0  0  0
 29 50  1  0  0  0  0
 29 51  1  0  0  0  0
 30 34  2  0  0  0  0
 30 52  1  0  0  0  0
 31 34  1  0  0  0  0
 31 53  1  0  0  0  0
 32 33  1  0  0  0  0
 32 54  1  0  0  0  0
 33 55  1  0  0  0  0
M  END
> <PUBCHEM_COMPOUND_CID>
26745467

> <PUBCHEM_CONFORMER_RMSD>
1

> <PUBCHEM_CONFORMER_DIVERSEORDER>
2
86
22
67
98
147
144
13
61
9
113
138
76
30
27
137
84
149
105
123
117
47
25
100
28
52
62
116
48
126
17
120
74
43
4
121
135
136
24
64
153
108
134
55
130
145
111
131
125
89
45
19
110
65
93
40
88
114
54
18
143
31
139
151
133
129
3
59
81
51
152
79
50
8
72
70
112
11
96
154
68
91
29
92
75
141
104
56
36
7
39
53
119
1
124
23
90
97
132
41
71
85
128
115
33
109
49
102
6
150
60
38
34
77
83
106
127
78
10
73
80
103
21
146
101
37
87
99
142
82
32
148
95
118
122
94
66
35
63
58
44
140
26
20
57
69
12
14
16
15
107
42
46
5

> <PUBCHEM_MMFF94_PARTIAL_CHARGES>
44
1 -0.18
10 -0.62
11 0.42
12 0.54
13 0.18
14 -0.33
15 0.05
16 0.66
17 -0.01
18 0.4
19 0.04
2 1.45
20 0.31
21 -0.14
22 -0.15
24 -0.15
25 -0.15
26 -0.15
27 -0.15
28 -0.15
29 0.28
3 -0.65
30 -0.15
31 -0.15
32 0.16
33 -0.15
34 0.18
4 -0.65
42 0.15
43 0.15
44 0.15
45 0.15
46 0.15
47 0.15
48 0.15
5 -0.43
52 0.15
53 0.15
54 0.15
55 0.15
6 -0.57
7 -0.85
8 0.05
9 -0.57

> <PUBCHEM_EFFECTIVE_ROTOR_COUNT>
6.8

> <PUBCHEM_PHARMACOPHORE_FEATURES>
10
1 10 acceptor
1 3 acceptor
1 4 acceptor
1 6 acceptor
3 8 9 19 cation
5 8 9 14 15 19 rings
6 10 20 23 28 32 33 rings
6 17 20 22 23 24 25 rings
6 21 26 27 30 31 34 rings
6 7 11 12 13 14 15 rings

> <PUBCHEM_HEAVY_ATOM_COUNT>
34

> <PUBCHEM_ATOM_DEF_STEREO_COUNT>
1

> <PUBCHEM_ATOM_UDEF_STEREO_COUNT>
0

> <PUBCHEM_BOND_DEF_STEREO_COUNT>
0

> <PUBCHEM_BOND_UDEF_STEREO_COUNT>
0

> <PUBCHEM_ISOTOPIC_ATOM_COUNT>
0

> <PUBCHEM_COMPONENT_COUNT>
1

> <PUBCHEM_CACTVS_TAUTO_COUNT>
1

> <PUBCHEM_CONFORMER_ID>
01981A7B00000002

> <PUBCHEM_MMFF94_ENERGY>
79.8237

> <PUBCHEM_FEATURE_SELFOVERLAP>
50.903

> <PUBCHEM_SHAPE_FINGERPRINT>
10483366 6 18339372877197981262
10675989 125 18411141295035300340
1100329 8 18336824187131987346
11059048 146 18265328581133152909
11513181 2 18202278139253195167
11578080 2 18262820538911786662
12156800 1 16010749197446482577
12160290 23 17325454075625113615
12422481 6 17693330570327628202
12788726 201 16963226640023761689
14713325 29 18045788054753491227
14790565 3 18408323302404718797
15082195 135 18198038456718310799
15163728 17 18189341323905206878
151778 21 18336820914778578769
15210252 30 18267023838989923830
15297060 5 18271249429615966368
15439362 3 18411143493636790060
15475509 84 16678647149972964683
15975801 100 17240754061248202068
19311894 1 18338799043159810053
21703447 108 10843111003461360547
221357 26 17834394901156418948
3298306 158 18197220471738539558
469060 322 17619072733004940371
5081480 168 17914366547905030607
57527585 21 18124298665713988863
5776283 40 18336000700441633188

> <PUBCHEM_SHAPE_MULTIPOLES>
662.02
10.86
6.19
1.6
11.95
1.1
0.53
-9.11
-2.83
-3.14
-0.68
-0.8
0.5
-0.61

> <PUBCHEM_SHAPE_SELFOVERLAP>
1439.352

> <PUBCHEM_SHAPE_VOLUME>
362.7

> <PUBCHEM_COORDINATE_TYPE>
2
5
10

$$$$
