44716212
  -OEChem-12032416253D

 49 52  0     1  0  0  0  0  0999 V2000
   -5.2176    0.2670    1.5434 O   0  0  0  0  0  0  0  0  0  0  0  0
   -2.3189    1.5148   -1.0700 N   0  0  1  0  0  0  0  0  0  0  0  0
    1.4430    0.8026   -0.9977 N   0  0  0  0  0  0  0  0  0  0  0  0
   -5.6123   -1.5542    0.1544 N   0  0  0  0  0  0  0  0  0  0  0  0
    1.6298   -0.2274   -1.8389 N   0  0  0  0  0  0  0  0  0  0  0  0
    2.8153   -0.7565   -1.5574 N   0  0  0  0  0  0  0  0  0  0  0  0
    4.9970    0.5218    1.0672 N   0  0  0  0  0  0  0  0  0  0  0  0
   -2.4704    0.1857    1.1624 C   0  0  1  0  0  0  0  0  0  0  0  0
   -3.4512   -0.3700    0.1107 C   0  0  2  0  0  0  0  0  0  0  0  0
   -1.0590    0.7568   -0.8365 C   0  0  2  0  0  0  0  0  0  0  0  0
   -1.0557    0.0934    0.5606 C   0  0  0  0  0  0  0  0  0  0  0  0
   -2.7525    1.6826    1.3847 C   0  0  0  0  0  0  0  0  0  0  0  0
   -3.4431    0.5449   -1.1284 C   0  0  0  0  0  0  0  0  0  0  0  0
   -2.5870    2.4373    0.0567 C   0  0  0  0  0  0  0  0  0  0  0  0
    0.1842    1.6215   -1.0560 C   0  0  0  0  0  0  0  0  0  0  0  0
   -4.8350   -0.5168    0.6708 C   0  0  0  0  0  0  0  0  0  0  0  0
    2.5007    0.9615   -0.1563 C   0  0  0  0  0  0  0  0  0  0  0  0
   -5.1188   -2.4602   -0.8798 C   0  0  0  0  0  0  0  0  0  0  0  0
   -6.9731   -1.8094    0.6091 C   0  0  0  0  0  0  0  0  0  0  0  0
    3.3618   -0.0399   -0.5291 C   0  0  0  0  0  0  0  0  0  0  0  0
    4.6358   -0.3032    0.0590 C   0  0  0  0  0  0  0  0  0  0  0  0
    5.4181   -1.3476   -0.4068 C   0  0  0  0  0  0  0  0  0  0  0  0
    6.6504   -1.5591    0.2016 C   0  0  0  0  0  0  0  0  0  0  0  0
    6.2014    0.2856    1.6341 C   0  0  0  0  0  0  0  0  0  0  0  0
    7.0569   -0.7313    1.2422 C   0  0  0  0  0  0  0  0  0  0  0  0
   -2.5277   -0.3631    2.1087 H   0  0  0  0  0  0  0  0  0  0  0  0
   -3.0587   -1.3556   -0.1635 H   0  0  0  0  0  0  0  0  0  0  0  0
   -1.0244   -0.0448   -1.5882 H   0  0  0  0  0  0  0  0  0  0  0  0
   -0.7550   -0.9577    0.4698 H   0  0  0  0  0  0  0  0  0  0  0  0
   -0.3423    0.5748    1.2405 H   0  0  0  0  0  0  0  0  0  0  0  0
   -3.7306    1.8929    1.8196 H   0  0  0  0  0  0  0  0  0  0  0  0
   -2.0247    2.0768    2.1064 H   0  0  0  0  0  0  0  0  0  0  0  0
   -4.3923    1.0832   -1.2490 H   0  0  0  0  0  0  0  0  0  0  0  0
   -3.3370   -0.0584   -2.0384 H   0  0  0  0  0  0  0  0  0  0  0  0
   -3.4970    3.0136   -0.1541 H   0  0  0  0  0  0  0  0  0  0  0  0
   -1.7912    3.1861    0.1405 H   0  0  0  0  0  0  0  0  0  0  0  0
    0.1934    2.0806   -2.0513 H   0  0  0  0  0  0  0  0  0  0  0  0
    0.3010    2.4053   -0.3003 H   0  0  0  0  0  0  0  0  0  0  0  0
    2.5373    1.7381    0.5953 H   0  0  0  0  0  0  0  0  0  0  0  0
   -4.6182   -1.9102   -1.6780 H   0  0  0  0  0  0  0  0  0  0  0  0
   -4.4233   -3.1691   -0.4212 H   0  0  0  0  0  0  0  0  0  0  0  0
   -5.9513   -3.0154   -1.3231 H   0  0  0  0  0  0  0  0  0  0  0  0
   -7.0323   -2.8325    0.9916 H   0  0  0  0  0  0  0  0  0  0  0  0
   -7.2585   -1.1136    1.4021 H   0  0  0  0  0  0  0  0  0  0  0  0
   -7.6573   -1.6874   -0.2355 H   0  0  0  0  0  0  0  0  0  0  0  0
    5.1044   -1.9958   -1.2187 H   0  0  0  0  0  0  0  0  0  0  0  0
    7.2930   -2.3673   -0.1345 H   0  0  0  0  0  0  0  0  0  0  0  0
    6.4717    0.9589    2.4409 H   0  0  0  0  0  0  0  0  0  0  0  0
    8.0133   -0.8776    1.7310 H   0  0  0  0  0  0  0  0  0  0  0  0
  1 16  2  0  0  0  0
  2 10  1  0  0  0  0
  2 13  1  0  0  0  0
  2 14  1  0  0  0  0
  3  5  1  0  0  0  0
  3 15  1  0  0  0  0
  3 17  1  0  0  0  0
  4 16  1  0  0  0  0
  4 18  1  0  0  0  0
  4 19  1  0  0  0  0
  5  6  2  0  0  0  0
  6 20  1  0  0  0  0
  7 21  1  0  0  0  0
  7 24  2  0  0  0  0
  8  9  1  0  0  0  0
  8 11  1  0  0  0  0
  8 12  1  0  0  0  0
  8 26  1  0  0  0  0
  9 13  1  0  0  0  0
  9 16  1  0  0  0  0
  9 27  1  0  0  0  0
 10 11  1  0  0  0  0
 10 15  1  0  0  0  0
 10 28  1  0  0  0  0
 11 29  1  0  0  0  0
 11 30  1  0  0  0  0
 12 14  1  0  0  0  0
 12 31  1  0  0  0  0
 12 32  1  0  0  0  0
 13 33  1  0  0  0  0
 13 34  1  0  0  0  0
 14 35  1  0  0  0  0
 14 36  1  0  0  0  0
 15 37  1  0  0  0  0
 15 38  1  0  0  0  0
 17 20  2  0  0  0  0
 17 39  1  0  0  0  0
 18 40  1  0  0  0  0
 18 41  1  0  0  0  0
 18 42  1  0  0  0  0
 19 43  1  0  0  0  0
 19 44  1  0  0  0  0
 19 45  1  0  0  0  0
 20 21  1  0  0  0  0
 21 22  2  0  0  0  0
 22 23  1  0  0  0  0
 22 46  1  0  0  0  0
 23 25  2  0  0  0  0
 23 47  1  0  0  0  0
 24 25  1  0  0  0  0
 24 48  1  0  0  0  0
 25 49  1  0  0  0  0
M  END
> <PUBCHEM_COMPOUND_CID>
44716212

> <PUBCHEM_CONFORMER_RMSD>
0.8

> <PUBCHEM_CONFORMER_DIVERSEORDER>
1
75
54
63
28
29
69
41
78
49
72
58
76
44
65
62
9
50
77
68
42
43
64
27
73
79
36
53
11
57
66
12
51
31
71
47
67
15
60
80
55
6
52
5
74
23
4
40
70
19
24
59
21
14
30
16
56
7
20
48
46
17
18
39
45
61
33
3
38
35
32
22
37
34
13
26
2
10
25
8

> <PUBCHEM_MMFF94_PARTIAL_CHARGES>
27
1 -0.57
10 0.27
13 0.27
14 0.27
15 0.26
16 0.57
17 -0.3
18 0.3
19 0.3
2 -0.81
20 0.17
21 0.36
22 -0.15
23 -0.15
24 0.16
25 -0.15
3 0.31
39 0.15
4 -0.66
46 0.15
47 0.15
48 0.15
49 0.15
5 -0.42
6 -0.23
7 -0.62
9 0.06

> <PUBCHEM_EFFECTIVE_ROTOR_COUNT>
6.2

> <PUBCHEM_PHARMACOPHORE_FEATURES>
6
1 1 acceptor
1 2 cation
1 7 acceptor
5 3 5 6 17 20 rings
6 7 21 22 23 24 25 rings
8 2 8 9 10 11 12 13 14 rings

> <PUBCHEM_HEAVY_ATOM_COUNT>
25

> <PUBCHEM_ATOM_DEF_STEREO_COUNT>
2

> <PUBCHEM_ATOM_UDEF_STEREO_COUNT>
1

> <PUBCHEM_BOND_DEF_STEREO_COUNT>
0

> <PUBCHEM_BOND_UDEF_STEREO_COUNT>
0

> <PUBCHEM_ISOTOPIC_ATOM_COUNT>
0

> <PUBCHEM_COMPONENT_COUNT>
1

> <PUBCHEM_CACTVS_TAUTO_COUNT>
1

> <PUBCHEM_CONFORMER_ID>
02AA50B400000001

> <PUBCHEM_MMFF94_ENERGY>
66.4233

> <PUBCHEM_FEATURE_SELFOVERLAP>
30.447

> <PUBCHEM_SHAPE_FINGERPRINT>
10 15 16630527345014454346
106641 1 18342172306927570968
10670039 82 11891597036771141423
10753850 27 18113619023489526723
11088757 655 17915451921134016431
11315181 36 18040153989853782212
11545043 162 18336539435322369120
12166972 35 17458065988404773292
12390115 104 10879992480195025469
12516196 113 18113899356205650132
12555020 224 16081089294408436697
12596602 18 18201436961344257674
12670543 26 12251898192298635726
12760667 363 18040156232132139619
12892183 10 17560529391118900100
12895837 130 10519688021425404978
12954195 1 15357964652111964367
13533116 47 18261395615060978032
13668630 136 17313103063921120634
13782708 43 18333730213156554090
13862211 1 17894631469611657995
13914758 101 16733257976620635095
14251751 18 18413389860500734603
14251752 14 12612743623257370490
14294032 229 16444452487675114333
14341114 176 16917354727470988396
14341114 328 15769773559298373764
14849402 71 17345461760700789472
15183329 4 13695859320623191134
15188451 53 18334573551016867590
15510800 12 18041294222040488475
16988056 13 12829501384724417926
17349148 13 17749114386977621591
17857418 61 17240483589866686154
17980427 23 14476950212116515872
18222031 100 16588024602747372852
19377110 9 17489585701128313260
19784866 240 17167867464922112717
200 152 18040439914743366677
20028762 73 18335421283536879130
2026 5 18114178675252048139
20281389 69 12895077301290420002
21033648 29 14979136725708366041
21315764 119 11674875576758298634
21637258 2 17530679909946577988
21756936 100 13758062009495895740
21792934 111 18272933839234069441
22061861 79 14634869747546640746
221357 26 12612749125364067982
2215653 11 14418132928641518290
22224240 67 15123796193324994559
23081809 10 16805893892600734180
23198884 109 11097852991039949907
23389318 12 16515409561063199950
23522609 53 17899170223478639076
23559900 14 16154000165209570389
2838139 119 13470397839236107074
3004659 81 15719393936856529812
312425 54 18201446830667777442
3383291 50 17967535704941729307
38570 142 9583248257394080533
392239 28 17275107279528999523
397830 11 18131064952949380104
4058900 60 11386633092941409017
4340502 62 17275389806936234782
5104073 3 17489036933125339170
559249 180 16877939399941346669
5718773 13 18187082896994316227
59682541 35 15338837608155034327
59682541 52 13551464869969262794
59755656 520 13118285837584995069
6608658 132 9511188400309872875
9689198 14 10087651428877124807
9953998 17 17561081423503013467

> <PUBCHEM_SHAPE_MULTIPOLES>
478.73
18.71
2
1.52
13.3
0.12
-0.01
12.1
-7.16
-2.63
0.2
0.34
-0.17
-0.01

> <PUBCHEM_SHAPE_SELFOVERLAP>
1028.826

> <PUBCHEM_SHAPE_VOLUME>
259.5

> <PUBCHEM_COORDINATE_TYPE>
2
5
10

$$$$
