7127925
  -OEChem-12032416393D

 57 58  0     1  0  0  0  0  0999 V2000
   -3.0394    3.6772    1.7159 S   0  0  0  0  0  0  0  0  0  0  0  0
    7.0933   -0.0817    2.2502 S   0  0  0  0  0  0  0  0  0  0  0  0
   -1.2079   -0.2952    1.2152 O   0  0  0  0  0  0  0  0  0  0  0  0
   -4.5289    0.8092    0.8604 O   0  0  0  0  0  0  0  0  0  0  0  0
    1.9846    0.3819   -2.5818 O   0  0  0  0  0  0  0  0  0  0  0  0
   -4.8718   -2.3869    1.0581 O   0  0  0  0  0  0  0  0  0  0  0  0
   -2.6775    1.1183   -0.4940 N   0  0  0  0  0  0  0  0  0  0  0  0
    0.4452    0.8911   -0.9333 N   0  0  0  0  0  0  0  0  0  0  0  0
   -2.1978   -2.3071    0.6027 N   0  0  0  0  0  0  0  0  0  0  0  0
    2.6315    0.5199   -0.3293 N   0  0  0  0  0  0  0  0  0  0  0  0
   -5.2986   -3.6297   -0.8285 N   0  0  0  0  0  0  0  0  0  0  0  0
   -0.6976    1.0190   -1.8026 C   0  0  1  0  0  0  0  0  0  0  0  0
   -2.4570   -0.2900   -0.7883 C   0  0  1  0  0  0  0  0  0  0  0  0
   -1.4574   -0.3028   -1.9428 C   0  0  0  0  0  0  0  0  0  0  0  0
   -1.7429    1.9705   -1.2290 C   0  0  0  0  0  0  0  0  0  0  0  0
   -1.8960   -0.9554    0.4323 C   0  0  0  0  0  0  0  0  0  0  0  0
   -3.7607    1.5568    0.2526 C   0  0  0  0  0  0  0  0  0  0  0  0
   -3.9560    3.0512    0.3007 C   0  0  0  0  0  0  0  0  0  0  0  0
    1.7295    0.5755   -1.3956 C   0  0  0  0  0  0  0  0  0  0  0  0
   -3.0174   -3.0507   -0.3506 C   0  0  0  0  0  0  0  0  0  0  0  0
   -1.7172   -3.0751    1.7442 C   0  0  0  0  0  0  0  0  0  0  0  0
   -4.4726   -2.9572    0.0465 C   0  0  0  0  0  0  0  0  0  0  0  0
    4.0157    0.2335   -0.3775 C   0  0  0  0  0  0  0  0  0  0  0  0
   -3.4309    5.4362    1.5466 C   0  0  0  0  0  0  0  0  0  0  0  0
    4.7674    0.2203    0.7976 C   0  0  0  0  0  0  0  0  0  0  0  0
    4.6292   -0.0360   -1.6008 C   0  0  0  0  0  0  0  0  0  0  0  0
    6.1324   -0.0625    0.7491 C   0  0  0  0  0  0  0  0  0  0  0  0
    5.9943   -0.3186   -1.6493 C   0  0  0  0  0  0  0  0  0  0  0  0
    6.7457   -0.3319   -0.4743 C   0  0  0  0  0  0  0  0  0  0  0  0
    6.2591   -1.3800    3.2056 C   0  0  0  0  0  0  0  0  0  0  0  0
   -0.3421    1.3723   -2.7767 H   0  0  0  0  0  0  0  0  0  0  0  0
   -3.4257   -0.7013   -1.0778 H   0  0  0  0  0  0  0  0  0  0  0  0
   -2.0119   -0.2924   -2.8899 H   0  0  0  0  0  0  0  0  0  0  0  0
   -0.8029   -1.1806   -1.9461 H   0  0  0  0  0  0  0  0  0  0  0  0
   -2.3062    2.4445   -2.0409 H   0  0  0  0  0  0  0  0  0  0  0  0
   -1.3217    2.7459   -0.5842 H   0  0  0  0  0  0  0  0  0  0  0  0
    0.3026    0.9759    0.0685 H   0  0  0  0  0  0  0  0  0  0  0  0
   -5.0246    3.2489    0.4372 H   0  0  0  0  0  0  0  0  0  0  0  0
   -3.6484    3.5432   -0.6238 H   0  0  0  0  0  0  0  0  0  0  0  0
   -2.8806   -2.6927   -1.3738 H   0  0  0  0  0  0  0  0  0  0  0  0
   -2.7116   -4.1036   -0.3363 H   0  0  0  0  0  0  0  0  0  0  0  0
   -1.0659   -3.8759    1.3823 H   0  0  0  0  0  0  0  0  0  0  0  0
   -1.1503   -2.4409    2.4306 H   0  0  0  0  0  0  0  0  0  0  0  0
   -2.5699   -3.5041    2.2776 H   0  0  0  0  0  0  0  0  0  0  0  0
    2.2552    0.7069    0.5967 H   0  0  0  0  0  0  0  0  0  0  0  0
   -3.0639    5.8166    0.5899 H   0  0  0  0  0  0  0  0  0  0  0  0
   -4.5102    5.5940    1.6171 H   0  0  0  0  0  0  0  0  0  0  0  0
   -2.9442    5.9925    2.3522 H   0  0  0  0  0  0  0  0  0  0  0  0
    4.2813    0.4387    1.7461 H   0  0  0  0  0  0  0  0  0  0  0  0
   -6.3014   -3.6635   -0.6781 H   0  0  0  0  0  0  0  0  0  0  0  0
   -4.9440   -4.1068   -1.6513 H   0  0  0  0  0  0  0  0  0  0  0  0
    4.1157   -0.0444   -2.5517 H   0  0  0  0  0  0  0  0  0  0  0  0
    6.4731   -0.5287   -2.6015 H   0  0  0  0  0  0  0  0  0  0  0  0
    7.8083   -0.5548   -0.5319 H   0  0  0  0  0  0  0  0  0  0  0  0
    6.8173   -1.5596    4.1282 H   0  0  0  0  0  0  0  0  0  0  0  0
    6.2228   -2.3103    2.6323 H   0  0  0  0  0  0  0  0  0  0  0  0
    5.2432   -1.0752    3.4695 H   0  0  0  0  0  0  0  0  0  0  0  0
  1 18  1  0  0  0  0
  1 24  1  0  0  0  0
  2 27  1  0  0  0  0
  2 30  1  0  0  0  0
  3 16  2  0  0  0  0
  4 17  2  0  0  0  0
  5 19  2  0  0  0  0
  6 22  2  0  0  0  0
  7 13  1  0  0  0  0
  7 15  1  0  0  0  0
  7 17  1  0  0  0  0
  8 12  1  0  0  0  0
  8 19  1  0  0  0  0
  8 37  1  0  0  0  0
  9 16  1  0  0  0  0
  9 20  1  0  0  0  0
  9 21  1  0  0  0  0
 10 19  1  0  0  0  0
 10 23  1  0  0  0  0
 10 45  1  0  0  0  0
 11 22  1  0  0  0  0
 11 50  1  0  0  0  0
 11 51  1  0  0  0  0
 12 14  1  0  0  0  0
 12 15  1  0  0  0  0
 12 31  1  0  0  0  0
 13 14  1  0  0  0  0
 13 16  1  0  0  0  0
 13 32  1  0  0  0  0
 14 33  1  0  0  0  0
 14 34  1  0  0  0  0
 15 35  1  0  0  0  0
 15 36  1  0  0  0  0
 17 18  1  0  0  0  0
 18 38  1  0  0  0  0
 18 39  1  0  0  0  0
 20 22  1  0  0  0  0
 20 40  1  0  0  0  0
 20 41  1  0  0  0  0
 21 42  1  0  0  0  0
 21 43  1  0  0  0  0
 21 44  1  0  0  0  0
 23 25  2  0  0  0  0
 23 26  1  0  0  0  0
 24 46  1  0  0  0  0
 24 47  1  0  0  0  0
 24 48  1  0  0  0  0
 25 27  1  0  0  0  0
 25 49  1  0  0  0  0
 26 28  2  0  0  0  0
 26 52  1  0  0  0  0
 27 29  2  0  0  0  0
 28 29  1  0  0  0  0
 28 53  1  0  0  0  0
 29 54  1  0  0  0  0
 30 55  1  0  0  0  0
 30 56  1  0  0  0  0
 30 57  1  0  0  0  0
M  END
> <PUBCHEM_COMPOUND_CID>
7127925

> <PUBCHEM_CONFORMER_RMSD>
1.2

> <PUBCHEM_CONFORMER_DIVERSEORDER>
1
7
26
23
19
14
4
17
21
16
22
25
18
12
8
3
20
5
13
24
6
2
15
11
9
10

> <PUBCHEM_MMFF94_PARTIAL_CHARGES>
37
1 -0.46
10 -0.55
11 -0.8
12 0.3
13 0.36
15 0.3
16 0.57
17 0.57
18 0.29
19 0.69
2 -0.33
20 0.36
21 0.3
22 0.57
23 0.12
24 0.23
25 -0.15
26 -0.15
27 0.1
28 -0.15
29 -0.15
3 -0.57
30 0.23
37 0.37
4 -0.57
45 0.37
49 0.15
5 -0.57
50 0.37
51 0.37
52 0.15
53 0.15
54 0.15
6 -0.57
7 -0.66
8 -0.73
9 -0.66

> <PUBCHEM_EFFECTIVE_ROTOR_COUNT>
13

> <PUBCHEM_PHARMACOPHORE_FEATURES>
11
1 10 donor
1 11 donor
1 24 hydrophobe
1 3 acceptor
1 30 hydrophobe
1 4 acceptor
1 5 acceptor
1 6 acceptor
1 8 donor
5 7 12 13 14 15 rings
6 23 25 26 27 28 29 rings

> <PUBCHEM_HEAVY_ATOM_COUNT>
30

> <PUBCHEM_ATOM_DEF_STEREO_COUNT>
2

> <PUBCHEM_ATOM_UDEF_STEREO_COUNT>
0

> <PUBCHEM_BOND_DEF_STEREO_COUNT>
0

> <PUBCHEM_BOND_UDEF_STEREO_COUNT>
0

> <PUBCHEM_ISOTOPIC_ATOM_COUNT>
0

> <PUBCHEM_COMPONENT_COUNT>
1

> <PUBCHEM_CACTVS_TAUTO_COUNT>
6

> <PUBCHEM_CONFORMER_ID>
006CC37500000001

> <PUBCHEM_MMFF94_ENERGY>
84.2512

> <PUBCHEM_FEATURE_SELFOVERLAP>
55.873

> <PUBCHEM_SHAPE_FINGERPRINT>
10319926 262 18343866610911179420
11036077 4 18261387832421442995
12422481 6 17315077645450292120
12616971 3 16877661241438764620
12633257 1 18186806859635905372
12788726 201 18120962704680113757
13004483 165 18196096775075865423
13583140 156 17632581539322783270
14068700 675 18263923418062883199
14705955 166 18272651259574914920
14950920 106 18336817659156659736
15183329 4 16950276322353604682
15250474 111 17603861235360716898
15326921 28 17901372403720042364
15537594 2 16950570956946072774
16067690 210 18057865992996617984
18470217 77 18131339843456525945
21033648 29 17704065175770184552
21304303 282 18269270163448170965
23522609 53 17824008696127078292
23559900 14 17680147674907640965
23929065 36 18343298167736862369
25147074 1 17823718506007109100
312425 54 18335411341203573106
314194 84 16805041814123335124
376196 1 17198270971791987685
397830 11 18059288881348964048
5080951 261 18265028345401580086
5104073 3 18337385037442766208
9981440 41 17703509874552098789

> <PUBCHEM_SHAPE_MULTIPOLES>
576.7
16.72
4.65
2.46
31.29
2.57
0.56
-2.64
7.18
-13.89
2.9
3.54
0.07
-1.9

> <PUBCHEM_SHAPE_SELFOVERLAP>
1160.357

> <PUBCHEM_SHAPE_VOLUME>
341.5

> <PUBCHEM_COORDINATE_TYPE>
2
5
10

$$$$
