7050187
  -OEChem-12032416153D

 58 59  0     1  0  0  0  0  0999 V2000
    6.8168    2.6527    0.9789 Cl  0  0  0  0  0  0  0  0  0  0  0  0
    7.2637    1.6412   -1.7725 F   0  0  0  0  0  0  0  0  0  0  0  0
   -1.6636   -1.7730    2.4500 O   0  0  0  0  0  0  0  0  0  0  0  0
    0.9738   -3.8285   -0.6039 O   0  0  0  0  0  0  0  0  0  0  0  0
   -1.8049   -4.1353   -1.1449 O   0  0  0  0  0  0  0  0  0  0  0  0
   -3.3457    0.1290    2.4461 O   0  0  0  0  0  0  0  0  0  0  0  0
    2.7840   -0.7044    2.0026 O   0  0  0  0  0  0  0  0  0  0  0  0
   -2.0363    3.2101    0.3095 O   0  0  0  0  0  0  0  0  0  0  0  0
    1.8051   -1.0918   -0.0632 N   0  0  0  0  0  0  0  0  0  0  0  0
   -3.0239    0.6490    0.2001 N   0  0  0  0  0  0  0  0  0  0  0  0
   -4.0429    3.9125    1.1783 N   0  0  0  0  0  0  0  0  0  0  0  0
   -1.7912   -1.1615    1.1717 C   0  0  1  0  0  0  0  0  0  0  0  0
    0.5851   -1.6850    0.4391 C   0  0  1  0  0  0  0  0  0  0  0  0
   -0.4481   -0.5877    0.7160 C   0  0  0  0  0  0  0  0  0  0  0  0
   -2.3204   -2.1916    0.1760 C   0  0  0  0  0  0  0  0  0  0  0  0
    0.0518   -2.7367   -0.5427 C   0  0  2  0  0  0  0  0  0  0  0  0
   -1.3024   -3.2986   -0.1027 C   0  0  2  0  0  0  0  0  0  0  0  0
   -2.7968   -0.0643    1.3645 C   0  0  0  0  0  0  0  0  0  0  0  0
   -3.9646    1.7426    0.1136 C   0  0  2  0  0  0  0  0  0  0  0  0
   -4.5287    1.9140   -1.3023 C   0  0  0  0  0  0  0  0  0  0  0  0
    2.8128   -0.6468    0.7760 C   0  0  0  0  0  0  0  0  0  0  0  0
   -5.2405    0.6692   -1.8702 C   0  0  0  0  0  0  0  0  0  0  0  0
   -3.2246    3.0024    0.5428 C   0  0  0  0  0  0  0  0  0  0  0  0
    3.9903   -0.0378    0.1055 C   0  0  0  0  0  0  0  0  0  0  0  0
   -6.4342    0.2400   -1.0162 C   0  0  0  0  0  0  0  0  0  0  0  0
   -5.7052    0.9482   -3.3023 C   0  0  0  0  0  0  0  0  0  0  0  0
    4.7617    0.9117    0.7757 C   0  0  0  0  0  0  0  0  0  0  0  0
    4.3254   -0.4171   -1.1943 C   0  0  0  0  0  0  0  0  0  0  0  0
    5.8683    1.4818    0.1462 C   0  0  0  0  0  0  0  0  0  0  0  0
    5.4318    0.1532   -1.8238 C   0  0  0  0  0  0  0  0  0  0  0  0
    6.2033    1.1025   -1.1536 C   0  0  0  0  0  0  0  0  0  0  0  0
    0.8342   -2.1816    1.3865 H   0  0  0  0  0  0  0  0  0  0  0  0
   -0.5499    0.0249   -0.1880 H   0  0  0  0  0  0  0  0  0  0  0  0
   -0.0548    0.0837    1.4917 H   0  0  0  0  0  0  0  0  0  0  0  0
   -2.5982   -1.7295   -0.7801 H   0  0  0  0  0  0  0  0  0  0  0  0
   -3.2450   -2.6519    0.5502 H   0  0  0  0  0  0  0  0  0  0  0  0
   -0.0191   -2.3279   -1.5580 H   0  0  0  0  0  0  0  0  0  0  0  0
   -1.1777   -3.9339    0.7826 H   0  0  0  0  0  0  0  0  0  0  0  0
    1.8499   -0.9087   -1.0601 H   0  0  0  0  0  0  0  0  0  0  0  0
   -2.5035   -2.2131    2.6661 H   0  0  0  0  0  0  0  0  0  0  0  0
   -2.4944    0.4355   -0.6385 H   0  0  0  0  0  0  0  0  0  0  0  0
    1.0663   -4.1958    0.2918 H   0  0  0  0  0  0  0  0  0  0  0  0
   -2.6583   -4.4937   -0.8467 H   0  0  0  0  0  0  0  0  0  0  0  0
   -4.7747    1.5558    0.8279 H   0  0  0  0  0  0  0  0  0  0  0  0
   -5.2215    2.7662   -1.3107 H   0  0  0  0  0  0  0  0  0  0  0  0
   -3.7096    2.1877   -1.9819 H   0  0  0  0  0  0  0  0  0  0  0  0
   -4.5302   -0.1655   -1.9111 H   0  0  0  0  0  0  0  0  0  0  0  0
   -7.1451    1.0628   -0.8853 H   0  0  0  0  0  0  0  0  0  0  0  0
   -6.1146   -0.0971   -0.0255 H   0  0  0  0  0  0  0  0  0  0  0  0
   -6.9665   -0.5950   -1.4845 H   0  0  0  0  0  0  0  0  0  0  0  0
   -6.4307    1.7683   -3.3328 H   0  0  0  0  0  0  0  0  0  0  0  0
   -4.8576    1.2207   -3.9401 H   0  0  0  0  0  0  0  0  0  0  0  0
   -6.1776    0.0614   -3.7381 H   0  0  0  0  0  0  0  0  0  0  0  0
    4.5020    1.2141    1.7877 H   0  0  0  0  0  0  0  0  0  0  0  0
    3.7708   -1.1749   -1.7399 H   0  0  0  0  0  0  0  0  0  0  0  0
   -3.6781    4.8015    1.5039 H   0  0  0  0  0  0  0  0  0  0  0  0
   -5.0288    3.7373    1.3442 H   0  0  0  0  0  0  0  0  0  0  0  0
    5.6974   -0.1466   -2.8333 H   0  0  0  0  0  0  0  0  0  0  0  0
  1 29  1  0  0  0  0
  2 31  1  0  0  0  0
  3 12  1  0  0  0  0
  3 40  1  0  0  0  0
  4 16  1  0  0  0  0
  4 42  1  0  0  0  0
  5 17  1  0  0  0  0
  5 43  1  0  0  0  0
  6 18  2  0  0  0  0
  7 21  2  0  0  0  0
  8 23  2  0  0  0  0
  9 13  1  0  0  0  0
  9 21  1  0  0  0  0
  9 39  1  0  0  0  0
 10 18  1  0  0  0  0
 10 19  1  0  0  0  0
 10 41  1  0  0  0  0
 11 23  1  0  0  0  0
 11 56  1  0  0  0  0
 11 57  1  0  0  0  0
 12 14  1  0  0  0  0
 12 15  1  0  0  0  0
 12 18  1  0  0  0  0
 13 14  1  0  0  0  0
 13 16  1  0  0  0  0
 13 32  1  0  0  0  0
 14 33  1  0  0  0  0
 14 34  1  0  0  0  0
 15 17  1  0  0  0  0
 15 35  1  0  0  0  0
 15 36  1  0  0  0  0
 16 17  1  0  0  0  0
 16 37  1  0  0  0  0
 17 38  1  0  0  0  0
 19 20  1  0  0  0  0
 19 23  1  0  0  0  0
 19 44  1  0  0  0  0
 20 22  1  0  0  0  0
 20 45  1  0  0  0  0
 20 46  1  0  0  0  0
 21 24  1  0  0  0  0
 22 25  1  0  0  0  0
 22 26  1  0  0  0  0
 22 47  1  0  0  0  0
 24 27  2  0  0  0  0
 24 28  1  0  0  0  0
 25 48  1  0  0  0  0
 25 49  1  0  0  0  0
 25 50  1  0  0  0  0
 26 51  1  0  0  0  0
 26 52  1  0  0  0  0
 26 53  1  0  0  0  0
 27 29  1  0  0  0  0
 27 54  1  0  0  0  0
 28 30  2  0  0  0  0
 28 55  1  0  0  0  0
 29 31  2  0  0  0  0
 30 31  1  0  0  0  0
 30 58  1  0  0  0  0
M  END
> <PUBCHEM_COMPOUND_CID>
7050187

> <PUBCHEM_CONFORMER_RMSD>
1.2

> <PUBCHEM_CONFORMER_DIVERSEORDER>
1
51
96
129
71
94
3
113
110
98
20
87
33
111
76
59
114
67
90
42
128
82
4
12
115
106
132
109
131
77
19
57
103
80
41
100
37
78
44
8
50
89
54
107
60
5
84
63
92
31
127
121
28
73
46
48
40
102
117
24
64
119
105
21
108
79
55
134
133
130
45
27
30
118
22
123
17
29
125
91
124
2
75
49
15
93
47
81
112
32
10
6
9
126
88
52
99
66
14
72
104
70
61
39
120
16
68
69
25
86
26
122
7
83
62
13
36
97
43
85
38
74
34
23
35
56
95
116
65
58
11
101
53
18

> <PUBCHEM_MMFF94_PARTIAL_CHARGES>
35
1 -0.18
10 -0.73
11 -0.8
12 0.34
13 0.3
16 0.28
17 0.28
18 0.57
19 0.36
2 -0.19
21 0.54
23 0.57
24 0.09
27 -0.15
28 -0.15
29 0.18
3 -0.68
30 -0.15
31 0.19
39 0.37
4 -0.68
40 0.4
41 0.37
42 0.4
43 0.4
5 -0.68
54 0.15
55 0.15
56 0.37
57 0.37
58 0.15
6 -0.57
7 -0.57
8 -0.57
9 -0.73

> <PUBCHEM_EFFECTIVE_ROTOR_COUNT>
10.2

> <PUBCHEM_PHARMACOPHORE_FEATURES>
15
1 10 donor
1 11 donor
1 3 acceptor
1 3 donor
1 4 acceptor
1 4 donor
1 5 acceptor
1 5 donor
1 6 acceptor
1 7 acceptor
1 8 acceptor
1 9 donor
3 22 25 26 hydrophobe
6 12 13 14 15 16 17 rings
6 24 27 28 29 30 31 rings

> <PUBCHEM_HEAVY_ATOM_COUNT>
31

> <PUBCHEM_ATOM_DEF_STEREO_COUNT>
5

> <PUBCHEM_ATOM_UDEF_STEREO_COUNT>
0

> <PUBCHEM_BOND_DEF_STEREO_COUNT>
0

> <PUBCHEM_BOND_UDEF_STEREO_COUNT>
0

> <PUBCHEM_ISOTOPIC_ATOM_COUNT>
0

> <PUBCHEM_COMPONENT_COUNT>
1

> <PUBCHEM_CACTVS_TAUTO_COUNT>
8

> <PUBCHEM_CONFORMER_ID>
006B93CB00000001

> <PUBCHEM_MMFF94_ENERGY>
69.3387

> <PUBCHEM_FEATURE_SELFOVERLAP>
76.15

> <PUBCHEM_SHAPE_FINGERPRINT>
105312 117 18413116052046136574
10670039 82 18339083687996237708
10928967 22 11599422677639441245
11135609 187 18335973174244841045
11513181 2 18055638317349101949
12717326 150 14259979128831153916
12788726 201 18189608513779357379
13103583 49 11314605168710939805
13911987 19 18409720752082113565
14068700 675 16446459361871640995
14251764 30 13829547892126706517
14347329 18 18411985724392178072
14767858 380 18341878689856898621
14904525 67 17387140965260349780
15163728 17 18338808792529564307
15198563 99 18198903806903078231
15513586 35 17244164913420932468
15575132 122 18335144236290979858
15684393 108 13326578501430216960
16988056 13 17040915361546198404
17492 54 18338499877760842245
20511986 3 17894619379806396488
21033648 29 18343868818709298248
21403212 168 7925637726637677525
22122407 14 16298395689963688300
255183 451 17263551610333662751
2838139 119 18339360747419241152
312425 54 12468638313770391020
376196 1 18045506300872769395
4015057 19 16702311187112750450
44249763 50 18269547407581232352
445580 182 13334741206686475317
5372103 7 17459169812823442805
563151 74 16298654010687186387
57527585 21 18268422439851305993
6608658 132 18410005516424212741
7808743 9 18411422825846079504

> <PUBCHEM_SHAPE_MULTIPOLES>
582.4
16.93
4.28
2.2
18.05
1.34
0.6
-16.11
8.67
-3.04
-0.21
-1.93
-0.39
0.35

> <PUBCHEM_SHAPE_SELFOVERLAP>
1203.139

> <PUBCHEM_SHAPE_VOLUME>
335.1

> <PUBCHEM_COORDINATE_TYPE>
2
5
10

$$$$
