51137082
  -OEChem-12032416243D

 43 46  0     1  0  0  0  0  0999 V2000
    3.8376   -1.7102    0.7206 S   0  0  0  0  0  0  0  0  0  0  0  0
   -6.1240    1.8365    0.3702 O   0  0  0  0  0  0  0  0  0  0  0  0
   -1.0367   -0.6392   -0.1390 N   0  0  1  0  0  0  0  0  0  0  0  0
    2.9610    0.5886   -0.0533 N   0  0  0  0  0  0  0  0  0  0  0  0
    1.1524   -0.9986    0.6213 C   0  0  1  0  0  0  0  0  0  0  0  0
    0.3893   -0.1337    1.6396 C   0  0  0  0  0  0  0  0  0  0  0  0
    0.3010   -0.9392   -0.6541 C   0  0  0  0  0  0  0  0  0  0  0  0
   -0.8260    0.3862    0.8828 C   0  0  0  0  0  0  0  0  0  0  0  0
   -1.9488   -0.2001   -1.1848 C   0  0  0  0  0  0  0  0  0  0  0  0
    2.5887   -0.5892    0.3904 C   0  0  0  0  0  0  0  0  0  0  0  0
   -3.3881   -0.3145   -0.7579 C   0  0  0  0  0  0  0  0  0  0  0  0
    5.0048   -0.5384    0.2330 C   0  0  0  0  0  0  0  0  0  0  0  0
    4.3442    0.6332   -0.1489 C   0  0  0  0  0  0  0  0  0  0  0  0
   -4.0984    0.8276   -0.3878 C   0  0  0  0  0  0  0  0  0  0  0  0
   -4.0109   -1.5624   -0.7316 C   0  0  0  0  0  0  0  0  0  0  0  0
    6.4041   -0.6481    0.1915 C   0  0  0  0  0  0  0  0  0  0  0  0
    5.1139    1.7325   -0.5876 C   0  0  0  0  0  0  0  0  0  0  0  0
   -5.4316    0.7219    0.0084 C   0  0  0  0  0  0  0  0  0  0  0  0
   -5.3441   -1.6681   -0.3351 C   0  0  0  0  0  0  0  0  0  0  0  0
   -6.0546   -0.5260    0.0346 C   0  0  0  0  0  0  0  0  0  0  0  0
    7.1419    0.4545   -0.2465 C   0  0  0  0  0  0  0  0  0  0  0  0
    6.5072    1.6303   -0.6315 C   0  0  0  0  0  0  0  0  0  0  0  0
   -7.4831    1.6564    0.7658 C   0  0  0  0  0  0  0  0  0  0  0  0
    1.1244   -2.0321    0.9965 H   0  0  0  0  0  0  0  0  0  0  0  0
    0.0695   -0.7597    2.4822 H   0  0  0  0  0  0  0  0  0  0  0  0
    0.9868    0.6890    2.0466 H   0  0  0  0  0  0  0  0  0  0  0  0
    0.3243   -1.8933   -1.1921 H   0  0  0  0  0  0  0  0  0  0  0  0
    0.6525   -0.1528   -1.3353 H   0  0  0  0  0  0  0  0  0  0  0  0
   -1.6854    0.4986    1.5512 H   0  0  0  0  0  0  0  0  0  0  0  0
   -0.5937    1.3640    0.4414 H   0  0  0  0  0  0  0  0  0  0  0  0
   -1.7212    0.8168   -1.5322 H   0  0  0  0  0  0  0  0  0  0  0  0
   -1.8314   -0.8381   -2.0724 H   0  0  0  0  0  0  0  0  0  0  0  0
   -3.6188    1.8032   -0.4041 H   0  0  0  0  0  0  0  0  0  0  0  0
   -3.4682   -2.4596   -1.0174 H   0  0  0  0  0  0  0  0  0  0  0  0
    6.9064   -1.5629    0.4905 H   0  0  0  0  0  0  0  0  0  0  0  0
    4.6283    2.6558   -0.8907 H   0  0  0  0  0  0  0  0  0  0  0  0
   -5.8281   -2.6403   -0.3148 H   0  0  0  0  0  0  0  0  0  0  0  0
   -7.0863   -0.6800    0.3318 H   0  0  0  0  0  0  0  0  0  0  0  0
    8.2262    0.3906   -0.2862 H   0  0  0  0  0  0  0  0  0  0  0  0
    7.0976    2.4776   -0.9695 H   0  0  0  0  0  0  0  0  0  0  0  0
   -8.0936    1.2690   -0.0569 H   0  0  0  0  0  0  0  0  0  0  0  0
   -7.5614    1.0394    1.6673 H   0  0  0  0  0  0  0  0  0  0  0  0
   -7.8794    2.6450    1.0198 H   0  0  0  0  0  0  0  0  0  0  0  0
  1 10  1  0  0  0  0
  1 12  1  0  0  0  0
  2 18  1  0  0  0  0
  2 23  1  0  0  0  0
  3  7  1  0  0  0  0
  3  8  1  0  0  0  0
  3  9  1  0  0  0  0
  4 10  2  0  0  0  0
  4 13  1  0  0  0  0
  5  6  1  0  0  0  0
  5  7  1  0  0  0  0
  5 10  1  0  0  0  0
  5 24  1  0  0  0  0
  6  8  1  0  0  0  0
  6 25  1  0  0  0  0
  6 26  1  0  0  0  0
  7 27  1  0  0  0  0
  7 28  1  0  0  0  0
  8 29  1  0  0  0  0
  8 30  1  0  0  0  0
  9 11  1  0  0  0  0
  9 31  1  0  0  0  0
  9 32  1  0  0  0  0
 11 14  2  0  0  0  0
 11 15  1  0  0  0  0
 12 13  1  0  0  0  0
 12 16  2  0  0  0  0
 13 17  2  0  0  0  0
 14 18  1  0  0  0  0
 14 33  1  0  0  0  0
 15 19  2  0  0  0  0
 15 34  1  0  0  0  0
 16 21  1  0  0  0  0
 16 35  1  0  0  0  0
 17 22  1  0  0  0  0
 17 36  1  0  0  0  0
 18 20  2  0  0  0  0
 19 20  1  0  0  0  0
 19 37  1  0  0  0  0
 20 38  1  0  0  0  0
 21 22  2  0  0  0  0
 21 39  1  0  0  0  0
 22 40  1  0  0  0  0
 23 41  1  0  0  0  0
 23 42  1  0  0  0  0
 23 43  1  0  0  0  0
M  END
> <PUBCHEM_COMPOUND_CID>
51137082

> <PUBCHEM_CONFORMER_RMSD>
0.8

> <PUBCHEM_CONFORMER_DIVERSEORDER>
1
116
129
47
63
137
108
111
72
19
43
91
27
49
88
103
109
119
29
55
97
54
4
123
24
76
8
95
127
35
75
64
42
128
85
20
71
23
125
102
13
22
106
107
110
41
89
117
136
80
86
66
46
78
130
44
50
79
38
124
99
115
10
39
93
31
96
114
132
9
98
32
51
83
101
67
14
113
69
70
5
25
118
120
53
62
84
2
100
36
65
134
11
92
17
33
59
52
94
104
18
68
3
21
37
48
7
131
77
16
90
61
56
73
28
74
12
122
45
82
133
26
81
105
30
60
57
58
6
126
121
87
135
112
40
34
15

> <PUBCHEM_MMFF94_PARTIAL_CHARGES>
30
1 -0.08
10 0.2
11 -0.14
12 0.04
13 0.23
14 -0.15
15 -0.15
16 -0.15
17 -0.15
18 0.08
19 -0.15
2 -0.36
20 -0.15
21 -0.15
22 -0.15
23 0.28
3 -0.81
33 0.15
34 0.15
35 0.15
36 0.15
37 0.15
38 0.15
39 0.15
4 -0.57
40 0.15
5 0.18
7 0.27
8 0.27
9 0.41

> <PUBCHEM_EFFECTIVE_ROTOR_COUNT>
5

> <PUBCHEM_PHARMACOPHORE_FEATURES>
7
1 2 acceptor
1 3 cation
1 4 acceptor
5 1 4 10 12 13 rings
5 3 5 6 7 8 rings
6 11 14 15 18 19 20 rings
6 12 13 16 17 21 22 rings

> <PUBCHEM_HEAVY_ATOM_COUNT>
23

> <PUBCHEM_ATOM_DEF_STEREO_COUNT>
1

> <PUBCHEM_ATOM_UDEF_STEREO_COUNT>
0

> <PUBCHEM_BOND_DEF_STEREO_COUNT>
0

> <PUBCHEM_BOND_UDEF_STEREO_COUNT>
0

> <PUBCHEM_ISOTOPIC_ATOM_COUNT>
0

> <PUBCHEM_COMPONENT_COUNT>
1

> <PUBCHEM_CACTVS_TAUTO_COUNT>
1

> <PUBCHEM_CONFORMER_ID>
030C4A3A00000001

> <PUBCHEM_MMFF94_ENERGY>
60.8648

> <PUBCHEM_FEATURE_SELFOVERLAP>
35.594

> <PUBCHEM_SHAPE_FINGERPRINT>
10066227 112 18412821361745336293
10299344 5 18410854373918472631
10554248 39 18127678349798610615
10595046 47 18407755936897200387
106641 1 12685099202738036476
11315181 36 18334574668795125991
11646440 116 16298107583779044324
12166972 35 18040434408664255132
12236239 1 18412543219425578166
12516196 113 9655578508983609750
12730499 353 17385440999755307858
12788726 201 17632581504704692778
13073987 5 15647324187412372633
13167372 99 18409166584957348324
13533116 47 16878213174743206034
13668630 136 12607398893272392437
14251752 14 17989205940926379720
14251764 18 18343580746857563855
14849402 71 17968668240404336276
14856354 85 18272372018614421423
14933364 13 18409167709827095956
15048467 5 18412262822538367325
15183329 4 13758076272849949645
15198563 99 15553899805418853928
15537594 2 16630524042264128310
1577012 14 18410289211676845534
16989713 51 17130977832879328815
17093844 174 17203601606126693187
17834072 8 15913325793120488233
18006028 8 13039189212591117986
20157964 124 18260267439380209146
20621476 66 18413109450739314323
20735858 18 14562532873006972569
21298829 104 18263647424018875988
21521721 280 17967253109030586690
21792961 116 17489595540893191423
220451 1 18333445434928415106
22149856 69 14490757768011931861
2215653 11 14045741530179367724
22224240 67 16805325492133172363
23081809 10 18341602724695825223
23198884 109 18334857233796763523
23536379 177 18411135840136326698
23569914 152 13896879527200965965
23569943 247 16952234436039531362
23576562 1 17130970118770066685
23622692 88 13623529074035939346
2747138 104 16226056569668053653
29717793 49 18131356302551627142
3004659 81 18201156564658084454
314173 85 15123510323926937482
3545911 37 17675922110452614438
3663271 9 18333167267424565299
397830 11 15214164018155048221
4073 2 18041284352089409258
4325135 7 18261390070252547671
4340502 62 16515401859511410698
445580 37 17917720084387574753
5265222 85 18058729259341654198
5283156 175 17775287128344680634
542803 24 18410006641515304726
559249 180 9295293833376543557
5758199 1 17894914035531082986
59682541 35 15502667017783076465
59755656 215 15267348400955279604
59755656 520 17749104508548164027
6328613 192 18412825768482021873

> <PUBCHEM_SHAPE_MULTIPOLES>
461.35
21.3
1.74
1.03
3.12
0.22
-0.13
7.83
0.5
0.53
0.01
0.28
-0.04
-1.88

> <PUBCHEM_SHAPE_SELFOVERLAP>
990.837

> <PUBCHEM_SHAPE_VOLUME>
257.5

> <PUBCHEM_COORDINATE_TYPE>
2
5
10

$$$$
