26743626
  -OEChem-12032416373D

 50 54  0     1  0  0  0  0  0999 V2000
    6.3225   -0.2223   -0.3618 F   0  0  0  0  0  0  0  0  0  0  0  0
    5.7670   -0.2357    1.7403 F   0  0  0  0  0  0  0  0  0  0  0  0
    6.3574    1.6226    0.7779 F   0  0  0  0  0  0  0  0  0  0  0  0
   -5.7331    2.3988    2.0901 O   0  0  0  0  0  0  0  0  0  0  0  0
   -1.5869    2.0991   -1.8097 O   0  0  0  0  0  0  0  0  0  0  0  0
   -3.6543    0.0254    0.4116 N   0  0  1  0  0  0  0  0  0  0  0  0
   -0.8556    0.9746   -0.0161 N   0  0  0  0  0  0  0  0  0  0  0  0
   -0.8534   -2.4685   -2.1379 N   0  0  0  0  0  0  0  0  0  0  0  0
   -0.1883    2.1171   -1.8825 N   0  0  0  0  0  0  0  0  0  0  0  0
   -3.3696    1.2438   -0.3733 C   0  0  1  0  0  0  0  0  0  0  0  0
   -3.9322    2.3993    0.4753 C   0  0  0  0  0  0  0  0  0  0  0  0
   -4.5527    1.7278    1.6941 C   0  0  2  0  0  0  0  0  0  0  0  0
   -4.8403    0.3178    1.2144 C   0  0  0  0  0  0  0  0  0  0  0  0
   -3.8304   -1.1619   -0.4144 C   0  0  0  0  0  0  0  0  0  0  0  0
   -1.8962    1.4073   -0.6819 C   0  0  0  0  0  0  0  0  0  0  0  0
   -2.5114   -1.7392   -0.8547 C   0  0  0  0  0  0  0  0  0  0  0  0
   -1.4607   -2.1930   -0.0090 C   0  0  0  0  0  0  0  0  0  0  0  0
   -2.1084   -1.9215   -2.1575 C   0  0  0  0  0  0  0  0  0  0  0  0
   -0.4328   -2.6453   -0.8390 C   0  0  0  0  0  0  0  0  0  0  0  0
    0.1693    1.4342   -0.7908 C   0  0  0  0  0  0  0  0  0  0  0  0
   -1.2851   -2.2624    1.3874 C   0  0  0  0  0  0  0  0  0  0  0  0
    0.7668   -3.1657   -0.3406 C   0  0  0  0  0  0  0  0  0  0  0  0
    1.5409    1.1952   -0.4452 C   0  0  0  0  0  0  0  0  0  0  0  0
   -0.0905   -2.7807    1.9003 C   0  0  0  0  0  0  0  0  0  0  0  0
    0.9184   -3.2248    1.0477 C   0  0  0  0  0  0  0  0  0  0  0  0
    1.8542    0.4764    0.7086 C   0  0  0  0  0  0  0  0  0  0  0  0
    2.5611    1.6806   -1.2630 C   0  0  0  0  0  0  0  0  0  0  0  0
    3.1878    0.2435    1.0445 C   0  0  0  0  0  0  0  0  0  0  0  0
    3.8947    1.4478   -0.9272 C   0  0  0  0  0  0  0  0  0  0  0  0
    4.2080    0.7293    0.2266 C   0  0  0  0  0  0  0  0  0  0  0  0
    5.6338    0.4802    0.5858 C   0  0  0  0  0  0  0  0  0  0  0  0
   -3.9234    1.2316   -1.3226 H   0  0  0  0  0  0  0  0  0  0  0  0
   -3.1682    3.1208    0.7873 H   0  0  0  0  0  0  0  0  0  0  0  0
   -4.6892    2.9539   -0.0932 H   0  0  0  0  0  0  0  0  0  0  0  0
   -3.8460    1.7169    2.5330 H   0  0  0  0  0  0  0  0  0  0  0  0
   -4.9518   -0.3732    2.0566 H   0  0  0  0  0  0  0  0  0  0  0  0
   -5.7660    0.2867    0.6247 H   0  0  0  0  0  0  0  0  0  0  0  0
   -4.4831   -0.9705   -1.2760 H   0  0  0  0  0  0  0  0  0  0  0  0
   -4.3261   -1.9481    0.1723 H   0  0  0  0  0  0  0  0  0  0  0  0
   -5.4888    3.3137    2.3110 H   0  0  0  0  0  0  0  0  0  0  0  0
   -2.5997   -1.7104   -3.0971 H   0  0  0  0  0  0  0  0  0  0  0  0
   -0.3129   -2.7071   -2.9578 H   0  0  0  0  0  0  0  0  0  0  0  0
   -2.0607   -1.9231    2.0678 H   0  0  0  0  0  0  0  0  0  0  0  0
    1.5535   -3.5102   -1.0034 H   0  0  0  0  0  0  0  0  0  0  0  0
    0.0510   -2.8359    2.9764 H   0  0  0  0  0  0  0  0  0  0  0  0
    1.8390   -3.6219    1.4676 H   0  0  0  0  0  0  0  0  0  0  0  0
    1.0820    0.0938    1.3701 H   0  0  0  0  0  0  0  0  0  0  0  0
    2.3555    2.2441   -2.1697 H   0  0  0  0  0  0  0  0  0  0  0  0
    3.4104   -0.3173    1.9480 H   0  0  0  0  0  0  0  0  0  0  0  0
    4.6831    1.8298   -1.5703 H   0  0  0  0  0  0  0  0  0  0  0  0
  1 31  1  0  0  0  0
  2 31  1  0  0  0  0
  3 31  1  0  0  0  0
  4 12  1  0  0  0  0
  4 40  1  0  0  0  0
  5  9  1  0  0  0  0
  5 15  1  0  0  0  0
  6 10  1  0  0  0  0
  6 13  1  0  0  0  0
  6 14  1  0  0  0  0
  7 15  2  0  0  0  0
  7 20  1  0  0  0  0
  8 18  1  0  0  0  0
  8 19  1  0  0  0  0
  8 42  1  0  0  0  0
  9 20  2  0  0  0  0
 10 11  1  0  0  0  0
 10 15  1  0  0  0  0
 10 32  1  0  0  0  0
 11 12  1  0  0  0  0
 11 33  1  0  0  0  0
 11 34  1  0  0  0  0
 12 13  1  0  0  0  0
 12 35  1  0  0  0  0
 13 36  1  0  0  0  0
 13 37  1  0  0  0  0
 14 16  1  0  0  0  0
 14 38  1  0  0  0  0
 14 39  1  0  0  0  0
 16 17  1  0  0  0  0
 16 18  2  0  0  0  0
 17 19  1  0  0  0  0
 17 21  2  0  0  0  0
 18 41  1  0  0  0  0
 19 22  2  0  0  0  0
 20 23  1  0  0  0  0
 21 24  1  0  0  0  0
 21 43  1  0  0  0  0
 22 25  1  0  0  0  0
 22 44  1  0  0  0  0
 23 26  2  0  0  0  0
 23 27  1  0  0  0  0
 24 25  2  0  0  0  0
 24 45  1  0  0  0  0
 25 46  1  0  0  0  0
 26 28  1  0  0  0  0
 26 47  1  0  0  0  0
 27 29  2  0  0  0  0
 27 48  1  0  0  0  0
 28 30  2  0  0  0  0
 28 49  1  0  0  0  0
 29 30  1  0  0  0  0
 29 50  1  0  0  0  0
 30 31  1  0  0  0  0
M  END
> <PUBCHEM_COMPOUND_CID>
26743626

> <PUBCHEM_CONFORMER_RMSD>
0.8

> <PUBCHEM_CONFORMER_DIVERSEORDER>
1
24
94
43
118
130
13
79
18
131
106
42
2
129
110
103
49
92
84
22
100
115
35
46
97
48
67
26
58
80
45
132
116
124
112
70
88
121
120
36
111
117
53
10
99
56
101
125
38
96
21
11
119
71
93
41
19
87
39
68
69
27
105
15
98
64
76
3
123
31
7
104
126
33
108
12
50
75
54
122
89
40
16
55
107
85
44
95
9
86
77
29
23
61
91
102
78
20
90
59
127
113
52
57
30
82
34
109
8
4
28
83
128
37
62
14
73
60
51
63
65
5
74
17
32
66
47
25
6
114
81
72

> <PUBCHEM_MMFF94_PARTIAL_CHARGES>
40
1 -0.34
10 0.45
12 0.28
13 0.27
14 0.45
15 0.3
16 -0.18
18 -0.3
19 -0.15
2 -0.34
20 0.46
21 -0.15
22 -0.15
23 0.05
24 -0.15
25 -0.15
26 -0.15
27 -0.15
28 -0.15
29 -0.15
3 -0.34
30 -0.14
31 1.16
4 -0.68
40 0.4
41 0.15
42 0.27
43 0.15
44 0.15
45 0.15
46 0.15
47 0.15
48 0.15
49 0.15
5 -0.02
50 0.15
6 -0.81
7 -0.57
8 0.03
9 -0.41

> <PUBCHEM_EFFECTIVE_ROTOR_COUNT>
6

> <PUBCHEM_PHARMACOPHORE_FEATURES>
11
1 4 acceptor
1 4 donor
1 6 cation
1 8 cation
1 8 donor
3 7 9 20 cation
5 5 7 9 15 20 rings
5 6 10 11 12 13 rings
5 8 16 17 18 19 rings
6 17 19 21 22 24 25 rings
6 23 26 27 28 29 30 rings

> <PUBCHEM_HEAVY_ATOM_COUNT>
31

> <PUBCHEM_ATOM_DEF_STEREO_COUNT>
2

> <PUBCHEM_ATOM_UDEF_STEREO_COUNT>
0

> <PUBCHEM_BOND_DEF_STEREO_COUNT>
0

> <PUBCHEM_BOND_UDEF_STEREO_COUNT>
0

> <PUBCHEM_ISOTOPIC_ATOM_COUNT>
0

> <PUBCHEM_COMPONENT_COUNT>
1

> <PUBCHEM_CACTVS_TAUTO_COUNT>
1

> <PUBCHEM_CONFORMER_ID>
0198134A00000001

> <PUBCHEM_MMFF94_ENERGY>
53.9355

> <PUBCHEM_FEATURE_SELFOVERLAP>
55.915

> <PUBCHEM_SHAPE_FINGERPRINT>
10382601 240 18262523576594100195
11135926 11 17676476264935623250
11445158 3 16878235258721334598
12047536 79 17833574305855762289
12156800 1 17029711690114766091
12422481 6 18263635165669899714
12553582 1 17968360347563126916
12633257 1 18342460373825175116
12788726 201 17836386095840754829
13726171 33 17757312445108044612
14068700 675 17985534801025177125
14363568 33 17835243346160836670
14765038 42 18410579496164730648
14840074 17 17967814959551527132
15274700 242 17386267871480980200
15420108 30 18200594684171982437
16110190 28 18187932828209652188
16112460 7 18337393858873199008
16120349 306 18335974320388354752
20554085 129 17845366670641266073
20691752 17 18041572347242875167
20775438 99 15891339211235832838
21304303 282 15696620786886199650
21403212 168 18409731717076000417
21796203 349 17751674058896423616
23559900 14 17702409315242895140
23728640 28 18269558415055053871
338550 245 18261114050290381046
3411729 13 18196103144734054153
392239 28 17822018614092070443
4112364 45 17268093259239358585
5265222 85 18269286810640897612
59755656 520 18130506349149564236
6438718 38 18269278022314890038
7064713 232 18413388743587938448
7226269 152 18059860558249150416

> <PUBCHEM_SHAPE_MULTIPOLES>
584.48
11.23
3.85
1.91
12.28
2.5
0.12
-7.83
-5.66
-2.11
0.06
-1.05
0.25
-1.86

> <PUBCHEM_SHAPE_SELFOVERLAP>
1301.055

> <PUBCHEM_SHAPE_VOLUME>
315.3

> <PUBCHEM_COORDINATE_TYPE>
2
5
10

$$$$
