45783343
  -OEChem-12032416263D

 53 56  0     1  0  0  0  0  0999 V2000
   -2.6117   -0.6002    2.3107 O   0  0  0  0  0  0  0  0  0  0  0  0
    3.7929   -0.5831   -0.3405 O   0  0  0  0  0  0  0  0  0  0  0  0
    5.6710   -2.0672   -1.7915 O   0  0  0  0  0  0  0  0  0  0  0  0
   -3.5350   -1.1590   -1.2022 N   0  0  1  0  0  0  0  0  0  0  0  0
   -1.1813   -0.9385    0.6206 N   0  0  0  0  0  0  0  0  0  0  0  0
   -1.3416   -0.2770    2.8049 N   0  0  0  0  0  0  0  0  0  0  0  0
    3.6340    0.0898    1.8744 N   0  0  0  0  0  0  0  0  0  0  0  0
    1.2547    4.6211   -0.4011 N   0  0  0  0  0  0  0  0  0  0  0  0
   -3.6685   -1.3840    0.2511 C   0  0  1  0  0  0  0  0  0  0  0  0
   -3.9896   -2.8838    0.3869 C   0  0  0  0  0  0  0  0  0  0  0  0
   -4.0765   -3.4029   -1.0413 C   0  0  0  0  0  0  0  0  0  0  0  0
   -4.3787   -2.1605   -1.8546 C   0  0  0  0  0  0  0  0  0  0  0  0
   -3.8807    0.1973   -1.6077 C   0  0  0  0  0  0  0  0  0  0  0  0
   -2.4276   -0.9799    1.0191 C   0  0  0  0  0  0  0  0  0  0  0  0
   -2.7577    1.1648   -1.3438 C   0  0  0  0  0  0  0  0  0  0  0  0
   -2.9663    2.2657   -0.5130 C   0  0  0  0  0  0  0  0  0  0  0  0
   -1.5088    0.9603   -1.9303 C   0  0  0  0  0  0  0  0  0  0  0  0
   -0.5524   -0.5017    1.7501 C   0  0  0  0  0  0  0  0  0  0  0  0
   -1.9258    3.1619   -0.2686 C   0  0  0  0  0  0  0  0  0  0  0  0
   -0.4683    1.8566   -1.6859 C   0  0  0  0  0  0  0  0  0  0  0  0
    0.8674   -0.3012    1.7920 C   0  0  0  0  0  0  0  0  0  0  0  0
   -0.6768    2.9573   -0.8548 C   0  0  0  0  0  0  0  0  0  0  0  0
    1.6416   -0.5521    0.6646 C   0  0  0  0  0  0  0  0  0  0  0  0
    1.4748    0.1450    2.9606 C   0  0  0  0  0  0  0  0  0  0  0  0
    3.0083   -0.3431    0.7569 C   0  0  0  0  0  0  0  0  0  0  0  0
    0.3890    3.8754   -0.6045 C   0  0  0  0  0  0  0  0  0  0  0  0
    2.8488    0.3231    2.9500 C   0  0  0  0  0  0  0  0  0  0  0  0
    5.1889   -0.3525   -0.1919 C   0  0  0  0  0  0  0  0  0  0  0  0
    5.8882   -0.6933   -1.4937 C   0  0  0  0  0  0  0  0  0  0  0  0
    6.2875   -2.4380   -3.0166 C   0  0  0  0  0  0  0  0  0  0  0  0
   -4.5237   -0.8236    0.6547 H   0  0  0  0  0  0  0  0  0  0  0  0
   -3.2445   -3.4458    0.9604 H   0  0  0  0  0  0  0  0  0  0  0  0
   -4.9601   -3.0095    0.8822 H   0  0  0  0  0  0  0  0  0  0  0  0
   -3.1121   -3.8316   -1.3413 H   0  0  0  0  0  0  0  0  0  0  0  0
   -4.8424   -4.1756   -1.1548 H   0  0  0  0  0  0  0  0  0  0  0  0
   -4.1174   -2.2966   -2.9086 H   0  0  0  0  0  0  0  0  0  0  0  0
   -5.4438   -1.9068   -1.7801 H   0  0  0  0  0  0  0  0  0  0  0  0
   -4.0589    0.2282   -2.6919 H   0  0  0  0  0  0  0  0  0  0  0  0
   -4.8188    0.5330   -1.1465 H   0  0  0  0  0  0  0  0  0  0  0  0
   -3.9335    2.4362   -0.0478 H   0  0  0  0  0  0  0  0  0  0  0  0
   -1.3321    0.1097   -2.5834 H   0  0  0  0  0  0  0  0  0  0  0  0
   -2.1035    4.0147    0.3822 H   0  0  0  0  0  0  0  0  0  0  0  0
    0.4999    1.6832   -2.1497 H   0  0  0  0  0  0  0  0  0  0  0  0
    1.2113   -0.9012   -0.2689 H   0  0  0  0  0  0  0  0  0  0  0  0
    0.9225    0.3572    3.8701 H   0  0  0  0  0  0  0  0  0  0  0  0
    3.3712    0.6697    3.8357 H   0  0  0  0  0  0  0  0  0  0  0  0
    5.5818   -0.9979    0.6036 H   0  0  0  0  0  0  0  0  0  0  0  0
    5.3756    0.6996    0.0540 H   0  0  0  0  0  0  0  0  0  0  0  0
    5.4747   -0.0844   -2.3062 H   0  0  0  0  0  0  0  0  0  0  0  0
    6.9625   -0.4980   -1.4040 H   0  0  0  0  0  0  0  0  0  0  0  0
    5.8662   -1.8641   -3.8476 H   0  0  0  0  0  0  0  0  0  0  0  0
    7.3698   -2.2858   -2.9632 H   0  0  0  0  0  0  0  0  0  0  0  0
    6.0929   -3.4995   -3.1923 H   0  0  0  0  0  0  0  0  0  0  0  0
  1  6  1  0  0  0  0
  1 14  1  0  0  0  0
  2 25  1  0  0  0  0
  2 28  1  0  0  0  0
  3 29  1  0  0  0  0
  3 30  1  0  0  0  0
  4  9  1  0  0  0  0
  4 12  1  0  0  0  0
  4 13  1  0  0  0  0
  5 14  2  0  0  0  0
  5 18  1  0  0  0  0
  6 18  2  0  0  0  0
  7 25  2  0  0  0  0
  7 27  1  0  0  0  0
  8 26  3  0  0  0  0
  9 10  1  0  0  0  0
  9 14  1  0  0  0  0
  9 31  1  0  0  0  0
 10 11  1  0  0  0  0
 10 32  1  0  0  0  0
 10 33  1  0  0  0  0
 11 12  1  0  0  0  0
 11 34  1  0  0  0  0
 11 35  1  0  0  0  0
 12 36  1  0  0  0  0
 12 37  1  0  0  0  0
 13 15  1  0  0  0  0
 13 38  1  0  0  0  0
 13 39  1  0  0  0  0
 15 16  2  0  0  0  0
 15 17  1  0  0  0  0
 16 19  1  0  0  0  0
 16 40  1  0  0  0  0
 17 20  2  0  0  0  0
 17 41  1  0  0  0  0
 18 21  1  0  0  0  0
 19 22  2  0  0  0  0
 19 42  1  0  0  0  0
 20 22  1  0  0  0  0
 20 43  1  0  0  0  0
 21 23  2  0  0  0  0
 21 24  1  0  0  0  0
 22 26  1  0  0  0  0
 23 25  1  0  0  0  0
 23 44  1  0  0  0  0
 24 27  2  0  0  0  0
 24 45  1  0  0  0  0
 27 46  1  0  0  0  0
 28 29  1  0  0  0  0
 28 47  1  0  0  0  0
 28 48  1  0  0  0  0
 29 49  1  0  0  0  0
 29 50  1  0  0  0  0
 30 51  1  0  0  0  0
 30 52  1  0  0  0  0
 30 53  1  0  0  0  0
M  END
> <PUBCHEM_COMPOUND_CID>
45783343

> <PUBCHEM_CONFORMER_RMSD>
1

> <PUBCHEM_CONFORMER_DIVERSEORDER>
1
83
24
97
109
108
106
64
110
19
27
36
70
35
17
84
103
67
107
99
58
44
101
60
92
98
9
15
91
113
26
76
105
50
69
89
54
49
59
52
20
86
65
56
81
12
18
48
111
66
94
95
21
39
32
55
114
41
10
71
112
46
75
47
85
42
40
74
87
78
11
25
3
72
30
16
102
96
88
53
61
29
45
43
8
68
80
73
77
2
22
13
51
100
28
93
31
14
62
4
90
5
7
115
63
79
34
38
82
104
57
23
6
37
33

> <PUBCHEM_MMFF94_PARTIAL_CHARGES>
35
1 -0.02
12 0.27
13 0.41
14 0.3
15 -0.14
16 -0.15
17 -0.15
18 0.46
19 -0.15
2 -0.36
20 -0.15
21 0.05
22 0.07
23 -0.15
24 -0.15
25 0.39
26 0.48
27 0.16
28 0.28
29 0.28
3 -0.56
30 0.28
4 -0.81
40 0.15
41 0.15
42 0.15
43 0.15
44 0.15
45 0.15
46 0.15
5 -0.57
6 -0.41
7 -0.62
8 -0.56
9 0.45

> <PUBCHEM_EFFECTIVE_ROTOR_COUNT>
9

> <PUBCHEM_PHARMACOPHORE_FEATURES>
8
1 3 acceptor
1 4 cation
1 8 acceptor
3 5 6 18 cation
5 1 5 6 14 18 rings
5 4 9 10 11 12 rings
6 15 16 17 19 20 22 rings
6 7 21 23 24 25 27 rings

> <PUBCHEM_HEAVY_ATOM_COUNT>
30

> <PUBCHEM_ATOM_DEF_STEREO_COUNT>
1

> <PUBCHEM_ATOM_UDEF_STEREO_COUNT>
0

> <PUBCHEM_BOND_DEF_STEREO_COUNT>
0

> <PUBCHEM_BOND_UDEF_STEREO_COUNT>
0

> <PUBCHEM_ISOTOPIC_ATOM_COUNT>
0

> <PUBCHEM_COMPONENT_COUNT>
1

> <PUBCHEM_CACTVS_TAUTO_COUNT>
1

> <PUBCHEM_CONFORMER_ID>
02BA992F00000001

> <PUBCHEM_MMFF94_ENERGY>
63.2027

> <PUBCHEM_FEATURE_SELFOVERLAP>
40.598

> <PUBCHEM_SHAPE_FINGERPRINT>
1100329 8 17971442231833493485
11477941 20 18189638106662449172
11607047 141 17979375354420556387
12596599 1 18266719377480107457
12788726 201 17969210145059918717
13761468 95 17390511792520883628
13994607 96 17168434748756115561
14114211 68 17096367233327708107
14910302 57 18200864115385720274
17492 54 17023170609889544309
17818456 19 17465619487205894475
19319366 153 16953351518778992849
20775438 99 17179382886613936219
20905425 154 17536010497158495637
3610482 184 17606989216955135806
484985 159 15984535590568356693
6786 2 17552087199624003345

> <PUBCHEM_SHAPE_MULTIPOLES>
574.87
11.14
4.21
3.12
16.13
3.93
1.2
-11.31
-8.5
-2.52
-2.55
2.85
-1.21
2.3

> <PUBCHEM_SHAPE_SELFOVERLAP>
1234.871

> <PUBCHEM_SHAPE_VOLUME>
316.6

> <PUBCHEM_COORDINATE_TYPE>
2
5
10

$$$$
