45361409
  -OEChem-12032416313D

 69 72  0     1  0  0  0  0  0999 V2000
    8.0506    1.5101   -0.1388 S   0  0  0  0  0  0  0  0  0  0  0  0
    0.7541   -1.7677   -1.6421 O   0  0  0  0  0  0  0  0  0  0  0  0
    5.2881   -1.6905    1.0848 O   0  0  0  0  0  0  0  0  0  0  0  0
   -4.7600    2.2158   -0.7133 O   0  0  0  0  0  0  0  0  0  0  0  0
   -4.0185    0.1559    0.0501 N   0  0  0  0  0  0  0  0  0  0  0  0
    5.2794   -1.1428   -1.1690 N   0  0  0  0  0  0  0  0  0  0  0  0
    0.0239    0.2268    1.5304 C   0  0  1  0  0  0  0  0  0  0  0  0
   -0.1928   -0.3284    0.0834 C   0  0  2  0  0  0  0  0  0  0  0  0
   -1.6980   -0.7137   -0.1481 C   0  0  1  0  0  0  0  0  0  0  0  0
    0.8414   -1.4407   -0.2544 C   0  0  2  0  0  0  0  0  0  0  0  0
    1.4880    0.7010    1.6873 C   0  0  0  0  0  0  0  0  0  0  0  0
   -0.8932    1.4534    1.7424 C   0  0  0  0  0  0  0  0  0  0  0  0
    2.2997   -0.9951    0.0038 C   0  0  1  0  0  0  0  0  0  0  0  0
   -2.6167    0.5067    0.1408 C   0  0  2  0  0  0  0  0  0  0  0  0
    2.5027   -0.3967    1.3956 C   0  0  0  0  0  0  0  0  0  0  0  0
   -2.3652    1.1470    1.5057 C   0  0  0  0  0  0  0  0  0  0  0  0
   -0.2769   -0.8300    2.6233 C   0  0  0  0  0  0  0  0  0  0  0  0
    3.2921   -2.1447   -0.2094 C   0  0  2  0  0  0  0  0  0  0  0  0
   -1.9881   -1.2413   -1.5634 C   0  0  0  0  0  0  0  0  0  0  0  0
    2.9669   -3.3001    0.7307 C   0  0  0  0  0  0  0  0  0  0  0  0
    4.7187   -1.6448   -0.0036 C   0  0  0  0  0  0  0  0  0  0  0  0
   -4.9807    1.0557   -0.3754 C   0  0  0  0  0  0  0  0  0  0  0  0
   -6.3774    0.5496   -0.3874 C   0  0  0  0  0  0  0  0  0  0  0  0
    6.6208   -0.6098   -1.2242 C   0  0  0  0  0  0  0  0  0  0  0  0
   -7.4428    1.4379   -0.2416 C   0  0  0  0  0  0  0  0  0  0  0  0
   -6.6231   -0.8142   -0.5458 C   0  0  0  0  0  0  0  0  0  0  0  0
    6.6583    0.8532   -0.8888 C   0  0  0  0  0  0  0  0  0  0  0  0
   -8.7542    0.9625   -0.2543 C   0  0  0  0  0  0  0  0  0  0  0  0
   -7.9343   -1.2897   -0.5586 C   0  0  0  0  0  0  0  0  0  0  0  0
   -8.9999   -0.4015   -0.4127 C   0  0  0  0  0  0  0  0  0  0  0  0
    5.6878    1.8070   -1.1030 C   0  0  0  0  0  0  0  0  0  0  0  0
    6.0926    3.0942   -0.6454 C   0  0  0  0  0  0  0  0  0  0  0  0
    7.3569    3.0751   -0.0990 C   0  0  0  0  0  0  0  0  0  0  0  0
    0.0089    0.4962   -0.6192 H   0  0  0  0  0  0  0  0  0  0  0  0
   -1.9663   -1.5247    0.5408 H   0  0  0  0  0  0  0  0  0  0  0  0
    0.5682   -2.3351    0.3085 H   0  0  0  0  0  0  0  0  0  0  0  0
    1.6566    1.0855    2.7015 H   0  0  0  0  0  0  0  0  0  0  0  0
    1.6786    1.5417    1.0064 H   0  0  0  0  0  0  0  0  0  0  0  0
   -0.7692    1.8498    2.7582 H   0  0  0  0  0  0  0  0  0  0  0  0
   -0.5937    2.2602    1.0599 H   0  0  0  0  0  0  0  0  0  0  0  0
    2.5447   -0.2108   -0.7281 H   0  0  0  0  0  0  0  0  0  0  0  0
   -2.4147    1.2681   -0.6253 H   0  0  0  0  0  0  0  0  0  0  0  0
    3.4940    0.0636    1.4768 H   0  0  0  0  0  0  0  0  0  0  0  0
    2.4440   -1.1389    2.1939 H   0  0  0  0  0  0  0  0  0  0  0  0
   -2.7481    0.4992    2.3037 H   0  0  0  0  0  0  0  0  0  0  0  0
   -2.9378    2.0798    1.5898 H   0  0  0  0  0  0  0  0  0  0  0  0
   -1.3200   -1.1564    2.6227 H   0  0  0  0  0  0  0  0  0  0  0  0
   -0.0713   -0.4222    3.6200 H   0  0  0  0  0  0  0  0  0  0  0  0
    0.3298   -1.7329    2.5109 H   0  0  0  0  0  0  0  0  0  0  0  0
    3.2106   -2.5215   -1.2372 H   0  0  0  0  0  0  0  0  0  0  0  0
   -1.5564   -2.2352   -1.7104 H   0  0  0  0  0  0  0  0  0  0  0  0
   -3.0614   -1.3605   -1.7433 H   0  0  0  0  0  0  0  0  0  0  0  0
   -1.5973   -0.5626   -2.3285 H   0  0  0  0  0  0  0  0  0  0  0  0
   -4.2893   -0.7482    0.4227 H   0  0  0  0  0  0  0  0  0  0  0  0
    0.9456   -0.9638   -2.1545 H   0  0  0  0  0  0  0  0  0  0  0  0
    2.0125   -3.7797    0.5005 H   0  0  0  0  0  0  0  0  0  0  0  0
    3.7271   -4.0826    0.6077 H   0  0  0  0  0  0  0  0  0  0  0  0
    2.9878   -3.0423    1.7916 H   0  0  0  0  0  0  0  0  0  0  0  0
    4.7256   -1.1204   -2.0204 H   0  0  0  0  0  0  0  0  0  0  0  0
    6.9878   -0.7603   -2.2452 H   0  0  0  0  0  0  0  0  0  0  0  0
    7.2540   -1.1901   -0.5435 H   0  0  0  0  0  0  0  0  0  0  0  0
   -7.2719    2.5034   -0.1128 H   0  0  0  0  0  0  0  0  0  0  0  0
   -5.8247   -1.5353   -0.6939 H   0  0  0  0  0  0  0  0  0  0  0  0
   -9.5839    1.6539   -0.1402 H   0  0  0  0  0  0  0  0  0  0  0  0
   -8.1266   -2.3507   -0.6892 H   0  0  0  0  0  0  0  0  0  0  0  0
  -10.0209   -0.7716   -0.4241 H   0  0  0  0  0  0  0  0  0  0  0  0
    4.7310    1.6032   -1.5669 H   0  0  0  0  0  0  0  0  0  0  0  0
    5.4873    3.9887   -0.7140 H   0  0  0  0  0  0  0  0  0  0  0  0
    7.9064    3.9054    0.3217 H   0  0  0  0  0  0  0  0  0  0  0  0
  1 27  1  0  0  0  0
  1 33  1  0  0  0  0
  2 10  1  0  0  0  0
  2 55  1  0  0  0  0
  3 21  2  0  0  0  0
  4 22  2  0  0  0  0
  5 14  1  0  0  0  0
  5 22  1  0  0  0  0
  5 54  1  0  0  0  0
  6 21  1  0  0  0  0
  6 24  1  0  0  0  0
  6 59  1  0  0  0  0
  7  8  1  0  0  0  0
  7 11  1  0  0  0  0
  7 12  1  0  0  0  0
  7 17  1  0  0  0  0
  8  9  1  0  0  0  0
  8 10  1  0  0  0  0
  8 34  1  0  0  0  0
  9 14  1  0  0  0  0
  9 19  1  0  0  0  0
  9 35  1  0  0  0  0
 10 13  1  0  0  0  0
 10 36  1  0  0  0  0
 11 15  1  0  0  0  0
 11 37  1  0  0  0  0
 11 38  1  0  0  0  0
 12 16  1  0  0  0  0
 12 39  1  0  0  0  0
 12 40  1  0  0  0  0
 13 15  1  0  0  0  0
 13 18  1  0  0  0  0
 13 41  1  0  0  0  0
 14 16  1  0  0  0  0
 14 42  1  0  0  0  0
 15 43  1  0  0  0  0
 15 44  1  0  0  0  0
 16 45  1  0  0  0  0
 16 46  1  0  0  0  0
 17 47  1  0  0  0  0
 17 48  1  0  0  0  0
 17 49  1  0  0  0  0
 18 20  1  0  0  0  0
 18 21  1  0  0  0  0
 18 50  1  0  0  0  0
 19 51  1  0  0  0  0
 19 52  1  0  0  0  0
 19 53  1  0  0  0  0
 20 56  1  0  0  0  0
 20 57  1  0  0  0  0
 20 58  1  0  0  0  0
 22 23  1  0  0  0  0
 23 25  2  0  0  0  0
 23 26  1  0  0  0  0
 24 27  1  0  0  0  0
 24 60  1  0  0  0  0
 24 61  1  0  0  0  0
 25 28  1  0  0  0  0
 25 62  1  0  0  0  0
 26 29  2  0  0  0  0
 26 63  1  0  0  0  0
 27 31  2  0  0  0  0
 28 30  2  0  0  0  0
 28 64  1  0  0  0  0
 29 30  1  0  0  0  0
 29 65  1  0  0  0  0
 30 66  1  0  0  0  0
 31 32  1  0  0  0  0
 31 67  1  0  0  0  0
 32 33  2  0  0  0  0
 32 68  1  0  0  0  0
 33 69  1  0  0  0  0
M  END
> <PUBCHEM_COMPOUND_CID>
45361409

> <PUBCHEM_CONFORMER_RMSD>
1

> <PUBCHEM_CONFORMER_DIVERSEORDER>
1
95
98
66
30
201
200
83
173
165
14
180
176
199
168
172
19
141
194
128
140
161
108
26
96
195
63
104
122
152
158
37
117
8
88
10
107
123
196
68
171
147
60
120
197
144
111
86
170
188
151
73
155
174
76
91
166
105
124
114
65
159
134
72
9
52
58
51
143
57
97
191
160
48
113
41
157
35
12
56
181
90
101
109
4
116
146
178
94
119
187
24
183
69
164
132
110
167
27
145
55
130
131
185
99
61
89
135
125
32
190
138
137
179
44
133
153
59
23
53
139
80
118
77
192
39
34
154
45
106
11
7
156
85
148
150
175
149
103
142
28
38
70
198
74
193
33
67
47
40
2
81
17
54
75
29
126
71
16
102
93
50
189
64
84
82
25
78
177
129
15
62
36
163
169
112
22
20
184
5
49
43
46
100
162
92
121
186
18
182
79
13
87
42
3
31
127
6
21
115
136

> <PUBCHEM_MMFF94_PARTIAL_CHARGES>
33
1 -0.08
10 0.28
14 0.3
18 0.06
2 -0.68
21 0.57
22 0.54
23 0.09
24 0.48
25 -0.15
26 -0.15
27 -0.14
28 -0.15
29 -0.15
3 -0.57
30 -0.15
31 -0.15
32 -0.15
33 -0.11
4 -0.57
5 -0.73
54 0.37
55 0.4
59 0.37
6 -0.73
62 0.15
63 0.15
64 0.15
65 0.15
66 0.15
67 0.15
68 0.15
69 0.15

> <PUBCHEM_EFFECTIVE_ROTOR_COUNT>
9.6

> <PUBCHEM_PHARMACOPHORE_FEATURES>
11
1 2 acceptor
1 2 donor
1 20 hydrophobe
1 3 acceptor
1 4 acceptor
1 5 donor
1 6 donor
5 1 27 31 32 33 rings
6 23 25 26 28 29 30 rings
6 7 8 10 11 13 15 rings
6 7 8 9 12 14 16 rings

> <PUBCHEM_HEAVY_ATOM_COUNT>
33

> <PUBCHEM_ATOM_DEF_STEREO_COUNT>
6

> <PUBCHEM_ATOM_UDEF_STEREO_COUNT>
1

> <PUBCHEM_BOND_DEF_STEREO_COUNT>
0

> <PUBCHEM_BOND_UDEF_STEREO_COUNT>
0

> <PUBCHEM_ISOTOPIC_ATOM_COUNT>
0

> <PUBCHEM_COMPONENT_COUNT>
1

> <PUBCHEM_CACTVS_TAUTO_COUNT>
4

> <PUBCHEM_CONFORMER_ID>
02B4290100000001

> <PUBCHEM_MMFF94_ENERGY>
89.1333

> <PUBCHEM_FEATURE_SELFOVERLAP>
55.836

> <PUBCHEM_SHAPE_FINGERPRINT>
10076449 9 16559032688055744819
10533779 47 10591767627761815829
10673678 19 18412268346066815974
10677351 14 18341324549408967445
10906281 52 17774454788877597867
11007060 377 18260839193779003091
11211813 74 18408602556793471861
11331351 85 13542460960591010011
11638347 137 10663814196634317165
12133447 93 15769498638943131537
13165053 68 18119250807930991687
13617811 41 16774082865051325512
13673619 4 13470693637411733448
13782708 43 12175614062531214868
13811026 1 18187087277808093556
14142895 15 18335984263369624005
14251757 52 18407759239895830140
14675020 138 14851603271984611376
150020 25 18409175428168410334
15064986 96 11746929872061422352
15082195 135 18343305843143945050
15183329 4 17775569736232759328
15361156 5 18342172294169496975
15840311 113 18408889538392354204
16994733 274 17822007580183975429
17686467 74 18040437711968599349
20105231 36 16415479355228489727
2026 5 14907353928073315932
20554085 129 16153425060598941224
20771845 171 17703517606005162494
21033648 29 16950289537956911258
21049683 271 18202562895505993113
21150785 3 18410575080784862557
21267235 1 17275102804373296859
21362857 166 17274272643419679782
21781051 124 17703790362092870439
21781055 127 15482128136887434467
21792934 111 12901534737353976459
21792965 169 17845674585636454908
23522609 53 17701844140259024753
23569914 2 17172037900006272828
25269216 80 14620525514998728976
34797466 226 18271531914083597326
3552219 110 17918003767499936369
4073 2 18260830419362030771
4093350 32 18040995116322604262
4098825 35 18408884006337644485
4149490 64 18114183016925628378
439807 62 12247687067692815060
445580 167 18335697261118085253
4625314 4 18336547123113265231
5265222 85 18412544336523796415
5470011 282 18272653424196123327
5776283 40 18340205301673132851
6081469 158 11455891356518914635
86090 222 12895354379059507548
9831232 110 12247687045790625856

> <PUBCHEM_SHAPE_MULTIPOLES>
655.4
26.37
2.81
1.6
24.28
0.22
-0.78
12.58
10.3
-5.35
0.22
-0.64
-0.17
-1.07

> <PUBCHEM_SHAPE_SELFOVERLAP>
1372.578

> <PUBCHEM_SHAPE_VOLUME>
372.5

> <PUBCHEM_COORDINATE_TYPE>
2
5
10

$$$$
