26743157
  -OEChem-12032416193D

 63 66  0     1  0  0  0  0  0999 V2000
    3.3763    3.0313   -0.6306 O   0  0  0  0  0  0  0  0  0  0  0  0
   -0.5434   -3.1466   -0.2424 O   0  0  0  0  0  0  0  0  0  0  0  0
   -2.6897   -1.3374    0.3616 O   0  0  0  0  0  0  0  0  0  0  0  0
    5.7891   -1.2190    1.2063 N   0  0  0  0  0  0  0  0  0  0  0  0
    1.3489    2.0184   -0.1161 N   0  0  0  0  0  0  0  0  0  0  0  0
    0.8135   -3.4460   -0.2322 N   0  0  0  0  0  0  0  0  0  0  0  0
    3.1001   -0.2751    0.4415 C   0  0  1  0  0  0  0  0  0  0  0  0
    3.5790   -1.7255    0.1939 C   0  0  2  0  0  0  0  0  0  0  0  0
    3.9045    0.3272    1.6058 C   0  0  0  0  0  0  0  0  0  0  0  0
    5.1083   -1.8019    0.0495 C   0  0  0  0  0  0  0  0  0  0  0  0
    3.1743    0.6263   -0.7966 C   0  0  0  0  0  0  0  0  0  0  0  0
    5.4128    0.1781    1.4112 C   0  0  0  0  0  0  0  0  0  0  0  0
    2.8928   -2.3872   -1.0018 C   0  0  0  0  0  0  0  0  0  0  0  0
    0.6162    3.2193    0.2192 C   0  0  0  0  0  0  0  0  0  0  0  0
   -0.0290    3.8366   -1.0262 C   0  0  0  0  0  0  0  0  0  0  0  0
   -0.4278    2.9422    1.3062 C   0  0  0  0  0  0  0  0  0  0  0  0
    2.6773    2.0282   -0.5156 C   0  0  0  0  0  0  0  0  0  0  0  0
   -1.2106    3.0147   -1.5411 C   0  0  0  0  0  0  0  0  0  0  0  0
   -1.6088    2.1218    0.7875 C   0  0  0  0  0  0  0  0  0  0  0  0
   -2.2409    2.7618   -0.4446 C   0  0  0  0  0  0  0  0  0  0  0  0
    1.4010   -2.4077   -0.8340 C   0  0  0  0  0  0  0  0  0  0  0  0
    0.4744   -1.4325   -1.2410 C   0  0  0  0  0  0  0  0  0  0  0  0
   -0.7328   -1.9453   -0.8457 C   0  0  0  0  0  0  0  0  0  0  0  0
   -2.1188   -1.4721   -0.9429 C   0  0  0  0  0  0  0  0  0  0  0  0
   -4.0035   -0.9650    0.4159 C   0  0  0  0  0  0  0  0  0  0  0  0
   -4.7135   -0.7381   -0.7631 C   0  0  0  0  0  0  0  0  0  0  0  0
   -4.6344   -0.8119    1.6503 C   0  0  0  0  0  0  0  0  0  0  0  0
   -6.0545   -0.3580   -0.7077 C   0  0  0  0  0  0  0  0  0  0  0  0
   -5.9753   -0.4318    1.7060 C   0  0  0  0  0  0  0  0  0  0  0  0
   -6.6853   -0.2049    0.5268 C   0  0  0  0  0  0  0  0  0  0  0  0
    2.0622   -0.3182    0.7920 H   0  0  0  0  0  0  0  0  0  0  0  0
    3.3130   -2.3058    1.0914 H   0  0  0  0  0  0  0  0  0  0  0  0
    3.6204   -0.1958    2.5298 H   0  0  0  0  0  0  0  0  0  0  0  0
    3.6558    1.3799    1.7765 H   0  0  0  0  0  0  0  0  0  0  0  0
    5.4124   -2.8522   -0.0304 H   0  0  0  0  0  0  0  0  0  0  0  0
    5.4417   -1.3081   -0.8712 H   0  0  0  0  0  0  0  0  0  0  0  0
    2.6059    0.2463   -1.6457 H   0  0  0  0  0  0  0  0  0  0  0  0
    4.2074    0.7143   -1.1520 H   0  0  0  0  0  0  0  0  0  0  0  0
    5.7627    0.7940    0.5750 H   0  0  0  0  0  0  0  0  0  0  0  0
    5.9228    0.5479    2.3077 H   0  0  0  0  0  0  0  0  0  0  0  0
    3.2510   -3.4207   -1.1021 H   0  0  0  0  0  0  0  0  0  0  0  0
    3.1563   -1.8917   -1.9434 H   0  0  0  0  0  0  0  0  0  0  0  0
    1.3414    3.9393    0.6183 H   0  0  0  0  0  0  0  0  0  0  0  0
    6.7976   -1.2805    1.0702 H   0  0  0  0  0  0  0  0  0  0  0  0
    0.7107    3.9490   -1.8279 H   0  0  0  0  0  0  0  0  0  0  0  0
   -0.3839    4.8454   -0.7796 H   0  0  0  0  0  0  0  0  0  0  0  0
   -0.8049    3.8984    1.6907 H   0  0  0  0  0  0  0  0  0  0  0  0
    0.0339    2.4188    2.1523 H   0  0  0  0  0  0  0  0  0  0  0  0
   -0.8515    2.0555   -1.9336 H   0  0  0  0  0  0  0  0  0  0  0  0
   -1.6861    3.5404   -2.3769 H   0  0  0  0  0  0  0  0  0  0  0  0
   -2.3625    2.0264    1.5774 H   0  0  0  0  0  0  0  0  0  0  0  0
   -1.2770    1.1066    0.5464 H   0  0  0  0  0  0  0  0  0  0  0  0
   -2.7108    3.7114   -0.1606 H   0  0  0  0  0  0  0  0  0  0  0  0
   -3.0374    2.1154   -0.8295 H   0  0  0  0  0  0  0  0  0  0  0  0
    0.8331    1.1457   -0.1403 H   0  0  0  0  0  0  0  0  0  0  0  0
    0.6262   -0.5054   -1.7692 H   0  0  0  0  0  0  0  0  0  0  0  0
   -2.1243   -0.5030   -1.4576 H   0  0  0  0  0  0  0  0  0  0  0  0
   -2.6727   -2.2166   -1.5291 H   0  0  0  0  0  0  0  0  0  0  0  0
   -4.2901   -0.8304   -1.7571 H   0  0  0  0  0  0  0  0  0  0  0  0
   -4.0859   -0.9866    2.5719 H   0  0  0  0  0  0  0  0  0  0  0  0
   -6.6079   -0.1792   -1.6250 H   0  0  0  0  0  0  0  0  0  0  0  0
   -6.4665   -0.3122    2.6672 H   0  0  0  0  0  0  0  0  0  0  0  0
   -7.7293    0.0916    0.5701 H   0  0  0  0  0  0  0  0  0  0  0  0
  1 17  2  0  0  0  0
  2  6  1  0  0  0  0
  2 23  1  0  0  0  0
  3 24  1  0  0  0  0
  3 25  1  0  0  0  0
  4 10  1  0  0  0  0
  4 12  1  0  0  0  0
  4 44  1  0  0  0  0
  5 14  1  0  0  0  0
  5 17  1  0  0  0  0
  5 55  1  0  0  0  0
  6 21  2  0  0  0  0
  7  8  1  0  0  0  0
  7  9  1  0  0  0  0
  7 11  1  0  0  0  0
  7 31  1  0  0  0  0
  8 10  1  0  0  0  0
  8 13  1  0  0  0  0
  8 32  1  0  0  0  0
  9 12  1  0  0  0  0
  9 33  1  0  0  0  0
  9 34  1  0  0  0  0
 10 35  1  0  0  0  0
 10 36  1  0  0  0  0
 11 17  1  0  0  0  0
 11 37  1  0  0  0  0
 11 38  1  0  0  0  0
 12 39  1  0  0  0  0
 12 40  1  0  0  0  0
 13 21  1  0  0  0  0
 13 41  1  0  0  0  0
 13 42  1  0  0  0  0
 14 15  1  0  0  0  0
 14 16  1  0  0  0  0
 14 43  1  0  0  0  0
 15 18  1  0  0  0  0
 15 45  1  0  0  0  0
 15 46  1  0  0  0  0
 16 19  1  0  0  0  0
 16 47  1  0  0  0  0
 16 48  1  0  0  0  0
 18 20  1  0  0  0  0
 18 49  1  0  0  0  0
 18 50  1  0  0  0  0
 19 20  1  0  0  0  0
 19 51  1  0  0  0  0
 19 52  1  0  0  0  0
 20 53  1  0  0  0  0
 20 54  1  0  0  0  0
 21 22  1  0  0  0  0
 22 23  2  0  0  0  0
 22 56  1  0  0  0  0
 23 24  1  0  0  0  0
 24 57  1  0  0  0  0
 24 58  1  0  0  0  0
 25 26  2  0  0  0  0
 25 27  1  0  0  0  0
 26 28  1  0  0  0  0
 26 59  1  0  0  0  0
 27 29  2  0  0  0  0
 27 60  1  0  0  0  0
 28 30  2  0  0  0  0
 28 61  1  0  0  0  0
 29 30  1  0  0  0  0
 29 62  1  0  0  0  0
 30 63  1  0  0  0  0
M  END
> <PUBCHEM_COMPOUND_CID>
26743157

> <PUBCHEM_CONFORMER_RMSD>
1.4

> <PUBCHEM_CONFORMER_DIVERSEORDER>
1
3
84
70
49
10
60
32
21
63
15
52
47
28
48
61
29
43
64
14
45
51
18
76
16
68
39
31
62
50
69
24
36
75
79
72
65
57
35
73
59
2
67
83
19
54
46
40
8
56
66
27
20
13
38
55
74
82
9
44
78
4
42
34
53
80
22
7
58
6
77
17
12
41
71
11
30
37
23
33
26
25
5
81

> <PUBCHEM_MMFF94_PARTIAL_CHARGES>
30
1 -0.57
10 0.27
11 0.06
12 0.27
13 0.18
14 0.3
17 0.57
2 -0.02
21 0.11
22 -0.15
23 -0.04
24 0.46
25 0.08
26 -0.15
27 -0.15
28 -0.15
29 -0.15
3 -0.36
30 -0.15
4 -0.9
44 0.36
5 -0.73
55 0.37
56 0.15
59 0.15
6 -0.41
60 0.15
61 0.15
62 0.15
63 0.15

> <PUBCHEM_EFFECTIVE_ROTOR_COUNT>
11.4

> <PUBCHEM_PHARMACOPHORE_FEATURES>
10
1 1 acceptor
1 3 acceptor
1 4 cation
1 4 donor
1 5 donor
1 6 acceptor
5 2 6 21 22 23 rings
6 14 15 16 18 19 20 rings
6 25 26 27 28 29 30 rings
6 4 7 8 9 10 12 rings

> <PUBCHEM_HEAVY_ATOM_COUNT>
30

> <PUBCHEM_ATOM_DEF_STEREO_COUNT>
2

> <PUBCHEM_ATOM_UDEF_STEREO_COUNT>
0

> <PUBCHEM_BOND_DEF_STEREO_COUNT>
0

> <PUBCHEM_BOND_UDEF_STEREO_COUNT>
0

> <PUBCHEM_ISOTOPIC_ATOM_COUNT>
0

> <PUBCHEM_COMPONENT_COUNT>
1

> <PUBCHEM_CACTVS_TAUTO_COUNT>
2

> <PUBCHEM_CONFORMER_ID>
0198117500000001

> <PUBCHEM_MMFF94_ENERGY>
48.0763

> <PUBCHEM_FEATURE_SELFOVERLAP>
50.747

> <PUBCHEM_SHAPE_FINGERPRINT>
10006869 2 18196359321973888351
10439779 11 17839165656708683744
10670039 82 18265915570409011902
10688039 33 18259985942100500141
10939801 23 18337668737207352664
11135609 12 18261100881757705624
11135926 11 18046056327423260124
12422481 6 18268727034404713377
12633257 1 18337102479406283918
13075007 39 17969802941315612555
13140716 1 18196082477040189126
13402501 40 18340761563977300163
14117953 113 18413109437849118695
14394314 77 18198904888575830273
14725015 67 18262228937252204323
14784336 7 17701535350218251321
14790565 3 17399237941880304804
14840074 17 18343863337787364619
150020 26 18047484601785779153
15840311 113 17129605466379336115
16112460 7 18129946800900276536
1979834 28 18059587883655017679
3052486 1 18337676287785849574
338550 245 18411421691468635652
350125 39 18412546496633292188
3680242 22 18412268354350788635
463206 1 18271522108694371991
469060 322 18263940851297876713
474 4 18342742952888133631
513532 50 17346330314244973982
5283268 108 18410016507318836854
653340 110 18128256683823953120
8509985 295 18410576231614616855

> <PUBCHEM_SHAPE_MULTIPOLES>
584.83
13.02
4.68
1.49
10.06
3.05
-0.33
-5.77
-5.52
-1.76
1.42
0.29
0.22
0.28

> <PUBCHEM_SHAPE_SELFOVERLAP>
1226.277

> <PUBCHEM_SHAPE_VOLUME>
326.7

> <PUBCHEM_COORDINATE_TYPE>
2
5
10

$$$$
