11886113
  -OEChem-12032416263D

 44 47  0     1  0  0  0  0  0999 V2000
   -0.9251    2.2180    1.2719 O   0  0  0  0  0  0  0  0  0  0  0  0
   -0.2965   -0.8333    1.7033 O   0  0  0  0  0  0  0  0  0  0  0  0
   -4.9319    0.8975    0.2263 O   0  0  0  0  0  0  0  0  0  0  0  0
   -6.2557   -0.8798   -1.3021 O   0  0  0  0  0  0  0  0  0  0  0  0
    1.7498    1.3343   -0.4071 N   0  0  0  0  0  0  0  0  0  0  0  0
   -3.1753   -0.5814    0.6003 N   0  0  0  0  0  0  0  0  0  0  0  0
    1.3651    2.4071   -1.1056 N   0  0  0  0  0  0  0  0  0  0  0  0
    3.0779    1.3953   -2.1120 N   0  0  0  0  0  0  0  0  0  0  0  0
    2.1831    2.4407   -2.1505 N   0  0  0  0  0  0  0  0  0  0  0  0
   -0.1353    0.0724    0.5964 C   0  0  1  0  0  0  0  0  0  0  0  0
   -1.3270    1.0098    0.6073 C   0  0  1  0  0  0  0  0  0  0  0  0
    1.0637    0.9704    0.8354 C   0  0  2  0  0  0  0  0  0  0  0  0
   -2.3677    0.2817    1.4278 C   0  0  2  0  0  0  0  0  0  0  0  0
    0.4666    2.1403    1.6097 C   0  0  0  0  0  0  0  0  0  0  0  0
   -1.5154   -0.5218    2.3923 C   0  0  0  0  0  0  0  0  0  0  0  0
    2.7901    0.7228   -1.0213 C   0  0  0  0  0  0  0  0  0  0  0  0
   -4.3970   -0.1965    0.0667 C   0  0  0  0  0  0  0  0  0  0  0  0
    3.4478   -0.4633   -0.5359 C   0  0  0  0  0  0  0  0  0  0  0  0
   -5.0217   -1.3001   -0.7600 C   0  0  0  0  0  0  0  0  0  0  0  0
    4.5403   -0.3535    0.3262 C   0  0  0  0  0  0  0  0  0  0  0  0
    2.9951   -1.7247   -0.9267 C   0  0  0  0  0  0  0  0  0  0  0  0
    5.1783   -1.5016    0.7958 C   0  0  0  0  0  0  0  0  0  0  0  0
    3.6330   -2.8727   -0.4568 C   0  0  0  0  0  0  0  0  0  0  0  0
    4.7247   -2.7611    0.4045 C   0  0  0  0  0  0  0  0  0  0  0  0
   -6.8668   -1.9003   -2.0859 C   0  0  0  0  0  0  0  0  0  0  0  0
   -0.0781   -0.5333   -0.3136 H   0  0  0  0  0  0  0  0  0  0  0  0
   -1.6594    1.2863   -0.3985 H   0  0  0  0  0  0  0  0  0  0  0  0
    1.8229    0.4912    1.4642 H   0  0  0  0  0  0  0  0  0  0  0  0
   -3.0297    0.9628    1.9735 H   0  0  0  0  0  0  0  0  0  0  0  0
    0.5202    1.9493    2.6876 H   0  0  0  0  0  0  0  0  0  0  0  0
    0.9455    3.1053    1.4191 H   0  0  0  0  0  0  0  0  0  0  0  0
   -1.2493    0.0749    3.2717 H   0  0  0  0  0  0  0  0  0  0  0  0
   -1.9868   -1.4485    2.7338 H   0  0  0  0  0  0  0  0  0  0  0  0
   -2.8024   -1.4955    0.3586 H   0  0  0  0  0  0  0  0  0  0  0  0
   -4.3293   -1.5624   -1.5684 H   0  0  0  0  0  0  0  0  0  0  0  0
   -5.1750   -2.1723   -0.1138 H   0  0  0  0  0  0  0  0  0  0  0  0
    4.9060    0.6211    0.6410 H   0  0  0  0  0  0  0  0  0  0  0  0
    2.1452   -1.8287   -1.5972 H   0  0  0  0  0  0  0  0  0  0  0  0
    6.0281   -1.4148    1.4666 H   0  0  0  0  0  0  0  0  0  0  0  0
    3.2797   -3.8535   -0.7612 H   0  0  0  0  0  0  0  0  0  0  0  0
    5.2212   -3.6551    0.7704 H   0  0  0  0  0  0  0  0  0  0  0  0
   -6.2245   -2.1698   -2.9299 H   0  0  0  0  0  0  0  0  0  0  0  0
   -7.8129   -1.5145   -2.4747 H   0  0  0  0  0  0  0  0  0  0  0  0
   -7.0734   -2.7818   -1.4714 H   0  0  0  0  0  0  0  0  0  0  0  0
  1 11  1  0  0  0  0
  1 14  1  0  0  0  0
  2 10  1  0  0  0  0
  2 15  1  0  0  0  0
  3 17  2  0  0  0  0
  4 19  1  0  0  0  0
  4 25  1  0  0  0  0
  5  7  1  0  0  0  0
  5 12  1  0  0  0  0
  5 16  1  0  0  0  0
  6 13  1  0  0  0  0
  6 17  1  0  0  0  0
  6 34  1  0  0  0  0
  7  9  2  0  0  0  0
  8  9  1  0  0  0  0
  8 16  2  0  0  0  0
 10 11  1  0  0  0  0
 10 12  1  0  0  0  0
 10 26  1  0  0  0  0
 11 13  1  0  0  0  0
 11 27  1  0  0  0  0
 12 14  1  0  0  0  0
 12 28  1  0  0  0  0
 13 15  1  0  0  0  0
 13 29  1  0  0  0  0
 14 30  1  0  0  0  0
 14 31  1  0  0  0  0
 15 32  1  0  0  0  0
 15 33  1  0  0  0  0
 16 18  1  0  0  0  0
 17 19  1  0  0  0  0
 18 20  2  0  0  0  0
 18 21  1  0  0  0  0
 19 35  1  0  0  0  0
 19 36  1  0  0  0  0
 20 22  1  0  0  0  0
 20 37  1  0  0  0  0
 21 23  2  0  0  0  0
 21 38  1  0  0  0  0
 22 24  2  0  0  0  0
 22 39  1  0  0  0  0
 23 24  1  0  0  0  0
 23 40  1  0  0  0  0
 24 41  1  0  0  0  0
 25 42  1  0  0  0  0
 25 43  1  0  0  0  0
 25 44  1  0  0  0  0
M  END
> <PUBCHEM_COMPOUND_CID>
11886113

> <PUBCHEM_CONFORMER_RMSD>
0.8

> <PUBCHEM_CONFORMER_DIVERSEORDER>
1
28
77
57
90
49
34
84
15
36
66
55
72
85
60
18
67
63
91
76
54
11
75
88
56
48
65
10
87
2
79
69
59
9
61
92
53
32
51
71
26
35
43
33
41
89
29
14
80
58
86
16
8
19
37
38
24
81
47
78
45
42
7
25
4
83
52
20
70
21
22
17
73
30
44
39
6
50
31
64
40
68
12
82
5
23
46
27
74
62
3
13

> <PUBCHEM_MMFF94_PARTIAL_CHARGES>
30
1 -0.56
10 0.28
11 0.28
12 0.26
13 0.3
14 0.28
15 0.28
16 0.13
17 0.57
18 0.05
19 0.34
2 -0.56
20 -0.15
21 -0.15
22 -0.15
23 -0.15
24 -0.15
25 0.28
3 -0.57
34 0.37
37 0.15
38 0.15
39 0.15
4 -0.56
40 0.15
41 0.15
5 0.31
6 -0.73
7 -0.42
8 -0.34

> <PUBCHEM_EFFECTIVE_ROTOR_COUNT>
7.2

> <PUBCHEM_PHARMACOPHORE_FEATURES>
10
1 1 acceptor
1 2 acceptor
1 3 acceptor
1 4 acceptor
1 6 donor
3 5 8 16 cation
5 1 10 11 12 14 rings
5 2 10 11 13 15 rings
5 5 7 8 9 16 rings
6 18 20 21 22 23 24 rings

> <PUBCHEM_HEAVY_ATOM_COUNT>
25

> <PUBCHEM_ATOM_DEF_STEREO_COUNT>
4

> <PUBCHEM_ATOM_UDEF_STEREO_COUNT>
0

> <PUBCHEM_BOND_DEF_STEREO_COUNT>
0

> <PUBCHEM_BOND_UDEF_STEREO_COUNT>
0

> <PUBCHEM_ISOTOPIC_ATOM_COUNT>
0

> <PUBCHEM_COMPONENT_COUNT>
1

> <PUBCHEM_CACTVS_TAUTO_COUNT>
2

> <PUBCHEM_CONFORMER_ID>
00B55E2100000001

> <PUBCHEM_MMFF94_ENERGY>
59.4751

> <PUBCHEM_FEATURE_SELFOVERLAP>
51.446

> <PUBCHEM_SHAPE_FINGERPRINT>
10042902 136 17843704170347321630
10378564 45 16950553385554512959
10447042 23 18343861117547677134
10670039 82 14996554050253797623
10674148 151 11097858450745821314
11069576 57 18340778074101092750
11578080 2 16082229548391765062
11796584 16 16989130855443919615
11828532 37 16588311635364622807
12553582 1 17985859044679709048
12892183 10 12463303492147506731
13083527 12 17560797745187066016
14251740 57 17632303324327029606
14251751 18 17846491531102387783
14347332 77 18131629002968115631
14429115 67 18059019367408169558
1454969 45 18334866005148695198
146900 427 10375868575991338967
14848178 5 17418095391019249271
14950920 106 11815632839100911479
15119646 104 18272371971248428859
15183329 4 17167857530757650603
15342816 4 17704082810299428873
15420108 30 16966050718502144000
17134984 74 18057318599177287335
17349148 13 18337965493154936882
17857418 61 18060135462316073639
18222031 100 18263656082688158182
192875 21 18261405407723037000
19315092 285 18199738151640152530
20567600 247 18130780196834400863
20567600 9 14562797834029524607
20626108 58 17561369486932799249
20645477 70 17896339028655210714
21049683 118 15047195592828594480
21315763 87 13254518717042611471
21315764 119 18334283285249892151
21315764 371 17203334381656623130
21458453 9 13756916369698288719
21756936 100 11891631151184176586
21968339 14 18190178086282185788
23559900 14 18041855003425236936
25222932 49 17060044965372558974
2637199 183 8070021169263727834
2838139 119 14273448193964935439
3004659 81 18412550894268528726
34797466 226 17241331416790919639
376196 1 16520202528825927644
392239 28 12535343459149048252
4339292 15 18044655301366799546
439807 62 18270675494054275335
46194498 28 18040428927926860815
463206 1 18343303686485429915
513532 50 17749936886126282573
59682541 52 18040433313030506119
60123966 16 17168144589218149198
613672 6 17968670306974344706
7399639 24 16815208129770883832
76465 3 18202563951713824667
8988823 20 18273491278296050496
9862260 156 17386272225528070706

> <PUBCHEM_SHAPE_MULTIPOLES>
466.11
13.05
2.85
2.01
17.76
0.38
-0.32
11.94
-5.22
-1.84
-0.65
0.43
-0.6
-2.93

> <PUBCHEM_SHAPE_SELFOVERLAP>
1003.222

> <PUBCHEM_SHAPE_VOLUME>
258.6

> <PUBCHEM_COORDINATE_TYPE>
2
5
10

$$$$
