11912970
  -OEChem-12032416283D

 52 56  0     1  0  0  0  0  0999 V2000
    0.1185    1.2210    1.7134 O   0  0  0  0  0  0  0  0  0  0  0  0
   -0.1047    3.6781   -0.1970 O   0  0  0  0  0  0  0  0  0  0  0  0
   -4.5875    1.8110    1.1817 O   0  0  0  0  0  0  0  0  0  0  0  0
    3.9310   -1.5268    1.6546 O   0  0  0  0  0  0  0  0  0  0  0  0
   -2.6112    1.0492    0.2370 N   0  0  0  0  0  0  0  0  0  0  0  0
    2.3602    2.0155   -1.0566 N   0  0  0  0  0  0  0  0  0  0  0  0
    3.4728    0.0902   -0.3067 N   0  0  0  0  0  0  0  0  0  0  0  0
    3.7310    0.8650   -2.5739 N   0  0  0  0  0  0  0  0  0  0  0  0
   -0.5980    2.3299   -0.2655 C   0  0  1  0  0  0  0  0  0  0  0  0
    0.4647    1.4296    0.3338 C   0  0  1  0  0  0  0  0  0  0  0  0
   -1.7865    2.1578    0.6526 C   0  0  2  0  0  0  0  0  0  0  0  0
    1.7361    2.2384    0.2292 C   0  0  2  0  0  0  0  0  0  0  0  0
   -1.1256    1.8806    1.9912 C   0  0  0  0  0  0  0  0  0  0  0  0
    1.2313    3.6663    0.3274 C   0  0  0  0  0  0  0  0  0  0  0  0
   -3.9625    0.9694    0.5419 C   0  0  0  0  0  0  0  0  0  0  0  0
    3.2134    0.9587   -1.3202 C   0  0  0  0  0  0  0  0  0  0  0  0
   -4.6659   -0.2490    0.0643 C   0  0  0  0  0  0  0  0  0  0  0  0
   -5.7787   -0.6877    0.7514 C   0  0  0  0  0  0  0  0  0  0  0  0
   -4.1852   -0.9019   -1.0517 C   0  0  0  0  0  0  0  0  0  0  0  0
    4.3079   -0.9282   -0.5990 C   0  0  0  0  0  0  0  0  0  0  0  0
    4.5584   -0.1772   -2.7967 C   0  0  0  0  0  0  0  0  0  0  0  0
    4.8860   -1.1142   -1.8382 C   0  0  0  0  0  0  0  0  0  0  0  0
   -6.4403   -1.8306    0.3025 C   0  0  0  0  0  0  0  0  0  0  0  0
   -4.8468   -2.0449   -1.5007 C   0  0  0  0  0  0  0  0  0  0  0  0
   -5.9743   -2.5093   -0.8235 C   0  0  0  0  0  0  0  0  0  0  0  0
    4.5638   -1.8296    0.4926 C   0  0  0  0  0  0  0  0  0  0  0  0
   -6.6813   -3.7316   -1.3036 C   0  0  0  0  0  0  0  0  0  0  0  0
    5.3266   -2.9628    0.6342 C   0  0  0  0  0  0  0  0  0  0  0  0
    5.1523   -3.3866    1.9732 C   0  0  0  0  0  0  0  0  0  0  0  0
    4.2946   -2.4803    2.5520 C   0  0  0  0  0  0  0  0  0  0  0  0
   -0.8052    2.1090   -1.3175 H   0  0  0  0  0  0  0  0  0  0  0  0
    0.5044    0.4449   -0.1428 H   0  0  0  0  0  0  0  0  0  0  0  0
   -2.4098    3.0564    0.7153 H   0  0  0  0  0  0  0  0  0  0  0  0
    2.4464    2.0518    1.0429 H   0  0  0  0  0  0  0  0  0  0  0  0
   -0.8881    2.8151    2.5114 H   0  0  0  0  0  0  0  0  0  0  0  0
   -1.7239    1.2562    2.6617 H   0  0  0  0  0  0  0  0  0  0  0  0
    1.1708    3.9880    1.3730 H   0  0  0  0  0  0  0  0  0  0  0  0
    1.8411    4.3925   -0.2190 H   0  0  0  0  0  0  0  0  0  0  0  0
   -2.1379    0.2625   -0.1950 H   0  0  0  0  0  0  0  0  0  0  0  0
    2.1328    2.6261   -1.8332 H   0  0  0  0  0  0  0  0  0  0  0  0
   -6.1511   -0.1741    1.6328 H   0  0  0  0  0  0  0  0  0  0  0  0
   -3.3327   -0.5540   -1.6258 H   0  0  0  0  0  0  0  0  0  0  0  0
    4.9642   -0.2401   -3.8007 H   0  0  0  0  0  0  0  0  0  0  0  0
    5.5561   -1.9322   -2.0703 H   0  0  0  0  0  0  0  0  0  0  0  0
   -7.3160   -2.1844    0.8403 H   0  0  0  0  0  0  0  0  0  0  0  0
   -4.4778   -2.5620   -2.3826 H   0  0  0  0  0  0  0  0  0  0  0  0
   -6.2538   -4.6222   -0.8324 H   0  0  0  0  0  0  0  0  0  0  0  0
   -7.7501   -3.6887   -1.0676 H   0  0  0  0  0  0  0  0  0  0  0  0
   -6.5977   -3.8349   -2.3908 H   0  0  0  0  0  0  0  0  0  0  0  0
    5.9370   -3.4364   -0.1217 H   0  0  0  0  0  0  0  0  0  0  0  0
    5.5961   -4.2451    2.4562 H   0  0  0  0  0  0  0  0  0  0  0  0
    3.8688   -2.3790    3.5395 H   0  0  0  0  0  0  0  0  0  0  0  0
  1 10  1  0  0  0  0
  1 13  1  0  0  0  0
  2  9  1  0  0  0  0
  2 14  1  0  0  0  0
  3 15  2  0  0  0  0
  4 26  1  0  0  0  0
  4 30  1  0  0  0  0
  5 11  1  0  0  0  0
  5 15  1  0  0  0  0
  5 39  1  0  0  0  0
  6 12  1  0  0  0  0
  6 16  1  0  0  0  0
  6 40  1  0  0  0  0
  7 16  1  0  0  0  0
  7 20  2  0  0  0  0
  8 16  2  0  0  0  0
  8 21  1  0  0  0  0
  9 10  1  0  0  0  0
  9 11  1  0  0  0  0
  9 31  1  0  0  0  0
 10 12  1  0  0  0  0
 10 32  1  0  0  0  0
 11 13  1  0  0  0  0
 11 33  1  0  0  0  0
 12 14  1  0  0  0  0
 12 34  1  0  0  0  0
 13 35  1  0  0  0  0
 13 36  1  0  0  0  0
 14 37  1  0  0  0  0
 14 38  1  0  0  0  0
 15 17  1  0  0  0  0
 17 18  2  0  0  0  0
 17 19  1  0  0  0  0
 18 23  1  0  0  0  0
 18 41  1  0  0  0  0
 19 24  2  0  0  0  0
 19 42  1  0  0  0  0
 20 22  1  0  0  0  0
 20 26  1  0  0  0  0
 21 22  2  0  0  0  0
 21 43  1  0  0  0  0
 22 44  1  0  0  0  0
 23 25  2  0  0  0  0
 23 45  1  0  0  0  0
 24 25  1  0  0  0  0
 24 46  1  0  0  0  0
 25 27  1  0  0  0  0
 26 28  2  0  0  0  0
 27 47  1  0  0  0  0
 27 48  1  0  0  0  0
 27 49  1  0  0  0  0
 28 29  1  0  0  0  0
 28 50  1  0  0  0  0
 29 30  2  0  0  0  0
 29 51  1  0  0  0  0
 30 52  1  0  0  0  0
M  END
> <PUBCHEM_COMPOUND_CID>
11912970

> <PUBCHEM_CONFORMER_RMSD>
1

> <PUBCHEM_CONFORMER_DIVERSEORDER>
1
87
115
86
6
75
101
41
132
113
138
72
13
11
137
73
46
47
116
148
108
29
60
146
31
100
32
61
10
122
88
70
58
79
136
119
5
82
74
123
90
144
56
109
54
104
98
81
94
68
37
133
107
131
128
36
64
145
93
51
71
62
77
19
38
27
141
95
105
53
139
125
127
134
30
110
114
35
69
7
65
121
89
17
92
52
84
48
9
40
135
18
22
20
28
34
80
147
103
111
126
57
99
102
44
45
63
42
97
14
12
83
91
26
117
142
112
85
23
33
124
55
130
96
50
39
118
78
59
49
16
129
3
143
76
24
4
21
106
67
140
15
120
8
66
2
25
43

> <PUBCHEM_MMFF94_PARTIAL_CHARGES>
41
1 -0.56
10 0.28
11 0.3
12 0.37
13 0.28
14 0.28
15 0.54
16 0.72
17 0.09
18 -0.15
19 -0.15
2 -0.56
20 0.36
21 0.16
22 -0.15
23 -0.15
24 -0.15
25 -0.14
26 0.09
27 0.14
28 -0.15
29 -0.15
3 -0.57
30 -0.01
39 0.37
4 -0.28
40 0.4
41 0.15
42 0.15
43 0.15
44 0.15
45 0.15
46 0.15
5 -0.73
50 0.15
51 0.15
52 0.15
6 -0.87
7 -0.62
8 -0.62
9 0.28

> <PUBCHEM_EFFECTIVE_ROTOR_COUNT>
7.2

> <PUBCHEM_PHARMACOPHORE_FEATURES>
13
1 1 acceptor
1 2 acceptor
1 3 acceptor
1 4 acceptor
1 5 donor
1 6 donor
1 7 acceptor
4 6 7 8 16 cation
5 1 9 10 11 13 rings
5 2 9 10 12 14 rings
5 4 26 28 29 30 rings
6 17 18 19 23 24 25 rings
6 7 8 16 20 21 22 rings

> <PUBCHEM_HEAVY_ATOM_COUNT>
30

> <PUBCHEM_ATOM_DEF_STEREO_COUNT>
4

> <PUBCHEM_ATOM_UDEF_STEREO_COUNT>
0

> <PUBCHEM_BOND_DEF_STEREO_COUNT>
0

> <PUBCHEM_BOND_UDEF_STEREO_COUNT>
0

> <PUBCHEM_ISOTOPIC_ATOM_COUNT>
0

> <PUBCHEM_COMPONENT_COUNT>
1

> <PUBCHEM_CACTVS_TAUTO_COUNT>
6

> <PUBCHEM_CONFORMER_ID>
00B5C70A00000001

> <PUBCHEM_MMFF94_ENERGY>
77.1896

> <PUBCHEM_FEATURE_SELFOVERLAP>
66.693

> <PUBCHEM_SHAPE_FINGERPRINT>
10074138 170 16986607355799332305
10462674 125 12747814366433813117
10556698 54 14707746469120924519
10622 236 17824255999969129794
10928967 22 18409733958542494211
11069576 57 17895484614080054094
11135609 149 18042386032680827572
11227150 75 17533471509851373602
11497681 19 18045497518583293938
11607047 403 18267287911402483376
11796584 16 18201445726972192117
11973864 118 17904455726471838474
12047536 79 15195574498334850395
12107183 9 18201174182835570201
12342043 65 16557925402990681892
12422481 6 17346877819195298991
12661589 4 18127972108282027803
13627167 48 13840536303854996647
14026016 60 17840565305833354695
14150023 79 18050287265383903064
14347332 77 18411980291490292781
14480069 147 18040726861350430323
15001296 14 18197495336692061543
15163728 17 8430309186186844144
15419009 47 16736902719842676796
16096371 109 12390975414080955053
17134984 74 17968947520936951394
17138139 8 18336276690797866646
19303781 99 17678458554771269922
19315092 285 18113615660519695526
19841028 212 18056755667163864615
20567600 234 11024110941341681777
20626108 58 18272371979263525984
20691028 202 10665764708898327959
20775438 99 18044085976378359322
20843269 155 18412258419859603682
208703 8 18410856525676372662
21585481 104 17168134621390560407
21585483 132 18199175382128410207
21599406 157 16950566635956479971
21792938 131 18339633551965692787
21792965 302 18118696650065516468
24983565 74 17555169517523310079
25222932 49 18412542146037234308
2748736 6 8935004746300643955
2838139 119 12324238429497185525
439807 62 18260269655557174327
44062 13 18412831257524293685
46194498 28 14781275252655322444
463206 1 18334019354338814338
50009960 94 18268123470676304898
5104073 3 17489034859415765073
59025328 239 17240766113100449196
59682541 52 17458339758426464887
6058803 2 17972902275853882436
613672 6 17846211099317771509
6201460 15 17972590000891576915
7970288 3 18339358556965308170

> <PUBCHEM_SHAPE_MULTIPOLES>
573.98
17.3
4.75
2.27
15.63
0.08
-0.36
21.75
-2.52
-0.12
1.14
-3.57
1
-5.25

> <PUBCHEM_SHAPE_SELFOVERLAP>
1266.877

> <PUBCHEM_SHAPE_VOLUME>
307.7

> <PUBCHEM_COORDINATE_TYPE>
2
5
10

$$$$
