75537028
  -OEChem-12032416303D

 44 46  0     1  0  0  0  0  0999 V2000
    2.9328    1.3708    0.4588 S   0  0  0  0  0  0  0  0  0  0  0  0
   -3.3066    0.7369   -1.8735 O   0  0  0  0  0  0  0  0  0  0  0  0
    3.1095    1.5890    1.8780 O   0  0  0  0  0  0  0  0  0  0  0  0
    3.7469    2.0700   -0.5113 O   0  0  0  0  0  0  0  0  0  0  0  0
   -4.0715   -1.9501   -0.3033 O   0  0  0  0  0  0  0  0  0  0  0  0
   -1.4182    1.3986   -0.6423 N   0  0  0  0  0  0  0  0  0  0  0  0
    1.2805    1.5945    0.0614 N   0  0  2  0  0  0  0  0  0  0  0  0
   -3.2249    0.6786    0.4823 N   0  0  0  0  0  0  0  0  0  0  0  0
   -1.0806    1.5980    0.7541 C   0  0  2  0  0  0  0  0  0  0  0  0
    0.3037    1.0330    1.0532 C   0  0  0  0  0  0  0  0  0  0  0  0
   -2.2218    0.9159    1.5055 C   0  0  0  0  0  0  0  0  0  0  0  0
   -0.4759    1.7925   -1.6713 C   0  0  0  0  0  0  0  0  0  0  0  0
    0.9093    1.2407   -1.3495 C   0  0  0  0  0  0  0  0  0  0  0  0
   -2.7242    0.9187   -0.8124 C   0  0  0  0  0  0  0  0  0  0  0  0
   -4.5264    0.1329    0.7979 C   0  0  0  0  0  0  0  0  0  0  0  0
    3.0900   -0.3606    0.1538 C   0  0  0  0  0  0  0  0  0  0  0  0
   -4.4798   -1.3782    0.9325 C   0  0  0  0  0  0  0  0  0  0  0  0
    3.4590   -0.8149   -1.1124 C   0  0  0  0  0  0  0  0  0  0  0  0
    2.8419   -1.2747    1.1777 C   0  0  0  0  0  0  0  0  0  0  0  0
    3.5797   -2.1833   -1.3547 C   0  0  0  0  0  0  0  0  0  0  0  0
    2.9627   -2.6430    0.9355 C   0  0  0  0  0  0  0  0  0  0  0  0
    3.3314   -3.0973   -0.3308 C   0  0  0  0  0  0  0  0  0  0  0  0
   -4.0176   -3.3681   -0.2291 C   0  0  0  0  0  0  0  0  0  0  0  0
   -1.0990    2.6808    0.9330 H   0  0  0  0  0  0  0  0  0  0  0  0
    0.5862    1.3076    2.0741 H   0  0  0  0  0  0  0  0  0  0  0  0
    0.2898   -0.0595    0.9721 H   0  0  0  0  0  0  0  0  0  0  0  0
   -1.9284   -0.0469    1.9358 H   0  0  0  0  0  0  0  0  0  0  0  0
   -2.6338    1.5563    2.2912 H   0  0  0  0  0  0  0  0  0  0  0  0
   -0.4581    2.8882   -1.6874 H   0  0  0  0  0  0  0  0  0  0  0  0
   -0.8264    1.4430   -2.6473 H   0  0  0  0  0  0  0  0  0  0  0  0
    0.8864    0.1522   -1.4666 H   0  0  0  0  0  0  0  0  0  0  0  0
    1.6317    1.6633   -2.0545 H   0  0  0  0  0  0  0  0  0  0  0  0
   -5.2031    0.4004   -0.0215 H   0  0  0  0  0  0  0  0  0  0  0  0
   -4.8902    0.6015    1.7177 H   0  0  0  0  0  0  0  0  0  0  0  0
   -3.7786   -1.6727    1.7220 H   0  0  0  0  0  0  0  0  0  0  0  0
   -5.4773   -1.7499    1.1938 H   0  0  0  0  0  0  0  0  0  0  0  0
    3.6558   -0.1221   -1.9255 H   0  0  0  0  0  0  0  0  0  0  0  0
    2.5499   -0.9440    2.1703 H   0  0  0  0  0  0  0  0  0  0  0  0
    3.8663   -2.5371   -2.3407 H   0  0  0  0  0  0  0  0  0  0  0  0
    2.7684   -3.3550    1.7323 H   0  0  0  0  0  0  0  0  0  0  0  0
    3.4249   -4.1627   -0.5195 H   0  0  0  0  0  0  0  0  0  0  0  0
   -3.7015   -3.7517   -1.2028 H   0  0  0  0  0  0  0  0  0  0  0  0
   -5.0049   -3.7783    0.0041 H   0  0  0  0  0  0  0  0  0  0  0  0
   -3.2895   -3.6853    0.5238 H   0  0  0  0  0  0  0  0  0  0  0  0
  1  3  2  0  0  0  0
  1  4  2  0  0  0  0
  1  7  1  0  0  0  0
  1 16  1  0  0  0  0
  2 14  2  0  0  0  0
  5 17  1  0  0  0  0
  5 23  1  0  0  0  0
  6  9  1  0  0  0  0
  6 12  1  0  0  0  0
  6 14  1  0  0  0  0
  7 10  1  0  0  0  0
  7 13  1  0  0  0  0
  8 11  1  0  0  0  0
  8 14  1  0  0  0  0
  8 15  1  0  0  0  0
  9 10  1  0  0  0  0
  9 11  1  0  0  0  0
  9 24  1  0  0  0  0
 10 25  1  0  0  0  0
 10 26  1  0  0  0  0
 11 27  1  0  0  0  0
 11 28  1  0  0  0  0
 12 13  1  0  0  0  0
 12 29  1  0  0  0  0
 12 30  1  0  0  0  0
 13 31  1  0  0  0  0
 13 32  1  0  0  0  0
 15 17  1  0  0  0  0
 15 33  1  0  0  0  0
 15 34  1  0  0  0  0
 16 18  2  0  0  0  0
 16 19  1  0  0  0  0
 17 35  1  0  0  0  0
 17 36  1  0  0  0  0
 18 20  1  0  0  0  0
 18 37  1  0  0  0  0
 19 21  2  0  0  0  0
 19 38  1  0  0  0  0
 20 22  2  0  0  0  0
 20 39  1  0  0  0  0
 21 22  1  0  0  0  0
 21 40  1  0  0  0  0
 22 41  1  0  0  0  0
 23 42  1  0  0  0  0
 23 43  1  0  0  0  0
 23 44  1  0  0  0  0
M  END
> <PUBCHEM_COMPOUND_CID>
75537028

> <PUBCHEM_CONFORMER_RMSD>
0.8

> <PUBCHEM_CONFORMER_DIVERSEORDER>
1
64
29
39
57
32
44
11
60
40
47
24
72
33
56
13
66
35
12
25
55
42
48
62
15
4
34
51
3
46
68
19
69
45
8
18
14
10
67
43
65
5
61
59
20
9
17
50
41
28
21
63
54
36
30
7
38
6
49
2
52
58
71
37
16
22
70
31
23
53
27
26

> <PUBCHEM_MMFF94_PARTIAL_CHARGES>
28
1 1.45
10 0.36
11 0.3
12 0.3
13 0.36
14 0.69
15 0.3
16 -0.01
17 0.28
18 -0.15
19 -0.15
2 -0.57
20 -0.15
21 -0.15
22 -0.15
23 0.28
3 -0.65
37 0.15
38 0.15
39 0.15
4 -0.65
40 0.15
41 0.15
5 -0.56
6 -0.66
7 -0.85
8 -0.66
9 0.3

> <PUBCHEM_EFFECTIVE_ROTOR_COUNT>
6.2

> <PUBCHEM_PHARMACOPHORE_FEATURES>
7
1 2 acceptor
1 3 acceptor
1 4 acceptor
1 5 acceptor
5 6 8 9 11 14 rings
6 16 18 19 20 21 22 rings
6 6 7 9 10 12 13 rings

> <PUBCHEM_HEAVY_ATOM_COUNT>
23

> <PUBCHEM_ATOM_DEF_STEREO_COUNT>
1

> <PUBCHEM_ATOM_UDEF_STEREO_COUNT>
0

> <PUBCHEM_BOND_DEF_STEREO_COUNT>
0

> <PUBCHEM_BOND_UDEF_STEREO_COUNT>
0

> <PUBCHEM_ISOTOPIC_ATOM_COUNT>
0

> <PUBCHEM_COMPONENT_COUNT>
1

> <PUBCHEM_CACTVS_TAUTO_COUNT>
1

> <PUBCHEM_CONFORMER_ID>
04809A8400000001

> <PUBCHEM_MMFF94_ENERGY>
43.1798

> <PUBCHEM_FEATURE_SELFOVERLAP>
35.638

> <PUBCHEM_SHAPE_FINGERPRINT>
10498660 4 12180716904580337582
10928967 22 18261684666291810763
11552529 35 17703228546079399727
11640471 11 11891924691246228624
12596599 1 18341335478834944723
12633257 1 18057897848336190555
13224815 77 18408038515690919211
13255334 9 18411142450107163883
13533116 47 18273216383309178169
13583140 156 17988916795286486393
14251751 18 18115019698034519402
14251764 30 17700433394380168310
14429115 67 18341050839206074751
15238133 3 10735339630969954312
15295992 7 11167951272273501109
15342816 4 17385718127465530993
15537594 2 18262819426921425955
1813 80 17603872234507814957
20645477 70 18408325458419577520
20775530 9 18337955696541022751
21315759 227 17826230989156905659
21503847 285 10087651389868627528
21673915 165 18267866262322656651
23379529 103 17981618065529737102
23557571 272 17530682095742676788
23559900 14 18410853222688032280
25222932 49 17701820118775514767
4283 87 18408040714894146715
4463277 69 18408603652062197677
463206 1 18120942960547363651
5486654 36 18125454007293999842
6433294 58 18410294674928798954
7970288 3 17910404892047859086
90316 7 16199857372183874233

> <PUBCHEM_SHAPE_MULTIPOLES>
438.76
9.56
3.45
1.63
5.43
2.96
-0.15
6.04
0.39
-0.79
-0.28
-0.14
-0.46
0.53

> <PUBCHEM_SHAPE_SELFOVERLAP>
904.381

> <PUBCHEM_SHAPE_VOLUME>
253.1

> <PUBCHEM_COORDINATE_TYPE>
2
5
10

$$$$
