40779453
  -OEChem-12032416163D

 67 72  0     1  0  0  0  0  0999 V2000
   -1.8661    1.3748    0.9862 O   0  0  0  0  0  0  0  0  0  0  0  0
   -2.3216   -3.6165    1.4614 N   0  0  2  0  0  0  0  0  0  0  0  0
    1.9215   -3.0069   -1.1267 N   0  0  0  0  0  0  0  0  0  0  0  0
   -3.6416   -0.1116    1.1390 N   0  0  0  0  0  0  0  0  0  0  0  0
    2.8962   -2.0835   -1.1859 N   0  0  0  0  0  0  0  0  0  0  0  0
   -1.5406   -3.3923   -1.0130 C   0  0  2  0  0  0  0  0  0  0  0  0
   -0.3176   -3.5644   -0.0702 C   0  0  2  0  0  0  0  0  0  0  0  0
   -2.9663   -2.4350    0.8300 C   0  0  2  0  0  0  0  0  0  0  0  0
   -2.3616   -2.1649   -0.5646 C   0  0  0  0  0  0  0  0  0  0  0  0
   -2.4354   -4.6343   -0.8127 C   0  0  0  0  0  0  0  0  0  0  0  0
   -0.8446   -3.4877    1.3912 C   0  0  0  0  0  0  0  0  0  0  0  0
   -2.7186   -4.8178    0.6886 C   0  0  0  0  0  0  0  0  0  0  0  0
    0.8941   -2.6712   -0.2947 C   0  0  0  0  0  0  0  0  0  0  0  0
   -2.9133   -1.1946    1.7244 C   0  0  0  0  0  0  0  0  0  0  0  0
    1.2195   -1.4430    0.2270 C   0  0  0  0  0  0  0  0  0  0  0  0
    2.4618   -1.1306   -0.3570 C   0  0  0  0  0  0  0  0  0  0  0  0
    2.0449   -4.2144   -1.9101 C   0  0  0  0  0  0  0  0  0  0  0  0
   -3.0520    1.1078    0.8103 C   0  0  0  0  0  0  0  0  0  0  0  0
    3.2417    0.0594   -0.1369 C   0  0  0  0  0  0  0  0  0  0  0  0
   -3.9505    2.1406    0.2335 C   0  0  0  0  0  0  0  0  0  0  0  0
    4.6327    0.0089   -0.2328 C   0  0  0  0  0  0  0  0  0  0  0  0
    2.6076    1.2595    0.1709 C   0  0  0  0  0  0  0  0  0  0  0  0
    5.4078    1.1608   -0.0216 C   0  0  0  0  0  0  0  0  0  0  0  0
   -3.6502    3.4938    0.3906 C   0  0  0  0  0  0  0  0  0  0  0  0
   -5.0954    1.7570   -0.4649 C   0  0  0  0  0  0  0  0  0  0  0  0
    3.3619    2.4137    0.3839 C   0  0  0  0  0  0  0  0  0  0  0  0
    4.7629    2.3812    0.2915 C   0  0  0  0  0  0  0  0  0  0  0  0
   -4.4946    4.4631   -0.1505 C   0  0  0  0  0  0  0  0  0  0  0  0
   -5.9400    2.7262   -1.0060 C   0  0  0  0  0  0  0  0  0  0  0  0
    6.8087    1.1284   -0.1140 C   0  0  0  0  0  0  0  0  0  0  0  0
   -5.6396    4.0793   -0.8488 C   0  0  0  0  0  0  0  0  0  0  0  0
    5.5381    3.5330    0.5029 C   0  0  0  0  0  0  0  0  0  0  0  0
    7.5631    2.2825    0.0992 C   0  0  0  0  0  0  0  0  0  0  0  0
    6.9291    3.4825    0.4071 C   0  0  0  0  0  0  0  0  0  0  0  0
   -6.5423    5.1162   -1.4272 C   0  0  0  0  0  0  0  0  0  0  0  0
   -1.2332   -3.2937   -2.0593 H   0  0  0  0  0  0  0  0  0  0  0  0
    0.0402   -4.5964   -0.2049 H   0  0  0  0  0  0  0  0  0  0  0  0
   -4.0333   -2.6682    0.6956 H   0  0  0  0  0  0  0  0  0  0  0  0
   -1.7182   -1.2780   -0.5689 H   0  0  0  0  0  0  0  0  0  0  0  0
   -3.1693   -1.9789   -1.2832 H   0  0  0  0  0  0  0  0  0  0  0  0
   -1.9427   -5.5290   -1.2108 H   0  0  0  0  0  0  0  0  0  0  0  0
   -3.3757   -4.5090   -1.3633 H   0  0  0  0  0  0  0  0  0  0  0  0
   -0.3942   -4.3060    1.9701 H   0  0  0  0  0  0  0  0  0  0  0  0
   -0.5276   -2.5834    1.9182 H   0  0  0  0  0  0  0  0  0  0  0  0
   -3.7840   -5.0278    0.8437 H   0  0  0  0  0  0  0  0  0  0  0  0
   -2.1873   -5.6987    1.0711 H   0  0  0  0  0  0  0  0  0  0  0  0
   -1.8853   -0.8814    1.9286 H   0  0  0  0  0  0  0  0  0  0  0  0
   -3.3870   -1.4087    2.6894 H   0  0  0  0  0  0  0  0  0  0  0  0
    0.6372   -0.8601    0.9263 H   0  0  0  0  0  0  0  0  0  0  0  0
   -4.6444   -0.2343    1.0473 H   0  0  0  0  0  0  0  0  0  0  0  0
    1.1208   -4.3678   -2.4722 H   0  0  0  0  0  0  0  0  0  0  0  0
    2.8807   -4.1111   -2.6075 H   0  0  0  0  0  0  0  0  0  0  0  0
    2.2311   -5.0479   -1.2287 H   0  0  0  0  0  0  0  0  0  0  0  0
    5.1375   -0.9282   -0.4645 H   0  0  0  0  0  0  0  0  0  0  0  0
    1.5252    1.3331    0.2423 H   0  0  0  0  0  0  0  0  0  0  0  0
   -2.7651    3.8128    0.9348 H   0  0  0  0  0  0  0  0  0  0  0  0
   -5.3484    0.7148   -0.6359 H   0  0  0  0  0  0  0  0  0  0  0  0
    2.8452    3.3414    0.6211 H   0  0  0  0  0  0  0  0  0  0  0  0
   -4.2495    5.5141   -0.0222 H   0  0  0  0  0  0  0  0  0  0  0  0
   -6.8246    2.4150   -1.5554 H   0  0  0  0  0  0  0  0  0  0  0  0
    7.3261    0.2017   -0.3534 H   0  0  0  0  0  0  0  0  0  0  0  0
    5.0638    4.4819    0.7447 H   0  0  0  0  0  0  0  0  0  0  0  0
    8.6459    2.2439    0.0247 H   0  0  0  0  0  0  0  0  0  0  0  0
    7.5170    4.3805    0.5730 H   0  0  0  0  0  0  0  0  0  0  0  0
   -6.2246    5.3655   -2.4444 H   0  0  0  0  0  0  0  0  0  0  0  0
   -7.5791    4.7641   -1.4598 H   0  0  0  0  0  0  0  0  0  0  0  0
   -6.5333    6.0294   -0.8225 H   0  0  0  0  0  0  0  0  0  0  0  0
  1 18  2  0  0  0  0
  2  8  1  0  0  0  0
  2 11  1  0  0  0  0
  2 12  1  0  0  0  0
  3  5  1  0  0  0  0
  3 13  1  0  0  0  0
  3 17  1  0  0  0  0
  4 14  1  0  0  0  0
  4 18  1  0  0  0  0
  4 50  1  0  0  0  0
  5 16  2  0  0  0  0
  6  7  1  0  0  0  0
  6  9  1  0  0  0  0
  6 10  1  0  0  0  0
  6 36  1  0  0  0  0
  7 11  1  0  0  0  0
  7 13  1  0  0  0  0
  7 37  1  0  0  0  0
  8  9  1  0  0  0  0
  8 14  1  0  0  0  0
  8 38  1  0  0  0  0
  9 39  1  0  0  0  0
  9 40  1  0  0  0  0
 10 12  1  0  0  0  0
 10 41  1  0  0  0  0
 10 42  1  0  0  0  0
 11 43  1  0  0  0  0
 11 44  1  0  0  0  0
 12 45  1  0  0  0  0
 12 46  1  0  0  0  0
 13 15  2  0  0  0  0
 14 47  1  0  0  0  0
 14 48  1  0  0  0  0
 15 16  1  0  0  0  0
 15 49  1  0  0  0  0
 16 19  1  0  0  0  0
 17 51  1  0  0  0  0
 17 52  1  0  0  0  0
 17 53  1  0  0  0  0
 18 20  1  0  0  0  0
 19 21  2  0  0  0  0
 19 22  1  0  0  0  0
 20 24  2  0  0  0  0
 20 25  1  0  0  0  0
 21 23  1  0  0  0  0
 21 54  1  0  0  0  0
 22 26  2  0  0  0  0
 22 55  1  0  0  0  0
 23 27  1  0  0  0  0
 23 30  2  0  0  0  0
 24 28  1  0  0  0  0
 24 56  1  0  0  0  0
 25 29  2  0  0  0  0
 25 57  1  0  0  0  0
 26 27  1  0  0  0  0
 26 58  1  0  0  0  0
 27 32  2  0  0  0  0
 28 31  2  0  0  0  0
 28 59  1  0  0  0  0
 29 31  1  0  0  0  0
 29 60  1  0  0  0  0
 30 33  1  0  0  0  0
 30 61  1  0  0  0  0
 31 35  1  0  0  0  0
 32 34  1  0  0  0  0
 32 62  1  0  0  0  0
 33 34  2  0  0  0  0
 33 63  1  0  0  0  0
 34 64  1  0  0  0  0
 35 65  1  0  0  0  0
 35 66  1  0  0  0  0
 35 67  1  0  0  0  0
M  END
> <PUBCHEM_COMPOUND_CID>
40779453

> <PUBCHEM_CONFORMER_RMSD>
1

> <PUBCHEM_CONFORMER_DIVERSEORDER>
3
8
18
46
43
17
44
55
35
50
12
40
49
41
53
33
30
21
20
45
24
9
27
48
14
10
37
2
19
6
32
47
28
23
29
26
5
51
39
15
11
4
54
25
36
38
16
52
1
42
13
22
31
34
7

> <PUBCHEM_MMFF94_PARTIAL_CHARGES>
43
1 -0.57
11 0.27
12 0.27
13 -0.33
14 0.3
15 -0.15
16 0.23
17 0.26
18 0.54
19 0.05
2 -0.81
20 0.09
21 -0.15
22 -0.15
24 -0.15
25 -0.15
26 -0.15
28 -0.15
29 -0.15
3 0.31
30 -0.15
31 -0.14
32 -0.15
33 -0.15
34 -0.15
35 0.14
4 -0.73
49 0.15
5 -0.71
50 0.37
54 0.15
55 0.15
56 0.15
57 0.15
58 0.15
59 0.15
60 0.15
61 0.15
62 0.15
63 0.15
64 0.15
7 0.18
8 0.27

> <PUBCHEM_EFFECTIVE_ROTOR_COUNT>
7.2

> <PUBCHEM_PHARMACOPHORE_FEATURES>
9
1 1 acceptor
1 2 cation
1 4 donor
1 5 acceptor
5 3 5 13 15 16 rings
6 19 21 22 23 26 27 rings
6 20 24 25 28 29 31 rings
6 23 27 30 32 33 34 rings
8 2 6 7 8 9 10 11 12 rings

> <PUBCHEM_HEAVY_ATOM_COUNT>
35

> <PUBCHEM_ATOM_DEF_STEREO_COUNT>
3

> <PUBCHEM_ATOM_UDEF_STEREO_COUNT>
0

> <PUBCHEM_BOND_DEF_STEREO_COUNT>
0

> <PUBCHEM_BOND_UDEF_STEREO_COUNT>
0

> <PUBCHEM_ISOTOPIC_ATOM_COUNT>
0

> <PUBCHEM_COMPONENT_COUNT>
1

> <PUBCHEM_CACTVS_TAUTO_COUNT>
5

> <PUBCHEM_CONFORMER_ID>
026E3EBD00000003

> <PUBCHEM_MMFF94_ENERGY>
96.4028

> <PUBCHEM_FEATURE_SELFOVERLAP>
45.699

> <PUBCHEM_SHAPE_FINGERPRINT>
100830 39 18268151040762220848
10675989 125 17978793406940554865
10864689 126 18338242549048721676
11204353 107 18269552913809148568
11693224 71 18189606152174968197
12107183 9 18262787468560387434
12522641 33 18409724037991246309
1361 2 18265330612958977013
13773456 30 18339357457469355329
14415360 78 18263919938906882148
15198563 99 18124587841883305999
15320295 44 18056182598124257621
15324884 4 17972914417145529779
15326921 28 18270107033156094608
15400415 2 18338233760881495469
15419008 145 18195236957600441560
15419008 42 18059869350727194030
15439362 3 18339922589624781228
15483637 11 18267301109278164548
15530120 55 17628888198657156277
15721738 15 18127963127178663801
16067690 210 17901943376924327162
16993438 75 18337953514195879160
17899979 129 18122627150273328025
19053607 189 18268976614316506777
19304152 47 18115602572045568250
19309040 13 16485038798523175123
19611394 137 17253718685792883226
21033648 144 18271818959406511247
21133410 127 18335146418456783060
21133410 38 17913217464203431689
21792965 68 18268984453665699164
21927370 108 17760660552251247355
21987440 362 18410580574433124374
23522609 53 17386579084932892372
23569914 2 17199630239195447144
25019877 29 16410445962110297903
3418910 222 17398966354186587460
354706 109 18266437923757129208
376196 1 18117281346588074467
3991529 202 10446776163743280165
4112364 45 17750788849098598537
4144715 1 18262527000258567834
437795 96 18411139177136720040
4403749 210 18198615722188268680
5776283 40 18194697964336086014
59521099 67 16966312402854057779
6036956 94 18118406387037591533
636783 85 16474871365283609121
6608658 132 17547586228199827894
7288768 16 18187364316167970531

> <PUBCHEM_SHAPE_MULTIPOLES>
694.49
17.09
8.89
1.28
16.21
1.74
0.03
-30.85
1.79
-11.11
1.81
-1.06
0.89
4.26

> <PUBCHEM_SHAPE_SELFOVERLAP>
1534.366

> <PUBCHEM_SHAPE_VOLUME>
370.6

> <PUBCHEM_COORDINATE_TYPE>
2
5
10

$$$$
