75537064
  -OEChem-12032416323D

 46 49  0     1  0  0  0  0  0999 V2000
    2.0576    2.5751    0.8061 O   0  0  0  0  0  0  0  0  0  0  0  0
    0.2910    1.3490   -0.1398 N   0  0  0  0  0  0  0  0  0  0  0  0
   -2.0485   -0.2065   -0.2733 N   0  0  2  0  0  0  0  0  0  0  0  0
    2.3633    1.0194   -0.9404 N   0  0  0  0  0  0  0  0  0  0  0  0
    5.6428   -2.1000   -0.1828 N   0  0  0  0  0  0  0  0  0  0  0  0
    0.1088    0.4496   -1.2598 C   0  0  2  0  0  0  0  0  0  0  0  0
   -0.7945   -0.7177   -0.8631 C   0  0  0  0  0  0  0  0  0  0  0  0
    1.5338    0.0566   -1.6446 C   0  0  0  0  0  0  0  0  0  0  0  0
   -0.8670    1.7959    0.6060 C   0  0  0  0  0  0  0  0  0  0  0  0
   -1.7723    0.6047    0.9296 C   0  0  0  0  0  0  0  0  0  0  0  0
    1.6240    1.7554    0.0074 C   0  0  0  0  0  0  0  0  0  0  0  0
   -2.9456   -1.3143    0.0543 C   0  0  0  0  0  0  0  0  0  0  0  0
    3.7976    1.0703   -1.1182 C   0  0  0  0  0  0  0  0  0  0  0  0
   -4.3826   -0.8703    0.1241 C   0  0  0  0  0  0  0  0  0  0  0  0
    4.5025    0.0291   -0.2901 C   0  0  0  0  0  0  0  0  0  0  0  0
   -4.9167   -0.4233    1.3327 C   0  0  0  0  0  0  0  0  0  0  0  0
   -5.1796   -0.9058   -1.0200 C   0  0  0  0  0  0  0  0  0  0  0  0
    4.6722    0.1973    1.0797 C   0  0  0  0  0  0  0  0  0  0  0  0
    5.0018   -1.1269   -0.8682 C   0  0  0  0  0  0  0  0  0  0  0  0
   -6.2481   -0.0121    1.3972 C   0  0  0  0  0  0  0  0  0  0  0  0
   -6.5108   -0.4945   -0.9555 C   0  0  0  0  0  0  0  0  0  0  0  0
    5.3266   -0.7818    1.8190 C   0  0  0  0  0  0  0  0  0  0  0  0
   -7.0451   -0.0477    0.2531 C   0  0  0  0  0  0  0  0  0  0  0  0
    5.7888   -1.9015    1.1466 C   0  0  0  0  0  0  0  0  0  0  0  0
   -0.3513    1.0333   -2.0679 H   0  0  0  0  0  0  0  0  0  0  0  0
   -1.0082   -1.3105   -1.7608 H   0  0  0  0  0  0  0  0  0  0  0  0
   -0.2830   -1.3744   -0.1463 H   0  0  0  0  0  0  0  0  0  0  0  0
    1.8001   -0.9486   -1.3024 H   0  0  0  0  0  0  0  0  0  0  0  0
    1.7031    0.1329   -2.7228 H   0  0  0  0  0  0  0  0  0  0  0  0
   -1.3960    2.5236   -0.0201 H   0  0  0  0  0  0  0  0  0  0  0  0
   -0.5411    2.3063    1.5178 H   0  0  0  0  0  0  0  0  0  0  0  0
   -1.2950   -0.0115    1.7034 H   0  0  0  0  0  0  0  0  0  0  0  0
   -2.6901    1.0193    1.3547 H   0  0  0  0  0  0  0  0  0  0  0  0
   -2.6525   -1.8220    0.9836 H   0  0  0  0  0  0  0  0  0  0  0  0
   -2.8893   -2.0922   -0.7204 H   0  0  0  0  0  0  0  0  0  0  0  0
    4.0239    0.9581   -2.1846 H   0  0  0  0  0  0  0  0  0  0  0  0
    4.1539    2.0623   -0.8154 H   0  0  0  0  0  0  0  0  0  0  0  0
   -4.3155   -0.4062    2.2377 H   0  0  0  0  0  0  0  0  0  0  0  0
   -4.7755   -1.2495   -1.9685 H   0  0  0  0  0  0  0  0  0  0  0  0
    4.3049    1.0870    1.5828 H   0  0  0  0  0  0  0  0  0  0  0  0
    4.8987   -1.3166   -1.9322 H   0  0  0  0  0  0  0  0  0  0  0  0
   -6.6653    0.3320    2.3391 H   0  0  0  0  0  0  0  0  0  0  0  0
   -7.1315   -0.5218   -1.8464 H   0  0  0  0  0  0  0  0  0  0  0  0
    5.4712   -0.6715    2.8876 H   0  0  0  0  0  0  0  0  0  0  0  0
   -8.0819    0.2717    0.3034 H   0  0  0  0  0  0  0  0  0  0  0  0
    6.3060   -2.6940    1.6775 H   0  0  0  0  0  0  0  0  0  0  0  0
  1 11  2  0  0  0  0
  2  6  1  0  0  0  0
  2  9  1  0  0  0  0
  2 11  1  0  0  0  0
  3  7  1  0  0  0  0
  3 10  1  0  0  0  0
  3 12  1  0  0  0  0
  4  8  1  0  0  0  0
  4 11  1  0  0  0  0
  4 13  1  0  0  0  0
  5 19  1  0  0  0  0
  5 24  2  0  0  0  0
  6  7  1  0  0  0  0
  6  8  1  0  0  0  0
  6 25  1  0  0  0  0
  7 26  1  0  0  0  0
  7 27  1  0  0  0  0
  8 28  1  0  0  0  0
  8 29  1  0  0  0  0
  9 10  1  0  0  0  0
  9 30  1  0  0  0  0
  9 31  1  0  0  0  0
 10 32  1  0  0  0  0
 10 33  1  0  0  0  0
 12 14  1  0  0  0  0
 12 34  1  0  0  0  0
 12 35  1  0  0  0  0
 13 15  1  0  0  0  0
 13 36  1  0  0  0  0
 13 37  1  0  0  0  0
 14 16  2  0  0  0  0
 14 17  1  0  0  0  0
 15 18  1  0  0  0  0
 15 19  2  0  0  0  0
 16 20  1  0  0  0  0
 16 38  1  0  0  0  0
 17 21  2  0  0  0  0
 17 39  1  0  0  0  0
 18 22  2  0  0  0  0
 18 40  1  0  0  0  0
 19 41  1  0  0  0  0
 20 23  2  0  0  0  0
 20 42  1  0  0  0  0
 21 23  1  0  0  0  0
 21 43  1  0  0  0  0
 22 24  1  0  0  0  0
 22 44  1  0  0  0  0
 23 45  1  0  0  0  0
 24 46  1  0  0  0  0
M  END
> <PUBCHEM_COMPOUND_CID>
75537064

> <PUBCHEM_CONFORMER_RMSD>
0.8

> <PUBCHEM_CONFORMER_DIVERSEORDER>
2
61
54
37
22
78
29
72
74
8
48
12
76
90
45
52
68
57
17
18
23
89
49
40
88
69
86
31
75
81
46
51
59
11
25
21
39
42
33
16
7
10
56
64
65
47
55
5
87
34
20
43
6
71
41
9
63
60
79
32
26
28
36
24
66
30
85
35
77
14
50
1
44
38
67
58
73
15
82
83
70
19
80
27
3
13
62
53
84
4

> <PUBCHEM_MMFF94_PARTIAL_CHARGES>
33
1 -0.57
10 0.27
11 0.69
12 0.41
13 0.44
14 -0.14
15 -0.14
16 -0.15
17 -0.15
18 -0.15
19 0.16
2 -0.66
20 -0.15
21 -0.15
22 -0.15
23 -0.15
24 0.16
3 -0.81
38 0.15
39 0.15
4 -0.66
40 0.15
41 0.15
42 0.15
43 0.15
44 0.15
45 0.15
46 0.15
5 -0.62
6 0.3
7 0.27
8 0.3
9 0.3

> <PUBCHEM_EFFECTIVE_ROTOR_COUNT>
5.2

> <PUBCHEM_PHARMACOPHORE_FEATURES>
7
1 1 acceptor
1 3 cation
1 5 acceptor
5 2 4 6 8 11 rings
6 14 16 17 20 21 23 rings
6 2 3 6 7 9 10 rings
6 5 15 18 19 22 24 rings

> <PUBCHEM_HEAVY_ATOM_COUNT>
24

> <PUBCHEM_ATOM_DEF_STEREO_COUNT>
1

> <PUBCHEM_ATOM_UDEF_STEREO_COUNT>
0

> <PUBCHEM_BOND_DEF_STEREO_COUNT>
0

> <PUBCHEM_BOND_UDEF_STEREO_COUNT>
0

> <PUBCHEM_ISOTOPIC_ATOM_COUNT>
0

> <PUBCHEM_COMPONENT_COUNT>
1

> <PUBCHEM_CACTVS_TAUTO_COUNT>
1

> <PUBCHEM_CONFORMER_ID>
04809AA800000002

> <PUBCHEM_MMFF94_ENERGY>
60.9934

> <PUBCHEM_FEATURE_SELFOVERLAP>
35.618

> <PUBCHEM_SHAPE_FINGERPRINT>
10 15 15123502618961369018
10498660 4 8069736421806839278
10670039 82 8862677823559052458
10753850 27 17676763189682292546
117089 54 17901950743279848250
11719270 70 17703794721474009863
11796584 16 18040721406372692298
12422481 6 17489310767376258045
12596602 18 16702300161336141354
12730499 353 8790889600752377092
12760667 363 18409166593304364991
13533116 47 18408604773275534736
13685833 64 17530963583856918842
13782708 43 17895764031809712923
13914758 101 18411134706950710809
14251752 14 18040995116617984117
14251758 9 17894627072082111431
14251764 18 18131070450444195764
14347424 109 18272646853397482776
14461889 52 14476954618857911407
14528608 73 10665227059757976854
14767858 380 10737286857219674675
15183329 4 16587740910945031925
15188451 53 18340198605861342210
15301273 46 16988568996412373636
15352257 5 16950289528966551099
15475509 8 15140959517815039503
15510800 12 17604432891128607714
17349148 13 17988934391804005165
17857418 61 18413671322523913153
18222031 100 17846229872846435196
19784866 240 17822294556891966062
1979834 28 17346607356847213486
20511986 3 16558752270352924727
20567600 234 15051727616280185059
20567600 75 17530962488708992799
20832881 197 18261110789766768081
21304304 249 18342460309896661814
21344244 181 14923946721644729368
21641784 216 7997703016266009351
22061861 79 17240483615283308719
22079108 93 14045739326718785244
2215653 11 16805321106491852579
2303208 19 16588030138627881929
23081809 10 18341899640596566101
23536379 177 17240202149202377621
23559900 14 17749674103100490677
23929065 36 17702943617986121665
2838139 119 10951765244944897642
3004659 81 18259990379318473710
3014965 18 18040995146223786671
33382 64 17603303739498276906
3411729 13 17630882910339639904
345986 75 18265040358947151514
3472631 163 9222933890805152474
34797466 226 13695878042454485726
3886686 26 17049936889007205946
397830 11 14045450206863896215
4072396 5 18060423516544034207
4325135 7 12103846761090356717
46194498 28 15791733023019773094
465052 167 17967819344882188174
5104073 3 17916594288060867067
5207 217 9727628410660861279
531348 171 18334006195482256695
53794403 172 8790011056887486382
59682541 52 15936679411214827026
59755656 215 17095517379754346147
8509985 295 18272654575505866564
8988823 20 18271520992145488320
960060 61 15936414429619245782

> <PUBCHEM_SHAPE_MULTIPOLES>
468.12
18.07
1.83
1.53
11.63
0.36
-0.13
-8.95
-3.6
-2.5
-0.3
-0.43
-0.09
-0.89

> <PUBCHEM_SHAPE_SELFOVERLAP>
1006.279

> <PUBCHEM_SHAPE_VOLUME>
257.7

> <PUBCHEM_COORDINATE_TYPE>
2
5
10

$$$$
