11912438
  -OEChem-12032416213D

 56 60  0     1  0  0  0  0  0999 V2000
   -8.0655   -1.1010   -0.8082 F   0  0  0  0  0  0  0  0  0  0  0  0
   -6.0400   -1.2081   -1.6216 F   0  0  0  0  0  0  0  0  0  0  0  0
   -6.6992   -2.6396   -0.0724 F   0  0  0  0  0  0  0  0  0  0  0  0
    5.0061   -4.0180    0.2516 O   0  0  0  0  0  0  0  0  0  0  0  0
   -0.6878    0.9639   -1.7494 O   0  0  0  0  0  0  0  0  0  0  0  0
   -6.3545   -0.4563    0.5152 O   0  0  0  0  0  0  0  0  0  0  0  0
    3.9759    0.0311   -0.1595 N   0  0  2  0  0  0  0  0  0  0  0  0
    1.2063    1.5689   -0.5312 N   0  0  0  0  0  0  0  0  0  0  0  0
    3.4807    1.9995   -1.6314 C   0  0  1  0  0  0  0  0  0  0  0  0
    3.2440    2.2209    0.7955 C   0  0  2  0  0  0  0  0  0  0  0  0
    3.6992    2.9527   -0.4640 C   0  0  0  0  0  0  0  0  0  0  0  0
    4.3002    0.7086   -1.4208 C   0  0  0  0  0  0  0  0  0  0  0  0
    4.0947    0.9444    0.9871 C   0  0  0  0  0  0  0  0  0  0  0  0
    1.9772    1.7270   -1.7727 C   0  0  0  0  0  0  0  0  0  0  0  0
    4.8086   -1.1546    0.0278 C   0  0  0  0  0  0  0  0  0  0  0  0
    1.7704    1.8684    0.7111 C   0  0  0  0  0  0  0  0  0  0  0  0
    4.3824   -1.9107    1.2895 C   0  0  0  0  0  0  0  0  0  0  0  0
    4.7306   -2.0808   -1.1898 C   0  0  0  0  0  0  0  0  0  0  0  0
    1.0167    1.8258    1.8212 C   0  0  0  0  0  0  0  0  0  0  0  0
   -0.1471    1.2027   -0.6681 C   0  0  0  0  0  0  0  0  0  0  0  0
    5.1675   -3.2115    1.4185 C   0  0  0  0  0  0  0  0  0  0  0  0
    5.4964   -3.3721   -0.9233 C   0  0  0  0  0  0  0  0  0  0  0  0
   -0.9582    1.1299    0.5978 C   0  0  0  0  0  0  0  0  0  0  0  0
   -0.3659    1.4447    1.7597 C   0  0  0  0  0  0  0  0  0  0  0  0
   -2.3717    0.7146    0.5762 C   0  0  0  0  0  0  0  0  0  0  0  0
   -3.3782    1.6691    0.4253 C   0  0  0  0  0  0  0  0  0  0  0  0
   -2.7053   -0.6339    0.7069 C   0  0  0  0  0  0  0  0  0  0  0  0
   -4.7163    1.2757    0.4053 C   0  0  0  0  0  0  0  0  0  0  0  0
   -4.0434   -1.0274    0.6870 C   0  0  0  0  0  0  0  0  0  0  0  0
   -5.0489   -0.0726    0.5363 C   0  0  0  0  0  0  0  0  0  0  0  0
   -6.7748   -1.3613   -0.4996 C   0  0  0  0  0  0  0  0  0  0  0  0
    3.8344    2.4689   -2.5580 H   0  0  0  0  0  0  0  0  0  0  0  0
    3.4165    2.8830    1.6543 H   0  0  0  0  0  0  0  0  0  0  0  0
    3.1330    3.8815   -0.6066 H   0  0  0  0  0  0  0  0  0  0  0  0
    4.7579    3.2289   -0.3865 H   0  0  0  0  0  0  0  0  0  0  0  0
    4.0717    0.0747   -2.2835 H   0  0  0  0  0  0  0  0  0  0  0  0
    5.3696    0.9558   -1.4631 H   0  0  0  0  0  0  0  0  0  0  0  0
    5.1427    1.2320    1.1466 H   0  0  0  0  0  0  0  0  0  0  0  0
    3.7406    0.4770    1.9111 H   0  0  0  0  0  0  0  0  0  0  0  0
    1.5173    2.5748   -2.2989 H   0  0  0  0  0  0  0  0  0  0  0  0
    1.8009    0.8489   -2.4069 H   0  0  0  0  0  0  0  0  0  0  0  0
    5.8593   -0.8522    0.1500 H   0  0  0  0  0  0  0  0  0  0  0  0
    3.3108   -2.1439    1.2375 H   0  0  0  0  0  0  0  0  0  0  0  0
    4.5629   -1.3405    2.2052 H   0  0  0  0  0  0  0  0  0  0  0  0
    5.1707   -1.6335   -2.0866 H   0  0  0  0  0  0  0  0  0  0  0  0
    3.6822   -2.3256   -1.4044 H   0  0  0  0  0  0  0  0  0  0  0  0
    1.4315    2.0478    2.7988 H   0  0  0  0  0  0  0  0  0  0  0  0
    6.2342   -3.0202    1.5848 H   0  0  0  0  0  0  0  0  0  0  0  0
    4.7977   -3.7864    2.2737 H   0  0  0  0  0  0  0  0  0  0  0  0
    5.3649   -4.0631   -1.7622 H   0  0  0  0  0  0  0  0  0  0  0  0
    6.5712   -3.1846   -0.8145 H   0  0  0  0  0  0  0  0  0  0  0  0
   -0.9052    1.4071    2.7017 H   0  0  0  0  0  0  0  0  0  0  0  0
   -3.1349    2.7238    0.3211 H   0  0  0  0  0  0  0  0  0  0  0  0
   -1.9329   -1.3900    0.8258 H   0  0  0  0  0  0  0  0  0  0  0  0
   -5.4954    2.0239    0.2865 H   0  0  0  0  0  0  0  0  0  0  0  0
   -4.2885   -2.0802    0.7964 H   0  0  0  0  0  0  0  0  0  0  0  0
  1 31  1  0  0  0  0
  2 31  1  0  0  0  0
  3 31  1  0  0  0  0
  4 21  1  0  0  0  0
  4 22  1  0  0  0  0
  5 20  2  0  0  0  0
  6 30  1  0  0  0  0
  6 31  1  0  0  0  0
  7 12  1  0  0  0  0
  7 13  1  0  0  0  0
  7 15  1  0  0  0  0
  8 14  1  0  0  0  0
  8 16  1  0  0  0  0
  8 20  1  0  0  0  0
  9 11  1  0  0  0  0
  9 12  1  0  0  0  0
  9 14  1  0  0  0  0
  9 32  1  0  0  0  0
 10 11  1  0  0  0  0
 10 13  1  0  0  0  0
 10 16  1  0  0  0  0
 10 33  1  0  0  0  0
 11 34  1  0  0  0  0
 11 35  1  0  0  0  0
 12 36  1  0  0  0  0
 12 37  1  0  0  0  0
 13 38  1  0  0  0  0
 13 39  1  0  0  0  0
 14 40  1  0  0  0  0
 14 41  1  0  0  0  0
 15 17  1  0  0  0  0
 15 18  1  0  0  0  0
 15 42  1  0  0  0  0
 16 19  2  0  0  0  0
 17 21  1  0  0  0  0
 17 43  1  0  0  0  0
 17 44  1  0  0  0  0
 18 22  1  0  0  0  0
 18 45  1  0  0  0  0
 18 46  1  0  0  0  0
 19 24  1  0  0  0  0
 19 47  1  0  0  0  0
 20 23  1  0  0  0  0
 21 48  1  0  0  0  0
 21 49  1  0  0  0  0
 22 50  1  0  0  0  0
 22 51  1  0  0  0  0
 23 24  2  0  0  0  0
 23 25  1  0  0  0  0
 24 52  1  0  0  0  0
 25 26  2  0  0  0  0
 25 27  1  0  0  0  0
 26 28  1  0  0  0  0
 26 53  1  0  0  0  0
 27 29  2  0  0  0  0
 27 54  1  0  0  0  0
 28 30  2  0  0  0  0
 28 55  1  0  0  0  0
 29 30  1  0  0  0  0
 29 56  1  0  0  0  0
M  END
> <PUBCHEM_COMPOUND_CID>
11912438

> <PUBCHEM_CONFORMER_RMSD>
0.8

> <PUBCHEM_CONFORMER_DIVERSEORDER>
1
10
12
3
11
5
9
6
7
2
8
4

> <PUBCHEM_MMFF94_PARTIAL_CHARGES>
33
1 -0.34
10 0.14
12 0.27
13 0.27
14 0.3
15 0.27
16 -0.03
19 -0.15
2 -0.34
20 0.62
21 0.28
22 0.28
23 -0.01
24 -0.15
25 0.03
26 -0.15
27 -0.15
28 -0.15
29 -0.15
3 -0.34
30 0.08
31 1.3
4 -0.56
47 0.15
5 -0.57
52 0.15
53 0.15
54 0.15
55 0.15
56 0.15
6 -0.36
7 -0.81
8 -0.47

> <PUBCHEM_EFFECTIVE_ROTOR_COUNT>
6.2

> <PUBCHEM_PHARMACOPHORE_FEATURES>
9
1 4 acceptor
1 5 acceptor
1 6 acceptor
1 7 cation
6 25 26 27 28 29 30 rings
6 4 15 17 18 21 22 rings
6 7 9 10 11 12 13 rings
6 8 16 19 20 23 24 rings
6 8 9 10 11 14 16 rings

> <PUBCHEM_HEAVY_ATOM_COUNT>
31

> <PUBCHEM_ATOM_DEF_STEREO_COUNT>
2

> <PUBCHEM_ATOM_UDEF_STEREO_COUNT>
0

> <PUBCHEM_BOND_DEF_STEREO_COUNT>
0

> <PUBCHEM_BOND_UDEF_STEREO_COUNT>
0

> <PUBCHEM_ISOTOPIC_ATOM_COUNT>
0

> <PUBCHEM_COMPONENT_COUNT>
1

> <PUBCHEM_CACTVS_TAUTO_COUNT>
1

> <PUBCHEM_CONFORMER_ID>
00B5C4F600000001

> <PUBCHEM_MMFF94_ENERGY>
86.8895

> <PUBCHEM_FEATURE_SELFOVERLAP>
47.226

> <PUBCHEM_SHAPE_FINGERPRINT>
10622 236 18266458715840852330
10673678 19 11169917168940891945
117089 54 17914631453584482390
11719270 70 16630535046555630245
11796584 16 18271259273437941149
11954058 11 18341334401462414678
11963148 33 18126841827508738631
1200032 147 12463270533107131922
12107183 9 18050579442901956336
12166972 35 18411142394272251226
12522641 68 17323543133924827460
12661589 4 18130795581022003678
13533116 47 18410858784443651952
1361 2 18334579023301744386
1361 4 18340206414138786035
13782708 43 18201720682852666005
14068700 675 18267867190531315850
14150023 79 17912920879547565528
14211702 104 18336271244927515907
14251740 57 18342458093830270906
14347332 77 18412825768439849881
14849402 71 11455890235917299204
15001296 14 18336259149782736523
15183329 4 17748825241811929325
15475509 35 18201714072370457866
15475509 8 17240769419861679149
17134984 74 18336833116432364154
17857418 61 18343585165967383281
19311894 1 17898285013818808165
19438510 23 9510877264320320326
19958102 18 18187358857591442031
20028762 73 18272371923624643438
20567600 247 18335703814789870274
20775438 99 18041561450900666426
20775530 9 18265325111279866046
21033648 29 14045467696355704537
21344244 78 14908183075287707011
21585483 132 18339629093114555359
21641784 216 14707198895176036719
21792934 111 13614254668229229659
23522609 53 17984454999077299481
23559900 14 18409446955779532064
23569914 152 17101112670074754095
23569914 2 11165412281093534739
23569943 247 18340489968217558155
25222932 49 17773591814099538212
2838139 119 8934997032254245346
29717793 49 17967810587475630549
3004659 81 18409735045343001320
34797466 226 17168146801485372205
3886686 26 16622387407068128050
397830 11 11527941301293922197
439807 62 18413673517843097031
46194498 28 17458354052399321284
465052 167 17632866351204655108
474113 269 17988633066015843895
5104073 3 17346322587588616473
5372103 7 14853043701559584566
5719381 36 17773585213257895391
5951187 136 13768506309498770678
59682541 52 17967534583922777517
6201320 221 18129079188074950567
7970288 3 18051134692685858090
960060 61 17531545200028352476

> <PUBCHEM_SHAPE_MULTIPOLES>
588.57
17.73
3.84
1.65
28.52
2.87
-0.16
17.21
-3
-6.45
0.03
-1.1
-0.32
-1.63

> <PUBCHEM_SHAPE_SELFOVERLAP>
1285.187

> <PUBCHEM_SHAPE_VOLUME>
319.1

> <PUBCHEM_COORDINATE_TYPE>
2
5
10

$$$$
