7144209
  -OEChem-12032416403D

 55 59  0     1  0  0  0  0  0999 V2000
    3.1885   -0.0792   -1.3849 S   0  0  0  0  0  0  0  0  0  0  0  0
    3.9908   -5.4378    0.8860 F   0  0  0  0  0  0  0  0  0  0  0  0
   -4.0813   -2.8427    1.0230 F   0  0  0  0  0  0  0  0  0  0  0  0
   -5.6011   -3.9142   -0.1249 F   0  0  0  0  0  0  0  0  0  0  0  0
   -6.2146   -2.2973    1.2112 F   0  0  0  0  0  0  0  0  0  0  0  0
    4.4848    0.5583   -1.4810 O   0  0  0  0  0  0  0  0  0  0  0  0
    2.3362   -0.2122   -2.5477 O   0  0  0  0  0  0  0  0  0  0  0  0
    1.2411    5.4904   -0.0484 O   0  0  0  0  0  0  0  0  0  0  0  0
   -5.1123   -1.7947   -0.7289 O   0  0  0  0  0  0  0  0  0  0  0  0
    2.2967    0.6521   -0.1213 N   0  0  2  0  0  0  0  0  0  0  0  0
    0.7032    3.2873    0.5376 N   0  0  0  0  0  0  0  0  0  0  0  0
    2.2352    1.8852    2.0417 C   0  0  1  0  0  0  0  0  0  0  0  0
    0.1698    0.9067    1.1452 C   0  0  2  0  0  0  0  0  0  0  0  0
    0.9533    1.1668    2.4295 C   0  0  0  0  0  0  0  0  0  0  0  0
    3.0793    1.0228    1.0909 C   0  0  0  0  0  0  0  0  0  0  0  0
    0.9983   -0.0012    0.2152 C   0  0  0  0  0  0  0  0  0  0  0  0
    1.8705    3.2383    1.4288 C   0  0  0  0  0  0  0  0  0  0  0  0
   -0.2028    2.2126    0.4377 C   0  0  0  0  0  0  0  0  0  0  0  0
   -1.3451    2.3560   -0.2838 C   0  0  0  0  0  0  0  0  0  0  0  0
    0.4912    4.5158   -0.1133 C   0  0  0  0  0  0  0  0  0  0  0  0
   -1.5955    3.6077   -0.9729 C   0  0  0  0  0  0  0  0  0  0  0  0
   -0.7443    4.6319   -0.9207 C   0  0  0  0  0  0  0  0  0  0  0  0
    3.4295   -1.6896   -0.7020 C   0  0  0  0  0  0  0  0  0  0  0  0
   -2.3357    1.2636   -0.4008 C   0  0  0  0  0  0  0  0  0  0  0  0
    2.4925   -2.6786   -0.9517 C   0  0  0  0  0  0  0  0  0  0  0  0
    4.5514   -1.9366    0.0715 C   0  0  0  0  0  0  0  0  0  0  0  0
   -2.2201    0.3332   -1.4288 C   0  0  0  0  0  0  0  0  0  0  0  0
   -3.3769    1.1746    0.5182 C   0  0  0  0  0  0  0  0  0  0  0  0
   -3.1548   -0.6963   -1.5392 C   0  0  0  0  0  0  0  0  0  0  0  0
   -4.3115    0.1450    0.4079 C   0  0  0  0  0  0  0  0  0  0  0  0
    2.6829   -3.9508   -0.4124 C   0  0  0  0  0  0  0  0  0  0  0  0
    4.7420   -3.2089    0.6107 C   0  0  0  0  0  0  0  0  0  0  0  0
   -4.2004   -0.7905   -0.6208 C   0  0  0  0  0  0  0  0  0  0  0  0
    3.8076   -4.2159    0.3688 C   0  0  0  0  0  0  0  0  0  0  0  0
   -5.2484   -2.7018    0.3596 C   0  0  0  0  0  0  0  0  0  0  0  0
    2.8375    2.0671    2.9407 H   0  0  0  0  0  0  0  0  0  0  0  0
   -0.7332    0.3586    1.4371 H   0  0  0  0  0  0  0  0  0  0  0  0
    0.3640    1.7728    3.1291 H   0  0  0  0  0  0  0  0  0  0  0  0
    1.1823    0.2223    2.9382 H   0  0  0  0  0  0  0  0  0  0  0  0
    3.9745    1.5840    0.8031 H   0  0  0  0  0  0  0  0  0  0  0  0
    3.3966    0.1187    1.6211 H   0  0  0  0  0  0  0  0  0  0  0  0
    1.1766   -0.9495    0.7334 H   0  0  0  0  0  0  0  0  0  0  0  0
    0.4436   -0.2118   -0.7023 H   0  0  0  0  0  0  0  0  0  0  0  0
    1.6456    3.9396    2.2445 H   0  0  0  0  0  0  0  0  0  0  0  0
    2.7331    3.6633    0.8999 H   0  0  0  0  0  0  0  0  0  0  0  0
   -2.5057    3.6990   -1.5584 H   0  0  0  0  0  0  0  0  0  0  0  0
   -0.9371    5.5614   -1.4427 H   0  0  0  0  0  0  0  0  0  0  0  0
    1.6093   -2.4932   -1.5554 H   0  0  0  0  0  0  0  0  0  0  0  0
    5.2890   -1.1663    0.2745 H   0  0  0  0  0  0  0  0  0  0  0  0
   -1.4160    0.3977   -2.1575 H   0  0  0  0  0  0  0  0  0  0  0  0
   -3.4764    1.8971    1.3243 H   0  0  0  0  0  0  0  0  0  0  0  0
   -3.0639   -1.4212   -2.3435 H   0  0  0  0  0  0  0  0  0  0  0  0
   -5.1248    0.0875    1.1260 H   0  0  0  0  0  0  0  0  0  0  0  0
    1.9555   -4.7350   -0.6000 H   0  0  0  0  0  0  0  0  0  0  0  0
    5.6171   -3.4157    1.2197 H   0  0  0  0  0  0  0  0  0  0  0  0
  1  6  2  0  0  0  0
  1  7  2  0  0  0  0
  1 10  1  0  0  0  0
  1 23  1  0  0  0  0
  2 34  1  0  0  0  0
  3 35  1  0  0  0  0
  4 35  1  0  0  0  0
  5 35  1  0  0  0  0
  8 20  2  0  0  0  0
  9 33  1  0  0  0  0
  9 35  1  0  0  0  0
 10 15  1  0  0  0  0
 10 16  1  0  0  0  0
 11 17  1  0  0  0  0
 11 18  1  0  0  0  0
 11 20  1  0  0  0  0
 12 14  1  0  0  0  0
 12 15  1  0  0  0  0
 12 17  1  0  0  0  0
 12 36  1  0  0  0  0
 13 14  1  0  0  0  0
 13 16  1  0  0  0  0
 13 18  1  0  0  0  0
 13 37  1  0  0  0  0
 14 38  1  0  0  0  0
 14 39  1  0  0  0  0
 15 40  1  0  0  0  0
 15 41  1  0  0  0  0
 16 42  1  0  0  0  0
 16 43  1  0  0  0  0
 17 44  1  0  0  0  0
 17 45  1  0  0  0  0
 18 19  2  0  0  0  0
 19 21  1  0  0  0  0
 19 24  1  0  0  0  0
 20 22  1  0  0  0  0
 21 22  2  0  0  0  0
 21 46  1  0  0  0  0
 22 47  1  0  0  0  0
 23 25  2  0  0  0  0
 23 26  1  0  0  0  0
 24 27  2  0  0  0  0
 24 28  1  0  0  0  0
 25 31  1  0  0  0  0
 25 48  1  0  0  0  0
 26 32  2  0  0  0  0
 26 49  1  0  0  0  0
 27 29  1  0  0  0  0
 27 50  1  0  0  0  0
 28 30  2  0  0  0  0
 28 51  1  0  0  0  0
 29 33  2  0  0  0  0
 29 52  1  0  0  0  0
 30 33  1  0  0  0  0
 30 53  1  0  0  0  0
 31 34  2  0  0  0  0
 31 54  1  0  0  0  0
 32 34  1  0  0  0  0
 32 55  1  0  0  0  0
M  END
> <PUBCHEM_COMPOUND_CID>
7144209

> <PUBCHEM_CONFORMER_RMSD>
0.8

> <PUBCHEM_CONFORMER_DIVERSEORDER>
1
12
20
10
23
5
19
3
22
2
18
6
11
7
21
13
17
16
9
15
4
14
8

> <PUBCHEM_MMFF94_PARTIAL_CHARGES>
43
1 1.45
10 -0.85
11 -0.47
13 0.14
15 0.36
16 0.36
17 0.3
18 -0.03
19 -0.03
2 -0.19
20 0.62
21 -0.15
22 -0.14
23 -0.01
24 0.03
25 -0.15
26 -0.15
27 -0.15
28 -0.15
29 -0.15
3 -0.34
30 -0.15
31 -0.15
32 -0.15
33 0.08
34 0.19
35 1.3
4 -0.34
46 0.15
47 0.15
48 0.15
49 0.15
5 -0.34
50 0.15
51 0.15
52 0.15
53 0.15
54 0.15
55 0.15
6 -0.65
7 -0.65
8 -0.57
9 -0.36

> <PUBCHEM_EFFECTIVE_ROTOR_COUNT>
6

> <PUBCHEM_PHARMACOPHORE_FEATURES>
9
1 6 acceptor
1 7 acceptor
1 8 acceptor
1 9 acceptor
6 10 12 13 14 15 16 rings
6 11 12 13 14 17 18 rings
6 11 18 19 20 21 22 rings
6 23 25 26 31 32 34 rings
6 24 27 28 29 30 33 rings

> <PUBCHEM_HEAVY_ATOM_COUNT>
35

> <PUBCHEM_ATOM_DEF_STEREO_COUNT>
2

> <PUBCHEM_ATOM_UDEF_STEREO_COUNT>
0

> <PUBCHEM_BOND_DEF_STEREO_COUNT>
0

> <PUBCHEM_BOND_UDEF_STEREO_COUNT>
0

> <PUBCHEM_ISOTOPIC_ATOM_COUNT>
0

> <PUBCHEM_COMPONENT_COUNT>
1

> <PUBCHEM_CACTVS_TAUTO_COUNT>
1

> <PUBCHEM_CONFORMER_ID>
006D031100000001

> <PUBCHEM_MMFF94_ENERGY>
92.2272

> <PUBCHEM_FEATURE_SELFOVERLAP>
47.275

> <PUBCHEM_SHAPE_FINGERPRINT>
10928967 22 18343865528258226655
11285246 1 17825119111985566010
11421498 54 18408895035845043324
12156800 1 13955016174259263980
12293681 25 18121748747856690493
12633046 712 18335696123041429415
12712778 12 17619049648030523050
12969540 37 18337673138999925485
13583140 156 17483367770380257816
13692114 37 16900734814595554441
13911987 19 17900290738319016108
14659021 117 18048867512124333226
14863182 85 17978790443386844101
15968369 26 18190158256559707895
17909252 39 18410571773544682882
18603816 31 17034163286827308482
19301679 30 18126009502244881499
19302320 297 14444332521580851226
19315092 285 17273392054548981431
19319366 153 17696185186192197789
20511986 3 17179118514850157810
20764821 26 17908412911563336702
20775530 9 18273213084157097087
21133410 38 17332547060288257843
21315759 227 18264762173668105934
23559900 14 18338229471046709181
4394409 98 16746184689577554535
463206 1 18196093231195290914
49967989 163 17764595322483993070
50080093 196 17334478897242648655
5309563 4 18411983585013096159
70251023 43 18335424616658036089
7970288 3 18408885144277221971
9831232 110 18191865842012498071
9961470 85 16754081343387122243

> <PUBCHEM_SHAPE_MULTIPOLES>
661.6
10.74
7.41
1.69
3.44
0.88
-0.07
-17.91
-0.19
1.1
-0.86
-0.66
0.53
1.09

> <PUBCHEM_SHAPE_SELFOVERLAP>
1446.921

> <PUBCHEM_SHAPE_VOLUME>
361.2

> <PUBCHEM_COORDINATE_TYPE>
2
5
10

$$$$
