40777224
  -OEChem-12032416173D

 68 73  0     1  0  0  0  0  0999 V2000
    5.1647    2.1484    0.1963 O   0  0  0  0  0  0  0  0  0  0  0  0
    5.2041   -3.7629    0.8770 O   0  0  0  0  0  0  0  0  0  0  0  0
    6.9491   -3.8173   -0.7843 O   0  0  0  0  0  0  0  0  0  0  0  0
    0.9743    3.9218    0.1774 N   0  0  2  0  0  0  0  0  0  0  0  0
   -2.7750    0.8891    0.5500 N   0  0  0  0  0  0  0  0  0  0  0  0
    3.2654    0.9869    0.8342 N   0  0  0  0  0  0  0  0  0  0  0  0
   -5.1768   -0.6230    0.2271 N   0  0  0  0  0  0  0  0  0  0  0  0
   -0.6066    2.1923   -0.9523 C   0  0  2  0  0  0  0  0  0  0  0  0
   -1.2536    2.7812    0.3221 C   0  0  2  0  0  0  0  0  0  0  0  0
    1.7006    2.6444   -0.0563 C   0  0  2  0  0  0  0  0  0  0  0  0
    0.7459    1.5525   -0.5883 C   0  0  0  0  0  0  0  0  0  0  0  0
   -0.2188    3.6873    1.0263 C   0  0  0  0  0  0  0  0  0  0  0  0
   -0.3126    3.3764   -1.8931 C   0  0  0  0  0  0  0  0  0  0  0  0
    0.5135    4.4320   -1.1368 C   0  0  0  0  0  0  0  0  0  0  0  0
   -1.8034    1.7148    1.2664 C   0  0  0  0  0  0  0  0  0  0  0  0
    2.4680    2.1743    1.1817 C   0  0  0  0  0  0  0  0  0  0  0  0
   -4.0758    1.5657    0.4829 C   0  0  0  0  0  0  0  0  0  0  0  0
   -2.9241   -0.4161    1.2056 C   0  0  0  0  0  0  0  0  0  0  0  0
   -5.0870    0.7369   -0.3134 C   0  0  0  0  0  0  0  0  0  0  0  0
   -3.8959   -1.3109    0.4327 C   0  0  0  0  0  0  0  0  0  0  0  0
    4.5514    1.0985    0.3702 C   0  0  0  0  0  0  0  0  0  0  0  0
   -6.3064   -1.4036   -0.0422 C   0  0  0  0  0  0  0  0  0  0  0  0
    5.2110   -0.1907    0.0390 C   0  0  0  0  0  0  0  0  0  0  0  0
   -7.0109   -1.2240   -1.2326 C   0  0  0  0  0  0  0  0  0  0  0  0
   -6.7260   -2.3639    0.8783 C   0  0  0  0  0  0  0  0  0  0  0  0
    4.8136   -1.3603    0.6914 C   0  0  0  0  0  0  0  0  0  0  0  0
    6.2292   -0.2225   -0.9301 C   0  0  0  0  0  0  0  0  0  0  0  0
   -8.1350   -2.0046   -1.5025 C   0  0  0  0  0  0  0  0  0  0  0  0
   -7.8500   -3.1446    0.6084 C   0  0  0  0  0  0  0  0  0  0  0  0
   -8.5545   -2.9648   -0.5819 C   0  0  0  0  0  0  0  0  0  0  0  0
    5.4544   -2.5335    0.3498 C   0  0  0  0  0  0  0  0  0  0  0  0
    6.8617   -1.4240   -1.2578 C   0  0  0  0  0  0  0  0  0  0  0  0
    6.4510   -2.5645   -0.5989 C   0  0  0  0  0  0  0  0  0  0  0  0
    6.1545   -4.5714    0.1535 C   0  0  0  0  0  0  0  0  0  0  0  0
   -1.2525    1.4707   -1.4620 H   0  0  0  0  0  0  0  0  0  0  0  0
   -2.0769    3.4359    0.0069 H   0  0  0  0  0  0  0  0  0  0  0  0
    2.4557    2.8357   -0.8331 H   0  0  0  0  0  0  0  0  0  0  0  0
    0.5964    0.7432    0.1337 H   0  0  0  0  0  0  0  0  0  0  0  0
    1.1847    1.0944   -1.4839 H   0  0  0  0  0  0  0  0  0  0  0  0
   -0.6848    4.6536    1.2608 H   0  0  0  0  0  0  0  0  0  0  0  0
    0.0818    3.2820    1.9990 H   0  0  0  0  0  0  0  0  0  0  0  0
   -1.2484    3.8216   -2.2507 H   0  0  0  0  0  0  0  0  0  0  0  0
    0.2388    3.0269   -2.7744 H   0  0  0  0  0  0  0  0  0  0  0  0
    1.3756    4.7358   -1.7433 H   0  0  0  0  0  0  0  0  0  0  0  0
   -0.0792    5.3445   -0.9934 H   0  0  0  0  0  0  0  0  0  0  0  0
   -2.2459    2.1768    2.1590 H   0  0  0  0  0  0  0  0  0  0  0  0
   -0.9717    1.0999    1.6310 H   0  0  0  0  0  0  0  0  0  0  0  0
    1.8038    1.8732    1.9974 H   0  0  0  0  0  0  0  0  0  0  0  0
    3.1387    2.9592    1.5488 H   0  0  0  0  0  0  0  0  0  0  0  0
   -3.9962    2.5394   -0.0111 H   0  0  0  0  0  0  0  0  0  0  0  0
   -4.4712    1.7460    1.4920 H   0  0  0  0  0  0  0  0  0  0  0  0
   -3.2770   -0.2927    2.2384 H   0  0  0  0  0  0  0  0  0  0  0  0
   -1.9556   -0.9291    1.2490 H   0  0  0  0  0  0  0  0  0  0  0  0
    2.7937    0.0911    0.8900 H   0  0  0  0  0  0  0  0  0  0  0  0
   -6.0594    1.2419   -0.2565 H   0  0  0  0  0  0  0  0  0  0  0  0
   -4.7829    0.7012   -1.3674 H   0  0  0  0  0  0  0  0  0  0  0  0
   -3.4692   -1.5762   -0.5433 H   0  0  0  0  0  0  0  0  0  0  0  0
   -4.0197   -2.2436    0.9947 H   0  0  0  0  0  0  0  0  0  0  0  0
   -6.7046   -0.4964   -1.9788 H   0  0  0  0  0  0  0  0  0  0  0  0
   -6.1992   -2.5098    1.8178 H   0  0  0  0  0  0  0  0  0  0  0  0
    4.0571   -1.3823    1.4674 H   0  0  0  0  0  0  0  0  0  0  0  0
    6.5366    0.6858   -1.4429 H   0  0  0  0  0  0  0  0  0  0  0  0
   -8.6820   -1.8674   -2.4307 H   0  0  0  0  0  0  0  0  0  0  0  0
   -8.1786   -3.8904    1.3264 H   0  0  0  0  0  0  0  0  0  0  0  0
   -9.4297   -3.5727   -0.7919 H   0  0  0  0  0  0  0  0  0  0  0  0
    7.6465   -1.4531   -2.0051 H   0  0  0  0  0  0  0  0  0  0  0  0
    5.6090   -5.3487   -0.3939 H   0  0  0  0  0  0  0  0  0  0  0  0
    6.8253   -5.0534    0.8740 H   0  0  0  0  0  0  0  0  0  0  0  0
  1 21  2  0  0  0  0
  2 31  1  0  0  0  0
  2 34  1  0  0  0  0
  3 33  1  0  0  0  0
  3 34  1  0  0  0  0
  4 10  1  0  0  0  0
  4 12  1  0  0  0  0
  4 14  1  0  0  0  0
  5 15  1  0  0  0  0
  5 17  1  0  0  0  0
  5 18  1  0  0  0  0
  6 16  1  0  0  0  0
  6 21  1  0  0  0  0
  6 54  1  0  0  0  0
  7 19  1  0  0  0  0
  7 20  1  0  0  0  0
  7 22  1  0  0  0  0
  8  9  1  0  0  0  0
  8 11  1  0  0  0  0
  8 13  1  0  0  0  0
  8 35  1  0  0  0  0
  9 12  1  0  0  0  0
  9 15  1  0  0  0  0
  9 36  1  0  0  0  0
 10 11  1  0  0  0  0
 10 16  1  0  0  0  0
 10 37  1  0  0  0  0
 11 38  1  0  0  0  0
 11 39  1  0  0  0  0
 12 40  1  0  0  0  0
 12 41  1  0  0  0  0
 13 14  1  0  0  0  0
 13 42  1  0  0  0  0
 13 43  1  0  0  0  0
 14 44  1  0  0  0  0
 14 45  1  0  0  0  0
 15 46  1  0  0  0  0
 15 47  1  0  0  0  0
 16 48  1  0  0  0  0
 16 49  1  0  0  0  0
 17 19  1  0  0  0  0
 17 50  1  0  0  0  0
 17 51  1  0  0  0  0
 18 20  1  0  0  0  0
 18 52  1  0  0  0  0
 18 53  1  0  0  0  0
 19 55  1  0  0  0  0
 19 56  1  0  0  0  0
 20 57  1  0  0  0  0
 20 58  1  0  0  0  0
 21 23  1  0  0  0  0
 22 24  2  0  0  0  0
 22 25  1  0  0  0  0
 23 26  2  0  0  0  0
 23 27  1  0  0  0  0
 24 28  1  0  0  0  0
 24 59  1  0  0  0  0
 25 29  2  0  0  0  0
 25 60  1  0  0  0  0
 26 31  1  0  0  0  0
 26 61  1  0  0  0  0
 27 32  2  0  0  0  0
 27 62  1  0  0  0  0
 28 30  2  0  0  0  0
 28 63  1  0  0  0  0
 29 30  1  0  0  0  0
 29 64  1  0  0  0  0
 30 65  1  0  0  0  0
 31 33  2  0  0  0  0
 32 33  1  0  0  0  0
 32 66  1  0  0  0  0
 34 67  1  0  0  0  0
 34 68  1  0  0  0  0
M  END
> <PUBCHEM_COMPOUND_CID>
40777224

> <PUBCHEM_CONFORMER_RMSD>
1

> <PUBCHEM_CONFORMER_DIVERSEORDER>
1
216
248
198
72
226
179
99
122
211
88
252
83
220
245
210
167
261
159
264
70
195
139
227
208
233
199
97
109
64
100
253
178
262
197
196
173
165
186
67
111
106
152
59
48
115
215
85
45
60
258
212
16
205
243
194
74
96
66
166
17
81
250
209
61
93
254
257
229
164
204
177
170
200
130
263
94
230
259
79
98
184
105
50
144
236
54
123
91
44
35
21
260
24
225
101
43
218
57
207
132
241
142
193
29
116
37
78
240
49
162
188
206
181
7
202
30
129
161
174
131
160
203
136
246
234
39
256
34
124
221
22
26
90
239
92
153
138
40
80
213
223
108
46
71
104
41
187
134
237
103
242
145
56
69
18
28
31
185
143
214
87
15
125
73
168
3
25
175
251
114
19
147
120
169
65
244
6
10
249
53
192
110
68
42
52
133
76
180
163
47
13
5
141
238
135
75
89
113
86
176
158
63
235
62
8
190
183
217
171
247
154
95
112
222
77
119
232
191
55
146
2
182
155
224
58
102
118
14
32
219
107
84
128
121
117
151
172
231
27
228
51
82
20
137
201
33
157
150
4
149
11
189
12
9
127
126
36
148
156
140
255
23
38

> <PUBCHEM_MMFF94_PARTIAL_CHARGES>
39
1 -0.57
10 0.27
12 0.27
14 0.27
15 0.27
16 0.3
17 0.27
18 0.27
19 0.37
2 -0.36
20 0.37
21 0.54
22 0.1
23 0.09
24 -0.15
25 -0.15
26 -0.15
27 -0.15
28 -0.15
29 -0.15
3 -0.36
30 -0.15
31 0.08
32 -0.15
33 0.08
34 0.56
4 -0.81
5 -0.81
54 0.37
59 0.15
6 -0.73
60 0.15
61 0.15
62 0.15
63 0.15
64 0.15
65 0.15
66 0.15
7 -0.84

> <PUBCHEM_EFFECTIVE_ROTOR_COUNT>
10

> <PUBCHEM_PHARMACOPHORE_FEATURES>
12
1 1 acceptor
1 2 acceptor
1 3 acceptor
1 4 cation
1 5 cation
1 6 donor
1 7 cation
5 2 3 31 33 34 rings
6 22 24 25 28 29 30 rings
6 23 26 27 31 32 33 rings
6 5 7 17 18 19 20 rings
8 4 8 9 10 11 12 13 14 rings

> <PUBCHEM_HEAVY_ATOM_COUNT>
34

> <PUBCHEM_ATOM_DEF_STEREO_COUNT>
3

> <PUBCHEM_ATOM_UDEF_STEREO_COUNT>
0

> <PUBCHEM_BOND_DEF_STEREO_COUNT>
0

> <PUBCHEM_BOND_UDEF_STEREO_COUNT>
0

> <PUBCHEM_ISOTOPIC_ATOM_COUNT>
0

> <PUBCHEM_COMPONENT_COUNT>
1

> <PUBCHEM_CACTVS_TAUTO_COUNT>
2

> <PUBCHEM_CONFORMER_ID>
026E360800000001

> <PUBCHEM_MMFF94_ENERGY>
104.2756

> <PUBCHEM_FEATURE_SELFOVERLAP>
61.055

> <PUBCHEM_SHAPE_FINGERPRINT>
10258705 36 17972606756603594355
10673678 19 8286211560411648473
10693767 8 18410568517901027547
10838868 160 8358248221137295375
11409948 41 18197483220937505711
11478447 147 15214156347543860654
11497681 19 18410297978591547516
117089 54 18411141303366739506
11761917 116 18340213978003566686
12013929 112 17823118100793808463
12120059 9 18265873835430872744
12124843 1 18040721316579500726
12623949 98 18201728344905751372
13248334 5 18124034799750432385
13553644 42 18114731673760690139
1361 4 18267308621856207046
13782708 43 18201433645239393840
13911852 28 18411417306333458576
13947947 140 18202008681394465675
14068700 675 18273218590658871209
14251764 75 9079114462060267193
14347332 77 18190460459676466552
14565420 104 10591774181301764197
14664723 55 11819264530270617815
14931854 50 17822007610280206955
15150948 74 18410574024724483774
15152005 1 18341613676836888062
15475509 35 18130783512222067240
15950262 2 10809349931430254992
16067689 391 18269253761099858949
16126227 98 8502362344040026109
16728300 4 18201718444900515637
16991971 28 18411984671845816679
16993427 108 18272931626755900511
16994733 274 11241970403988324285
19315092 285 18060422408695920240
19841028 212 18410852148840512226
2026 5 18268708480716362815
20691028 202 8718538402855225526
208703 8 18411130308097513578
21130935 74 18271526511457922009
21307412 95 18191578662680713909
22002106 203 18339917131212608250
23569943 247 18267024955628771507
2748736 6 8790595979692107530
2835820 82 18411701023784257763
3504750 166 18130788984859149681
393628 194 9294989259327737562
4046055 25 18187368692492317204
406291 66 18272651255623267023
474113 269 18202274837003092655
54076057 255 13118265011209040381
5718773 13 18412825789629394791
6201320 221 18271792546001168039
6201460 15 17975691689266330442
7970288 3 18410575097801188554
9555976 147 17488757674742371665
9831232 110 18190178086830025255

> <PUBCHEM_SHAPE_MULTIPOLES>
662.17
25.16
6.41
1.31
20.43
0.13
-0.26
40.63
-5.04
-5.91
-0.52
0.5
-0.38
0.03

> <PUBCHEM_SHAPE_SELFOVERLAP>
1439.468

> <PUBCHEM_SHAPE_VOLUME>
356.8

> <PUBCHEM_COORDINATE_TYPE>
2
5
10

$$$$
