51136636
  -OEChem-12032416143D

 65 68  0     1  0  0  0  0  0999 V2000
   -0.6496    1.5727   -1.2105 S   0  0  0  0  0  0  0  0  0  0  0  0
   -0.4124    1.7253   -2.6295 O   0  0  0  0  0  0  0  0  0  0  0  0
    0.2575    2.1404   -0.2367 O   0  0  0  0  0  0  0  0  0  0  0  0
   -2.7748   -6.2888   -0.1608 O   0  0  0  0  0  0  0  0  0  0  0  0
   -3.9915   -4.4308   -0.6595 O   0  0  0  0  0  0  0  0  0  0  0  0
    4.3810   -0.0994   -2.3105 O   0  0  0  0  0  0  0  0  0  0  0  0
    5.4550    1.9154   -0.7318 O   0  0  0  0  0  0  0  0  0  0  0  0
   -0.8742   -0.0892   -0.8576 N   0  0  1  0  0  0  0  0  0  0  0  0
    1.3988   -1.6269    2.7311 N   0  0  0  0  0  0  0  0  0  0  0  0
   -4.4665    3.9211    3.0767 N   0  0  0  0  0  0  0  0  0  0  0  0
   -0.7995   -1.9342    0.8053 C   0  0  2  0  0  0  0  0  0  0  0  0
   -1.8221   -2.7190   -0.0519 C   0  0  1  0  0  0  0  0  0  0  0  0
   -0.9899   -0.4238    0.5930 C   0  0  0  0  0  0  0  0  0  0  0  0
   -1.7639   -2.2912   -1.5263 C   0  0  0  0  0  0  0  0  0  0  0  0
   -1.9109   -0.7803   -1.6758 C   0  0  0  0  0  0  0  0  0  0  0  0
    0.6609   -2.3329    0.5572 C   0  0  0  0  0  0  0  0  0  0  0  0
   -1.6759   -4.2351    0.0758 C   0  0  0  0  0  0  0  0  0  0  0  0
    1.5710   -1.5287    1.4541 C   0  0  0  0  0  0  0  0  0  0  0  0
   -2.9472   -4.9484   -0.2930 C   0  0  0  0  0  0  0  0  0  0  0  0
    2.6071   -0.6650    0.8324 C   0  0  0  0  0  0  0  0  0  0  0  0
   -2.2696    2.1821   -0.8642 C   0  0  0  0  0  0  0  0  0  0  0  0
    3.1590    0.3385    1.6388 C   0  0  0  0  0  0  0  0  0  0  0  0
    2.6661    0.4827    3.0480 C   0  0  0  0  0  0  0  0  0  0  0  0
    2.3217   -0.8930    3.6035 C   0  0  0  0  0  0  0  0  0  0  0  0
    3.0188   -0.8146   -0.4933 C   0  0  0  0  0  0  0  0  0  0  0  0
   -2.5904    2.6224    0.4200 C   0  0  0  0  0  0  0  0  0  0  0  0
   -3.2299    2.2221   -1.8753 C   0  0  0  0  0  0  0  0  0  0  0  0
    4.1096    1.2107    1.1013 C   0  0  0  0  0  0  0  0  0  0  0  0
    3.9801    0.0512   -1.0165 C   0  0  0  0  0  0  0  0  0  0  0  0
    4.5220    1.0627   -0.2231 C   0  0  0  0  0  0  0  0  0  0  0  0
   -3.8712    3.1026    0.6931 C   0  0  0  0  0  0  0  0  0  0  0  0
   -4.5106    2.7028   -1.6022 C   0  0  0  0  0  0  0  0  0  0  0  0
   -4.8313    3.1428   -0.3180 C   0  0  0  0  0  0  0  0  0  0  0  0
   -4.1997    3.5543    2.0084 C   0  0  0  0  0  0  0  0  0  0  0  0
    3.6501    0.6187   -3.3023 C   0  0  0  0  0  0  0  0  0  0  0  0
    6.8226    1.5326   -0.6000 C   0  0  0  0  0  0  0  0  0  0  0  0
   -1.0342   -2.1432    1.8586 H   0  0  0  0  0  0  0  0  0  0  0  0
   -2.8151   -2.4352    0.3274 H   0  0  0  0  0  0  0  0  0  0  0  0
   -1.9917   -0.1480    0.9448 H   0  0  0  0  0  0  0  0  0  0  0  0
   -0.2804    0.1554    1.1882 H   0  0  0  0  0  0  0  0  0  0  0  0
   -2.5579   -2.7782   -2.1034 H   0  0  0  0  0  0  0  0  0  0  0  0
   -0.8151   -2.6093   -1.9756 H   0  0  0  0  0  0  0  0  0  0  0  0
   -1.7929   -0.5230   -2.7333 H   0  0  0  0  0  0  0  0  0  0  0  0
   -2.9151   -0.4896   -1.3510 H   0  0  0  0  0  0  0  0  0  0  0  0
    0.8168   -3.3880    0.8120 H   0  0  0  0  0  0  0  0  0  0  0  0
    0.8913   -2.2312   -0.5004 H   0  0  0  0  0  0  0  0  0  0  0  0
   -1.4569   -4.4968    1.1180 H   0  0  0  0  0  0  0  0  0  0  0  0
   -0.8653   -4.6072   -0.5606 H   0  0  0  0  0  0  0  0  0  0  0  0
    1.7798    1.1285    3.0462 H   0  0  0  0  0  0  0  0  0  0  0  0
    3.4270    0.9506    3.6825 H   0  0  0  0  0  0  0  0  0  0  0  0
    1.8537   -0.7756    4.5870 H   0  0  0  0  0  0  0  0  0  0  0  0
    3.2274   -1.4947    3.7504 H   0  0  0  0  0  0  0  0  0  0  0  0
    2.6467   -1.6023   -1.1379 H   0  0  0  0  0  0  0  0  0  0  0  0
   -1.8480    2.5908    1.2142 H   0  0  0  0  0  0  0  0  0  0  0  0
   -3.0039    1.8836   -2.8824 H   0  0  0  0  0  0  0  0  0  0  0  0
    4.5292    2.0048    1.7137 H   0  0  0  0  0  0  0  0  0  0  0  0
   -3.5872   -6.7866   -0.3944 H   0  0  0  0  0  0  0  0  0  0  0  0
   -5.2583    2.7336   -2.3893 H   0  0  0  0  0  0  0  0  0  0  0  0
   -5.8341    3.5144   -0.1208 H   0  0  0  0  0  0  0  0  0  0  0  0
    2.6017    0.3032   -3.3095 H   0  0  0  0  0  0  0  0  0  0  0  0
    3.7161    1.6968   -3.1246 H   0  0  0  0  0  0  0  0  0  0  0  0
    4.0889    0.3975   -4.2789 H   0  0  0  0  0  0  0  0  0  0  0  0
    7.0961    1.4452    0.4563 H   0  0  0  0  0  0  0  0  0  0  0  0
    7.0094    0.5858   -1.1164 H   0  0  0  0  0  0  0  0  0  0  0  0
    7.4413    2.3089   -1.0584 H   0  0  0  0  0  0  0  0  0  0  0  0
  1  2  2  0  0  0  0
  1  3  2  0  0  0  0
  1  8  1  0  0  0  0
  1 21  1  0  0  0  0
  4 19  1  0  0  0  0
  4 57  1  0  0  0  0
  5 19  2  0  0  0  0
  6 29  1  0  0  0  0
  6 35  1  0  0  0  0
  7 30  1  0  0  0  0
  7 36  1  0  0  0  0
  8 13  1  0  0  0  0
  8 15  1  0  0  0  0
  9 18  2  0  0  0  0
  9 24  1  0  0  0  0
 10 34  3  0  0  0  0
 11 12  1  0  0  0  0
 11 13  1  0  0  0  0
 11 16  1  0  0  0  0
 11 37  1  0  0  0  0
 12 14  1  0  0  0  0
 12 17  1  0  0  0  0
 12 38  1  0  0  0  0
 13 39  1  0  0  0  0
 13 40  1  0  0  0  0
 14 15  1  0  0  0  0
 14 41  1  0  0  0  0
 14 42  1  0  0  0  0
 15 43  1  0  0  0  0
 15 44  1  0  0  0  0
 16 18  1  0  0  0  0
 16 45  1  0  0  0  0
 16 46  1  0  0  0  0
 17 19  1  0  0  0  0
 17 47  1  0  0  0  0
 17 48  1  0  0  0  0
 18 20  1  0  0  0  0
 20 22  1  0  0  0  0
 20 25  2  0  0  0  0
 21 26  1  0  0  0  0
 21 27  2  0  0  0  0
 22 23  1  0  0  0  0
 22 28  2  0  0  0  0
 23 24  1  0  0  0  0
 23 49  1  0  0  0  0
 23 50  1  0  0  0  0
 24 51  1  0  0  0  0
 24 52  1  0  0  0  0
 25 29  1  0  0  0  0
 25 53  1  0  0  0  0
 26 31  2  0  0  0  0
 26 54  1  0  0  0  0
 27 32  1  0  0  0  0
 27 55  1  0  0  0  0
 28 30  1  0  0  0  0
 28 56  1  0  0  0  0
 29 30  2  0  0  0  0
 31 33  1  0  0  0  0
 31 34  1  0  0  0  0
 32 33  2  0  0  0  0
 32 58  1  0  0  0  0
 33 59  1  0  0  0  0
 35 60  1  0  0  0  0
 35 61  1  0  0  0  0
 35 62  1  0  0  0  0
 36 63  1  0  0  0  0
 36 64  1  0  0  0  0
 36 65  1  0  0  0  0
M  END
> <PUBCHEM_COMPOUND_CID>
51136636

> <PUBCHEM_CONFORMER_RMSD>
1

> <PUBCHEM_CONFORMER_DIVERSEORDER>
1
64
207
106
60
13
175
202
164
52
117
199
71
180
203
163
109
56
111
68
103
154
43
158
119
75
57
74
191
69
152
135
122
185
65
39
80
54
87
11
201
107
141
77
28
55
165
23
189
136
171
195
155
51
66
90
167
53
36
145
95
127
8
30
97
72
159
44
67
19
123
147
70
108
126
125
150
129
151
186
204
33
143
193
89
93
192
178
130
179
32
184
6
161
18
84
149
114
59
118
183
173
131
96
160
156
187
99
188
83
38
37
205
198
92
139
63
31
101
137
170
24
196
49
168
85
197
194
181
120
148
133
5
9
162
190
4
50
76
121
10
206
115
174
105
172
26
140
34
166
100
47
81
134
45
79
17
25
102
110
48
82
40
88
86
112
94
177
29
27
144
116
146
42
157
91
62
2
61
46
113
73
12
22
169
104
128
3
16
200
58
124
176
35
14
182
20
78
142
41
98
15
153
138
21
7
132

> <PUBCHEM_MMFF94_PARTIAL_CHARGES>
40
1 1.45
10 -0.56
13 0.36
15 0.36
16 0.06
17 0.06
18 0.3
19 0.66
2 -0.65
20 0.09
21 -0.01
22 -0.14
23 0.14
24 0.25
25 -0.15
26 -0.15
27 -0.15
28 -0.15
29 0.08
3 -0.65
30 0.08
31 0.07
32 -0.15
33 -0.15
34 0.48
35 0.28
36 0.28
4 -0.65
5 -0.57
53 0.15
54 0.15
55 0.15
56 0.15
57 0.5
58 0.15
59 0.15
6 -0.36
7 -0.36
8 -0.85
9 -0.7

> <PUBCHEM_EFFECTIVE_ROTOR_COUNT>
9.6

> <PUBCHEM_PHARMACOPHORE_FEATURES>
13
1 10 acceptor
1 2 acceptor
1 3 acceptor
1 4 acceptor
1 5 acceptor
1 6 acceptor
1 7 acceptor
1 9 acceptor
3 4 5 19 anion
6 20 22 25 28 29 30 rings
6 21 26 27 31 32 33 rings
6 8 11 12 13 14 15 rings
6 9 18 20 22 23 24 rings

> <PUBCHEM_HEAVY_ATOM_COUNT>
36

> <PUBCHEM_ATOM_DEF_STEREO_COUNT>
2

> <PUBCHEM_ATOM_UDEF_STEREO_COUNT>
0

> <PUBCHEM_BOND_DEF_STEREO_COUNT>
0

> <PUBCHEM_BOND_UDEF_STEREO_COUNT>
0

> <PUBCHEM_ISOTOPIC_ATOM_COUNT>
0

> <PUBCHEM_COMPONENT_COUNT>
1

> <PUBCHEM_CACTVS_TAUTO_COUNT>
1

> <PUBCHEM_CONFORMER_ID>
030C487C00000001

> <PUBCHEM_MMFF94_ENERGY>
99.4469

> <PUBCHEM_FEATURE_SELFOVERLAP>
66.083

> <PUBCHEM_SHAPE_FINGERPRINT>
10010297 198 17676773059069240075
11049842 53 18196353850228043794
11115154 58 18051686948434612559
12156800 1 14715167103271675238
12160290 23 18125407961213513127
12788726 201 18189040066346612603
13540713 5 17896014647324861850
13583140 156 15430872094953915916
14068700 675 17827348101338367798
14251757 17 14547864241226252697
14468879 13 16843287260110359100
15200665 1 18337659824786158035
15448158 71 17386006127115068268
19311894 1 18408322203277725772
21033650 10 17988061362117219391
21315764 21 14404318595704388113
244849 19 17632001049171149202
25222932 49 16662648409474610177
469060 322 16588308318963938325
5252454 2 18260818272930662768
57527585 21 17484489550913258512

> <PUBCHEM_SHAPE_MULTIPOLES>
694.55
10.86
6.45
3.09
7.14
10.51
-1.32
-11.38
1.17
-12.27
-0.3
1.58
-1.62
-2.95

> <PUBCHEM_SHAPE_SELFOVERLAP>
1471.69

> <PUBCHEM_SHAPE_VOLUME>
389

> <PUBCHEM_COORDINATE_TYPE>
2
5
10

$$$$
