45783396
  -OEChem-12032416273D

 49 51  0     1  0  0  0  0  0999 V2000
    0.4638    2.7540    0.2866 O   0  0  0  0  0  0  0  0  0  0  0  0
    0.3644   -3.1803   -0.6521 O   0  0  0  0  0  0  0  0  0  0  0  0
    2.9542    0.2817    0.1006 N   0  0  1  0  0  0  0  0  0  0  0  0
   -0.1037    0.7239   -0.4705 N   0  0  0  0  0  0  0  0  0  0  0  0
   -0.9206    2.6437    0.4680 N   0  0  0  0  0  0  0  0  0  0  0  0
   -1.6380   -1.3744    0.2216 N   0  0  0  0  0  0  0  0  0  0  0  0
   -3.9774   -1.0491    0.0763 N   0  0  0  0  0  0  0  0  0  0  0  0
    2.3434    1.4471   -0.5694 C   0  0  1  0  0  0  0  0  0  0  0  0
    2.6304    1.2320   -2.0670 C   0  0  0  0  0  0  0  0  0  0  0  0
    4.0642   -0.1492   -0.7496 C   0  0  0  0  0  0  0  0  0  0  0  0
    3.4575   -0.0439   -2.1342 C   0  0  0  0  0  0  0  0  0  0  0  0
    3.3852    0.5635    1.4639 C   0  0  0  0  0  0  0  0  0  0  0  0
    0.8649    1.5815   -0.2708 C   0  0  0  0  0  0  0  0  0  0  0  0
    4.4251   -0.4594    1.9122 C   0  0  0  0  0  0  0  0  0  0  0  0
    2.1740    0.5561    2.3911 C   0  0  0  0  0  0  0  0  0  0  0  0
   -1.1798    1.4198   -0.0019 C   0  0  0  0  0  0  0  0  0  0  0  0
   -2.5019    0.8638   -0.0187 C   0  0  0  0  0  0  0  0  0  0  0  0
   -2.7437   -0.4963    0.0891 C   0  0  0  0  0  0  0  0  0  0  0  0
   -3.5967    1.7112   -0.1479 C   0  0  0  0  0  0  0  0  0  0  0  0
   -1.7881   -2.7876    0.3388 C   0  0  0  0  0  0  0  0  0  0  0  0
   -4.8817    1.1800   -0.1651 C   0  0  0  0  0  0  0  0  0  0  0  0
   -5.0169   -0.1943   -0.0508 C   0  0  0  0  0  0  0  0  0  0  0  0
   -0.4270   -3.4432    0.4997 C   0  0  0  0  0  0  0  0  0  0  0  0
    1.6483   -3.7805   -0.5501 C   0  0  0  0  0  0  0  0  0  0  0  0
    2.8479    2.3774   -0.2726 H   0  0  0  0  0  0  0  0  0  0  0  0
    1.7304    1.1454   -2.6852 H   0  0  0  0  0  0  0  0  0  0  0  0
    3.2218    2.0716   -2.4526 H   0  0  0  0  0  0  0  0  0  0  0  0
    4.9289    0.5235   -0.6793 H   0  0  0  0  0  0  0  0  0  0  0  0
    4.3802   -1.1811   -0.5664 H   0  0  0  0  0  0  0  0  0  0  0  0
    4.2145   -0.0049   -2.9231 H   0  0  0  0  0  0  0  0  0  0  0  0
    2.8025   -0.9016   -2.3319 H   0  0  0  0  0  0  0  0  0  0  0  0
    3.8691    1.5472    1.5314 H   0  0  0  0  0  0  0  0  0  0  0  0
    4.0660   -1.4883    1.7917 H   0  0  0  0  0  0  0  0  0  0  0  0
    5.3844   -0.3531    1.3952 H   0  0  0  0  0  0  0  0  0  0  0  0
    4.6466   -0.3260    2.9782 H   0  0  0  0  0  0  0  0  0  0  0  0
    1.5504    1.4439    2.2677 H   0  0  0  0  0  0  0  0  0  0  0  0
    2.4941    0.5553    3.4396 H   0  0  0  0  0  0  0  0  0  0  0  0
    1.5525   -0.3347    2.2425 H   0  0  0  0  0  0  0  0  0  0  0  0
   -3.4812    2.7879   -0.2448 H   0  0  0  0  0  0  0  0  0  0  0  0
   -0.7880   -0.9666    0.5970 H   0  0  0  0  0  0  0  0  0  0  0  0
   -2.4119   -3.0400    1.2038 H   0  0  0  0  0  0  0  0  0  0  0  0
   -2.2718   -3.1813   -0.5631 H   0  0  0  0  0  0  0  0  0  0  0  0
   -5.7499    1.8209   -0.2666 H   0  0  0  0  0  0  0  0  0  0  0  0
   -5.9976   -0.6583   -0.0592 H   0  0  0  0  0  0  0  0  0  0  0  0
    0.0816   -3.0530    1.3898 H   0  0  0  0  0  0  0  0  0  0  0  0
   -0.5555   -4.5257    0.6151 H   0  0  0  0  0  0  0  0  0  0  0  0
    2.1943   -3.3731    0.3065 H   0  0  0  0  0  0  0  0  0  0  0  0
    1.5589   -4.8673   -0.4597 H   0  0  0  0  0  0  0  0  0  0  0  0
    2.2087   -3.5505   -1.4602 H   0  0  0  0  0  0  0  0  0  0  0  0
  1  5  1  0  0  0  0
  1 13  1  0  0  0  0
  2 23  1  0  0  0  0
  2 24  1  0  0  0  0
  3  8  1  0  0  0  0
  3 10  1  0  0  0  0
  3 12  1  0  0  0  0
  4 13  2  0  0  0  0
  4 16  1  0  0  0  0
  5 16  2  0  0  0  0
  6 18  1  0  0  0  0
  6 20  1  0  0  0  0
  6 40  1  0  0  0  0
  7 18  1  0  0  0  0
  7 22  2  0  0  0  0
  8  9  1  0  0  0  0
  8 13  1  0  0  0  0
  8 25  1  0  0  0  0
  9 11  1  0  0  0  0
  9 26  1  0  0  0  0
  9 27  1  0  0  0  0
 10 11  1  0  0  0  0
 10 28  1  0  0  0  0
 10 29  1  0  0  0  0
 11 30  1  0  0  0  0
 11 31  1  0  0  0  0
 12 14  1  0  0  0  0
 12 15  1  0  0  0  0
 12 32  1  0  0  0  0
 14 33  1  0  0  0  0
 14 34  1  0  0  0  0
 14 35  1  0  0  0  0
 15 36  1  0  0  0  0
 15 37  1  0  0  0  0
 15 38  1  0  0  0  0
 16 17  1  0  0  0  0
 17 18  2  0  0  0  0
 17 19  1  0  0  0  0
 19 21  2  0  0  0  0
 19 39  1  0  0  0  0
 20 23  1  0  0  0  0
 20 41  1  0  0  0  0
 20 42  1  0  0  0  0
 21 22  1  0  0  0  0
 21 43  1  0  0  0  0
 22 44  1  0  0  0  0
 23 45  1  0  0  0  0
 23 46  1  0  0  0  0
 24 47  1  0  0  0  0
 24 48  1  0  0  0  0
 24 49  1  0  0  0  0
M  END
> <PUBCHEM_COMPOUND_CID>
45783396

> <PUBCHEM_CONFORMER_RMSD>
0.8

> <PUBCHEM_CONFORMER_DIVERSEORDER>
1
141
163
27
75
130
116
35
160
10
111
99
12
113
134
26
101
93
70
104
140
86
24
88
63
139
67
142
158
6
80
95
148
38
60
112
28
107
118
59
68
40
117
109
51
157
65
156
37
9
84
147
17
74
89
149
91
126
82
131
161
154
19
137
136
105
36
102
83
81
11
14
87
3
124
47
127
77
52
71
48
62
50
143
53
98
45
151
8
92
46
94
32
146
155
159
69
7
162
135
43
122
16
49
100
78
66
34
103
128
64
23
20
132
153
54
58
96
85
145
33
44
150
79
31
144
76
22
97
129
110
121
18
29
55
41
120
25
72
39
57
133
123
21
108
42
119
90
115
73
13
106
56
138
125
114
152
15
2
4
61
30
5

> <PUBCHEM_MMFF94_PARTIAL_CHARGES>
24
1 -0.02
10 0.27
12 0.27
13 0.3
16 0.46
17 0.05
18 0.41
19 -0.15
2 -0.56
20 0.37
21 -0.15
22 0.16
23 0.28
24 0.28
3 -0.81
39 0.15
4 -0.57
40 0.4
43 0.15
44 0.15
5 -0.41
6 -0.87
7 -0.62
8 0.45

> <PUBCHEM_EFFECTIVE_ROTOR_COUNT>
8

> <PUBCHEM_PHARMACOPHORE_FEATURES>
10
1 2 acceptor
1 3 cation
1 6 cation
1 6 donor
1 7 acceptor
3 12 14 15 hydrophobe
3 4 5 16 cation
5 1 4 5 13 16 rings
5 3 8 9 10 11 rings
6 7 17 18 19 21 22 rings

> <PUBCHEM_HEAVY_ATOM_COUNT>
24

> <PUBCHEM_ATOM_DEF_STEREO_COUNT>
1

> <PUBCHEM_ATOM_UDEF_STEREO_COUNT>
0

> <PUBCHEM_BOND_DEF_STEREO_COUNT>
0

> <PUBCHEM_BOND_UDEF_STEREO_COUNT>
0

> <PUBCHEM_ISOTOPIC_ATOM_COUNT>
0

> <PUBCHEM_COMPONENT_COUNT>
1

> <PUBCHEM_CACTVS_TAUTO_COUNT>
8

> <PUBCHEM_CONFORMER_ID>
02BA996400000001

> <PUBCHEM_MMFF94_ENERGY>
54.0897

> <PUBCHEM_FEATURE_SELFOVERLAP>
50.746

> <PUBCHEM_SHAPE_FINGERPRINT>
10366900 7 17489317390574660588
10759866 29 17749962183847373742
12236239 1 17821447950350939492
12553582 1 18410020952552167225
12592029 89 18408610249496045955
12788726 201 18342748407232914216
13140716 1 18196934594446379721
13402501 40 18341895135091989414
13726171 33 17974321946331803692
14178342 30 18196650688186383208
15006816 218 18410856521365223343
15403338 16 16880170249084365891
16752209 62 18408605846769744089
17093844 170 18412266108336197830
17349148 13 18408598163183761701
1813 80 17023733499871562410
18681886 176 18335709373031835660
19591789 44 18265904742733043771
20028762 73 18057323001925298423
20511986 3 17749656506915157420
20600515 1 18341884234080013520
20905425 154 18055642702510762870
21781051 124 18041848432573875027
23184049 29 17977378666118795865
23559900 14 18343310288003054044
23598291 2 17313100822064236516
3004659 81 18186805768376614860
3298306 158 18409728435604643303
338550 245 18334297517806120623
465052 167 17748831834628777697
9709674 26 18125726939839364341

> <PUBCHEM_SHAPE_MULTIPOLES>
457.27
8.79
3.69
1.61
4.54
4.17
0.2
-1.47
0.28
0.43
-0.27
-2.94
-0.28
0.03

> <PUBCHEM_SHAPE_SELFOVERLAP>
957.826

> <PUBCHEM_SHAPE_VOLUME>
261.3

> <PUBCHEM_COORDINATE_TYPE>
2
5
10

$$$$
