56775505
  -OEChem-12032416323D

 44 46  0     0  0  0  0  0  0999 V2000
   -6.4914    2.4612    0.6270 Cl  0  0  0  0  0  0  0  0  0  0  0  0
   -0.3879   -3.9555    1.0598 O   0  0  0  0  0  0  0  0  0  0  0  0
    4.0098   -0.3991    0.1846 O   0  0  0  0  0  0  0  0  0  0  0  0
    3.2376    3.1770   -0.1072 O   0  0  0  0  0  0  0  0  0  0  0  0
   -0.7876   -1.0365    0.3440 N   0  0  0  0  0  0  0  0  0  0  0  0
    3.2206   -1.4874   -0.1672 N   0  0  0  0  0  0  0  0  0  0  0  0
    0.0328   -2.1832   -0.0529 C   0  0  0  0  0  0  0  0  0  0  0  0
    0.5568   -2.8704    1.2029 C   0  0  0  0  0  0  0  0  0  0  0  0
   -0.8666   -3.4066   -0.1891 C   0  0  0  0  0  0  0  0  0  0  0  0
    0.9907   -1.8606   -1.1585 C   0  0  0  0  0  0  0  0  0  0  0  0
    2.0997   -0.9558   -0.6630 C   0  0  0  0  0  0  0  0  0  0  0  0
   -1.4899   -0.5190   -0.8315 C   0  0  0  0  0  0  0  0  0  0  0  0
    2.1242    0.4496   -0.6494 C   0  0  0  0  0  0  0  0  0  0  0  0
    3.3461    0.7487   -0.1073 C   0  0  0  0  0  0  0  0  0  0  0  0
   -2.7325    0.2221   -0.4699 C   0  0  0  0  0  0  0  0  0  0  0  0
    4.0405    2.0040    0.2027 C   0  0  0  0  0  0  0  0  0  0  0  0
    4.3855    2.1504    1.7136 C   0  0  0  0  0  0  0  0  0  0  0  0
    5.3489    2.1939   -0.6188 C   0  0  0  0  0  0  0  0  0  0  0  0
   -3.9467   -0.4578   -0.3740 C   0  0  0  0  0  0  0  0  0  0  0  0
   -2.6809    1.5948   -0.2273 C   0  0  0  0  0  0  0  0  0  0  0  0
   -5.1092    0.2349   -0.0358 C   0  0  0  0  0  0  0  0  0  0  0  0
   -3.8433    2.2875    0.1109 C   0  0  0  0  0  0  0  0  0  0  0  0
   -5.0574    1.6076    0.2066 C   0  0  0  0  0  0  0  0  0  0  0  0
    1.5781   -3.2612    1.1563 H   0  0  0  0  0  0  0  0  0  0  0  0
    0.4260   -2.3483    2.1568 H   0  0  0  0  0  0  0  0  0  0  0  0
   -1.9514   -3.2617   -0.1608 H   0  0  0  0  0  0  0  0  0  0  0  0
   -0.6274   -4.0781   -1.0209 H   0  0  0  0  0  0  0  0  0  0  0  0
    0.5268   -1.4312   -2.0526 H   0  0  0  0  0  0  0  0  0  0  0  0
    1.4623   -2.7870   -1.5177 H   0  0  0  0  0  0  0  0  0  0  0  0
   -0.2814   -0.2804    0.8032 H   0  0  0  0  0  0  0  0  0  0  0  0
   -1.7760   -1.3126   -1.5352 H   0  0  0  0  0  0  0  0  0  0  0  0
   -0.8399    0.1566   -1.4010 H   0  0  0  0  0  0  0  0  0  0  0  0
    1.3696    1.1449   -0.9856 H   0  0  0  0  0  0  0  0  0  0  0  0
    3.4717    2.1149    2.3184 H   0  0  0  0  0  0  0  0  0  0  0  0
    5.0505    1.3485    2.0517 H   0  0  0  0  0  0  0  0  0  0  0  0
    4.8657    3.1134    1.9212 H   0  0  0  0  0  0  0  0  0  0  0  0
    6.0670    1.3919   -0.4172 H   0  0  0  0  0  0  0  0  0  0  0  0
    5.1282    2.1934   -1.6928 H   0  0  0  0  0  0  0  0  0  0  0  0
    5.8252    3.1549   -0.3936 H   0  0  0  0  0  0  0  0  0  0  0  0
   -4.0009   -1.5274   -0.5588 H   0  0  0  0  0  0  0  0  0  0  0  0
   -1.7408    2.1359   -0.2964 H   0  0  0  0  0  0  0  0  0  0  0  0
    3.7548    3.9685    0.1207 H   0  0  0  0  0  0  0  0  0  0  0  0
   -6.0481   -0.3081    0.0359 H   0  0  0  0  0  0  0  0  0  0  0  0
   -3.7879    3.3568    0.2980 H   0  0  0  0  0  0  0  0  0  0  0  0
  1 23  1  0  0  0  0
  2  8  1  0  0  0  0
  2  9  1  0  0  0  0
  3  6  1  0  0  0  0
  3 14  1  0  0  0  0
  4 16  1  0  0  0  0
  4 42  1  0  0  0  0
  5  7  1  0  0  0  0
  5 12  1  0  0  0  0
  5 30  1  0  0  0  0
  6 11  2  0  0  0  0
  7  8  1  0  0  0  0
  7  9  1  0  0  0  0
  7 10  1  0  0  0  0
  8 24  1  0  0  0  0
  8 25  1  0  0  0  0
  9 26  1  0  0  0  0
  9 27  1  0  0  0  0
 10 11  1  0  0  0  0
 10 28  1  0  0  0  0
 10 29  1  0  0  0  0
 11 13  1  0  0  0  0
 12 15  1  0  0  0  0
 12 31  1  0  0  0  0
 12 32  1  0  0  0  0
 13 14  2  0  0  0  0
 13 33  1  0  0  0  0
 14 16  1  0  0  0  0
 15 19  2  0  0  0  0
 15 20  1  0  0  0  0
 16 17  1  0  0  0  0
 16 18  1  0  0  0  0
 17 34  1  0  0  0  0
 17 35  1  0  0  0  0
 17 36  1  0  0  0  0
 18 37  1  0  0  0  0
 18 38  1  0  0  0  0
 18 39  1  0  0  0  0
 19 21  1  0  0  0  0
 19 40  1  0  0  0  0
 20 22  2  0  0  0  0
 20 41  1  0  0  0  0
 21 23  2  0  0  0  0
 21 43  1  0  0  0  0
 22 23  1  0  0  0  0
 22 44  1  0  0  0  0
M  END
> <PUBCHEM_COMPOUND_CID>
56775505

> <PUBCHEM_CONFORMER_RMSD>
0.8

> <PUBCHEM_CONFORMER_DIVERSEORDER>
1
185
126
171
134
129
32
52
136
110
156
102
88
28
47
168
131
151
173
161
92
55
63
83
146
89
64
162
123
145
101
121
172
77
78
65
33
56
148
157
95
107
104
18
144
100
119
68
175
135
122
94
71
17
164
150
106
181
30
143
80
57
140
69
67
159
133
177
45
170
127
166
22
20
179
74
58
14
61
165
40
115
21
96
130
90
82
9
120
149
36
147
158
124
142
85
99
183
43
152
5
72
38
48
39
137
105
128
153
23
169
163
87
10
70
154
93
112
16
79
103
180
54
184
35
50
176
155
138
27
31
108
117
86
160
51
139
174
81
116
91
114
12
98
125
42
97
46
118
29
53
26
109
178
49
60
25
132
15
75
182
59
8
111
167
62
113
73
76
7
84
37
19
6
4
186
41
44
34
2
13
66
3
141
24
11

> <PUBCHEM_MMFF94_PARTIAL_CHARGES>
28
1 -0.18
10 0.18
11 0.11
12 0.41
13 -0.15
14 -0.04
15 -0.14
16 0.46
19 -0.15
2 -0.52
20 -0.15
21 -0.15
22 -0.15
23 0.18
3 -0.02
30 0.36
33 0.15
4 -0.68
40 0.15
41 0.15
42 0.4
43 0.15
44 0.15
5 -0.84
6 -0.41
7 0.21
8 0.26
9 0.26

> <PUBCHEM_EFFECTIVE_ROTOR_COUNT>
6.8

> <PUBCHEM_PHARMACOPHORE_FEATURES>
10
1 2 acceptor
1 4 acceptor
1 4 donor
1 5 cation
1 5 donor
1 6 acceptor
3 16 17 18 hydrophobe
4 2 7 8 9 rings
5 3 6 11 13 14 rings
6 15 19 20 21 22 23 rings

> <PUBCHEM_HEAVY_ATOM_COUNT>
23

> <PUBCHEM_ATOM_DEF_STEREO_COUNT>
0

> <PUBCHEM_ATOM_UDEF_STEREO_COUNT>
0

> <PUBCHEM_BOND_DEF_STEREO_COUNT>
0

> <PUBCHEM_BOND_UDEF_STEREO_COUNT>
0

> <PUBCHEM_ISOTOPIC_ATOM_COUNT>
0

> <PUBCHEM_COMPONENT_COUNT>
1

> <PUBCHEM_CACTVS_TAUTO_COUNT>
1

> <PUBCHEM_CONFORMER_ID>
0362535100000001

> <PUBCHEM_MMFF94_ENERGY>
53.0643

> <PUBCHEM_FEATURE_SELFOVERLAP>
50.746

> <PUBCHEM_SHAPE_FINGERPRINT>
10042902 136 10809618156638488288
10411042 1 17474391275024848638
10692045 39 18340471280650913794
12107183 9 18262221288891266554
12633257 1 17970044829610657292
12769317 202 18270390603538963241
12788726 201 17393341213501114142
13583140 156 16009568283424949316
13590594 115 17476938852203409650
13878862 14 17755565059328420541
13955234 65 18118970179189497435
13965767 371 18040707048365229862
14251764 75 18409175432226377641
14461889 52 17968393269109768425
14466204 15 18048871897602277834
146900 427 18268438949589144817
14787075 74 18271522096009806839
14790565 3 18411983555396912617
14849402 71 18263085422951929322
14955137 171 17974281019936937818
15142526 21 18409449180967736483
17980427 26 18338223882699016390
20238998 120 17474671028284084843
20567600 254 18335693953624177373
21033648 29 18410013273245678816
21049683 118 18263624282085518283
21401589 2 18341614879479205321
22182937 141 18267025140274733032
23227448 37 18270679886881840815
23558518 356 18189617322651623502
23559900 14 17982734070005515847
23845131 108 18260550005131413891
245318 6 17970082229548120533
26353 1 12895070738491105018
2838139 119 18059002999398320852
3246875 12 18339924917865970065
394222 165 18338511924706972691
474 4 18410856521233003769
5104073 3 18334861585078669803
56616090 13 18131627906770331901
57091435 61 18340484474521499137
59755656 520 18334573568597891142
6328613 192 18334864952755269700
633830 44 18341890762524852975
67856867 119 18264199206877362275
7288768 16 18261390095795543355
7808743 9 18264770042237888036
960060 61 11023818500532775256
9981440 41 18198614618022782610

> <PUBCHEM_SHAPE_MULTIPOLES>
447.63
12.47
4.35
1.04
8.12
2.27
0.24
-14.98
1.36
-1.29
1.18
-0.64
0.13
-0.07

> <PUBCHEM_SHAPE_SELFOVERLAP>
939.277

> <PUBCHEM_SHAPE_VOLUME>
256.5

> <PUBCHEM_COORDINATE_TYPE>
2
5
10

$$$$
