75536834
  -OEChem-12032416333D

 42 43  0     1  0  0  0  0  0999 V2000
   -0.2425    1.2412   -0.6414 O   0  0  0  0  0  0  0  0  0  0  0  0
   -6.2390   -0.4520    0.8627 O   0  0  0  0  0  0  0  0  0  0  0  0
   -1.4223   -2.0464    0.1985 O   0  0  0  0  0  0  0  0  0  0  0  0
    3.1747   -1.3757    0.6123 O   0  0  0  0  0  0  0  0  0  0  0  0
   -3.6680    0.0212   -0.5483 N   0  0  0  0  0  0  0  0  0  0  0  0
    2.3302    0.0194   -1.0421 N   0  0  0  0  0  0  0  0  0  0  0  0
    4.3907    0.4663   -0.1035 N   0  0  0  0  0  0  0  0  0  0  0  0
   -2.3070    0.2126   -0.0743 C   0  0  1  0  0  0  0  0  0  0  0  0
   -1.3392   -0.8526   -0.5554 C   0  0  1  0  0  0  0  0  0  0  0  0
   -0.0043   -0.1473   -0.3565 C   0  0  1  0  0  0  0  0  0  0  0  0
   -4.5948    0.7854    0.2964 C   0  0  0  0  0  0  0  0  0  0  0  0
   -1.6617    1.4749   -0.6222 C   0  0  0  0  0  0  0  0  0  0  0  0
   -6.0250    0.5334   -0.1806 C   0  0  0  0  0  0  0  0  0  0  0  0
   -4.9947   -0.0659    1.5014 C   0  0  0  0  0  0  0  0  0  0  0  0
    1.0946   -0.6758   -1.2612 C   0  0  0  0  0  0  0  0  0  0  0  0
    3.2899   -0.3868   -0.1105 C   0  0  0  0  0  0  0  0  0  0  0  0
    5.5256    0.2722    0.7679 C   0  0  0  0  0  0  0  0  0  0  0  0
    6.5549   -0.6385    0.1103 C   0  0  0  0  0  0  0  0  0  0  0  0
    6.1379    1.6144    1.1465 C   0  0  0  0  0  0  0  0  0  0  0  0
   -2.2756    0.2248    1.0243 H   0  0  0  0  0  0  0  0  0  0  0  0
   -1.5069   -1.0903   -1.6133 H   0  0  0  0  0  0  0  0  0  0  0  0
    0.3185   -0.2152    0.6908 H   0  0  0  0  0  0  0  0  0  0  0  0
   -4.3469    1.8329    0.4859 H   0  0  0  0  0  0  0  0  0  0  0  0
   -1.9640    1.6899   -1.6536 H   0  0  0  0  0  0  0  0  0  0  0  0
   -1.8760    2.3570   -0.0112 H   0  0  0  0  0  0  0  0  0  0  0  0
   -3.7263    0.2445   -1.5412 H   0  0  0  0  0  0  0  0  0  0  0  0
   -6.7084    1.3803   -0.0580 H   0  0  0  0  0  0  0  0  0  0  0  0
   -6.1589    0.1060   -1.1792 H   0  0  0  0  0  0  0  0  0  0  0  0
   -4.3774   -0.9372    1.7412 H   0  0  0  0  0  0  0  0  0  0  0  0
   -5.1897    0.4987    2.4193 H   0  0  0  0  0  0  0  0  0  0  0  0
    0.8363   -0.5183   -2.3141 H   0  0  0  0  0  0  0  0  0  0  0  0
    1.2485   -1.7475   -1.0966 H   0  0  0  0  0  0  0  0  0  0  0  0
   -1.2769   -1.8277    1.1345 H   0  0  0  0  0  0  0  0  0  0  0  0
    2.5102    0.8596   -1.5831 H   0  0  0  0  0  0  0  0  0  0  0  0
    4.4269    1.2128   -0.7911 H   0  0  0  0  0  0  0  0  0  0  0  0
    5.1721   -0.2158    1.6843 H   0  0  0  0  0  0  0  0  0  0  0  0
    6.9276   -0.2057   -0.8248 H   0  0  0  0  0  0  0  0  0  0  0  0
    6.1185   -1.6140   -0.1304 H   0  0  0  0  0  0  0  0  0  0  0  0
    7.4099   -0.8061    0.7735 H   0  0  0  0  0  0  0  0  0  0  0  0
    6.5033    2.1493    0.2627 H   0  0  0  0  0  0  0  0  0  0  0  0
    5.3961    2.2552    1.6358 H   0  0  0  0  0  0  0  0  0  0  0  0
    6.9779    1.4813    1.8361 H   0  0  0  0  0  0  0  0  0  0  0  0
  1 10  1  0  0  0  0
  1 12  1  0  0  0  0
  2 13  1  0  0  0  0
  2 14  1  0  0  0  0
  3  9  1  0  0  0  0
  3 33  1  0  0  0  0
  4 16  2  0  0  0  0
  5  8  1  0  0  0  0
  5 11  1  0  0  0  0
  5 26  1  0  0  0  0
  6 15  1  0  0  0  0
  6 16  1  0  0  0  0
  6 34  1  0  0  0  0
  7 16  1  0  0  0  0
  7 17  1  0  0  0  0
  7 35  1  0  0  0  0
  8  9  1  0  0  0  0
  8 12  1  0  0  0  0
  8 20  1  0  0  0  0
  9 10  1  0  0  0  0
  9 21  1  0  0  0  0
 10 15  1  0  0  0  0
 10 22  1  0  0  0  0
 11 13  1  0  0  0  0
 11 14  1  0  0  0  0
 11 23  1  0  0  0  0
 12 24  1  0  0  0  0
 12 25  1  0  0  0  0
 13 27  1  0  0  0  0
 13 28  1  0  0  0  0
 14 29  1  0  0  0  0
 14 30  1  0  0  0  0
 15 31  1  0  0  0  0
 15 32  1  0  0  0  0
 17 18  1  0  0  0  0
 17 19  1  0  0  0  0
 17 36  1  0  0  0  0
 18 37  1  0  0  0  0
 18 38  1  0  0  0  0
 18 39  1  0  0  0  0
 19 40  1  0  0  0  0
 19 41  1  0  0  0  0
 19 42  1  0  0  0  0
M  END
> <PUBCHEM_COMPOUND_CID>
75536834

> <PUBCHEM_CONFORMER_RMSD>
0.8

> <PUBCHEM_CONFORMER_DIVERSEORDER>
1
191
11
210
141
199
139
200
150
18
46
25
53
178
177
24
212
156
67
232
40
131
233
60
135
154
20
88
123
96
142
157
69
56
104
66
100
58
259
133
164
76
205
63
170
225
126
9
209
137
113
16
86
130
228
138
23
239
128
176
167
94
222
80
214
8
124
160
119
242
79
109
65
179
237
89
85
220
55
182
97
224
10
152
208
198
41
175
168
226
28
48
45
187
241
236
110
246
30
70
256
57
201
243
101
162
29
196
148
78
136
261
116
248
39
35
118
247
54
180
102
68
71
111
132
234
184
263
47
117
32
223
34
31
193
163
103
221
186
143
197
26
98
171
251
43
166
173
49
99
149
51
144
185
77
52
73
82
262
172
59
181
107
134
213
106
61
204
183
36
217
122
83
244
174
12
153
227
64
189
255
206
27
190
81
5
260
147
252
145
253
254
91
17
169
240
159
3
127
90
229
105
62
161
230
4
74
112
215
115
14
50
158
93
250
125
92
140
19
195
129
257
202
72
87
245
235
219
6
188
155
108
216
2
95
231
192
207
258
238
114
22
15
33
165
194
13
7
38
151
211
146
42
44
21
121
249
120
84
75
203
37
218

> <PUBCHEM_MMFF94_PARTIAL_CHARGES>
21
1 -0.56
10 0.28
11 0.21
12 0.28
13 0.26
14 0.26
15 0.3
16 0.69
17 0.3
2 -0.52
26 0.36
3 -0.68
33 0.4
34 0.37
35 0.37
4 -0.57
5 -0.84
6 -0.73
7 -0.73
8 0.27
9 0.28

> <PUBCHEM_EFFECTIVE_ROTOR_COUNT>
8.8

> <PUBCHEM_PHARMACOPHORE_FEATURES>
12
1 1 acceptor
1 2 acceptor
1 3 acceptor
1 3 donor
1 4 acceptor
1 5 cation
1 5 donor
1 6 donor
1 7 donor
3 17 18 19 hydrophobe
4 2 11 13 14 rings
5 1 8 9 10 12 rings

> <PUBCHEM_HEAVY_ATOM_COUNT>
19

> <PUBCHEM_ATOM_DEF_STEREO_COUNT>
3

> <PUBCHEM_ATOM_UDEF_STEREO_COUNT>
0

> <PUBCHEM_BOND_DEF_STEREO_COUNT>
0

> <PUBCHEM_BOND_UDEF_STEREO_COUNT>
0

> <PUBCHEM_ISOTOPIC_ATOM_COUNT>
0

> <PUBCHEM_COMPONENT_COUNT>
1

> <PUBCHEM_CACTVS_TAUTO_COUNT>
3

> <PUBCHEM_CONFORMER_ID>
048099C200000001

> <PUBCHEM_MMFF94_ENERGY>
31.9197

> <PUBCHEM_FEATURE_SELFOVERLAP>
60.946

> <PUBCHEM_SHAPE_FINGERPRINT>
10 15 18187077391310362608
100836 57 16774078479609913888
10354089 29 18412544310711229232
106641 1 18341334483003554859
117890 112 17561085795415399128
12236239 1 16950286204086454204
12596602 18 18413110537292090539
12670543 26 9151180843754062121
12714333 28 14477241557122510582
13167372 99 17203333273813043480
13288520 33 13984663655283235879
13533116 47 18337952277957856994
13955234 65 18059294250180124478
1420 363 18113339695780108210
14251752 14 10087648073937642633
14251764 18 18130505327221349053
14341114 176 18408602565994829232
15048467 5 16271929294464257465
15183329 4 10952061056490533700
17834072 8 10879990263659331072
17834076 25 16559030484637132519
17980427 23 18271521021756560116
19489759 90 16660363663050945869
200 152 13334734622248253404
20281389 69 18131630080277270720
20645477 70 12180113252092342344
20735858 18 18334298669405975451
21150785 3 12751230407237356141
21267235 1 18187088321927881542
21637258 2 15213297560205691889
22079108 93 18334008411294711722
221357 26 9223234048778934450
22224240 67 18343865520237568311
23402539 116 18410006646237371495
23559900 14 18269015140542014662
23622692 88 18040155127919642198
25147074 1 18194403518294085485
26918003 58 17167867460917172169
2916195 48 18202001014962017585
29717793 49 8574714620147717394
3545911 37 18409729543811758854
4340502 62 18260265244346173778
465052 167 13479142284553842048
542803 24 16917065560002206708
59682541 35 18261113018796779072
59682541 52 12535363298468697132
59755656 520 16200144383241138764

> <PUBCHEM_SHAPE_MULTIPOLES>
352.59
16.97
1.36
1.09
6.67
0.02
0.11
3.77
6.35
0.85
0.11
-0.38
0.04
0.68

> <PUBCHEM_SHAPE_SELFOVERLAP>
704.808

> <PUBCHEM_SHAPE_VOLUME>
210.7

> <PUBCHEM_COORDINATE_TYPE>
2
5
10

$$$$
