45783518
  -OEChem-12032416273D

 53 57  0     1  0  0  0  0  0999 V2000
   -2.3172    0.4817   -2.0062 O   0  0  0  0  0  0  0  0  0  0  0  0
    7.7018   -0.2650    0.6661 O   0  0  0  0  0  0  0  0  0  0  0  0
   -4.3316    0.7992    0.8555 N   0  0  1  0  0  0  0  0  0  0  0  0
   -1.3561    1.1417   -0.0938 N   0  0  0  0  0  0  0  0  0  0  0  0
    4.9663    0.1826    0.2017 N   0  0  0  0  0  0  0  0  0  0  0  0
   -0.9532    0.1905   -2.1350 N   0  0  0  0  0  0  0  0  0  0  0  0
    3.1691   -0.1592   -1.2998 N   0  0  0  0  0  0  0  0  0  0  0  0
   -2.8681   -3.3022   -0.9146 N   0  0  0  0  0  0  0  0  0  0  0  0
   -3.8740    1.4484   -0.3891 C   0  0  1  0  0  0  0  0  0  0  0  0
   -3.9986    2.9580   -0.1115 C   0  0  0  0  0  0  0  0  0  0  0  0
   -4.5905    3.0575    1.2871 C   0  0  0  0  0  0  0  0  0  0  0  0
   -5.2805    1.7221    1.4785 C   0  0  0  0  0  0  0  0  0  0  0  0
   -4.9126   -0.5191    0.6358 C   0  0  0  0  0  0  0  0  0  0  0  0
   -2.4683    1.0393   -0.7764 C   0  0  0  0  0  0  0  0  0  0  0  0
   -3.8548   -1.5759    0.4606 C   0  0  0  0  0  0  0  0  0  0  0  0
   -0.4541    0.6083   -0.9679 C   0  0  0  0  0  0  0  0  0  0  0  0
   -2.9109   -1.8166    1.4529 C   0  0  0  0  0  0  0  0  0  0  0  0
    5.9289    0.2517   -0.9064 C   0  0  0  0  0  0  0  0  0  0  0  0
    5.4019   -0.6064    1.3592 C   0  0  0  0  0  0  0  0  0  0  0  0
   -3.7909   -2.3391   -0.6941 C   0  0  0  0  0  0  0  0  0  0  0  0
    0.9398    0.5084   -0.6447 C   0  0  0  0  0  0  0  0  0  0  0  0
    7.3043    0.6323   -0.3704 C   0  0  0  0  0  0  0  0  0  0  0  0
    6.8060   -0.1806    1.7740 C   0  0  0  0  0  0  0  0  0  0  0  0
    3.6043    0.2855   -0.0996 C   0  0  0  0  0  0  0  0  0  0  0  0
    1.4253    0.9549    0.5795 C   0  0  0  0  0  0  0  0  0  0  0  0
    2.7818    0.8450    0.8650 C   0  0  0  0  0  0  0  0  0  0  0  0
   -1.9456   -2.7994    1.2627 C   0  0  0  0  0  0  0  0  0  0  0  0
    1.8446   -0.0358   -1.5416 C   0  0  0  0  0  0  0  0  0  0  0  0
   -1.9672   -3.5077    0.0723 C   0  0  0  0  0  0  0  0  0  0  0  0
   -4.5511    1.2132   -1.2224 H   0  0  0  0  0  0  0  0  0  0  0  0
   -3.0500    3.5022   -0.1725 H   0  0  0  0  0  0  0  0  0  0  0  0
   -4.6900    3.4090   -0.8339 H   0  0  0  0  0  0  0  0  0  0  0  0
   -5.2775    3.9031    1.3865 H   0  0  0  0  0  0  0  0  0  0  0  0
   -3.7870    3.1822    2.0237 H   0  0  0  0  0  0  0  0  0  0  0  0
   -6.2501    1.7176    0.9644 H   0  0  0  0  0  0  0  0  0  0  0  0
   -5.4379    1.4991    2.5382 H   0  0  0  0  0  0  0  0  0  0  0  0
   -5.6202   -0.5179   -0.2037 H   0  0  0  0  0  0  0  0  0  0  0  0
   -5.4986   -0.8200    1.5156 H   0  0  0  0  0  0  0  0  0  0  0  0
    5.9788   -0.7290   -1.3955 H   0  0  0  0  0  0  0  0  0  0  0  0
    5.6214    0.9949   -1.6516 H   0  0  0  0  0  0  0  0  0  0  0  0
    4.7300   -0.4910    2.2164 H   0  0  0  0  0  0  0  0  0  0  0  0
    5.4040   -1.6663    1.0761 H   0  0  0  0  0  0  0  0  0  0  0  0
   -2.9180   -1.2495    2.3796 H   0  0  0  0  0  0  0  0  0  0  0  0
   -4.4977   -2.1976   -1.5058 H   0  0  0  0  0  0  0  0  0  0  0  0
    7.3133    1.6596    0.0138 H   0  0  0  0  0  0  0  0  0  0  0  0
    8.0474    0.5716   -1.1719 H   0  0  0  0  0  0  0  0  0  0  0  0
    7.1801   -0.8443    2.5599 H   0  0  0  0  0  0  0  0  0  0  0  0
    6.8124    0.8416    2.1714 H   0  0  0  0  0  0  0  0  0  0  0  0
    0.7709    1.3948    1.3276 H   0  0  0  0  0  0  0  0  0  0  0  0
    3.1619    1.2074    1.8145 H   0  0  0  0  0  0  0  0  0  0  0  0
   -1.1999   -3.0040    2.0223 H   0  0  0  0  0  0  0  0  0  0  0  0
    1.5471   -0.4075   -2.5176 H   0  0  0  0  0  0  0  0  0  0  0  0
   -1.2355   -4.2842   -0.1252 H   0  0  0  0  0  0  0  0  0  0  0  0
  1  6  1  0  0  0  0
  1 14  1  0  0  0  0
  2 22  1  0  0  0  0
  2 23  1  0  0  0  0
  3  9  1  0  0  0  0
  3 12  1  0  0  0  0
  3 13  1  0  0  0  0
  4 14  2  0  0  0  0
  4 16  1  0  0  0  0
  5 18  1  0  0  0  0
  5 19  1  0  0  0  0
  5 24  1  0  0  0  0
  6 16  2  0  0  0  0
  7 24  2  0  0  0  0
  7 28  1  0  0  0  0
  8 20  1  0  0  0  0
  8 29  2  0  0  0  0
  9 10  1  0  0  0  0
  9 14  1  0  0  0  0
  9 30  1  0  0  0  0
 10 11  1  0  0  0  0
 10 31  1  0  0  0  0
 10 32  1  0  0  0  0
 11 12  1  0  0  0  0
 11 33  1  0  0  0  0
 11 34  1  0  0  0  0
 12 35  1  0  0  0  0
 12 36  1  0  0  0  0
 13 15  1  0  0  0  0
 13 37  1  0  0  0  0
 13 38  1  0  0  0  0
 15 17  1  0  0  0  0
 15 20  2  0  0  0  0
 16 21  1  0  0  0  0
 17 27  2  0  0  0  0
 17 43  1  0  0  0  0
 18 22  1  0  0  0  0
 18 39  1  0  0  0  0
 18 40  1  0  0  0  0
 19 23  1  0  0  0  0
 19 41  1  0  0  0  0
 19 42  1  0  0  0  0
 20 44  1  0  0  0  0
 21 25  1  0  0  0  0
 21 28  2  0  0  0  0
 22 45  1  0  0  0  0
 22 46  1  0  0  0  0
 23 47  1  0  0  0  0
 23 48  1  0  0  0  0
 24 26  1  0  0  0  0
 25 26  2  0  0  0  0
 25 49  1  0  0  0  0
 26 50  1  0  0  0  0
 27 29  1  0  0  0  0
 27 51  1  0  0  0  0
 28 52  1  0  0  0  0
 29 53  1  0  0  0  0
M  END
> <PUBCHEM_COMPOUND_CID>
45783518

> <PUBCHEM_CONFORMER_RMSD>
1

> <PUBCHEM_CONFORMER_DIVERSEORDER>
1
99
106
61
55
21
10
26
64
48
49
59
50
17
56
100
11
101
22
9
110
3
29
90
83
98
12
104
46
78
65
23
32
96
95
57
19
16
43
58
31
42
92
75
34
51
13
36
7
70
91
38
102
2
37
80
74
24
6
87
35
60
47
82
63
25
40
68
20
8
97
15
71
41
89
52
69
18
88
4
81
103
53
77
33
14
108
72
107
66
94
109
30
86
39
85
79
45
28
73
62
105
67
54
44
5
84
27
76
93

> <PUBCHEM_MMFF94_PARTIAL_CHARGES>
34
1 -0.02
12 0.27
13 0.41
14 0.3
15 -0.14
16 0.46
17 -0.15
18 0.37
19 0.37
2 -0.56
20 0.16
21 0.05
22 0.28
23 0.28
24 0.41
25 -0.15
26 -0.15
27 -0.15
28 0.16
29 0.16
3 -0.81
4 -0.57
43 0.15
44 0.15
49 0.15
5 -0.84
50 0.15
51 0.15
52 0.15
53 0.15
6 -0.41
7 -0.62
8 -0.62
9 0.45

> <PUBCHEM_EFFECTIVE_ROTOR_COUNT>
7.2

> <PUBCHEM_PHARMACOPHORE_FEATURES>
10
1 2 acceptor
1 3 cation
1 8 acceptor
3 4 6 16 cation
3 5 7 24 cation
5 1 4 6 14 16 rings
5 3 9 10 11 12 rings
6 2 5 18 19 22 23 rings
6 7 21 24 25 26 28 rings
6 8 15 17 20 27 29 rings

> <PUBCHEM_HEAVY_ATOM_COUNT>
29

> <PUBCHEM_ATOM_DEF_STEREO_COUNT>
1

> <PUBCHEM_ATOM_UDEF_STEREO_COUNT>
0

> <PUBCHEM_BOND_DEF_STEREO_COUNT>
0

> <PUBCHEM_BOND_UDEF_STEREO_COUNT>
0

> <PUBCHEM_ISOTOPIC_ATOM_COUNT>
0

> <PUBCHEM_COMPONENT_COUNT>
1

> <PUBCHEM_CACTVS_TAUTO_COUNT>
1

> <PUBCHEM_CONFORMER_ID>
02BA99DE00000001

> <PUBCHEM_MMFF94_ENERGY>
74.0572

> <PUBCHEM_FEATURE_SELFOVERLAP>
50.749

> <PUBCHEM_SHAPE_FINGERPRINT>
10 15 17775560953784190456
10319926 262 18343295998678106096
11315181 36 18336263526211479693
11524674 6 18272649051856677550
12293681 4 18201725028531921345
12422481 6 17822854147917685930
12522641 33 17315331663481808933
12616971 3 16950289507512410492
12633257 1 18338529607303269881
12988421 55 18194968427170285889
13004483 165 17912083056451015927
13583140 156 17489871565640721487
14068700 675 18266738168399487831
14844126 61 18338519750480088771
14856354 85 18408606976293058164
15021287 119 17167867456580377628
15183329 4 17095518513963355418
15326921 28 18046049467970448669
15348495 7 18201432619259142632
15352257 5 18408889508618408318
15799311 1 18186809067380931514
16110190 28 18040999518664069826
16993438 75 15625121732217823258
17093844 174 17774995791590159128
17780758 139 18335138713210827193
17844677 252 18342176721716672808
17913733 40 17203897366370554278
19438510 23 17201654255349321793
20554085 129 18198047090003456545
21033648 29 17560809800922836541
21236236 1 18260545649707164010
21756936 100 18272083860325680297
220451 1 18040435474095173152
23516275 137 17971773085727571034
23522609 53 17896908550241749244
23559900 14 18116707619775723605
2838139 119 12535630483793483738
3383291 50 18337398240199011043
397830 11 18058157501206452296
4073 2 18343021091159980382
469060 322 12463013311631050135
484985 159 18261945358385804831
4938544 92 18272651259463994817
5364581 5 18127686235243027920
58260988 114 16516547615183776099
59755656 520 18409729521577286480
602551 16 18408890658624430654
68570916 9 18260550082836314420
7226269 152 18202000984512508425
9953998 17 18335135410734528024

> <PUBCHEM_SHAPE_MULTIPOLES>
555.18
16.97
3.16
1.68
33.58
1.87
0.15
-3.29
-6.01
-7.39
-0.59
0.14
-0.01
-1.07

> <PUBCHEM_SHAPE_SELFOVERLAP>
1206.219

> <PUBCHEM_SHAPE_VOLUME>
301.7

> <PUBCHEM_COORDINATE_TYPE>
2
5
10

$$$$
