38029402
  -OEChem-12032416393D

 66 68  0     1  0  0  0  0  0999 V2000
    4.2417   -4.7014    1.6382 F   0  0  0  0  0  0  0  0  0  0  0  0
   -1.7235    2.0890    2.7500 O   0  0  0  0  0  0  0  0  0  0  0  0
    1.7820   -0.9809   -2.8209 O   0  0  0  0  0  0  0  0  0  0  0  0
    2.8520    0.6294   -1.5371 N   0  0  0  0  0  0  0  0  0  0  0  0
   -0.9882   -0.1084    2.5734 N   0  0  0  0  0  0  0  0  0  0  0  0
   -6.1253   -1.9679   -2.6261 N   0  0  0  0  0  0  0  0  0  0  0  0
    0.2955    2.1309   -1.0338 C   0  0  1  0  0  0  0  0  0  0  0  0
    1.6478    2.7492   -1.4686 C   0  0  1  0  0  0  0  0  0  0  0  0
   -0.3078    2.9275    0.1331 C   0  0  0  0  0  0  0  0  0  0  0  0
    0.6269    2.9667    1.3568 C   0  0  2  0  0  0  0  0  0  0  0  0
   -0.7031    2.0737   -2.1940 C   0  0  0  0  0  0  0  0  0  0  0  0
    2.0503    3.3104    0.9672 C   0  0  0  0  0  0  0  0  0  0  0  0
    2.4847    3.2200   -0.3023 C   0  0  0  0  0  0  0  0  0  0  0  0
    2.4604    1.7627   -2.3150 C   0  0  0  0  0  0  0  0  0  0  0  0
    0.5742    1.6470    2.1345 C   0  0  0  0  0  0  0  0  0  0  0  0
   -1.7365    0.9779   -1.9533 C   0  0  0  0  0  0  0  0  0  0  0  0
   -1.3823    3.4270   -2.3784 C   0  0  0  0  0  0  0  0  0  0  0  0
    2.9519    3.8047    2.0641 C   0  0  0  0  0  0  0  0  0  0  0  0
   -0.8386    1.2696    2.5188 C   0  0  0  0  0  0  0  0  0  0  0  0
    2.4767   -0.6754   -1.8552 C   0  0  0  0  0  0  0  0  0  0  0  0
   -2.2342   -0.7539    2.9174 C   0  0  0  0  0  0  0  0  0  0  0  0
    2.9437   -1.7407   -0.9311 C   0  0  0  0  0  0  0  0  0  0  0  0
   -3.0827   -1.0188    1.7074 C   0  0  0  0  0  0  0  0  0  0  0  0
    2.2151   -2.9235   -0.8048 C   0  0  0  0  0  0  0  0  0  0  0  0
    4.1109   -1.5579   -0.1893 C   0  0  0  0  0  0  0  0  0  0  0  0
   -4.3581   -0.4612    1.6148 C   0  0  0  0  0  0  0  0  0  0  0  0
   -2.5963   -1.8224    0.6764 C   0  0  0  0  0  0  0  0  0  0  0  0
    2.6539   -3.9238    0.0628 C   0  0  0  0  0  0  0  0  0  0  0  0
    4.5495   -2.5581    0.6785 C   0  0  0  0  0  0  0  0  0  0  0  0
    3.8210   -3.7410    0.8045 C   0  0  0  0  0  0  0  0  0  0  0  0
   -5.1468   -0.7072    0.4909 C   0  0  0  0  0  0  0  0  0  0  0  0
   -3.3851   -2.0687   -0.4474 C   0  0  0  0  0  0  0  0  0  0  0  0
   -4.6604   -1.5112   -0.5401 C   0  0  0  0  0  0  0  0  0  0  0  0
   -5.4689   -1.7632   -1.6912 C   0  0  0  0  0  0  0  0  0  0  0  0
    0.4708    1.1072   -0.6807 H   0  0  0  0  0  0  0  0  0  0  0  0
    1.4632    3.6352   -2.0891 H   0  0  0  0  0  0  0  0  0  0  0  0
   -1.3023    2.5564    0.3911 H   0  0  0  0  0  0  0  0  0  0  0  0
   -0.4460    3.9778   -0.1576 H   0  0  0  0  0  0  0  0  0  0  0  0
    0.2500    3.7662    2.0102 H   0  0  0  0  0  0  0  0  0  0  0  0
   -0.1896    1.8224   -3.1278 H   0  0  0  0  0  0  0  0  0  0  0  0
    3.5040    3.5252   -0.5318 H   0  0  0  0  0  0  0  0  0  0  0  0
    3.3860    2.2381   -2.6620 H   0  0  0  0  0  0  0  0  0  0  0  0
    1.9175    1.4488   -3.2105 H   0  0  0  0  0  0  0  0  0  0  0  0
    1.1425    1.7280    3.0692 H   0  0  0  0  0  0  0  0  0  0  0  0
    1.0375    0.8420    1.5510 H   0  0  0  0  0  0  0  0  0  0  0  0
   -2.3316    1.1585   -1.0530 H   0  0  0  0  0  0  0  0  0  0  0  0
   -1.2516    0.0012   -1.8514 H   0  0  0  0  0  0  0  0  0  0  0  0
   -2.4306    0.9131   -2.7985 H   0  0  0  0  0  0  0  0  0  0  0  0
   -2.1129    3.6529   -1.5946 H   0  0  0  0  0  0  0  0  0  0  0  0
   -1.9479    3.4199   -3.3185 H   0  0  0  0  0  0  0  0  0  0  0  0
   -0.6678    4.2518   -2.4549 H   0  0  0  0  0  0  0  0  0  0  0  0
    2.5079    4.6754    2.5574 H   0  0  0  0  0  0  0  0  0  0  0  0
    3.9345    4.1062    1.6859 H   0  0  0  0  0  0  0  0  0  0  0  0
    3.1135    3.0238    2.8133 H   0  0  0  0  0  0  0  0  0  0  0  0
    3.4216    0.8079   -0.7176 H   0  0  0  0  0  0  0  0  0  0  0  0
   -0.1954   -0.7073    2.3617 H   0  0  0  0  0  0  0  0  0  0  0  0
   -2.7654   -0.1293    3.6447 H   0  0  0  0  0  0  0  0  0  0  0  0
   -1.9937   -1.7017    3.4118 H   0  0  0  0  0  0  0  0  0  0  0  0
    1.3002   -3.0822   -1.3696 H   0  0  0  0  0  0  0  0  0  0  0  0
    4.7255   -0.6675   -0.2804 H   0  0  0  0  0  0  0  0  0  0  0  0
   -4.7499    0.1677    2.4096 H   0  0  0  0  0  0  0  0  0  0  0  0
   -1.6057   -2.2655    0.7363 H   0  0  0  0  0  0  0  0  0  0  0  0
    2.0862   -4.8443    0.1625 H   0  0  0  0  0  0  0  0  0  0  0  0
    5.4617   -2.4197    1.2513 H   0  0  0  0  0  0  0  0  0  0  0  0
   -6.1386   -0.2650    0.4329 H   0  0  0  0  0  0  0  0  0  0  0  0
   -2.9917   -2.6969   -1.2431 H   0  0  0  0  0  0  0  0  0  0  0  0
  1 30  1  0  0  0  0
  2 19  2  0  0  0  0
  3 20  2  0  0  0  0
  4 14  1  0  0  0  0
  4 20  1  0  0  0  0
  4 55  1  0  0  0  0
  5 19  1  0  0  0  0
  5 21  1  0  0  0  0
  5 56  1  0  0  0  0
  6 34  3  0  0  0  0
  7  8  1  0  0  0  0
  7  9  1  0  0  0  0
  7 11  1  0  0  0  0
  7 35  1  0  0  0  0
  8 13  1  0  0  0  0
  8 14  1  0  0  0  0
  8 36  1  0  0  0  0
  9 10  1  0  0  0  0
  9 37  1  0  0  0  0
  9 38  1  0  0  0  0
 10 12  1  0  0  0  0
 10 15  1  0  0  0  0
 10 39  1  0  0  0  0
 11 16  1  0  0  0  0
 11 17  1  0  0  0  0
 11 40  1  0  0  0  0
 12 13  2  0  0  0  0
 12 18  1  0  0  0  0
 13 41  1  0  0  0  0
 14 42  1  0  0  0  0
 14 43  1  0  0  0  0
 15 19  1  0  0  0  0
 15 44  1  0  0  0  0
 15 45  1  0  0  0  0
 16 46  1  0  0  0  0
 16 47  1  0  0  0  0
 16 48  1  0  0  0  0
 17 49  1  0  0  0  0
 17 50  1  0  0  0  0
 17 51  1  0  0  0  0
 18 52  1  0  0  0  0
 18 53  1  0  0  0  0
 18 54  1  0  0  0  0
 20 22  1  0  0  0  0
 21 23  1  0  0  0  0
 21 57  1  0  0  0  0
 21 58  1  0  0  0  0
 22 24  2  0  0  0  0
 22 25  1  0  0  0  0
 23 26  2  0  0  0  0
 23 27  1  0  0  0  0
 24 28  1  0  0  0  0
 24 59  1  0  0  0  0
 25 29  2  0  0  0  0
 25 60  1  0  0  0  0
 26 31  1  0  0  0  0
 26 61  1  0  0  0  0
 27 32  2  0  0  0  0
 27 62  1  0  0  0  0
 28 30  2  0  0  0  0
 28 63  1  0  0  0  0
 29 30  1  0  0  0  0
 29 64  1  0  0  0  0
 31 33  2  0  0  0  0
 31 65  1  0  0  0  0
 32 33  1  0  0  0  0
 32 66  1  0  0  0  0
 33 34  1  0  0  0  0
M  END
> <PUBCHEM_COMPOUND_CID>
38029402

> <PUBCHEM_CONFORMER_RMSD>
1

> <PUBCHEM_CONFORMER_DIVERSEORDER>
1
200
140
74
122
69
259
17
160
187
224
84
149
35
236
192
269
117
223
239
132
111
58
3
234
171
125
214
290
79
102
183
146
213
33
251
142
155
82
81
212
233
250
246
39
301
164
2
133
273
97
247
107
209
114
120
215
99
222
286
166
293
75
57
148
217
175
26
157
280
85
197
128
87
294
261
154
124
257
94
219
60
262
216
70
195
23
127
16
156
44
218
153
103
141
113
73
228
198
53
288
31
62
302
86
199
14
137
27
29
237
6
61
49
193
47
254
65
292
145
135
289
270
284
169
263
80
143
118
136
173
268
144
241
253
221
25
283
34
48
139
255
52
245
238
258
205
95
226
116
7
181
59
138
83
167
147
184
151
244
177
152
264
178
121
112
63
119
67
131
15
109
196
72
68
32
240
88
227
235
266
279
77
249
96
256
201
158
9
100
204
13
271
194
168
163
50
291
56
165
11
282
115
51
36
275
299
150
267
230
92
123
252
93
91
174
296
295
8
186
22
104
106
265
220
40
260
210
38
203
300
170
162
110
108
248
297
46
66
71
225
211
98
206
55
285
37
272
243
208
189
134
30
202
130
161
101
5
19
28
176
276
76
242
190
287
10
78
277
41
4
207
281
274
185
129
191
159
90
298
179
89
231
188
54
43
126
24
42
232
278
105
180
182
45
172
12
21
229
18
64
20

> <PUBCHEM_MMFF94_PARTIAL_CHARGES>
40
1 -0.19
10 0.14
12 -0.28
13 -0.29
14 0.3
15 0.06
18 0.14
19 0.57
2 -0.57
20 0.54
21 0.44
22 0.09
23 -0.14
24 -0.15
25 -0.15
26 -0.15
27 -0.15
28 -0.15
29 -0.15
3 -0.57
30 0.19
31 -0.15
32 -0.15
33 0.07
34 0.48
4 -0.73
41 0.15
5 -0.73
55 0.37
56 0.37
59 0.15
6 -0.56
60 0.15
61 0.15
62 0.15
63 0.15
64 0.15
65 0.15
66 0.15
8 0.14

> <PUBCHEM_EFFECTIVE_ROTOR_COUNT>
10.8

> <PUBCHEM_PHARMACOPHORE_FEATURES>
9
1 2 acceptor
1 3 acceptor
1 4 donor
1 5 donor
1 6 acceptor
3 11 16 17 hydrophobe
6 22 24 25 28 29 30 rings
6 23 26 27 31 32 33 rings
6 7 8 9 10 12 13 rings

> <PUBCHEM_HEAVY_ATOM_COUNT>
34

> <PUBCHEM_ATOM_DEF_STEREO_COUNT>
3

> <PUBCHEM_ATOM_UDEF_STEREO_COUNT>
0

> <PUBCHEM_BOND_DEF_STEREO_COUNT>
0

> <PUBCHEM_BOND_UDEF_STEREO_COUNT>
0

> <PUBCHEM_ISOTOPIC_ATOM_COUNT>
0

> <PUBCHEM_COMPONENT_COUNT>
1

> <PUBCHEM_CACTVS_TAUTO_COUNT>
4

> <PUBCHEM_CONFORMER_ID>
0244485A00000001

> <PUBCHEM_MMFF94_ENERGY>
71.2257

> <PUBCHEM_FEATURE_SELFOVERLAP>
45.671

> <PUBCHEM_SHAPE_FINGERPRINT>
10842051 180 18408046226301999370
11285246 1 17096656404638042766
11552529 35 17762631586215903794
12156800 1 17536279610549298817
12977781 61 18120058789588960660
13383668 262 17409058728685360871
14114207 22 18125133152226408554
14251757 17 16298684848805935915
14674994 50 17758400669176079068
17921350 177 16954227038444289461
19026451 147 17846220024207110383
19315092 285 18059282288410797087
20775530 9 18264222317790394282
35225 105 17402652586592098845
469060 322 15766923521927235802
5081480 168 18040994034338843291
513532 50 17970044833805183471
550186 7 13487059043146624885

> <PUBCHEM_SHAPE_MULTIPOLES>
665.75
9.73
6.05
3.38
11.46
1.51
0.35
10.49
-2
-8.37
0.88
1.6
-1.55
-0.9

> <PUBCHEM_SHAPE_SELFOVERLAP>
1402.413

> <PUBCHEM_SHAPE_VOLUME>
373.9

> <PUBCHEM_COORDINATE_TYPE>
2
5
10

$$$$
