75367065
  -OEChem-12032416393D

 46 48  0     1  0  0  0  0  0999 V2000
    1.2101    0.9034   -1.4114 O   0  0  0  0  0  0  0  0  0  0  0  0
   -0.0545    2.4908    1.5528 O   0  0  0  0  0  0  0  0  0  0  0  0
    4.0774   -0.1019   -1.4658 O   0  0  0  0  0  0  0  0  0  0  0  0
   -1.6019   -0.0974    0.6676 N   0  0  0  0  0  0  0  0  0  0  0  0
    3.2532    0.6988    0.5611 N   0  0  0  0  0  0  0  0  0  0  0  0
   -0.7557    0.8176   -0.0810 C   0  0  1  0  0  0  0  0  0  0  0  0
   -2.8448   -0.3611   -0.0549 C   0  0  0  0  0  0  0  0  0  0  0  0
    0.3721    1.4144    0.7404 C   0  0  1  0  0  0  0  0  0  0  0  0
    1.3230    1.8734   -0.3567 C   0  0  1  0  0  0  0  0  0  0  0  0
    4.2972   -1.4821    0.4265 C   0  0  0  0  0  0  0  0  0  0  0  0
   -3.4761   -1.6622    0.4527 C   0  0  0  0  0  0  0  0  0  0  0  0
   -3.8053    0.8213    0.1121 C   0  0  0  0  0  0  0  0  0  0  0  0
    3.8143   -2.7901   -0.1058 C   0  0  0  0  0  0  0  0  0  0  0  0
    3.2769   -2.2594    1.1895 C   0  0  0  0  0  0  0  0  0  0  0  0
    0.0154    0.1317   -1.1969 C   0  0  0  0  0  0  0  0  0  0  0  0
   -4.8179   -1.9317   -0.2263 C   0  0  0  0  0  0  0  0  0  0  0  0
   -5.1464    0.5488   -0.5672 C   0  0  0  0  0  0  0  0  0  0  0  0
    2.7675    1.9678    0.1014 C   0  0  0  0  0  0  0  0  0  0  0  0
   -5.7734   -0.7516   -0.0729 C   0  0  0  0  0  0  0  0  0  0  0  0
    3.8689   -0.2306   -0.2651 C   0  0  0  0  0  0  0  0  0  0  0  0
   -1.3292    1.6554   -0.4944 H   0  0  0  0  0  0  0  0  0  0  0  0
   -2.6415   -0.5060   -1.1242 H   0  0  0  0  0  0  0  0  0  0  0  0
    0.8172    0.6497    1.3869 H   0  0  0  0  0  0  0  0  0  0  0  0
    1.0158    2.8460   -0.7611 H   0  0  0  0  0  0  0  0  0  0  0  0
    5.3084   -1.4614    0.8190 H   0  0  0  0  0  0  0  0  0  0  0  0
   -1.8114    0.2905    1.5869 H   0  0  0  0  0  0  0  0  0  0  0  0
   -2.8011   -2.5070    0.2680 H   0  0  0  0  0  0  0  0  0  0  0  0
   -3.6296   -1.6097    1.5388 H   0  0  0  0  0  0  0  0  0  0  0  0
   -3.9837    1.0167    1.1781 H   0  0  0  0  0  0  0  0  0  0  0  0
   -3.3977    1.7445   -0.3120 H   0  0  0  0  0  0  0  0  0  0  0  0
    4.4906   -3.6351   -0.0622 H   0  0  0  0  0  0  0  0  0  0  0  0
    3.1478   -2.7962   -0.9597 H   0  0  0  0  0  0  0  0  0  0  0  0
    2.2473   -1.9226    1.1990 H   0  0  0  0  0  0  0  0  0  0  0  0
    3.5932   -2.7462    2.1041 H   0  0  0  0  0  0  0  0  0  0  0  0
    0.3319   -0.8814   -0.9226 H   0  0  0  0  0  0  0  0  0  0  0  0
   -0.5494    0.0751   -2.1322 H   0  0  0  0  0  0  0  0  0  0  0  0
   -5.2729   -2.8321    0.2017 H   0  0  0  0  0  0  0  0  0  0  0  0
   -4.6538   -2.1324   -1.2921 H   0  0  0  0  0  0  0  0  0  0  0  0
   -5.0013    0.4951   -1.6533 H   0  0  0  0  0  0  0  0  0  0  0  0
   -5.8319    1.3826   -0.3774 H   0  0  0  0  0  0  0  0  0  0  0  0
    2.8721    2.6846    0.9220 H   0  0  0  0  0  0  0  0  0  0  0  0
    3.4001    2.2970   -0.7304 H   0  0  0  0  0  0  0  0  0  0  0  0
   -6.6969   -0.9502   -0.6283 H   0  0  0  0  0  0  0  0  0  0  0  0
   -6.0522   -0.6435    0.9826 H   0  0  0  0  0  0  0  0  0  0  0  0
    3.1502    0.4834    1.5485 H   0  0  0  0  0  0  0  0  0  0  0  0
   -0.4675    3.1603    0.9815 H   0  0  0  0  0  0  0  0  0  0  0  0
  1  9  1  0  0  0  0
  1 15  1  0  0  0  0
  2  8  1  0  0  0  0
  2 46  1  0  0  0  0
  3 20  2  0  0  0  0
  4  6  1  0  0  0  0
  4  7  1  0  0  0  0
  4 26  1  0  0  0  0
  5 18  1  0  0  0  0
  5 20  1  0  0  0  0
  5 45  1  0  0  0  0
  6  8  1  0  0  0  0
  6 15  1  0  0  0  0
  6 21  1  0  0  0  0
  7 11  1  0  0  0  0
  7 12  1  0  0  0  0
  7 22  1  0  0  0  0
  8  9  1  0  0  0  0
  8 23  1  0  0  0  0
  9 18  1  0  0  0  0
  9 24  1  0  0  0  0
 10 13  1  0  0  0  0
 10 14  1  0  0  0  0
 10 20  1  0  0  0  0
 10 25  1  0  0  0  0
 11 16  1  0  0  0  0
 11 27  1  0  0  0  0
 11 28  1  0  0  0  0
 12 17  1  0  0  0  0
 12 29  1  0  0  0  0
 12 30  1  0  0  0  0
 13 14  1  0  0  0  0
 13 31  1  0  0  0  0
 13 32  1  0  0  0  0
 14 33  1  0  0  0  0
 14 34  1  0  0  0  0
 15 35  1  0  0  0  0
 15 36  1  0  0  0  0
 16 19  1  0  0  0  0
 16 37  1  0  0  0  0
 16 38  1  0  0  0  0
 17 19  1  0  0  0  0
 17 39  1  0  0  0  0
 17 40  1  0  0  0  0
 18 41  1  0  0  0  0
 18 42  1  0  0  0  0
 19 43  1  0  0  0  0
 19 44  1  0  0  0  0
M  END
> <PUBCHEM_COMPOUND_CID>
75367065

> <PUBCHEM_CONFORMER_RMSD>
0.8

> <PUBCHEM_CONFORMER_DIVERSEORDER>
1
53
37
121
105
88
126
61
107
95
60
51
81
90
94
25
113
110
109
22
97
36
101
47
106
5
58
41
59
71
102
8
82
3
35
120
99
39
46
54
55
100
125
115
19
13
108
103
30
14
72
63
21
116
15
117
62
49
38
89
75
98
50
118
65
84
67
27
20
85
68
96
66
111
64
122
12
70
86
57
92
45
112
73
119
78
29
87
44
48
104
74
80
123
26
4
77
114
16
69
42
93
2
52
124
56
28
32
91
76
40
79
9
10
33
18
34
23
83
31
6
17
11
7
43
24

> <PUBCHEM_MMFF94_PARTIAL_CHARGES>
23
1 -0.56
10 -0.1
13 -0.2
14 -0.2
15 0.28
18 0.3
2 -0.68
20 0.63
25 0.1
26 0.36
3 -0.57
31 0.1
32 0.1
33 0.1
34 0.1
4 -0.9
45 0.37
46 0.4
5 -0.73
6 0.27
7 0.27
8 0.28
9 0.28

> <PUBCHEM_EFFECTIVE_ROTOR_COUNT>
8.8

> <PUBCHEM_PHARMACOPHORE_FEATURES>
9
1 1 acceptor
1 2 acceptor
1 2 donor
1 3 acceptor
1 4 cation
1 4 donor
1 5 donor
5 1 6 8 9 15 rings
6 7 11 12 16 17 19 rings

> <PUBCHEM_HEAVY_ATOM_COUNT>
20

> <PUBCHEM_ATOM_DEF_STEREO_COUNT>
3

> <PUBCHEM_ATOM_UDEF_STEREO_COUNT>
0

> <PUBCHEM_BOND_DEF_STEREO_COUNT>
0

> <PUBCHEM_BOND_UDEF_STEREO_COUNT>
0

> <PUBCHEM_ISOTOPIC_ATOM_COUNT>
0

> <PUBCHEM_COMPONENT_COUNT>
1

> <PUBCHEM_CACTVS_TAUTO_COUNT>
2

> <PUBCHEM_CONFORMER_ID>
047E029900000001

> <PUBCHEM_MMFF94_ENERGY>
25.4279

> <PUBCHEM_FEATURE_SELFOVERLAP>
45.672

> <PUBCHEM_SHAPE_FINGERPRINT>
11405975 8 18412268359062552321
11595378 159 14907913647562892227
11796584 16 18343869930826044799
12107183 9 18051416171519264433
12596602 18 17346597521145479650
12617007 42 16588027930766843956
12824470 246 18264767667152206392
13073987 5 18342741849408196817
13167823 11 18411698824671091071
13533116 47 18411698833340030059
13583140 156 18057038232249020801
14251751 18 18041547045448051018
14347332 77 18410005560085600311
14573314 32 18113894962089875837
14866123 147 17764026861427140961
15183329 4 18409446960722903781
15664445 248 17458345277691640092
15848702 151 18113332037885009701
17349148 13 17275387625092419429
17857418 61 18409163312039248991
1813 80 16950561077809207565
18222031 100 17561363976141689916
20281475 54 18334579022868675212
20369508 70 18272087231574262456
20645477 70 18408040727852186806
21033648 29 15554166965390397995
21250096 35 18343018882745001939
21279426 13 18264482906573052037
2215653 11 18334287661394240023
22224240 67 18268981163704581976
23559900 14 18336262452432972649
239999 70 18272657887352939404
3004659 81 18114180800885520066
33382 64 18335710489522651643
3421961 26 18410568488173671632
345986 75 18271800168771124002
4072396 5 17346599656065686397
4340502 62 18341324613290268232
4463277 69 18408322168358577926
46194498 28 17167864218053392695
465052 167 18201442467234095390
4990 188 16298387980634469545
5104073 3 18130794486163630369
5207 123 18335700481847976982
59682541 35 18271791421231283394
633830 44 15864074290825408789
6443956 14 18334294249509815100
7970288 3 18194962929522619126
8509985 295 18202281424733915805
960060 61 17894355475250600470
9709674 26 18115309015711144259

> <PUBCHEM_SHAPE_MULTIPOLES>
384.02
11.81
2.67
1.11
9.31
0.72
-0.06
6.83
-0.85
-2.17
0.64
-0.63
-0.22
-0.34

> <PUBCHEM_SHAPE_SELFOVERLAP>
782.155

> <PUBCHEM_SHAPE_VOLUME>
223.2

> <PUBCHEM_COORDINATE_TYPE>
2
5
10

$$$$
