51136649
  -OEChem-12032416143D

 59 62  0     1  0  0  0  0  0999 V2000
    0.8285    3.4631    1.7491 O   0  0  0  0  0  0  0  0  0  0  0  0
    5.9985   -2.9249    0.7241 O   0  0  0  0  0  0  0  0  0  0  0  0
    6.3535   -0.7362    0.2098 O   0  0  0  0  0  0  0  0  0  0  0  0
   -5.2654   -1.6543    1.3671 O   0  0  0  0  0  0  0  0  0  0  0  0
    1.8072    2.0314    0.1786 N   0  0  0  0  0  0  0  0  0  0  0  0
    0.1940   -1.6497   -1.9802 N   0  0  0  0  0  0  0  0  0  0  0  0
    2.1684   -0.2620   -0.7077 C   0  0  2  0  0  0  0  0  0  0  0  0
    3.5813   -0.2436   -0.0704 C   0  0  1  0  0  0  0  0  0  0  0  0
    3.6424    0.7001    1.1427 C   0  0  0  0  0  0  0  0  0  0  0  0
    1.7120    1.1766   -1.0131 C   0  0  0  0  0  0  0  0  0  0  0  0
    3.1358    2.0945    0.7845 C   0  0  0  0  0  0  0  0  0  0  0  0
    1.1136   -0.9872    0.1372 C   0  0  0  0  0  0  0  0  0  0  0  0
    4.0898   -1.6356    0.3037 C   0  0  0  0  0  0  0  0  0  0  0  0
   -0.0472   -1.4000   -0.7355 C   0  0  0  0  0  0  0  0  0  0  0  0
    0.7546    2.7512    0.7488 C   0  0  0  0  0  0  0  0  0  0  0  0
   -1.4002   -1.4918   -0.1299 C   0  0  0  0  0  0  0  0  0  0  0  0
    5.5903   -1.6721    0.3956 C   0  0  0  0  0  0  0  0  0  0  0  0
   -2.4878   -1.4913   -1.0125 C   0  0  0  0  0  0  0  0  0  0  0  0
   -2.2211   -1.3852   -2.4846 C   0  0  0  0  0  0  0  0  0  0  0  0
   -0.9222   -2.1091   -2.8138 C   0  0  0  0  0  0  0  0  0  0  0  0
   -0.5650    2.6633    0.1135 C   0  0  0  0  0  0  0  0  0  0  0  0
   -1.6071   -1.5615    1.2490 C   0  0  0  0  0  0  0  0  0  0  0  0
   -3.7889   -1.5349   -0.5040 C   0  0  0  0  0  0  0  0  0  0  0  0
   -2.9096   -1.6204    1.7467 C   0  0  0  0  0  0  0  0  0  0  0  0
   -3.9975   -1.6044    0.8735 C   0  0  0  0  0  0  0  0  0  0  0  0
   -0.7308    3.0715   -1.2100 C   0  0  0  0  0  0  0  0  0  0  0  0
   -1.6534    2.1699    0.8328 C   0  0  0  0  0  0  0  0  0  0  0  0
   -1.9852    2.9864   -1.8142 C   0  0  0  0  0  0  0  0  0  0  0  0
   -2.9077    2.0848    0.2286 C   0  0  0  0  0  0  0  0  0  0  0  0
   -3.0737    2.4931   -1.0949 C   0  0  0  0  0  0  0  0  0  0  0  0
   -5.4072   -1.7218    2.7853 C   0  0  0  0  0  0  0  0  0  0  0  0
    2.3004   -0.7710   -1.6708 H   0  0  0  0  0  0  0  0  0  0  0  0
    4.2521    0.1752   -0.8355 H   0  0  0  0  0  0  0  0  0  0  0  0
    3.0297    0.2946    1.9580 H   0  0  0  0  0  0  0  0  0  0  0  0
    4.6651    0.7825    1.5262 H   0  0  0  0  0  0  0  0  0  0  0  0
    0.7122    1.1415   -1.4396 H   0  0  0  0  0  0  0  0  0  0  0  0
    2.3660    1.6224   -1.7729 H   0  0  0  0  0  0  0  0  0  0  0  0
    3.1255    2.7247    1.6795 H   0  0  0  0  0  0  0  0  0  0  0  0
    3.8050    2.5700    0.0576 H   0  0  0  0  0  0  0  0  0  0  0  0
    1.5097   -1.9148    0.5628 H   0  0  0  0  0  0  0  0  0  0  0  0
    0.7842   -0.3553    0.9662 H   0  0  0  0  0  0  0  0  0  0  0  0
    3.8003   -2.3556   -0.4710 H   0  0  0  0  0  0  0  0  0  0  0  0
    3.6786   -1.9611    1.2655 H   0  0  0  0  0  0  0  0  0  0  0  0
   -3.0400   -1.8271   -3.0631 H   0  0  0  0  0  0  0  0  0  0  0  0
   -2.1474   -0.3250   -2.7543 H   0  0  0  0  0  0  0  0  0  0  0  0
   -1.0355   -3.1935   -2.6912 H   0  0  0  0  0  0  0  0  0  0  0  0
   -0.6692   -1.9314   -3.8647 H   0  0  0  0  0  0  0  0  0  0  0  0
   -0.7814   -1.5855    1.9530 H   0  0  0  0  0  0  0  0  0  0  0  0
   -4.6405   -1.5153   -1.1793 H   0  0  0  0  0  0  0  0  0  0  0  0
    6.9752   -2.9848    0.7931 H   0  0  0  0  0  0  0  0  0  0  0  0
   -3.0038   -1.6762    2.8260 H   0  0  0  0  0  0  0  0  0  0  0  0
    0.1010    3.4783   -1.7797 H   0  0  0  0  0  0  0  0  0  0  0  0
   -1.5366    1.8463    1.8638 H   0  0  0  0  0  0  0  0  0  0  0  0
   -2.1153    3.3076   -2.8435 H   0  0  0  0  0  0  0  0  0  0  0  0
   -3.7558    1.7030    0.7893 H   0  0  0  0  0  0  0  0  0  0  0  0
   -4.0504    2.4265   -1.5650 H   0  0  0  0  0  0  0  0  0  0  0  0
   -4.9724   -2.6421    3.1900 H   0  0  0  0  0  0  0  0  0  0  0  0
   -5.0098   -0.8250    3.2726 H   0  0  0  0  0  0  0  0  0  0  0  0
   -6.4801   -1.7537    3.0014 H   0  0  0  0  0  0  0  0  0  0  0  0
  1 15  2  0  0  0  0
  2 17  1  0  0  0  0
  2 50  1  0  0  0  0
  3 17  2  0  0  0  0
  4 25  1  0  0  0  0
  4 31  1  0  0  0  0
  5 10  1  0  0  0  0
  5 11  1  0  0  0  0
  5 15  1  0  0  0  0
  6 14  2  0  0  0  0
  6 20  1  0  0  0  0
  7  8  1  0  0  0  0
  7 10  1  0  0  0  0
  7 12  1  0  0  0  0
  7 32  1  0  0  0  0
  8  9  1  0  0  0  0
  8 13  1  0  0  0  0
  8 33  1  0  0  0  0
  9 11  1  0  0  0  0
  9 34  1  0  0  0  0
  9 35  1  0  0  0  0
 10 36  1  0  0  0  0
 10 37  1  0  0  0  0
 11 38  1  0  0  0  0
 11 39  1  0  0  0  0
 12 14  1  0  0  0  0
 12 40  1  0  0  0  0
 12 41  1  0  0  0  0
 13 17  1  0  0  0  0
 13 42  1  0  0  0  0
 13 43  1  0  0  0  0
 14 16  1  0  0  0  0
 15 21  1  0  0  0  0
 16 18  2  0  0  0  0
 16 22  1  0  0  0  0
 18 19  1  0  0  0  0
 18 23  1  0  0  0  0
 19 20  1  0  0  0  0
 19 44  1  0  0  0  0
 19 45  1  0  0  0  0
 20 46  1  0  0  0  0
 20 47  1  0  0  0  0
 21 26  2  0  0  0  0
 21 27  1  0  0  0  0
 22 24  2  0  0  0  0
 22 48  1  0  0  0  0
 23 25  2  0  0  0  0
 23 49  1  0  0  0  0
 24 25  1  0  0  0  0
 24 51  1  0  0  0  0
 26 28  1  0  0  0  0
 26 52  1  0  0  0  0
 27 29  2  0  0  0  0
 27 53  1  0  0  0  0
 28 30  2  0  0  0  0
 28 54  1  0  0  0  0
 29 30  1  0  0  0  0
 29 55  1  0  0  0  0
 30 56  1  0  0  0  0
 31 57  1  0  0  0  0
 31 58  1  0  0  0  0
 31 59  1  0  0  0  0
M  END
> <PUBCHEM_COMPOUND_CID>
51136649

> <PUBCHEM_CONFORMER_RMSD>
1

> <PUBCHEM_CONFORMER_DIVERSEORDER>
1
65
34
30
112
98
47
67
59
97
57
77
6
38
44
86
83
72
5
108
106
85
40
39
16
21
49
46
13
51
99
4
107
61
41
23
103
36
37
15
35
90
79
26
78
81
105
82
62
101
71
18
76
93
19
69
89
10
28
14
94
56
52
50
100
31
17
92
95
11
84
58
87
74
33
45
27
88
75
96
20
104
29
24
7
43
3
73
8
91
102
111
68
55
53
80
110
109
54
12
64
42
48
63
22
32
25
2
70
66
60
9

> <PUBCHEM_MMFF94_PARTIAL_CHARGES>
37
1 -0.57
10 0.3
11 0.3
12 0.06
13 0.06
14 0.3
15 0.54
16 0.09
17 0.66
18 -0.14
19 0.14
2 -0.65
20 0.25
21 0.09
22 -0.15
23 -0.15
24 -0.15
25 0.08
26 -0.15
27 -0.15
28 -0.15
29 -0.15
3 -0.57
30 -0.15
31 0.28
4 -0.36
48 0.15
49 0.15
5 -0.66
50 0.5
51 0.15
52 0.15
53 0.15
54 0.15
55 0.15
56 0.15
6 -0.7

> <PUBCHEM_EFFECTIVE_ROTOR_COUNT>
8.6

> <PUBCHEM_PHARMACOPHORE_FEATURES>
10
1 1 acceptor
1 2 acceptor
1 3 acceptor
1 4 acceptor
1 6 acceptor
3 2 3 17 anion
6 16 18 22 23 24 25 rings
6 21 26 27 28 29 30 rings
6 5 7 8 9 10 11 rings
6 6 14 16 18 19 20 rings

> <PUBCHEM_HEAVY_ATOM_COUNT>
31

> <PUBCHEM_ATOM_DEF_STEREO_COUNT>
2

> <PUBCHEM_ATOM_UDEF_STEREO_COUNT>
0

> <PUBCHEM_BOND_DEF_STEREO_COUNT>
0

> <PUBCHEM_BOND_UDEF_STEREO_COUNT>
0

> <PUBCHEM_ISOTOPIC_ATOM_COUNT>
0

> <PUBCHEM_COMPONENT_COUNT>
1

> <PUBCHEM_CACTVS_TAUTO_COUNT>
1

> <PUBCHEM_CONFORMER_ID>
030C488900000001

> <PUBCHEM_MMFF94_ENERGY>
94.6879

> <PUBCHEM_FEATURE_SELFOVERLAP>
50.831

> <PUBCHEM_SHAPE_FINGERPRINT>
10119406 146 17550106957998290422
10190108 129 18191599751265288968
10688039 33 18114466750996392629
10764073 3 18338812121978512345
11135609 12 18261110794357485152
12422481 6 18342750606772387593
12633257 1 17060059284919961826
13140716 1 18341895156324044512
13965767 371 17845382213489119094
14790565 3 17329428857473885504
14840074 17 18052546765699007461
15420108 30 17343785073913048196
16728300 4 18190173499230804490
17492 54 17979041939786884261
17980427 23 16271922770266484298
22182313 1 17843976853262083774
24893992 56 17894628181154286747
3380486 145 18129645513175930480
35225 105 18048855438717757285
469060 322 16515687710527006598
513202 73 18337674114021201210
70251023 43 18196909262107354079
7064713 232 17131284548724416963

> <PUBCHEM_SHAPE_MULTIPOLES>
604.53
10.15
4.31
2.2
9.79
3.29
-0.54
-8.84
5.46
-0.78
0.01
-2.7
-0.9
1.51

> <PUBCHEM_SHAPE_SELFOVERLAP>
1300.794

> <PUBCHEM_SHAPE_VOLUME>
330.2

> <PUBCHEM_COORDINATE_TYPE>
2
5
10

$$$$
