26762305
  -OEChem-12032416173D

 60 62  0     1  0  0  0  0  0999 V2000
    0.8368    2.6609   -1.7548 O   0  0  0  0  0  0  0  0  0  0  0  0
    4.3863   -0.9897    1.7085 O   0  0  0  0  0  0  0  0  0  0  0  0
   -3.8215   -2.7783   -0.5085 O   0  0  0  0  0  0  0  0  0  0  0  0
   -0.1051   -0.5011   -0.2825 N   0  0  1  0  0  0  0  0  0  0  0  0
    0.1517    0.7433   -2.7788 N   0  0  0  0  0  0  0  0  0  0  0  0
    3.1789    0.5475    0.4550 N   0  0  0  0  0  0  0  0  0  0  0  0
    5.4760    0.5265    0.3310 N   0  0  0  0  0  0  0  0  0  0  0  0
   -2.9548   -1.7049    1.3584 N   0  0  0  0  0  0  0  0  0  0  0  0
   -0.0922    0.9612   -0.3257 C   0  0  1  0  0  0  0  0  0  0  0  0
   -0.8077   -1.0923   -1.4194 C   0  0  1  0  0  0  0  0  0  0  0  0
    1.8279    0.1324    0.8975 C   0  0  1  0  0  0  0  0  0  0  0  0
    0.8563    1.3109    0.8171 C   0  0  0  0  0  0  0  0  0  0  0  0
    1.2726   -0.9311   -0.0486 C   0  0  0  0  0  0  0  0  0  0  0  0
   -0.1896   -0.6636   -2.7460 C   0  0  0  0  0  0  0  0  0  0  0  0
    0.3722    1.5223   -1.6651 C   0  0  0  0  0  0  0  0  0  0  0  0
   -0.8968   -2.6158   -1.3205 C   0  0  0  0  0  0  0  0  0  0  0  0
   -1.4741   -3.0464    0.0204 C   0  0  0  0  0  0  0  0  0  0  0  0
    4.3502   -0.0580    0.9059 C   0  0  0  0  0  0  0  0  0  0  0  0
   -2.8798   -2.5142    0.2342 C   0  0  0  0  0  0  0  0  0  0  0  0
    6.8207    0.0901    0.6251 C   0  0  0  0  0  0  0  0  0  0  0  0
   -4.1860   -1.0764    1.7750 C   0  0  0  0  0  0  0  0  0  0  0  0
    7.7879    1.2638    0.5437 C   0  0  0  0  0  0  0  0  0  0  0  0
    7.2359   -1.0338   -0.3162 C   0  0  0  0  0  0  0  0  0  0  0  0
   -4.3614    0.2805    1.1566 C   0  0  0  0  0  0  0  0  0  0  0  0
   -3.8695    1.4120    1.8072 C   0  0  0  0  0  0  0  0  0  0  0  0
   -5.0162    0.4096   -0.0681 C   0  0  0  0  0  0  0  0  0  0  0  0
   -4.0323    2.6728    1.2330 C   0  0  0  0  0  0  0  0  0  0  0  0
   -5.1790    1.6702   -0.6425 C   0  0  0  0  0  0  0  0  0  0  0  0
   -4.6872    2.8018    0.0082 C   0  0  0  0  0  0  0  0  0  0  0  0
   -1.0917    1.3684   -0.1333 H   0  0  0  0  0  0  0  0  0  0  0  0
   -1.8323   -0.6948   -1.4040 H   0  0  0  0  0  0  0  0  0  0  0  0
    1.8969   -0.2417    1.9253 H   0  0  0  0  0  0  0  0  0  0  0  0
    1.3573    2.2771    0.6988 H   0  0  0  0  0  0  0  0  0  0  0  0
    0.2831    1.3526    1.7528 H   0  0  0  0  0  0  0  0  0  0  0  0
    1.8598   -0.9784   -0.9731 H   0  0  0  0  0  0  0  0  0  0  0  0
    1.3180   -1.9183    0.4218 H   0  0  0  0  0  0  0  0  0  0  0  0
    0.7328   -1.2140   -2.9623 H   0  0  0  0  0  0  0  0  0  0  0  0
   -0.8821   -0.8493   -3.5744 H   0  0  0  0  0  0  0  0  0  0  0  0
   -1.5306   -2.9922   -2.1335 H   0  0  0  0  0  0  0  0  0  0  0  0
    0.0889   -3.0784   -1.4528 H   0  0  0  0  0  0  0  0  0  0  0  0
    0.4058    1.1376   -3.6794 H   0  0  0  0  0  0  0  0  0  0  0  0
    3.2499    1.2580   -0.2671 H   0  0  0  0  0  0  0  0  0  0  0  0
   -0.8154   -2.7839    0.8537 H   0  0  0  0  0  0  0  0  0  0  0  0
   -1.5505   -4.1409    0.0395 H   0  0  0  0  0  0  0  0  0  0  0  0
    5.3403    1.2411   -0.3777 H   0  0  0  0  0  0  0  0  0  0  0  0
   -2.1196   -1.5139    1.9038 H   0  0  0  0  0  0  0  0  0  0  0  0
    6.8363   -0.2986    1.6505 H   0  0  0  0  0  0  0  0  0  0  0  0
   -4.1623   -0.9997    2.8680 H   0  0  0  0  0  0  0  0  0  0  0  0
   -5.0338   -1.7238    1.5215 H   0  0  0  0  0  0  0  0  0  0  0  0
    8.8056    0.9515    0.7998 H   0  0  0  0  0  0  0  0  0  0  0  0
    7.4927    2.0588    1.2374 H   0  0  0  0  0  0  0  0  0  0  0  0
    7.8067    1.6957   -0.4632 H   0  0  0  0  0  0  0  0  0  0  0  0
    8.2477   -1.3834   -0.0863 H   0  0  0  0  0  0  0  0  0  0  0  0
    6.5560   -1.8884   -0.2302 H   0  0  0  0  0  0  0  0  0  0  0  0
    7.2175   -0.7034   -1.3607 H   0  0  0  0  0  0  0  0  0  0  0  0
   -3.3548    1.3242    2.7602 H   0  0  0  0  0  0  0  0  0  0  0  0
   -5.4075   -0.4622   -0.5851 H   0  0  0  0  0  0  0  0  0  0  0  0
   -3.6481    3.5537    1.7388 H   0  0  0  0  0  0  0  0  0  0  0  0
   -5.6890    1.7709   -1.5961 H   0  0  0  0  0  0  0  0  0  0  0  0
   -4.8135    3.7833   -0.4392 H   0  0  0  0  0  0  0  0  0  0  0  0
  1 15  2  0  0  0  0
  2 18  2  0  0  0  0
  3 19  2  0  0  0  0
  4  9  1  0  0  0  0
  4 10  1  0  0  0  0
  4 13  1  0  0  0  0
  5 14  1  0  0  0  0
  5 15  1  0  0  0  0
  5 41  1  0  0  0  0
  6 11  1  0  0  0  0
  6 18  1  0  0  0  0
  6 42  1  0  0  0  0
  7 18  1  0  0  0  0
  7 20  1  0  0  0  0
  7 45  1  0  0  0  0
  8 19  1  0  0  0  0
  8 21  1  0  0  0  0
  8 46  1  0  0  0  0
  9 12  1  0  0  0  0
  9 15  1  0  0  0  0
  9 30  1  0  0  0  0
 10 14  1  0  0  0  0
 10 16  1  0  0  0  0
 10 31  1  0  0  0  0
 11 12  1  0  0  0  0
 11 13  1  0  0  0  0
 11 32  1  0  0  0  0
 12 33  1  0  0  0  0
 12 34  1  0  0  0  0
 13 35  1  0  0  0  0
 13 36  1  0  0  0  0
 14 37  1  0  0  0  0
 14 38  1  0  0  0  0
 16 17  1  0  0  0  0
 16 39  1  0  0  0  0
 16 40  1  0  0  0  0
 17 19  1  0  0  0  0
 17 43  1  0  0  0  0
 17 44  1  0  0  0  0
 20 22  1  0  0  0  0
 20 23  1  0  0  0  0
 20 47  1  0  0  0  0
 21 24  1  0  0  0  0
 21 48  1  0  0  0  0
 21 49  1  0  0  0  0
 22 50  1  0  0  0  0
 22 51  1  0  0  0  0
 22 52  1  0  0  0  0
 23 53  1  0  0  0  0
 23 54  1  0  0  0  0
 23 55  1  0  0  0  0
 24 25  2  0  0  0  0
 24 26  1  0  0  0  0
 25 27  1  0  0  0  0
 25 56  1  0  0  0  0
 26 28  2  0  0  0  0
 26 57  1  0  0  0  0
 27 29  2  0  0  0  0
 27 58  1  0  0  0  0
 28 29  1  0  0  0  0
 28 59  1  0  0  0  0
 29 60  1  0  0  0  0
M  END
> <PUBCHEM_COMPOUND_CID>
26762305

> <PUBCHEM_CONFORMER_RMSD>
1

> <PUBCHEM_CONFORMER_DIVERSEORDER>
6
42
10
177
59
75
147
151
99
34
58
172
186
146
102
98
112
136
182
118
97
96
178
120
161
13
142
184
162
141
133
114
155
125
129
47
187
123
61
73
79
66
145
149
171
71
174
192
124
173
85
38
134
50
143
160
95
166
119
169
88
23
168
158
150
51
48
7
92
122
65
44
91
137
135
55
60
30
103
190
83
121
139
105
152
76
115
164
185
132
117
107
2
128
138
94
41
81
3
62
29
19
68
82
165
157
176
111
144
140
4
25
183
57
104
106
17
37
14
153
84
191
80
54
49
131
170
179
110
15
69
154
32
189
26
45
101
180
175
163
40
130
74
87
64
77
12
127
8
28
126
56
20
52
22
35
188
93
36
39
24
109
159
181
31
167
116
21
100
156
148
43
86
67
27
89
63
11
16
18
70
78
1
113
5
9
33
90
53
46
72
108

> <PUBCHEM_MMFF94_PARTIAL_CHARGES>
34
1 -0.57
10 0.27
11 0.3
13 0.27
14 0.3
15 0.57
17 0.06
18 0.69
19 0.57
2 -0.57
20 0.3
21 0.44
24 -0.14
25 -0.15
26 -0.15
27 -0.15
28 -0.15
29 -0.15
3 -0.57
4 -0.81
41 0.37
42 0.37
45 0.37
46 0.37
5 -0.73
56 0.15
57 0.15
58 0.15
59 0.15
6 -0.73
60 0.15
7 -0.73
8 -0.73
9 0.33

> <PUBCHEM_EFFECTIVE_ROTOR_COUNT>
11.2

> <PUBCHEM_PHARMACOPHORE_FEATURES>
12
1 1 acceptor
1 2 acceptor
1 3 acceptor
1 4 cation
1 5 donor
1 6 donor
1 7 donor
1 8 donor
3 20 22 23 hydrophobe
5 4 9 11 12 13 rings
6 24 25 26 27 28 29 rings
6 4 5 9 10 14 15 rings

> <PUBCHEM_HEAVY_ATOM_COUNT>
29

> <PUBCHEM_ATOM_DEF_STEREO_COUNT>
3

> <PUBCHEM_ATOM_UDEF_STEREO_COUNT>
0

> <PUBCHEM_BOND_DEF_STEREO_COUNT>
0

> <PUBCHEM_BOND_UDEF_STEREO_COUNT>
0

> <PUBCHEM_ISOTOPIC_ATOM_COUNT>
0

> <PUBCHEM_COMPONENT_COUNT>
1

> <PUBCHEM_CACTVS_TAUTO_COUNT>
18

> <PUBCHEM_CONFORMER_ID>
01985C4100000006

> <PUBCHEM_MMFF94_ENERGY>
54.2991

> <PUBCHEM_FEATURE_SELFOVERLAP>
61.173

> <PUBCHEM_SHAPE_FINGERPRINT>
10554248 39 14117527584386768456
10577160 183 16343698791139929822
10675989 125 17187007489089291729
10764073 3 17979918202792596662
11488393 25 15911657709332597572
12128747 34 18131915949016236874
12422481 6 18113903710811826094
13009979 54 18045786951279478187
13726171 33 8213882387291823695
14114206 34 9871187147543601595
14856354 85 16805615779845236851
15021287 119 17749112218436290900
15183329 4 14548731786371494696
17980427 23 18337117782728479501
20567600 75 17632305562014903198
21033648 29 18270134409135006107
2838139 119 15554448491917441418
3117164 225 18410292557852436584
4015057 19 13398338131858609066
4938544 92 18409727387026045866
57527573 199 18057335998163799305
6086070 43 16056867045007185002
6287921 2 11101007529114057033
6328613 192 18410293627404736728
7226269 152 17989488502429908344

> <PUBCHEM_SHAPE_MULTIPOLES>
554.29
15.43
3.13
2.03
29.81
0.94
1.14
-5.55
-6.41
-4.46
0.28
-0.73
-0.13
0

> <PUBCHEM_SHAPE_SELFOVERLAP>
1148.966

> <PUBCHEM_SHAPE_VOLUME>
315.7

> <PUBCHEM_COORDINATE_TYPE>
2
5
10

$$$$
