51138170
  -OEChem-12032416223D

 50 53  0     1  0  0  0  0  0999 V2000
   -2.3185    3.6929    1.2203 O   0  0  0  0  0  0  0  0  0  0  0  0
   -3.4020    2.9387   -0.6380 O   0  0  0  0  0  0  0  0  0  0  0  0
    2.7687    0.0764   -0.7074 N   0  0  0  0  0  0  0  0  0  0  0  0
   -2.2424    0.5402   -0.2860 N   0  0  0  0  0  0  0  0  0  0  0  0
    4.9475   -0.1380    0.3505 C   0  0  0  0  0  0  0  0  0  0  0  0
    5.2177    1.1263    1.1122 C   0  0  0  0  0  0  0  0  0  0  0  0
    6.3404    0.4168    0.4135 C   0  0  0  0  0  0  0  0  0  0  0  0
    4.1901   -0.0677   -0.9393 C   0  0  0  0  0  0  0  0  0  0  0  0
    0.6334   -0.3781   -0.2068 C   0  0  0  0  0  0  0  0  0  0  0  0
    1.9182   -0.9251   -0.3023 C   0  0  0  0  0  0  0  0  0  0  0  0
   -1.9074   -0.7449    0.3419 C   0  0  2  0  0  0  0  0  0  0  0  0
    0.7595    1.0161   -0.5356 C   0  0  0  0  0  0  0  0  0  0  0  0
   -0.4562   -1.2096    0.1824 C   0  0  0  0  0  0  0  0  0  0  0  0
    2.0846    1.2478   -0.8448 C   0  0  0  0  0  0  0  0  0  0  0  0
   -0.3129    2.0532   -0.5583 C   0  0  0  0  0  0  0  0  0  0  0  0
   -1.5433    1.6896    0.2706 C   0  0  1  0  0  0  0  0  0  0  0  0
   -2.9157   -1.7439   -0.2538 C   0  0  0  0  0  0  0  0  0  0  0  0
   -4.3143   -1.6192    0.3585 C   0  0  0  0  0  0  0  0  0  0  0  0
    2.2091   -2.2595   -0.0140 C   0  0  0  0  0  0  0  0  0  0  0  0
   -0.1322   -2.5494    0.5163 C   0  0  0  0  0  0  0  0  0  0  0  0
    1.1591   -3.0628    0.4115 C   0  0  0  0  0  0  0  0  0  0  0  0
   -2.5282    2.8168    0.2075 C   0  0  0  0  0  0  0  0  0  0  0  0
   -5.2291   -2.6838   -0.2518 C   0  0  0  0  0  0  0  0  0  0  0  0
   -4.9261   -0.2328    0.1529 C   0  0  0  0  0  0  0  0  0  0  0  0
    4.7529   -1.0394    0.9179 H   0  0  0  0  0  0  0  0  0  0  0  0
    4.8863    2.0700    0.6969 H   0  0  0  0  0  0  0  0  0  0  0  0
    5.1857    1.0785    2.1938 H   0  0  0  0  0  0  0  0  0  0  0  0
    7.0643   -0.1064    1.0262 H   0  0  0  0  0  0  0  0  0  0  0  0
    6.7574    0.8822   -0.4711 H   0  0  0  0  0  0  0  0  0  0  0  0
    4.3460   -0.9786   -1.5280 H   0  0  0  0  0  0  0  0  0  0  0  0
    4.5180    0.7749   -1.5601 H   0  0  0  0  0  0  0  0  0  0  0  0
   -2.0876   -0.6727    1.4233 H   0  0  0  0  0  0  0  0  0  0  0  0
    2.5860    2.1586   -1.1453 H   0  0  0  0  0  0  0  0  0  0  0  0
   -0.5947    2.2461   -1.6029 H   0  0  0  0  0  0  0  0  0  0  0  0
    0.1021    2.9989   -0.1834 H   0  0  0  0  0  0  0  0  0  0  0  0
   -1.2894    1.5194    1.3251 H   0  0  0  0  0  0  0  0  0  0  0  0
   -2.9649   -1.6343   -1.3474 H   0  0  0  0  0  0  0  0  0  0  0  0
   -2.6042   -2.7810   -0.1004 H   0  0  0  0  0  0  0  0  0  0  0  0
   -2.1261    0.4924   -1.2975 H   0  0  0  0  0  0  0  0  0  0  0  0
   -4.2534   -1.8126    1.4370 H   0  0  0  0  0  0  0  0  0  0  0  0
    3.2115   -2.6646   -0.0971 H   0  0  0  0  0  0  0  0  0  0  0  0
   -0.8934   -3.2224    0.9040 H   0  0  0  0  0  0  0  0  0  0  0  0
    1.3482   -4.1002    0.6745 H   0  0  0  0  0  0  0  0  0  0  0  0
   -4.8263   -3.6886   -0.0856 H   0  0  0  0  0  0  0  0  0  0  0  0
   -6.2250   -2.6486    0.2025 H   0  0  0  0  0  0  0  0  0  0  0  0
   -5.3448   -2.5381   -1.3314 H   0  0  0  0  0  0  0  0  0  0  0  0
   -5.9929   -0.2490    0.4066 H   0  0  0  0  0  0  0  0  0  0  0  0
   -4.4793    0.5111    0.8179 H   0  0  0  0  0  0  0  0  0  0  0  0
   -4.8497    0.1003   -0.8874 H   0  0  0  0  0  0  0  0  0  0  0  0
   -2.9536    4.4401    1.1957 H   0  0  0  0  0  0  0  0  0  0  0  0
  1 22  1  0  0  0  0
  1 50  1  0  0  0  0
  2 22  2  0  0  0  0
  3  8  1  0  0  0  0
  3 10  1  0  0  0  0
  3 14  1  0  0  0  0
  4 11  1  0  0  0  0
  4 16  1  0  0  0  0
  4 39  1  0  0  0  0
  5  6  1  0  0  0  0
  5  7  1  0  0  0  0
  5  8  1  0  0  0  0
  5 25  1  0  0  0  0
  6  7  1  0  0  0  0
  6 26  1  0  0  0  0
  6 27  1  0  0  0  0
  7 28  1  0  0  0  0
  7 29  1  0  0  0  0
  8 30  1  0  0  0  0
  8 31  1  0  0  0  0
  9 10  1  0  0  0  0
  9 12  1  0  0  0  0
  9 13  2  0  0  0  0
 10 19  2  0  0  0  0
 11 13  1  0  0  0  0
 11 17  1  0  0  0  0
 11 32  1  0  0  0  0
 12 14  2  0  0  0  0
 12 15  1  0  0  0  0
 13 20  1  0  0  0  0
 14 33  1  0  0  0  0
 15 16  1  0  0  0  0
 15 34  1  0  0  0  0
 15 35  1  0  0  0  0
 16 22  1  0  0  0  0
 16 36  1  0  0  0  0
 17 18  1  0  0  0  0
 17 37  1  0  0  0  0
 17 38  1  0  0  0  0
 18 23  1  0  0  0  0
 18 24  1  0  0  0  0
 18 40  1  0  0  0  0
 19 21  1  0  0  0  0
 19 41  1  0  0  0  0
 20 21  2  0  0  0  0
 20 42  1  0  0  0  0
 21 43  1  0  0  0  0
 23 44  1  0  0  0  0
 23 45  1  0  0  0  0
 23 46  1  0  0  0  0
 24 47  1  0  0  0  0
 24 48  1  0  0  0  0
 24 49  1  0  0  0  0
M  END
> <PUBCHEM_COMPOUND_CID>
51138170

> <PUBCHEM_CONFORMER_RMSD>
0.8

> <PUBCHEM_CONFORMER_DIVERSEORDER>
1
12
15
5
16
4
6
14
13
2
3
7
11
9
8
10

> <PUBCHEM_MMFF94_PARTIAL_CHARGES>
30
1 -0.65
10 -0.15
11 0.41
12 -0.18
13 -0.14
14 -0.3
15 0.18
16 0.33
19 -0.15
2 -0.57
20 -0.15
21 -0.15
22 0.66
25 0.1
26 0.1
27 0.1
28 0.1
29 0.1
3 0.05
33 0.15
39 0.36
4 -0.9
41 0.15
42 0.15
43 0.15
5 -0.19
50 0.5
6 -0.2
7 -0.2
8 0.35

> <PUBCHEM_EFFECTIVE_ROTOR_COUNT>
6.4

> <PUBCHEM_PHARMACOPHORE_FEATURES>
10
1 1 acceptor
1 2 acceptor
1 3 cation
1 4 cation
1 4 donor
3 1 2 22 anion
3 18 23 24 hydrophobe
5 3 9 10 12 14 rings
6 9 10 13 19 20 21 rings
7 4 9 11 12 13 15 16 rings

> <PUBCHEM_HEAVY_ATOM_COUNT>
24

> <PUBCHEM_ATOM_DEF_STEREO_COUNT>
2

> <PUBCHEM_ATOM_UDEF_STEREO_COUNT>
0

> <PUBCHEM_BOND_DEF_STEREO_COUNT>
0

> <PUBCHEM_BOND_UDEF_STEREO_COUNT>
0

> <PUBCHEM_ISOTOPIC_ATOM_COUNT>
0

> <PUBCHEM_COMPONENT_COUNT>
1

> <PUBCHEM_CACTVS_TAUTO_COUNT>
1

> <PUBCHEM_CONFORMER_ID>
030C4E7A00000001

> <PUBCHEM_MMFF94_ENERGY>
55.8121

> <PUBCHEM_FEATURE_SELFOVERLAP>
50.931

> <PUBCHEM_SHAPE_FINGERPRINT>
10319926 262 18341033140040935250
10906281 52 18190481491598577902
10967382 1 18192720161881933567
1100329 8 18119528988256225298
11578080 2 17846201260159171873
11646440 116 18266749150151108179
12236239 1 17603580855362776314
12293681 4 18188217618748264939
12390115 104 18341907255705742664
12403259 415 18130783478284016376
12403260 363 18335139825749820700
12788726 201 18266194991995572540
12838862 33 18337377276584503373
12839892 36 18262787489665815410
12930653 34 18339923723306015950
13140716 1 18047756189436778074
13631057 29 18412542124282777293
13862211 1 18263643020811974079
14178342 30 18336548209861225636
14787075 74 18130221674680629096
15196674 1 18336547106160041102
16087824 20 18410855418656140677
16752209 62 18335436676857137790
17349148 13 18040155140804309822
17980427 23 17531540827530281604
20028762 73 18270401727573286966
20510252 161 18342460348302810680
21033648 29 17988910185790292816
21236236 1 18410011018408628788
21267235 1 18336838596895341783
21279426 13 18270123380176169270
22393880 68 18267030453292086758
229495 10 14044641923951827012
23402539 116 18339357573354357735
23557571 272 18343591728603578294
23558518 356 18261967227989575411
23559900 14 18411408531989910761
23566358 2 18337672993123986015
283562 15 18409729573391337299
350125 39 18336830883086533988
352729 6 18044394930798499982
392239 28 18342461456088193568
463206 1 18122065562082930991
469060 322 18336842951955042945
474229 33 18410009970479072910
5104073 3 18264772060782528802
58260988 647 14202214078053438320
58807428 26 18115868504173807818
59554788 281 17748834016261817082
59554788 62 17677333779670325133
59755656 215 18409449185163055118
6004065 56 17982162620063772207
7226269 152 18335135453119841378
9981440 41 18260831475095641995

> <PUBCHEM_SHAPE_MULTIPOLES>
472.21
10.97
3.73
0.89
6.52
1.42
0.04
-1.13
1.38
-4.17
0.59
0.42
0.27
-0.15

> <PUBCHEM_SHAPE_SELFOVERLAP>
1012.076

> <PUBCHEM_SHAPE_VOLUME>
262.5

> <PUBCHEM_COORDINATE_TYPE>
2
5
10

$$$$
