40779327
  -OEChem-12032416293D

 61 65  0     1  0  0  0  0  0999 V2000
   -4.5273    0.3055   -1.5648 O   0  0  0  0  0  0  0  0  0  0  0  0
    3.6899   -2.9614    0.3434 O   0  0  0  0  0  0  0  0  0  0  0  0
   -0.7598    2.8437   -0.7449 N   0  0  2  0  0  0  0  0  0  0  0  0
   -2.4008   -0.5205   -1.0905 N   0  0  0  0  0  0  0  0  0  0  0  0
    3.7985    1.6050   -0.1670 N   0  0  0  0  0  0  0  0  0  0  0  0
    4.6454    0.5679   -0.2829 N   0  0  0  0  0  0  0  0  0  0  0  0
    0.3108    1.9321    1.4473 C   0  0  2  0  0  0  0  0  0  0  0  0
    1.4105    2.2529    0.3976 C   0  0  2  0  0  0  0  0  0  0  0  0
   -1.4411    1.5890   -0.3301 C   0  0  2  0  0  0  0  0  0  0  0  0
   -0.6912    0.9249    0.8447 C   0  0  0  0  0  0  0  0  0  0  0  0
   -0.4615    3.2450    1.6985 C   0  0  0  0  0  0  0  0  0  0  0  0
    0.6906    2.5947   -0.9382 C   0  0  0  0  0  0  0  0  0  0  0  0
   -0.9181    3.8301    0.3506 C   0  0  0  0  0  0  0  0  0  0  0  0
   -1.6421    0.6213   -1.4983 C   0  0  0  0  0  0  0  0  0  0  0  0
    2.5363    1.2469    0.2059 C   0  0  0  0  0  0  0  0  0  0  0  0
    2.5589   -0.1196    0.3430 C   0  0  0  0  0  0  0  0  0  0  0  0
   -4.3300   -1.9088   -0.6894 C   0  0  0  0  0  0  0  0  0  0  0  0
   -3.7901   -0.5881   -1.1564 C   0  0  0  0  0  0  0  0  0  0  0  0
    3.8824   -0.4829    0.0299 C   0  0  0  0  0  0  0  0  0  0  0  0
   -3.9113   -2.1940    0.7545 C   0  0  0  0  0  0  0  0  0  0  0  0
   -5.8466   -1.9573   -0.8864 C   0  0  0  0  0  0  0  0  0  0  0  0
    4.2791    2.9409   -0.4339 C   0  0  0  0  0  0  0  0  0  0  0  0
   -4.7070   -1.3964    1.7872 C   0  0  0  0  0  0  0  0  0  0  0  0
   -6.6121   -1.1466    0.1580 C   0  0  0  0  0  0  0  0  0  0  0  0
   -6.2102   -1.5341    1.5764 C   0  0  0  0  0  0  0  0  0  0  0  0
    4.4175   -1.8563    0.0331 C   0  0  0  0  0  0  0  0  0  0  0  0
    5.7130   -2.2013   -0.2745 C   0  0  0  0  0  0  0  0  0  0  0  0
    5.7862   -3.6089   -0.1451 C   0  0  0  0  0  0  0  0  0  0  0  0
    4.5301   -4.0236    0.2326 C   0  0  0  0  0  0  0  0  0  0  0  0
    0.7408    1.5463    2.3776 H   0  0  0  0  0  0  0  0  0  0  0  0
    1.8919    3.1755    0.7552 H   0  0  0  0  0  0  0  0  0  0  0  0
   -2.4484    1.8585    0.0215 H   0  0  0  0  0  0  0  0  0  0  0  0
   -0.1901    0.0084    0.5307 H   0  0  0  0  0  0  0  0  0  0  0  0
   -1.4175    0.6334    1.6145 H   0  0  0  0  0  0  0  0  0  0  0  0
    0.1732    3.9688    2.2228 H   0  0  0  0  0  0  0  0  0  0  0  0
   -1.3294    3.0499    2.3402 H   0  0  0  0  0  0  0  0  0  0  0  0
    1.1470    3.4942   -1.3721 H   0  0  0  0  0  0  0  0  0  0  0  0
    0.8459    1.8137   -1.6916 H   0  0  0  0  0  0  0  0  0  0  0  0
   -1.9652    4.1498    0.4187 H   0  0  0  0  0  0  0  0  0  0  0  0
   -0.3483    4.7387    0.1178 H   0  0  0  0  0  0  0  0  0  0  0  0
   -0.6910    0.2456   -1.8887 H   0  0  0  0  0  0  0  0  0  0  0  0
   -2.1672    1.1224   -2.3198 H   0  0  0  0  0  0  0  0  0  0  0  0
   -1.8784   -1.3384   -0.7925 H   0  0  0  0  0  0  0  0  0  0  0  0
    1.7537   -0.7747    0.6365 H   0  0  0  0  0  0  0  0  0  0  0  0
   -3.8796   -2.6713   -1.3395 H   0  0  0  0  0  0  0  0  0  0  0  0
   -2.8431   -2.0290    0.9279 H   0  0  0  0  0  0  0  0  0  0  0  0
   -4.0818   -3.2614    0.9501 H   0  0  0  0  0  0  0  0  0  0  0  0
   -6.1702   -3.0041   -0.8125 H   0  0  0  0  0  0  0  0  0  0  0  0
   -6.1292   -1.6225   -1.8919 H   0  0  0  0  0  0  0  0  0  0  0  0
    4.2600    3.5079    0.4999 H   0  0  0  0  0  0  0  0  0  0  0  0
    5.3036    2.8899   -0.8128 H   0  0  0  0  0  0  0  0  0  0  0  0
    3.6367    3.4029   -1.1866 H   0  0  0  0  0  0  0  0  0  0  0  0
   -4.4250   -0.3379    1.7271 H   0  0  0  0  0  0  0  0  0  0  0  0
   -4.4447   -1.7371    2.7953 H   0  0  0  0  0  0  0  0  0  0  0  0
   -7.6876   -1.3147    0.0277 H   0  0  0  0  0  0  0  0  0  0  0  0
   -6.4471   -0.0734    0.0127 H   0  0  0  0  0  0  0  0  0  0  0  0
   -6.5146   -2.5693    1.7740 H   0  0  0  0  0  0  0  0  0  0  0  0
   -6.7427   -0.9021    2.2961 H   0  0  0  0  0  0  0  0  0  0  0  0
    6.5170   -1.5363   -0.5585 H   0  0  0  0  0  0  0  0  0  0  0  0
    6.6466   -4.2419   -0.3067 H   0  0  0  0  0  0  0  0  0  0  0  0
    4.0953   -4.9881    0.4502 H   0  0  0  0  0  0  0  0  0  0  0  0
  1 18  2  0  0  0  0
  2 26  1  0  0  0  0
  2 29  1  0  0  0  0
  3  9  1  0  0  0  0
  3 12  1  0  0  0  0
  3 13  1  0  0  0  0
  4 14  1  0  0  0  0
  4 18  1  0  0  0  0
  4 43  1  0  0  0  0
  5  6  1  0  0  0  0
  5 15  1  0  0  0  0
  5 22  1  0  0  0  0
  6 19  2  0  0  0  0
  7  8  1  0  0  0  0
  7 10  1  0  0  0  0
  7 11  1  0  0  0  0
  7 30  1  0  0  0  0
  8 12  1  0  0  0  0
  8 15  1  0  0  0  0
  8 31  1  0  0  0  0
  9 10  1  0  0  0  0
  9 14  1  0  0  0  0
  9 32  1  0  0  0  0
 10 33  1  0  0  0  0
 10 34  1  0  0  0  0
 11 13  1  0  0  0  0
 11 35  1  0  0  0  0
 11 36  1  0  0  0  0
 12 37  1  0  0  0  0
 12 38  1  0  0  0  0
 13 39  1  0  0  0  0
 13 40  1  0  0  0  0
 14 41  1  0  0  0  0
 14 42  1  0  0  0  0
 15 16  2  0  0  0  0
 16 19  1  0  0  0  0
 16 44  1  0  0  0  0
 17 18  1  0  0  0  0
 17 20  1  0  0  0  0
 17 21  1  0  0  0  0
 17 45  1  0  0  0  0
 19 26  1  0  0  0  0
 20 23  1  0  0  0  0
 20 46  1  0  0  0  0
 20 47  1  0  0  0  0
 21 24  1  0  0  0  0
 21 48  1  0  0  0  0
 21 49  1  0  0  0  0
 22 50  1  0  0  0  0
 22 51  1  0  0  0  0
 22 52  1  0  0  0  0
 23 25  1  0  0  0  0
 23 53  1  0  0  0  0
 23 54  1  0  0  0  0
 24 25  1  0  0  0  0
 24 55  1  0  0  0  0
 24 56  1  0  0  0  0
 25 57  1  0  0  0  0
 25 58  1  0  0  0  0
 26 27  2  0  0  0  0
 27 28  1  0  0  0  0
 27 59  1  0  0  0  0
 28 29  2  0  0  0  0
 28 60  1  0  0  0  0
 29 61  1  0  0  0  0
M  END
> <PUBCHEM_COMPOUND_CID>
40779327

> <PUBCHEM_CONFORMER_RMSD>
1

> <PUBCHEM_CONFORMER_DIVERSEORDER>
1
40
46
6
60
34
13
61
38
20
31
63
39
12
30
52
19
42
35
5
36
53
25
57
51
14
44
15
37
16
48
32
3
56
8
58
65
24
10
2
55
49
43
4
18
28
41
9
50
45
64
26
23
11
22
21
33
17
62
47
7
54
27
29
59

> <PUBCHEM_MMFF94_PARTIAL_CHARGES>
26
1 -0.57
12 0.27
13 0.27
14 0.3
15 -0.33
16 -0.15
17 0.06
18 0.57
19 0.29
2 -0.28
22 0.26
26 0.14
27 -0.15
28 -0.15
29 -0.01
3 -0.81
4 -0.73
43 0.37
44 0.15
5 0.31
59 0.15
6 -0.71
60 0.15
61 0.15
8 0.18
9 0.27

> <PUBCHEM_EFFECTIVE_ROTOR_COUNT>
8.4

> <PUBCHEM_PHARMACOPHORE_FEATURES>
9
1 1 acceptor
1 2 acceptor
1 3 cation
1 4 donor
1 6 acceptor
5 2 26 27 28 29 rings
5 5 6 15 16 19 rings
6 17 20 21 23 24 25 rings
8 3 7 8 9 10 11 12 13 rings

> <PUBCHEM_HEAVY_ATOM_COUNT>
29

> <PUBCHEM_ATOM_DEF_STEREO_COUNT>
3

> <PUBCHEM_ATOM_UDEF_STEREO_COUNT>
0

> <PUBCHEM_BOND_DEF_STEREO_COUNT>
0

> <PUBCHEM_BOND_UDEF_STEREO_COUNT>
0

> <PUBCHEM_ISOTOPIC_ATOM_COUNT>
0

> <PUBCHEM_COMPONENT_COUNT>
1

> <PUBCHEM_CACTVS_TAUTO_COUNT>
2

> <PUBCHEM_CONFORMER_ID>
026E3E3F00000001

> <PUBCHEM_MMFF94_ENERGY>
44.91

> <PUBCHEM_FEATURE_SELFOVERLAP>
45.672

> <PUBCHEM_SHAPE_FINGERPRINT>
10622 236 18192142699361100522
10928967 22 18202278147515952006
11014199 57 18267302028822808412
11135609 12 18409721842845551312
11135926 11 18266729372127280036
11227688 84 17903939764051127986
11374522 165 16126711215133204345
117089 54 18410579500180636007
11763715 3 18264230066033430908
11991303 11 17972036934227271261
12107183 9 18202010932605688499
12422481 6 17560254509212296775
12596602 18 16915384535714709667
12633257 1 16343697767987854884
12760667 363 18342172228916890287
13103583 49 17703518800005699349
13383661 66 17677918866112557379
13631057 29 18340206294211666874
13911852 28 18413101780101888231
13911987 19 17901122024897008860
14251764 30 18408886243815171471
14429380 30 18264487287682988362
14480069 147 18336263453360962110
14866123 147 18125718990092399553
15537594 2 18200875205006616182
15728490 83 18123191195232523666
16120349 21 18056769732125664953
17492 89 18339637837835644662
17909252 39 18341046338069708402
19301676 85 17330267269507559687
19304144 158 17751061716940450876
19311894 1 17688310084598672026
19319366 153 18125718144068453164
20775530 9 18339631261987838326
21033650 10 16371282212732143301
21478907 32 18411982420907958896
21521721 280 17980762954794890448
21703447 108 18340194238096107728
22950370 63 18341049700680583813
23466295 7 18193278494486782452
23536364 44 18113615634544247683
25222932 49 18055910141845807886
2838139 119 9727367809246444611
314194 84 18268986651870471535
345986 75 17775289378105639233
3737641 26 18409730685502770227
437795 139 17314772032979126242
4435113 14 17750811019678030843
46194498 28 17459466839491544853
463206 1 17832423099505004122
5104073 3 17988639662526668648
513202 73 18336273345192455793
57527585 21 13768489674599446141
5912855 24 18341339902989265848
6201320 77 17533530900885762339
6422251 121 18260265205507469259
70251023 43 18409448059949591448
7808743 9 8574127472132220758
7970288 3 18341045293754566031
88748 71 18410854326573449830

> <PUBCHEM_SHAPE_MULTIPOLES>
565.14
15.34
5.17
1.39
6.99
0.01
-0.19
-18.87
-0.12
-6.16
-0.72
2.04
0.27
0.13

> <PUBCHEM_SHAPE_SELFOVERLAP>
1213.873

> <PUBCHEM_SHAPE_VOLUME>
307.7

> <PUBCHEM_COORDINATE_TYPE>
2
5
10

$$$$
