51137144
  -OEChem-12032416243D

 51 54  0     1  0  0  0  0  0999 V2000
    7.4528    0.8446   -0.4880 S   0  0  0  0  0  0  0  0  0  0  0  0
   -8.9572   -0.8636    0.0947 F   0  0  0  0  0  0  0  0  0  0  0  0
   -8.5372    0.5844    1.6615 F   0  0  0  0  0  0  0  0  0  0  0  0
   -9.0890    1.2665   -0.3220 F   0  0  0  0  0  0  0  0  0  0  0  0
    2.4529   -2.0177    0.4000 O   0  0  0  0  0  0  0  0  0  0  0  0
    8.4786   -0.0618   -0.9827 O   0  0  0  0  0  0  0  0  0  0  0  0
    7.1051    2.0330   -1.2522 O   0  0  0  0  0  0  0  0  0  0  0  0
   -1.9408   -0.4129   -0.2560 N   0  0  1  0  0  0  0  0  0  0  0  0
    2.2641    0.2106    0.0314 N   0  0  0  0  0  0  0  0  0  0  0  0
    0.1664   -1.1751    0.4354 C   0  0  1  0  0  0  0  0  0  0  0  0
   -0.5005   -0.3954    1.5819 C   0  0  0  0  0  0  0  0  0  0  0  0
   -0.6423   -0.7976   -0.8131 C   0  0  0  0  0  0  0  0  0  0  0  0
   -1.6217    0.3956    0.9206 C   0  0  0  0  0  0  0  0  0  0  0  0
   -2.7656    0.3063   -1.2156 C   0  0  0  0  0  0  0  0  0  0  0  0
    1.6483   -0.9253    0.2753 C   0  0  0  0  0  0  0  0  0  0  0  0
   -4.2165    0.3135   -0.8135 C   0  0  0  0  0  0  0  0  0  0  0  0
    3.5890   -0.1507   -0.0106 C   0  0  0  0  0  0  0  0  0  0  0  0
    3.7085   -1.5142    0.2146 C   0  0  0  0  0  0  0  0  0  0  0  0
   -4.9952   -0.8298   -0.9932 C   0  0  0  0  0  0  0  0  0  0  0  0
   -4.7819    1.4627   -0.2607 C   0  0  0  0  0  0  0  0  0  0  0  0
    4.7500    0.6038   -0.2318 C   0  0  0  0  0  0  0  0  0  0  0  0
    5.9832   -0.0639   -0.2141 C   0  0  0  0  0  0  0  0  0  0  0  0
    4.9106   -2.2101    0.2397 C   0  0  0  0  0  0  0  0  0  0  0  0
    6.0592   -1.4429    0.0173 C   0  0  0  0  0  0  0  0  0  0  0  0
   -6.3392   -0.8239   -0.6203 C   0  0  0  0  0  0  0  0  0  0  0  0
   -6.1259    1.4686    0.1121 C   0  0  0  0  0  0  0  0  0  0  0  0
   -6.9046    0.3255   -0.0676 C   0  0  0  0  0  0  0  0  0  0  0  0
    7.9570    1.3640    1.1357 C   0  0  0  0  0  0  0  0  0  0  0  0
   -8.3408    0.3306    0.3339 C   0  0  0  0  0  0  0  0  0  0  0  0
    9.2325    2.1753    1.0873 C   0  0  0  0  0  0  0  0  0  0  0  0
    0.0208   -2.2463    0.6351 H   0  0  0  0  0  0  0  0  0  0  0  0
   -0.9172   -1.1035    2.3091 H   0  0  0  0  0  0  0  0  0  0  0  0
    0.1900    0.2641    2.1183 H   0  0  0  0  0  0  0  0  0  0  0  0
   -0.1756    0.0363   -1.3542 H   0  0  0  0  0  0  0  0  0  0  0  0
   -0.7305   -1.6460   -1.5005 H   0  0  0  0  0  0  0  0  0  0  0  0
   -1.2556    1.3934    0.6461 H   0  0  0  0  0  0  0  0  0  0  0  0
   -2.4737    0.5091    1.5982 H   0  0  0  0  0  0  0  0  0  0  0  0
   -2.4012    1.3277   -1.3906 H   0  0  0  0  0  0  0  0  0  0  0  0
   -2.7122   -0.1880   -2.1960 H   0  0  0  0  0  0  0  0  0  0  0  0
   -4.5661   -1.7313   -1.4225 H   0  0  0  0  0  0  0  0  0  0  0  0
   -4.1857    2.3593   -0.1137 H   0  0  0  0  0  0  0  0  0  0  0  0
    4.6782    1.6725   -0.4031 H   0  0  0  0  0  0  0  0  0  0  0  0
    4.9585   -3.2766    0.4211 H   0  0  0  0  0  0  0  0  0  0  0  0
    7.0216   -1.9492    0.0360 H   0  0  0  0  0  0  0  0  0  0  0  0
   -6.9282   -1.7248   -0.7681 H   0  0  0  0  0  0  0  0  0  0  0  0
   -6.5573    2.3683    0.5428 H   0  0  0  0  0  0  0  0  0  0  0  0
    8.1009    0.4657    1.7436 H   0  0  0  0  0  0  0  0  0  0  0  0
    7.1440    1.9590    1.5624 H   0  0  0  0  0  0  0  0  0  0  0  0
    9.5234    2.4870    2.0951 H   0  0  0  0  0  0  0  0  0  0  0  0
    9.1068    3.0747    0.4761 H   0  0  0  0  0  0  0  0  0  0  0  0
   10.0561    1.5943    0.6602 H   0  0  0  0  0  0  0  0  0  0  0  0
  1  6  2  0  0  0  0
  1  7  2  0  0  0  0
  1 22  1  0  0  0  0
  1 28  1  0  0  0  0
  2 29  1  0  0  0  0
  3 29  1  0  0  0  0
  4 29  1  0  0  0  0
  5 15  1  0  0  0  0
  5 18  1  0  0  0  0
  8 12  1  0  0  0  0
  8 13  1  0  0  0  0
  8 14  1  0  0  0  0
  9 15  2  0  0  0  0
  9 17  1  0  0  0  0
 10 11  1  0  0  0  0
 10 12  1  0  0  0  0
 10 15  1  0  0  0  0
 10 31  1  0  0  0  0
 11 13  1  0  0  0  0
 11 32  1  0  0  0  0
 11 33  1  0  0  0  0
 12 34  1  0  0  0  0
 12 35  1  0  0  0  0
 13 36  1  0  0  0  0
 13 37  1  0  0  0  0
 14 16  1  0  0  0  0
 14 38  1  0  0  0  0
 14 39  1  0  0  0  0
 16 19  2  0  0  0  0
 16 20  1  0  0  0  0
 17 18  2  0  0  0  0
 17 21  1  0  0  0  0
 18 23  1  0  0  0  0
 19 25  1  0  0  0  0
 19 40  1  0  0  0  0
 20 26  2  0  0  0  0
 20 41  1  0  0  0  0
 21 22  2  0  0  0  0
 21 42  1  0  0  0  0
 22 24  1  0  0  0  0
 23 24  2  0  0  0  0
 23 43  1  0  0  0  0
 24 44  1  0  0  0  0
 25 27  2  0  0  0  0
 25 45  1  0  0  0  0
 26 27  1  0  0  0  0
 26 46  1  0  0  0  0
 27 29  1  0  0  0  0
 28 30  1  0  0  0  0
 28 47  1  0  0  0  0
 28 48  1  0  0  0  0
 30 49  1  0  0  0  0
 30 50  1  0  0  0  0
 30 51  1  0  0  0  0
M  END
> <PUBCHEM_COMPOUND_CID>
51137144

> <PUBCHEM_CONFORMER_RMSD>
0.8

> <PUBCHEM_CONFORMER_DIVERSEORDER>
1
44
154
113
126
82
131
138
71
94
162
127
129
165
114
101
148
62
70
123
163
28
106
37
25
95
61
63
122
77
14
132
157
118
85
108
109
27
161
96
3
134
144
47
128
119
30
105
8
35
153
121
4
98
67
68
125
97
79
170
15
156
55
100
36
72
137
103
51
164
151
43
56
160
99
110
139
107
159
13
120
115
12
60
7
17
135
145
149
166
40
133
88
155
146
59
141
34
2
26
65
83
16
167
140
23
54
130
78
92
158
90
104
50
42
152
143
112
38
150
81
69
74
58
5
39
22
49
93
91
168
57
41
75
111
11
31
89
24
102
73
32
10
53
142
9
116
169
64
52
29
19
86
18
84
136
76
33
20
87
45
117
147
21
124
48
80
66
6
46

> <PUBCHEM_MMFF94_PARTIAL_CHARGES>
35
1 1.2
10 0.18
12 0.27
13 0.27
14 0.41
15 0.3
16 -0.14
17 0.23
18 0.14
19 -0.15
2 -0.34
20 -0.15
21 -0.15
22 -0.01
23 -0.15
24 -0.15
25 -0.15
26 -0.15
27 -0.14
28 0.11
29 1.16
3 -0.34
4 -0.34
40 0.15
41 0.15
42 0.15
43 0.15
44 0.15
45 0.15
46 0.15
5 -0.28
6 -0.65
7 -0.65
8 -0.81
9 -0.57

> <PUBCHEM_EFFECTIVE_ROTOR_COUNT>
7

> <PUBCHEM_PHARMACOPHORE_FEATURES>
7
1 6 acceptor
1 7 acceptor
1 8 cation
5 5 9 15 17 18 rings
5 8 10 11 12 13 rings
6 16 19 20 25 26 27 rings
6 17 18 21 22 23 24 rings

> <PUBCHEM_HEAVY_ATOM_COUNT>
30

> <PUBCHEM_ATOM_DEF_STEREO_COUNT>
1

> <PUBCHEM_ATOM_UDEF_STEREO_COUNT>
0

> <PUBCHEM_BOND_DEF_STEREO_COUNT>
0

> <PUBCHEM_BOND_UDEF_STEREO_COUNT>
0

> <PUBCHEM_ISOTOPIC_ATOM_COUNT>
0

> <PUBCHEM_COMPONENT_COUNT>
1

> <PUBCHEM_CACTVS_TAUTO_COUNT>
1

> <PUBCHEM_CONFORMER_ID>
030C4A7800000001

> <PUBCHEM_MMFF94_ENERGY>
46.2144

> <PUBCHEM_FEATURE_SELFOVERLAP>
35.658

> <PUBCHEM_SHAPE_FINGERPRINT>
10 15 16153710938343975620
10162869 55 17676767660553583999
10299344 5 18272087189262925511
10369192 42 18273211980841073917
10595046 47 18338232665795664491
106641 1 15864075381451429863
10883706 142 18040711472730164354
11181472 205 16844741828041553915
11315181 36 18409730635303229081
11578821 258 18336542738395618885
11638347 137 14779259800860758312
12013929 94 18412263974618828871
12089408 11 18131067117681540439
12236239 1 18272366443293164198
12539745 222 12685353147127698918
12592606 108 9223231849285985628
12838862 33 15791726413518570155
13560911 43 17167856470138950476
13617811 41 15985108509773861256
14117953 113 13039185918198337992
14251764 18 18261108573531767270
14251764 46 17022624169426340311
14617042 71 18340487863451408896
14671636 106 18337954597688699959
14849402 71 18335987549015077661
14856354 85 17632574964487300463
14918687 75 18341332297630780407
14933364 13 18412261718758087663
15183329 4 17060339612818572875
15690457 1 11458425747320266728
1577012 14 18273205400460987855
15840311 113 18410015442963558964
16728433 281 15266241132880383803
16994733 274 18261388901795031777
1754911 235 17988923383623477716
17686467 74 18186522116653390077
18335252 98 18335143094156941219
19302320 297 17822009865866466516
20105231 36 15626223529200807655
20156587 128 15913064110318928904
20157964 124 18333449825228932282
21033648 29 18042118921008106168
21150785 3 18272652346317541578
21792961 116 17203328854238876447
21795232 338 18271526515916984259
22224240 67 16805042913023033187
23516275 137 18058187046161101623
23576562 1 16629096941107584069
2747138 104 17095533863986430421
28498 318 11455892451054858895
3092352 35 18272088292363087375
3146122 72 16271351050908120360
335352 9 16558743525815457389
34797466 226 18411140199691994238
3552219 110 17988932154115839681
3711267 37 18202010927657619977
4073 2 18113903774962607267
4325135 7 18408041801989636919
445580 126 18260822710005951736
45270241 37 17775008995057898118
5028188 123 16702013214992634293
5265222 85 18272929444944897175
5283156 175 16917069932838297830
5470011 282 17132117948853243212
5758199 1 18333731312278155163
59682541 35 17312828182251595241
6081469 158 13183025107412057296
6201320 215 12396841291878915535
6394761 36 11959731577325266467
67123 10 18408323289909362519

> <PUBCHEM_SHAPE_MULTIPOLES>
571.84
32.42
1.82
1.12
12.67
0.02
-0.13
14.62
-1.27
-3.06
-0.17
-0.08
0.2
-0.13

> <PUBCHEM_SHAPE_SELFOVERLAP>
1229.67

> <PUBCHEM_SHAPE_VOLUME>
319.7

> <PUBCHEM_COORDINATE_TYPE>
2
5
10

$$$$
