45783590
  -OEChem-12032416273D

 54 57  0     1  0  0  0  0  0999 V2000
   -4.0553    0.9952   -0.8320 O   0  0  0  0  0  0  0  0  0  0  0  0
    2.7400   -0.9661    1.9016 O   0  0  0  0  0  0  0  0  0  0  0  0
    5.2862   -0.1028   -0.4510 N   0  0  2  0  0  0  0  0  0  0  0  0
    2.2054    0.4772    0.2744 N   0  0  0  0  0  0  0  0  0  0  0  0
    1.3428   -0.9881    1.8052 N   0  0  0  0  0  0  0  0  0  0  0  0
   -2.6034   -0.1620    0.5590 N   0  0  0  0  0  0  0  0  0  0  0  0
    4.6731    0.1301    0.8668 C   0  0  1  0  0  0  0  0  0  0  0  0
    5.1383    1.5611    1.1700 C   0  0  0  0  0  0  0  0  0  0  0  0
    5.1592    1.1271   -1.2229 C   0  0  0  0  0  0  0  0  0  0  0  0
    5.3743    2.2219   -0.1880 C   0  0  0  0  0  0  0  0  0  0  0  0
    4.8583   -1.2894   -1.1686 C   0  0  0  0  0  0  0  0  0  0  0  0
   -5.0877    0.2902   -0.1510 C   0  0  0  0  0  0  0  0  0  0  0  0
    3.1678   -0.0782    0.9664 C   0  0  0  0  0  0  0  0  0  0  0  0
   -5.3534   -1.0385   -0.8571 C   0  0  0  0  0  0  0  0  0  0  0  0
   -6.3454    1.1560   -0.0892 C   0  0  0  0  0  0  0  0  0  0  0  0
   -6.5199   -1.7882   -0.2219 C   0  0  0  0  0  0  0  0  0  0  0  0
   -7.5120    0.4065    0.5460 C   0  0  0  0  0  0  0  0  0  0  0  0
   -7.7760   -0.9224   -0.1580 C   0  0  0  0  0  0  0  0  0  0  0  0
    5.0039   -2.5241   -0.2836 C   0  0  0  0  0  0  0  0  0  0  0  0
    5.6772   -1.4323   -2.4475 C   0  0  0  0  0  0  0  0  0  0  0  0
    1.1043   -0.1120    0.8247 C   0  0  0  0  0  0  0  0  0  0  0  0
   -2.7694    0.7365   -0.4374 C   0  0  0  0  0  0  0  0  0  0  0  0
   -0.2200    0.1979    0.3727 C   0  0  0  0  0  0  0  0  0  0  0  0
   -1.7272    1.3965   -1.0683 C   0  0  0  0  0  0  0  0  0  0  0  0
   -0.4312    1.1164   -0.6496 C   0  0  0  0  0  0  0  0  0  0  0  0
   -1.3296   -0.4084    0.9391 C   0  0  0  0  0  0  0  0  0  0  0  0
    5.1426   -0.5320    1.6062 H   0  0  0  0  0  0  0  0  0  0  0  0
    4.4169    2.1270    1.7692 H   0  0  0  0  0  0  0  0  0  0  0  0
    6.0860    1.5404    1.7230 H   0  0  0  0  0  0  0  0  0  0  0  0
    5.9083    1.2167   -2.0157 H   0  0  0  0  0  0  0  0  0  0  0  0
    4.1630    1.2293   -1.6707 H   0  0  0  0  0  0  0  0  0  0  0  0
    6.3950    2.6182   -0.2370 H   0  0  0  0  0  0  0  0  0  0  0  0
    4.6828    3.0556   -0.3491 H   0  0  0  0  0  0  0  0  0  0  0  0
    3.8037   -1.2123   -1.4639 H   0  0  0  0  0  0  0  0  0  0  0  0
   -4.8228    0.0989    0.8981 H   0  0  0  0  0  0  0  0  0  0  0  0
   -4.4580   -1.6705   -0.8396 H   0  0  0  0  0  0  0  0  0  0  0  0
   -5.5639   -0.8542   -1.9188 H   0  0  0  0  0  0  0  0  0  0  0  0
   -6.6180    1.4825   -1.1013 H   0  0  0  0  0  0  0  0  0  0  0  0
   -6.1370    2.0746    0.4726 H   0  0  0  0  0  0  0  0  0  0  0  0
   -6.2424   -2.1040    0.7913 H   0  0  0  0  0  0  0  0  0  0  0  0
   -6.7290   -2.6989   -0.7943 H   0  0  0  0  0  0  0  0  0  0  0  0
   -7.2943    0.2213    1.6050 H   0  0  0  0  0  0  0  0  0  0  0  0
   -8.4135    1.0283    0.5095 H   0  0  0  0  0  0  0  0  0  0  0  0
   -8.5714   -1.4650    0.3653 H   0  0  0  0  0  0  0  0  0  0  0  0
   -8.1369   -0.7294   -1.1758 H   0  0  0  0  0  0  0  0  0  0  0  0
    6.0241   -2.6183    0.1069 H   0  0  0  0  0  0  0  0  0  0  0  0
    4.3135   -2.5374    0.5623 H   0  0  0  0  0  0  0  0  0  0  0  0
    4.7957   -3.4313   -0.8630 H   0  0  0  0  0  0  0  0  0  0  0  0
    6.7541   -1.4117   -2.2438 H   0  0  0  0  0  0  0  0  0  0  0  0
    5.4475   -0.6501   -3.1784 H   0  0  0  0  0  0  0  0  0  0  0  0
    5.4568   -2.3878   -2.9376 H   0  0  0  0  0  0  0  0  0  0  0  0
   -1.9092    2.1102   -1.8643 H   0  0  0  0  0  0  0  0  0  0  0  0
    0.3941    1.6282   -1.1379 H   0  0  0  0  0  0  0  0  0  0  0  0
   -1.2514   -1.1364    1.7412 H   0  0  0  0  0  0  0  0  0  0  0  0
  1 12  1  0  0  0  0
  1 22  1  0  0  0  0
  2  5  1  0  0  0  0
  2 13  1  0  0  0  0
  3  7  1  0  0  0  0
  3  9  1  0  0  0  0
  3 11  1  0  0  0  0
  4 13  2  0  0  0  0
  4 21  1  0  0  0  0
  5 21  2  0  0  0  0
  6 22  2  0  0  0  0
  6 26  1  0  0  0  0
  7  8  1  0  0  0  0
  7 13  1  0  0  0  0
  7 27  1  0  0  0  0
  8 10  1  0  0  0  0
  8 28  1  0  0  0  0
  8 29  1  0  0  0  0
  9 10  1  0  0  0  0
  9 30  1  0  0  0  0
  9 31  1  0  0  0  0
 10 32  1  0  0  0  0
 10 33  1  0  0  0  0
 11 19  1  0  0  0  0
 11 20  1  0  0  0  0
 11 34  1  0  0  0  0
 12 14  1  0  0  0  0
 12 15  1  0  0  0  0
 12 35  1  0  0  0  0
 14 16  1  0  0  0  0
 14 36  1  0  0  0  0
 14 37  1  0  0  0  0
 15 17  1  0  0  0  0
 15 38  1  0  0  0  0
 15 39  1  0  0  0  0
 16 18  1  0  0  0  0
 16 40  1  0  0  0  0
 16 41  1  0  0  0  0
 17 18  1  0  0  0  0
 17 42  1  0  0  0  0
 17 43  1  0  0  0  0
 18 44  1  0  0  0  0
 18 45  1  0  0  0  0
 19 46  1  0  0  0  0
 19 47  1  0  0  0  0
 19 48  1  0  0  0  0
 20 49  1  0  0  0  0
 20 50  1  0  0  0  0
 20 51  1  0  0  0  0
 21 23  1  0  0  0  0
 22 24  1  0  0  0  0
 23 25  1  0  0  0  0
 23 26  2  0  0  0  0
 24 25  2  0  0  0  0
 24 52  1  0  0  0  0
 25 53  1  0  0  0  0
 26 54  1  0  0  0  0
M  END
> <PUBCHEM_COMPOUND_CID>
45783590

> <PUBCHEM_CONFORMER_RMSD>
0.8

> <PUBCHEM_CONFORMER_DIVERSEORDER>
1
84
51
178
119
17
153
78
3
179
168
92
45
10
118
15
171
129
102
125
135
182
49
130
101
60
149
30
162
167
141
41
52
155
99
103
126
127
29
93
9
184
66
158
138
123
35
180
173
63
156
144
183
154
32
181
54
25
112
139
68
48
94
174
185
82
31
157
37
110
107
170
28
5
140
165
74
108
159
80
67
122
161
61
75
12
176
77
134
42
133
109
104
62
91
79
57
114
53
64
131
113
38
151
117
120
143
95
55
22
145
73
172
142
148
124
33
76
96
85
21
90
13
146
111
2
16
169
106
121
69
137
47
105
4
116
152
164
11
24
166
72
56
100
88
65
177
71
26
39
50
128
40
20
34
98
89
81
59
14
83
147
6
46
150
19
175
87
86
163
160
132
97
18
7
58
43
115
136
44
23
8
27
36
70

> <PUBCHEM_MMFF94_PARTIAL_CHARGES>
20
1 -0.36
11 0.27
12 0.28
13 0.3
2 -0.02
21 0.46
22 0.39
23 0.05
24 -0.15
25 -0.15
26 0.16
3 -0.81
4 -0.57
5 -0.41
52 0.15
53 0.15
54 0.15
6 -0.62
7 0.45
9 0.27

> <PUBCHEM_EFFECTIVE_ROTOR_COUNT>
7.2

> <PUBCHEM_PHARMACOPHORE_FEATURES>
7
1 3 cation
3 11 19 20 hydrophobe
3 4 5 21 cation
5 2 4 5 13 21 rings
5 3 7 8 9 10 rings
6 12 14 15 16 17 18 rings
6 6 22 23 24 25 26 rings

> <PUBCHEM_HEAVY_ATOM_COUNT>
26

> <PUBCHEM_ATOM_DEF_STEREO_COUNT>
1

> <PUBCHEM_ATOM_UDEF_STEREO_COUNT>
0

> <PUBCHEM_BOND_DEF_STEREO_COUNT>
0

> <PUBCHEM_BOND_UDEF_STEREO_COUNT>
0

> <PUBCHEM_ISOTOPIC_ATOM_COUNT>
0

> <PUBCHEM_COMPONENT_COUNT>
1

> <PUBCHEM_CACTVS_TAUTO_COUNT>
1

> <PUBCHEM_CONFORMER_ID>
02BA9A2600000001

> <PUBCHEM_MMFF94_ENERGY>
45.6796

> <PUBCHEM_FEATURE_SELFOVERLAP>
35.523

> <PUBCHEM_SHAPE_FINGERPRINT>
10299344 5 18202566185592801007
10670039 82 16660930946731669566
10906281 52 17240776038537611889
11315181 36 18410571817591029441
11408170 132 17241314765097036855
11524674 6 16559028307922554055
11719270 70 14562524081214400809
11796584 16 15338829915377737412
12236239 1 18408882936932823409
125118 31 12612746904881761351
12516196 113 18187361043534831197
13533116 47 16917349221302036902
13782708 43 16774070761580109237
13878862 14 12180122137841977558
13914758 101 11959740369693247963
14251764 18 18334010619298265929
14347424 109 10879992446093723726
14528608 73 17894347769984189212
14767858 380 17095526192868832695
14933364 13 18273214205708310321
15183329 4 13902190391690101049
15301273 46 18202845440440658925
15352257 5 17846780724030166199
17844677 252 18341333297223776976
18335252 98 18202002174217935642
20281389 69 9943812192529073711
20567600 234 14345798257404508310
21150785 3 18408608084183604068
21344244 181 18343028778524602206
21641784 216 16660927668933339709
21859007 373 13613963228210928819
220451 1 16558745749917550453
221357 26 18335985285962600588
22149856 69 17313387760814445233
2303208 19 17917990581628011743
23035841 295 18413105053035655691
23081809 10 17095517353979254617
23516275 137 17702688586907371967
23522609 53 17751379291127644965
23559900 14 17988635346448311985
23569943 247 18120657924784626923
24771293 8 17968374658189040140
2747138 104 17822301193165526185
3004659 81 17704073959120697510
3472631 163 17023197075873479604
34797466 226 18410013260292101036
4325135 7 17676482860960572775
4340502 62 14273730746398052889
44317340 157 18410288095159552012
46194498 28 18272089367017105844
465052 167 16845575309837997310
53794403 172 17387423543489858132
54039377 194 16343154520088690262
57527295 17 18121235177864444050
6201460 15 14829706343736948556
9831232 110 18200033915419181774

> <PUBCHEM_SHAPE_MULTIPOLES>
503.41
21.49
1.9
1.51
24.87
0.5
-0.03
3.57
-3.88
-2.31
-0.46
-2.23
0.31
1

> <PUBCHEM_SHAPE_SELFOVERLAP>
1067.817

> <PUBCHEM_SHAPE_VOLUME>
281.5

> <PUBCHEM_COORDINATE_TYPE>
2
5
10

$$$$
