26742967
  -OEChem-12032416193D

 57 58  0     1  0  0  0  0  0999 V2000
    4.0961    0.0310   -1.7305 O   0  0  0  0  0  0  0  0  0  0  0  0
   -3.6690   -1.6055   -1.0136 O   0  0  0  0  0  0  0  0  0  0  0  0
    0.0209    3.0034    0.1762 N   0  0  0  0  0  0  0  0  0  0  0  0
    4.8798   -0.6100    0.3562 N   0  0  0  0  0  0  0  0  0  0  0  0
   -2.3054   -1.5133   -1.2650 N   0  0  0  0  0  0  0  0  0  0  0  0
    1.5540    0.7380   -0.9302 C   0  0  1  0  0  0  0  0  0  0  0  0
    0.0761    0.6119   -0.4896 C   0  0  2  0  0  0  0  0  0  0  0  0
    1.8497    2.2061   -1.2803 C   0  0  0  0  0  0  0  0  0  0  0  0
   -0.2810    1.6360    0.6008 C   0  0  0  0  0  0  0  0  0  0  0  0
    2.5594    0.2098    0.1000 C   0  0  0  0  0  0  0  0  0  0  0  0
   -0.2970   -0.8019   -0.0416 C   0  0  0  0  0  0  0  0  0  0  0  0
    1.4318    3.1667   -0.1679 C   0  0  0  0  0  0  0  0  0  0  0  0
   -1.7774   -1.0327   -0.1357 C   0  0  0  0  0  0  0  0  0  0  0  0
    3.9046   -0.1252   -0.5217 C   0  0  0  0  0  0  0  0  0  0  0  0
   -2.7499   -0.8046    0.8533 C   0  0  0  0  0  0  0  0  0  0  0  0
   -3.9213   -1.1806    0.2508 C   0  0  0  0  0  0  0  0  0  0  0  0
    6.2192   -0.9755   -0.0883 C   0  0  0  0  0  0  0  0  0  0  0  0
    4.6296   -0.7868    1.7848 C   0  0  0  0  0  0  0  0  0  0  0  0
   -5.3231   -1.2117    0.6850 C   0  0  0  0  0  0  0  0  0  0  0  0
   -6.1597   -0.0445    0.1142 C   0  0  0  0  0  0  0  0  0  0  0  0
    6.2896   -2.4322   -0.4973 C   0  0  0  0  0  0  0  0  0  0  0  0
    4.9737    0.4639    2.5669 C   0  0  0  0  0  0  0  0  0  0  0  0
   -7.6058   -0.0612    0.6090 C   0  0  0  0  0  0  0  0  0  0  0  0
   -8.3948    1.1190    0.0647 C   0  0  0  0  0  0  0  0  0  0  0  0
    1.6578    0.1490   -1.8519 H   0  0  0  0  0  0  0  0  0  0  0  0
   -0.5282    0.8608   -1.3762 H   0  0  0  0  0  0  0  0  0  0  0  0
    1.3021    2.4662   -2.1964 H   0  0  0  0  0  0  0  0  0  0  0  0
    2.9109    2.3545   -1.5080 H   0  0  0  0  0  0  0  0  0  0  0  0
   -1.3512    1.5998    0.8236 H   0  0  0  0  0  0  0  0  0  0  0  0
    0.2461    1.4110    1.5363 H   0  0  0  0  0  0  0  0  0  0  0  0
    2.1834   -0.7316    0.5091 H   0  0  0  0  0  0  0  0  0  0  0  0
    2.6843    0.9135    0.9237 H   0  0  0  0  0  0  0  0  0  0  0  0
    0.0262   -0.9920    0.9893 H   0  0  0  0  0  0  0  0  0  0  0  0
    0.2070   -1.5440   -0.6746 H   0  0  0  0  0  0  0  0  0  0  0  0
    2.0579    3.0403    0.7222 H   0  0  0  0  0  0  0  0  0  0  0  0
    1.5877    4.1946   -0.5139 H   0  0  0  0  0  0  0  0  0  0  0  0
   -0.2203    3.6507    0.9261 H   0  0  0  0  0  0  0  0  0  0  0  0
   -2.6213   -0.4262    1.8566 H   0  0  0  0  0  0  0  0  0  0  0  0
    6.9448   -0.7545    0.7017 H   0  0  0  0  0  0  0  0  0  0  0  0
    6.4790   -0.3544   -0.9530 H   0  0  0  0  0  0  0  0  0  0  0  0
    5.2308   -1.6287    2.1479 H   0  0  0  0  0  0  0  0  0  0  0  0
    3.5899   -1.0612    1.9743 H   0  0  0  0  0  0  0  0  0  0  0  0
   -5.7788   -2.1631    0.3841 H   0  0  0  0  0  0  0  0  0  0  0  0
   -5.3662   -1.1800    1.7808 H   0  0  0  0  0  0  0  0  0  0  0  0
   -6.1462   -0.0888   -0.9825 H   0  0  0  0  0  0  0  0  0  0  0  0
   -5.6888    0.9067    0.3945 H   0  0  0  0  0  0  0  0  0  0  0  0
    6.0475   -3.0932    0.3412 H   0  0  0  0  0  0  0  0  0  0  0  0
    5.5836   -2.6497   -1.3056 H   0  0  0  0  0  0  0  0  0  0  0  0
    7.2960   -2.6815   -0.8474 H   0  0  0  0  0  0  0  0  0  0  0  0
    6.0374    0.7065    2.4715 H   0  0  0  0  0  0  0  0  0  0  0  0
    4.4104    1.3361    2.2241 H   0  0  0  0  0  0  0  0  0  0  0  0
    4.7582    0.3169    3.6299 H   0  0  0  0  0  0  0  0  0  0  0  0
   -8.0915   -0.9946    0.3022 H   0  0  0  0  0  0  0  0  0  0  0  0
   -7.6236   -0.0307    1.7044 H   0  0  0  0  0  0  0  0  0  0  0  0
   -7.9516    2.0679    0.3834 H   0  0  0  0  0  0  0  0  0  0  0  0
   -9.4260    1.0862    0.4300 H   0  0  0  0  0  0  0  0  0  0  0  0
   -8.4212    1.1021   -1.0295 H   0  0  0  0  0  0  0  0  0  0  0  0
  1 14  2  0  0  0  0
  2  5  1  0  0  0  0
  2 16  1  0  0  0  0
  3  9  1  0  0  0  0
  3 12  1  0  0  0  0
  3 37  1  0  0  0  0
  4 14  1  0  0  0  0
  4 17  1  0  0  0  0
  4 18  1  0  0  0  0
  5 13  2  0  0  0  0
  6  7  1  0  0  0  0
  6  8  1  0  0  0  0
  6 10  1  0  0  0  0
  6 25  1  0  0  0  0
  7  9  1  0  0  0  0
  7 11  1  0  0  0  0
  7 26  1  0  0  0  0
  8 12  1  0  0  0  0
  8 27  1  0  0  0  0
  8 28  1  0  0  0  0
  9 29  1  0  0  0  0
  9 30  1  0  0  0  0
 10 14  1  0  0  0  0
 10 31  1  0  0  0  0
 10 32  1  0  0  0  0
 11 13  1  0  0  0  0
 11 33  1  0  0  0  0
 11 34  1  0  0  0  0
 12 35  1  0  0  0  0
 12 36  1  0  0  0  0
 13 15  1  0  0  0  0
 15 16  2  0  0  0  0
 15 38  1  0  0  0  0
 16 19  1  0  0  0  0
 17 21  1  0  0  0  0
 17 39  1  0  0  0  0
 17 40  1  0  0  0  0
 18 22  1  0  0  0  0
 18 41  1  0  0  0  0
 18 42  1  0  0  0  0
 19 20  1  0  0  0  0
 19 43  1  0  0  0  0
 19 44  1  0  0  0  0
 20 23  1  0  0  0  0
 20 45  1  0  0  0  0
 20 46  1  0  0  0  0
 21 47  1  0  0  0  0
 21 48  1  0  0  0  0
 21 49  1  0  0  0  0
 22 50  1  0  0  0  0
 22 51  1  0  0  0  0
 22 52  1  0  0  0  0
 23 24  1  0  0  0  0
 23 53  1  0  0  0  0
 23 54  1  0  0  0  0
 24 55  1  0  0  0  0
 24 56  1  0  0  0  0
 24 57  1  0  0  0  0
M  END
> <PUBCHEM_COMPOUND_CID>
26742967

> <PUBCHEM_CONFORMER_RMSD>
1.2

> <PUBCHEM_CONFORMER_DIVERSEORDER>
1
16
37
94
102
63
14
52
80
113
72
28
110
42
79
81
77
36
68
93
66
104
89
10
101
64
62
86
11
97
3
4
78
106
74
96
31
29
90
65
33
38
60
35
57
34
32
54
88
69
27
15
41
5
22
24
43
23
20
55
87
92
103
111
108
58
107
19
45
8
98
46
112
7
6
100
39
50
44
51
18
13
70
48
40
21
26
82
105
95
59
53
85
91
75
30
73
84
25
67
49
76
12
2
17
56
83
9
47
109
61
99
71

> <PUBCHEM_MMFF94_PARTIAL_CHARGES>
18
1 -0.57
10 0.06
11 0.18
12 0.27
13 0.11
14 0.57
15 -0.15
16 -0.04
17 0.3
18 0.3
19 0.18
2 -0.02
3 -0.9
37 0.36
38 0.15
4 -0.66
5 -0.41
9 0.27

> <PUBCHEM_EFFECTIVE_ROTOR_COUNT>
11.2

> <PUBCHEM_PHARMACOPHORE_FEATURES>
7
1 1 acceptor
1 24 hydrophobe
1 3 cation
1 3 donor
1 5 acceptor
5 2 5 13 15 16 rings
6 3 6 7 8 9 12 rings

> <PUBCHEM_HEAVY_ATOM_COUNT>
24

> <PUBCHEM_ATOM_DEF_STEREO_COUNT>
2

> <PUBCHEM_ATOM_UDEF_STEREO_COUNT>
0

> <PUBCHEM_BOND_DEF_STEREO_COUNT>
0

> <PUBCHEM_BOND_UDEF_STEREO_COUNT>
0

> <PUBCHEM_ISOTOPIC_ATOM_COUNT>
0

> <PUBCHEM_COMPONENT_COUNT>
1

> <PUBCHEM_CACTVS_TAUTO_COUNT>
1

> <PUBCHEM_CONFORMER_ID>
019810B700000001

> <PUBCHEM_MMFF94_ENERGY>
22.5957

> <PUBCHEM_FEATURE_SELFOVERLAP>
35.52

> <PUBCHEM_SHAPE_FINGERPRINT>
11089746 13 18410009966837908751
11265709 11 18409166615138079612
11405975 8 18116715304052270099
11724838 91 12391510871447287610
11796584 16 17531254992951048026
12553582 1 18335693966878584430
12592606 108 18409168827141604767
12916748 109 11891327656079028734
13782708 43 17750238174483923611
14117953 113 18272658913143644726
14123256 10 9943804487362792083
14216079 64 18340491054443278958
14347424 109 18202279212978889120
15042514 8 18267026059614596996
15131766 46 16126094595047100912
15142383 8 18187361030475648237
15183329 4 17675920989344804935
15849732 13 18131068230056997151
1813 80 18336819875327609552
18222031 100 18200888343633360244
20567600 234 15626221355298275027
20832881 197 18334298690463859745
21304303 172 18200041637812636048
21344244 181 13045940170730509400
21421861 104 18263073478732593560
21774942 28 16343153411871297641
21792934 111 18412819175501468328
21859007 373 18201432546334719945
22224240 67 10735873959108171743
2838139 119 18411136944998119349
3004659 81 17822013112307308006
33382 64 16443056188694129610
335352 9 18410859871745351511
3411729 13 18196087979215633632
345986 75 18115854248897745432
4325135 7 11815896747840585993
5104073 3 18265621073117482507
5207 217 9943803387682307327
53794403 172 8790012147756451590
57527293 21 17915434252091500602
57724786 102 17896885550633590461
58260988 647 15141512542109706448
8988823 20 16559034874341758902
9841814 1 18262231244288257168

> <PUBCHEM_SHAPE_MULTIPOLES>
467.23
19.04
2.51
1.45
24.95
1.9
-0.59
-6.85
-3.73
-1.47
0.4
-2.24
-0.02
-0.06

> <PUBCHEM_SHAPE_SELFOVERLAP>
930.772

> <PUBCHEM_SHAPE_VOLUME>
276.1

> <PUBCHEM_COORDINATE_TYPE>
2
5
10

$$$$
