7687210
  -OEChem-12032416363D

 48 51  0     1  0  0  0  0  0999 V2000
    6.9371   -1.4488    0.8999 Cl  0  0  0  0  0  0  0  0  0  0  0  0
    1.6195    0.9947   -1.3130 S   0  0  0  0  0  0  0  0  0  0  0  0
    1.8981    2.4075   -1.4689 O   0  0  0  0  0  0  0  0  0  0  0  0
    1.2907    0.1496   -2.4418 O   0  0  0  0  0  0  0  0  0  0  0  0
   -4.0852    2.9003   -0.3384 O   0  0  0  0  0  0  0  0  0  0  0  0
    0.4253    0.8053   -0.1022 N   0  0  2  0  0  0  0  0  0  0  0  0
   -2.6767    1.1748    0.3857 N   0  0  0  0  0  0  0  0  0  0  0  0
   -0.7060    1.6314    1.9617 C   0  0  1  0  0  0  0  0  0  0  0  0
   -1.1376   -0.6500    1.1697 C   0  0  2  0  0  0  0  0  0  0  0  0
   -0.9347    0.2024    2.4201 C   0  0  0  0  0  0  0  0  0  0  0  0
    0.5370    1.7271    1.0633 C   0  0  0  0  0  0  0  0  0  0  0  0
    0.1372   -0.6015    0.3056 C   0  0  0  0  0  0  0  0  0  0  0  0
   -1.9740    2.1217    1.2624 C   0  0  0  0  0  0  0  0  0  0  0  0
   -2.3537   -0.1977    0.3541 C   0  0  0  0  0  0  0  0  0  0  0  0
   -3.0949   -1.0603   -0.3930 C   0  0  0  0  0  0  0  0  0  0  0  0
   -3.7509    1.7153   -0.3416 C   0  0  0  0  0  0  0  0  0  0  0  0
   -4.2136   -0.5268   -1.1539 C   0  0  0  0  0  0  0  0  0  0  0  0
    3.1413    0.2961   -0.6817 C   0  0  0  0  0  0  0  0  0  0  0  0
   -4.5372    0.7658   -1.1566 C   0  0  0  0  0  0  0  0  0  0  0  0
   -2.7981   -2.4806   -0.4853 C   0  0  0  0  0  0  0  0  0  0  0  0
    3.3970   -1.0329   -0.9152 C   0  0  0  0  0  0  0  0  0  0  0  0
    3.9969    1.1148    0.0145 C   0  0  0  0  0  0  0  0  0  0  0  0
   -3.3310   -3.3826    0.3337 C   0  0  0  0  0  0  0  0  0  0  0  0
    4.5824   -1.5777   -0.4217 C   0  0  0  0  0  0  0  0  0  0  0  0
    5.1824    0.5701    0.5080 C   0  0  0  0  0  0  0  0  0  0  0  0
    5.4753   -0.7762    0.2899 C   0  0  0  0  0  0  0  0  0  0  0  0
   -3.0264   -4.8418    0.2450 C   0  0  0  0  0  0  0  0  0  0  0  0
   -0.5278    2.2709    2.8354 H   0  0  0  0  0  0  0  0  0  0  0  0
   -1.2764   -1.6821    1.5122 H   0  0  0  0  0  0  0  0  0  0  0  0
   -1.8094    0.1396    3.0796 H   0  0  0  0  0  0  0  0  0  0  0  0
   -0.0733   -0.1585    2.9954 H   0  0  0  0  0  0  0  0  0  0  0  0
    0.6425    2.7601    0.7153 H   0  0  0  0  0  0  0  0  0  0  0  0
    1.4294    1.4702    1.6457 H   0  0  0  0  0  0  0  0  0  0  0  0
    0.9826   -0.9999    0.8783 H   0  0  0  0  0  0  0  0  0  0  0  0
    0.0058   -1.2256   -0.5848 H   0  0  0  0  0  0  0  0  0  0  0  0
   -2.7057    2.4085    2.0306 H   0  0  0  0  0  0  0  0  0  0  0  0
   -1.7654    3.0366    0.6932 H   0  0  0  0  0  0  0  0  0  0  0  0
   -4.7978   -1.2203   -1.7524 H   0  0  0  0  0  0  0  0  0  0  0  0
   -5.3718    1.1442   -1.7347 H   0  0  0  0  0  0  0  0  0  0  0  0
   -2.1070   -2.7759   -1.2699 H   0  0  0  0  0  0  0  0  0  0  0  0
    2.7113   -1.6756   -1.4571 H   0  0  0  0  0  0  0  0  0  0  0  0
    3.7819    2.1612    0.2026 H   0  0  0  0  0  0  0  0  0  0  0  0
   -4.0213   -3.0756    1.1156 H   0  0  0  0  0  0  0  0  0  0  0  0
    4.7963   -2.6290   -0.5969 H   0  0  0  0  0  0  0  0  0  0  0  0
    5.8676    1.2059    1.0628 H   0  0  0  0  0  0  0  0  0  0  0  0
   -2.3244   -5.0736   -0.5623 H   0  0  0  0  0  0  0  0  0  0  0  0
   -3.9482   -5.4041    0.0671 H   0  0  0  0  0  0  0  0  0  0  0  0
   -2.5889   -5.1880    1.1864 H   0  0  0  0  0  0  0  0  0  0  0  0
  1 26  1  0  0  0  0
  2  3  2  0  0  0  0
  2  4  2  0  0  0  0
  2  6  1  0  0  0  0
  2 18  1  0  0  0  0
  5 16  2  0  0  0  0
  6 11  1  0  0  0  0
  6 12  1  0  0  0  0
  7 13  1  0  0  0  0
  7 14  1  0  0  0  0
  7 16  1  0  0  0  0
  8 10  1  0  0  0  0
  8 11  1  0  0  0  0
  8 13  1  0  0  0  0
  8 28  1  0  0  0  0
  9 10  1  0  0  0  0
  9 12  1  0  0  0  0
  9 14  1  0  0  0  0
  9 29  1  0  0  0  0
 10 30  1  0  0  0  0
 10 31  1  0  0  0  0
 11 32  1  0  0  0  0
 11 33  1  0  0  0  0
 12 34  1  0  0  0  0
 12 35  1  0  0  0  0
 13 36  1  0  0  0  0
 13 37  1  0  0  0  0
 14 15  2  0  0  0  0
 15 17  1  0  0  0  0
 15 20  1  0  0  0  0
 16 19  1  0  0  0  0
 17 19  2  0  0  0  0
 17 38  1  0  0  0  0
 18 21  2  0  0  0  0
 18 22  1  0  0  0  0
 19 39  1  0  0  0  0
 20 23  2  0  0  0  0
 20 40  1  0  0  0  0
 21 24  1  0  0  0  0
 21 41  1  0  0  0  0
 22 25  2  0  0  0  0
 22 42  1  0  0  0  0
 23 27  1  0  0  0  0
 23 43  1  0  0  0  0
 24 26  2  0  0  0  0
 24 44  1  0  0  0  0
 25 26  1  0  0  0  0
 25 45  1  0  0  0  0
 27 46  1  0  0  0  0
 27 47  1  0  0  0  0
 27 48  1  0  0  0  0
M  END
> <PUBCHEM_COMPOUND_CID>
7687210

> <PUBCHEM_CONFORMER_RMSD>
0.8

> <PUBCHEM_CONFORMER_DIVERSEORDER>
1
4
6
2
8
7
3
5
10
9

> <PUBCHEM_MMFF94_PARTIAL_CHARGES>
32
1 -0.18
11 0.36
12 0.36
13 0.3
14 -0.03
16 0.62
17 -0.15
18 -0.01
19 -0.14
2 1.45
20 -0.15
21 -0.15
22 -0.15
23 -0.29
24 -0.15
25 -0.15
26 0.18
27 0.14
3 -0.65
38 0.15
39 0.15
4 -0.65
40 0.15
41 0.15
42 0.15
43 0.15
44 0.15
45 0.15
5 -0.57
6 -0.85
7 -0.47
9 0.14

> <PUBCHEM_EFFECTIVE_ROTOR_COUNT>
4

> <PUBCHEM_PHARMACOPHORE_FEATURES>
8
1 27 hydrophobe
1 3 acceptor
1 4 acceptor
1 5 acceptor
6 18 21 22 24 25 26 rings
6 6 8 9 10 11 12 rings
6 7 14 15 16 17 19 rings
6 7 8 9 10 13 14 rings

> <PUBCHEM_HEAVY_ATOM_COUNT>
27

> <PUBCHEM_ATOM_DEF_STEREO_COUNT>
2

> <PUBCHEM_ATOM_UDEF_STEREO_COUNT>
0

> <PUBCHEM_BOND_DEF_STEREO_COUNT>
1

> <PUBCHEM_BOND_UDEF_STEREO_COUNT>
0

> <PUBCHEM_ISOTOPIC_ATOM_COUNT>
0

> <PUBCHEM_COMPONENT_COUNT>
1

> <PUBCHEM_CACTVS_TAUTO_COUNT>
1

> <PUBCHEM_CONFORMER_ID>
00754C2A00000001

> <PUBCHEM_MMFF94_ENERGY>
60.8239

> <PUBCHEM_FEATURE_SELFOVERLAP>
42.187

> <PUBCHEM_SHAPE_FINGERPRINT>
10165383 225 13118284729129608605
10906281 52 17346050986720691129
11796584 16 18409725162708032370
121448 382 18201160932301915737
12293681 160 17772463504869446113
12553582 1 16915403197221088367
13224815 77 15626235580451745588
13583140 156 17988354979230193940
13911987 19 16701738370928970356
13994607 96 8069758347351557363
14251751 18 18265051512418627458
14251764 30 17537169408264032835
14787075 74 12103262924732132574
17349148 13 18201730530764568788
17492 89 18190744343528833206
17980427 23 18059583464339859504
18603816 31 18040988493958346770
19489759 90 18201433636828709832
19958102 18 18336821970849813423
20511986 3 18336813222475833760
20626108 58 18189045559809633586
21069387 34 18115033012416916020
21304303 282 17842559544140585529
23557571 272 17988931067140440200
23559900 14 18272645753959824904
23572383 38 18201719531506532134
339767 52 18271800216554021990
38695281 34 18118684314639768889
392239 28 15338830997941623746
404807 14 16760578379107189863
44062 13 18335140920529040471
5283173 99 18271237214544372936
633830 44 16226048924430997204
7399639 24 15436561234863255540
9709674 26 17916598539762089190
9981440 41 17489309616409626671

> <PUBCHEM_SHAPE_MULTIPOLES>
533.8
11.96
3.6
1.69
16.38
3.9
-0.17
4.51
0.76
-5.16
-0.43
-0.11
-0.65
-0.22

> <PUBCHEM_SHAPE_SELFOVERLAP>
1132.607

> <PUBCHEM_SHAPE_VOLUME>
298.3

> <PUBCHEM_COORDINATE_TYPE>
2
5
10

$$$$
