26763150
  -OEChem-12032416123D

 75 76  0     1  0  0  0  0  0999 V2000
    2.4459   -0.0644   -1.5019 O   0  0  0  0  0  0  0  0  0  0  0  0
    1.7178    1.6928    1.5424 O   0  0  0  0  0  0  0  0  0  0  0  0
   -2.6248   -1.7031   -0.9047 O   0  0  0  0  0  0  0  0  0  0  0  0
    4.5803   -3.4076    0.5058 O   0  0  0  0  0  0  0  0  0  0  0  0
    3.4697   -1.7006    1.5716 O   0  0  0  0  0  0  0  0  0  0  0  0
    0.7376    1.7498   -0.5539 N   0  0  0  0  0  0  0  0  0  0  0  0
   -2.0526    0.5167   -1.2639 N   0  0  0  0  0  0  0  0  0  0  0  0
   -4.1517   -0.0050   -0.4858 N   0  0  0  0  0  0  0  0  0  0  0  0
    1.4161   -1.7289   -0.2415 N   0  0  0  0  0  0  0  0  0  0  0  0
   -0.7052    0.2747   -1.7224 C   0  0  2  0  0  0  0  0  0  0  0  0
    0.2907    0.3606   -0.5658 C   0  0  1  0  0  0  0  0  0  0  0  0
   -0.2365    1.3747   -2.6785 C   0  0  0  0  0  0  0  0  0  0  0  0
    0.2969    2.4594   -1.7518 C   0  0  0  0  0  0  0  0  0  0  0  0
   -5.2419   -0.8447   -0.0414 C   0  0  0  0  0  0  0  0  0  0  0  0
    1.5074   -0.4770   -0.8254 C   0  0  0  0  0  0  0  0  0  0  0  0
    1.3580    2.3223    0.5460 C   0  0  0  0  0  0  0  0  0  0  0  0
   -5.1515   -1.1132    1.4647 C   0  0  0  0  0  0  0  0  0  0  0  0
   -6.5963   -0.2335   -0.4162 C   0  0  0  0  0  0  0  0  0  0  0  0
    1.5908    3.8097    0.4601 C   0  0  0  0  0  0  0  0  0  0  0  0
    3.0832    4.1847    0.5013 C   0  0  0  0  0  0  0  0  0  0  0  0
   -5.4918    0.1207    2.3004 C   0  0  0  0  0  0  0  0  0  0  0  0
   -6.9341    0.9990    0.4226 C   0  0  0  0  0  0  0  0  0  0  0  0
   -6.8484    0.7039    1.9169 C   0  0  0  0  0  0  0  0  0  0  0  0
   -2.9167   -0.5082   -0.8860 C   0  0  0  0  0  0  0  0  0  0  0  0
    2.4473   -2.7342   -0.3612 C   0  0  2  0  0  0  0  0  0  0  0  0
    3.7418    3.7006    1.8044 C   0  0  0  0  0  0  0  0  0  0  0  0
    3.2781    5.7043    0.3639 C   0  0  0  0  0  0  0  0  0  0  0  0
    3.7770    3.4914   -0.6863 C   0  0  0  0  0  0  0  0  0  0  0  0
    1.8796   -4.1697   -0.3241 C   0  0  0  0  0  0  0  0  0  0  0  0
    3.5414   -2.5439    0.6835 C   0  0  0  0  0  0  0  0  0  0  0  0
    1.3360   -4.5157    1.0655 C   0  0  0  0  0  0  0  0  0  0  0  0
    0.8024   -4.4223   -1.3844 C   0  0  0  0  0  0  0  0  0  0  0  0
    5.6532   -3.2932    1.4465 C   0  0  0  0  0  0  0  0  0  0  0  0
   -0.6828   -0.7025   -2.2181 H   0  0  0  0  0  0  0  0  0  0  0  0
   -0.1444    0.1125    0.4094 H   0  0  0  0  0  0  0  0  0  0  0  0
   -1.0211    1.7477   -3.3440 H   0  0  0  0  0  0  0  0  0  0  0  0
    0.5817    0.9952   -3.3027 H   0  0  0  0  0  0  0  0  0  0  0  0
    1.1209    3.0143   -2.2073 H   0  0  0  0  0  0  0  0  0  0  0  0
   -0.4996    3.1549   -1.4653 H   0  0  0  0  0  0  0  0  0  0  0  0
   -5.1447   -1.8045   -0.5639 H   0  0  0  0  0  0  0  0  0  0  0  0
   -2.3649    1.4764   -1.1514 H   0  0  0  0  0  0  0  0  0  0  0  0
   -5.8514   -1.9176    1.7249 H   0  0  0  0  0  0  0  0  0  0  0  0
   -4.1491   -1.4676    1.7333 H   0  0  0  0  0  0  0  0  0  0  0  0
   -6.6114    0.0353   -1.4793 H   0  0  0  0  0  0  0  0  0  0  0  0
   -7.3806   -0.9867   -0.2674 H   0  0  0  0  0  0  0  0  0  0  0  0
    1.0781    4.2511    1.3259 H   0  0  0  0  0  0  0  0  0  0  0  0
    1.1210    4.2751   -0.4078 H   0  0  0  0  0  0  0  0  0  0  0  0
   -4.7147    0.8833    2.1677 H   0  0  0  0  0  0  0  0  0  0  0  0
   -5.4946   -0.1464    3.3633 H   0  0  0  0  0  0  0  0  0  0  0  0
   -7.9460    1.3407    0.1758 H   0  0  0  0  0  0  0  0  0  0  0  0
   -6.2560    1.8229    0.1715 H   0  0  0  0  0  0  0  0  0  0  0  0
   -7.6399   -0.0033    2.1942 H   0  0  0  0  0  0  0  0  0  0  0  0
   -7.0291    1.6231    2.4854 H   0  0  0  0  0  0  0  0  0  0  0  0
   -4.2619    1.0031   -0.4402 H   0  0  0  0  0  0  0  0  0  0  0  0
    0.6126   -1.9355    0.3438 H   0  0  0  0  0  0  0  0  0  0  0  0
    2.9314   -2.5744   -1.3340 H   0  0  0  0  0  0  0  0  0  0  0  0
    3.8817    2.6162    1.8351 H   0  0  0  0  0  0  0  0  0  0  0  0
    3.1578    4.0032    2.6804 H   0  0  0  0  0  0  0  0  0  0  0  0
    4.7424    4.1363    1.9150 H   0  0  0  0  0  0  0  0  0  0  0  0
    2.8364    6.0769   -0.5671 H   0  0  0  0  0  0  0  0  0  0  0  0
    2.8007    6.2347    1.1953 H   0  0  0  0  0  0  0  0  0  0  0  0
    4.3402    5.9736    0.3598 H   0  0  0  0  0  0  0  0  0  0  0  0
    3.3296    3.7916   -1.6401 H   0  0  0  0  0  0  0  0  0  0  0  0
    3.7339    2.3995   -0.6185 H   0  0  0  0  0  0  0  0  0  0  0  0
    4.8384    3.7643   -0.7264 H   0  0  0  0  0  0  0  0  0  0  0  0
    2.7018   -4.8681   -0.5299 H   0  0  0  0  0  0  0  0  0  0  0  0
    0.4975   -3.8726    1.3506 H   0  0  0  0  0  0  0  0  0  0  0  0
    2.1073   -4.4344    1.8375 H   0  0  0  0  0  0  0  0  0  0  0  0
    0.9746   -5.5501    1.0840 H   0  0  0  0  0  0  0  0  0  0  0  0
   -0.0939   -3.8198   -1.2038 H   0  0  0  0  0  0  0  0  0  0  0  0
    1.1806   -4.1803   -2.3830 H   0  0  0  0  0  0  0  0  0  0  0  0
    0.5020   -5.4756   -1.3865 H   0  0  0  0  0  0  0  0  0  0  0  0
    6.4124   -4.0362    1.1881 H   0  0  0  0  0  0  0  0  0  0  0  0
    5.2918   -3.4978    2.4588 H   0  0  0  0  0  0  0  0  0  0  0  0
    6.1024   -2.2971    1.3894 H   0  0  0  0  0  0  0  0  0  0  0  0
  1 15  2  0  0  0  0
  2 16  2  0  0  0  0
  3 24  2  0  0  0  0
  4 30  1  0  0  0  0
  4 33  1  0  0  0  0
  5 30  2  0  0  0  0
  6 11  1  0  0  0  0
  6 13  1  0  0  0  0
  6 16  1  0  0  0  0
  7 10  1  0  0  0  0
  7 24  1  0  0  0  0
  7 41  1  0  0  0  0
  8 14  1  0  0  0  0
  8 24  1  0  0  0  0
  8 54  1  0  0  0  0
  9 15  1  0  0  0  0
  9 25  1  0  0  0  0
  9 55  1  0  0  0  0
 10 11  1  0  0  0  0
 10 12  1  0  0  0  0
 10 34  1  0  0  0  0
 11 15  1  0  0  0  0
 11 35  1  0  0  0  0
 12 13  1  0  0  0  0
 12 36  1  0  0  0  0
 12 37  1  0  0  0  0
 13 38  1  0  0  0  0
 13 39  1  0  0  0  0
 14 17  1  0  0  0  0
 14 18  1  0  0  0  0
 14 40  1  0  0  0  0
 16 19  1  0  0  0  0
 17 21  1  0  0  0  0
 17 42  1  0  0  0  0
 17 43  1  0  0  0  0
 18 22  1  0  0  0  0
 18 44  1  0  0  0  0
 18 45  1  0  0  0  0
 19 20  1  0  0  0  0
 19 46  1  0  0  0  0
 19 47  1  0  0  0  0
 20 26  1  0  0  0  0
 20 27  1  0  0  0  0
 20 28  1  0  0  0  0
 21 23  1  0  0  0  0
 21 48  1  0  0  0  0
 21 49  1  0  0  0  0
 22 23  1  0  0  0  0
 22 50  1  0  0  0  0
 22 51  1  0  0  0  0
 23 52  1  0  0  0  0
 23 53  1  0  0  0  0
 25 29  1  0  0  0  0
 25 30  1  0  0  0  0
 25 56  1  0  0  0  0
 26 57  1  0  0  0  0
 26 58  1  0  0  0  0
 26 59  1  0  0  0  0
 27 60  1  0  0  0  0
 27 61  1  0  0  0  0
 27 62  1  0  0  0  0
 28 63  1  0  0  0  0
 28 64  1  0  0  0  0
 28 65  1  0  0  0  0
 29 31  1  0  0  0  0
 29 32  1  0  0  0  0
 29 66  1  0  0  0  0
 31 67  1  0  0  0  0
 31 68  1  0  0  0  0
 31 69  1  0  0  0  0
 32 70  1  0  0  0  0
 32 71  1  0  0  0  0
 32 72  1  0  0  0  0
 33 73  1  0  0  0  0
 33 74  1  0  0  0  0
 33 75  1  0  0  0  0
M  END
> <PUBCHEM_COMPOUND_CID>
26763150

> <PUBCHEM_CONFORMER_RMSD>
1.2

> <PUBCHEM_CONFORMER_DIVERSEORDER>
1
66
11
15
9
24
87
38
86
47
7
89
32
36
46
74
88
79
51
61
69
60
63
18
4
73
13
68
58
64
65
76
21
70
77
52
81
67
10
50
17
43
16
41
40
22
56
37
85
62
59
25
72
55
45
35
78
53
39
20
80
71
6
42
84
3
82
49
26
27
28
44
83
23
30
2
75
48
33
8
12
14
54
31
19
57
5
29
34

> <PUBCHEM_MMFF94_PARTIAL_CHARGES>
23
1 -0.57
10 0.3
11 0.36
13 0.3
14 0.3
15 0.57
16 0.57
19 0.06
2 -0.57
24 0.69
25 0.36
3 -0.57
30 0.66
33 0.28
4 -0.43
41 0.37
5 -0.57
54 0.37
55 0.37
6 -0.66
7 -0.73
8 -0.73
9 -0.73

> <PUBCHEM_EFFECTIVE_ROTOR_COUNT>
15.2

> <PUBCHEM_PHARMACOPHORE_FEATURES>
11
1 1 acceptor
1 2 acceptor
1 3 acceptor
1 5 acceptor
1 7 donor
1 8 donor
1 9 donor
3 29 31 32 hydrophobe
4 20 26 27 28 hydrophobe
5 6 10 11 12 13 rings
6 14 17 18 21 22 23 rings

> <PUBCHEM_HEAVY_ATOM_COUNT>
33

> <PUBCHEM_ATOM_DEF_STEREO_COUNT>
3

> <PUBCHEM_ATOM_UDEF_STEREO_COUNT>
0

> <PUBCHEM_BOND_DEF_STEREO_COUNT>
0

> <PUBCHEM_BOND_UDEF_STEREO_COUNT>
0

> <PUBCHEM_ISOTOPIC_ATOM_COUNT>
0

> <PUBCHEM_COMPONENT_COUNT>
1

> <PUBCHEM_CACTVS_TAUTO_COUNT>
6

> <PUBCHEM_CONFORMER_ID>
01985F8E00000001

> <PUBCHEM_MMFF94_ENERGY>
64.8507

> <PUBCHEM_FEATURE_SELFOVERLAP>
55.873

> <PUBCHEM_SHAPE_FINGERPRINT>
10190108 129 18337687389459411464
10258939 38 16515688810502748350
10439779 11 17481727264604196665
11399510 152 18046379489979813329
12758862 65 18113899329750369994
12788726 201 17043135314324791196
13540713 4 17895737535892707285
13540713 5 17986938829955510479
14444916 359 18192425493441487924
14739800 52 17774155837916531897
15347590 135 18044361748445960538
15420108 30 18124022683688907478
15475509 84 18268717108493107953
15775530 1 17898258685520993029
15927050 60 18052253188021051342
15950262 2 15408054171425858424
17980427 26 18270671103541943133
20642791 268 18059849537415705799
21120745 212 17692836804013320214
21421861 104 18342744009191235865
21639891 77 17900244313526649180
21796203 349 18337686217154658538
21927370 108 18194680363897801370
22440779 20 17118083558312741967
23559900 14 17822018618692622063
3178227 256 18335984255307625648
3380486 145 17910081669635097142
3411729 13 18200313350085777932
4058900 60 18196660819961538977
563151 74 18340213011318744825
6703917 75 17615415092033655892
6823239 73 16588038913457109723
79837 15 17690561209621832917
9896288 288 17690002657635976858

> <PUBCHEM_SHAPE_MULTIPOLES>
629.85
13.55
7.43
2.04
28.88
0.57
0.06
0.48
-8.4
-16.54
-1.65
0.71
0.35
-0.67

> <PUBCHEM_SHAPE_SELFOVERLAP>
1270.121

> <PUBCHEM_SHAPE_VOLUME>
368.1

> <PUBCHEM_COORDINATE_TYPE>
2
5
10

$$$$
