26743419
  -OEChem-12032416183D

 57 60  0     1  0  0  0  0  0999 V2000
   -6.7517   -3.1291    1.4354 Cl  0  0  0  0  0  0  0  0  0  0  0  0
    3.5389   -2.1555   -0.6257 O   0  0  0  0  0  0  0  0  0  0  0  0
    6.0272   -1.1538   -0.3962 O   0  0  0  0  0  0  0  0  0  0  0  0
    2.6944   -0.1498   -1.4486 N   0  0  0  0  0  0  0  0  0  0  0  0
   -3.7518    0.8402    0.2971 N   0  0  0  0  0  0  0  0  0  0  0  0
   -3.4466    1.9406    1.0058 N   0  0  0  0  0  0  0  0  0  0  0  0
   -0.2461    1.0862   -0.7372 C   0  0  2  0  0  0  0  0  0  0  0  0
    0.4502   -0.2508   -0.4089 C   0  0  0  0  0  0  0  0  0  0  0  0
    1.3307   -0.5738   -1.6223 C   0  0  1  0  0  0  0  0  0  0  0  0
   -1.6480    1.1822   -0.1805 C   0  0  0  0  0  0  0  0  0  0  0  0
   -0.1608    1.1345   -2.2352 C   0  0  0  0  0  0  0  0  0  0  0  0
    0.7021    0.2311   -2.7119 C   0  0  0  0  0  0  0  0  0  0  0  0
   -2.7090    0.3464   -0.4304 C   0  0  0  0  0  0  0  0  0  0  0  0
   -2.1602    2.1446    0.7099 C   0  0  0  0  0  0  0  0  0  0  0  0
   -2.8121   -0.8557   -1.2824 C   0  0  0  0  0  0  0  0  0  0  0  0
   -1.4511    3.2878    1.3113 C   0  0  0  0  0  0  0  0  0  0  0  0
   -5.0431    0.3149    0.3564 C   0  0  0  0  0  0  0  0  0  0  0  0
    3.6934   -0.9840   -0.9603 C   0  0  0  0  0  0  0  0  0  0  0  0
    5.0309   -0.2794   -0.8821 C   0  0  0  0  0  0  0  0  0  0  0  0
   -5.2467   -0.9877    0.8117 C   0  0  0  0  0  0  0  0  0  0  0  0
   -6.1304    1.0924   -0.0427 C   0  0  0  0  0  0  0  0  0  0  0  0
   -6.5375   -1.5130    0.8680 C   0  0  0  0  0  0  0  0  0  0  0  0
   -7.4212    0.5670    0.0137 C   0  0  0  0  0  0  0  0  0  0  0  0
   -7.6248   -0.7357    0.4690 C   0  0  0  0  0  0  0  0  0  0  0  0
   -9.0232   -1.2614    0.5156 C   0  0  0  0  0  0  0  0  0  0  0  0
    7.0641   -0.5925    0.3109 C   0  0  0  0  0  0  0  0  0  0  0  0
    7.4769    0.7097    0.0284 C   0  0  0  0  0  0  0  0  0  0  0  0
    7.7034   -1.3251    1.3110 C   0  0  0  0  0  0  0  0  0  0  0  0
    8.5289    1.2791    0.7459 C   0  0  0  0  0  0  0  0  0  0  0  0
    8.7553   -0.7557    2.0284 C   0  0  0  0  0  0  0  0  0  0  0  0
    9.1681    0.5464    1.7459 C   0  0  0  0  0  0  0  0  0  0  0  0
    0.3573    1.9139   -0.3424 H   0  0  0  0  0  0  0  0  0  0  0  0
    1.0247   -0.1757    0.5224 H   0  0  0  0  0  0  0  0  0  0  0  0
   -0.2692   -1.0645   -0.2600 H   0  0  0  0  0  0  0  0  0  0  0  0
    1.3005   -1.6458   -1.8438 H   0  0  0  0  0  0  0  0  0  0  0  0
   -0.7024    1.8376   -2.8525 H   0  0  0  0  0  0  0  0  0  0  0  0
    0.9322    0.1092   -3.7609 H   0  0  0  0  0  0  0  0  0  0  0  0
    2.9307    0.8166   -1.6590 H   0  0  0  0  0  0  0  0  0  0  0  0
   -2.0394   -0.8832   -2.0539 H   0  0  0  0  0  0  0  0  0  0  0  0
   -2.7076   -1.7650   -0.6819 H   0  0  0  0  0  0  0  0  0  0  0  0
   -3.7701   -0.8976   -1.8114 H   0  0  0  0  0  0  0  0  0  0  0  0
   -1.0800    3.9623    0.5328 H   0  0  0  0  0  0  0  0  0  0  0  0
   -2.1013    3.8692    1.9738 H   0  0  0  0  0  0  0  0  0  0  0  0
   -0.5968    2.9421    1.9025 H   0  0  0  0  0  0  0  0  0  0  0  0
    5.3031    0.0629   -1.8871 H   0  0  0  0  0  0  0  0  0  0  0  0
    4.8823    0.5837   -0.2195 H   0  0  0  0  0  0  0  0  0  0  0  0
   -4.4037   -1.5932    1.1384 H   0  0  0  0  0  0  0  0  0  0  0  0
   -5.9895    2.1080   -0.4048 H   0  0  0  0  0  0  0  0  0  0  0  0
   -8.2561    1.1869   -0.3022 H   0  0  0  0  0  0  0  0  0  0  0  0
   -9.1258   -2.1400   -0.1297 H   0  0  0  0  0  0  0  0  0  0  0  0
   -9.3006   -1.5268    1.5412 H   0  0  0  0  0  0  0  0  0  0  0  0
   -9.7499   -0.5191    0.1671 H   0  0  0  0  0  0  0  0  0  0  0  0
    7.0229    1.3030   -0.7599 H   0  0  0  0  0  0  0  0  0  0  0  0
    7.3858   -2.3397    1.5355 H   0  0  0  0  0  0  0  0  0  0  0  0
    8.8548    2.2908    0.5221 H   0  0  0  0  0  0  0  0  0  0  0  0
    9.2533   -1.3263    2.8069 H   0  0  0  0  0  0  0  0  0  0  0  0
    9.9881    0.9892    2.3036 H   0  0  0  0  0  0  0  0  0  0  0  0
  1 22  1  0  0  0  0
  2 18  2  0  0  0  0
  3 19  1  0  0  0  0
  3 26  1  0  0  0  0
  4  9  1  0  0  0  0
  4 18  1  0  0  0  0
  4 38  1  0  0  0  0
  5  6  1  0  0  0  0
  5 13  1  0  0  0  0
  5 17  1  0  0  0  0
  6 14  2  0  0  0  0
  7  8  1  0  0  0  0
  7 10  1  0  0  0  0
  7 11  1  0  0  0  0
  7 32  1  0  0  0  0
  8  9  1  0  0  0  0
  8 33  1  0  0  0  0
  8 34  1  0  0  0  0
  9 12  1  0  0  0  0
  9 35  1  0  0  0  0
 10 13  2  0  0  0  0
 10 14  1  0  0  0  0
 11 12  2  0  0  0  0
 11 36  1  0  0  0  0
 12 37  1  0  0  0  0
 13 15  1  0  0  0  0
 14 16  1  0  0  0  0
 15 39  1  0  0  0  0
 15 40  1  0  0  0  0
 15 41  1  0  0  0  0
 16 42  1  0  0  0  0
 16 43  1  0  0  0  0
 16 44  1  0  0  0  0
 17 20  2  0  0  0  0
 17 21  1  0  0  0  0
 18 19  1  0  0  0  0
 19 45  1  0  0  0  0
 19 46  1  0  0  0  0
 20 22  1  0  0  0  0
 20 47  1  0  0  0  0
 21 23  2  0  0  0  0
 21 48  1  0  0  0  0
 22 24  2  0  0  0  0
 23 24  1  0  0  0  0
 23 49  1  0  0  0  0
 24 25  1  0  0  0  0
 25 50  1  0  0  0  0
 25 51  1  0  0  0  0
 25 52  1  0  0  0  0
 26 27  2  0  0  0  0
 26 28  1  0  0  0  0
 27 29  1  0  0  0  0
 27 53  1  0  0  0  0
 28 30  2  0  0  0  0
 28 54  1  0  0  0  0
 29 31  2  0  0  0  0
 29 55  1  0  0  0  0
 30 31  1  0  0  0  0
 30 56  1  0  0  0  0
 31 57  1  0  0  0  0
M  END
> <PUBCHEM_COMPOUND_CID>
26743419

> <PUBCHEM_CONFORMER_RMSD>
1.2

> <PUBCHEM_CONFORMER_DIVERSEORDER>
1
88
76
27
65
30
58
22
25
24
42
69
75
89
38
90
78
20
71
83
62
44
23
35
50
33
37
5
12
55
54
70
49
56
85
59
17
13
39
61
51
36
79
8
68
72
73
60
32
28
10
48
46
16
63
47
84
34
80
11
19
31
67
53
4
2
82
77
14
45
86
29
40
64
21
26
66
15
52
41
74
57
9
7
43
18
81
87
3
6

> <PUBCHEM_MMFF94_PARTIAL_CHARGES>
41
1 -0.18
10 -0.18
11 -0.29
12 -0.29
13 -0.33
14 0.11
15 0.18
16 0.18
17 -0.02
18 0.57
19 0.34
2 -0.57
20 -0.15
21 -0.15
22 0.18
23 -0.15
24 -0.14
25 0.14
26 0.08
27 -0.15
28 -0.15
29 -0.15
3 -0.36
30 -0.15
31 -0.15
36 0.15
37 0.15
38 0.37
4 -0.73
47 0.15
48 0.15
49 0.15
5 0.59
53 0.15
54 0.15
55 0.15
56 0.15
57 0.15
6 -0.71
7 0.32
9 0.44

> <PUBCHEM_EFFECTIVE_ROTOR_COUNT>
7.6

> <PUBCHEM_PHARMACOPHORE_FEATURES>
8
1 2 acceptor
1 3 acceptor
1 4 donor
1 6 acceptor
5 5 6 10 13 14 rings
5 7 8 9 11 12 rings
6 17 20 21 22 23 24 rings
6 26 27 28 29 30 31 rings

> <PUBCHEM_HEAVY_ATOM_COUNT>
31

> <PUBCHEM_ATOM_DEF_STEREO_COUNT>
2

> <PUBCHEM_ATOM_UDEF_STEREO_COUNT>
0

> <PUBCHEM_BOND_DEF_STEREO_COUNT>
0

> <PUBCHEM_BOND_UDEF_STEREO_COUNT>
0

> <PUBCHEM_ISOTOPIC_ATOM_COUNT>
0

> <PUBCHEM_COMPONENT_COUNT>
1

> <PUBCHEM_CACTVS_TAUTO_COUNT>
2

> <PUBCHEM_CONFORMER_ID>
0198127B00000001

> <PUBCHEM_MMFF94_ENERGY>
89.407

> <PUBCHEM_FEATURE_SELFOVERLAP>
40.605

> <PUBCHEM_SHAPE_FINGERPRINT>
10 15 17917991672649892902
10369192 42 14692569905431956436
10391435 84 18410294709715493431
10483366 6 11314305048959411614
106641 1 17346882260819268999
10674148 151 15719388435198733013
10917259 69 15647879424469760093
10930396 42 18272644649820601681
11103572 95 18042400223099740331
11408170 108 16660640696915376722
12838862 33 18343861096632133663
13177829 20 18412545405801159254
13627175 23 14979958103184910370
14068700 675 17748830709020896461
14150022 121 17203053989407233257
14849402 71 14476955696879131539
15064981 194 14188431837507010294
15183329 4 8214145166523210372
15230672 131 7925911457092820376
15320295 40 15936406745653630406
15326923 82 17632292390051969189
15347590 135 18341894074139966410
15350500 16 16298382466381693242
15392192 104 15769776857944248815
15519825 34 18333168380047870426
15690457 1 17240199933041535274
15706992 2 12463578404936707743
15728490 51 18201437004078100847
16126227 98 15841545289124567420
16992610 120 13686299114950381140
16993427 108 16515672330924359204
1754908 1 18410857663868716194
1768 4 16558743529904566888
18393751 57 18060133241844258470
18603816 31 17968658332684949667
19302320 297 17917702540622687616
2026 5 15864061036772559834
21095123 293 13758362162942849475
21130935 74 18199756834220264686
21307412 95 13623540051360522369
21315764 119 8574706910797523976
21585482 111 13254535115012164931
22002106 203 18267587004504684443
22224240 67 16773798086791051703
23559900 14 18190187978952162637
23576562 1 12462699894206858266
2747138 104 18059868250561574108
3711267 37 15339121255957572682
38570 142 11887953233165067838
4112364 45 17417525921833584264
4149490 64 17677628621392297881
4173938 188 17418373636766772015
4403749 210 17703508797243430989
4440575 13 17385719214134995002
45266715 3 14346069785812014672
474113 269 15791724188345696370
5109719 28 17346883347540797382
5758199 1 15697996332019569550
5911458 16 12895075128084837874
59682541 35 18130786776264777778
6126387 218 17967529056827628749
6201320 82 15624231326496494106
6703917 75 13470403392164915885
9663363 56 18273495668438091053
9689198 14 13254799044635130308
9953998 17 17489585679901585135

> <PUBCHEM_SHAPE_MULTIPOLES>
613.15
30.89
2.36
1.88
34.73
0.07
0.62
13.5
-18.29
-3.2
-1.16
2.27
-0.26
0.51

> <PUBCHEM_SHAPE_SELFOVERLAP>
1317.085

> <PUBCHEM_SHAPE_VOLUME>
340

> <PUBCHEM_COORDINATE_TYPE>
2
5
10

$$$$
