11879581
  -OEChem-12032416373D

 58 62  0     1  0  0  0  0  0999 V2000
    3.8441    0.6664   -0.9893 S   0  0  0  0  0  0  0  0  0  0  0  0
    0.6427    4.0957   -0.5232 O   0  0  0  0  0  0  0  0  0  0  0  0
    0.1562    2.0174    1.8046 O   0  0  0  0  0  0  0  0  0  0  0  0
   -2.0496    0.4407    0.4278 O   0  0  0  0  0  0  0  0  0  0  0  0
    4.9354    1.3916   -0.3671 O   0  0  0  0  0  0  0  0  0  0  0  0
    4.0235    0.0547   -2.2920 O   0  0  0  0  0  0  0  0  0  0  0  0
    2.4628    1.6522   -1.0342 N   0  0  0  0  0  0  0  0  0  0  0  0
   -2.6474    2.7311    0.2744 N   0  0  0  0  0  0  0  0  0  0  0  0
   -3.7406    3.4464   -0.0065 N   0  0  0  0  0  0  0  0  0  0  0  0
   -4.1844    1.2646   -0.1221 N   0  0  0  0  0  0  0  0  0  0  0  0
   -4.6814    2.5420   -0.2497 N   0  0  0  0  0  0  0  0  0  0  0  0
   -1.8583   -4.3645    0.6851 N   0  0  0  0  0  0  0  0  0  0  0  0
    1.2423   -1.5082   -2.5745 N   0  0  0  0  0  0  0  0  0  0  0  0
    0.5050    1.9118    0.4155 C   0  0  1  0  0  0  0  0  0  0  0  0
   -0.2564    2.9881   -0.3343 C   0  0  1  0  0  0  0  0  0  0  0  0
    1.9577    2.2708    0.2152 C   0  0  2  0  0  0  0  0  0  0  0  0
   -1.3805    3.3906    0.6015 C   0  0  2  0  0  0  0  0  0  0  0  0
    1.9153    3.7766    0.0562 C   0  0  0  0  0  0  0  0  0  0  0  0
   -0.8163    3.0567    1.9777 C   0  0  0  0  0  0  0  0  0  0  0  0
   -2.9201    1.4073    0.2031 C   0  0  0  0  0  0  0  0  0  0  0  0
    3.3412   -0.6168    0.1178 C   0  0  0  0  0  0  0  0  0  0  0  0
    2.3834   -1.5506   -0.2487 C   0  0  0  0  0  0  0  0  0  0  0  0
    3.9400   -0.6584    1.3691 C   0  0  0  0  0  0  0  0  0  0  0  0
   -2.1291   -0.7969   -0.1957 C   0  0  0  0  0  0  0  0  0  0  0  0
    2.0156   -2.5476    0.6549 C   0  0  0  0  0  0  0  0  0  0  0  0
    3.5722   -1.6553    2.2727 C   0  0  0  0  0  0  0  0  0  0  0  0
    2.6100   -2.6000    1.9157 C   0  0  0  0  0  0  0  0  0  0  0  0
   -1.9547   -1.9403    0.5598 C   0  0  0  0  0  0  0  0  0  0  0  0
    1.7528   -1.5271   -1.5340 C   0  0  0  0  0  0  0  0  0  0  0  0
   -2.3801   -0.8490   -1.5533 C   0  0  0  0  0  0  0  0  0  0  0  0
   -2.0343   -3.1841   -0.0666 C   0  0  0  0  0  0  0  0  0  0  0  0
   -2.4596   -2.0927   -2.1796 C   0  0  0  0  0  0  0  0  0  0  0  0
   -2.2867   -3.2604   -1.4364 C   0  0  0  0  0  0  0  0  0  0  0  0
   -1.3009   -5.5513    0.0678 C   0  0  0  0  0  0  0  0  0  0  0  0
   -2.2198   -4.4016    2.0882 C   0  0  0  0  0  0  0  0  0  0  0  0
    0.2805    0.8965    0.0853 H   0  0  0  0  0  0  0  0  0  0  0  0
   -0.5849    2.6663   -1.3279 H   0  0  0  0  0  0  0  0  0  0  0  0
    2.5913    2.0051    1.0660 H   0  0  0  0  0  0  0  0  0  0  0  0
   -1.5876    4.4671    0.5487 H   0  0  0  0  0  0  0  0  0  0  0  0
    2.7123    4.1775   -0.5773 H   0  0  0  0  0  0  0  0  0  0  0  0
    1.9641    4.2756    1.0303 H   0  0  0  0  0  0  0  0  0  0  0  0
   -1.5735    2.7285    2.6962 H   0  0  0  0  0  0  0  0  0  0  0  0
   -0.2927    3.9210    2.4009 H   0  0  0  0  0  0  0  0  0  0  0  0
    1.8357    1.6391   -1.8473 H   0  0  0  0  0  0  0  0  0  0  0  0
    4.6888    0.0632    1.6796 H   0  0  0  0  0  0  0  0  0  0  0  0
    1.2690   -3.2931    0.3925 H   0  0  0  0  0  0  0  0  0  0  0  0
    4.0339   -1.6958    3.2550 H   0  0  0  0  0  0  0  0  0  0  0  0
    2.3233   -3.3761    2.6193 H   0  0  0  0  0  0  0  0  0  0  0  0
   -1.7463   -1.8461    1.6213 H   0  0  0  0  0  0  0  0  0  0  0  0
   -2.5009    0.0499   -2.1504 H   0  0  0  0  0  0  0  0  0  0  0  0
   -2.6543   -2.1516   -3.2465 H   0  0  0  0  0  0  0  0  0  0  0  0
   -2.3651   -4.2127   -1.9529 H   0  0  0  0  0  0  0  0  0  0  0  0
   -2.0626   -6.0800   -0.5149 H   0  0  0  0  0  0  0  0  0  0  0  0
   -0.4560   -5.3047   -0.5853 H   0  0  0  0  0  0  0  0  0  0  0  0
   -0.9212   -6.2486    0.8230 H   0  0  0  0  0  0  0  0  0  0  0  0
   -2.3449   -5.4331    2.4366 H   0  0  0  0  0  0  0  0  0  0  0  0
   -1.4395   -3.9393    2.7019 H   0  0  0  0  0  0  0  0  0  0  0  0
   -3.1716   -3.8904    2.2715 H   0  0  0  0  0  0  0  0  0  0  0  0
  1  5  2  0  0  0  0
  1  6  2  0  0  0  0
  1  7  1  0  0  0  0
  1 21  1  0  0  0  0
  2 15  1  0  0  0  0
  2 18  1  0  0  0  0
  3 14  1  0  0  0  0
  3 19  1  0  0  0  0
  4 20  1  0  0  0  0
  4 24  1  0  0  0  0
  7 16  1  0  0  0  0
  7 44  1  0  0  0  0
  8  9  1  0  0  0  0
  8 17  1  0  0  0  0
  8 20  1  0  0  0  0
  9 11  2  0  0  0  0
 10 11  1  0  0  0  0
 10 20  2  0  0  0  0
 12 31  1  0  0  0  0
 12 34  1  0  0  0  0
 12 35  1  0  0  0  0
 13 29  3  0  0  0  0
 14 15  1  0  0  0  0
 14 16  1  0  0  0  0
 14 36  1  0  0  0  0
 15 17  1  0  0  0  0
 15 37  1  0  0  0  0
 16 18  1  0  0  0  0
 16 38  1  0  0  0  0
 17 19  1  0  0  0  0
 17 39  1  0  0  0  0
 18 40  1  0  0  0  0
 18 41  1  0  0  0  0
 19 42  1  0  0  0  0
 19 43  1  0  0  0  0
 21 22  1  0  0  0  0
 21 23  2  0  0  0  0
 22 25  2  0  0  0  0
 22 29  1  0  0  0  0
 23 26  1  0  0  0  0
 23 45  1  0  0  0  0
 24 28  1  0  0  0  0
 24 30  2  0  0  0  0
 25 27  1  0  0  0  0
 25 46  1  0  0  0  0
 26 27  2  0  0  0  0
 26 47  1  0  0  0  0
 27 48  1  0  0  0  0
 28 31  2  0  0  0  0
 28 49  1  0  0  0  0
 30 32  1  0  0  0  0
 30 50  1  0  0  0  0
 31 33  1  0  0  0  0
 32 33  2  0  0  0  0
 32 51  1  0  0  0  0
 33 52  1  0  0  0  0
 34 53  1  0  0  0  0
 34 54  1  0  0  0  0
 34 55  1  0  0  0  0
 35 56  1  0  0  0  0
 35 57  1  0  0  0  0
 35 58  1  0  0  0  0
M  END
> <PUBCHEM_COMPOUND_CID>
11879581

> <PUBCHEM_CONFORMER_RMSD>
1.2

> <PUBCHEM_CONFORMER_DIVERSEORDER>
1
221
125
63
113
255
138
30
220
19
133
272
289
226
187
10
51
114
191
41
155
5
254
36
238
95
216
118
256
268
34
43
150
274
86
130
181
263
97
57
154
198
135
259
2
261
276
42
100
75
217
85
109
173
218
101
31
253
16
71
190
207
83
178
20
275
182
214
205
88
37
33
45
142
180
13
293
81
127
58
210
59
8
243
186
242
230
94
99
14
25
160
50
183
156
131
279
225
201
148
192
194
153
170
92
283
107
222
117
116
93
227
258
79
134
202
228
106
229
110
219
234
123
62
287
129
262
241
199
290
68
251
246
184
149
224
38
144
172
250
166
105
248
126
244
98
267
84
140
213
158
232
200
239
266
46
91
292
204
55
291
53
280
168
236
9
39
281
273
163
285
87
247
108
103
77
176
141
223
264
128
177
143
136
21
90
269
44
48
240
65
151
17
179
282
137
157
212
203
56
277
104
73
145
61
122
233
260
146
124
175
193
237
78
271
208
112
26
139
235
270
197
4
164
40
49
288
66
47
6
28
245
165
195
209
152
196
265
185
35
206
252
52
161
132
22
82
278
231
74
15
3
69
96
286
29
23
215
211
167
284
72
189
7
32
188
67
257
89
169
11
64
76
174
102
24
60
111
54
27
147
70
159
80
12
249
120
171
119
162
18
121
115

> <PUBCHEM_MMFF94_PARTIAL_CHARGES>
43
1 1.45
10 -0.34
12 -0.84
13 -0.56
14 0.28
15 0.28
16 0.36
17 0.26
18 0.28
19 0.28
2 -0.56
20 0.25
21 -0.01
22 0.07
23 -0.15
24 0.08
25 -0.15
26 -0.15
27 -0.15
28 -0.15
29 0.48
3 -0.56
30 -0.15
31 0.1
32 -0.15
33 -0.15
34 0.37
35 0.37
4 -0.15
44 0.42
45 0.15
46 0.15
47 0.15
48 0.15
49 0.15
5 -0.65
50 0.15
51 0.15
52 0.15
6 -0.65
7 -0.91
8 0.31
9 -0.42

> <PUBCHEM_EFFECTIVE_ROTOR_COUNT>
8.2

> <PUBCHEM_PHARMACOPHORE_FEATURES>
13
1 12 cation
1 13 acceptor
1 2 acceptor
1 3 acceptor
1 5 acceptor
1 6 acceptor
1 7 donor
3 8 10 20 cation
5 2 14 15 16 18 rings
5 3 14 15 17 19 rings
5 8 9 10 11 20 rings
6 21 22 23 25 26 27 rings
6 24 28 30 31 32 33 rings

> <PUBCHEM_HEAVY_ATOM_COUNT>
35

> <PUBCHEM_ATOM_DEF_STEREO_COUNT>
4

> <PUBCHEM_ATOM_UDEF_STEREO_COUNT>
0

> <PUBCHEM_BOND_DEF_STEREO_COUNT>
0

> <PUBCHEM_BOND_UDEF_STEREO_COUNT>
0

> <PUBCHEM_ISOTOPIC_ATOM_COUNT>
0

> <PUBCHEM_COMPONENT_COUNT>
1

> <PUBCHEM_CACTVS_TAUTO_COUNT>
1

> <PUBCHEM_CONFORMER_ID>
00B5449D00000001

> <PUBCHEM_MMFF94_ENERGY>
90.5347

> <PUBCHEM_FEATURE_SELFOVERLAP>
66.68

> <PUBCHEM_SHAPE_FINGERPRINT>
10675989 125 17981043016220886865
12156800 1 12589566094153089740
12422481 6 17546745754862148361
12553582 1 18413107290022448892
12788726 201 18411695526279113375
13122387 1 17619069425948667676
13140716 1 18127140885617153328
19319366 153 17895204280973593002
20764821 26 17901671792809100675
20905425 154 18125161790640926804
22113638 7 18339350851825406861
23559900 14 17479741515990561396
238 59 17476909629150702758
35225 105 17977105656538586686
392239 28 17470166320243545714
463206 1 18340491191428382777
5309563 4 17402611247822135263
70251023 43 17842554338492484343

> <PUBCHEM_SHAPE_MULTIPOLES>
659.92
7.47
7.13
2.02
0.83
4.6
0.19
-4.64
0.99
2.75
-2.47
-0.17
-1.65
0.43

> <PUBCHEM_SHAPE_SELFOVERLAP>
1425.254

> <PUBCHEM_SHAPE_VOLUME>
364.4

> <PUBCHEM_COORDINATE_TYPE>
2
5
10

$$$$
