11913137
  -OEChem-12032416163D

 62 65  0     1  0  0  0  0  0999 V2000
    4.7092   -2.9607    0.7661 F   0  0  0  0  0  0  0  0  0  0  0  0
   -0.2268    0.4380   -2.0233 O   0  0  0  0  0  0  0  0  0  0  0  0
   -2.2865    4.1001   -0.7356 O   0  0  0  0  0  0  0  0  0  0  0  0
   -2.7115   -2.4446    0.5063 O   0  0  0  0  0  0  0  0  0  0  0  0
    4.3466    1.9049   -1.6701 O   0  0  0  0  0  0  0  0  0  0  0  0
   -5.7018   -0.5777    1.6393 O   0  0  0  0  0  0  0  0  0  0  0  0
   -0.5281    2.5893   -0.4014 N   0  0  0  0  0  0  0  0  0  0  0  0
    2.3058    1.9010   -0.5353 N   0  0  0  0  0  0  0  0  0  0  0  0
   -0.5148   -0.9796   -0.1996 N   0  0  0  0  0  0  0  0  0  0  0  0
   -1.7623   -4.3631   -0.2913 N   0  0  0  0  0  0  0  0  0  0  0  0
   -0.0279    1.3362    0.1822 C   0  0  2  0  0  0  0  0  0  0  0  0
    1.4547    1.4028    0.5563 C   0  0  0  0  0  0  0  0  0  0  0  0
    0.4713    3.5238   -0.9219 C   0  0  0  0  0  0  0  0  0  0  0  0
    1.6887    2.8155   -1.4943 C   0  0  0  0  0  0  0  0  0  0  0  0
   -0.7896   -2.1888   -0.9315 C   0  0  1  0  0  0  0  0  0  0  0  0
   -0.2561    0.2344   -0.8125 C   0  0  0  0  0  0  0  0  0  0  0  0
    0.4975   -2.9435   -1.2348 C   0  0  0  0  0  0  0  0  0  0  0  0
    0.1643   -4.2935   -1.8489 C   0  0  0  0  0  0  0  0  0  0  0  0
   -1.8659    3.0052   -0.3650 C   0  0  0  0  0  0  0  0  0  0  0  0
   -0.6488   -5.1027   -0.8561 C   0  0  0  0  0  0  0  0  0  0  0  0
   -1.8176   -2.9920   -0.1423 C   0  0  0  0  0  0  0  0  0  0  0  0
    3.6385    1.5250   -0.7381 C   0  0  0  0  0  0  0  0  0  0  0  0
   -2.8673    2.0683    0.1586 C   0  0  0  0  0  0  0  0  0  0  0  0
    4.2603    0.6098    0.2323 C   0  0  0  0  0  0  0  0  0  0  0  0
   -3.1753    2.0654    1.5191 C   0  0  0  0  0  0  0  0  0  0  0  0
   -3.5114    1.1815   -0.7041 C   0  0  0  0  0  0  0  0  0  0  0  0
    4.1887   -0.7692    0.0353 C   0  0  0  0  0  0  0  0  0  0  0  0
    4.9214    1.1216    1.3489 C   0  0  0  0  0  0  0  0  0  0  0  0
   -4.1273    1.1759    2.0169 C   0  0  0  0  0  0  0  0  0  0  0  0
   -4.4634    0.2917   -0.2063 C   0  0  0  0  0  0  0  0  0  0  0  0
   -4.7712    0.2890    1.1541 C   0  0  0  0  0  0  0  0  0  0  0  0
    4.7782   -1.6365    0.9549 C   0  0  0  0  0  0  0  0  0  0  0  0
    5.5109    0.2542    2.2685 C   0  0  0  0  0  0  0  0  0  0  0  0
    5.4393   -1.1249    2.0715 C   0  0  0  0  0  0  0  0  0  0  0  0
   -6.3215   -1.4569    0.7020 C   0  0  0  0  0  0  0  0  0  0  0  0
   -0.5993    1.1252    1.0919 H   0  0  0  0  0  0  0  0  0  0  0  0
    1.5918    2.1066    1.3869 H   0  0  0  0  0  0  0  0  0  0  0  0
    1.8033    0.4258    0.9012 H   0  0  0  0  0  0  0  0  0  0  0  0
    0.7648    4.1679   -0.0838 H   0  0  0  0  0  0  0  0  0  0  0  0
    0.0162    4.1676   -1.6824 H   0  0  0  0  0  0  0  0  0  0  0  0
    1.4298    2.2350   -2.3858 H   0  0  0  0  0  0  0  0  0  0  0  0
    2.4333    3.5556   -1.8098 H   0  0  0  0  0  0  0  0  0  0  0  0
   -1.2737   -1.9182   -1.8791 H   0  0  0  0  0  0  0  0  0  0  0  0
    1.1231   -2.3634   -1.9237 H   0  0  0  0  0  0  0  0  0  0  0  0
    1.0863   -3.0860   -0.3191 H   0  0  0  0  0  0  0  0  0  0  0  0
   -0.4854   -1.0364    0.8147 H   0  0  0  0  0  0  0  0  0  0  0  0
   -0.4066   -4.1493   -2.7743 H   0  0  0  0  0  0  0  0  0  0  0  0
    1.0810   -4.8324   -2.1109 H   0  0  0  0  0  0  0  0  0  0  0  0
   -1.0522   -6.0044   -1.3274 H   0  0  0  0  0  0  0  0  0  0  0  0
   -0.0214   -5.4165   -0.0144 H   0  0  0  0  0  0  0  0  0  0  0  0
   -2.4779   -4.9049    0.1834 H   0  0  0  0  0  0  0  0  0  0  0  0
   -2.6793    2.7523    2.2000 H   0  0  0  0  0  0  0  0  0  0  0  0
   -3.2790    1.1763   -1.7659 H   0  0  0  0  0  0  0  0  0  0  0  0
    3.6744   -1.1786   -0.8304 H   0  0  0  0  0  0  0  0  0  0  0  0
    4.9824    2.1945    1.5120 H   0  0  0  0  0  0  0  0  0  0  0  0
   -4.3631    1.1783    3.0775 H   0  0  0  0  0  0  0  0  0  0  0  0
   -4.9242   -0.3703   -0.9314 H   0  0  0  0  0  0  0  0  0  0  0  0
    6.0254    0.6525    3.1382 H   0  0  0  0  0  0  0  0  0  0  0  0
    5.8979   -1.8005    2.7874 H   0  0  0  0  0  0  0  0  0  0  0  0
   -6.8988   -0.9042   -0.0469 H   0  0  0  0  0  0  0  0  0  0  0  0
   -5.5953   -2.1379    0.2458 H   0  0  0  0  0  0  0  0  0  0  0  0
   -7.0320   -2.0754    1.2602 H   0  0  0  0  0  0  0  0  0  0  0  0
  1 32  1  0  0  0  0
  2 16  2  0  0  0  0
  3 19  2  0  0  0  0
  4 21  2  0  0  0  0
  5 22  2  0  0  0  0
  6 31  1  0  0  0  0
  6 35  1  0  0  0  0
  7 11  1  0  0  0  0
  7 13  1  0  0  0  0
  7 19  1  0  0  0  0
  8 12  1  0  0  0  0
  8 14  1  0  0  0  0
  8 22  1  0  0  0  0
  9 15  1  0  0  0  0
  9 16  1  0  0  0  0
  9 46  1  0  0  0  0
 10 20  1  0  0  0  0
 10 21  1  0  0  0  0
 10 51  1  0  0  0  0
 11 12  1  0  0  0  0
 11 16  1  0  0  0  0
 11 36  1  0  0  0  0
 12 37  1  0  0  0  0
 12 38  1  0  0  0  0
 13 14  1  0  0  0  0
 13 39  1  0  0  0  0
 13 40  1  0  0  0  0
 14 41  1  0  0  0  0
 14 42  1  0  0  0  0
 15 17  1  0  0  0  0
 15 21  1  0  0  0  0
 15 43  1  0  0  0  0
 17 18  1  0  0  0  0
 17 44  1  0  0  0  0
 17 45  1  0  0  0  0
 18 20  1  0  0  0  0
 18 47  1  0  0  0  0
 18 48  1  0  0  0  0
 19 23  1  0  0  0  0
 20 49  1  0  0  0  0
 20 50  1  0  0  0  0
 22 24  1  0  0  0  0
 23 25  2  0  0  0  0
 23 26  1  0  0  0  0
 24 27  2  0  0  0  0
 24 28  1  0  0  0  0
 25 29  1  0  0  0  0
 25 52  1  0  0  0  0
 26 30  2  0  0  0  0
 26 53  1  0  0  0  0
 27 32  1  0  0  0  0
 27 54  1  0  0  0  0
 28 33  2  0  0  0  0
 28 55  1  0  0  0  0
 29 31  2  0  0  0  0
 29 56  1  0  0  0  0
 30 31  1  0  0  0  0
 30 57  1  0  0  0  0
 32 34  2  0  0  0  0
 33 34  1  0  0  0  0
 33 58  1  0  0  0  0
 34 59  1  0  0  0  0
 35 60  1  0  0  0  0
 35 61  1  0  0  0  0
 35 62  1  0  0  0  0
M  END
> <PUBCHEM_COMPOUND_CID>
11913137

> <PUBCHEM_CONFORMER_RMSD>
1.2

> <PUBCHEM_CONFORMER_DIVERSEORDER>
2
31
42
111
85
125
68
106
41
53
79
109
135
141
142
34
112
93
97
132
114
117
122
46
72
6
56
70
143
89
130
129
110
47
96
88
54
102
139
71
128
134
49
58
103
116
82
1
52
14
145
57
118
80
75
61
26
140
98
77
83
137
63
67
33
127
21
108
133
45
94
100
18
131
62
74
51
138
35
29
92
84
50
113
76
39
123
121
69
119
105
15
20
66
64
27
37
95
91
120
55
60
59
86
73
90
38
23
115
4
12
48
65
19
25
43
87
78
107
3
44
22
36
28
13
11
99
24
104
17
126
30
9
40
32
144
5
101
10
136
124
16
8
7
81

> <PUBCHEM_MMFF94_PARTIAL_CHARGES>
43
1 -0.19
10 -0.73
11 0.36
12 0.3
13 0.3
14 0.3
15 0.36
16 0.57
19 0.54
2 -0.57
20 0.3
21 0.57
22 0.54
23 0.09
24 0.09
25 -0.15
26 -0.15
27 -0.15
28 -0.15
29 -0.15
3 -0.57
30 -0.15
31 0.08
32 0.19
33 -0.15
34 -0.15
35 0.28
4 -0.57
46 0.37
5 -0.57
51 0.37
52 0.15
53 0.15
54 0.15
55 0.15
56 0.15
57 0.15
58 0.15
59 0.15
6 -0.36
7 -0.66
8 -0.66
9 -0.73

> <PUBCHEM_EFFECTIVE_ROTOR_COUNT>
10.2

> <PUBCHEM_PHARMACOPHORE_FEATURES>
11
1 10 donor
1 2 acceptor
1 3 acceptor
1 4 acceptor
1 5 acceptor
1 6 acceptor
1 9 donor
6 10 15 17 18 20 21 rings
6 23 25 26 29 30 31 rings
6 24 27 28 32 33 34 rings
6 7 8 11 12 13 14 rings

> <PUBCHEM_HEAVY_ATOM_COUNT>
35

> <PUBCHEM_ATOM_DEF_STEREO_COUNT>
2

> <PUBCHEM_ATOM_UDEF_STEREO_COUNT>
0

> <PUBCHEM_BOND_DEF_STEREO_COUNT>
0

> <PUBCHEM_BOND_UDEF_STEREO_COUNT>
0

> <PUBCHEM_ISOTOPIC_ATOM_COUNT>
0

> <PUBCHEM_COMPONENT_COUNT>
1

> <PUBCHEM_CACTVS_TAUTO_COUNT>
4

> <PUBCHEM_CONFORMER_ID>
00B5C7B100000002

> <PUBCHEM_MMFF94_ENERGY>
105.8322

> <PUBCHEM_FEATURE_SELFOVERLAP>
55.825

> <PUBCHEM_SHAPE_FINGERPRINT>
10074138 170 18196911444246217514
10675989 125 16466990706079684007
11719270 70 18413112741095511849
12422481 6 18337961069127703425
12788726 201 17907586083483195502
12839892 36 18412830153247751793
13561361 72 18339645546948993818
14395042 24 18268988868892131339
15403338 16 17458616805307614203
15790856 291 15866854805228579100
15815584 197 18126289640705957565
16728300 4 18041549287431685331
17818456 19 18269560609688162523
19319366 153 16748757027438249743
20028762 73 18059020604828132815
20764821 26 18267888214248640751
21795232 338 18342164606330894890
21814621 53 15266523771824989327
22223350 30 17913205653348543283
22956985 138 18122920723998740751
229767 44 18412538821089293810
23559900 14 17688321087739829964
238918 7 18271240500452615918
373842 8 18409453608974264243
437795 96 17759801438304939989
4403749 210 18264751191916829616
5047190 48 18341618143797151438
5085150 59 18338223900305581001
5171179 24 17694222171168261935

> <PUBCHEM_SHAPE_MULTIPOLES>
663.74
11.96
5.87
1.84
3.25
5.9
-0.42
0.28
-8.72
-2.03
2.93
0.93
-0.12
-1.2

> <PUBCHEM_SHAPE_SELFOVERLAP>
1425.829

> <PUBCHEM_SHAPE_VOLUME>
363.6

> <PUBCHEM_COORDINATE_TYPE>
2
5
10

$$$$
