40777894
  -OEChem-12032416173D

 57 59  0     1  0  0  0  0  0999 V2000
    3.6827   -0.5727   -1.7850 S   0  0  0  0  0  0  0  0  0  0  0  0
   -0.2456    1.5183   -0.7130 O   0  0  0  0  0  0  0  0  0  0  0  0
   -0.7220    3.7838    2.0329 O   0  0  0  0  0  0  0  0  0  0  0  0
    0.3211    4.4926   -0.4120 O   0  0  0  0  0  0  0  0  0  0  0  0
   -4.5090   -1.0157   -2.1778 O   0  0  0  0  0  0  0  0  0  0  0  0
   -3.2334    1.0531   -0.8013 O   0  0  0  0  0  0  0  0  0  0  0  0
    4.6437    0.4508   -2.1492 O   0  0  0  0  0  0  0  0  0  0  0  0
    3.4534   -1.7038   -2.6635 O   0  0  0  0  0  0  0  0  0  0  0  0
   -3.6901   -0.5719    0.7816 N   0  0  0  0  0  0  0  0  0  0  0  0
    2.1879    0.1911   -1.3955 N   0  0  0  0  0  0  0  0  0  0  0  0
   -1.0420    2.0473    0.3618 C   0  0  2  0  0  0  0  0  0  0  0  0
   -0.0731    2.7963    1.2607 C   0  0  1  0  0  0  0  0  0  0  0  0
    0.8990    3.3679    0.2496 C   0  0  1  0  0  0  0  0  0  0  0  0
    1.0116    2.2312   -0.7603 C   0  0  1  0  0  0  0  0  0  0  0  0
   -4.9325   -1.0530    0.1730 C   0  0  2  0  0  0  0  0  0  0  0  0
   -1.7656    0.9144    1.0676 C   0  0  0  0  0  0  0  0  0  0  0  0
   -5.5885   -1.8742    1.2859 C   0  0  0  0  0  0  0  0  0  0  0  0
   -3.4043   -1.2770    2.0287 C   0  0  0  0  0  0  0  0  0  0  0  0
   -4.4000   -2.4262    2.0644 C   0  0  0  0  0  0  0  0  0  0  0  0
   -2.9608    0.4823    0.2561 C   0  0  0  0  0  0  0  0  0  0  0  0
    2.1202    1.2431   -0.4246 C   0  0  0  0  0  0  0  0  0  0  0  0
   -4.6553   -1.8898   -1.0744 C   0  0  0  0  0  0  0  0  0  0  0  0
    4.1542   -1.2279   -0.2123 C   0  0  0  0  0  0  0  0  0  0  0  0
   -4.2472   -1.7263   -3.3829 C   0  0  0  0  0  0  0  0  0  0  0  0
    3.7516   -2.5110    0.1583 C   0  0  0  0  0  0  0  0  0  0  0  0
    4.9274   -0.4604    0.6588 C   0  0  0  0  0  0  0  0  0  0  0  0
    4.1225   -3.0267    1.4003 C   0  0  0  0  0  0  0  0  0  0  0  0
    5.2982   -0.9762    1.9007 C   0  0  0  0  0  0  0  0  0  0  0  0
    4.8959   -2.2594    2.2713 C   0  0  0  0  0  0  0  0  0  0  0  0
   -1.7568    2.7623   -0.0666 H   0  0  0  0  0  0  0  0  0  0  0  0
    0.4448    2.1027    1.9343 H   0  0  0  0  0  0  0  0  0  0  0  0
    1.8474    3.6881    0.6902 H   0  0  0  0  0  0  0  0  0  0  0  0
    1.1352    2.6028   -1.7843 H   0  0  0  0  0  0  0  0  0  0  0  0
   -5.5526   -0.1873   -0.0894 H   0  0  0  0  0  0  0  0  0  0  0  0
   -2.1251    1.2457    2.0480 H   0  0  0  0  0  0  0  0  0  0  0  0
   -1.0935    0.0590    1.1945 H   0  0  0  0  0  0  0  0  0  0  0  0
   -6.2607   -2.6576    0.9243 H   0  0  0  0  0  0  0  0  0  0  0  0
   -6.1682   -1.2101    1.9395 H   0  0  0  0  0  0  0  0  0  0  0  0
   -3.5708   -0.5792    2.8563 H   0  0  0  0  0  0  0  0  0  0  0  0
   -2.3676   -1.6229    2.0551 H   0  0  0  0  0  0  0  0  0  0  0  0
   -4.6586   -2.7263    3.0835 H   0  0  0  0  0  0  0  0  0  0  0  0
   -3.9874   -3.2992    1.5450 H   0  0  0  0  0  0  0  0  0  0  0  0
    1.9360    0.7859    0.5540 H   0  0  0  0  0  0  0  0  0  0  0  0
    3.0701    1.7852   -0.3756 H   0  0  0  0  0  0  0  0  0  0  0  0
   -5.5045   -2.5534   -1.2761 H   0  0  0  0  0  0  0  0  0  0  0  0
   -3.7520   -2.5002   -0.9552 H   0  0  0  0  0  0  0  0  0  0  0  0
   -0.0332    4.2950    2.4905 H   0  0  0  0  0  0  0  0  0  0  0  0
    0.9629    4.8015   -1.0742 H   0  0  0  0  0  0  0  0  0  0  0  0
    1.3285   -0.3531   -1.5416 H   0  0  0  0  0  0  0  0  0  0  0  0
   -4.1451   -1.0004   -4.1940 H   0  0  0  0  0  0  0  0  0  0  0  0
   -5.0766   -2.4002   -3.6185 H   0  0  0  0  0  0  0  0  0  0  0  0
   -3.3133   -2.2906   -3.2990 H   0  0  0  0  0  0  0  0  0  0  0  0
    3.1428   -3.1226   -0.5013 H   0  0  0  0  0  0  0  0  0  0  0  0
    5.2491    0.5424    0.3926 H   0  0  0  0  0  0  0  0  0  0  0  0
    3.8076   -4.0250    1.6900 H   0  0  0  0  0  0  0  0  0  0  0  0
    5.8993   -0.3784    2.5796 H   0  0  0  0  0  0  0  0  0  0  0  0
    5.1841   -2.6606    3.2385 H   0  0  0  0  0  0  0  0  0  0  0  0
  1  7  2  0  0  0  0
  1  8  2  0  0  0  0
  1 10  1  0  0  0  0
  1 23  1  0  0  0  0
  2 11  1  0  0  0  0
  2 14  1  0  0  0  0
  3 12  1  0  0  0  0
  3 47  1  0  0  0  0
  4 13  1  0  0  0  0
  4 48  1  0  0  0  0
  5 22  1  0  0  0  0
  5 24  1  0  0  0  0
  6 20  2  0  0  0  0
  9 15  1  0  0  0  0
  9 18  1  0  0  0  0
  9 20  1  0  0  0  0
 10 21  1  0  0  0  0
 10 49  1  0  0  0  0
 11 12  1  0  0  0  0
 11 16  1  0  0  0  0
 11 30  1  0  0  0  0
 12 13  1  0  0  0  0
 12 31  1  0  0  0  0
 13 14  1  0  0  0  0
 13 32  1  0  0  0  0
 14 21  1  0  0  0  0
 14 33  1  0  0  0  0
 15 17  1  0  0  0  0
 15 22  1  0  0  0  0
 15 34  1  0  0  0  0
 16 20  1  0  0  0  0
 16 35  1  0  0  0  0
 16 36  1  0  0  0  0
 17 19  1  0  0  0  0
 17 37  1  0  0  0  0
 17 38  1  0  0  0  0
 18 19  1  0  0  0  0
 18 39  1  0  0  0  0
 18 40  1  0  0  0  0
 19 41  1  0  0  0  0
 19 42  1  0  0  0  0
 21 43  1  0  0  0  0
 21 44  1  0  0  0  0
 22 45  1  0  0  0  0
 22 46  1  0  0  0  0
 23 25  2  0  0  0  0
 23 26  1  0  0  0  0
 24 50  1  0  0  0  0
 24 51  1  0  0  0  0
 24 52  1  0  0  0  0
 25 27  1  0  0  0  0
 25 53  1  0  0  0  0
 26 28  2  0  0  0  0
 26 54  1  0  0  0  0
 27 29  2  0  0  0  0
 27 55  1  0  0  0  0
 28 29  1  0  0  0  0
 28 56  1  0  0  0  0
 29 57  1  0  0  0  0
M  END
> <PUBCHEM_COMPOUND_CID>
40777894

> <PUBCHEM_CONFORMER_RMSD>
1.2

> <PUBCHEM_CONFORMER_DIVERSEORDER>
1
112
127
75
61
94
24
23
19
73
79
7
131
80
111
67
37
104
47
134
133
70
93
123
17
105
8
101
51
59
129
53
122
66
119
100
64
55
56
44
57
26
88
124
52
58
110
10
62
60
82
42
43
84
35
86
117
89
116
15
68
41
99
118
6
132
106
16
126
25
4
83
50
87
81
125
39
69
32
12
22
108
97
29
78
120
96
98
14
33
36
40
18
107
92
38
114
27
77
5
31
76
49
3
72
91
115
113
121
130
13
63
20
9
28
65
128
54
46
21
30
48
74
102
95
90
34
71
2
109
103
11
45
85

> <PUBCHEM_MMFF94_PARTIAL_CHARGES>
35
1 1.45
10 -0.91
11 0.28
12 0.28
13 0.28
14 0.28
15 0.3
16 0.06
18 0.3
2 -0.56
20 0.57
21 0.36
22 0.28
23 -0.01
24 0.28
25 -0.15
26 -0.15
27 -0.15
28 -0.15
29 -0.15
3 -0.68
4 -0.68
47 0.4
48 0.4
49 0.42
5 -0.56
53 0.15
54 0.15
55 0.15
56 0.15
57 0.15
6 -0.57
7 -0.65
8 -0.65
9 -0.66

> <PUBCHEM_EFFECTIVE_ROTOR_COUNT>
11

> <PUBCHEM_PHARMACOPHORE_FEATURES>
13
1 10 donor
1 2 acceptor
1 3 acceptor
1 3 donor
1 4 acceptor
1 4 donor
1 5 acceptor
1 6 acceptor
1 7 acceptor
1 8 acceptor
5 2 11 12 13 14 rings
5 9 15 17 18 19 rings
6 23 25 26 27 28 29 rings

> <PUBCHEM_HEAVY_ATOM_COUNT>
29

> <PUBCHEM_ATOM_DEF_STEREO_COUNT>
5

> <PUBCHEM_ATOM_UDEF_STEREO_COUNT>
0

> <PUBCHEM_BOND_DEF_STEREO_COUNT>
0

> <PUBCHEM_BOND_UDEF_STEREO_COUNT>
0

> <PUBCHEM_ISOTOPIC_ATOM_COUNT>
0

> <PUBCHEM_COMPONENT_COUNT>
1

> <PUBCHEM_CACTVS_TAUTO_COUNT>
1

> <PUBCHEM_CONFORMER_ID>
026E38A600000001

> <PUBCHEM_MMFF94_ENERGY>
61.9177

> <PUBCHEM_FEATURE_SELFOVERLAP>
66.01

> <PUBCHEM_SHAPE_FINGERPRINT>
10074138 170 17841440232576574729
11069576 57 17822020770445428558
11377469 6 18194149427792230628
12553582 1 18271536359016130398
13692114 37 17626952972108489241
13828863 39 14332826254059832882
14508693 111 18333738996454644266
14848178 5 18040991809208479002
14910302 57 17241322629103559851
14950920 106 15697443213204642598
15163728 17 8286200599433316361
1813 80 18201726162687480385
20567600 70 18335144249423665682
20775530 9 18341339967271077581
21315759 227 18114472265539637835
21315764 119 17022612075299965319
21458453 9 17629738301343915290
21703447 108 18340215205372761352
23559900 14 17676765500469467511
23572383 38 18188479186419611642
25222932 49 18264214771686018230
345986 75 18271539640497738801
437795 70 14490746785522451022
4394409 98 16879604039140120555
463206 1 18259989283606571571
469060 322 18130209506748454495
613672 6 18342177752160528071

> <PUBCHEM_SHAPE_MULTIPOLES>
549.61
13.57
4.47
2.79
1.53
4.11
1.65
-14.85
-0.45
-0.95
-1.97
0.77
-1.58
-1.47

> <PUBCHEM_SHAPE_SELFOVERLAP>
1131.006

> <PUBCHEM_SHAPE_VOLUME>
316.3

> <PUBCHEM_COORDINATE_TYPE>
2
5
10

$$$$
