40780323
  -OEChem-12032416163D

 68 73  0     1  0  0  0  0  0999 V2000
   -2.1795   -6.5487   -1.7108 F   0  0  0  0  0  0  0  0  0  0  0  0
   -1.1194   -7.1730    0.0819 F   0  0  0  0  0  0  0  0  0  0  0  0
   -0.0246   -6.7893   -1.7571 F   0  0  0  0  0  0  0  0  0  0  0  0
    3.5223   -1.6144    2.0881 O   0  0  0  0  0  0  0  0  0  0  0  0
    1.6642   -0.3898    2.7082 O   0  0  0  0  0  0  0  0  0  0  0  0
    0.8301   -0.1352    0.1150 N   0  0  2  0  0  0  0  0  0  0  0  0
    2.4977    3.2233   -0.1030 N   0  0  0  0  0  0  0  0  0  0  0  0
   -2.7606    2.1910    0.0392 N   0  0  0  0  0  0  0  0  0  0  0  0
   -7.2650    2.6310   -0.7498 N   0  0  0  0  0  0  0  0  0  0  0  0
    0.9143    1.3058    0.5061 C   0  0  2  0  0  0  0  0  0  0  0  0
   -0.4024   -0.7802    0.6346 C   0  0  1  0  0  0  0  0  0  0  0  0
   -0.3121    2.0795   -0.0026 C   0  0  0  0  0  0  0  0  0  0  0  0
   -1.5980    1.4694    0.5541 C   0  0  2  0  0  0  0  0  0  0  0  0
   -1.6665   -0.0106    0.1808 C   0  0  0  0  0  0  0  0  0  0  0  0
    2.0881   -0.8834    0.3863 C   0  0  1  0  0  0  0  0  0  0  0  0
    2.1932    1.8939   -0.0107 C   0  0  0  0  0  0  0  0  0  0  0  0
    3.2983   -0.3159   -0.3984 C   0  0  0  0  0  0  0  0  0  0  0  0
    3.2972    1.1725   -0.4099 C   0  0  0  0  0  0  0  0  0  0  0  0
   -0.5707   -2.2367    0.2092 C   0  0  0  0  0  0  0  0  0  0  0  0
    4.3047    2.0978   -0.7956 C   0  0  0  0  0  0  0  0  0  0  0  0
    3.7770    3.3771   -0.5941 C   0  0  0  0  0  0  0  0  0  0  0  0
    2.3730   -0.9167    1.8614 C   0  0  0  0  0  0  0  0  0  0  0  0
   -3.9181    1.9808    0.8949 C   0  0  0  0  0  0  0  0  0  0  0  0
   -0.6590   -3.2392    1.1751 C   0  0  0  0  0  0  0  0  0  0  0  0
   -0.6367   -2.5652   -1.1449 C   0  0  0  0  0  0  0  0  0  0  0  0
    5.6180    1.9773   -1.2928 C   0  0  0  0  0  0  0  0  0  0  0  0
    4.5013    4.5429   -0.8681 C   0  0  0  0  0  0  0  0  0  0  0  0
   -0.8132   -4.5700    0.7870 C   0  0  0  0  0  0  0  0  0  0  0  0
   -0.7909   -3.8959   -1.5330 C   0  0  0  0  0  0  0  0  0  0  0  0
    6.3521    3.1354   -1.5725 C   0  0  0  0  0  0  0  0  0  0  0  0
   -5.1320    2.7114    0.3853 C   0  0  0  0  0  0  0  0  0  0  0  0
    5.8004    4.3975   -1.3629 C   0  0  0  0  0  0  0  0  0  0  0  0
   -0.8791   -4.8984   -0.5671 C   0  0  0  0  0  0  0  0  0  0  0  0
    3.9139   -1.7251    3.4601 C   0  0  0  0  0  0  0  0  0  0  0  0
   -5.2647    4.0853    0.5530 C   0  0  0  0  0  0  0  0  0  0  0  0
   -1.0470   -6.3210   -0.9818 C   0  0  0  0  0  0  0  0  0  0  0  0
   -6.1511    2.0362   -0.2671 C   0  0  0  0  0  0  0  0  0  0  0  0
   -6.3964    4.7329    0.0701 C   0  0  0  0  0  0  0  0  0  0  0  0
   -7.3590    3.9674   -0.5682 C   0  0  0  0  0  0  0  0  0  0  0  0
    0.9247    1.4235    1.5953 H   0  0  0  0  0  0  0  0  0  0  0  0
   -0.4084   -0.7447    1.7301 H   0  0  0  0  0  0  0  0  0  0  0  0
   -0.2481    3.1317    0.3049 H   0  0  0  0  0  0  0  0  0  0  0  0
   -0.3300    2.0770   -1.1020 H   0  0  0  0  0  0  0  0  0  0  0  0
   -1.5547    1.5659    1.6480 H   0  0  0  0  0  0  0  0  0  0  0  0
   -2.5458   -0.4842    0.6354 H   0  0  0  0  0  0  0  0  0  0  0  0
   -1.8016   -0.0943   -0.9066 H   0  0  0  0  0  0  0  0  0  0  0  0
    1.9783   -1.9263    0.0671 H   0  0  0  0  0  0  0  0  0  0  0  0
    3.2267   -0.6553   -1.4404 H   0  0  0  0  0  0  0  0  0  0  0  0
    4.2546   -0.6824   -0.0101 H   0  0  0  0  0  0  0  0  0  0  0  0
    1.8828    3.9856    0.1466 H   0  0  0  0  0  0  0  0  0  0  0  0
   -2.5507    3.1891    0.0101 H   0  0  0  0  0  0  0  0  0  0  0  0
   -3.7158    2.3289    1.9167 H   0  0  0  0  0  0  0  0  0  0  0  0
   -4.1665    0.9167    0.9765 H   0  0  0  0  0  0  0  0  0  0  0  0
   -0.6082   -2.9988    2.2335 H   0  0  0  0  0  0  0  0  0  0  0  0
   -0.5593   -1.8011   -1.9135 H   0  0  0  0  0  0  0  0  0  0  0  0
    6.0619    1.0002   -1.4604 H   0  0  0  0  0  0  0  0  0  0  0  0
    4.0737    5.5264   -0.7037 H   0  0  0  0  0  0  0  0  0  0  0  0
   -0.8800   -5.3357    1.5549 H   0  0  0  0  0  0  0  0  0  0  0  0
   -0.8392   -4.1425   -2.5904 H   0  0  0  0  0  0  0  0  0  0  0  0
    7.3647    3.0476   -1.9571 H   0  0  0  0  0  0  0  0  0  0  0  0
    6.3888    5.2838   -1.5862 H   0  0  0  0  0  0  0  0  0  0  0  0
    4.0977   -0.7325    3.8822 H   0  0  0  0  0  0  0  0  0  0  0  0
    3.1444   -2.2524    4.0320 H   0  0  0  0  0  0  0  0  0  0  0  0
    4.8412   -2.3024    3.5035 H   0  0  0  0  0  0  0  0  0  0  0  0
   -4.4938    4.6605    1.0584 H   0  0  0  0  0  0  0  0  0  0  0  0
   -6.1055    0.9641   -0.4313 H   0  0  0  0  0  0  0  0  0  0  0  0
   -6.5213    5.8030    0.1896 H   0  0  0  0  0  0  0  0  0  0  0  0
   -8.2603    4.4247   -0.9629 H   0  0  0  0  0  0  0  0  0  0  0  0
  1 36  1  0  0  0  0
  2 36  1  0  0  0  0
  3 36  1  0  0  0  0
  4 22  1  0  0  0  0
  4 34  1  0  0  0  0
  5 22  2  0  0  0  0
  6 10  1  0  0  0  0
  6 11  1  0  0  0  0
  6 15  1  0  0  0  0
  7 16  1  0  0  0  0
  7 21  1  0  0  0  0
  7 50  1  0  0  0  0
  8 13  1  0  0  0  0
  8 23  1  0  0  0  0
  8 51  1  0  0  0  0
  9 37  1  0  0  0  0
  9 39  2  0  0  0  0
 10 12  1  0  0  0  0
 10 16  1  0  0  0  0
 10 40  1  0  0  0  0
 11 14  1  0  0  0  0
 11 19  1  0  0  0  0
 11 41  1  0  0  0  0
 12 13  1  0  0  0  0
 12 42  1  0  0  0  0
 12 43  1  0  0  0  0
 13 14  1  0  0  0  0
 13 44  1  0  0  0  0
 14 45  1  0  0  0  0
 14 46  1  0  0  0  0
 15 17  1  0  0  0  0
 15 22  1  0  0  0  0
 15 47  1  0  0  0  0
 16 18  2  0  0  0  0
 17 18  1  0  0  0  0
 17 48  1  0  0  0  0
 17 49  1  0  0  0  0
 18 20  1  0  0  0  0
 19 24  2  0  0  0  0
 19 25  1  0  0  0  0
 20 21  1  0  0  0  0
 20 26  2  0  0  0  0
 21 27  2  0  0  0  0
 23 31  1  0  0  0  0
 23 52  1  0  0  0  0
 23 53  1  0  0  0  0
 24 28  1  0  0  0  0
 24 54  1  0  0  0  0
 25 29  2  0  0  0  0
 25 55  1  0  0  0  0
 26 30  1  0  0  0  0
 26 56  1  0  0  0  0
 27 32  1  0  0  0  0
 27 57  1  0  0  0  0
 28 33  2  0  0  0  0
 28 58  1  0  0  0  0
 29 33  1  0  0  0  0
 29 59  1  0  0  0  0
 30 32  2  0  0  0  0
 30 60  1  0  0  0  0
 31 35  1  0  0  0  0
 31 37  2  0  0  0  0
 32 61  1  0  0  0  0
 33 36  1  0  0  0  0
 34 62  1  0  0  0  0
 34 63  1  0  0  0  0
 34 64  1  0  0  0  0
 35 38  2  0  0  0  0
 35 65  1  0  0  0  0
 37 66  1  0  0  0  0
 38 39  1  0  0  0  0
 38 67  1  0  0  0  0
 39 68  1  0  0  0  0
M  END
> <PUBCHEM_COMPOUND_CID>
40780323

> <PUBCHEM_CONFORMER_RMSD>
1

> <PUBCHEM_CONFORMER_DIVERSEORDER>
1
34
30
29
18
3
19
32
2
4
27
24
31
5
10
28
15
12
33
9
6
26
21
14
20
11
23
17
13
35
25
8
16
7
22

> <PUBCHEM_MMFF94_PARTIAL_CHARGES>
50
1 -0.34
10 0.45
11 0.41
13 0.27
15 0.33
16 -0.33
17 0.18
18 -0.18
19 -0.14
2 -0.34
21 -0.15
22 0.66
23 0.41
24 -0.15
25 -0.15
26 -0.15
27 -0.15
28 -0.15
29 -0.15
3 -0.34
30 -0.15
31 -0.14
32 -0.15
33 -0.14
34 0.28
35 -0.15
36 1.16
37 0.16
38 -0.15
39 0.16
4 -0.43
5 -0.57
50 0.27
51 0.36
54 0.15
55 0.15
56 0.15
57 0.15
58 0.15
59 0.15
6 -0.81
60 0.15
61 0.15
65 0.15
66 0.15
67 0.15
68 0.15
7 0.03
8 -0.9
9 -0.62

> <PUBCHEM_EFFECTIVE_ROTOR_COUNT>
8.2

> <PUBCHEM_PHARMACOPHORE_FEATURES>
13
1 5 acceptor
1 6 cation
1 7 cation
1 7 donor
1 8 cation
1 8 donor
1 9 acceptor
5 7 16 18 20 21 rings
6 19 24 25 28 29 33 rings
6 20 21 26 27 30 32 rings
6 6 10 11 12 13 14 rings
6 6 10 15 16 17 18 rings
6 9 31 35 37 38 39 rings

> <PUBCHEM_HEAVY_ATOM_COUNT>
39

> <PUBCHEM_ATOM_DEF_STEREO_COUNT>
4

> <PUBCHEM_ATOM_UDEF_STEREO_COUNT>
0

> <PUBCHEM_BOND_DEF_STEREO_COUNT>
0

> <PUBCHEM_BOND_UDEF_STEREO_COUNT>
0

> <PUBCHEM_ISOTOPIC_ATOM_COUNT>
0

> <PUBCHEM_COMPONENT_COUNT>
1

> <PUBCHEM_CACTVS_TAUTO_COUNT>
1

> <PUBCHEM_CONFORMER_ID>
026E422300000001

> <PUBCHEM_MMFF94_ENERGY>
88.1057

> <PUBCHEM_FEATURE_SELFOVERLAP>
66.167

> <PUBCHEM_SHAPE_FINGERPRINT>
10411042 1 17041484908970228275
11062273 19 18122631548260991655
11093857 51 18268982086178116577
11445158 3 17897990366202812644
11991303 11 18264781024195055317
12522641 68 18411708711453893364
12788726 201 18122053467154091771
13248334 5 18050010982763099157
13540713 5 18115856577213306688
13617811 41 16394093093200703700
14400156 350 18118115879644469421
14790565 3 18410014338540077077
15198563 99 17764878283064778847
15400415 2 18411421692144563957
15439362 3 18411426081648165404
15444296 8 17695076890997450455
15484559 13 18191876625735621486
15664445 248 17905901279281709552
15927050 60 18336270153820861944
15968369 26 18192438468078480367
16090146 7 18129672898250926698
17899979 129 18264783068657977609
19301676 85 18053410733621991270
20505436 4 18113341925169185848
21033648 144 17967531260246741093
21049683 271 17335898985113190570
255183 451 17333930851399555367
283562 15 17685208778828960984
3103668 31 18050289473238991527
3388396 114 16533163687594836309
3627633 1 17691130752634793101
376196 1 18187370887620934353
4058900 60 18338809914028160257
504843 32 18339371867427395045
6058803 2 18116697703513518914
6898599 12 18193007129953686972

> <PUBCHEM_SHAPE_MULTIPOLES>
749.12
14.04
11.28
1.85
16.93
21.97
1.34
-33.1
-3.44
5.85
-6.2
-2.41
1.92
-4.42

> <PUBCHEM_SHAPE_SELFOVERLAP>
1653.421

> <PUBCHEM_SHAPE_VOLUME>
403

> <PUBCHEM_COORDINATE_TYPE>
2
5
10

$$$$
