25390424
  -OEChem-12032416173D

 49 51  0     1  0  0  0  0  0999 V2000
    1.1326   -0.4410   -0.4375 O   0  0  0  0  0  0  0  0  0  0  0  0
    4.5552   -0.4433    0.6509 O   0  0  0  0  0  0  0  0  0  0  0  0
    3.6948   -1.3638   -1.7947 O   0  0  0  0  0  0  0  0  0  0  0  0
    1.5862    3.4043    1.3659 O   0  0  0  0  0  0  0  0  0  0  0  0
   -1.1661   -1.1004    1.3651 O   0  0  0  0  0  0  0  0  0  0  0  0
    0.0166    2.1235    0.2323 N   0  0  0  0  0  0  0  0  0  0  0  0
   -0.6752   -2.6465   -0.3071 N   0  0  0  0  0  0  0  0  0  0  0  0
   -0.7734    3.2164   -0.2580 C   0  0  0  0  0  0  0  0  0  0  0  0
    2.2583    0.2028    0.1850 C   0  0  2  0  0  0  0  0  0  0  0  0
    1.5278   -1.7633   -0.8692 C   0  0  1  0  0  0  0  0  0  0  0  0
    3.2294   -0.9129    0.5315 C   0  0  1  0  0  0  0  0  0  0  0  0
    3.0310   -1.8607   -0.6332 C   0  0  2  0  0  0  0  0  0  0  0  0
   -0.3993    3.9404   -1.5179 C   0  0  0  0  0  0  0  0  0  0  0  0
   -1.6225    3.0717   -1.4867 C   0  0  0  0  0  0  0  0  0  0  0  0
   -2.9309   -1.8504   -0.0555 C   0  0  0  0  0  0  0  0  0  0  0  0
    1.7913    0.9923    1.3948 C   0  0  0  0  0  0  0  0  0  0  0  0
    0.7303   -2.7756   -0.0584 C   0  0  0  0  0  0  0  0  0  0  0  0
   -3.1561   -0.7710   -1.1204 C   0  0  0  0  0  0  0  0  0  0  0  0
   -3.8989   -1.5341    1.0856 C   0  0  0  0  0  0  0  0  0  0  0  0
   -4.3158    0.0793   -0.6128 C   0  0  0  0  0  0  0  0  0  0  0  0
   -4.2488   -0.0649    0.8969 C   0  0  0  0  0  0  0  0  0  0  0  0
    1.1472    2.3122    1.0149 C   0  0  0  0  0  0  0  0  0  0  0  0
   -1.5135   -1.8151    0.4286 C   0  0  0  0  0  0  0  0  0  0  0  0
   -1.1954    3.8118    0.5458 H   0  0  0  0  0  0  0  0  0  0  0  0
    2.7018    0.8852   -0.5523 H   0  0  0  0  0  0  0  0  0  0  0  0
    1.2726   -1.8461   -1.9321 H   0  0  0  0  0  0  0  0  0  0  0  0
    2.9395   -1.4003    1.4702 H   0  0  0  0  0  0  0  0  0  0  0  0
    3.4015   -2.8714   -0.4405 H   0  0  0  0  0  0  0  0  0  0  0  0
    0.4543    3.5866   -2.0831 H   0  0  0  0  0  0  0  0  0  0  0  0
   -0.5421    5.0137   -1.5442 H   0  0  0  0  0  0  0  0  0  0  0  0
   -2.5895    3.5595   -1.4924 H   0  0  0  0  0  0  0  0  0  0  0  0
   -1.5867    2.1398   -2.0369 H   0  0  0  0  0  0  0  0  0  0  0  0
   -3.1542   -2.8472   -0.4543 H   0  0  0  0  0  0  0  0  0  0  0  0
    1.0674    0.4214    1.9876 H   0  0  0  0  0  0  0  0  0  0  0  0
    2.6428    1.2295    2.0436 H   0  0  0  0  0  0  0  0  0  0  0  0
    0.8993   -2.6410    1.0156 H   0  0  0  0  0  0  0  0  0  0  0  0
    1.0181   -3.7967   -0.3288 H   0  0  0  0  0  0  0  0  0  0  0  0
   -3.3971   -1.2124   -2.0934 H   0  0  0  0  0  0  0  0  0  0  0  0
   -2.2655   -0.1475   -1.2609 H   0  0  0  0  0  0  0  0  0  0  0  0
   -3.5060   -1.7373    2.0867 H   0  0  0  0  0  0  0  0  0  0  0  0
   -4.8083   -2.1366    0.9648 H   0  0  0  0  0  0  0  0  0  0  0  0
   -0.2908    1.1816    0.0048 H   0  0  0  0  0  0  0  0  0  0  0  0
   -5.2648   -0.3226   -0.9873 H   0  0  0  0  0  0  0  0  0  0  0  0
   -4.2391    1.1212   -0.9368 H   0  0  0  0  0  0  0  0  0  0  0  0
   -3.4581    0.5746    1.3063 H   0  0  0  0  0  0  0  0  0  0  0  0
   -5.1920    0.2025    1.3819 H   0  0  0  0  0  0  0  0  0  0  0  0
   -1.0642   -3.1799   -1.0792 H   0  0  0  0  0  0  0  0  0  0  0  0
    5.1309   -1.2198    0.7559 H   0  0  0  0  0  0  0  0  0  0  0  0
    3.5092   -1.9819   -2.5222 H   0  0  0  0  0  0  0  0  0  0  0  0
  1  9  1  0  0  0  0
  1 10  1  0  0  0  0
  2 11  1  0  0  0  0
  2 48  1  0  0  0  0
  3 12  1  0  0  0  0
  3 49  1  0  0  0  0
  4 22  2  0  0  0  0
  5 23  2  0  0  0  0
  6  8  1  0  0  0  0
  6 22  1  0  0  0  0
  6 42  1  0  0  0  0
  7 17  1  0  0  0  0
  7 23  1  0  0  0  0
  7 47  1  0  0  0  0
  8 13  1  0  0  0  0
  8 14  1  0  0  0  0
  8 24  1  0  0  0  0
  9 11  1  0  0  0  0
  9 16  1  0  0  0  0
  9 25  1  0  0  0  0
 10 12  1  0  0  0  0
 10 17  1  0  0  0  0
 10 26  1  0  0  0  0
 11 12  1  0  0  0  0
 11 27  1  0  0  0  0
 12 28  1  0  0  0  0
 13 14  1  0  0  0  0
 13 29  1  0  0  0  0
 13 30  1  0  0  0  0
 14 31  1  0  0  0  0
 14 32  1  0  0  0  0
 15 18  1  0  0  0  0
 15 19  1  0  0  0  0
 15 23  1  0  0  0  0
 15 33  1  0  0  0  0
 16 22  1  0  0  0  0
 16 34  1  0  0  0  0
 16 35  1  0  0  0  0
 17 36  1  0  0  0  0
 17 37  1  0  0  0  0
 18 20  1  0  0  0  0
 18 38  1  0  0  0  0
 18 39  1  0  0  0  0
 19 21  1  0  0  0  0
 19 40  1  0  0  0  0
 19 41  1  0  0  0  0
 20 21  1  0  0  0  0
 20 43  1  0  0  0  0
 20 44  1  0  0  0  0
 21 45  1  0  0  0  0
 21 46  1  0  0  0  0
M  END
> <PUBCHEM_COMPOUND_CID>
25390424

> <PUBCHEM_CONFORMER_RMSD>
1

> <PUBCHEM_CONFORMER_DIVERSEORDER>
1
21
23
33
91
37
149
163
112
50
19
103
101
60
69
86
169
85
56
155
53
142
3
133
90
41
126
170
137
109
52
120
134
79
114
166
43
135
161
75
59
78
64
110
70
18
84
13
172
54
113
63
46
14
117
30
173
162
12
141
121
123
40
72
92
74
99
136
119
20
5
81
32
167
94
127
35
164
165
58
147
48
67
62
97
47
128
27
93
77
159
122
125
138
130
24
140
73
65
157
38
152
111
168
132
66
106
96
55
154
87
153
156
139
44
25
76
118
71
108
17
61
100
10
129
148
115
88
160
144
26
6
8
102
83
146
22
150
89
57
68
39
4
98
107
104
124
36
82
143
171
29
49
105
31
9
80
158
151
7
42
16
51
15
2
145
45
131
116
11
28
34
95

> <PUBCHEM_MMFF94_PARTIAL_CHARGES>
28
1 -0.56
10 0.28
11 0.28
12 0.28
13 -0.2
14 -0.2
15 0.06
16 0.06
17 0.3
2 -0.68
22 0.57
23 0.57
24 0.1
29 0.1
3 -0.68
30 0.1
31 0.1
32 0.1
4 -0.57
42 0.37
47 0.37
48 0.4
49 0.4
5 -0.57
6 -0.58
7 -0.73
8 0.05
9 0.28

> <PUBCHEM_EFFECTIVE_ROTOR_COUNT>
10.6

> <PUBCHEM_PHARMACOPHORE_FEATURES>
11
1 1 acceptor
1 2 acceptor
1 2 donor
1 3 acceptor
1 3 donor
1 4 acceptor
1 5 acceptor
1 6 donor
1 7 donor
5 1 9 10 11 12 rings
5 15 18 19 20 21 rings

> <PUBCHEM_HEAVY_ATOM_COUNT>
23

> <PUBCHEM_ATOM_DEF_STEREO_COUNT>
4

> <PUBCHEM_ATOM_UDEF_STEREO_COUNT>
0

> <PUBCHEM_BOND_DEF_STEREO_COUNT>
0

> <PUBCHEM_BOND_UDEF_STEREO_COUNT>
0

> <PUBCHEM_ISOTOPIC_ATOM_COUNT>
0

> <PUBCHEM_COMPONENT_COUNT>
1

> <PUBCHEM_CACTVS_TAUTO_COUNT>
4

> <PUBCHEM_CONFORMER_ID>
01836D5800000001

> <PUBCHEM_MMFF94_ENERGY>
46.1554

> <PUBCHEM_FEATURE_SELFOVERLAP>
55.835

> <PUBCHEM_SHAPE_FINGERPRINT>
104564 63 18193000322266238375
10688039 33 18187651262763808385
108634 29 17980472365263704822
11244481 83 16518803903016842657
12293681 25 16839389238488308470
12403259 226 18411697673335317843
12422481 6 18052227856299081112
12788726 201 18261958445145419810
13402501 40 18338224965235950477
14251745 187 18340194194471019329
14363568 33 17974588079880336257
14790565 3 17690556807771803184
15210252 30 18041289815160949549
1601671 61 18200317753117696456
17093844 170 18337094688636464469
17357779 13 18341608192141369445
17859628 37 18267015248769949653
18785283 64 18046930422123992659
20905425 154 18121776128135792063
21285901 2 18342182115673117246
21452121 99 17975968770432220856
21641784 216 18118148938450125036
22182313 1 17987510421694288966
3052486 1 18043525019278849164
3524813 1 18341887472669275745
4409770 3 18264473006451940398
5939293 188 18343016735430243610
6287921 2 18051703440623017711
81228 2 18265068941495634960

> <PUBCHEM_SHAPE_MULTIPOLES>
434.02
7.06
4.67
1.46
1.95
5.01
0.1
-3.87
-0.29
0.15
1.06
-0.16
0.6
1.78

> <PUBCHEM_SHAPE_SELFOVERLAP>
893.165

> <PUBCHEM_SHAPE_VOLUME>
251

> <PUBCHEM_COORDINATE_TYPE>
2
5
10

$$$$
