11886015
  -OEChem-12032416373D

 53 57  0     1  0  0  0  0  0999 V2000
   -5.0626    0.0299   -0.2024 S   0  0  0  0  0  0  0  0  0  0  0  0
    0.4040    0.7015   -1.3520 O   0  0  0  0  0  0  0  0  0  0  0  0
   -1.0960   -1.9339   -0.7516 O   0  0  0  0  0  0  0  0  0  0  0  0
    2.3778   -1.0786   -0.5739 O   0  0  0  0  0  0  0  0  0  0  0  0
    3.0853   -0.6704    1.5622 O   0  0  0  0  0  0  0  0  0  0  0  0
   -8.8156    0.0534   -0.1137 O   0  0  0  0  0  0  0  0  0  0  0  0
    9.2764    0.3035   -0.6483 O   0  0  0  0  0  0  0  0  0  0  0  0
   -2.6949    1.3482   -0.4542 N   0  0  0  0  0  0  0  0  0  0  0  0
   -2.1121    2.5199   -0.1645 N   0  0  0  0  0  0  0  0  0  0  0  0
   -4.2244    2.5137    0.5484 N   0  0  0  0  0  0  0  0  0  0  0  0
   -3.0524    3.2288    0.4482 N   0  0  0  0  0  0  0  0  0  0  0  0
    4.5587   -0.5990   -0.2556 N   0  0  0  0  0  0  0  0  0  0  0  0
   -1.1976   -0.6091   -0.1844 C   0  0  1  0  0  0  0  0  0  0  0  0
    0.2079   -0.0430   -0.1397 C   0  0  1  0  0  0  0  0  0  0  0  0
   -1.9426    0.2980   -1.1444 C   0  0  2  0  0  0  0  0  0  0  0  0
    1.0657   -1.2854   -0.1025 C   0  0  1  0  0  0  0  0  0  0  0  0
   -0.8348    0.7889   -2.0708 C   0  0  0  0  0  0  0  0  0  0  0  0
    0.2871   -2.2348   -0.9829 C   0  0  0  0  0  0  0  0  0  0  0  0
   -3.9809    1.3536   -0.0166 C   0  0  0  0  0  0  0  0  0  0  0  0
    3.3373   -0.7677    0.3674 C   0  0  0  0  0  0  0  0  0  0  0  0
   -6.5707    0.6798    0.5768 C   0  0  0  0  0  0  0  0  0  0  0  0
    5.8004   -0.2747    0.3367 C   0  0  0  0  0  0  0  0  0  0  0  0
   -7.6830   -0.3279    0.5328 C   0  0  0  0  0  0  0  0  0  0  0  0
    6.9394   -0.1442   -0.4579 C   0  0  0  0  0  0  0  0  0  0  0  0
    5.8868   -0.0854    1.7160 C   0  0  0  0  0  0  0  0  0  0  0  0
   -7.8141   -1.6061    1.0238 C   0  0  0  0  0  0  0  0  0  0  0  0
    8.1647    0.1758    0.1268 C   0  0  0  0  0  0  0  0  0  0  0  0
    7.1121    0.2345    2.3008 C   0  0  0  0  0  0  0  0  0  0  0  0
    8.2510    0.3651    1.5060 C   0  0  0  0  0  0  0  0  0  0  0  0
   -9.1106   -2.0379    0.6552 C   0  0  0  0  0  0  0  0  0  0  0  0
   -9.6793   -0.9927   -0.0348 C   0  0  0  0  0  0  0  0  0  0  0  0
    9.1171    0.0966   -2.0508 C   0  0  0  0  0  0  0  0  0  0  0  0
   -1.6546   -0.7098    0.8051 H   0  0  0  0  0  0  0  0  0  0  0  0
    0.3864    0.6371    0.6982 H   0  0  0  0  0  0  0  0  0  0  0  0
   -2.6747   -0.2464   -1.7513 H   0  0  0  0  0  0  0  0  0  0  0  0
    1.0573   -1.7034    0.9137 H   0  0  0  0  0  0  0  0  0  0  0  0
   -0.9714    1.8081   -2.4442 H   0  0  0  0  0  0  0  0  0  0  0  0
   -0.7427    0.1261   -2.9388 H   0  0  0  0  0  0  0  0  0  0  0  0
    0.5085   -2.0930   -2.0468 H   0  0  0  0  0  0  0  0  0  0  0  0
    0.4815   -3.2838   -0.7398 H   0  0  0  0  0  0  0  0  0  0  0  0
    4.5683   -0.7227   -1.2650 H   0  0  0  0  0  0  0  0  0  0  0  0
   -6.3612    0.9312    1.6221 H   0  0  0  0  0  0  0  0  0  0  0  0
   -6.8767    1.5961    0.0606 H   0  0  0  0  0  0  0  0  0  0  0  0
    6.8158   -0.3020   -1.5245 H   0  0  0  0  0  0  0  0  0  0  0  0
    5.0489   -0.1697    2.3941 H   0  0  0  0  0  0  0  0  0  0  0  0
   -7.0718   -2.1604    1.5802 H   0  0  0  0  0  0  0  0  0  0  0  0
    7.1806    0.3822    3.3747 H   0  0  0  0  0  0  0  0  0  0  0  0
    9.2027    0.6145    1.9672 H   0  0  0  0  0  0  0  0  0  0  0  0
   -9.5728   -2.9913    0.8664 H   0  0  0  0  0  0  0  0  0  0  0  0
  -10.6387   -0.8433   -0.5081 H   0  0  0  0  0  0  0  0  0  0  0  0
    8.8047   -0.9292   -2.2737 H   0  0  0  0  0  0  0  0  0  0  0  0
    8.4474    0.8412   -2.4944 H   0  0  0  0  0  0  0  0  0  0  0  0
   10.1004    0.2376   -2.5116 H   0  0  0  0  0  0  0  0  0  0  0  0
  1 19  1  0  0  0  0
  1 21  1  0  0  0  0
  2 14  1  0  0  0  0
  2 17  1  0  0  0  0
  3 13  1  0  0  0  0
  3 18  1  0  0  0  0
  4 16  1  0  0  0  0
  4 20  1  0  0  0  0
  5 20  2  0  0  0  0
  6 23  1  0  0  0  0
  6 31  1  0  0  0  0
  7 27  1  0  0  0  0
  7 32  1  0  0  0  0
  8  9  1  0  0  0  0
  8 15  1  0  0  0  0
  8 19  1  0  0  0  0
  9 11  2  0  0  0  0
 10 11  1  0  0  0  0
 10 19  2  0  0  0  0
 12 20  1  0  0  0  0
 12 22  1  0  0  0  0
 12 41  1  0  0  0  0
 13 14  1  0  0  0  0
 13 15  1  0  0  0  0
 13 33  1  0  0  0  0
 14 16  1  0  0  0  0
 14 34  1  0  0  0  0
 15 17  1  0  0  0  0
 15 35  1  0  0  0  0
 16 18  1  0  0  0  0
 16 36  1  0  0  0  0
 17 37  1  0  0  0  0
 17 38  1  0  0  0  0
 18 39  1  0  0  0  0
 18 40  1  0  0  0  0
 21 23  1  0  0  0  0
 21 42  1  0  0  0  0
 21 43  1  0  0  0  0
 22 24  2  0  0  0  0
 22 25  1  0  0  0  0
 23 26  2  0  0  0  0
 24 27  1  0  0  0  0
 24 44  1  0  0  0  0
 25 28  2  0  0  0  0
 25 45  1  0  0  0  0
 26 30  1  0  0  0  0
 26 46  1  0  0  0  0
 27 29  2  0  0  0  0
 28 29  1  0  0  0  0
 28 47  1  0  0  0  0
 29 48  1  0  0  0  0
 30 31  2  0  0  0  0
 30 49  1  0  0  0  0
 31 50  1  0  0  0  0
 32 51  1  0  0  0  0
 32 52  1  0  0  0  0
 32 53  1  0  0  0  0
M  END
> <PUBCHEM_COMPOUND_CID>
11886015

> <PUBCHEM_CONFORMER_RMSD>
1.2

> <PUBCHEM_CONFORMER_DIVERSEORDER>
2
114
119
89
9
71
132
87
84
129
112
30
117
76
127
68
99
110
17
18
97
96
50
39
57
8
64
70
124
63
126
108
6
52
36
93
5
82
120
106
131
78
45
111
11
116
115
22
104
42
21
61
98
109
121
15
122
49
73
16
102
130
10
105
101
7
60
32
94
12
20
118
58
53
51
69
54
29
35
19
77
100
128
79
65
75
67
25
113
4
86
95
123
38
3
59
62
72
24
103
14
92
43
88
28
33
26
56
107
83
13
27
90
47
85
80
40
91
125
133
81
1
37
55
66
46
41
23
48
74
31
44
34

> <PUBCHEM_MMFF94_PARTIAL_CHARGES>
39
1 -0.29
10 -0.34
12 -0.55
13 0.28
14 0.28
15 0.26
16 0.28
17 0.28
18 0.28
19 0.24
2 -0.56
20 0.78
21 0.41
22 0.12
23 -0.04
24 -0.15
25 -0.15
26 -0.15
27 0.08
28 -0.15
29 -0.15
3 -0.56
30 -0.15
31 -0.01
32 0.28
4 -0.43
41 0.37
44 0.15
45 0.15
46 0.15
47 0.15
48 0.15
49 0.15
5 -0.57
50 0.15
6 -0.28
7 -0.36
8 0.31
9 -0.42

> <PUBCHEM_EFFECTIVE_ROTOR_COUNT>
10.2

> <PUBCHEM_PHARMACOPHORE_FEATURES>
12
1 12 donor
1 2 acceptor
1 3 acceptor
1 5 acceptor
1 6 acceptor
1 7 acceptor
3 8 10 19 cation
5 2 13 14 15 17 rings
5 3 13 14 16 18 rings
5 6 23 26 30 31 rings
5 8 9 10 11 19 rings
6 22 24 25 27 28 29 rings

> <PUBCHEM_HEAVY_ATOM_COUNT>
32

> <PUBCHEM_ATOM_DEF_STEREO_COUNT>
4

> <PUBCHEM_ATOM_UDEF_STEREO_COUNT>
0

> <PUBCHEM_BOND_DEF_STEREO_COUNT>
0

> <PUBCHEM_BOND_UDEF_STEREO_COUNT>
0

> <PUBCHEM_ISOTOPIC_ATOM_COUNT>
0

> <PUBCHEM_COMPONENT_COUNT>
1

> <PUBCHEM_CACTVS_TAUTO_COUNT>
2

> <PUBCHEM_CONFORMER_ID>
00B55DBF00000002

> <PUBCHEM_MMFF94_ENERGY>
80.1956

> <PUBCHEM_FEATURE_SELFOVERLAP>
61.601

> <PUBCHEM_SHAPE_FINGERPRINT>
10 15 18413385423520268043
10162869 55 16732706077702527326
10369192 42 16702300135819298413
10391435 84 12757160090800115792
10483366 6 8574716806238448719
106641 1 18333448750637503002
10674148 151 10303809869672971519
10883706 142 18113898257237036098
10883706 17 16661219177987726123
10917259 69 8286214846752804591
11135609 99 18041568061219142723
11211813 128 18202285801527546047
11408170 108 15068895300678974889
11672396 167 7925370536954776632
12202916 173 12685092570528264969
13740195 50 18409728491307284458
14150022 121 17846222112505521081
15065858 18 13045944616168735856
15183329 4 15339112412978579124
15326923 82 18113052753932489847
15347591 1 18120372055918370591
15392192 104 18186520999814408186
15684389 69 18113334206711924803
15728490 51 18334857234298326099
18335252 98 18343586222186921078
18608769 82 18201996646811524411
20105231 36 17989489615127222086
21130935 74 18264768753246721570
22224240 67 18412261736012303515
23559900 14 11958857483278551182
24771293 8 18260555481145793589
2747138 104 18342181059722780017
3092352 35 18114181926937202058
4149490 64 17024044812460942473
4403749 210 18342171113053523053
474113 269 15792003455018107618
59682541 35 18343863329640548475
6081469 158 12035443930834305986
6126387 218 14056719050255749139
6523845 18 17632576050032734570
6698420 124 14476955713927066759
6703917 75 18272942617371781470
9663363 56 7853574609456429558
9689198 14 16702305628997768769
9953998 17 17561081432768018887

> <PUBCHEM_SHAPE_MULTIPOLES>
602.27
33.51
2.02
1.56
1
0.98
0.05
-6.42
7.23
-4.27
0.07
3.41
0.05
0.45

> <PUBCHEM_SHAPE_SELFOVERLAP>
1293.037

> <PUBCHEM_SHAPE_VOLUME>
335.9

> <PUBCHEM_COORDINATE_TYPE>
2
5
10

$$$$
