75367092
  -OEChem-12032416393D

 41 42  0     1  0  0  0  0  0999 V2000
    5.2261    0.4995    0.0629 S   0  0  0  0  0  0  0  0  0  0  0  0
    1.1083    0.8396    0.6810 O   0  0  0  0  0  0  0  0  0  0  0  0
    0.0732   -2.4342   -0.3757 O   0  0  0  0  0  0  0  0  0  0  0  0
   -6.0893    0.1223    0.2282 O   0  0  0  0  0  0  0  0  0  0  0  0
    6.2116    0.6398    1.1170 O   0  0  0  0  0  0  0  0  0  0  0  0
    4.8717    1.6278   -0.7765 O   0  0  0  0  0  0  0  0  0  0  0  0
   -2.0400   -0.1559   -0.8450 N   0  0  0  0  0  0  0  0  0  0  0  0
    3.7917   -0.1730    0.6967 N   0  0  0  0  0  0  0  0  0  0  0  0
   -0.9140   -0.2463    0.0703 C   0  0  1  0  0  0  0  0  0  0  0  0
    0.2581   -1.0360   -0.4823 C   0  0  1  0  0  0  0  0  0  0  0  0
    1.3900   -0.5434    0.4092 C   0  0  1  0  0  0  0  0  0  0  0  0
   -3.2420    0.3068   -0.1557 C   0  0  0  0  0  0  0  0  0  0  0  0
   -0.2660    1.1007    0.3458 C   0  0  0  0  0  0  0  0  0  0  0  0
   -3.8911   -0.8280    0.6427 C   0  0  0  0  0  0  0  0  0  0  0  0
   -4.2448    0.8807   -1.1608 C   0  0  0  0  0  0  0  0  0  0  0  0
    2.7596   -0.6717   -0.2333 C   0  0  0  0  0  0  0  0  0  0  0  0
   -5.2127   -0.3637    1.2448 C   0  0  0  0  0  0  0  0  0  0  0  0
   -5.5469    1.2501   -0.4587 C   0  0  0  0  0  0  0  0  0  0  0  0
    5.7566   -0.8150   -1.0106 C   0  0  0  0  0  0  0  0  0  0  0  0
   -1.2056   -0.7169    1.0172 H   0  0  0  0  0  0  0  0  0  0  0  0
    0.4434   -0.7832   -1.5337 H   0  0  0  0  0  0  0  0  0  0  0  0
    1.3873   -1.0729    1.3712 H   0  0  0  0  0  0  0  0  0  0  0  0
   -2.9914    1.1234    0.5348 H   0  0  0  0  0  0  0  0  0  0  0  0
   -0.2646    1.7507   -0.5368 H   0  0  0  0  0  0  0  0  0  0  0  0
   -0.7411    1.6402    1.1705 H   0  0  0  0  0  0  0  0  0  0  0  0
   -2.2165   -1.0638   -1.2740 H   0  0  0  0  0  0  0  0  0  0  0  0
   -3.2440   -1.1888    1.4481 H   0  0  0  0  0  0  0  0  0  0  0  0
   -4.0906   -1.6770   -0.0246 H   0  0  0  0  0  0  0  0  0  0  0  0
   -4.4607    0.1284   -1.9310 H   0  0  0  0  0  0  0  0  0  0  0  0
   -3.8290    1.7602   -1.6658 H   0  0  0  0  0  0  0  0  0  0  0  0
    2.7846   -0.0782   -1.1539 H   0  0  0  0  0  0  0  0  0  0  0  0
    2.9716   -1.7179   -0.4761 H   0  0  0  0  0  0  0  0  0  0  0  0
   -5.7111   -1.2031    1.7401 H   0  0  0  0  0  0  0  0  0  0  0  0
   -5.0562    0.4187    1.9967 H   0  0  0  0  0  0  0  0  0  0  0  0
   -5.3988    2.0729    0.2506 H   0  0  0  0  0  0  0  0  0  0  0  0
   -6.2864    1.5784   -1.1959 H   0  0  0  0  0  0  0  0  0  0  0  0
   -0.0934   -2.6505    0.5574 H   0  0  0  0  0  0  0  0  0  0  0  0
    3.8955   -0.7535    1.5395 H   0  0  0  0  0  0  0  0  0  0  0  0
    6.7256   -0.5320   -1.4287 H   0  0  0  0  0  0  0  0  0  0  0  0
    5.8650   -1.7299   -0.4249 H   0  0  0  0  0  0  0  0  0  0  0  0
    5.0378   -0.9452   -1.8206 H   0  0  0  0  0  0  0  0  0  0  0  0
  1  5  2  0  0  0  0
  1  6  2  0  0  0  0
  1  8  1  0  0  0  0
  1 19  1  0  0  0  0
  2 11  1  0  0  0  0
  2 13  1  0  0  0  0
  3 10  1  0  0  0  0
  3 37  1  0  0  0  0
  4 17  1  0  0  0  0
  4 18  1  0  0  0  0
  7  9  1  0  0  0  0
  7 12  1  0  0  0  0
  7 26  1  0  0  0  0
  8 16  1  0  0  0  0
  8 38  1  0  0  0  0
  9 10  1  0  0  0  0
  9 13  1  0  0  0  0
  9 20  1  0  0  0  0
 10 11  1  0  0  0  0
 10 21  1  0  0  0  0
 11 16  1  0  0  0  0
 11 22  1  0  0  0  0
 12 14  1  0  0  0  0
 12 15  1  0  0  0  0
 12 23  1  0  0  0  0
 13 24  1  0  0  0  0
 13 25  1  0  0  0  0
 14 17  1  0  0  0  0
 14 27  1  0  0  0  0
 14 28  1  0  0  0  0
 15 18  1  0  0  0  0
 15 29  1  0  0  0  0
 15 30  1  0  0  0  0
 16 31  1  0  0  0  0
 16 32  1  0  0  0  0
 17 33  1  0  0  0  0
 17 34  1  0  0  0  0
 18 35  1  0  0  0  0
 18 36  1  0  0  0  0
 19 39  1  0  0  0  0
 19 40  1  0  0  0  0
 19 41  1  0  0  0  0
M  END
> <PUBCHEM_COMPOUND_CID>
75367092

> <PUBCHEM_CONFORMER_RMSD>
0.8

> <PUBCHEM_CONFORMER_DIVERSEORDER>
1
202
208
141
218
174
214
193
59
37
210
122
186
195
50
60
187
127
65
197
183
223
120
215
166
55
110
173
148
163
219
95
125
206
171
181
90
155
73
26
185
98
66
46
118
138
209
179
213
102
159
212
137
217
143
222
119
201
177
106
82
54
57
156
113
144
178
132
28
68
169
16
157
114
105
100
103
153
191
42
49
77
129
194
108
200
139
135
94
207
152
145
140
99
165
92
162
14
19
44
199
220
81
15
151
52
20
58
78
64
196
86
170
45
7
48
11
128
107
63
56
126
71
198
2
116
124
176
160
34
17
76
133
184
75
69
136
182
9
32
18
192
40
96
168
70
22
67
5
115
121
158
38
131
25
41
97
4
83
10
93
43
72
204
21
211
13
104
161
62
154
74
149
203
79
167
190
87
117
111
33
88
112
47
61
31
172
180
84
89
146
27
80
51
221
24
109
101
36
3
12
150
23
123
6
142
30
130
39
189
91
35
53
164
134
85
205
216
188
8
175
147
29

> <PUBCHEM_MMFF94_PARTIAL_CHARGES>
20
1 1.33
10 0.28
11 0.28
12 0.27
13 0.28
16 0.36
17 0.28
18 0.28
19 0.11
2 -0.56
26 0.36
3 -0.68
37 0.4
38 0.42
4 -0.56
5 -0.65
6 -0.65
7 -0.9
8 -0.91
9 0.27

> <PUBCHEM_EFFECTIVE_ROTOR_COUNT>
7.2

> <PUBCHEM_PHARMACOPHORE_FEATURES>
11
1 2 acceptor
1 3 acceptor
1 3 donor
1 4 acceptor
1 5 acceptor
1 6 acceptor
1 7 cation
1 7 donor
1 8 donor
5 2 9 10 11 13 rings
6 4 12 14 15 17 18 rings

> <PUBCHEM_HEAVY_ATOM_COUNT>
19

> <PUBCHEM_ATOM_DEF_STEREO_COUNT>
3

> <PUBCHEM_ATOM_UDEF_STEREO_COUNT>
0

> <PUBCHEM_BOND_DEF_STEREO_COUNT>
0

> <PUBCHEM_BOND_UDEF_STEREO_COUNT>
0

> <PUBCHEM_ISOTOPIC_ATOM_COUNT>
0

> <PUBCHEM_COMPONENT_COUNT>
1

> <PUBCHEM_CACTVS_TAUTO_COUNT>
1

> <PUBCHEM_CONFORMER_ID>
047E02B400000001

> <PUBCHEM_MMFF94_ENERGY>
26.8939

> <PUBCHEM_FEATURE_SELFOVERLAP>
55.84

> <PUBCHEM_SHAPE_FINGERPRINT>
11287383 113 17894351094241501040
11315181 36 16298391275401834837
12596602 18 16443063906661072592
12916748 109 18412829075464174488
13533116 47 17560805386593112294
13590594 115 16486979487790402265
1420 363 18409452474870009682
14251732 16 17458913746203009777
14251764 18 18187085040815551529
15048467 5 18113616772488950285
15183329 4 15554451786236237732
15716309 27 14779266406203831305
17834076 25 16487255469371934729
18222031 100 11314026868534112782
20281389 69 18060419101386440009
21150785 3 16415470584446295661
21641784 216 18271824384013957848
220451 1 16443066084214266578
22079108 93 16950281845058587120
22224240 67 18410012156891804891
23198884 109 15985385590571662527
23402539 116 15719388434655361543
23536379 177 17095239202937875112
23557571 272 17458629952112635031
23559900 14 18114460038094806930
293599 30 18342736325478756574
3759504 43 18260547852725076746
42788 4 18040434390777035976
4340502 62 17312820463984595722
4463277 17 18202282489521996873
474229 33 18410857663641849371
5104073 3 17750234708307600673
542803 24 17240483602361282220
7495541 125 17240772816769125933

> <PUBCHEM_SHAPE_MULTIPOLES>
355.55
15.85
1.41
1.04
4.74
0.26
-0.02
-3.79
-0.56
0.23
0.23
-0.03
-0.03
0.96

> <PUBCHEM_SHAPE_SELFOVERLAP>
699.251

> <PUBCHEM_SHAPE_VOLUME>
214.5

> <PUBCHEM_COORDINATE_TYPE>
2
5
10

$$$$
