38027289
  -OEChem-12032416253D

 65 67  0     1  0  0  0  0  0999 V2000
   -3.3613   -1.7017    1.1583 O   0  0  0  0  0  0  0  0  0  0  0  0
    2.1394    1.5862   -2.2594 O   0  0  0  0  0  0  0  0  0  0  0  0
   -1.1932   -2.4891    0.8743 N   0  0  0  0  0  0  0  0  0  0  0  0
    1.3437    2.4570   -0.2608 N   0  0  0  0  0  0  0  0  0  0  0  0
   -1.4769    1.5910   -0.8421 C   0  0  1  0  0  0  0  0  0  0  0  0
   -1.0363    2.9857   -0.3314 C   0  0  1  0  0  0  0  0  0  0  0  0
   -2.6656    1.0700   -0.0200 C   0  0  0  0  0  0  0  0  0  0  0  0
   -2.3323    0.9578    1.4796 C   0  0  2  0  0  0  0  0  0  0  0  0
   -1.8473    1.6204   -2.3282 C   0  0  0  0  0  0  0  0  0  0  0  0
   -1.6453    2.2047    1.9986 C   0  0  0  0  0  0  0  0  0  0  0  0
   -1.0837    3.1062    1.1738 C   0  0  0  0  0  0  0  0  0  0  0  0
   -1.4919   -0.2915    1.7668 C   0  0  0  0  0  0  0  0  0  0  0  0
    0.3707    3.3373   -0.8279 C   0  0  0  0  0  0  0  0  0  0  0  0
   -1.5308   -3.7856    0.3405 C   0  0  0  0  0  0  0  0  0  0  0  0
   -1.6910    0.2332   -2.9431 C   0  0  0  0  0  0  0  0  0  0  0  0
   -3.2710    2.1361   -2.5116 C   0  0  0  0  0  0  0  0  0  0  0  0
   -0.4497   -4.8160    0.6404 C   0  0  0  0  0  0  0  0  0  0  0  0
   -1.5774   -3.7787   -1.1828 C   0  0  0  0  0  0  0  0  0  0  0  0
   -2.1455   -1.5494    1.2409 C   0  0  0  0  0  0  0  0  0  0  0  0
   -1.6585    2.4152    3.4872 C   0  0  0  0  0  0  0  0  0  0  0  0
    0.6069   -4.5882   -0.4371 C   0  0  0  0  0  0  0  0  0  0  0  0
   -0.1260   -3.9611   -1.6233 C   0  0  0  0  0  0  0  0  0  0  0  0
    2.1657    1.6365   -1.0325 C   0  0  0  0  0  0  0  0  0  0  0  0
    3.1074    0.7596   -0.2901 C   0  0  0  0  0  0  0  0  0  0  0  0
    3.5408   -0.4383   -0.8584 C   0  0  0  0  0  0  0  0  0  0  0  0
    3.5594    1.1352    0.9748 C   0  0  0  0  0  0  0  0  0  0  0  0
    4.4263   -1.2606   -0.1616 C   0  0  0  0  0  0  0  0  0  0  0  0
    4.4448    0.3130    1.6716 C   0  0  0  0  0  0  0  0  0  0  0  0
    4.8782   -0.8851    1.1035 C   0  0  0  0  0  0  0  0  0  0  0  0
   -0.6471    0.8860   -0.7085 H   0  0  0  0  0  0  0  0  0  0  0  0
   -1.7193    3.7513   -0.7205 H   0  0  0  0  0  0  0  0  0  0  0  0
   -3.0425    0.1285   -0.4257 H   0  0  0  0  0  0  0  0  0  0  0  0
   -3.5038    1.7778   -0.0765 H   0  0  0  0  0  0  0  0  0  0  0  0
   -3.2925    0.8543    2.0046 H   0  0  0  0  0  0  0  0  0  0  0  0
   -1.1724    2.2856   -2.8765 H   0  0  0  0  0  0  0  0  0  0  0  0
   -0.6457    4.0069    1.5998 H   0  0  0  0  0  0  0  0  0  0  0  0
   -1.3668   -0.4313    2.8475 H   0  0  0  0  0  0  0  0  0  0  0  0
   -0.4861   -0.1792    1.3438 H   0  0  0  0  0  0  0  0  0  0  0  0
    0.6412    4.3504   -0.5060 H   0  0  0  0  0  0  0  0  0  0  0  0
    0.4325    3.3311   -1.9194 H   0  0  0  0  0  0  0  0  0  0  0  0
   -2.4953   -4.0921    0.7593 H   0  0  0  0  0  0  0  0  0  0  0  0
   -2.3666   -0.4994   -2.4918 H   0  0  0  0  0  0  0  0  0  0  0  0
   -0.6655   -0.1343   -2.8279 H   0  0  0  0  0  0  0  0  0  0  0  0
   -1.9101    0.2641   -4.0161 H   0  0  0  0  0  0  0  0  0  0  0  0
   -4.0344    1.4132   -2.2056 H   0  0  0  0  0  0  0  0  0  0  0  0
   -3.4503    2.3243   -3.5775 H   0  0  0  0  0  0  0  0  0  0  0  0
   -3.4461    3.0857   -1.9974 H   0  0  0  0  0  0  0  0  0  0  0  0
   -0.8620   -5.8268    0.5323 H   0  0  0  0  0  0  0  0  0  0  0  0
   -0.0318   -4.7282    1.6483 H   0  0  0  0  0  0  0  0  0  0  0  0
   -2.0206   -2.8703   -1.6021 H   0  0  0  0  0  0  0  0  0  0  0  0
   -2.1677   -4.6332   -1.5363 H   0  0  0  0  0  0  0  0  0  0  0  0
   -2.6866    2.4042    3.8635 H   0  0  0  0  0  0  0  0  0  0  0  0
   -1.2141    3.3748    3.7720 H   0  0  0  0  0  0  0  0  0  0  0  0
   -1.0929    1.6278    3.9942 H   0  0  0  0  0  0  0  0  0  0  0  0
    1.1047   -5.5232   -0.7132 H   0  0  0  0  0  0  0  0  0  0  0  0
    1.3804   -3.9012   -0.0741 H   0  0  0  0  0  0  0  0  0  0  0  0
    0.3245   -2.9924   -1.8690 H   0  0  0  0  0  0  0  0  0  0  0  0
   -0.0608   -4.5883   -2.5183 H   0  0  0  0  0  0  0  0  0  0  0  0
   -0.2087   -2.2485    0.9442 H   0  0  0  0  0  0  0  0  0  0  0  0
    1.4153    2.4400    0.7504 H   0  0  0  0  0  0  0  0  0  0  0  0
    3.1958   -0.7510   -1.8404 H   0  0  0  0  0  0  0  0  0  0  0  0
    3.2739    2.0734    1.4406 H   0  0  0  0  0  0  0  0  0  0  0  0
    4.7627   -2.1941   -0.6033 H   0  0  0  0  0  0  0  0  0  0  0  0
    4.8029    0.6084    2.6536 H   0  0  0  0  0  0  0  0  0  0  0  0
    5.5685   -1.5247    1.6455 H   0  0  0  0  0  0  0  0  0  0  0  0
  1 19  2  0  0  0  0
  2 23  2  0  0  0  0
  3 14  1  0  0  0  0
  3 19  1  0  0  0  0
  3 59  1  0  0  0  0
  4 13  1  0  0  0  0
  4 23  1  0  0  0  0
  4 60  1  0  0  0  0
  5  6  1  0  0  0  0
  5  7  1  0  0  0  0
  5  9  1  0  0  0  0
  5 30  1  0  0  0  0
  6 11  1  0  0  0  0
  6 13  1  0  0  0  0
  6 31  1  0  0  0  0
  7  8  1  0  0  0  0
  7 32  1  0  0  0  0
  7 33  1  0  0  0  0
  8 10  1  0  0  0  0
  8 12  1  0  0  0  0
  8 34  1  0  0  0  0
  9 15  1  0  0  0  0
  9 16  1  0  0  0  0
  9 35  1  0  0  0  0
 10 11  2  0  0  0  0
 10 20  1  0  0  0  0
 11 36  1  0  0  0  0
 12 19  1  0  0  0  0
 12 37  1  0  0  0  0
 12 38  1  0  0  0  0
 13 39  1  0  0  0  0
 13 40  1  0  0  0  0
 14 17  1  0  0  0  0
 14 18  1  0  0  0  0
 14 41  1  0  0  0  0
 15 42  1  0  0  0  0
 15 43  1  0  0  0  0
 15 44  1  0  0  0  0
 16 45  1  0  0  0  0
 16 46  1  0  0  0  0
 16 47  1  0  0  0  0
 17 21  1  0  0  0  0
 17 48  1  0  0  0  0
 17 49  1  0  0  0  0
 18 22  1  0  0  0  0
 18 50  1  0  0  0  0
 18 51  1  0  0  0  0
 20 52  1  0  0  0  0
 20 53  1  0  0  0  0
 20 54  1  0  0  0  0
 21 22  1  0  0  0  0
 21 55  1  0  0  0  0
 21 56  1  0  0  0  0
 22 57  1  0  0  0  0
 22 58  1  0  0  0  0
 23 24  1  0  0  0  0
 24 25  2  0  0  0  0
 24 26  1  0  0  0  0
 25 27  1  0  0  0  0
 25 61  1  0  0  0  0
 26 28  2  0  0  0  0
 26 62  1  0  0  0  0
 27 29  2  0  0  0  0
 27 63  1  0  0  0  0
 28 29  1  0  0  0  0
 28 64  1  0  0  0  0
 29 65  1  0  0  0  0
M  END
> <PUBCHEM_COMPOUND_CID>
38027289

> <PUBCHEM_CONFORMER_RMSD>
1

> <PUBCHEM_CONFORMER_DIVERSEORDER>
1
233
17
26
66
194
10
176
174
123
13
144
165
131
177
40
168
49
192
111
60
75
224
86
153
181
251
199
67
19
200
101
242
133
79
72
234
51
103
246
16
85
62
228
216
218
163
112
46
91
44
74
31
166
206
109
250
42
37
198
82
178
191
83
173
248
211
59
18
120
229
87
110
151
15
182
221
158
41
35
212
135
73
201
207
27
76
130
143
140
213
149
195
236
116
160
150
164
113
9
125
217
238
2
7
249
134
247
77
94
53
137
156
96
172
23
24
3
100
58
115
117
21
230
29
32
235
121
209
240
99
55
232
183
197
161
84
107
20
193
226
187
97
4
203
184
179
71
61
25
205
142
30
146
214
22
68
5
81
162
92
93
52
63
208
119
114
65
12
88
215
104
118
122
47
48
139
152
245
223
231
241
244
127
70
38
169
136
105
34
102
175
180
170
106
167
56
237
210
157
189
219
202
64
78
108
243
129
57
190
28
8
147
6
132
138
225
171
220
90
155
128
54
222
204
39
239
148
43
154
227
141
124
69
196
80
98
11
145
95
185
89
186
126
33
36
45
188
159
14
50

> <PUBCHEM_MMFF94_PARTIAL_CHARGES>
28
1 -0.57
10 -0.28
11 -0.29
12 0.06
13 0.3
14 0.3
19 0.57
2 -0.57
20 0.14
23 0.54
24 0.09
25 -0.15
26 -0.15
27 -0.15
28 -0.15
29 -0.15
3 -0.73
36 0.15
4 -0.73
59 0.37
6 0.14
60 0.37
61 0.15
62 0.15
63 0.15
64 0.15
65 0.15
8 0.14

> <PUBCHEM_EFFECTIVE_ROTOR_COUNT>
10.8

> <PUBCHEM_PHARMACOPHORE_FEATURES>
8
1 1 acceptor
1 2 acceptor
1 3 donor
1 4 donor
3 9 15 16 hydrophobe
5 14 17 18 21 22 rings
6 24 25 26 27 28 29 rings
6 5 6 7 8 10 11 rings

> <PUBCHEM_HEAVY_ATOM_COUNT>
29

> <PUBCHEM_ATOM_DEF_STEREO_COUNT>
3

> <PUBCHEM_ATOM_UDEF_STEREO_COUNT>
0

> <PUBCHEM_BOND_DEF_STEREO_COUNT>
0

> <PUBCHEM_BOND_UDEF_STEREO_COUNT>
0

> <PUBCHEM_ISOTOPIC_ATOM_COUNT>
0

> <PUBCHEM_COMPONENT_COUNT>
1

> <PUBCHEM_CACTVS_TAUTO_COUNT>
4

> <PUBCHEM_CONFORMER_ID>
0244401900000001

> <PUBCHEM_MMFF94_ENERGY>
60.8199

> <PUBCHEM_FEATURE_SELFOVERLAP>
40.596

> <PUBCHEM_SHAPE_FINGERPRINT>
11552529 35 18200316640721329520
12156800 1 11548315448639239334
12422481 6 18116175340969266587
12539773 59 18117580593353024267
13122387 1 17832714465390750066
14114207 22 15723302524193660538
14674994 50 18338216263452542470
14705955 166 16339814258748742808
19315092 285 15185404315945936295
19930381 70 17903927647488436291
20764821 26 18048337551925748566
20775530 9 17977950408018147170
238918 7 18051687751308478202
3027735 51 18122894339998563741
35225 105 18261686938239261630
463206 1 16107850642640021691

> <PUBCHEM_SHAPE_MULTIPOLES>
575.11
6.71
6.38
2.86
5.04
7.76
-0.02
-4.11
-0.55
5.05
-0.11
-2.91
-0.63
0.58

> <PUBCHEM_SHAPE_SELFOVERLAP>
1193.187

> <PUBCHEM_SHAPE_VOLUME>
326.6

> <PUBCHEM_COORDINATE_TYPE>
2
5
10

$$$$
