11885141
  -OEChem-12032416413D

 53 58  0     1  0  0  0  0  0999 V2000
    3.6768    3.5767   -0.2170 S   0  0  0  0  0  0  0  0  0  0  0  0
   -0.5220   -1.9878    1.4998 O   0  0  0  0  0  0  0  0  0  0  0  0
    3.1041    1.4113    2.4002 O   0  0  0  0  0  0  0  0  0  0  0  0
    3.8609    0.1622    0.6003 N   0  0  0  0  0  0  0  0  0  0  0  0
    1.3761   -1.7312    0.1690 N   0  0  0  0  0  0  0  0  0  0  0  0
    3.7323   -2.2879    1.0080 C   0  0  2  0  0  0  0  0  0  0  0  0
    3.4175   -1.4093   -1.2702 C   0  0  2  0  0  0  0  0  0  0  0  0
    4.0431   -2.5454   -0.4627 C   0  0  0  0  0  0  0  0  0  0  0  0
    2.2126   -2.3495    1.2084 C   0  0  0  0  0  0  0  0  0  0  0  0
    4.3219   -0.9362    1.4516 C   0  0  0  0  0  0  0  0  0  0  0  0
    4.0441   -0.0652   -0.8439 C   0  0  0  0  0  0  0  0  0  0  0  0
    1.9156   -1.3556   -1.0639 C   0  0  0  0  0  0  0  0  0  0  0  0
    1.1138   -0.9073   -2.0430 C   0  0  0  0  0  0  0  0  0  0  0  0
   -0.0030   -1.6359    0.4390 C   0  0  0  0  0  0  0  0  0  0  0  0
    3.2274    1.2764    1.1818 C   0  0  0  0  0  0  0  0  0  0  0  0
   -0.8694   -1.0849   -0.6612 C   0  0  0  0  0  0  0  0  0  0  0  0
   -0.2988   -0.7668   -1.8327 C   0  0  0  0  0  0  0  0  0  0  0  0
    2.6814    2.2776    0.2761 C   0  0  0  0  0  0  0  0  0  0  0  0
   -2.3140   -0.8791   -0.4634 C   0  0  0  0  0  0  0  0  0  0  0  0
   -2.7849    0.3353    0.0380 C   0  0  0  0  0  0  0  0  0  0  0  0
    1.4240    2.3431   -0.2726 C   0  0  0  0  0  0  0  0  0  0  0  0
   -3.2112   -1.8963   -0.7772 C   0  0  0  0  0  0  0  0  0  0  0  0
   -4.1597    0.5467    0.2321 C   0  0  0  0  0  0  0  0  0  0  0  0
   -4.5805   -1.7035   -0.5912 C   0  0  0  0  0  0  0  0  0  0  0  0
   -5.0709   -0.4878   -0.0874 C   0  0  0  0  0  0  0  0  0  0  0  0
    1.2719    3.4817   -1.1154 C   0  0  0  0  0  0  0  0  0  0  0  0
    2.4212    4.2387   -1.1748 C   0  0  0  0  0  0  0  0  0  0  0  0
   -4.6500    1.7627    0.7355 C   0  0  0  0  0  0  0  0  0  0  0  0
   -6.4458   -0.2763    0.1066 C   0  0  0  0  0  0  0  0  0  0  0  0
   -6.0192    1.9556    0.9220 C   0  0  0  0  0  0  0  0  0  0  0  0
   -6.9152    0.9380    0.6083 C   0  0  0  0  0  0  0  0  0  0  0  0
    4.1942   -3.0695    1.6236 H   0  0  0  0  0  0  0  0  0  0  0  0
    3.6427   -1.5774   -2.3313 H   0  0  0  0  0  0  0  0  0  0  0  0
    3.6404   -3.5159   -0.7789 H   0  0  0  0  0  0  0  0  0  0  0  0
    5.1274   -2.5788   -0.6245 H   0  0  0  0  0  0  0  0  0  0  0  0
    1.9368   -1.9217    2.1806 H   0  0  0  0  0  0  0  0  0  0  0  0
    1.9058   -3.4039    1.2446 H   0  0  0  0  0  0  0  0  0  0  0  0
    4.0785   -0.7466    2.5020 H   0  0  0  0  0  0  0  0  0  0  0  0
    5.4157   -0.9620    1.3735 H   0  0  0  0  0  0  0  0  0  0  0  0
    5.1254   -0.0794   -1.0282 H   0  0  0  0  0  0  0  0  0  0  0  0
    3.6319    0.7500   -1.4424 H   0  0  0  0  0  0  0  0  0  0  0  0
    1.5099   -0.5946   -3.0034 H   0  0  0  0  0  0  0  0  0  0  0  0
   -0.8786   -0.3620   -2.6571 H   0  0  0  0  0  0  0  0  0  0  0  0
   -2.0779    1.1273    0.2824 H   0  0  0  0  0  0  0  0  0  0  0  0
    0.6421    1.6233   -0.0728 H   0  0  0  0  0  0  0  0  0  0  0  0
   -2.8601   -2.8484   -1.1679 H   0  0  0  0  0  0  0  0  0  0  0  0
   -5.2626   -2.5127   -0.8433 H   0  0  0  0  0  0  0  0  0  0  0  0
    0.3643    3.7341   -1.6482 H   0  0  0  0  0  0  0  0  0  0  0  0
    2.5833    5.1493   -1.7341 H   0  0  0  0  0  0  0  0  0  0  0  0
   -3.9680    2.5721    0.9875 H   0  0  0  0  0  0  0  0  0  0  0  0
   -7.1644   -1.0576   -0.1319 H   0  0  0  0  0  0  0  0  0  0  0  0
   -6.3854    2.9007    1.3123 H   0  0  0  0  0  0  0  0  0  0  0  0
   -7.9809    1.0888    0.7537 H   0  0  0  0  0  0  0  0  0  0  0  0
  1 18  1  0  0  0  0
  1 27  1  0  0  0  0
  2 14  2  0  0  0  0
  3 15  2  0  0  0  0
  4 10  1  0  0  0  0
  4 11  1  0  0  0  0
  4 15  1  0  0  0  0
  5  9  1  0  0  0  0
  5 12  1  0  0  0  0
  5 14  1  0  0  0  0
  6  8  1  0  0  0  0
  6  9  1  0  0  0  0
  6 10  1  0  0  0  0
  6 32  1  0  0  0  0
  7  8  1  0  0  0  0
  7 11  1  0  0  0  0
  7 12  1  0  0  0  0
  7 33  1  0  0  0  0
  8 34  1  0  0  0  0
  8 35  1  0  0  0  0
  9 36  1  0  0  0  0
  9 37  1  0  0  0  0
 10 38  1  0  0  0  0
 10 39  1  0  0  0  0
 11 40  1  0  0  0  0
 11 41  1  0  0  0  0
 12 13  2  0  0  0  0
 13 17  1  0  0  0  0
 13 42  1  0  0  0  0
 14 16  1  0  0  0  0
 15 18  1  0  0  0  0
 16 17  2  0  0  0  0
 16 19  1  0  0  0  0
 17 43  1  0  0  0  0
 18 21  2  0  0  0  0
 19 20  2  0  0  0  0
 19 22  1  0  0  0  0
 20 23  1  0  0  0  0
 20 44  1  0  0  0  0
 21 26  1  0  0  0  0
 21 45  1  0  0  0  0
 22 24  2  0  0  0  0
 22 46  1  0  0  0  0
 23 25  1  0  0  0  0
 23 28  2  0  0  0  0
 24 25  1  0  0  0  0
 24 47  1  0  0  0  0
 25 29  2  0  0  0  0
 26 27  2  0  0  0  0
 26 48  1  0  0  0  0
 27 49  1  0  0  0  0
 28 30  1  0  0  0  0
 28 50  1  0  0  0  0
 29 31  1  0  0  0  0
 29 51  1  0  0  0  0
 30 31  2  0  0  0  0
 30 52  1  0  0  0  0
 31 53  1  0  0  0  0
M  END
> <PUBCHEM_COMPOUND_CID>
11885141

> <PUBCHEM_CONFORMER_RMSD>
0.8

> <PUBCHEM_CONFORMER_DIVERSEORDER>
1
9
15
23
16
3
11
20
22
10
21
18
2
19
17
14
12
4
8
6
13
7
5

> <PUBCHEM_MMFF94_PARTIAL_CHARGES>
39
1 -0.08
10 0.3
11 0.3
12 -0.03
13 -0.15
14 0.62
15 0.71
16 -0.01
17 -0.15
18 -0.05
19 0.03
2 -0.57
20 -0.15
21 -0.15
22 -0.15
24 -0.15
26 -0.15
27 -0.11
28 -0.15
29 -0.15
3 -0.57
30 -0.15
31 -0.15
4 -0.66
42 0.15
43 0.15
44 0.15
45 0.15
46 0.15
47 0.15
48 0.15
49 0.15
5 -0.47
50 0.15
51 0.15
52 0.15
53 0.15
7 0.14
9 0.3

> <PUBCHEM_EFFECTIVE_ROTOR_COUNT>
4

> <PUBCHEM_PHARMACOPHORE_FEATURES>
8
1 2 acceptor
1 3 acceptor
5 1 18 21 26 27 rings
6 19 20 22 23 24 25 rings
6 23 25 28 29 30 31 rings
6 4 6 7 8 10 11 rings
6 5 12 13 14 16 17 rings
6 5 6 7 8 9 12 rings

> <PUBCHEM_HEAVY_ATOM_COUNT>
31

> <PUBCHEM_ATOM_DEF_STEREO_COUNT>
2

> <PUBCHEM_ATOM_UDEF_STEREO_COUNT>
0

> <PUBCHEM_BOND_DEF_STEREO_COUNT>
0

> <PUBCHEM_BOND_UDEF_STEREO_COUNT>
0

> <PUBCHEM_ISOTOPIC_ATOM_COUNT>
0

> <PUBCHEM_COMPONENT_COUNT>
1

> <PUBCHEM_CACTVS_TAUTO_COUNT>
1

> <PUBCHEM_CONFORMER_ID>
00B55A5500000001

> <PUBCHEM_MMFF94_ENERGY>
88.6441

> <PUBCHEM_FEATURE_SELFOVERLAP>
42.223

> <PUBCHEM_SHAPE_FINGERPRINT>
10439779 11 17836367043377210665
10483366 6 18263944253861976676
10674148 151 18270407234813435524
11421498 54 17605555432122662794
11578080 2 17678763321064754466
12107698 1 18340488868272665937
12166972 35 18201443528011590707
12236239 1 18187934933070785391
12422481 6 18200017465498843105
12633257 1 17823676737692520744
13965767 371 17915432035619279010
14251764 38 18338802324767603041
14849402 71 18333734645594666076
15001296 14 18411418423563162569
15238133 3 18408887339437695702
15475509 84 17539679206034428018
17818456 19 18060142011840565201
17844677 252 18341618131234269187
19958102 18 9871476366589128203
20691752 17 18040427811055872223
20715895 44 17986957358592111369
21033648 29 17023173930126000967
21792934 111 18411144603067336977
21859007 373 17823687583097523013
21860390 5 18412263965047037222
22223350 30 17095812117268437979
23559900 14 17488757674694866207
249057 3 18130509638957753183
338550 245 18411703175410171649
3411729 13 18340491170006177108
345986 75 17606106287216141506
3493558 16 18341056314946154521
3680242 22 18338241462136470481
397830 11 18042136504672677851
4058900 60 17826240867554896988
4144715 1 18271535212745574275
44280116 191 13246981311125416275
474 4 18264765630778519175
5104073 3 18336841861734651211
513532 50 17489314109320029660
54076057 255 18189354432214050884
5895379 119 17702403757312321289
6086070 43 18044346406410510023
8509985 295 18334580109495271285
9981440 41 17905048406029386017

> <PUBCHEM_SHAPE_MULTIPOLES>
620.11
13.39
4.16
1.59
23.67
4.16
-0.08
2.54
-3.36
-5
0.56
-1.37
-0.16
-1.44

> <PUBCHEM_SHAPE_SELFOVERLAP>
1380.553

> <PUBCHEM_SHAPE_VOLUME>
329.9

> <PUBCHEM_COORDINATE_TYPE>
2
5
10

$$$$
