75367677
  -OEChem-12032416383D

 35 36  0     1  0  0  0  0  0999 V2000
    2.2866    1.8247   -0.1566 S   0  0  0  0  0  0  0  0  0  0  0  0
    1.8880   -2.7729    0.2100 O   0  0  0  0  0  0  0  0  0  0  0  0
   -0.8981   -0.6798   -0.8453 O   0  0  0  0  0  0  0  0  0  0  0  0
    1.0275    2.5069   -0.3474 O   0  0  0  0  0  0  0  0  0  0  0  0
    3.3890    1.9812   -1.0771 O   0  0  0  0  0  0  0  0  0  0  0  0
    1.9756    0.1511    0.0424 N   0  0  2  0  0  0  0  0  0  0  0  0
    0.7623   -0.1939    0.8462 C   0  0  0  0  0  0  0  0  0  0  0  0
   -0.0613   -1.2739    0.1476 C   0  0  2  0  0  0  0  0  0  0  0  0
    3.1557   -0.6842    0.4209 C   0  0  0  0  0  0  0  0  0  0  0  0
    0.7272   -2.3965   -0.5230 C   0  0  0  0  0  0  0  0  0  0  0  0
    3.0559   -2.0664   -0.2078 C   0  0  0  0  0  0  0  0  0  0  0  0
    2.8732    2.1948    1.4756 C   0  0  0  0  0  0  0  0  0  0  0  0
   -2.1189   -0.2270   -0.4255 C   0  0  0  0  0  0  0  0  0  0  0  0
   -3.0337   -1.1131    0.1434 C   0  0  0  0  0  0  0  0  0  0  0  0
   -2.4488    1.1209   -0.5665 C   0  0  0  0  0  0  0  0  0  0  0  0
   -4.2785   -0.6513    0.5715 C   0  0  0  0  0  0  0  0  0  0  0  0
   -3.6934    1.5827   -0.1386 C   0  0  0  0  0  0  0  0  0  0  0  0
   -4.6083    0.6967    0.4303 C   0  0  0  0  0  0  0  0  0  0  0  0
    0.1439    0.6898    1.0278 H   0  0  0  0  0  0  0  0  0  0  0  0
    1.0723   -0.5517    1.8357 H   0  0  0  0  0  0  0  0  0  0  0  0
   -0.6655   -1.7443    0.9349 H   0  0  0  0  0  0  0  0  0  0  0  0
    3.2186   -0.7687    1.5117 H   0  0  0  0  0  0  0  0  0  0  0  0
    4.0843   -0.2224    0.0698 H   0  0  0  0  0  0  0  0  0  0  0  0
    0.0815   -3.2808   -0.5858 H   0  0  0  0  0  0  0  0  0  0  0  0
    0.9734   -2.1514   -1.5645 H   0  0  0  0  0  0  0  0  0  0  0  0
    3.1073   -2.0152   -1.3021 H   0  0  0  0  0  0  0  0  0  0  0  0
    3.9168   -2.6595    0.1199 H   0  0  0  0  0  0  0  0  0  0  0  0
    2.1108    1.9323    2.2107 H   0  0  0  0  0  0  0  0  0  0  0  0
    3.8086    1.6681    1.6677 H   0  0  0  0  0  0  0  0  0  0  0  0
    3.0568    3.2714    1.5211 H   0  0  0  0  0  0  0  0  0  0  0  0
   -2.8019   -2.1701    0.2426 H   0  0  0  0  0  0  0  0  0  0  0  0
   -1.7419    1.8155   -1.0112 H   0  0  0  0  0  0  0  0  0  0  0  0
   -4.9927   -1.3420    1.0101 H   0  0  0  0  0  0  0  0  0  0  0  0
   -3.9505    2.6321   -0.2491 H   0  0  0  0  0  0  0  0  0  0  0  0
   -5.5779    1.0561    0.7624 H   0  0  0  0  0  0  0  0  0  0  0  0
  1  4  2  0  0  0  0
  1  5  2  0  0  0  0
  1  6  1  0  0  0  0
  1 12  1  0  0  0  0
  2 10  1  0  0  0  0
  2 11  1  0  0  0  0
  3  8  1  0  0  0  0
  3 13  1  0  0  0  0
  6  7  1  0  0  0  0
  6  9  1  0  0  0  0
  7  8  1  0  0  0  0
  7 19  1  0  0  0  0
  7 20  1  0  0  0  0
  8 10  1  0  0  0  0
  8 21  1  0  0  0  0
  9 11  1  0  0  0  0
  9 22  1  0  0  0  0
  9 23  1  0  0  0  0
 10 24  1  0  0  0  0
 10 25  1  0  0  0  0
 11 26  1  0  0  0  0
 11 27  1  0  0  0  0
 12 28  1  0  0  0  0
 12 29  1  0  0  0  0
 12 30  1  0  0  0  0
 13 14  2  0  0  0  0
 13 15  1  0  0  0  0
 14 16  1  0  0  0  0
 14 31  1  0  0  0  0
 15 17  2  0  0  0  0
 15 32  1  0  0  0  0
 16 18  2  0  0  0  0
 16 33  1  0  0  0  0
 17 18  1  0  0  0  0
 17 34  1  0  0  0  0
 18 35  1  0  0  0  0
M  END
> <PUBCHEM_COMPOUND_CID>
75367677

> <PUBCHEM_CONFORMER_RMSD>
0.6

> <PUBCHEM_CONFORMER_DIVERSEORDER>
4
47
122
51
132
93
113
62
143
71
144
129
74
8
104
145
30
82
88
6
98
146
75
108
79
65
58
56
142
100
123
43
29
26
91
76
48
64
121
99
140
92
130
40
106
3
16
117
124
125
102
18
131
19
119
128
17
115
120
80
39
21
111
95
139
137
133
50
59
136
135
31
38
110
2
105
77
68
63
14
41
66
54
83
36
78
10
9
87
116
61
101
11
49
85
89
24
25
96
33
107
35
126
103
112
97
42
118
15
114
53
46
67
138
13
12
32
141
57
60
5
73
1
69
84
127
45
7
52
81
37
23
86
134
109
22
34
55
20
27
72
70
44
90
28
94

> <PUBCHEM_MMFF94_PARTIAL_CHARGES>
23
1 1.33
10 0.28
11 0.28
12 0.11
13 0.08
14 -0.15
15 -0.15
16 -0.15
17 -0.15
18 -0.15
2 -0.56
3 -0.36
31 0.15
32 0.15
33 0.15
34 0.15
35 0.15
4 -0.65
5 -0.65
6 -0.85
7 0.36
8 0.28
9 0.36

> <PUBCHEM_EFFECTIVE_ROTOR_COUNT>
4.4

> <PUBCHEM_PHARMACOPHORE_FEATURES>
6
1 2 acceptor
1 3 acceptor
1 4 acceptor
1 5 acceptor
6 13 14 15 16 17 18 rings
7 2 6 7 8 9 10 11 rings

> <PUBCHEM_HEAVY_ATOM_COUNT>
18

> <PUBCHEM_ATOM_DEF_STEREO_COUNT>
1

> <PUBCHEM_ATOM_UDEF_STEREO_COUNT>
0

> <PUBCHEM_BOND_DEF_STEREO_COUNT>
0

> <PUBCHEM_BOND_UDEF_STEREO_COUNT>
0

> <PUBCHEM_ISOTOPIC_ATOM_COUNT>
0

> <PUBCHEM_COMPONENT_COUNT>
1

> <PUBCHEM_CACTVS_TAUTO_COUNT>
1

> <PUBCHEM_CONFORMER_ID>
047E04FD00000004

> <PUBCHEM_MMFF94_ENERGY>
55.7101

> <PUBCHEM_FEATURE_SELFOVERLAP>
30.465

> <PUBCHEM_SHAPE_FINGERPRINT>
10366900 7 17894921689553421971
10465860 228 18412827975451302457
10608611 8 18336543824804728087
10980938 120 18409445916291567688
11132069 177 18261103123724884977
11715629 250 18341606083407547849
11725454 13 16412362390071821232
12633257 1 18186795842838880987
13140716 1 18338788005151628498
14026960 21 18336831991214080219
14123255 52 18197214956536300872
14178342 30 17979899829412621090
14415576 193 18410857655004260055
15375462 6 18408606993610154903
15442244 35 18195810669765589657
15536298 74 18411982468305592797
1601671 61 18341049602033531514
1798214 55 18341047539895607929
18186145 218 17846223318388549344
18785283 64 18261397775587185830
20339313 130 18270118989796393838
20559304 39 18412826854586157440
20671657 1 18343300366327373879
20681677 76 18334849490487537711
21041028 32 18198341749664329400
21501502 16 18411696629795473511
21524375 3 18263636436795427274
22094290 62 18341324526694440398
221490 88 18335712628021011795
22854114 111 18341610438419762689
23558518 356 18120644984069067466
23559900 14 18267859498218631427
23598291 2 18202273719314914463
25 1 18337392737944074910
2637199 183 18263094360631095044
2748010 2 18263062371482617836
474 4 18334012838778272233
49207404 50 18262807388006464379
5104073 3 18410295805158566411
5939293 188 18340480067778992970
6049 1 18041835100224696237
7364860 26 18412824668289509174
7808743 9 17833831951667955328
81228 2 17261319098599937178
84936 182 18131064982750686880
9709674 26 18408890620603435875

> <PUBCHEM_SHAPE_MULTIPOLES>
345.82
7.89
2.98
0.95
6.44
0.04
0.11
-1.89
0.88
-2.95
-0.13
-0.37
-0.33
0.28

> <PUBCHEM_SHAPE_SELFOVERLAP>
697.72

> <PUBCHEM_SHAPE_VOLUME>
201.9

> <PUBCHEM_COORDINATE_TYPE>
2
5
10

$$$$
