45784367
  -OEChem-12032416333D

 79 82  0     1  0  0  0  0  0999 V2000
    0.1485    2.6505   -0.7385 O   0  0  0  0  0  0  0  0  0  0  0  0
   -5.0027    2.8536    0.6738 O   0  0  0  0  0  0  0  0  0  0  0  0
    4.9742   -2.2216   -0.2860 O   0  0  0  0  0  0  0  0  0  0  0  0
   -6.9173   -3.6883   -0.3338 O   0  0  0  0  0  0  0  0  0  0  0  0
    4.2053   -0.4723    1.0317 N   0  0  0  0  0  0  0  0  0  0  0  0
   -4.2747    1.9785   -1.3470 N   0  0  0  0  0  0  0  0  0  0  0  0
   -0.0723   -0.4209    1.5186 C   0  0  1  0  0  0  0  0  0  0  0  0
    0.5345    0.5663    0.4666 C   0  0  2  0  0  0  0  0  0  0  0  0
    2.0736    0.7657    0.7100 C   0  0  1  0  0  0  0  0  0  0  0  0
   -0.3024    1.8744    0.3727 C   0  0  2  0  0  0  0  0  0  0  0  0
   -1.5594   -0.6827    1.1825 C   0  0  0  0  0  0  0  0  0  0  0  0
    0.6747   -1.7719    1.4318 C   0  0  0  0  0  0  0  0  0  0  0  0
   -1.8070    1.6023    0.1402 C   0  0  1  0  0  0  0  0  0  0  0  0
    2.8035   -0.6068    0.6953 C   0  0  2  0  0  0  0  0  0  0  0  0
   -2.3900    0.5926    1.1286 C   0  0  0  0  0  0  0  0  0  0  0  0
    2.1773   -1.6380    1.6337 C   0  0  0  0  0  0  0  0  0  0  0  0
    0.0227    0.1224    2.9668 C   0  0  0  0  0  0  0  0  0  0  0  0
   -2.6319    2.8946    0.1812 C   0  0  2  0  0  0  0  0  0  0  0  0
    2.7415    1.7046   -0.3088 C   0  0  0  0  0  0  0  0  0  0  0  0
   -2.4685    3.5788    1.5339 C   0  0  0  0  0  0  0  0  0  0  0  0
   -4.0967    2.5859   -0.1126 C   0  0  0  0  0  0  0  0  0  0  0  0
    5.1803   -1.3034    0.5036 C   0  0  0  0  0  0  0  0  0  0  0  0
    6.5584   -0.9367    1.0195 C   0  0  0  0  0  0  0  0  0  0  0  0
   -5.5730    1.5893   -1.8464 C   0  0  0  0  0  0  0  0  0  0  0  0
    7.5191   -0.5446   -0.0718 C   0  0  0  0  0  0  0  0  0  0  0  0
   -5.9317    0.1872   -1.4463 C   0  0  0  0  0  0  0  0  0  0  0  0
    8.3113   -1.5147   -0.6856 C   0  0  0  0  0  0  0  0  0  0  0  0
    7.6167    0.7890   -0.4687 C   0  0  0  0  0  0  0  0  0  0  0  0
   -5.3359   -0.8964   -2.0917 C   0  0  0  0  0  0  0  0  0  0  0  0
   -6.8590   -0.0314   -0.4275 C   0  0  0  0  0  0  0  0  0  0  0  0
    9.2014   -1.1513   -1.6964 C   0  0  0  0  0  0  0  0  0  0  0  0
    8.5066    1.1525   -1.4794 C   0  0  0  0  0  0  0  0  0  0  0  0
    9.2989    0.1824   -2.0932 C   0  0  0  0  0  0  0  0  0  0  0  0
   -5.6675   -2.1988   -1.7182 C   0  0  0  0  0  0  0  0  0  0  0  0
   -7.1905   -1.3337   -0.0541 C   0  0  0  0  0  0  0  0  0  0  0  0
   -6.5950   -2.4175   -0.6994 C   0  0  0  0  0  0  0  0  0  0  0  0
   -7.8728   -3.8394    0.7151 C   0  0  0  0  0  0  0  0  0  0  0  0
    0.4554    0.0841   -0.5211 H   0  0  0  0  0  0  0  0  0  0  0  0
    2.2197    1.2294    1.6938 H   0  0  0  0  0  0  0  0  0  0  0  0
   -0.1121    2.4573    1.2754 H   0  0  0  0  0  0  0  0  0  0  0  0
   -1.6354   -1.1893    0.2107 H   0  0  0  0  0  0  0  0  0  0  0  0
   -2.0006   -1.3672    1.9184 H   0  0  0  0  0  0  0  0  0  0  0  0
    0.4969   -2.2290    0.4490 H   0  0  0  0  0  0  0  0  0  0  0  0
    0.2753   -2.4754    2.1734 H   0  0  0  0  0  0  0  0  0  0  0  0
   -1.8892    1.1590   -0.8613 H   0  0  0  0  0  0  0  0  0  0  0  0
    2.7448   -1.0082   -0.3260 H   0  0  0  0  0  0  0  0  0  0  0  0
   -3.4074    0.3056    0.8384 H   0  0  0  0  0  0  0  0  0  0  0  0
   -2.4690    0.9913    2.1421 H   0  0  0  0  0  0  0  0  0  0  0  0
    2.6437   -2.6186    1.4724 H   0  0  0  0  0  0  0  0  0  0  0  0
    2.3958   -1.3815    2.6775 H   0  0  0  0  0  0  0  0  0  0  0  0
    1.0539    0.2575    3.3027 H   0  0  0  0  0  0  0  0  0  0  0  0
   -0.4530   -0.5712    3.6701 H   0  0  0  0  0  0  0  0  0  0  0  0
   -0.4700    1.0917    3.0838 H   0  0  0  0  0  0  0  0  0  0  0  0
   -2.2905    3.5853   -0.6006 H   0  0  0  0  0  0  0  0  0  0  0  0
    2.5049    1.4095   -1.3362 H   0  0  0  0  0  0  0  0  0  0  0  0
    3.8318    1.7084   -0.2084 H   0  0  0  0  0  0  0  0  0  0  0  0
    2.4314    2.7416   -0.1525 H   0  0  0  0  0  0  0  0  0  0  0  0
    4.4579    0.2214    1.7293 H   0  0  0  0  0  0  0  0  0  0  0  0
    0.0364    2.1183   -1.5445 H   0  0  0  0  0  0  0  0  0  0  0  0
   -2.8092    2.9818    2.3829 H   0  0  0  0  0  0  0  0  0  0  0  0
   -3.0842    4.4878    1.5519 H   0  0  0  0  0  0  0  0  0  0  0  0
   -1.4481    3.9190    1.7233 H   0  0  0  0  0  0  0  0  0  0  0  0
   -3.4798    1.8387   -1.9623 H   0  0  0  0  0  0  0  0  0  0  0  0
    6.5093   -0.1326    1.7639 H   0  0  0  0  0  0  0  0  0  0  0  0
    6.9445   -1.8084    1.5636 H   0  0  0  0  0  0  0  0  0  0  0  0
   -5.5470    1.6710   -2.9391 H   0  0  0  0  0  0  0  0  0  0  0  0
   -6.3256    2.3027   -1.4910 H   0  0  0  0  0  0  0  0  0  0  0  0
    8.2433   -2.5573   -0.3864 H   0  0  0  0  0  0  0  0  0  0  0  0
    7.0028    1.5532    0.0006 H   0  0  0  0  0  0  0  0  0  0  0  0
   -4.6111   -0.7381   -2.8859 H   0  0  0  0  0  0  0  0  0  0  0  0
   -7.3285    0.8043    0.0847 H   0  0  0  0  0  0  0  0  0  0  0  0
    9.8180   -1.9067   -2.1747 H   0  0  0  0  0  0  0  0  0  0  0  0
    8.5822    2.1907   -1.7890 H   0  0  0  0  0  0  0  0  0  0  0  0
    9.9916    0.4654   -2.8804 H   0  0  0  0  0  0  0  0  0  0  0  0
   -5.1996   -3.0390   -2.2239 H   0  0  0  0  0  0  0  0  0  0  0  0
   -7.9172   -1.4316    0.7451 H   0  0  0  0  0  0  0  0  0  0  0  0
   -8.0103   -4.9139    0.8747 H   0  0  0  0  0  0  0  0  0  0  0  0
   -8.8489   -3.4308    0.4323 H   0  0  0  0  0  0  0  0  0  0  0  0
   -7.5048   -3.4207    1.6579 H   0  0  0  0  0  0  0  0  0  0  0  0
  1 10  1  0  0  0  0
  1 59  1  0  0  0  0
  2 21  2  0  0  0  0
  3 22  2  0  0  0  0
  4 36  1  0  0  0  0
  4 37  1  0  0  0  0
  5 14  1  0  0  0  0
  5 22  1  0  0  0  0
  5 58  1  0  0  0  0
  6 21  1  0  0  0  0
  6 24  1  0  0  0  0
  6 63  1  0  0  0  0
  7  8  1  0  0  0  0
  7 11  1  0  0  0  0
  7 12  1  0  0  0  0
  7 17  1  0  0  0  0
  8  9  1  0  0  0  0
  8 10  1  0  0  0  0
  8 38  1  0  0  0  0
  9 14  1  0  0  0  0
  9 19  1  0  0  0  0
  9 39  1  0  0  0  0
 10 13  1  0  0  0  0
 10 40  1  0  0  0  0
 11 15  1  0  0  0  0
 11 41  1  0  0  0  0
 11 42  1  0  0  0  0
 12 16  1  0  0  0  0
 12 43  1  0  0  0  0
 12 44  1  0  0  0  0
 13 15  1  0  0  0  0
 13 18  1  0  0  0  0
 13 45  1  0  0  0  0
 14 16  1  0  0  0  0
 14 46  1  0  0  0  0
 15 47  1  0  0  0  0
 15 48  1  0  0  0  0
 16 49  1  0  0  0  0
 16 50  1  0  0  0  0
 17 51  1  0  0  0  0
 17 52  1  0  0  0  0
 17 53  1  0  0  0  0
 18 20  1  0  0  0  0
 18 21  1  0  0  0  0
 18 54  1  0  0  0  0
 19 55  1  0  0  0  0
 19 56  1  0  0  0  0
 19 57  1  0  0  0  0
 20 60  1  0  0  0  0
 20 61  1  0  0  0  0
 20 62  1  0  0  0  0
 22 23  1  0  0  0  0
 23 25  1  0  0  0  0
 23 64  1  0  0  0  0
 23 65  1  0  0  0  0
 24 26  1  0  0  0  0
 24 66  1  0  0  0  0
 24 67  1  0  0  0  0
 25 27  2  0  0  0  0
 25 28  1  0  0  0  0
 26 29  2  0  0  0  0
 26 30  1  0  0  0  0
 27 31  1  0  0  0  0
 27 68  1  0  0  0  0
 28 32  2  0  0  0  0
 28 69  1  0  0  0  0
 29 34  1  0  0  0  0
 29 70  1  0  0  0  0
 30 35  2  0  0  0  0
 30 71  1  0  0  0  0
 31 33  2  0  0  0  0
 31 72  1  0  0  0  0
 32 33  1  0  0  0  0
 32 73  1  0  0  0  0
 33 74  1  0  0  0  0
 34 36  2  0  0  0  0
 34 75  1  0  0  0  0
 35 36  1  0  0  0  0
 35 76  1  0  0  0  0
 37 77  1  0  0  0  0
 37 78  1  0  0  0  0
 37 79  1  0  0  0  0
M  END
> <PUBCHEM_COMPOUND_CID>
45784367

> <PUBCHEM_CONFORMER_RMSD>
1.2

> <PUBCHEM_CONFORMER_DIVERSEORDER>
1
6
33
186
222
171
201
114
155
17
16
125
106
2
216
51
225
150
129
54
203
212
60
18
148
119
184
177
115
161
166
128
75
187
99
72
88
4
192
131
200
71
202
185
183
97
100
145
135
95
208
197
82
68
77
127
196
47
207
43
9
138
63
217
176
213
162
91
223
175
93
160
204
20
39
30
152
22
178
174
121
113
98
38
25
165
117
122
86
66
124
195
126
209
226
89
94
35
102
78
123
220
149
31
23
59
180
103
116
46
189
144
159
69
132
193
57
70
181
84
206
41
219
14
151
10
194
218
182
190
85
64
157
27
199
13
221
179
42
79
34
120
21
143
169
37
36
62
211
53
172
191
45
65
49
110
109
215
29
136
164
74
101
224
52
55
80
210
140
28
205
7
76
96
158
118
163
170
15
67
139
141
58
147
32
198
130
156
48
26
108
105
81
112
24
188
167
92
153
73
137
83
12
168
104
8
146
5
44
11
154
214
134
3
173
19
61
142
40
107
87
133
50
56
111
90

> <PUBCHEM_MMFF94_PARTIAL_CHARGES>
38
1 -0.68
10 0.28
14 0.3
18 0.06
2 -0.57
21 0.57
22 0.57
23 0.2
24 0.44
25 -0.14
26 -0.14
27 -0.15
28 -0.15
29 -0.15
3 -0.57
30 -0.15
31 -0.15
32 -0.15
33 -0.15
34 -0.15
35 -0.15
36 0.08
37 0.28
4 -0.36
5 -0.73
58 0.37
59 0.4
6 -0.73
63 0.37
68 0.15
69 0.15
70 0.15
71 0.15
72 0.15
73 0.15
74 0.15
75 0.15
76 0.15

> <PUBCHEM_EFFECTIVE_ROTOR_COUNT>
11.6

> <PUBCHEM_PHARMACOPHORE_FEATURES>
12
1 1 acceptor
1 1 donor
1 2 acceptor
1 20 hydrophobe
1 3 acceptor
1 4 acceptor
1 5 donor
1 6 donor
6 25 27 28 31 32 33 rings
6 26 29 30 34 35 36 rings
6 7 8 10 11 13 15 rings
6 7 8 9 12 14 16 rings

> <PUBCHEM_HEAVY_ATOM_COUNT>
37

> <PUBCHEM_ATOM_DEF_STEREO_COUNT>
6

> <PUBCHEM_ATOM_UDEF_STEREO_COUNT>
1

> <PUBCHEM_BOND_DEF_STEREO_COUNT>
0

> <PUBCHEM_BOND_UDEF_STEREO_COUNT>
0

> <PUBCHEM_ISOTOPIC_ATOM_COUNT>
0

> <PUBCHEM_COMPONENT_COUNT>
1

> <PUBCHEM_CACTVS_TAUTO_COUNT>
4

> <PUBCHEM_CONFORMER_ID>
02BA9D2F00000001

> <PUBCHEM_MMFF94_ENERGY>
111.9832

> <PUBCHEM_FEATURE_SELFOVERLAP>
60.912

> <PUBCHEM_SHAPE_FINGERPRINT>
10076449 9 18411419540122491803
10554248 39 17459185188985846154
11007060 377 17675927586056226672
11456790 92 9871459921017180422
11621639 254 17676212372442089228
11621639 307 12758243045814705247
117089 54 18191865842017863747
11828042 200 18115588287439107243
11828042 38 16843065017624274046
11973863 73 12679185981758841430
11973864 196 16879360111215111892
12655364 131 11095891483571056988
13782708 43 17917134044610764651
13947947 19 18040436603608561036
14340393 91 18336826489092066259
15392192 29 18342174467580905501
15461852 350 18409452475165447934
16067689 302 18199463436546274088
19246450 95 9943811092679523985
20982279 24 16343437133115871686
21133410 32 16081945874818781603
21781051 124 16988557980021713462
21867018 265 18411983572254931470
21927370 108 16988568995742591457
22288116 15 18409728452251885583
23569914 2 13119414116328909351
23576562 1 17750242568060900422
25269216 80 18409169921693438679
354706 132 17240756277889383887
397638 5 8430322316323595166
437795 163 18335136496944645806
4567818 161 17531823453780079396
484989 97 18410852200464294939
54039377 194 18411420648677799695
9980921 7 16805614719995409460
999808 66 15410889652525081380

> <PUBCHEM_SHAPE_MULTIPOLES>
728
28.63
3.75
2.04
39.8
0.1
0.07
-17.42
-18.75
-8.81
0.29
0.27
-0.13
-0.92

> <PUBCHEM_SHAPE_SELFOVERLAP>
1533.163

> <PUBCHEM_SHAPE_VOLUME>
405.7

> <PUBCHEM_COORDINATE_TYPE>
2
5
10

$$$$
