51136977
  -OEChem-12032416233D

 66 69  0     1  0  0  0  0  0999 V2000
   -6.3227   -1.0560    1.2798 Cl  0  0  0  0  0  0  0  0  0  0  0  0
    8.8747    2.5028    0.6835 F   0  0  0  0  0  0  0  0  0  0  0  0
    6.9523    3.2277    1.3952 F   0  0  0  0  0  0  0  0  0  0  0  0
    7.8391    1.4605    2.2863 F   0  0  0  0  0  0  0  0  0  0  0  0
   -2.4037   -2.1552    0.8795 O   0  0  0  0  0  0  0  0  0  0  0  0
   -0.7744   -3.2423   -1.3859 O   0  0  0  0  0  0  0  0  0  0  0  0
   -4.1518   -4.3560    0.8032 O   0  0  0  0  0  0  0  0  0  0  0  0
   -4.2652   -1.0062   -1.0927 O   0  0  0  0  0  0  0  0  0  0  0  0
   -6.1655    4.3910   -0.9220 O   0  0  0  0  0  0  0  0  0  0  0  0
    1.0879   -1.5137   -0.0570 N   0  0  0  0  0  0  0  0  0  0  0  0
    3.7711   -0.5824   -0.3612 N   0  0  0  0  0  0  0  0  0  0  0  0
   -2.7800    0.4732   -0.0979 N   0  0  0  0  0  0  0  0  0  0  0  0
   -0.0358   -2.1148    0.6396 C   0  0  1  0  0  0  0  0  0  0  0  0
   -1.2883   -1.2414    0.7869 C   0  0  1  0  0  0  0  0  0  0  0  0
   -0.5792   -3.3906    0.0145 C   0  0  1  0  0  0  0  0  0  0  0  0
   -1.9208   -3.5042    0.7287 C   0  0  2  0  0  0  0  0  0  0  0  0
    2.1984   -2.4679   -0.1632 C   0  0  0  0  0  0  0  0  0  0  0  0
    1.5362   -0.3011    0.6390 C   0  0  0  0  0  0  0  0  0  0  0  0
   -1.5877   -0.2773   -0.3556 C   0  0  0  0  0  0  0  0  0  0  0  0
    3.3687   -1.8657   -0.9448 C   0  0  0  0  0  0  0  0  0  0  0  0
    2.6835    0.3733   -0.1166 C   0  0  0  0  0  0  0  0  0  0  0  0
   -2.9719   -4.3354    0.0161 C   0  0  0  0  0  0  0  0  0  0  0  0
    5.0485   -0.0726   -0.6193 C   0  0  0  0  0  0  0  0  0  0  0  0
   -4.0443    0.0426   -0.4929 C   0  0  0  0  0  0  0  0  0  0  0  0
    5.6857    0.7253    0.3308 C   0  0  0  0  0  0  0  0  0  0  0  0
    5.6846   -0.3625   -1.8264 C   0  0  0  0  0  0  0  0  0  0  0  0
    6.9589    1.2336    0.0738 C   0  0  0  0  0  0  0  0  0  0  0  0
    6.9578    0.1459   -2.0834 C   0  0  0  0  0  0  0  0  0  0  0  0
   -5.1775    0.9486   -0.1737 C   0  0  0  0  0  0  0  0  0  0  0  0
    7.5950    0.9440   -1.1334 C   0  0  0  0  0  0  0  0  0  0  0  0
    7.6395    2.0875    1.0894 C   0  0  0  0  0  0  0  0  0  0  0  0
   -5.1494    2.2434   -0.6916 C   0  0  0  0  0  0  0  0  0  0  0  0
   -6.2491    0.5378    0.6192 C   0  0  0  0  0  0  0  0  0  0  0  0
   -6.1927    3.1275   -0.4167 C   0  0  0  0  0  0  0  0  0  0  0  0
   -7.2926    1.4219    0.8940 C   0  0  0  0  0  0  0  0  0  0  0  0
   -7.2643    2.7166    0.3761 C   0  0  0  0  0  0  0  0  0  0  0  0
   -7.2651    5.2420   -0.6013 C   0  0  0  0  0  0  0  0  0  0  0  0
    0.2766   -2.3821    1.6623 H   0  0  0  0  0  0  0  0  0  0  0  0
   -1.2476   -0.6803    1.7289 H   0  0  0  0  0  0  0  0  0  0  0  0
    0.0475   -4.2706    0.1915 H   0  0  0  0  0  0  0  0  0  0  0  0
   -1.7765   -3.8838    1.7484 H   0  0  0  0  0  0  0  0  0  0  0  0
    1.8994   -3.3736   -0.7013 H   0  0  0  0  0  0  0  0  0  0  0  0
    2.5435   -2.7769    0.8329 H   0  0  0  0  0  0  0  0  0  0  0  0
    1.8835   -0.5571    1.6504 H   0  0  0  0  0  0  0  0  0  0  0  0
    0.7497    0.4441    0.7731 H   0  0  0  0  0  0  0  0  0  0  0  0
   -0.8015    0.4571   -0.5312 H   0  0  0  0  0  0  0  0  0  0  0  0
   -1.7352   -0.8266   -1.2918 H   0  0  0  0  0  0  0  0  0  0  0  0
    3.0758   -1.7239   -1.9931 H   0  0  0  0  0  0  0  0  0  0  0  0
    4.1997   -2.5817   -0.9175 H   0  0  0  0  0  0  0  0  0  0  0  0
    3.0235    1.2306    0.4758 H   0  0  0  0  0  0  0  0  0  0  0  0
    2.3239    0.7657   -1.0766 H   0  0  0  0  0  0  0  0  0  0  0  0
   -3.2400   -3.8970   -0.9503 H   0  0  0  0  0  0  0  0  0  0  0  0
   -2.6268   -5.3632   -0.1315 H   0  0  0  0  0  0  0  0  0  0  0  0
   -1.0180   -4.1131   -1.7428 H   0  0  0  0  0  0  0  0  0  0  0  0
   -2.6899    1.3524    0.4034 H   0  0  0  0  0  0  0  0  0  0  0  0
   -4.8053   -4.8952    0.3259 H   0  0  0  0  0  0  0  0  0  0  0  0
    5.2043    0.9457    1.2810 H   0  0  0  0  0  0  0  0  0  0  0  0
    5.2128   -0.9684   -2.5946 H   0  0  0  0  0  0  0  0  0  0  0  0
    7.4519   -0.0768   -3.0247 H   0  0  0  0  0  0  0  0  0  0  0  0
    8.5862    1.3307   -1.3535 H   0  0  0  0  0  0  0  0  0  0  0  0
   -4.3216    2.5728   -1.3155 H   0  0  0  0  0  0  0  0  0  0  0  0
   -8.1345    1.1163    1.5103 H   0  0  0  0  0  0  0  0  0  0  0  0
   -8.1069    3.3511    0.6288 H   0  0  0  0  0  0  0  0  0  0  0  0
   -8.2052    4.8559   -1.0098 H   0  0  0  0  0  0  0  0  0  0  0  0
   -7.3268    5.4312    0.4757 H   0  0  0  0  0  0  0  0  0  0  0  0
   -7.0789    6.2065   -1.0849 H   0  0  0  0  0  0  0  0  0  0  0  0
  1 33  1  0  0  0  0
  2 31  1  0  0  0  0
  3 31  1  0  0  0  0
  4 31  1  0  0  0  0
  5 14  1  0  0  0  0
  5 16  1  0  0  0  0
  6 15  1  0  0  0  0
  6 54  1  0  0  0  0
  7 22  1  0  0  0  0
  7 56  1  0  0  0  0
  8 24  2  0  0  0  0
  9 34  1  0  0  0  0
  9 37  1  0  0  0  0
 10 13  1  0  0  0  0
 10 17  1  0  0  0  0
 10 18  1  0  0  0  0
 11 20  1  0  0  0  0
 11 21  1  0  0  0  0
 11 23  1  0  0  0  0
 12 19  1  0  0  0  0
 12 24  1  0  0  0  0
 12 55  1  0  0  0  0
 13 14  1  0  0  0  0
 13 15  1  0  0  0  0
 13 38  1  0  0  0  0
 14 19  1  0  0  0  0
 14 39  1  0  0  0  0
 15 16  1  0  0  0  0
 15 40  1  0  0  0  0
 16 22  1  0  0  0  0
 16 41  1  0  0  0  0
 17 20  1  0  0  0  0
 17 42  1  0  0  0  0
 17 43  1  0  0  0  0
 18 21  1  0  0  0  0
 18 44  1  0  0  0  0
 18 45  1  0  0  0  0
 19 46  1  0  0  0  0
 19 47  1  0  0  0  0
 20 48  1  0  0  0  0
 20 49  1  0  0  0  0
 21 50  1  0  0  0  0
 21 51  1  0  0  0  0
 22 52  1  0  0  0  0
 22 53  1  0  0  0  0
 23 25  1  0  0  0  0
 23 26  2  0  0  0  0
 24 29  1  0  0  0  0
 25 27  2  0  0  0  0
 25 57  1  0  0  0  0
 26 28  1  0  0  0  0
 26 58  1  0  0  0  0
 27 30  1  0  0  0  0
 27 31  1  0  0  0  0
 28 30  2  0  0  0  0
 28 59  1  0  0  0  0
 29 32  1  0  0  0  0
 29 33  2  0  0  0  0
 30 60  1  0  0  0  0
 32 34  2  0  0  0  0
 32 61  1  0  0  0  0
 33 35  1  0  0  0  0
 34 36  1  0  0  0  0
 35 36  2  0  0  0  0
 35 62  1  0  0  0  0
 36 63  1  0  0  0  0
 37 64  1  0  0  0  0
 37 65  1  0  0  0  0
 37 66  1  0  0  0  0
M  END
> <PUBCHEM_COMPOUND_CID>
51136977

> <PUBCHEM_CONFORMER_RMSD>
1.2

> <PUBCHEM_CONFORMER_DIVERSEORDER>
1
57
43
63
46
72
64
50
6
69
81
42
78
54
55
60
76
21
56
74
33
87
45
19
83
34
85
39
15
36
48
10
86
62
59
67
18
53
49
84
79
80
29
68
70
75
40
11
22
27
20
61
12
24
51
9
13
41
26
47
82
16
52
37
5
71
25
44
38
32
3
35
58
17
30
65
31
8
77
23
28
73
4
7
66
14
2

> <PUBCHEM_MMFF94_PARTIAL_CHARGES>
47
1 -0.18
10 -0.81
11 -0.84
12 -0.73
13 0.27
14 0.28
15 0.28
16 0.28
17 0.27
18 0.27
19 0.3
2 -0.34
20 0.37
21 0.37
22 0.28
23 0.1
24 0.54
25 -0.15
26 -0.15
27 -0.14
28 -0.15
29 0.09
3 -0.34
30 -0.15
31 1.16
32 -0.15
33 0.18
34 0.08
35 -0.15
36 -0.15
37 0.28
4 -0.34
5 -0.56
54 0.4
55 0.37
56 0.4
57 0.15
58 0.15
59 0.15
6 -0.68
60 0.15
61 0.15
62 0.15
63 0.15
7 -0.68
8 -0.57
9 -0.36

> <PUBCHEM_EFFECTIVE_ROTOR_COUNT>
11.2

> <PUBCHEM_PHARMACOPHORE_FEATURES>
14
1 10 cation
1 11 cation
1 12 donor
1 5 acceptor
1 6 acceptor
1 6 donor
1 7 acceptor
1 7 donor
1 8 acceptor
1 9 acceptor
5 5 13 14 15 16 rings
6 10 11 17 18 20 21 rings
6 23 25 26 27 28 30 rings
6 29 32 33 34 35 36 rings

> <PUBCHEM_HEAVY_ATOM_COUNT>
37

> <PUBCHEM_ATOM_DEF_STEREO_COUNT>
4

> <PUBCHEM_ATOM_UDEF_STEREO_COUNT>
0

> <PUBCHEM_BOND_DEF_STEREO_COUNT>
0

> <PUBCHEM_BOND_UDEF_STEREO_COUNT>
0

> <PUBCHEM_ISOTOPIC_ATOM_COUNT>
0

> <PUBCHEM_COMPONENT_COUNT>
1

> <PUBCHEM_CACTVS_TAUTO_COUNT>
2

> <PUBCHEM_CONFORMER_ID>
030C49D100000001

> <PUBCHEM_MMFF94_ENERGY>
115.4064

> <PUBCHEM_FEATURE_SELFOVERLAP>
71.057

> <PUBCHEM_SHAPE_FINGERPRINT>
10280341 67 18336817607142525733
10369192 42 18410295788036641263
10835480 77 18059581325819718226
10864689 126 18413394220515071524
11007060 377 18411143554309203339
11135609 127 17975968766617613341
11135609 187 18341050727045827641
11135609 201 18335698296595476239
11411753 3 18268730418960943774
11475781 23 18272371980091207564
11621639 254 18341607175194268663
12013929 29 17622727519106451737
12133447 93 18264785284655115220
12342043 65 7925626679291189854
12522641 68 18342737386890223591
12539747 72 18260828210999189658
12888983 3 18200868599622072776
12988421 55 17531238448932383991
14294032 229 18040719160141291660
14395042 24 17896053182288477059
15183329 4 16845576370499766407
15320295 198 18130228289431990368
15328684 2 17677594497644984232
15400415 2 18117846504354625967
15439362 3 18193839245565284575
15803439 3 17203320083905538647
16126227 98 18409171004620847865
16991971 28 9439393636268037729
16994733 274 18187367580338055505
19304671 126 17986115098035515613
20691028 202 18335423417913566437
21033648 29 18335141977127626211
21223535 225 18342450443786862733
21424621 283 18336549322146628085
21756936 100 18410291428634682143
23522609 53 17241624964946885542
23569914 152 17483410625358898830
23569914 2 17414678190595641072
24771293 8 18334013886824659405
3918712 181 18339918199768012489
393628 179 18409161113285480085
44249763 50 18342455989000909758
44880568 143 18339648961970045500
5937810 71 17988649532741940177
6289498 60 18408605881446501168
636775 72 18411416258409151592
636775 8 8790611433839286520
6698420 124 18200610111367878259
9689198 14 18343869896060098701
9896288 288 18115313409083731451

> <PUBCHEM_SHAPE_MULTIPOLES>
697.2
26.91
5.69
1.38
23.59
0.01
0.01
35.7
2.4
-10.69
0.13
2.35
0.35
4.16

> <PUBCHEM_SHAPE_SELFOVERLAP>
1481.281

> <PUBCHEM_SHAPE_VOLUME>
390.4

> <PUBCHEM_COORDINATE_TYPE>
2
5
10

$$$$
