7114646
  -OEChem-12032416153D

 65 66  0     1  0  0  0  0  0999 V2000
    2.5419   -0.2666    1.4689 O   0  0  0  0  0  0  0  0  0  0  0  0
   -0.8150    2.7156    0.8810 O   0  0  0  0  0  0  0  0  0  0  0  0
    1.7673    3.8583    0.5154 O   0  0  0  0  0  0  0  0  0  0  0  0
    3.4169   -1.3107   -1.4996 O   0  0  0  0  0  0  0  0  0  0  0  0
   -2.6486    0.4371    1.2613 O   0  0  0  0  0  0  0  0  0  0  0  0
    6.4003    1.3027   -1.7061 O   0  0  0  0  0  0  0  0  0  0  0  0
   -9.8099   -1.0664   -0.7850 O   0  0  0  0  0  0  0  0  0  0  0  0
   -1.2538    0.2307   -0.5702 N   0  0  0  0  0  0  0  0  0  0  0  0
    4.8454   -0.2142   -0.0245 N   0  0  0  0  0  0  0  0  0  0  0  0
   -3.4961   -0.1582   -0.8455 N   0  0  0  0  0  0  0  0  0  0  0  0
    7.2530   -0.6295   -2.6084 N   0  0  0  0  0  0  0  0  0  0  0  0
    2.4860    0.1791    0.1189 C   0  0  1  0  0  0  0  0  0  0  0  0
   -0.0258    0.5641    0.1180 C   0  0  1  0  0  0  0  0  0  0  0  0
    1.1447   -0.1966   -0.5140 C   0  0  0  0  0  0  0  0  0  0  0  0
    2.7130    1.6890    0.0816 C   0  0  0  0  0  0  0  0  0  0  0  0
    0.2056    2.0809    0.1055 C   0  0  2  0  0  0  0  0  0  0  0  0
    1.5560    2.4608    0.7181 C   0  0  2  0  0  0  0  0  0  0  0  0
    3.6137   -0.5306   -0.5716 C   0  0  0  0  0  0  0  0  0  0  0  0
    6.0885   -0.7818   -0.4944 C   0  0  2  0  0  0  0  0  0  0  0  0
    7.1557   -0.8361    0.6058 C   0  0  0  0  0  0  0  0  0  0  0  0
   -2.4969    0.1920    0.0669 C   0  0  0  0  0  0  0  0  0  0  0  0
    6.7496   -1.6332    1.8622 C   0  0  0  0  0  0  0  0  0  0  0  0
    6.5664    0.0866   -1.6505 C   0  0  0  0  0  0  0  0  0  0  0  0
    5.4649   -1.1022    2.4993 C   0  0  0  0  0  0  0  0  0  0  0  0
    6.5733   -3.1110    1.5017 C   0  0  0  0  0  0  0  0  0  0  0  0
   -4.8814   -0.3058   -0.6013 C   0  0  0  0  0  0  0  0  0  0  0  0
   -5.3723   -0.0902    0.6761 C   0  0  0  0  0  0  0  0  0  0  0  0
   -5.7192   -0.6630   -1.6452 C   0  0  0  0  0  0  0  0  0  0  0  0
   -6.7386   -0.2362    0.9164 C   0  0  0  0  0  0  0  0  0  0  0  0
   -7.0855   -0.8088   -1.4049 C   0  0  0  0  0  0  0  0  0  0  0  0
   -7.5951   -0.5954   -0.1242 C   0  0  0  0  0  0  0  0  0  0  0  0
   -9.0198   -0.7465    0.1256 C   0  0  0  0  0  0  0  0  0  0  0  0
   -9.5843   -0.5139    1.5229 C   0  0  0  0  0  0  0  0  0  0  0  0
   -0.1418    0.2370    1.1599 H   0  0  0  0  0  0  0  0  0  0  0  0
    1.1684    0.0042   -1.5944 H   0  0  0  0  0  0  0  0  0  0  0  0
    0.9617   -1.2739   -0.4005 H   0  0  0  0  0  0  0  0  0  0  0  0
    3.6218    2.0031    0.6081 H   0  0  0  0  0  0  0  0  0  0  0  0
    2.8493    2.0262   -0.9555 H   0  0  0  0  0  0  0  0  0  0  0  0
    0.1222    2.4729   -0.9164 H   0  0  0  0  0  0  0  0  0  0  0  0
    1.5456    2.2929    1.8022 H   0  0  0  0  0  0  0  0  0  0  0  0
   -1.2227    0.0933   -1.5760 H   0  0  0  0  0  0  0  0  0  0  0  0
    3.2095    0.2555    1.9435 H   0  0  0  0  0  0  0  0  0  0  0  0
   -0.7557    3.6722    0.7199 H   0  0  0  0  0  0  0  0  0  0  0  0
    4.9159    0.5381    0.6492 H   0  0  0  0  0  0  0  0  0  0  0  0
    1.1202    4.3370    1.0601 H   0  0  0  0  0  0  0  0  0  0  0  0
    5.8821   -1.7871   -0.8788 H   0  0  0  0  0  0  0  0  0  0  0  0
    8.0840   -1.2539    0.1946 H   0  0  0  0  0  0  0  0  0  0  0  0
    7.4039    0.1883    0.9170 H   0  0  0  0  0  0  0  0  0  0  0  0
    7.5651   -1.5456    2.5908 H   0  0  0  0  0  0  0  0  0  0  0  0
   -3.1989   -0.3308   -1.8026 H   0  0  0  0  0  0  0  0  0  0  0  0
    5.4494   -0.0111    2.5643 H   0  0  0  0  0  0  0  0  0  0  0  0
    4.5709   -1.5033    2.0224 H   0  0  0  0  0  0  0  0  0  0  0  0
    5.4156   -1.4647    3.5345 H   0  0  0  0  0  0  0  0  0  0  0  0
    6.4002   -3.7027    2.4074 H   0  0  0  0  0  0  0  0  0  0  0  0
    7.4725   -3.5054    1.0166 H   0  0  0  0  0  0  0  0  0  0  0  0
    5.7223   -3.2795    0.8343 H   0  0  0  0  0  0  0  0  0  0  0  0
    7.4027   -1.6309   -2.5383 H   0  0  0  0  0  0  0  0  0  0  0  0
    7.6378   -0.1685   -3.4264 H   0  0  0  0  0  0  0  0  0  0  0  0
   -4.7752    0.1898    1.5311 H   0  0  0  0  0  0  0  0  0  0  0  0
   -5.3323   -0.8315   -2.6464 H   0  0  0  0  0  0  0  0  0  0  0  0
   -7.0945   -0.0607    1.9270 H   0  0  0  0  0  0  0  0  0  0  0  0
   -7.7326   -1.0892   -2.2319 H   0  0  0  0  0  0  0  0  0  0  0  0
   -9.4034    0.5173    1.8370 H   0  0  0  0  0  0  0  0  0  0  0  0
   -9.1496   -1.2254    2.2296 H   0  0  0  0  0  0  0  0  0  0  0  0
  -10.6667   -0.6760    1.5030 H   0  0  0  0  0  0  0  0  0  0  0  0
  1 12  1  0  0  0  0
  1 42  1  0  0  0  0
  2 16  1  0  0  0  0
  2 43  1  0  0  0  0
  3 17  1  0  0  0  0
  3 45  1  0  0  0  0
  4 18  2  0  0  0  0
  5 21  2  0  0  0  0
  6 23  2  0  0  0  0
  7 32  2  0  0  0  0
  8 13  1  0  0  0  0
  8 21  1  0  0  0  0
  8 41  1  0  0  0  0
  9 18  1  0  0  0  0
  9 19  1  0  0  0  0
  9 44  1  0  0  0  0
 10 21  1  0  0  0  0
 10 26  1  0  0  0  0
 10 50  1  0  0  0  0
 11 23  1  0  0  0  0
 11 57  1  0  0  0  0
 11 58  1  0  0  0  0
 12 14  1  0  0  0  0
 12 15  1  0  0  0  0
 12 18  1  0  0  0  0
 13 14  1  0  0  0  0
 13 16  1  0  0  0  0
 13 34  1  0  0  0  0
 14 35  1  0  0  0  0
 14 36  1  0  0  0  0
 15 17  1  0  0  0  0
 15 37  1  0  0  0  0
 15 38  1  0  0  0  0
 16 17  1  0  0  0  0
 16 39  1  0  0  0  0
 17 40  1  0  0  0  0
 19 20  1  0  0  0  0
 19 23  1  0  0  0  0
 19 46  1  0  0  0  0
 20 22  1  0  0  0  0
 20 47  1  0  0  0  0
 20 48  1  0  0  0  0
 22 24  1  0  0  0  0
 22 25  1  0  0  0  0
 22 49  1  0  0  0  0
 24 51  1  0  0  0  0
 24 52  1  0  0  0  0
 24 53  1  0  0  0  0
 25 54  1  0  0  0  0
 25 55  1  0  0  0  0
 25 56  1  0  0  0  0
 26 27  2  0  0  0  0
 26 28  1  0  0  0  0
 27 29  1  0  0  0  0
 27 59  1  0  0  0  0
 28 30  2  0  0  0  0
 28 60  1  0  0  0  0
 29 31  2  0  0  0  0
 29 61  1  0  0  0  0
 30 31  1  0  0  0  0
 30 62  1  0  0  0  0
 31 32  1  0  0  0  0
 32 33  1  0  0  0  0
 33 63  1  0  0  0  0
 33 64  1  0  0  0  0
 33 65  1  0  0  0  0
M  END
> <PUBCHEM_COMPOUND_CID>
7114646

> <PUBCHEM_CONFORMER_RMSD>
1.2

> <PUBCHEM_CONFORMER_DIVERSEORDER>
2
62
66
63
51
82
39
37
4
80
20
45
59
19
34
33
49
14
67
73
35
58
77
75
55
40
42
65
1
8
43
31
11
79
47
26
41
54
17
38
18
60
13
52
7
22
78
56
72
57
74
50
48
6
85
44
64
15
25
21
5
9
3
46
27
76
28
53
30
83
12
81
84
69
32
61
71
10
68
16
29
36
23
24
70

> <PUBCHEM_MMFF94_PARTIAL_CHARGES>
39
1 -0.68
10 -0.55
11 -0.8
12 0.34
13 0.3
16 0.28
17 0.28
18 0.57
19 0.36
2 -0.68
21 0.69
23 0.57
26 0.12
27 -0.15
28 -0.15
29 -0.15
3 -0.68
30 -0.15
31 0.09
32 0.42
33 0.06
4 -0.57
41 0.37
42 0.4
43 0.4
44 0.37
45 0.4
5 -0.57
50 0.37
57 0.37
58 0.37
59 0.15
6 -0.57
60 0.15
61 0.15
62 0.15
7 -0.57
8 -0.73
9 -0.73

> <PUBCHEM_EFFECTIVE_ROTOR_COUNT>
12.2

> <PUBCHEM_PHARMACOPHORE_FEATURES>
17
1 1 acceptor
1 1 donor
1 10 donor
1 11 donor
1 2 acceptor
1 2 donor
1 3 acceptor
1 3 donor
1 4 acceptor
1 5 acceptor
1 6 acceptor
1 7 acceptor
1 8 donor
1 9 donor
3 22 24 25 hydrophobe
6 12 13 14 15 16 17 rings
6 26 27 28 29 30 31 rings

> <PUBCHEM_HEAVY_ATOM_COUNT>
33

> <PUBCHEM_ATOM_DEF_STEREO_COUNT>
5

> <PUBCHEM_ATOM_UDEF_STEREO_COUNT>
0

> <PUBCHEM_BOND_DEF_STEREO_COUNT>
0

> <PUBCHEM_BOND_UDEF_STEREO_COUNT>
0

> <PUBCHEM_ISOTOPIC_ATOM_COUNT>
0

> <PUBCHEM_COMPONENT_COUNT>
1

> <PUBCHEM_CACTVS_TAUTO_COUNT>
64

> <PUBCHEM_CONFORMER_ID>
006C8F9600000002

> <PUBCHEM_MMFF94_ENERGY>
91.2649

> <PUBCHEM_FEATURE_SELFOVERLAP>
86.348

> <PUBCHEM_SHAPE_FINGERPRINT>
10 15 12751517392677953259
10533779 47 15698010643199337759
11135609 127 16371301042517362542
11297750 10 18336250289292137092
11315181 36 15430035466776452429
11456790 92 17988936591797517489
12082328 90 17240759563333435863
12089408 11 17821447950783151095
12133447 93 17703244909656851981
12592606 108 18060421348471909495
12758862 56 18060418049947738051
13673619 4 18335417967869378965
13782708 43 18113891658827423894
14068700 675 18202566167822744776
150020 25 15791735200193430739
15183329 4 18412547617466957487
15301273 46 16774079552945517149
15840311 113 16056880243114157234
17134984 74 16805599240511632506
1754911 235 13767922430422864327
19301679 30 18198905812410023078
20105231 36 17458347464610553315
2026 5 17750223716906918691
20554085 129 12540694872942701740
20771845 140 18201708523790650170
21150785 3 15574714716627311021
21267235 1 18202570579212657965
21781055 127 16270829821786625281
21792934 111 16200432464441870953
22149856 69 17418099780465009664
22956985 138 17837210377776410278
23522609 53 18192740910785363052
23559900 14 17676770980510555917
24893992 56 11386373664384808397
249057 3 18201156637529740215
3178227 256 18411136943969535907
397830 11 16056871429899489768
4098825 35 16805877390703282701
4149490 64 18200310069711757323
439807 62 18040715861611747211
5219985 9 18413669110616340377
5470011 282 17312824887521251079
59682541 52 15213296379670123146
636775 72 13182753520606201507
9962374 69 18272079552868900863

> <PUBCHEM_SHAPE_MULTIPOLES>
618.12
30.06
2.29
1.86
46.67
1.25
0.31
-18.24
2.69
-4.48
-1.32
-2.28
-0.37
-2.07

> <PUBCHEM_SHAPE_SELFOVERLAP>
1283.669

> <PUBCHEM_SHAPE_VOLUME>
348.9

> <PUBCHEM_COORDINATE_TYPE>
2
5
10

$$$$
