26742949
  -OEChem-12032416193D

 51 53  0     1  0  0  0  0  0999 V2000
    6.4198   -1.2844    1.7124 S   0  0  0  0  0  0  0  0  0  0  0  0
   -4.1457   -1.5560   -1.1706 O   0  0  0  0  0  0  0  0  0  0  0  0
    3.5626    0.5061   -1.5400 O   0  0  0  0  0  0  0  0  0  0  0  0
   -0.7023    3.0372    0.6511 N   0  0  0  0  0  0  0  0  0  0  0  0
   -2.7859   -1.3674   -1.3857 N   0  0  0  0  0  0  0  0  0  0  0  0
    4.2300   -0.3196    0.5554 N   0  0  0  0  0  0  0  0  0  0  0  0
    6.2974   -0.5013   -0.7482 N   0  0  0  0  0  0  0  0  0  0  0  0
    0.9530    1.0063   -0.7060 C   0  0  1  0  0  0  0  0  0  0  0  0
   -0.5213    0.7545   -0.3094 C   0  0  2  0  0  0  0  0  0  0  0  0
    1.1790    2.5193   -0.8636 C   0  0  0  0  0  0  0  0  0  0  0  0
   -0.9402    1.6142    0.8951 C   0  0  0  0  0  0  0  0  0  0  0  0
   -0.8283   -0.7208   -0.0492 C   0  0  0  0  0  0  0  0  0  0  0  0
    0.7022    3.3102    0.3538 C   0  0  0  0  0  0  0  0  0  0  0  0
    1.9726    0.4008    0.2661 C   0  0  0  0  0  0  0  0  0  0  0  0
   -2.2943   -1.0087   -0.1963 C   0  0  0  0  0  0  0  0  0  0  0  0
    3.3374    0.2127   -0.3705 C   0  0  0  0  0  0  0  0  0  0  0  0
   -3.2872   -0.9545    0.7972 C   0  0  0  0  0  0  0  0  0  0  0  0
   -4.4321   -1.3071    0.1328 C   0  0  0  0  0  0  0  0  0  0  0  0
   -5.8351   -1.4602    0.5363 C   0  0  0  0  0  0  0  0  0  0  0  0
   -6.7226   -0.2717    0.1031 C   0  0  0  0  0  0  0  0  0  0  0  0
    5.5936   -0.6399    0.3534 C   0  0  0  0  0  0  0  0  0  0  0  0
   -8.1712   -0.4203    0.5677 C   0  0  0  0  0  0  0  0  0  0  0  0
   -9.0123    0.7801    0.1633 C   0  0  0  0  0  0  0  0  0  0  0  0
    7.8438   -1.3951    0.7631 C   0  0  0  0  0  0  0  0  0  0  0  0
    7.5874   -0.9344   -0.5112 C   0  0  0  0  0  0  0  0  0  0  0  0
    1.0977    0.5441   -1.6924 H   0  0  0  0  0  0  0  0  0  0  0  0
   -1.1279    1.0843   -1.1677 H   0  0  0  0  0  0  0  0  0  0  0  0
    0.6289    2.8667   -1.7487 H   0  0  0  0  0  0  0  0  0  0  0  0
    2.2341    2.7450   -1.0534 H   0  0  0  0  0  0  0  0  0  0  0  0
   -2.0096    1.4987    1.0939 H   0  0  0  0  0  0  0  0  0  0  0  0
   -0.4122    1.2981    1.8034 H   0  0  0  0  0  0  0  0  0  0  0  0
   -0.5062   -1.0240    0.9545 H   0  0  0  0  0  0  0  0  0  0  0  0
   -0.2807   -1.3515   -0.7619 H   0  0  0  0  0  0  0  0  0  0  0  0
    1.3242    3.1021    1.2311 H   0  0  0  0  0  0  0  0  0  0  0  0
    0.8106    4.3800    0.1427 H   0  0  0  0  0  0  0  0  0  0  0  0
    1.6594   -0.5991    0.5847 H   0  0  0  0  0  0  0  0  0  0  0  0
    2.0826    1.0040    1.1731 H   0  0  0  0  0  0  0  0  0  0  0  0
   -0.9833    3.5720    1.4724 H   0  0  0  0  0  0  0  0  0  0  0  0
   -3.1881   -0.7004    1.8422 H   0  0  0  0  0  0  0  0  0  0  0  0
    3.8976   -0.5135    1.4970 H   0  0  0  0  0  0  0  0  0  0  0  0
   -6.2397   -2.3867    0.1105 H   0  0  0  0  0  0  0  0  0  0  0  0
   -5.8911   -1.5695    1.6265 H   0  0  0  0  0  0  0  0  0  0  0  0
   -6.6956   -0.1762   -0.9901 H   0  0  0  0  0  0  0  0  0  0  0  0
   -6.3026    0.6579    0.5087 H   0  0  0  0  0  0  0  0  0  0  0  0
   -8.6068   -1.3297    0.1379 H   0  0  0  0  0  0  0  0  0  0  0  0
   -8.2020   -0.5296    1.6579 H   0  0  0  0  0  0  0  0  0  0  0  0
   -8.6202    1.7012    0.6062 H   0  0  0  0  0  0  0  0  0  0  0  0
  -10.0443    0.6518    0.5043 H   0  0  0  0  0  0  0  0  0  0  0  0
   -9.0263    0.9004   -0.9247 H   0  0  0  0  0  0  0  0  0  0  0  0
    8.7695   -1.7779    1.1683 H   0  0  0  0  0  0  0  0  0  0  0  0
    8.3127   -0.8932   -1.3124 H   0  0  0  0  0  0  0  0  0  0  0  0
  1 21  1  0  0  0  0
  1 24  1  0  0  0  0
  2  5  1  0  0  0  0
  2 18  1  0  0  0  0
  3 16  2  0  0  0  0
  4 11  1  0  0  0  0
  4 13  1  0  0  0  0
  4 38  1  0  0  0  0
  5 15  2  0  0  0  0
  6 16  1  0  0  0  0
  6 21  1  0  0  0  0
  6 40  1  0  0  0  0
  7 21  2  0  0  0  0
  7 25  1  0  0  0  0
  8  9  1  0  0  0  0
  8 10  1  0  0  0  0
  8 14  1  0  0  0  0
  8 26  1  0  0  0  0
  9 11  1  0  0  0  0
  9 12  1  0  0  0  0
  9 27  1  0  0  0  0
 10 13  1  0  0  0  0
 10 28  1  0  0  0  0
 10 29  1  0  0  0  0
 11 30  1  0  0  0  0
 11 31  1  0  0  0  0
 12 15  1  0  0  0  0
 12 32  1  0  0  0  0
 12 33  1  0  0  0  0
 13 34  1  0  0  0  0
 13 35  1  0  0  0  0
 14 16  1  0  0  0  0
 14 36  1  0  0  0  0
 14 37  1  0  0  0  0
 15 17  1  0  0  0  0
 17 18  2  0  0  0  0
 17 39  1  0  0  0  0
 18 19  1  0  0  0  0
 19 20  1  0  0  0  0
 19 41  1  0  0  0  0
 19 42  1  0  0  0  0
 20 22  1  0  0  0  0
 20 43  1  0  0  0  0
 20 44  1  0  0  0  0
 22 23  1  0  0  0  0
 22 45  1  0  0  0  0
 22 46  1  0  0  0  0
 23 47  1  0  0  0  0
 23 48  1  0  0  0  0
 23 49  1  0  0  0  0
 24 25  2  0  0  0  0
 24 50  1  0  0  0  0
 25 51  1  0  0  0  0
M  END
> <PUBCHEM_COMPOUND_CID>
26742949

> <PUBCHEM_CONFORMER_RMSD>
1.4

> <PUBCHEM_CONFORMER_DIVERSEORDER>
1
9
11
21
36
49
27
51
30
43
19
6
32
55
35
56
33
59
13
29
48
16
34
10
40
5
52
54
7
45
24
57
20
14
28
8
25
47
15
62
53
23
61
4
22
44
63
58
26
3
31
18
42
37
41
60
38
2
12
39
50
17
46

> <PUBCHEM_MMFF94_PARTIAL_CHARGES>
24
1 -0.08
11 0.27
12 0.18
13 0.27
14 0.06
15 0.11
16 0.57
17 -0.15
18 -0.04
19 0.18
2 -0.02
21 0.44
24 -0.11
25 0.08
3 -0.57
38 0.36
39 0.15
4 -0.9
40 0.37
5 -0.41
50 0.15
51 0.15
6 -0.49
7 -0.57

> <PUBCHEM_EFFECTIVE_ROTOR_COUNT>
10.2

> <PUBCHEM_PHARMACOPHORE_FEATURES>
9
1 23 hydrophobe
1 3 acceptor
1 4 cation
1 4 donor
1 5 acceptor
1 6 donor
5 1 7 21 24 25 rings
5 2 5 15 17 18 rings
6 4 8 9 10 11 13 rings

> <PUBCHEM_HEAVY_ATOM_COUNT>
25

> <PUBCHEM_ATOM_DEF_STEREO_COUNT>
2

> <PUBCHEM_ATOM_UDEF_STEREO_COUNT>
0

> <PUBCHEM_BOND_DEF_STEREO_COUNT>
0

> <PUBCHEM_BOND_UDEF_STEREO_COUNT>
0

> <PUBCHEM_ISOTOPIC_ATOM_COUNT>
0

> <PUBCHEM_COMPONENT_COUNT>
1

> <PUBCHEM_CACTVS_TAUTO_COUNT>
3

> <PUBCHEM_CONFORMER_ID>
019810A500000001

> <PUBCHEM_MMFF94_ENERGY>
23.9033

> <PUBCHEM_FEATURE_SELFOVERLAP>
45.671

> <PUBCHEM_SHAPE_FINGERPRINT>
10 15 14333407861625539530
10299344 5 17385724694802887691
10429389 143 13470412137367098955
10674148 151 16298383565545486205
10753850 27 18113613487302919642
11265709 11 18411417328214308076
11456790 92 18341344349092158105
12166972 35 17822010934843123044
12592606 108 18336263526913469771
12760667 363 18408319990957910138
13673619 4 17676482865287182621
14117953 113 18202007620215576583
14123256 10 8574712399565306987
14216079 64 18412546483743550638
14251752 14 18040992921341011293
14347424 109 18131347548896991064
14675019 173 17894632565599089069
15183329 4 14996274804575830066
15849732 13 17917992785162655631
16087824 20 18339361839433756241
18006028 8 18412544314510298324
18335252 98 11097855181816409273
19301679 30 18338234835102841306
19841028 212 17531522084599503058
20105231 36 13912325686054681665
20832881 197 18335703883725644329
21095086 128 16515687762910724123
21150785 3 8214141858876497059
21267235 1 18334859415840538326
21304303 172 18272379628637574169
21344244 181 13840259265026024281
21792934 111 18343014497594364752
21792961 116 18114734945723351223
22224240 67 12463571776862783437
23198884 109 13479127978540245542
23559900 14 17969502795593891184
24893992 56 18410014373754273739
25147074 1 18336565866725441940
2838139 119 18341894113733493045
28498 318 18333449829001647279
3004659 81 17894629279747925642
335352 9 18411419531875201727
3472631 163 9583511045590715010
4098825 35 16949998110559807438
4258327 124 10807639143151375490
5104073 3 17843693402996055659
5207 217 8790886281011214639
5219985 9 18407757045373328724
5283156 175 18187647990320670614
5758199 1 7997975686965100431
59682541 35 9943518618739922709
9663363 56 18410570695728839394

> <PUBCHEM_SHAPE_MULTIPOLES>
486.68
23.99
2.49
1.16
9.2
2.56
0.02
-13.71
-4.03
-0.12
-0.34
-0.91
-0.14
-1.2

> <PUBCHEM_SHAPE_SELFOVERLAP>
990.206

> <PUBCHEM_SHAPE_VOLUME>
284

> <PUBCHEM_COORDINATE_TYPE>
2
5
10

$$$$
