38030349
  -OEChem-12032416373D

 68 70  0     1  0  0  0  0  0999 V2000
   -1.4170    1.9151   -0.6061 O   0  0  0  0  0  0  0  0  0  0  0  0
    2.0042   -2.6003    0.6850 N   0  0  2  0  0  0  0  0  0  0  0  0
   -0.3949    2.0915    1.3760 N   0  0  0  0  0  0  0  0  0  0  0  0
   -1.5497   -3.3872   -0.1917 N   0  0  0  0  0  0  0  0  0  0  0  0
   -1.6349    1.5169    1.5844 N   0  0  0  0  0  0  0  0  0  0  0  0
    3.0082   -0.2849   -0.7560 C   0  0  1  0  0  0  0  0  0  0  0  0
    3.0754   -0.4122    0.7838 C   0  0  1  0  0  0  0  0  0  0  0  0
    1.9196    0.7168   -1.1660 C   0  0  0  0  0  0  0  0  0  0  0  0
    2.1103    2.1162   -0.5430 C   0  0  2  0  0  0  0  0  0  0  0  0
    4.3708    0.1044   -1.3451 C   0  0  0  0  0  0  0  0  0  0  0  0
    2.5861    2.0655    0.9010 C   0  0  0  0  0  0  0  0  0  0  0  0
    3.0024    0.9235    1.4788 C   0  0  0  0  0  0  0  0  0  0  0  0
    1.9687   -1.3229    1.3252 C   0  0  0  0  0  0  0  0  0  0  0  0
    0.8089    2.9099   -0.7145 C   0  0  0  0  0  0  0  0  0  0  0  0
    5.3181   -1.0912   -1.3305 C   0  0  0  0  0  0  0  0  0  0  0  0
    4.2031    0.6443   -2.7617 C   0  0  0  0  0  0  0  0  0  0  0  0
    2.6354    3.3618    1.6622 C   0  0  0  0  0  0  0  0  0  0  0  0
    0.7012   -3.2856    0.7648 C   0  0  0  0  0  0  0  0  0  0  0  0
   -0.3109    2.3065    0.0839 C   0  0  0  0  0  0  0  0  0  0  0  0
    3.0440   -3.4705    1.2638 C   0  0  0  0  0  0  0  0  0  0  0  0
   -0.2660   -2.6974   -0.2584 C   0  0  0  0  0  0  0  0  0  0  0  0
   -2.1960    1.4334    0.4007 C   0  0  0  0  0  0  0  0  0  0  0  0
   -2.3175   -3.1653   -1.4179 C   0  0  0  0  0  0  0  0  0  0  0  0
   -2.3140   -2.9412    0.9742 C   0  0  0  0  0  0  0  0  0  0  0  0
   -3.4784    0.9224    0.0122 C   0  0  0  0  0  0  0  0  0  0  0  0
   -4.3451    0.4074    0.9762 C   0  0  0  0  0  0  0  0  0  0  0  0
   -3.8593    0.9405   -1.3295 C   0  0  0  0  0  0  0  0  0  0  0  0
   -5.5925   -0.0896    0.5986 C   0  0  0  0  0  0  0  0  0  0  0  0
   -5.1067    0.4437   -1.7072 C   0  0  0  0  0  0  0  0  0  0  0  0
   -5.9733   -0.0715   -0.7431 C   0  0  0  0  0  0  0  0  0  0  0  0
    2.7322   -1.2434   -1.2130 H   0  0  0  0  0  0  0  0  0  0  0  0
    4.0407   -0.8398    1.0734 H   0  0  0  0  0  0  0  0  0  0  0  0
    0.9648    0.2881   -0.8381 H   0  0  0  0  0  0  0  0  0  0  0  0
    1.7966    0.7939   -2.2519 H   0  0  0  0  0  0  0  0  0  0  0  0
    2.8859    2.6519   -1.1034 H   0  0  0  0  0  0  0  0  0  0  0  0
    4.8355    0.8994   -0.7486 H   0  0  0  0  0  0  0  0  0  0  0  0
    3.3335    0.9392    2.5150 H   0  0  0  0  0  0  0  0  0  0  0  0
    1.0098   -0.8123    1.1782 H   0  0  0  0  0  0  0  0  0  0  0  0
    2.0593   -1.4213    2.4171 H   0  0  0  0  0  0  0  0  0  0  0  0
    0.5299    2.9390   -1.7754 H   0  0  0  0  0  0  0  0  0  0  0  0
    0.9389    3.9533   -0.4052 H   0  0  0  0  0  0  0  0  0  0  0  0
    6.2791   -0.8248   -1.7845 H   0  0  0  0  0  0  0  0  0  0  0  0
    5.5337   -1.4399   -0.3173 H   0  0  0  0  0  0  0  0  0  0  0  0
    4.9079   -1.9332   -1.8989 H   0  0  0  0  0  0  0  0  0  0  0  0
    3.7439    1.6342   -2.8040 H   0  0  0  0  0  0  0  0  0  0  0  0
    5.1863    0.7608   -3.2342 H   0  0  0  0  0  0  0  0  0  0  0  0
    3.6312   -0.0448   -3.3933 H   0  0  0  0  0  0  0  0  0  0  0  0
    3.1870    4.1139    1.0882 H   0  0  0  0  0  0  0  0  0  0  0  0
    3.1474    3.2524    2.6247 H   0  0  0  0  0  0  0  0  0  0  0  0
    1.6350    3.7490    1.8712 H   0  0  0  0  0  0  0  0  0  0  0  0
    0.3180   -3.2370    1.7908 H   0  0  0  0  0  0  0  0  0  0  0  0
    0.8249   -4.3506    0.5245 H   0  0  0  0  0  0  0  0  0  0  0  0
    3.0900   -4.4217    0.7211 H   0  0  0  0  0  0  0  0  0  0  0  0
    2.8557   -3.6862    2.3219 H   0  0  0  0  0  0  0  0  0  0  0  0
    4.0390   -3.0253    1.1725 H   0  0  0  0  0  0  0  0  0  0  0  0
    0.1818   -2.8447   -1.2512 H   0  0  0  0  0  0  0  0  0  0  0  0
   -0.4073   -1.6171   -0.1443 H   0  0  0  0  0  0  0  0  0  0  0  0
   -1.7770   -3.5540   -2.2882 H   0  0  0  0  0  0  0  0  0  0  0  0
   -2.5267   -2.1029   -1.5867 H   0  0  0  0  0  0  0  0  0  0  0  0
   -3.2714   -3.7030   -1.3790 H   0  0  0  0  0  0  0  0  0  0  0  0
   -1.8305   -3.2319    1.9114 H   0  0  0  0  0  0  0  0  0  0  0  0
   -3.3018   -3.4165    0.9895 H   0  0  0  0  0  0  0  0  0  0  0  0
   -2.4599   -1.8572    0.9833 H   0  0  0  0  0  0  0  0  0  0  0  0
   -4.0689    0.3823    2.0276 H   0  0  0  0  0  0  0  0  0  0  0  0
   -3.2115    1.3325   -2.1095 H   0  0  0  0  0  0  0  0  0  0  0  0
   -6.2671   -0.4914    1.3489 H   0  0  0  0  0  0  0  0  0  0  0  0
   -5.4035    0.4570   -2.7519 H   0  0  0  0  0  0  0  0  0  0  0  0
   -6.9444   -0.4588   -1.0373 H   0  0  0  0  0  0  0  0  0  0  0  0
  1 19  1  0  0  0  0
  1 22  1  0  0  0  0
  2 13  1  0  0  0  0
  2 18  1  0  0  0  0
  2 20  1  0  0  0  0
  3  5  1  0  0  0  0
  3 19  2  0  0  0  0
  4 21  1  0  0  0  0
  4 23  1  0  0  0  0
  4 24  1  0  0  0  0
  5 22  2  0  0  0  0
  6  7  1  0  0  0  0
  6  8  1  0  0  0  0
  6 10  1  0  0  0  0
  6 31  1  0  0  0  0
  7 12  1  0  0  0  0
  7 13  1  0  0  0  0
  7 32  1  0  0  0  0
  8  9  1  0  0  0  0
  8 33  1  0  0  0  0
  8 34  1  0  0  0  0
  9 11  1  0  0  0  0
  9 14  1  0  0  0  0
  9 35  1  0  0  0  0
 10 15  1  0  0  0  0
 10 16  1  0  0  0  0
 10 36  1  0  0  0  0
 11 12  2  0  0  0  0
 11 17  1  0  0  0  0
 12 37  1  0  0  0  0
 13 38  1  0  0  0  0
 13 39  1  0  0  0  0
 14 19  1  0  0  0  0
 14 40  1  0  0  0  0
 14 41  1  0  0  0  0
 15 42  1  0  0  0  0
 15 43  1  0  0  0  0
 15 44  1  0  0  0  0
 16 45  1  0  0  0  0
 16 46  1  0  0  0  0
 16 47  1  0  0  0  0
 17 48  1  0  0  0  0
 17 49  1  0  0  0  0
 17 50  1  0  0  0  0
 18 21  1  0  0  0  0
 18 51  1  0  0  0  0
 18 52  1  0  0  0  0
 20 53  1  0  0  0  0
 20 54  1  0  0  0  0
 20 55  1  0  0  0  0
 21 56  1  0  0  0  0
 21 57  1  0  0  0  0
 22 25  1  0  0  0  0
 23 58  1  0  0  0  0
 23 59  1  0  0  0  0
 23 60  1  0  0  0  0
 24 61  1  0  0  0  0
 24 62  1  0  0  0  0
 24 63  1  0  0  0  0
 25 26  2  0  0  0  0
 25 27  1  0  0  0  0
 26 28  1  0  0  0  0
 26 64  1  0  0  0  0
 27 29  2  0  0  0  0
 27 65  1  0  0  0  0
 28 30  2  0  0  0  0
 28 66  1  0  0  0  0
 29 30  1  0  0  0  0
 29 67  1  0  0  0  0
 30 68  1  0  0  0  0
M  END
> <PUBCHEM_COMPOUND_CID>
38030349

> <PUBCHEM_CONFORMER_RMSD>
1

> <PUBCHEM_CONFORMER_DIVERSEORDER>
6
124
80
223
130
24
65
16
94
193
56
100
136
129
126
147
159
77
197
110
144
101
195
187
226
54
74
217
19
61
49
46
93
209
156
139
82
88
167
27
211
11
158
157
127
131
8
43
186
145
76
161
9
97
21
62
15
87
175
128
154
184
36
26
67
164
35
205
196
32
78
71
106
173
165
7
181
85
199
25
55
41
20
137
180
14
103
153
22
10
114
192
220
59
143
109
207
171
160
31
17
140
120
48
92
141
111
213
202
174
134
118
152
42
190
99
198
208
38
151
50
29
146
45
201
123
177
117
170
96
116
89
216
194
206
18
133
182
72
178
203
13
179
102
90
73
212
189
135
39
166
169
30
12
63
75
44
58
162
104
105
112
188
108
221
168
69
200
33
191
219
121
47
142
40
79
132
86
155
60
70
148
122
218
215
138
66
52
34
107
1
64
222
91
51
176
113
53
185
84
95
5
149
150
57
225
224
28
172
4
214
183
2
98
119
83
125
23
210
115
163
68
204
3
37
81

> <PUBCHEM_MMFF94_PARTIAL_CHARGES>
31
1 -0.28
11 -0.28
12 -0.29
13 0.27
14 0.18
17 0.14
18 0.27
19 0.3
2 -0.81
20 0.27
21 0.27
22 0.43
23 0.27
24 0.27
25 0.05
26 -0.15
27 -0.15
28 -0.15
29 -0.15
3 -0.34
30 -0.15
37 0.15
4 -0.81
5 -0.34
64 0.15
65 0.15
66 0.15
67 0.15
68 0.15
7 0.14
9 0.14

> <PUBCHEM_EFFECTIVE_ROTOR_COUNT>
9.8

> <PUBCHEM_PHARMACOPHORE_FEATURES>
6
1 2 cation
1 4 cation
3 10 15 16 hydrophobe
5 1 3 5 19 22 rings
6 25 26 27 28 29 30 rings
6 6 7 8 9 11 12 rings

> <PUBCHEM_HEAVY_ATOM_COUNT>
30

> <PUBCHEM_ATOM_DEF_STEREO_COUNT>
3

> <PUBCHEM_ATOM_UDEF_STEREO_COUNT>
0

> <PUBCHEM_BOND_DEF_STEREO_COUNT>
0

> <PUBCHEM_BOND_UDEF_STEREO_COUNT>
0

> <PUBCHEM_ISOTOPIC_ATOM_COUNT>
0

> <PUBCHEM_COMPONENT_COUNT>
1

> <PUBCHEM_CACTVS_TAUTO_COUNT>
1

> <PUBCHEM_CONFORMER_ID>
02444C0D00000006

> <PUBCHEM_MMFF94_ENERGY>
63.7112

> <PUBCHEM_FEATURE_SELFOVERLAP>
30.447

> <PUBCHEM_SHAPE_FINGERPRINT>
10816530 23 16700315650021104205
1100329 8 18411978100344828490
11285246 1 16835486001936767454
11513181 2 17840312120671754359
11578080 2 15984243271216194738
12156800 1 12516681787672479787
12597179 24 18055909042735405072
12788726 201 18200597977821385921
13122387 1 18338509751463608771
13140716 1 18339073925218725200
14117953 113 17836354948727459351
14931854 50 18338804420210581734
15001296 14 18270388495342594891
15968369 153 18053944241453070195
16067690 210 16271943622754986467
16114785 44 16621202611082287112
17492 54 18260555489107714123
18336668 15 18045208350618100794
19319366 153 18259988158873862934
20764821 26 18265321979573214147
20775438 99 17914874646947373935
20775530 9 17831860148881715819
23559900 14 18199755902128017372
238 59 18261401009412840528
3052486 1 18262800795616572202
3298306 158 18261101972931917759
338550 245 18190737742458907119
404807 78 17460613630198657587
463206 1 18410568505221600491
6287921 2 17628642947307966463
6669772 16 18339919424624209248

> <PUBCHEM_SHAPE_MULTIPOLES>
591.59
10.75
4.54
1.92
9.86
3.1
-0.55
-0.2
-3.96
-1.5
1.37
-1.35
-0.32
-0.15

> <PUBCHEM_SHAPE_SELFOVERLAP>
1226.057

> <PUBCHEM_SHAPE_VOLUME>
339.7

> <PUBCHEM_COORDINATE_TYPE>
2
5
10

$$$$
