45783795
  -OEChem-12032416273D

 56 59  0     1  0  0  0  0  0999 V2000
    0.1632    2.4647    1.7947 O   0  0  0  0  0  0  0  0  0  0  0  0
    3.8484   -4.4929   -0.6745 O   0  0  0  0  0  0  0  0  0  0  0  0
    2.7173    1.5509   -0.6847 N   0  0  1  0  0  0  0  0  0  0  0  0
    3.5341   -2.4533    0.3927 N   0  0  0  0  0  0  0  0  0  0  0  0
   -0.2112    1.3837   -0.1309 N   0  0  0  0  0  0  0  0  0  0  0  0
   -1.1472    1.9761    1.8708 N   0  0  0  0  0  0  0  0  0  0  0  0
   -4.7721    0.0497    0.8898 N   0  0  0  0  0  0  0  0  0  0  0  0
   -6.0564   -1.2146   -0.6683 N   0  0  0  0  0  0  0  0  0  0  0  0
    3.3368    0.4050   -0.0233 C   0  0  0  0  0  0  0  0  0  0  0  0
    2.0619    2.4815    0.2558 C   0  0  1  0  0  0  0  0  0  0  0  0
    3.6892    2.3423   -1.4395 C   0  0  0  0  0  0  0  0  0  0  0  0
    2.1395    3.8553   -0.4355 C   0  0  0  0  0  0  0  0  0  0  0  0
    3.9854   -0.5165   -1.0643 C   0  0  0  0  0  0  0  0  0  0  0  0
    2.2882   -0.3623    0.7926 C   0  0  0  0  0  0  0  0  0  0  0  0
    2.9075    3.6083   -1.7261 C   0  0  0  0  0  0  0  0  0  0  0  0
    4.5559   -1.7697   -0.4029 C   0  0  0  0  0  0  0  0  0  0  0  0
    2.8923   -1.6199    1.4171 C   0  0  0  0  0  0  0  0  0  0  0  0
    0.6416    2.0721    0.5850 C   0  0  0  0  0  0  0  0  0  0  0  0
    3.2694   -3.8042    0.1695 C   0  0  0  0  0  0  0  0  0  0  0  0
    2.2015   -4.4342    1.0276 C   0  0  0  0  0  0  0  0  0  0  0  0
   -1.2937    1.3505    0.6990 C   0  0  0  0  0  0  0  0  0  0  0  0
   -2.5085    0.6848    0.3264 C   0  0  0  0  0  0  0  0  0  0  0  0
   -2.6270    0.0448   -0.9025 C   0  0  0  0  0  0  0  0  0  0  0  0
   -3.6001    0.6586    1.1791 C   0  0  0  0  0  0  0  0  0  0  0  0
   -3.8169   -0.5927   -1.2361 C   0  0  0  0  0  0  0  0  0  0  0  0
   -4.8501   -0.5617   -0.3135 C   0  0  0  0  0  0  0  0  0  0  0  0
   -7.1736   -1.2284    0.2500 C   0  0  0  0  0  0  0  0  0  0  0  0
   -6.1755   -1.8778   -1.9478 C   0  0  0  0  0  0  0  0  0  0  0  0
    4.1213    0.7494    0.6662 H   0  0  0  0  0  0  0  0  0  0  0  0
    2.6331    2.5518    1.1926 H   0  0  0  0  0  0  0  0  0  0  0  0
    3.9904    1.8708   -2.3796 H   0  0  0  0  0  0  0  0  0  0  0  0
    4.5832    2.5749   -0.8471 H   0  0  0  0  0  0  0  0  0  0  0  0
    2.7000    4.5549    0.1966 H   0  0  0  0  0  0  0  0  0  0  0  0
    1.1611    4.3014   -0.6443 H   0  0  0  0  0  0  0  0  0  0  0  0
    4.8066   -0.0188   -1.5913 H   0  0  0  0  0  0  0  0  0  0  0  0
    3.2432   -0.8140   -1.8171 H   0  0  0  0  0  0  0  0  0  0  0  0
    1.9063    0.2259    1.6310 H   0  0  0  0  0  0  0  0  0  0  0  0
    1.4494   -0.6651    0.1536 H   0  0  0  0  0  0  0  0  0  0  0  0
    3.5540    4.4504   -1.9900 H   0  0  0  0  0  0  0  0  0  0  0  0
    2.2043    3.4461   -2.5526 H   0  0  0  0  0  0  0  0  0  0  0  0
    4.9648   -2.4369   -1.1684 H   0  0  0  0  0  0  0  0  0  0  0  0
    5.3769   -1.5070    0.2749 H   0  0  0  0  0  0  0  0  0  0  0  0
    3.6673   -1.3507    2.1450 H   0  0  0  0  0  0  0  0  0  0  0  0
    2.1168   -2.1632    1.9599 H   0  0  0  0  0  0  0  0  0  0  0  0
    2.0848   -5.4862    0.7494 H   0  0  0  0  0  0  0  0  0  0  0  0
    2.4885   -4.3905    2.0816 H   0  0  0  0  0  0  0  0  0  0  0  0
    1.2436   -3.9319    0.8686 H   0  0  0  0  0  0  0  0  0  0  0  0
   -1.8088    0.0270   -1.6179 H   0  0  0  0  0  0  0  0  0  0  0  0
   -3.5894    1.1336    2.1556 H   0  0  0  0  0  0  0  0  0  0  0  0
   -3.8669   -1.0789   -2.2027 H   0  0  0  0  0  0  0  0  0  0  0  0
   -6.8981   -1.7233    1.1878 H   0  0  0  0  0  0  0  0  0  0  0  0
   -7.5035   -0.2081    0.4746 H   0  0  0  0  0  0  0  0  0  0  0  0
   -8.0368   -1.7650   -0.1580 H   0  0  0  0  0  0  0  0  0  0  0  0
   -6.0571   -1.1725   -2.7782 H   0  0  0  0  0  0  0  0  0  0  0  0
   -5.4518   -2.6950   -2.0452 H   0  0  0  0  0  0  0  0  0  0  0  0
   -7.1656   -2.3313   -2.0728 H   0  0  0  0  0  0  0  0  0  0  0  0
  1  6  1  0  0  0  0
  1 18  1  0  0  0  0
  2 19  2  0  0  0  0
  3  9  1  0  0  0  0
  3 10  1  0  0  0  0
  3 11  1  0  0  0  0
  4 16  1  0  0  0  0
  4 17  1  0  0  0  0
  4 19  1  0  0  0  0
  5 18  2  0  0  0  0
  5 21  1  0  0  0  0
  6 21  2  0  0  0  0
  7 24  1  0  0  0  0
  7 26  2  0  0  0  0
  8 26  1  0  0  0  0
  8 27  1  0  0  0  0
  8 28  1  0  0  0  0
  9 13  1  0  0  0  0
  9 14  1  0  0  0  0
  9 29  1  0  0  0  0
 10 12  1  0  0  0  0
 10 18  1  0  0  0  0
 10 30  1  0  0  0  0
 11 15  1  0  0  0  0
 11 31  1  0  0  0  0
 11 32  1  0  0  0  0
 12 15  1  0  0  0  0
 12 33  1  0  0  0  0
 12 34  1  0  0  0  0
 13 16  1  0  0  0  0
 13 35  1  0  0  0  0
 13 36  1  0  0  0  0
 14 17  1  0  0  0  0
 14 37  1  0  0  0  0
 14 38  1  0  0  0  0
 15 39  1  0  0  0  0
 15 40  1  0  0  0  0
 16 41  1  0  0  0  0
 16 42  1  0  0  0  0
 17 43  1  0  0  0  0
 17 44  1  0  0  0  0
 19 20  1  0  0  0  0
 20 45  1  0  0  0  0
 20 46  1  0  0  0  0
 20 47  1  0  0  0  0
 21 22  1  0  0  0  0
 22 23  1  0  0  0  0
 22 24  2  0  0  0  0
 23 25  2  0  0  0  0
 23 48  1  0  0  0  0
 24 49  1  0  0  0  0
 25 26  1  0  0  0  0
 25 50  1  0  0  0  0
 27 51  1  0  0  0  0
 27 52  1  0  0  0  0
 27 53  1  0  0  0  0
 28 54  1  0  0  0  0
 28 55  1  0  0  0  0
 28 56  1  0  0  0  0
M  END
> <PUBCHEM_COMPOUND_CID>
45783795

> <PUBCHEM_CONFORMER_RMSD>
0.8

> <PUBCHEM_CONFORMER_DIVERSEORDER>
1
61
114
53
101
82
70
102
36
55
99
43
62
7
56
80
30
49
95
107
57
110
31
51
113
74
44
64
24
96
88
15
93
58
60
50
98
41
48
75
18
112
69
27
104
33
59
78
79
103
23
17
111
38
86
90
28
52
94
67
81
8
105
73
16
54
40
85
4
84
21
89
11
32
72
35
39
92
47
20
34
63
13
91
66
26
77
5
76
10
65
97
6
14
22
42
87
100
108
109
29
71
12
45
106
9
37
46
3
25
68
2
19
83

> <PUBCHEM_MMFF94_PARTIAL_CHARGES>
27
1 -0.02
10 0.45
11 0.27
16 0.3
17 0.3
18 0.3
19 0.57
2 -0.57
20 0.06
21 0.46
22 0.05
23 -0.15
24 0.16
25 -0.15
26 0.41
27 0.37
28 0.37
3 -0.81
4 -0.66
48 0.15
49 0.15
5 -0.57
50 0.15
6 -0.41
7 -0.62
8 -0.84
9 0.27

> <PUBCHEM_EFFECTIVE_ROTOR_COUNT>
7.2

> <PUBCHEM_PHARMACOPHORE_FEATURES>
8
1 2 acceptor
1 3 cation
3 5 6 21 cation
3 7 8 26 cation
5 1 5 6 18 21 rings
5 3 10 11 12 15 rings
6 4 9 13 14 16 17 rings
6 7 22 23 24 25 26 rings

> <PUBCHEM_HEAVY_ATOM_COUNT>
28

> <PUBCHEM_ATOM_DEF_STEREO_COUNT>
1

> <PUBCHEM_ATOM_UDEF_STEREO_COUNT>
0

> <PUBCHEM_BOND_DEF_STEREO_COUNT>
0

> <PUBCHEM_BOND_UDEF_STEREO_COUNT>
0

> <PUBCHEM_ISOTOPIC_ATOM_COUNT>
0

> <PUBCHEM_COMPONENT_COUNT>
1

> <PUBCHEM_CACTVS_TAUTO_COUNT>
1

> <PUBCHEM_CONFORMER_ID>
02BA9AF300000001

> <PUBCHEM_MMFF94_ENERGY>
66.5514

> <PUBCHEM_FEATURE_SELFOVERLAP>
40.598

> <PUBCHEM_SHAPE_FINGERPRINT>
10042902 136 17983865471744469486
10622 236 18269550546859603219
10693767 8 18270414828013876046
10928967 22 18059573637470023663
11014199 57 18051132489040197746
11069576 57 18411979169791795926
11103572 155 18265055911821334603
11552529 35 17621880886609407528
12107183 9 18126014763142177497
12788726 201 17774740730857680065
13009979 54 17986397685487389642
13533116 47 18339924913465442563
1361 2 18409167727070665178
13692114 37 17980753067874139760
13911987 19 17827099577562645204
14429380 30 18119812404959639330
14863182 85 18340194306747110024
15183329 4 17846505881099982525
15250474 111 18342453802978574655
15324115 91 18262235650260136260
16989713 51 17617943535518990206
17134984 74 18194395830598342631
17138139 8 17771340069619248783
17492 89 18268429040419370330
17818456 19 17985839129059711569
17974551 9 14471066442365560334
1813 80 18337668603461440456
19026451 147 18408882911052457698
19319366 153 18197495336359395100
20645477 70 18187925118273759985
20775438 99 18266444593730511403
20775530 9 18119250554269360810
21133410 171 17028774691259661715
21304303 94 18335135453283385171
235170 7 17603581984633402253
23522609 53 17912958186292628089
23569914 152 17686864291643541887
238 59 18113911489282461744
25222932 49 17345173696352416477
3004659 81 18341614832250635757
314194 84 18341896324845124099
3411729 13 16199016421755879600
345986 75 17846499214635240145
34797466 226 16878504665625991357
397830 11 11095882731450372821
44062 13 18120088390840817517
44280117 145 17765441942643670542
4435113 14 17969237801130214331
44802255 64 15435157099170514966
46194498 28 17894906360398346541
5104073 3 16629407042394465163
56633871 153 17838626556571812379
59682541 52 18335124420145060173
6025842 7 18261956370175257108
70251023 43 18335140869047481329
7970288 3 18270679762165077175
86090 222 15530745546490197879
960060 61 18337672035399259989

> <PUBCHEM_SHAPE_MULTIPOLES>
534.6
13.51
5.34
1.58
26.12
3.56
-0.05
9.06
-4.58
-9.93
-0.28
0.54
-0.43
-2.56

> <PUBCHEM_SHAPE_SELFOVERLAP>
1135.644

> <PUBCHEM_SHAPE_VOLUME>
299

> <PUBCHEM_COORDINATE_TYPE>
2
5
10

$$$$
