25338395
  -OEChem-12032416213D

 50 53  0     1  0  0  0  0  0999 V2000
   -4.7346   -5.3000    0.2053 Cl  0  0  0  0  0  0  0  0  0  0  0  0
   -3.3500    2.5501   -0.5522 O   0  0  0  0  0  0  0  0  0  0  0  0
    3.4364    1.9441   -1.8181 O   0  0  0  0  0  0  0  0  0  0  0  0
    5.0640   -3.5409    0.8864 O   0  0  0  0  0  0  0  0  0  0  0  0
   -0.3996    3.3245    1.2121 N   0  0  1  0  0  0  0  0  0  0  0  0
    2.0289    1.9865    0.0244 N   0  0  0  0  0  0  0  0  0  0  0  0
   -1.9768    0.8701    0.0035 N   0  0  0  0  0  0  0  0  0  0  0  0
   -4.1297    1.3867   -0.5727 N   0  0  0  0  0  0  0  0  0  0  0  0
    1.3873    3.2427   -0.2828 C   0  0  1  0  0  0  0  0  0  0  0  0
   -1.0498    3.2464   -0.1100 C   0  0  1  0  0  0  0  0  0  0  0  0
    0.1123    3.0381   -1.1009 C   0  0  0  0  0  0  0  0  0  0  0  0
    0.9091    3.9436    0.9798 C   0  0  0  0  0  0  0  0  0  0  0  0
   -2.0967    2.1571   -0.2043 C   0  0  0  0  0  0  0  0  0  0  0  0
   -1.1840    4.0627    2.1947 C   0  0  0  0  0  0  0  0  0  0  0  0
    3.0134    1.4370   -0.7825 C   0  0  0  0  0  0  0  0  0  0  0  0
   -3.2496    0.4397   -0.2345 C   0  0  0  0  0  0  0  0  0  0  0  0
    3.5553    0.1257   -0.3424 C   0  0  0  0  0  0  0  0  0  0  0  0
   -3.6090   -0.9448   -0.1270 C   0  0  0  0  0  0  0  0  0  0  0  0
    4.0823   -0.7615   -1.2811 C   0  0  0  0  0  0  0  0  0  0  0  0
    3.5354   -0.2193    1.0089 C   0  0  0  0  0  0  0  0  0  0  0  0
   -2.6457   -1.8889    0.2287 C   0  0  0  0  0  0  0  0  0  0  0  0
   -4.9204   -1.3476   -0.3796 C   0  0  0  0  0  0  0  0  0  0  0  0
    4.5892   -1.9936   -0.8684 C   0  0  0  0  0  0  0  0  0  0  0  0
    4.0422   -1.4515    1.4217 C   0  0  0  0  0  0  0  0  0  0  0  0
    4.5691   -2.3387    0.4831 C   0  0  0  0  0  0  0  0  0  0  0  0
   -2.9936   -3.2357    0.3316 C   0  0  0  0  0  0  0  0  0  0  0  0
   -5.2684   -2.6944   -0.2769 C   0  0  0  0  0  0  0  0  0  0  0  0
   -4.3050   -3.6384    0.0787 C   0  0  0  0  0  0  0  0  0  0  0  0
    5.5881   -4.3993   -0.1258 C   0  0  0  0  0  0  0  0  0  0  0  0
    2.1001    3.8694   -0.8305 H   0  0  0  0  0  0  0  0  0  0  0  0
   -1.5224    4.2090   -0.3532 H   0  0  0  0  0  0  0  0  0  0  0  0
    0.0921    2.0603   -1.5963 H   0  0  0  0  0  0  0  0  0  0  0  0
    0.0532    3.8048   -1.8837 H   0  0  0  0  0  0  0  0  0  0  0  0
    1.5857    3.7958    1.8283 H   0  0  0  0  0  0  0  0  0  0  0  0
    0.8081    5.0204    0.7913 H   0  0  0  0  0  0  0  0  0  0  0  0
    1.6525    1.4584    0.8048 H   0  0  0  0  0  0  0  0  0  0  0  0
   -1.3801    5.0946    1.8823 H   0  0  0  0  0  0  0  0  0  0  0  0
   -0.6597    4.0897    3.1564 H   0  0  0  0  0  0  0  0  0  0  0  0
   -2.1453    3.5691    2.3728 H   0  0  0  0  0  0  0  0  0  0  0  0
    4.1018   -0.5120   -2.3388 H   0  0  0  0  0  0  0  0  0  0  0  0
    3.1621    0.4541    1.7748 H   0  0  0  0  0  0  0  0  0  0  0  0
   -1.6155   -1.6067    0.4316 H   0  0  0  0  0  0  0  0  0  0  0  0
   -5.6976   -0.6407   -0.6592 H   0  0  0  0  0  0  0  0  0  0  0  0
    4.9824   -2.6351   -1.6496 H   0  0  0  0  0  0  0  0  0  0  0  0
    4.0302   -1.7125    2.4765 H   0  0  0  0  0  0  0  0  0  0  0  0
   -2.2327   -3.9606    0.6095 H   0  0  0  0  0  0  0  0  0  0  0  0
   -6.2940   -2.9943   -0.4767 H   0  0  0  0  0  0  0  0  0  0  0  0
    5.9381   -5.3097    0.3720 H   0  0  0  0  0  0  0  0  0  0  0  0
    6.4562   -3.9527   -0.6224 H   0  0  0  0  0  0  0  0  0  0  0  0
    4.8128   -4.7022   -0.8376 H   0  0  0  0  0  0  0  0  0  0  0  0
  1 28  1  0  0  0  0
  2  8  1  0  0  0  0
  2 13  1  0  0  0  0
  3 15  2  0  0  0  0
  4 25  1  0  0  0  0
  4 29  1  0  0  0  0
  5 10  1  0  0  0  0
  5 12  1  0  0  0  0
  5 14  1  0  0  0  0
  6  9  1  0  0  0  0
  6 15  1  0  0  0  0
  6 36  1  0  0  0  0
  7 13  2  0  0  0  0
  7 16  1  0  0  0  0
  8 16  2  0  0  0  0
  9 11  1  0  0  0  0
  9 12  1  0  0  0  0
  9 30  1  0  0  0  0
 10 11  1  0  0  0  0
 10 13  1  0  0  0  0
 10 31  1  0  0  0  0
 11 32  1  0  0  0  0
 11 33  1  0  0  0  0
 12 34  1  0  0  0  0
 12 35  1  0  0  0  0
 14 37  1  0  0  0  0
 14 38  1  0  0  0  0
 14 39  1  0  0  0  0
 15 17  1  0  0  0  0
 16 18  1  0  0  0  0
 17 19  2  0  0  0  0
 17 20  1  0  0  0  0
 18 21  2  0  0  0  0
 18 22  1  0  0  0  0
 19 23  1  0  0  0  0
 19 40  1  0  0  0  0
 20 24  2  0  0  0  0
 20 41  1  0  0  0  0
 21 26  1  0  0  0  0
 21 42  1  0  0  0  0
 22 27  2  0  0  0  0
 22 43  1  0  0  0  0
 23 25  2  0  0  0  0
 23 44  1  0  0  0  0
 24 25  1  0  0  0  0
 24 45  1  0  0  0  0
 26 28  2  0  0  0  0
 26 46  1  0  0  0  0
 27 28  1  0  0  0  0
 27 47  1  0  0  0  0
 29 48  1  0  0  0  0
 29 49  1  0  0  0  0
 29 50  1  0  0  0  0
M  END
> <PUBCHEM_COMPOUND_CID>
25338395

> <PUBCHEM_CONFORMER_RMSD>
0.8

> <PUBCHEM_CONFORMER_DIVERSEORDER>
1
44
11
54
38
13
55
32
7
47
51
45
46
10
43
42
20
8
39
37
22
17
56
27
34
52
50
25
5
16
18
35
40
33
24
9
26
4
49
30
21
36
14
48
6
15
12
2
23
31
29
28
41
53
19
3

> <PUBCHEM_MMFF94_PARTIAL_CHARGES>
37
1 -0.18
10 0.45
12 0.27
13 0.3
14 0.27
15 0.54
16 0.46
17 0.09
18 0.05
19 -0.15
2 -0.02
20 -0.15
21 -0.15
22 -0.15
23 -0.15
24 -0.15
25 0.08
26 -0.15
27 -0.15
28 0.18
29 0.28
3 -0.57
36 0.37
4 -0.36
40 0.15
41 0.15
42 0.15
43 0.15
44 0.15
45 0.15
46 0.15
47 0.15
5 -0.81
6 -0.73
7 -0.57
8 -0.41
9 0.3

> <PUBCHEM_EFFECTIVE_ROTOR_COUNT>
7

> <PUBCHEM_PHARMACOPHORE_FEATURES>
9
1 3 acceptor
1 4 acceptor
1 5 cation
1 6 donor
3 7 8 16 cation
5 2 7 8 13 16 rings
5 5 9 10 11 12 rings
6 17 19 20 23 24 25 rings
6 18 21 22 26 27 28 rings

> <PUBCHEM_HEAVY_ATOM_COUNT>
29

> <PUBCHEM_ATOM_DEF_STEREO_COUNT>
2

> <PUBCHEM_ATOM_UDEF_STEREO_COUNT>
0

> <PUBCHEM_BOND_DEF_STEREO_COUNT>
0

> <PUBCHEM_BOND_UDEF_STEREO_COUNT>
0

> <PUBCHEM_ISOTOPIC_ATOM_COUNT>
0

> <PUBCHEM_COMPONENT_COUNT>
1

> <PUBCHEM_CACTVS_TAUTO_COUNT>
2

> <PUBCHEM_CONFORMER_ID>
0182A21B00000001

> <PUBCHEM_MMFF94_ENERGY>
74.2148

> <PUBCHEM_FEATURE_SELFOVERLAP>
45.672

> <PUBCHEM_SHAPE_FINGERPRINT>
10571361 74 17757826728724062282
10622 236 18115019689502736786
10838868 229 18047482398901242579
10928967 22 18265072334425112939
11285246 1 18040156214462017963
11374522 301 17321013130976578794
114674 6 17619914297518709121
11828042 163 10192644301547461591
12147406 95 17976793678947083403
12969540 37 18265611164058958556
1361 2 17330273282662136163
13631057 29 18339653334141693052
14508693 111 18259977163809937306
14863182 85 17543912763957316101
14866123 147 18268995285367218289
15003188 105 18117556456101206358
15320294 125 17682675121670716766
15320467 1 17977103783859810562
15776043 110 17981358821645954123
17492 89 18409448119731512742
17909252 39 18266740375173830184
19301676 85 18409438181958457623
19319366 153 17977951516394270196
20775530 9 18341336690094544397
21049683 118 15762476937891143665
21315759 227 18263066876718435132
21703447 108 17769939309735008681
23379529 103 18338237046941894302
23559900 14 18337943606391953885
23572383 38 18341033160508195964
25222932 49 18055636371918873020
3146121 3 18334856096944453922
325973 47 18408324410247915826
3383291 50 18195242222802720809
345986 75 17559129876537143369
4017518 198 17256525215234021636
4394409 98 17682936822591136293
44062 13 18262516992398575461
4435113 14 17054156862185628950
463206 1 18336547105690393560
50009960 94 17901637652135819970
50080093 196 17174044319548046826
508706 21 17840878365139001750
5309563 4 18051700133286898087
56633871 153 18339649932257848211
6433294 58 18050568735579329723
6679774 75 17257415884013531201
7970288 3 18409728418071846006
86090 222 17471863974538275083
88748 71 18335704957393647477
9831232 110 17757268559501692983

> <PUBCHEM_SHAPE_MULTIPOLES>
561.14
13.03
7.84
1.28
0.5
2.11
0.27
20.48
-1.05
1.01
1.97
-1.08
-0.95
-0.59

> <PUBCHEM_SHAPE_SELFOVERLAP>
1206.251

> <PUBCHEM_SHAPE_VOLUME>
313.3

> <PUBCHEM_COORDINATE_TYPE>
2
5
10

$$$$
