7675147
  -OEChem-12032416133D

 41 43  0     1  0  0  0  0  0999 V2000
    0.6183    0.7497   -1.8796 O   0  0  0  0  0  0  0  0  0  0  0  0
    0.2379   -2.8107    1.0217 O   0  0  0  0  0  0  0  0  0  0  0  0
   -5.5615    0.9111    0.6624 O   0  0  0  0  0  0  0  0  0  0  0  0
   -1.3345   -1.3934    0.0212 N   0  0  0  0  0  0  0  0  0  0  0  0
    0.8127   -1.1157   -0.4840 N   0  0  0  0  0  0  0  0  0  0  0  0
   -3.2873    0.5640    0.3420 N   0  0  0  0  0  0  0  0  0  0  0  0
   -1.3476   -0.2822   -0.9043 C   0  0  1  0  0  0  0  0  0  0  0  0
   -1.9939    0.9370   -0.2618 C   0  0  0  0  0  0  0  0  0  0  0  0
   -2.5737   -1.7819    0.6707 C   0  0  0  0  0  0  0  0  0  0  0  0
   -3.2244   -0.5514    1.3009 C   0  0  0  0  0  0  0  0  0  0  0  0
    0.1397   -0.1235   -1.1680 C   0  0  0  0  0  0  0  0  0  0  0  0
   -0.0554   -1.8907    0.2689 C   0  0  0  0  0  0  0  0  0  0  0  0
    2.2518   -1.2855   -0.5018 C   0  0  2  0  0  0  0  0  0  0  0  0
   -4.5002    1.2102    0.1094 C   0  0  0  0  0  0  0  0  0  0  0  0
    2.9547   -0.0756    0.0752 C   0  0  0  0  0  0  0  0  0  0  0  0
    2.7356   -1.6259   -1.9099 C   0  0  0  0  0  0  0  0  0  0  0  0
   -4.4813    2.3400   -0.8889 C   0  0  0  0  0  0  0  0  0  0  0  0
    3.1346    0.0117    1.4448 C   0  0  0  0  0  0  0  0  0  0  0  0
    3.4021    0.9171   -0.7791 C   0  0  0  0  0  0  0  0  0  0  0  0
    3.7824    1.1266    1.9767 C   0  0  0  0  0  0  0  0  0  0  0  0
    4.0498    2.0321   -0.2471 C   0  0  0  0  0  0  0  0  0  0  0  0
    4.2400    2.1370    1.1307 C   0  0  0  0  0  0  0  0  0  0  0  0
   -1.8637   -0.5992   -1.8166 H   0  0  0  0  0  0  0  0  0  0  0  0
   -1.3699    1.3320    0.5501 H   0  0  0  0  0  0  0  0  0  0  0  0
   -2.0932    1.7366   -0.9985 H   0  0  0  0  0  0  0  0  0  0  0  0
   -2.3782   -2.5526    1.4222 H   0  0  0  0  0  0  0  0  0  0  0  0
   -3.2244   -2.2045   -0.1029 H   0  0  0  0  0  0  0  0  0  0  0  0
   -4.2204   -0.8051    1.6762 H   0  0  0  0  0  0  0  0  0  0  0  0
   -2.6279   -0.2008    2.1518 H   0  0  0  0  0  0  0  0  0  0  0  0
    2.5039   -2.1494    0.1278 H   0  0  0  0  0  0  0  0  0  0  0  0
    3.8265   -1.7238   -1.9462 H   0  0  0  0  0  0  0  0  0  0  0  0
    2.3134   -2.5898   -2.2199 H   0  0  0  0  0  0  0  0  0  0  0  0
    2.4292   -0.9065   -2.6755 H   0  0  0  0  0  0  0  0  0  0  0  0
   -3.8184    3.1380   -0.5443 H   0  0  0  0  0  0  0  0  0  0  0  0
   -5.4895    2.7536   -0.9897 H   0  0  0  0  0  0  0  0  0  0  0  0
   -4.1643    1.9733   -1.8688 H   0  0  0  0  0  0  0  0  0  0  0  0
    2.7796   -0.7688    2.1115 H   0  0  0  0  0  0  0  0  0  0  0  0
    3.2745    0.8827   -1.8547 H   0  0  0  0  0  0  0  0  0  0  0  0
    3.9297    1.2086    3.0496 H   0  0  0  0  0  0  0  0  0  0  0  0
    4.4053    2.8198   -0.9052 H   0  0  0  0  0  0  0  0  0  0  0  0
    4.7438    3.0054    1.5450 H   0  0  0  0  0  0  0  0  0  0  0  0
  1 11  2  0  0  0  0
  2 12  2  0  0  0  0
  3 14  2  0  0  0  0
  4  7  1  0  0  0  0
  4  9  1  0  0  0  0
  4 12  1  0  0  0  0
  5 11  1  0  0  0  0
  5 12  1  0  0  0  0
  5 13  1  0  0  0  0
  6  8  1  0  0  0  0
  6 10  1  0  0  0  0
  6 14  1  0  0  0  0
  7  8  1  0  0  0  0
  7 11  1  0  0  0  0
  7 23  1  0  0  0  0
  8 24  1  0  0  0  0
  8 25  1  0  0  0  0
  9 10  1  0  0  0  0
  9 26  1  0  0  0  0
  9 27  1  0  0  0  0
 10 28  1  0  0  0  0
 10 29  1  0  0  0  0
 13 15  1  0  0  0  0
 13 16  1  0  0  0  0
 13 30  1  0  0  0  0
 14 17  1  0  0  0  0
 15 18  2  0  0  0  0
 15 19  1  0  0  0  0
 16 31  1  0  0  0  0
 16 32  1  0  0  0  0
 16 33  1  0  0  0  0
 17 34  1  0  0  0  0
 17 35  1  0  0  0  0
 17 36  1  0  0  0  0
 18 20  1  0  0  0  0
 18 37  1  0  0  0  0
 19 21  2  0  0  0  0
 19 38  1  0  0  0  0
 20 22  2  0  0  0  0
 20 39  1  0  0  0  0
 21 22  1  0  0  0  0
 21 40  1  0  0  0  0
 22 41  1  0  0  0  0
M  END
> <PUBCHEM_COMPOUND_CID>
7675147

> <PUBCHEM_CONFORMER_RMSD>
0.6

> <PUBCHEM_CONFORMER_DIVERSEORDER>
1
34
31
24
39
5
40
27
28
4
29
2
23
33
21
37
26
42
30
17
38
36
10
8
43
18
19
11
41
7
22
6
15
35
12
14
32
3
9
16
13
25
20

> <PUBCHEM_MMFF94_PARTIAL_CHARGES>
26
1 -0.57
10 0.3
11 0.57
12 0.69
13 0.44
14 0.57
15 -0.14
17 0.06
18 -0.15
19 -0.15
2 -0.57
20 -0.15
21 -0.15
22 -0.15
3 -0.57
37 0.15
38 0.15
39 0.15
4 -0.66
40 0.15
41 0.15
5 -0.42
6 -0.66
7 0.36
8 0.3
9 0.3

> <PUBCHEM_EFFECTIVE_ROTOR_COUNT>
4

> <PUBCHEM_PHARMACOPHORE_FEATURES>
6
1 1 acceptor
1 2 acceptor
1 3 acceptor
5 4 5 7 11 12 rings
6 15 18 19 20 21 22 rings
6 4 6 7 8 9 10 rings

> <PUBCHEM_HEAVY_ATOM_COUNT>
22

> <PUBCHEM_ATOM_DEF_STEREO_COUNT>
2

> <PUBCHEM_ATOM_UDEF_STEREO_COUNT>
0

> <PUBCHEM_BOND_DEF_STEREO_COUNT>
0

> <PUBCHEM_BOND_UDEF_STEREO_COUNT>
0

> <PUBCHEM_ISOTOPIC_ATOM_COUNT>
0

> <PUBCHEM_COMPONENT_COUNT>
1

> <PUBCHEM_CACTVS_TAUTO_COUNT>
1

> <PUBCHEM_CONFORMER_ID>
00751D0B00000001

> <PUBCHEM_MMFF94_ENERGY>
50.1425

> <PUBCHEM_FEATURE_SELFOVERLAP>
30.564

> <PUBCHEM_SHAPE_FINGERPRINT>
10319926 262 18333726931975840802
10498660 4 17346313855777502944
11089746 13 18268422443581472167
11543360 7 16917058941721283039
11595378 159 17095242501414989805
12363563 72 11386351631059998920
12403259 415 18337118852438684237
12596602 18 16805327733837718505
12633257 1 18188193399538257336
12670546 177 13110963140891934137
12788726 201 17028557318680113771
12892183 10 17676489492237129987
12969540 114 17275102864091421097
13140716 1 18187641371412460562
13544653 18 11386372534460002717
13583140 156 17775289386690558551
13965767 371 17822281345514690852
14178342 30 17968098659174117459
14251764 30 15286748085864405274
14251764 38 18128252273104121265
14252887 29 8357960157163813967
14341114 328 17458621289480544768
14787075 74 18342452690613381609
14848178 96 18342459197093722513
15209294 21 18335982059840397794
15422964 175 13624345968278133522
17349148 13 17676210169751223191
1813 80 8430313567232496291
18186145 218 18270977755574938879
193927 3 11314306109632100424
19862831 5 13326862140394301990
21033648 29 18336829697759969209
212916 134 18259982669678149539
21475661 188 18342729732598917241
21756936 100 18195520622725577340
21864079 5 18127965524197312072
22149856 69 18192742028488483041
23227448 37 18200869707538361841
23557571 272 18269570479713140183
23559900 14 18339371772874811150
2838139 119 17203323416531043312
341906 21 18187086160984552437
4072396 5 17168140110005088975
427121 178 18334577932242303290
4463277 69 11097859579335159257
474 4 18272368672117310208
495365 180 17988641874487488798
5104073 3 18334584508079957139
5352402 22 13262397752188519553
58807428 26 18040710376806908082
633830 44 18342174432139927543
7064713 232 18187642530884584876
76465 3 8790620199281987680
7808743 9 18192155017348131436
8988823 20 13479427097094700871
90316 7 16732697238374983029
960060 61 10663814208654075392

> <PUBCHEM_SHAPE_MULTIPOLES>
420.2
9.74
2.52
1.62
5.96
0.23
-0.03
-7.63
2.16
-0.23
0.14
-1.1
0.03
1.65

> <PUBCHEM_SHAPE_SELFOVERLAP>
899.382

> <PUBCHEM_SHAPE_VOLUME>
232.6

> <PUBCHEM_COORDINATE_TYPE>
2
5
10

$$$$
