26744980
  -OEChem-12032416313D

 54 58  0     1  0  0  0  0  0999 V2000
    0.1788    1.6201    2.3716 O   0  0  0  0  0  0  0  0  0  0  0  0
   -6.1019   -0.4938   -2.3142 O   0  5  0  0  0  0  0  0  0  0  0  0
   -3.9785   -0.9703   -2.6027 O   0  0  0  0  0  0  0  0  0  0  0  0
    2.4417   -0.1894    0.3460 N   0  0  1  0  0  0  0  0  0  0  0  0
    5.5509    1.0810   -1.3230 N   0  0  0  0  0  0  0  0  0  0  0  0
    4.3914    2.9741   -1.5878 N   0  0  0  0  0  0  0  0  0  0  0  0
   -0.5234    1.0605    0.3197 N   0  0  0  0  0  0  0  0  0  0  0  0
   -1.2209    1.6383    2.4205 N   0  0  0  0  0  0  0  0  0  0  0  0
   -4.9005   -0.4104   -1.9619 N   0  3  0  0  0  0  0  0  0  0  0  0
    1.9442   -2.5936    0.6391 C   0  0  0  0  0  0  0  0  0  0  0  0
    2.0810   -1.2314    1.3168 C   0  0  0  0  0  0  0  0  0  0  0  0
    1.5427   -3.6682    1.6584 C   0  0  0  0  0  0  0  0  0  0  0  0
    0.9316   -2.5271   -0.5121 C   0  0  0  0  0  0  0  0  0  0  0  0
    1.3478   -5.0297    0.9951 C   0  0  0  0  0  0  0  0  0  0  0  0
    0.7375   -3.8904   -1.1718 C   0  0  0  0  0  0  0  0  0  0  0  0
    1.9956    1.1783    0.7828 C   0  0  1  0  0  0  0  0  0  0  0  0
    0.3471   -4.9577   -0.1541 C   0  0  0  0  0  0  0  0  0  0  0  0
    3.9147   -0.2575    0.1183 C   0  0  0  0  0  0  0  0  0  0  0  0
    2.3311    2.2861   -0.2779 C   0  0  0  0  0  0  0  0  0  0  0  0
    4.3728    0.9094   -0.6622 C   0  0  0  0  0  0  0  0  0  0  0  0
    3.6845    2.0820   -0.8328 C   0  0  0  0  0  0  0  0  0  0  0  0
    0.5064    1.2711    1.1000 C   0  0  0  0  0  0  0  0  0  0  0  0
    5.5148    2.3419   -1.8656 C   0  0  0  0  0  0  0  0  0  0  0  0
   -1.5608    1.2977    1.1737 C   0  0  0  0  0  0  0  0  0  0  0  0
   -2.9264    1.1873    0.7491 C   0  0  0  0  0  0  0  0  0  0  0  0
   -3.2459    0.4488   -0.3903 C   0  0  0  0  0  0  0  0  0  0  0  0
   -3.9353    1.8184    1.4768 C   0  0  0  0  0  0  0  0  0  0  0  0
   -4.5743    0.3413   -0.8021 C   0  0  0  0  0  0  0  0  0  0  0  0
   -5.2637    1.7111    1.0649 C   0  0  0  0  0  0  0  0  0  0  0  0
   -5.5832    0.9724   -0.0743 C   0  0  0  0  0  0  0  0  0  0  0  0
    2.9155   -2.8918    0.2230 H   0  0  0  0  0  0  0  0  0  0  0  0
    2.7975   -1.2764    2.1478 H   0  0  0  0  0  0  0  0  0  0  0  0
    1.1133   -1.0202    1.7861 H   0  0  0  0  0  0  0  0  0  0  0  0
    0.6116   -3.3782    2.1620 H   0  0  0  0  0  0  0  0  0  0  0  0
    2.3113   -3.7521    2.4360 H   0  0  0  0  0  0  0  0  0  0  0  0
    1.2588   -1.8207   -1.2836 H   0  0  0  0  0  0  0  0  0  0  0  0
   -0.0364   -2.1670   -0.1398 H   0  0  0  0  0  0  0  0  0  0  0  0
    1.0022   -5.7559    1.7395 H   0  0  0  0  0  0  0  0  0  0  0  0
    2.3116   -5.3931    0.6179 H   0  0  0  0  0  0  0  0  0  0  0  0
    1.6657   -4.1877   -1.6752 H   0  0  0  0  0  0  0  0  0  0  0  0
   -0.0361   -3.8187   -1.9448 H   0  0  0  0  0  0  0  0  0  0  0  0
    2.5448    1.4238    1.7046 H   0  0  0  0  0  0  0  0  0  0  0  0
    0.2824   -5.9333   -0.6489 H   0  0  0  0  0  0  0  0  0  0  0  0
   -0.6502   -4.7342    0.2442 H   0  0  0  0  0  0  0  0  0  0  0  0
    4.1663   -1.1724   -0.4288 H   0  0  0  0  0  0  0  0  0  0  0  0
    4.4595   -0.2665    1.0712 H   0  0  0  0  0  0  0  0  0  0  0  0
    2.2553    3.2774    0.1845 H   0  0  0  0  0  0  0  0  0  0  0  0
    1.6099    2.2541   -1.1046 H   0  0  0  0  0  0  0  0  0  0  0  0
    6.3092    0.4157   -1.3986 H   0  0  0  0  0  0  0  0  0  0  0  0
    6.3361    2.7339   -2.4486 H   0  0  0  0  0  0  0  0  0  0  0  0
   -2.4533   -0.0454   -0.9485 H   0  0  0  0  0  0  0  0  0  0  0  0
   -3.7199    2.4066    2.3654 H   0  0  0  0  0  0  0  0  0  0  0  0
   -6.0491    2.2038    1.6308 H   0  0  0  0  0  0  0  0  0  0  0  0
   -6.6288    0.9109   -0.3652 H   0  0  0  0  0  0  0  0  0  0  0  0
  1  8  1  0  0  0  0
  1 22  1  0  0  0  0
  2  9  1  0  0  0  0
  3  9  2  0  0  0  0
  4 11  1  0  0  0  0
  4 16  1  0  0  0  0
  4 18  1  0  0  0  0
  5 20  1  0  0  0  0
  5 23  1  0  0  0  0
  5 49  1  0  0  0  0
  6 21  1  0  0  0  0
  6 23  2  0  0  0  0
  7 22  2  0  0  0  0
  7 24  1  0  0  0  0
  8 24  2  0  0  0  0
  9 28  1  0  0  0  0
 10 11  1  0  0  0  0
 10 12  1  0  0  0  0
 10 13  1  0  0  0  0
 10 31  1  0  0  0  0
 11 32  1  0  0  0  0
 11 33  1  0  0  0  0
 12 14  1  0  0  0  0
 12 34  1  0  0  0  0
 12 35  1  0  0  0  0
 13 15  1  0  0  0  0
 13 36  1  0  0  0  0
 13 37  1  0  0  0  0
 14 17  1  0  0  0  0
 14 38  1  0  0  0  0
 14 39  1  0  0  0  0
 15 17  1  0  0  0  0
 15 40  1  0  0  0  0
 15 41  1  0  0  0  0
 16 19  1  0  0  0  0
 16 22  1  0  0  0  0
 16 42  1  0  0  0  0
 17 43  1  0  0  0  0
 17 44  1  0  0  0  0
 18 20  1  0  0  0  0
 18 45  1  0  0  0  0
 18 46  1  0  0  0  0
 19 21  1  0  0  0  0
 19 47  1  0  0  0  0
 19 48  1  0  0  0  0
 20 21  2  0  0  0  0
 23 50  1  0  0  0  0
 24 25  1  0  0  0  0
 25 26  2  0  0  0  0
 25 27  1  0  0  0  0
 26 28  1  0  0  0  0
 26 51  1  0  0  0  0
 27 29  2  0  0  0  0
 27 52  1  0  0  0  0
 28 30  2  0  0  0  0
 29 30  1  0  0  0  0
 29 53  1  0  0  0  0
 30 54  1  0  0  0  0
M  CHG  2   2  -1   9   1
M  END
> <PUBCHEM_COMPOUND_CID>
26744980

> <PUBCHEM_CONFORMER_RMSD>
0.8

> <PUBCHEM_CONFORMER_DIVERSEORDER>
1
54
50
29
81
55
70
44
56
12
17
51
65
43
26
68
30
53
13
45
63
79
35
11
83
67
23
78
39
18
41
58
84
60
72
64
48
75
62
5
10
57
28
40
69
47
36
21
31
59
77
74
20
4
19
71
38
33
16
80
32
61
8
2
37
14
52
24
25
66
15
6
82
49
9
3
22
46
34
73
27
42
76
7

> <PUBCHEM_MMFF94_PARTIAL_CHARGES>
30
1 -0.02
11 0.27
16 0.45
18 0.45
19 0.18
2 -0.52
20 -0.33
21 0.05
22 0.3
23 0.04
24 0.46
25 0.05
26 -0.15
27 -0.15
28 0.13
29 -0.15
3 -0.52
30 -0.15
4 -0.81
49 0.27
5 0.03
50 0.15
51 0.15
52 0.15
53 0.15
54 0.15
6 -0.57
7 -0.57
8 -0.41
9 0.91

> <PUBCHEM_EFFECTIVE_ROTOR_COUNT>
7

> <PUBCHEM_PHARMACOPHORE_FEATURES>
12
1 2 acceptor
1 2 anion
1 3 acceptor
1 4 cation
1 5 donor
3 5 6 23 cation
3 7 8 24 cation
5 1 7 8 22 24 rings
5 5 6 20 21 23 rings
6 10 12 13 14 15 17 rings
6 25 26 27 28 29 30 rings
6 4 16 18 19 20 21 rings

> <PUBCHEM_HEAVY_ATOM_COUNT>
30

> <PUBCHEM_ATOM_DEF_STEREO_COUNT>
1

> <PUBCHEM_ATOM_UDEF_STEREO_COUNT>
0

> <PUBCHEM_BOND_DEF_STEREO_COUNT>
0

> <PUBCHEM_BOND_UDEF_STEREO_COUNT>
0

> <PUBCHEM_ISOTOPIC_ATOM_COUNT>
0

> <PUBCHEM_COMPONENT_COUNT>
1

> <PUBCHEM_CACTVS_TAUTO_COUNT>
2

> <PUBCHEM_CONFORMER_ID>
0198189400000001

> <PUBCHEM_MMFF94_ENERGY>
58.2439

> <PUBCHEM_FEATURE_SELFOVERLAP>
61.078

> <PUBCHEM_SHAPE_FINGERPRINT>
10090160 65 18409733932714395496
10319688 77 17324350818907857066
10940486 97 17049658721070540258
11069576 57 18196923388402463959
11421498 54 18200322013208959224
11545043 162 14764630807132525601
11991303 11 17897745364484135214
12655364 74 15432872360888692380
12788726 201 17630900308898449041
13150687 139 18336840753617212548
13257819 101 16805325530492803372
13911987 19 18116736143070560140
14251757 5 17980208809217905670
14289585 56 18041559140144542196
14863182 85 18270390586838973818
15250474 111 18200300027888028971
15537594 2 18060423500039385113
17138139 8 17987789829879035975
17818456 19 17195734364059452449
19319366 153 18413667998045614031
20028762 73 18270965618836351550
20505436 4 17556056547599817392
20775438 99 17700399562753757812
21033648 144 17749394801129558828
21033648 29 14562528487814214784
21054139 6 18272082794978248290
21133410 52 18194381313625927562
21421861 104 17983868787147362217
21927370 108 12031249269080236876
22393880 68 17846775217792525385
23559900 14 16770990883529248005
312425 83 17897148144991960141
38695281 34 18335151907487712000
404807 78 17898566742820853283
4409770 3 18051712215204462234
46194498 28 18041836191299545421
463206 1 18201429243188195907
474144 1 18199454498803610375
504843 32 17751656561489017642
513202 73 9365978137270794140
5223283 242 17248061235248648285
58260988 114 12101360731526397116
5951187 136 16376306921178952861
6009941 240 13253978748725805018
6691757 9 18271258205193676456
6823239 73 16271920510966084361

> <PUBCHEM_SHAPE_MULTIPOLES>
569.89
12.11
5.49
2.16
10.5
9.92
-0.4
-9.69
-7.41
-6.29
0.21
1.63
-0.24
-4.02

> <PUBCHEM_SHAPE_SELFOVERLAP>
1240.64

> <PUBCHEM_SHAPE_VOLUME>
309.8

> <PUBCHEM_COORDINATE_TYPE>
2
5
10

$$$$
