75368706
  -OEChem-12032416403D

 51 54  0     1  0  0  0  0  0999 V2000
    4.4754    1.9504   -0.2233 O   0  0  0  0  0  0  0  0  0  0  0  0
    5.9167   -0.7891    0.6202 O   0  0  0  0  0  0  0  0  0  0  0  0
    2.2374    1.2364   -0.2066 N   0  0  0  0  0  0  0  0  0  0  0  0
   -0.3485    0.7279    0.7762 N   0  0  2  0  0  0  0  0  0  0  0  0
    3.7725   -0.0973   -1.1598 N   0  0  0  0  0  0  0  0  0  0  0  0
   -3.9001   -1.9256    0.1369 N   0  0  0  0  0  0  0  0  0  0  0  0
    1.4698    0.1501   -0.7788 C   0  0  2  0  0  0  0  0  0  0  0  0
    0.4628   -0.3836    0.2396 C   0  0  0  0  0  0  0  0  0  0  0  0
    2.5339   -0.8544   -1.2164 C   0  0  0  0  0  0  0  0  0  0  0  0
    1.5461    2.3092    0.4777 C   0  0  0  0  0  0  0  0  0  0  0  0
    0.5074    1.7309    1.4419 C   0  0  0  0  0  0  0  0  0  0  0  0
    3.6043    1.1360   -0.4984 C   0  0  0  0  0  0  0  0  0  0  0  0
   -1.3560    0.2199    1.7068 C   0  0  0  0  0  0  0  0  0  0  0  0
    5.0313   -0.6524   -1.6060 C   0  0  0  0  0  0  0  0  0  0  0  0
   -2.5180   -0.4103    0.9860 C   0  0  0  0  0  0  0  0  0  0  0  0
    5.6500   -1.5505   -0.5505 C   0  0  0  0  0  0  0  0  0  0  0  0
   -3.5731    0.2737    0.3200 C   0  0  0  0  0  0  0  0  0  0  0  0
   -2.7468   -1.7607    0.8560 C   0  0  0  0  0  0  0  0  0  0  0  0
   -4.4263   -0.6999   -0.2039 C   0  0  0  0  0  0  0  0  0  0  0  0
   -3.8851    1.6320    0.1117 C   0  0  0  0  0  0  0  0  0  0  0  0
   -5.5806   -0.3819   -0.9283 C   0  0  0  0  0  0  0  0  0  0  0  0
   -4.4701   -3.2102   -0.2068 C   0  0  0  0  0  0  0  0  0  0  0  0
   -5.0365    1.9650   -0.6110 C   0  0  0  0  0  0  0  0  0  0  0  0
   -5.8698    0.9720   -1.1222 C   0  0  0  0  0  0  0  0  0  0  0  0
    6.5035   -1.5874    1.6389 C   0  0  0  0  0  0  0  0  0  0  0  0
    0.9494    0.5533   -1.6576 H   0  0  0  0  0  0  0  0  0  0  0  0
   -0.1647   -1.1247   -0.2675 H   0  0  0  0  0  0  0  0  0  0  0  0
    0.9857   -0.8984    1.0571 H   0  0  0  0  0  0  0  0  0  0  0  0
    2.6154   -1.7061   -0.5337 H   0  0  0  0  0  0  0  0  0  0  0  0
    2.3616   -1.2166   -2.2344 H   0  0  0  0  0  0  0  0  0  0  0  0
    1.0601    2.9239   -0.2887 H   0  0  0  0  0  0  0  0  0  0  0  0
    2.2720    2.9358    1.0053 H   0  0  0  0  0  0  0  0  0  0  0  0
    1.0201    1.2774    2.3008 H   0  0  0  0  0  0  0  0  0  0  0  0
   -0.1033    2.5586    1.8221 H   0  0  0  0  0  0  0  0  0  0  0  0
   -1.7701    1.0451    2.3028 H   0  0  0  0  0  0  0  0  0  0  0  0
   -0.9225   -0.4836    2.4303 H   0  0  0  0  0  0  0  0  0  0  0  0
    5.7079    0.1857   -1.8074 H   0  0  0  0  0  0  0  0  0  0  0  0
    4.8627   -1.1972   -2.5402 H   0  0  0  0  0  0  0  0  0  0  0  0
    6.5879   -1.9681   -0.9345 H   0  0  0  0  0  0  0  0  0  0  0  0
    4.9741   -2.3774   -0.3039 H   0  0  0  0  0  0  0  0  0  0  0  0
   -2.1836   -2.6118    1.2158 H   0  0  0  0  0  0  0  0  0  0  0  0
   -3.2460    2.4184    0.5030 H   0  0  0  0  0  0  0  0  0  0  0  0
   -6.2335   -1.1501   -1.3289 H   0  0  0  0  0  0  0  0  0  0  0  0
   -5.4701   -3.2718    0.2300 H   0  0  0  0  0  0  0  0  0  0  0  0
   -4.5169   -3.2865   -1.2961 H   0  0  0  0  0  0  0  0  0  0  0  0
   -3.8419   -4.0102    0.1933 H   0  0  0  0  0  0  0  0  0  0  0  0
   -5.2821    3.0109   -0.7748 H   0  0  0  0  0  0  0  0  0  0  0  0
   -6.7590    1.2532   -1.6806 H   0  0  0  0  0  0  0  0  0  0  0  0
    6.6875   -0.9528    2.5100 H   0  0  0  0  0  0  0  0  0  0  0  0
    7.4583   -2.0011    1.3003 H   0  0  0  0  0  0  0  0  0  0  0  0
    5.8251   -2.3944    1.9322 H   0  0  0  0  0  0  0  0  0  0  0  0
  1 12  2  0  0  0  0
  2 16  1  0  0  0  0
  2 25  1  0  0  0  0
  3  7  1  0  0  0  0
  3 10  1  0  0  0  0
  3 12  1  0  0  0  0
  4  8  1  0  0  0  0
  4 11  1  0  0  0  0
  4 13  1  0  0  0  0
  5  9  1  0  0  0  0
  5 12  1  0  0  0  0
  5 14  1  0  0  0  0
  6 18  1  0  0  0  0
  6 19  1  0  0  0  0
  6 22  1  0  0  0  0
  7  8  1  0  0  0  0
  7  9  1  0  0  0  0
  7 26  1  0  0  0  0
  8 27  1  0  0  0  0
  8 28  1  0  0  0  0
  9 29  1  0  0  0  0
  9 30  1  0  0  0  0
 10 11  1  0  0  0  0
 10 31  1  0  0  0  0
 10 32  1  0  0  0  0
 11 33  1  0  0  0  0
 11 34  1  0  0  0  0
 13 15  1  0  0  0  0
 13 35  1  0  0  0  0
 13 36  1  0  0  0  0
 14 16  1  0  0  0  0
 14 37  1  0  0  0  0
 14 38  1  0  0  0  0
 15 17  1  0  0  0  0
 15 18  2  0  0  0  0
 16 39  1  0  0  0  0
 16 40  1  0  0  0  0
 17 19  1  0  0  0  0
 17 20  2  0  0  0  0
 18 41  1  0  0  0  0
 19 21  2  0  0  0  0
 20 23  1  0  0  0  0
 20 42  1  0  0  0  0
 21 24  1  0  0  0  0
 21 43  1  0  0  0  0
 22 44  1  0  0  0  0
 22 45  1  0  0  0  0
 22 46  1  0  0  0  0
 23 24  2  0  0  0  0
 23 47  1  0  0  0  0
 24 48  1  0  0  0  0
 25 49  1  0  0  0  0
 25 50  1  0  0  0  0
 25 51  1  0  0  0  0
M  END
> <PUBCHEM_COMPOUND_CID>
75368706

> <PUBCHEM_CONFORMER_RMSD>
0.8

> <PUBCHEM_CONFORMER_DIVERSEORDER>
1
94
109
127
134
93
58
27
141
40
63
148
116
96
59
126
125
143
120
97
90
95
123
124
147
112
86
122
34
104
130
153
142
105
132
74
13
23
137
45
66
92
83
110
70
47
150
78
98
51
57
146
151
149
108
106
77
67
131
118
133
102
54
119
145
20
28
22
152
52
46
121
154
139
50
135
62
140
113
33
111
68
14
56
69
99
48
101
72
15
73
103
53
129
91
6
107
84
5
89
65
41
32
128
85
26
76
117
2
60
8
35
80
36
16
144
115
100
43
31
88
18
9
25
29
81
17
136
75
49
38
11
114
44
55
4
42
64
138
30
24
10
39
12
82
3
7
19
21
87
79
37
61
71

> <PUBCHEM_MMFF94_PARTIAL_CHARGES>
29
1 -0.57
10 0.3
11 0.27
12 0.69
13 0.45
14 0.3
15 -0.18
16 0.28
18 -0.3
19 -0.15
2 -0.56
20 -0.15
21 -0.15
22 0.26
23 -0.15
24 -0.15
25 0.28
3 -0.66
4 -0.81
41 0.15
42 0.15
43 0.15
47 0.15
48 0.15
5 -0.66
6 0.05
7 0.3
8 0.27
9 0.3

> <PUBCHEM_EFFECTIVE_ROTOR_COUNT>
6.2

> <PUBCHEM_PHARMACOPHORE_FEATURES>
8
1 1 acceptor
1 2 acceptor
1 4 cation
1 6 cation
5 3 5 7 9 12 rings
5 6 15 17 18 19 rings
6 17 19 20 21 23 24 rings
6 3 4 7 8 10 11 rings

> <PUBCHEM_HEAVY_ATOM_COUNT>
25

> <PUBCHEM_ATOM_DEF_STEREO_COUNT>
1

> <PUBCHEM_ATOM_UDEF_STEREO_COUNT>
0

> <PUBCHEM_BOND_DEF_STEREO_COUNT>
0

> <PUBCHEM_BOND_UDEF_STEREO_COUNT>
0

> <PUBCHEM_ISOTOPIC_ATOM_COUNT>
0

> <PUBCHEM_COMPONENT_COUNT>
1

> <PUBCHEM_CACTVS_TAUTO_COUNT>
1

> <PUBCHEM_CONFORMER_ID>
047E090200000001

> <PUBCHEM_MMFF94_ENERGY>
51.198

> <PUBCHEM_FEATURE_SELFOVERLAP>
40.784

> <PUBCHEM_SHAPE_FINGERPRINT>
10369192 42 8286189557726500610
10447042 23 17989491831430450036
10613725 11 17603305921162308634
10670039 82 17531520985061267221
10803635 8 18408887326247072567
10835480 77 18343299301118228848
11273773 42 12534472737068184314
11719270 70 18131067113386839958
11796584 16 17894921724182328738
11809386 21 18334295405194466171
12390115 104 11097851874200818263
13761468 95 17097479905036428253
13782708 43 18339084916520732883
14251752 14 18114180809163912883
14347332 77 18339080501315399603
1454969 45 9367046858150840273
14787075 74 13326847821253223814
14790565 3 8214145144816570254
14848160 23 17918274238342724150
14848178 5 17988932154178707014
14910302 57 18336255812714168045
15183329 4 18040437655252861414
15475509 8 14562814288318566126
15685185 35 13036608728180316010
15788980 27 18186526517960510424
16126227 98 9438242439805973718
17349148 13 17560816441047335904
17857418 61 18260266326767512090
18222031 100 18060149708869962804
19377110 9 12751234826452560498
200 152 17060346236280726433
20511986 3 18261944185574584466
20567600 234 16630230481845168682
21065201 7 18262232334977504297
221357 26 18272368690157282301
22393880 68 18409447011830195939
23198884 109 17530687619523780535
23557571 272 18191584371087135225
23559900 14 18342170124694379145
23572383 38 18130793330385423862
23929065 36 18127116477898512824
3004659 81 18409174303303346630
3009799 131 18201716215284922416
339767 52 18130785633803847174
3459 83 16660645107672644138
4280585 95 18411132515615738696
4325135 7 12463564084755743298
439807 62 18266742562019850919
44062 13 18411702118985035471
5085150 59 18272362049373465071
5104073 3 18201448011825625040
5283173 99 18410576145684167965
531348 171 18259983747889221787
559249 180 18334292046155175899
57724786 102 15213318442431910734
59755656 520 16515693225918986969
633830 44 16226338117553492276

> <PUBCHEM_SHAPE_MULTIPOLES>
482.83
16.08
2.52
1.42
8.68
0.6
-0.18
4.93
3.04
-1.53
-0.22
0.99
0.1
0.17

> <PUBCHEM_SHAPE_SELFOVERLAP>
1030.789

> <PUBCHEM_SHAPE_VOLUME>
272.1

> <PUBCHEM_COORDINATE_TYPE>
2
5
10

$$$$
