11943278
  -OEChem-12032416153D

 41 43  0     1  0  0  0  0  0999 V2000
   -2.2476    1.7353   -1.1051 O   0  0  0  0  0  0  0  0  0  0  0  0
   -3.4750   -1.2508    0.3046 O   0  0  0  0  0  0  0  0  0  0  0  0
    2.2191    1.3284   -0.6565 N   0  0  2  0  0  0  0  0  0  0  0  0
   -1.1889   -0.2598   -0.6795 N   0  0  0  0  0  0  0  0  0  0  0  0
    2.6959   -0.1150    1.4545 C   0  0  2  0  0  0  0  0  0  0  0  0
    3.5821   -0.5614    0.2693 C   0  0  2  0  0  0  0  0  0  0  0  0
    0.9462    0.7772   -0.1180 C   0  0  2  0  0  0  0  0  0  0  0  0
    1.2142   -0.2037    1.0451 C   0  0  0  0  0  0  0  0  0  0  0  0
    3.1562    0.2281   -0.9890 C   0  0  0  0  0  0  0  0  0  0  0  0
    3.0096    1.3711    1.7129 C   0  0  0  0  0  0  0  0  0  0  0  0
    2.8405    2.1604    0.4026 C   0  0  0  0  0  0  0  0  0  0  0  0
    3.5489   -2.0687    0.0263 C   0  0  0  0  0  0  0  0  0  0  0  0
    0.0778    0.1436   -1.2071 C   0  0  0  0  0  0  0  0  0  0  0  0
    4.5098   -2.4727   -1.0750 C   0  0  0  0  0  0  0  0  0  0  0  0
   -2.3048    0.5871   -0.6614 C   0  0  0  0  0  0  0  0  0  0  0  0
   -3.5449    0.0168   -0.1164 C   0  0  0  0  0  0  0  0  0  0  0  0
   -4.7612    0.5719    0.0310 C   0  0  0  0  0  0  0  0  0  0  0  0
   -5.5531   -0.4497    0.6076 C   0  0  0  0  0  0  0  0  0  0  0  0
   -4.7249   -1.5380    0.7542 C   0  0  0  0  0  0  0  0  0  0  0  0
    2.8913   -0.7125    2.3510 H   0  0  0  0  0  0  0  0  0  0  0  0
    4.6194   -0.2880    0.5118 H   0  0  0  0  0  0  0  0  0  0  0  0
    0.3678    1.6224    0.2838 H   0  0  0  0  0  0  0  0  0  0  0  0
    0.9592   -1.2358    0.7828 H   0  0  0  0  0  0  0  0  0  0  0  0
    0.5821    0.0674    1.9003 H   0  0  0  0  0  0  0  0  0  0  0  0
    4.0479    0.6519   -1.4694 H   0  0  0  0  0  0  0  0  0  0  0  0
    2.7043   -0.4147   -1.7512 H   0  0  0  0  0  0  0  0  0  0  0  0
    4.0337    1.4857    2.0870 H   0  0  0  0  0  0  0  0  0  0  0  0
    2.3361    1.7678    2.4822 H   0  0  0  0  0  0  0  0  0  0  0  0
    2.2307    3.0546    0.5817 H   0  0  0  0  0  0  0  0  0  0  0  0
    3.8131    2.5340    0.0578 H   0  0  0  0  0  0  0  0  0  0  0  0
    2.5432   -2.4079   -0.2441 H   0  0  0  0  0  0  0  0  0  0  0  0
    3.8252   -2.5929    0.9489 H   0  0  0  0  0  0  0  0  0  0  0  0
    0.5404   -0.7556   -1.6262 H   0  0  0  0  0  0  0  0  0  0  0  0
   -0.0799    0.8508   -2.0296 H   0  0  0  0  0  0  0  0  0  0  0  0
    4.2199   -2.0702   -2.0496 H   0  0  0  0  0  0  0  0  0  0  0  0
    5.5285   -2.1377   -0.8537 H   0  0  0  0  0  0  0  0  0  0  0  0
    4.5318   -3.5637   -1.1677 H   0  0  0  0  0  0  0  0  0  0  0  0
   -1.2799   -1.2019   -0.3095 H   0  0  0  0  0  0  0  0  0  0  0  0
   -5.0705    1.5736   -0.2304 H   0  0  0  0  0  0  0  0  0  0  0  0
   -6.5969   -0.3992    0.8821 H   0  0  0  0  0  0  0  0  0  0  0  0
   -4.8644   -2.5372    1.1406 H   0  0  0  0  0  0  0  0  0  0  0  0
  1 15  2  0  0  0  0
  2 16  1  0  0  0  0
  2 19  1  0  0  0  0
  3  7  1  0  0  0  0
  3  9  1  0  0  0  0
  3 11  1  0  0  0  0
  4 13  1  0  0  0  0
  4 15  1  0  0  0  0
  4 38  1  0  0  0  0
  5  6  1  0  0  0  0
  5  8  1  0  0  0  0
  5 10  1  0  0  0  0
  5 20  1  0  0  0  0
  6  9  1  0  0  0  0
  6 12  1  0  0  0  0
  6 21  1  0  0  0  0
  7  8  1  0  0  0  0
  7 13  1  0  0  0  0
  7 22  1  0  0  0  0
  8 23  1  0  0  0  0
  8 24  1  0  0  0  0
  9 25  1  0  0  0  0
  9 26  1  0  0  0  0
 10 11  1  0  0  0  0
 10 27  1  0  0  0  0
 10 28  1  0  0  0  0
 11 29  1  0  0  0  0
 11 30  1  0  0  0  0
 12 14  1  0  0  0  0
 12 31  1  0  0  0  0
 12 32  1  0  0  0  0
 13 33  1  0  0  0  0
 13 34  1  0  0  0  0
 14 35  1  0  0  0  0
 14 36  1  0  0  0  0
 14 37  1  0  0  0  0
 15 16  1  0  0  0  0
 16 17  2  0  0  0  0
 17 18  1  0  0  0  0
 17 39  1  0  0  0  0
 18 19  2  0  0  0  0
 18 40  1  0  0  0  0
 19 41  1  0  0  0  0
M  END
> <PUBCHEM_COMPOUND_CID>
11943278

> <PUBCHEM_CONFORMER_RMSD>
0.8

> <PUBCHEM_CONFORMER_DIVERSEORDER>
1
13
6
16
8
12
15
3
9
14
2
10
11
7
4
5

> <PUBCHEM_MMFF94_PARTIAL_CHARGES>
17
1 -0.57
11 0.27
13 0.3
15 0.71
16 0.05
17 -0.15
18 -0.15
19 -0.01
2 -0.28
3 -0.81
38 0.37
39 0.15
4 -0.73
40 0.15
41 0.15
7 0.27
9 0.27

> <PUBCHEM_EFFECTIVE_ROTOR_COUNT>
6.2

> <PUBCHEM_PHARMACOPHORE_FEATURES>
7
1 1 acceptor
1 14 hydrophobe
1 2 acceptor
1 3 cation
1 4 donor
5 2 16 17 18 19 rings
8 3 5 6 7 8 9 10 11 rings

> <PUBCHEM_HEAVY_ATOM_COUNT>
19

> <PUBCHEM_ATOM_DEF_STEREO_COUNT>
3

> <PUBCHEM_ATOM_UDEF_STEREO_COUNT>
0

> <PUBCHEM_BOND_DEF_STEREO_COUNT>
0

> <PUBCHEM_BOND_UDEF_STEREO_COUNT>
0

> <PUBCHEM_ISOTOPIC_ATOM_COUNT>
0

> <PUBCHEM_COMPONENT_COUNT>
1

> <PUBCHEM_CACTVS_TAUTO_COUNT>
2

> <PUBCHEM_CONFORMER_ID>
00B63D6E00000001

> <PUBCHEM_MMFF94_ENERGY>
33.0675

> <PUBCHEM_FEATURE_SELFOVERLAP>
35.52

> <PUBCHEM_SHAPE_FINGERPRINT>
11128504 68 15864084151843733374
11370993 144 18343304747710928761
11405975 8 18343023255443702521
11543360 7 11458427942444037985
11552529 35 17773035491391963415
12507560 40 18411410700700105205
12553582 1 16805322202135488613
12633257 1 17346881143711209759
12670546 177 11602831211187870035
128620 24 14273455881523384687
13464513 79 17603303761115551062
13533116 47 18272373074923116371
13675066 3 18341884186824271237
13911882 115 18188781676623510690
13955234 65 18343020034386964232
14251740 57 18261682579143023611
14251764 30 18196096547506558190
14252887 29 18334855039147674408
14341114 176 18412832360866067337
15061688 2 9006473019412170446
15806764 133 18335132047137169972
15880784 105 18343024432486586731
1813 80 16805040748623149967
18222031 100 17313101982121800191
20645477 70 18408323293671690238
21065199 12 18411131455048726561
212847 35 15698006253304410721
21521239 73 14707213159364222250
21521721 280 18200877392126443624
2215653 11 18336260150921118679
22646028 1 16877936153225541881
23466295 7 16617881565874784734
23503953 91 16056874736828979239
23559900 14 18260550017577900717
239999 70 17967814989642606928
3060560 45 15285366132639185190
312423 11 18339091414278581545
3421961 26 18342455907559996346
465052 167 18201446856627582830
474 4 14764344968120505685
4990 188 18040437668116716158
5104073 3 18410569544176802073
5374978 207 18187077390935770513
56616090 278 17416965217678314008
6049 1 18336253557661171876
8509985 295 16200148781150602994
960060 61 14056716850942525175
9709674 26 18114185288952212875

> <PUBCHEM_SHAPE_MULTIPOLES>
369.31
11.36
2.04
1.32
12.73
0.49
0.18
4.43
1.58
-2.48
-0.1
-0.73
-0.18
1.54

> <PUBCHEM_SHAPE_SELFOVERLAP>
780.153

> <PUBCHEM_SHAPE_VOLUME>
204.8

> <PUBCHEM_COORDINATE_TYPE>
2
5
10

$$$$
