45784389
  -OEChem-12032416353D

 78 81  0     1  0  0  0  0  0999 V2000
    0.0421   -1.5290    1.8518 O   0  0  0  0  0  0  0  0  0  0  0  0
   -4.3280   -2.3909   -1.0045 O   0  0  0  0  0  0  0  0  0  0  0  0
    5.3425    2.5392    0.2731 O   0  0  0  0  0  0  0  0  0  0  0  0
   -9.4106    2.8182    0.4451 O   0  0  0  0  0  0  0  0  0  0  0  0
    4.7739    0.3127   -0.0352 N   0  0  0  0  0  0  0  0  0  0  0  0
   -4.4795   -1.3564    1.0660 N   0  0  0  0  0  0  0  0  0  0  0  0
   -7.3355    0.8834    0.2165 N   0  0  0  0  0  0  0  0  0  0  0  0
    0.8241   -0.2423   -1.6566 C   0  0  1  0  0  0  0  0  0  0  0  0
    0.9933   -0.4444   -0.1140 C   0  0  2  0  0  0  0  0  0  0  0  0
    2.5041   -0.6578    0.2595 C   0  0  1  0  0  0  0  0  0  0  0  0
    0.0127   -1.5260    0.4237 C   0  0  2  0  0  0  0  0  0  0  0  0
   -0.6554    0.0771   -1.9759 C   0  0  0  0  0  0  0  0  0  0  0  0
    1.6740    0.9700   -2.1024 C   0  0  0  0  0  0  0  0  0  0  0  0
   -1.4536   -1.2566    0.0125 C   0  0  1  0  0  0  0  0  0  0  0  0
    3.3604    0.5314   -0.2597 C   0  0  2  0  0  0  0  0  0  0  0  0
   -1.6150   -0.9991   -1.4856 C   0  0  0  0  0  0  0  0  0  0  0  0
    3.1465    0.8321   -1.7430 C   0  0  0  0  0  0  0  0  0  0  0  0
    1.2506   -1.4909   -2.4695 C   0  0  0  0  0  0  0  0  0  0  0  0
   -2.3834   -2.3991    0.4391 C   0  0  2  0  0  0  0  0  0  0  0  0
    2.7466   -0.8348    1.7680 C   0  0  0  0  0  0  0  0  0  0  0  0
   -1.9351   -3.7078   -0.2018 C   0  0  0  0  0  0  0  0  0  0  0  0
   -3.8244   -2.0629    0.0678 C   0  0  0  0  0  0  0  0  0  0  0  0
    5.6532    1.3523    0.2153 C   0  0  0  0  0  0  0  0  0  0  0  0
    7.0756    0.9647    0.3979 C   0  0  0  0  0  0  0  0  0  0  0  0
   -5.8523   -0.9239    0.9447 C   0  0  0  0  0  0  0  0  0  0  0  0
   -5.9403    0.4612    0.3207 C   0  0  0  0  0  0  0  0  0  0  0  0
    8.0905    1.8736    0.0988 C   0  0  0  0  0  0  0  0  0  0  0  0
    7.3960   -0.3081    0.8699 C   0  0  0  0  0  0  0  0  0  0  0  0
    9.4260    1.5098    0.2718 C   0  0  0  0  0  0  0  0  0  0  0  0
    8.7314   -0.6720    1.0430 C   0  0  0  0  0  0  0  0  0  0  0  0
   -7.8523    1.3052    1.5258 C   0  0  0  0  0  0  0  0  0  0  0  0
   -7.4790    1.9749   -0.7569 C   0  0  0  0  0  0  0  0  0  0  0  0
    9.7464    0.2369    0.7440 C   0  0  0  0  0  0  0  0  0  0  0  0
   -9.3050    1.7520    1.3893 C   0  0  0  0  0  0  0  0  0  0  0  0
   -8.9403    2.4071   -0.8392 C   0  0  0  0  0  0  0  0  0  0  0  0
    0.7019    0.4989    0.3755 H   0  0  0  0  0  0  0  0  0  0  0  0
    2.8603   -1.5799   -0.2170 H   0  0  0  0  0  0  0  0  0  0  0  0
    0.3718   -2.5008    0.0888 H   0  0  0  0  0  0  0  0  0  0  0  0
   -0.7904    0.2132   -3.0567 H   0  0  0  0  0  0  0  0  0  0  0  0
   -0.9353    1.0321   -1.5107 H   0  0  0  0  0  0  0  0  0  0  0  0
    1.2873    1.8843   -1.6325 H   0  0  0  0  0  0  0  0  0  0  0  0
    1.5828    1.1204   -3.1857 H   0  0  0  0  0  0  0  0  0  0  0  0
   -1.7874   -0.3492    0.5378 H   0  0  0  0  0  0  0  0  0  0  0  0
    3.0690    1.4273    0.3059 H   0  0  0  0  0  0  0  0  0  0  0  0
   -2.6268   -0.6420   -1.7090 H   0  0  0  0  0  0  0  0  0  0  0  0
   -1.4658   -1.8940   -2.0926 H   0  0  0  0  0  0  0  0  0  0  0  0
    3.6129    0.0528   -2.3580 H   0  0  0  0  0  0  0  0  0  0  0  0
    3.6640    1.7621   -2.0120 H   0  0  0  0  0  0  0  0  0  0  0  0
    2.3102   -1.7319   -2.3528 H   0  0  0  0  0  0  0  0  0  0  0  0
    1.0763   -1.3311   -3.5401 H   0  0  0  0  0  0  0  0  0  0  0  0
    0.6956   -2.3878   -2.1810 H   0  0  0  0  0  0  0  0  0  0  0  0
   -2.3364   -2.5310    1.5279 H   0  0  0  0  0  0  0  0  0  0  0  0
    2.3697   -1.8000    2.1178 H   0  0  0  0  0  0  0  0  0  0  0  0
    3.8134   -0.8325    2.0138 H   0  0  0  0  0  0  0  0  0  0  0  0
    2.2723   -0.0334    2.3436 H   0  0  0  0  0  0  0  0  0  0  0  0
    5.1205   -0.6294   -0.1828 H   0  0  0  0  0  0  0  0  0  0  0  0
   -0.2268   -0.6473    2.1614 H   0  0  0  0  0  0  0  0  0  0  0  0
   -0.9673   -4.0534    0.1695 H   0  0  0  0  0  0  0  0  0  0  0  0
   -2.6511   -4.4967    0.0636 H   0  0  0  0  0  0  0  0  0  0  0  0
   -1.9123   -3.6948   -1.2934 H   0  0  0  0  0  0  0  0  0  0  0  0
   -3.9789   -1.1093    1.9146 H   0  0  0  0  0  0  0  0  0  0  0  0
   -6.4046   -1.6550    0.3428 H   0  0  0  0  0  0  0  0  0  0  0  0
   -6.2598   -0.9458    1.9593 H   0  0  0  0  0  0  0  0  0  0  0  0
   -5.3343    1.1857    0.8809 H   0  0  0  0  0  0  0  0  0  0  0  0
   -5.4929    0.4006   -0.6808 H   0  0  0  0  0  0  0  0  0  0  0  0
    7.8614    2.8685   -0.2740 H   0  0  0  0  0  0  0  0  0  0  0  0
    6.6366   -1.0344    1.1443 H   0  0  0  0  0  0  0  0  0  0  0  0
   10.2165    2.2171    0.0385 H   0  0  0  0  0  0  0  0  0  0  0  0
    8.9813   -1.6604    1.4175 H   0  0  0  0  0  0  0  0  0  0  0  0
   -7.8215    0.4892    2.2538 H   0  0  0  0  0  0  0  0  0  0  0  0
   -7.2543    2.1364    1.9221 H   0  0  0  0  0  0  0  0  0  0  0  0
   -6.8598    2.8315   -0.4601 H   0  0  0  0  0  0  0  0  0  0  0  0
   -7.1527    1.6469   -1.7505 H   0  0  0  0  0  0  0  0  0  0  0  0
   10.7861   -0.0460    0.8801 H   0  0  0  0  0  0  0  0  0  0  0  0
   -9.9562    0.9246    1.0821 H   0  0  0  0  0  0  0  0  0  0  0  0
   -9.6729    2.1231    2.3513 H   0  0  0  0  0  0  0  0  0  0  0  0
   -9.0390    3.2602   -1.5181 H   0  0  0  0  0  0  0  0  0  0  0  0
   -9.5794    1.6024   -1.2227 H   0  0  0  0  0  0  0  0  0  0  0  0
  1 11  1  0  0  0  0
  1 57  1  0  0  0  0
  2 22  2  0  0  0  0
  3 23  2  0  0  0  0
  4 34  1  0  0  0  0
  4 35  1  0  0  0  0
  5 15  1  0  0  0  0
  5 23  1  0  0  0  0
  5 56  1  0  0  0  0
  6 22  1  0  0  0  0
  6 25  1  0  0  0  0
  6 61  1  0  0  0  0
  7 26  1  0  0  0  0
  7 31  1  0  0  0  0
  7 32  1  0  0  0  0
  8  9  1  0  0  0  0
  8 12  1  0  0  0  0
  8 13  1  0  0  0  0
  8 18  1  0  0  0  0
  9 10  1  0  0  0  0
  9 11  1  0  0  0  0
  9 36  1  0  0  0  0
 10 15  1  0  0  0  0
 10 20  1  0  0  0  0
 10 37  1  0  0  0  0
 11 14  1  0  0  0  0
 11 38  1  0  0  0  0
 12 16  1  0  0  0  0
 12 39  1  0  0  0  0
 12 40  1  0  0  0  0
 13 17  1  0  0  0  0
 13 41  1  0  0  0  0
 13 42  1  0  0  0  0
 14 16  1  0  0  0  0
 14 19  1  0  0  0  0
 14 43  1  0  0  0  0
 15 17  1  0  0  0  0
 15 44  1  0  0  0  0
 16 45  1  0  0  0  0
 16 46  1  0  0  0  0
 17 47  1  0  0  0  0
 17 48  1  0  0  0  0
 18 49  1  0  0  0  0
 18 50  1  0  0  0  0
 18 51  1  0  0  0  0
 19 21  1  0  0  0  0
 19 22  1  0  0  0  0
 19 52  1  0  0  0  0
 20 53  1  0  0  0  0
 20 54  1  0  0  0  0
 20 55  1  0  0  0  0
 21 58  1  0  0  0  0
 21 59  1  0  0  0  0
 21 60  1  0  0  0  0
 23 24  1  0  0  0  0
 24 27  2  0  0  0  0
 24 28  1  0  0  0  0
 25 26  1  0  0  0  0
 25 62  1  0  0  0  0
 25 63  1  0  0  0  0
 26 64  1  0  0  0  0
 26 65  1  0  0  0  0
 27 29  1  0  0  0  0
 27 66  1  0  0  0  0
 28 30  2  0  0  0  0
 28 67  1  0  0  0  0
 29 33  2  0  0  0  0
 29 68  1  0  0  0  0
 30 33  1  0  0  0  0
 30 69  1  0  0  0  0
 31 34  1  0  0  0  0
 31 70  1  0  0  0  0
 31 71  1  0  0  0  0
 32 35  1  0  0  0  0
 32 72  1  0  0  0  0
 32 73  1  0  0  0  0
 33 74  1  0  0  0  0
 34 75  1  0  0  0  0
 34 76  1  0  0  0  0
 35 77  1  0  0  0  0
 35 78  1  0  0  0  0
M  END
> <PUBCHEM_COMPOUND_CID>
45784389

> <PUBCHEM_CONFORMER_RMSD>
1.2

> <PUBCHEM_CONFORMER_DIVERSEORDER>
1
46
109
95
16
52
121
125
35
84
63
49
126
23
123
72
101
39
56
10
51
71
81
77
127
45
107
75
108
96
12
118
98
40
87
44
119
7
54
86
70
114
99
100
120
65
22
36
58
112
116
94
74
122
37
79
85
60
43
59
38
69
103
3
73
113
105
62
48
110
83
25
80
102
93
29
124
4
88
6
117
68
61
31
11
90
111
41
89
78
20
33
97
115
104
24
15
50
76
21
106
2
34
9
92
28
13
91
5
18
26
55
8
53
82
67
27
17
47
32
57
19
30
42
64
66
14

> <PUBCHEM_MMFF94_PARTIAL_CHARGES>
32
1 -0.68
11 0.28
15 0.3
19 0.06
2 -0.57
22 0.57
23 0.54
24 0.09
25 0.3
26 0.27
27 -0.15
28 -0.15
29 -0.15
3 -0.57
30 -0.15
31 0.27
32 0.27
33 -0.15
34 0.28
35 0.28
4 -0.56
5 -0.73
56 0.37
57 0.4
6 -0.73
61 0.37
66 0.15
67 0.15
68 0.15
69 0.15
7 -0.81
74 0.15

> <PUBCHEM_EFFECTIVE_ROTOR_COUNT>
11.8

> <PUBCHEM_PHARMACOPHORE_FEATURES>
13
1 1 acceptor
1 1 donor
1 2 acceptor
1 21 hydrophobe
1 3 acceptor
1 4 acceptor
1 5 donor
1 6 donor
1 7 cation
6 24 27 28 29 30 33 rings
6 4 7 31 32 34 35 rings
6 8 9 10 13 15 17 rings
6 8 9 11 12 14 16 rings

> <PUBCHEM_HEAVY_ATOM_COUNT>
35

> <PUBCHEM_ATOM_DEF_STEREO_COUNT>
6

> <PUBCHEM_ATOM_UDEF_STEREO_COUNT>
1

> <PUBCHEM_BOND_DEF_STEREO_COUNT>
0

> <PUBCHEM_BOND_UDEF_STEREO_COUNT>
0

> <PUBCHEM_ISOTOPIC_ATOM_COUNT>
0

> <PUBCHEM_COMPONENT_COUNT>
1

> <PUBCHEM_CACTVS_TAUTO_COUNT>
4

> <PUBCHEM_CONFORMER_ID>
02BA9D4500000001

> <PUBCHEM_MMFF94_ENERGY>
93.5806

> <PUBCHEM_FEATURE_SELFOVERLAP>
65.986

> <PUBCHEM_SHAPE_FINGERPRINT>
10076449 9 11746937581363811149
10190108 129 16587739824592671200
11050421 43 15286185196288517831
11181472 205 18342747321486753220
11443803 9 14476955667383683190
11456790 92 16950573189955143933
11478447 183 11455892447683058353
11578821 258 18198340856929310872
11607047 74 9582643500082333386
12539745 222 13045937998426122975
12539747 363 16515684463711528228
12838862 33 15626502792390679418
13383668 40 18339645526276225742
13530399 1 18188216519759389996
1361 4 8790344221394424296
13673619 4 12035448359082842559
13782708 43 11170178891595175141
14117953 113 15913330213159165080
14150023 24 17775284976228878438
14671636 106 8718825388158841633
14931854 50 13254796816291103957
150020 25 12391504287341498711
15131766 46 17339271643533779856
15350500 55 18060422408569072199
15419008 145 17022904519892442021
15439362 3 18340489971990545279
18335252 98 11746929881152178880
19315958 150 18410577249601597914
20105231 36 15574710301401028922
20721686 146 18413671300964960405
21130935 74 18116150163992907002
21150785 3 9871477517355428842
21267235 1 16660357126253139646
21344244 246 11023808600744883051
21781055 127 17895489063597166222
21792938 703 11239703211222541949
21792965 68 18202008711548791273
21927370 108 14345788331998910310
22149856 69 18186517723160348008
23389318 12 11312052167072502162
23522609 53 17096952349475586806
23576562 1 15769197475192835753
25269216 80 17203314634593657773
3178227 256 16008750225720825906
3383291 50 16226322733571469618
3552219 110 15357699682710409894
4330586 98 12535047764416861109
54039377 194 9367341540473654953
58260988 521 13479131298180545083
6058803 2 17245567928975789127
6204607 403 17899142895905059948

> <PUBCHEM_SHAPE_MULTIPOLES>
681.86
32.47
2.92
1.79
3.57
0.74
-0.74
-29.93
13.8
5.21
0.01
0.41
0.18
-0.65

> <PUBCHEM_SHAPE_SELFOVERLAP>
1419.227

> <PUBCHEM_SHAPE_VOLUME>
382.9

> <PUBCHEM_COORDINATE_TYPE>
2
5
10

$$$$
