71694036
  -OEChem-12032416273D

 45 47  0     1  0  0  0  0  0999 V2000
   -4.0538    2.2668   -0.8470 F   0  0  0  0  0  0  0  0  0  0  0  0
   -4.5636    2.0078    1.2450 F   0  0  0  0  0  0  0  0  0  0  0  0
   -5.9192    1.2938   -0.2978 F   0  0  0  0  0  0  0  0  0  0  0  0
    1.9081   -3.3790    0.7268 O   0  0  0  0  0  0  0  0  0  0  0  0
    4.3032   -2.0758    1.0293 O   0  0  0  0  0  0  0  0  0  0  0  0
    0.3738   -0.9577   -0.4022 N   0  0  0  0  0  0  0  0  0  0  0  0
    1.7842   -1.0728   -0.0486 C   0  0  2  0  0  0  0  0  0  0  0  0
    2.6837   -0.1981   -0.9516 C   0  0  2  0  0  0  0  0  0  0  0  0
    2.3160   -2.4850   -0.2912 C   0  0  1  0  0  0  0  0  0  0  0  0
    4.0102   -0.9900   -1.1063 C   0  0  0  0  0  0  0  0  0  0  0  0
    3.8277   -2.2767   -0.2988 C   0  0  1  0  0  0  0  0  0  0  0  0
    2.8610    1.2118   -0.4301 C   0  0  0  0  0  0  0  0  0  0  0  0
   -0.4744   -1.3936    0.6982 C   0  0  0  0  0  0  0  0  0  0  0  0
    1.9632    2.2119   -0.8036 C   0  0  0  0  0  0  0  0  0  0  0  0
    3.9223    1.5107    0.4240 C   0  0  0  0  0  0  0  0  0  0  0  0
   -1.9364   -1.2914    0.3535 C   0  0  0  0  0  0  0  0  0  0  0  0
    2.1269    3.5112   -0.3229 C   0  0  0  0  0  0  0  0  0  0  0  0
    4.0860    2.8099    0.9047 C   0  0  0  0  0  0  0  0  0  0  0  0
    3.1884    3.8101    0.5312 C   0  0  0  0  0  0  0  0  0  0  0  0
   -2.5677   -0.0476    0.3532 C   0  0  0  0  0  0  0  0  0  0  0  0
   -2.6597   -2.4408    0.0348 C   0  0  0  0  0  0  0  0  0  0  0  0
   -3.9223    0.0469    0.0342 C   0  0  0  0  0  0  0  0  0  0  0  0
   -4.0142   -2.3463   -0.2844 C   0  0  0  0  0  0  0  0  0  0  0  0
   -4.6455   -1.1024   -0.2846 C   0  0  0  0  0  0  0  0  0  0  0  0
   -4.5980    1.3765    0.0343 C   0  0  0  0  0  0  0  0  0  0  0  0
    1.9301   -0.7848    1.0026 H   0  0  0  0  0  0  0  0  0  0  0  0
    2.2503   -0.1273   -1.9609 H   0  0  0  0  0  0  0  0  0  0  0  0
    1.9791   -2.8717   -1.2618 H   0  0  0  0  0  0  0  0  0  0  0  0
    4.1004   -1.2671   -2.1659 H   0  0  0  0  0  0  0  0  0  0  0  0
    4.9314   -0.4585   -0.8601 H   0  0  0  0  0  0  0  0  0  0  0  0
    4.3621   -3.1316   -0.7237 H   0  0  0  0  0  0  0  0  0  0  0  0
    0.1578    0.0157   -0.6148 H   0  0  0  0  0  0  0  0  0  0  0  0
   -0.2913   -0.7863    1.5948 H   0  0  0  0  0  0  0  0  0  0  0  0
   -0.2649   -2.4293    0.9819 H   0  0  0  0  0  0  0  0  0  0  0  0
    2.3612   -4.2249    0.5699 H   0  0  0  0  0  0  0  0  0  0  0  0
    5.2566   -1.8935    0.9724 H   0  0  0  0  0  0  0  0  0  0  0  0
    1.1337    1.9951   -1.4711 H   0  0  0  0  0  0  0  0  0  0  0  0
    4.6170    0.7573    0.7793 H   0  0  0  0  0  0  0  0  0  0  0  0
    1.4280    4.2900   -0.6137 H   0  0  0  0  0  0  0  0  0  0  0  0
    4.9059    3.0409    1.5786 H   0  0  0  0  0  0  0  0  0  0  0  0
    3.3145    4.8211    0.9075 H   0  0  0  0  0  0  0  0  0  0  0  0
   -2.0064    0.8500    0.6023 H   0  0  0  0  0  0  0  0  0  0  0  0
   -2.1808   -3.4164    0.0285 H   0  0  0  0  0  0  0  0  0  0  0  0
   -4.5771   -3.2411   -0.5332 H   0  0  0  0  0  0  0  0  0  0  0  0
   -5.7012   -1.0506   -0.5361 H   0  0  0  0  0  0  0  0  0  0  0  0
  1 25  1  0  0  0  0
  2 25  1  0  0  0  0
  3 25  1  0  0  0  0
  4  9  1  0  0  0  0
  4 35  1  0  0  0  0
  5 11  1  0  0  0  0
  5 36  1  0  0  0  0
  6  7  1  0  0  0  0
  6 13  1  0  0  0  0
  6 32  1  0  0  0  0
  7  8  1  0  0  0  0
  7  9  1  0  0  0  0
  7 26  1  0  0  0  0
  8 10  1  0  0  0  0
  8 12  1  0  0  0  0
  8 27  1  0  0  0  0
  9 11  1  0  0  0  0
  9 28  1  0  0  0  0
 10 11  1  0  0  0  0
 10 29  1  0  0  0  0
 10 30  1  0  0  0  0
 11 31  1  0  0  0  0
 12 14  2  0  0  0  0
 12 15  1  0  0  0  0
 13 16  1  0  0  0  0
 13 33  1  0  0  0  0
 13 34  1  0  0  0  0
 14 17  1  0  0  0  0
 14 37  1  0  0  0  0
 15 18  2  0  0  0  0
 15 38  1  0  0  0  0
 16 20  2  0  0  0  0
 16 21  1  0  0  0  0
 17 19  2  0  0  0  0
 17 39  1  0  0  0  0
 18 19  1  0  0  0  0
 18 40  1  0  0  0  0
 19 41  1  0  0  0  0
 20 22  1  0  0  0  0
 20 42  1  0  0  0  0
 21 23  2  0  0  0  0
 21 43  1  0  0  0  0
 22 24  2  0  0  0  0
 22 25  1  0  0  0  0
 23 24  1  0  0  0  0
 23 44  1  0  0  0  0
 24 45  1  0  0  0  0
M  END
> <PUBCHEM_COMPOUND_CID>
71694036

> <PUBCHEM_CONFORMER_RMSD>
0.8

> <PUBCHEM_CONFORMER_DIVERSEORDER>
1
31
39
47
6
25
7
50
48
46
21
67
36
66
30
34
38
55
28
12
51
33
61
64
23
62
63
8
40
9
13
41
54
27
14
57
60
32
4
59
65
10
29
5
22
53
35
52
49
17
15
58
20
56
18
19
2
45
43
11
26
44
37
3
24
42
16

> <PUBCHEM_MMFF94_PARTIAL_CHARGES>
36
1 -0.34
11 0.28
12 -0.14
13 0.41
14 -0.15
15 -0.15
16 -0.14
17 -0.15
18 -0.15
19 -0.15
2 -0.34
20 -0.15
21 -0.15
22 -0.14
23 -0.15
24 -0.15
25 1.16
3 -0.34
32 0.36
35 0.4
36 0.4
37 0.15
38 0.15
39 0.15
4 -0.68
40 0.15
41 0.15
42 0.15
43 0.15
44 0.15
45 0.15
5 -0.68
6 -0.9
7 0.27
8 0.14
9 0.28

> <PUBCHEM_EFFECTIVE_ROTOR_COUNT>
6

> <PUBCHEM_PHARMACOPHORE_FEATURES>
9
1 4 acceptor
1 4 donor
1 5 acceptor
1 5 donor
1 6 cation
1 6 donor
5 7 8 9 10 11 rings
6 12 14 15 17 18 19 rings
6 16 20 21 22 23 24 rings

> <PUBCHEM_HEAVY_ATOM_COUNT>
25

> <PUBCHEM_ATOM_DEF_STEREO_COUNT>
4

> <PUBCHEM_ATOM_UDEF_STEREO_COUNT>
0

> <PUBCHEM_BOND_DEF_STEREO_COUNT>
0

> <PUBCHEM_BOND_UDEF_STEREO_COUNT>
0

> <PUBCHEM_ISOTOPIC_ATOM_COUNT>
0

> <PUBCHEM_COMPONENT_COUNT>
1

> <PUBCHEM_CACTVS_TAUTO_COUNT>
1

> <PUBCHEM_CONFORMER_ID>
0445F6D400000001

> <PUBCHEM_MMFF94_ENERGY>
66.208

> <PUBCHEM_FEATURE_SELFOVERLAP>
45.682

> <PUBCHEM_SHAPE_FINGERPRINT>
11370993 70 18122625217421227104
11405975 8 18410859845611914427
12422481 6 18191560074325780256
12549972 3 17822589281821953210
12633257 1 18335419011139879439
12769317 202 18201153381607186064
12788726 201 17686067093815729770
12925494 130 18336831884441713601
13583140 156 18115607958462363843
13878862 14 18188472593887133149
14251764 38 18265052611940434496
14466204 15 18263638472731511378
14790565 3 17974859681297433380
14848178 96 18409450322991563837
15420108 30 18127675219178992078
15475509 84 17829318100185108466
17492 89 18411422855579450311
17844677 252 18412271657328702515
17868525 174 18263638485768965194
18335252 114 18048590422952874861
18681886 176 18343298146304964506
20567600 299 18412546504985843420
20715895 44 18270399374268292409
21033648 144 18409441488686694965
21033648 29 17385998434928360901
21065198 57 18411140255283956111
21133410 127 17968374671037623741
21315763 129 18339077193842168658
21315764 268 18335979801278405069
21452121 103 18339919420160183570
21709351 56 18343019990910251462
21859007 373 17533195502504875285
21860390 5 18271534104437738742
22122407 14 18124331419635800049
22393880 68 18270411593244261622
23227448 37 18411138061098415405
23559900 14 18342457023813721330
245318 6 16884985345177842060
345986 75 17172346712655173682
474 4 18194118753578316038
508706 21 17822001000441661101
5104073 3 18335706052737143115
543358 83 18410581656300918294
5895379 119 17773609212758924856
6328613 192 17900545881088877756
6371009 1 17907281496976533884
6443956 14 18409733928920458150
67856867 119 18339917211988181490
7808743 9 17329994006914435296
84936 182 18269840976800512488
9709674 26 18336833107773721363
9981440 41 18120371218315385131

> <PUBCHEM_SHAPE_MULTIPOLES>
475.95
11.86
4.61
0.95
11.66
1.56
-0.02
4.39
-0.12
-3.76
-0.53
-0.45
0.08
0.34

> <PUBCHEM_SHAPE_SELFOVERLAP>
1021.959

> <PUBCHEM_SHAPE_VOLUME>
264.4

> <PUBCHEM_COORDINATE_TYPE>
2
5
10

$$$$
