45360808
  -OEChem-12032416233D

 58 60  0     1  0  0  0  0  0999 V2000
    0.1130   -0.3520    1.5496 O   0  0  0  0  0  0  0  0  0  0  0  0
   -6.4062   -0.1111    0.5539 O   0  0  0  0  0  0  0  0  0  0  0  0
    7.9976   -1.5744   -0.9886 O   0  0  0  0  0  0  0  0  0  0  0  0
    7.1015   -3.2390    0.2735 O   0  0  0  0  0  0  0  0  0  0  0  0
    1.4957    1.1981   -0.1761 N   0  0  1  0  0  0  0  0  0  0  0  0
   -2.0525    1.7062   -0.9130 N   0  0  1  0  0  0  0  0  0  0  0  0
   -1.5691    1.1641    1.8791 N   0  0  0  0  0  0  0  0  0  0  0  0
   -5.1129   -2.0362    0.4514 N   0  0  0  0  0  0  0  0  0  0  0  0
   -0.6309    2.1164   -0.9014 C   0  0  1  0  0  0  0  0  0  0  0  0
    0.2339    1.7585    0.3429 C   0  0  1  0  0  0  0  0  0  0  0  0
    0.2010    1.5202   -2.0522 C   0  0  0  0  0  0  0  0  0  0  0  0
    1.6267    1.6457   -1.5581 C   0  0  0  0  0  0  0  0  0  0  0  0
   -2.8864    2.3432    0.1443 C   0  0  2  0  0  0  0  0  0  0  0  0
   -0.3916    0.7402    1.2927 C   0  0  0  0  0  0  0  0  0  0  0  0
   -2.2300    2.4079    1.5373 C   0  0  0  0  0  0  0  0  0  0  0  0
    2.6586    1.5523    0.6277 C   0  0  0  0  0  0  0  0  0  0  0  0
   -4.2274    1.5952    0.2975 C   0  0  0  0  0  0  0  0  0  0  0  0
   -2.6517    1.9308   -2.2395 C   0  0  0  0  0  0  0  0  0  0  0  0
   -4.0071    0.0938    0.3003 C   0  0  0  0  0  0  0  0  0  0  0  0
    3.8015    0.5964    0.4118 C   0  0  0  0  0  0  0  0  0  0  0  0
   -5.3144   -0.6637    0.4489 C   0  0  0  0  0  0  0  0  0  0  0  0
    3.7733   -0.6679    1.0005 C   0  0  0  0  0  0  0  0  0  0  0  0
    4.8885    0.9748   -0.3764 C   0  0  0  0  0  0  0  0  0  0  0  0
    4.8319   -1.5538    0.8007 C   0  0  0  0  0  0  0  0  0  0  0  0
    5.9471    0.0888   -0.5760 C   0  0  0  0  0  0  0  0  0  0  0  0
    5.9188   -1.1756    0.0124 C   0  0  0  0  0  0  0  0  0  0  0  0
   -6.2020   -2.9750    0.5817 C   0  0  0  0  0  0  0  0  0  0  0  0
    7.0225   -2.0993   -0.1969 C   0  0  0  0  0  0  0  0  0  0  0  0
   -6.7417   -3.3410   -0.7275 C   0  0  0  0  0  0  0  0  0  0  0  0
   -7.1877   -3.6436   -1.8004 C   0  0  0  0  0  0  0  0  0  0  0  0
   -0.5878    3.2103   -1.0201 H   0  0  0  0  0  0  0  0  0  0  0  0
    0.4371    2.6791    0.9062 H   0  0  0  0  0  0  0  0  0  0  0  0
    0.0586    2.0588   -2.9948 H   0  0  0  0  0  0  0  0  0  0  0  0
   -0.0496    0.4632   -2.2137 H   0  0  0  0  0  0  0  0  0  0  0  0
    1.9603    2.6887   -1.6308 H   0  0  0  0  0  0  0  0  0  0  0  0
    2.3033    1.0132   -2.1408 H   0  0  0  0  0  0  0  0  0  0  0  0
   -3.1124    3.3809   -0.1381 H   0  0  0  0  0  0  0  0  0  0  0  0
   -2.9661    2.6113    2.3230 H   0  0  0  0  0  0  0  0  0  0  0  0
   -1.5044    3.2263    1.5824 H   0  0  0  0  0  0  0  0  0  0  0  0
    2.4095    1.5032    1.6972 H   0  0  0  0  0  0  0  0  0  0  0  0
    2.9745    2.5906    0.4586 H   0  0  0  0  0  0  0  0  0  0  0  0
   -4.7485    1.9089    1.2111 H   0  0  0  0  0  0  0  0  0  0  0  0
   -4.9046    1.8666   -0.5220 H   0  0  0  0  0  0  0  0  0  0  0  0
   -2.0047    0.5589    2.5682 H   0  0  0  0  0  0  0  0  0  0  0  0
   -2.6038    2.9864   -2.5303 H   0  0  0  0  0  0  0  0  0  0  0  0
   -2.1541    1.3337   -3.0102 H   0  0  0  0  0  0  0  0  0  0  0  0
   -3.6979    1.6154   -2.2835 H   0  0  0  0  0  0  0  0  0  0  0  0
   -3.5516   -0.2615   -0.6304 H   0  0  0  0  0  0  0  0  0  0  0  0
   -3.3818   -0.2338    1.1317 H   0  0  0  0  0  0  0  0  0  0  0  0
    2.9337   -0.9746    1.6183 H   0  0  0  0  0  0  0  0  0  0  0  0
    4.9215    1.9564   -0.8416 H   0  0  0  0  0  0  0  0  0  0  0  0
    4.7911   -2.5342    1.2681 H   0  0  0  0  0  0  0  0  0  0  0  0
    6.7729    0.4240   -1.1972 H   0  0  0  0  0  0  0  0  0  0  0  0
   -4.1725   -2.4051    0.3419 H   0  0  0  0  0  0  0  0  0  0  0  0
   -5.8078   -3.8577    1.0948 H   0  0  0  0  0  0  0  0  0  0  0  0
   -6.9841   -2.5384    1.2115 H   0  0  0  0  0  0  0  0  0  0  0  0
    8.7369   -2.2050   -1.1235 H   0  0  0  0  0  0  0  0  0  0  0  0
   -7.5832   -3.9118   -2.7521 H   0  0  0  0  0  0  0  0  0  0  0  0
  1 14  2  0  0  0  0
  2 21  2  0  0  0  0
  3 28  1  0  0  0  0
  3 57  1  0  0  0  0
  4 28  2  0  0  0  0
  5 10  1  0  0  0  0
  5 12  1  0  0  0  0
  5 16  1  0  0  0  0
  6  9  1  0  0  0  0
  6 13  1  0  0  0  0
  6 18  1  0  0  0  0
  7 14  1  0  0  0  0
  7 15  1  0  0  0  0
  7 44  1  0  0  0  0
  8 21  1  0  0  0  0
  8 27  1  0  0  0  0
  8 54  1  0  0  0  0
  9 10  1  0  0  0  0
  9 11  1  0  0  0  0
  9 31  1  0  0  0  0
 10 14  1  0  0  0  0
 10 32  1  0  0  0  0
 11 12  1  0  0  0  0
 11 33  1  0  0  0  0
 11 34  1  0  0  0  0
 12 35  1  0  0  0  0
 12 36  1  0  0  0  0
 13 15  1  0  0  0  0
 13 17  1  0  0  0  0
 13 37  1  0  0  0  0
 15 38  1  0  0  0  0
 15 39  1  0  0  0  0
 16 20  1  0  0  0  0
 16 40  1  0  0  0  0
 16 41  1  0  0  0  0
 17 19  1  0  0  0  0
 17 42  1  0  0  0  0
 17 43  1  0  0  0  0
 18 45  1  0  0  0  0
 18 46  1  0  0  0  0
 18 47  1  0  0  0  0
 19 21  1  0  0  0  0
 19 48  1  0  0  0  0
 19 49  1  0  0  0  0
 20 22  2  0  0  0  0
 20 23  1  0  0  0  0
 22 24  1  0  0  0  0
 22 50  1  0  0  0  0
 23 25  2  0  0  0  0
 23 51  1  0  0  0  0
 24 26  2  0  0  0  0
 24 52  1  0  0  0  0
 25 26  1  0  0  0  0
 25 53  1  0  0  0  0
 26 28  1  0  0  0  0
 27 29  1  0  0  0  0
 27 55  1  0  0  0  0
 27 56  1  0  0  0  0
 29 30  3  0  0  0  0
 30 58  1  0  0  0  0
M  END
> <PUBCHEM_COMPOUND_CID>
45360808

> <PUBCHEM_CONFORMER_RMSD>
1

> <PUBCHEM_CONFORMER_DIVERSEORDER>
1
67
41
38
13
85
57
71
62
37
66
86
44
64
2
50
84
12
80
58
60
79
36
18
32
73
82
52
42
21
49
70
77
34
68
10
81
17
59
4
55
46
40
26
83
8
51
28
63
24
76
54
29
33
72
30
25
69
15
11
53
16
39
56
45
14
61
47
31
19
75
20
7
5
35
22
74
48
6
27
78
3
23
65
43
9

> <PUBCHEM_MMFF94_PARTIAL_CHARGES>
36
1 -0.57
10 0.33
12 0.27
13 0.27
14 0.57
15 0.3
16 0.41
18 0.27
19 0.06
2 -0.57
20 -0.14
21 0.57
22 -0.15
23 -0.15
24 -0.15
25 -0.15
26 0.09
27 0.5
28 0.63
29 -0.2
3 -0.65
30 -0.18
4 -0.57
44 0.37
5 -0.81
50 0.15
51 0.15
52 0.15
53 0.15
54 0.37
57 0.5
58 0.18
6 -0.81
7 -0.73
8 -0.73
9 0.27

> <PUBCHEM_EFFECTIVE_ROTOR_COUNT>
9.4

> <PUBCHEM_PHARMACOPHORE_FEATURES>
13
1 1 acceptor
1 2 acceptor
1 3 acceptor
1 30 hydrophobe
1 4 acceptor
1 5 cation
1 6 cation
1 7 donor
1 8 donor
3 3 4 28 anion
5 5 9 10 11 12 rings
6 20 22 23 24 25 26 rings
7 6 7 9 10 13 14 15 rings

> <PUBCHEM_HEAVY_ATOM_COUNT>
30

> <PUBCHEM_ATOM_DEF_STEREO_COUNT>
3

> <PUBCHEM_ATOM_UDEF_STEREO_COUNT>
0

> <PUBCHEM_BOND_DEF_STEREO_COUNT>
0

> <PUBCHEM_BOND_UDEF_STEREO_COUNT>
0

> <PUBCHEM_ISOTOPIC_ATOM_COUNT>
0

> <PUBCHEM_COMPONENT_COUNT>
1

> <PUBCHEM_CACTVS_TAUTO_COUNT>
6

> <PUBCHEM_CONFORMER_ID>
02B426A800000001

> <PUBCHEM_MMFF94_ENERGY>
77.1249

> <PUBCHEM_FEATURE_SELFOVERLAP>
66.064

> <PUBCHEM_SHAPE_FINGERPRINT>
11393246 34 18410851071315527615
11497681 19 18408606993757841652
117089 54 17826245270213465299
11963148 33 18190175686144696122
12035758 1 15051737516575434425
13533116 47 18336271244632194536
1361 4 18340770437554294154
13668630 136 18341618054177461270
13690498 29 17530964640377156973
13782708 43 18341610429740098817
14068700 675 18412828001331993329
14931854 50 17676198100624577099
15163728 17 10881940780903994441
16126227 98 8574439742610252871
16994733 274 8790880757788949486
19438510 23 10087648108687693655
20028762 73 18411418418867443602
20775438 99 17610336417664559851
21424621 283 10519985954590290572
21774942 28 8358257038842440158
22122407 14 9799108782627487658
23522609 53 18122661376467166465
23559900 14 18410289233168409656
24983565 74 18192704549924889218
2838139 119 8070028840043689555
392239 28 14333115343971367560
406291 66 18341893043406291839
44802255 64 12324253753592592264
465052 167 18202286901118171492
474113 269 18130213978838122927
5104073 3 15122923202361641672
5385378 56 13182743598709170172
5718773 13 18341893025962080819
6328613 192 8935002551276638219
6712543 237 16773810216428042359
96874 4 18411416245782718991
9896288 288 17702955708323905305

> <PUBCHEM_SHAPE_MULTIPOLES>
573.98
20.74
3.94
1.67
6.89
3.21
0.5
28.3
3.08
-4.86
0.95
-1.2
-0.58
-1.61

> <PUBCHEM_SHAPE_SELFOVERLAP>
1201.249

> <PUBCHEM_SHAPE_VOLUME>
322

> <PUBCHEM_COORDINATE_TYPE>
2
5
10

$$$$
