75367744
  -OEChem-12032416403D

 44 46  0     1  0  0  0  0  0999 V2000
    4.1895    1.8271    0.2371 O   0  0  0  0  0  0  0  0  0  0  0  0
    0.6039    2.1939    0.9185 O   0  0  0  0  0  0  0  0  0  0  0  0
    2.4899   -2.6483   -1.2524 O   0  0  0  0  0  0  0  0  0  0  0  0
   -1.6039   -1.8435   -0.4901 O   0  0  0  0  0  0  0  0  0  0  0  0
   -4.4244    0.9507   -0.9847 O   0  0  0  0  0  0  0  0  0  0  0  0
    2.6075   -0.7695    0.1449 N   0  0  0  0  0  0  0  0  0  0  0  0
   -0.3753   -1.4497   -1.0061 N   0  0  0  0  0  0  0  0  0  0  0  0
    1.7022    1.5231    0.3029 C   0  0  2  0  0  0  0  0  0  0  0  0
    1.9416    0.2007    1.0288 C   0  0  0  0  0  0  0  0  0  0  0  0
    4.0347   -0.5514   -0.1036 C   0  0  0  0  0  0  0  0  0  0  0  0
    2.9161    2.4570    0.3008 C   0  0  0  0  0  0  0  0  0  0  0  0
    4.3145    0.8043   -0.7445 C   0  0  0  0  0  0  0  0  0  0  0  0
    1.9641   -1.8427   -0.4857 C   0  0  0  0  0  0  0  0  0  0  0  0
   -0.6422    1.8858    0.4468 C   0  0  0  0  0  0  0  0  0  0  0  0
    0.5331   -2.0420   -0.2259 C   0  0  0  0  0  0  0  0  0  0  0  0
   -0.0573   -2.8145    0.7891 C   0  0  0  0  0  0  0  0  0  0  0  0
   -1.5985    1.3436    1.3054 C   0  0  0  0  0  0  0  0  0  0  0  0
   -0.9569    2.1135   -0.8929 C   0  0  0  0  0  0  0  0  0  0  0  0
   -1.4015   -2.6560    0.5786 C   0  0  0  0  0  0  0  0  0  0  0  0
   -2.8695    1.0295    0.8244 C   0  0  0  0  0  0  0  0  0  0  0  0
   -2.2277    1.7993   -1.3740 C   0  0  0  0  0  0  0  0  0  0  0  0
   -3.1841    1.2573   -0.5153 C   0  0  0  0  0  0  0  0  0  0  0  0
   -2.6024   -3.1680    1.2502 C   0  0  0  0  0  0  0  0  0  0  0  0
   -5.3534    0.3997   -0.0522 C   0  0  0  0  0  0  0  0  0  0  0  0
    1.4754    1.2982   -0.7476 H   0  0  0  0  0  0  0  0  0  0  0  0
    2.5661    0.3440    1.9193 H   0  0  0  0  0  0  0  0  0  0  0  0
    1.0019   -0.2149    1.3990 H   0  0  0  0  0  0  0  0  0  0  0  0
    4.4224   -1.3412   -0.7547 H   0  0  0  0  0  0  0  0  0  0  0  0
    4.5437   -0.6350    0.8637 H   0  0  0  0  0  0  0  0  0  0  0  0
    2.8322    3.1681   -0.5304 H   0  0  0  0  0  0  0  0  0  0  0  0
    2.9137    3.0701    1.2099 H   0  0  0  0  0  0  0  0  0  0  0  0
    5.3584    0.8207   -1.0754 H   0  0  0  0  0  0  0  0  0  0  0  0
    3.6885    1.0018   -1.6222 H   0  0  0  0  0  0  0  0  0  0  0  0
    0.4216   -3.3995    1.5604 H   0  0  0  0  0  0  0  0  0  0  0  0
   -1.3572    1.1624    2.3493 H   0  0  0  0  0  0  0  0  0  0  0  0
   -0.2314    2.5535   -1.5717 H   0  0  0  0  0  0  0  0  0  0  0  0
   -3.5629    0.6096    1.5449 H   0  0  0  0  0  0  0  0  0  0  0  0
   -2.4684    1.9825   -2.4176 H   0  0  0  0  0  0  0  0  0  0  0  0
   -3.1803   -2.3455    1.6828 H   0  0  0  0  0  0  0  0  0  0  0  0
   -3.2425   -3.7024    0.5416 H   0  0  0  0  0  0  0  0  0  0  0  0
   -2.3396   -3.8590    2.0572 H   0  0  0  0  0  0  0  0  0  0  0  0
   -6.2865    0.2170   -0.5951 H   0  0  0  0  0  0  0  0  0  0  0  0
   -5.5842    1.1068    0.7517 H   0  0  0  0  0  0  0  0  0  0  0  0
   -5.0119   -0.5680    0.3311 H   0  0  0  0  0  0  0  0  0  0  0  0
  1 11  1  0  0  0  0
  1 12  1  0  0  0  0
  2  8  1  0  0  0  0
  2 14  1  0  0  0  0
  3 13  2  0  0  0  0
  4  7  1  0  0  0  0
  4 19  1  0  0  0  0
  5 22  1  0  0  0  0
  5 24  1  0  0  0  0
  6  9  1  0  0  0  0
  6 10  1  0  0  0  0
  6 13  1  0  0  0  0
  7 15  2  0  0  0  0
  8  9  1  0  0  0  0
  8 11  1  0  0  0  0
  8 25  1  0  0  0  0
  9 26  1  0  0  0  0
  9 27  1  0  0  0  0
 10 12  1  0  0  0  0
 10 28  1  0  0  0  0
 10 29  1  0  0  0  0
 11 30  1  0  0  0  0
 11 31  1  0  0  0  0
 12 32  1  0  0  0  0
 12 33  1  0  0  0  0
 13 15  1  0  0  0  0
 14 17  2  0  0  0  0
 14 18  1  0  0  0  0
 15 16  1  0  0  0  0
 16 19  2  0  0  0  0
 16 34  1  0  0  0  0
 17 20  1  0  0  0  0
 17 35  1  0  0  0  0
 18 21  2  0  0  0  0
 18 36  1  0  0  0  0
 19 23  1  0  0  0  0
 20 22  2  0  0  0  0
 20 37  1  0  0  0  0
 21 22  1  0  0  0  0
 21 38  1  0  0  0  0
 23 39  1  0  0  0  0
 23 40  1  0  0  0  0
 23 41  1  0  0  0  0
 24 42  1  0  0  0  0
 24 43  1  0  0  0  0
 24 44  1  0  0  0  0
M  END
> <PUBCHEM_COMPOUND_CID>
75367744

> <PUBCHEM_CONFORMER_RMSD>
0.8

> <PUBCHEM_CONFORMER_DIVERSEORDER>
9
277
76
274
236
149
139
167
244
210
66
246
169
163
113
118
150
133
85
260
146
141
33
92
226
99
266
135
255
26
235
189
232
216
2
130
140
176
134
89
276
208
271
37
143
94
273
201
136
160
224
98
32
262
281
119
61
142
31
78
240
126
57
272
127
202
248
123
184
193
180
269
249
70
242
177
131
165
209
220
152
11
188
56
221
65
215
179
253
105
263
245
87
183
109
60
29
145
212
77
137
52
219
252
206
270
241
38
265
97
162
80
47
18
239
43
51
21
107
19
214
7
54
159
83
173
42
102
196
15
185
128
161
106
17
213
13
64
205
194
12
55
117
138
41
73
132
35
225
275
192
153
182
6
16
267
81
125
164
147
115
144
258
207
112
79
261
121
62
124
250
191
234
5
170
231
20
218
14
199
203
198
28
88
279
111
50
86
211
280
171
172
101
243
30
48
1
175
63
3
95
223
254
237
200
129
84
34
227
238
93
186
4
187
222
90
233
108
103
96
8
157
49
154
257
27
46
158
25
268
229
104
228
59
72
44
116
148
230
264
74
122
23
22
110
168
45
40
278
53
204
178
10
100
58
251
256
151
195
197
24
75
67
181
259
120
71
36
68
247
174
114
190
217
155
166
156
39
69
91
82

> <PUBCHEM_MMFF94_PARTIAL_CHARGES>
29
1 -0.56
10 0.3
11 0.28
12 0.28
13 0.72
14 0.08
15 0.2
16 -0.15
17 -0.15
18 -0.15
19 -0.04
2 -0.36
20 -0.15
21 -0.15
22 0.08
23 0.18
24 0.28
3 -0.57
34 0.15
35 0.15
36 0.15
37 0.15
38 0.15
4 -0.02
5 -0.36
6 -0.66
7 -0.41
8 0.28
9 0.3

> <PUBCHEM_EFFECTIVE_ROTOR_COUNT>
6.4

> <PUBCHEM_PHARMACOPHORE_FEATURES>
8
1 1 acceptor
1 2 acceptor
1 3 acceptor
1 5 acceptor
1 7 acceptor
5 4 7 15 16 19 rings
6 14 17 18 20 21 22 rings
7 1 6 8 9 10 11 12 rings

> <PUBCHEM_HEAVY_ATOM_COUNT>
24

> <PUBCHEM_ATOM_DEF_STEREO_COUNT>
1

> <PUBCHEM_ATOM_UDEF_STEREO_COUNT>
0

> <PUBCHEM_BOND_DEF_STEREO_COUNT>
0

> <PUBCHEM_BOND_UDEF_STEREO_COUNT>
0

> <PUBCHEM_ISOTOPIC_ATOM_COUNT>
0

> <PUBCHEM_COMPONENT_COUNT>
1

> <PUBCHEM_CACTVS_TAUTO_COUNT>
1

> <PUBCHEM_CONFORMER_ID>
047E054000000009

> <PUBCHEM_MMFF94_ENERGY>
78.7823

> <PUBCHEM_FEATURE_SELFOVERLAP>
40.6

> <PUBCHEM_SHAPE_FINGERPRINT>
104564 63 18050565441254965769
10688039 33 17754460376127275571
10759866 29 18113620088746891754
108634 29 18411144610386101670
1100329 8 18265048025126703426
11112241 14 16914797396136752097
11370993 70 18335133163828439229
12011746 2 18411704261719762885
12422481 6 18048343286033799067
12596599 1 17199959842952215303
13140716 1 18340763836447809136
13402501 40 18409450323423885707
13583140 156 17385733456694109248
14363568 33 17037559110981744745
14787075 74 18413100663441786519
17357779 13 18052810635667763535
17492 54 18408889498999182605
20691752 17 18192728742910008389
21197605 99 18268712899883885895
22182313 1 18128542746585130976
23227448 37 18335138742969584853
23419403 2 15116264490686380645
23559900 14 18343020004633591768
238 59 17976506486999474853
2748010 2 18198900499619685720
3052486 1 18115311214322695934
3680242 22 18264768744904278339

> <PUBCHEM_SHAPE_MULTIPOLES>
454.6
7.7
3.93
1.2
1.08
2.43
-0.02
-2.74
-1.07
0.39
0.37
0.37
-0.02
1.32

> <PUBCHEM_SHAPE_SELFOVERLAP>
962.753

> <PUBCHEM_SHAPE_VOLUME>
253.9

> <PUBCHEM_COORDINATE_TYPE>
2
5
10

$$$$
