28962821
  -OEChem-12032416203D

 69 72  0     1  0  0  0  0  0999 V2000
   -7.1463   -1.9293    2.2248 F   0  0  0  0  0  0  0  0  0  0  0  0
    1.6943   -1.7639    0.4795 O   0  0  0  0  0  0  0  0  0  0  0  0
    6.0220    1.0968    1.2654 O   0  0  0  0  0  0  0  0  0  0  0  0
   -4.1957    0.3306   -2.3589 O   0  0  0  0  0  0  0  0  0  0  0  0
   -3.2980    0.2170   -0.2243 N   0  0  0  0  0  0  0  0  0  0  0  0
    6.1302   -0.6623   -0.2285 N   0  0  0  0  0  0  0  0  0  0  0  0
    0.6597    1.8876    0.0652 C   0  0  1  0  0  0  0  0  0  0  0  0
    0.5520    0.3293   -0.0294 C   0  0  2  0  0  0  0  0  0  0  0  0
   -0.9011   -0.1531    0.3223 C   0  0  1  0  0  0  0  0  0  0  0  0
    1.6967   -0.3642    0.7640 C   0  0  2  0  0  0  0  0  0  0  0  0
    2.0666    2.3365   -0.3956 C   0  0  0  0  0  0  0  0  0  0  0  0
    3.0964    0.1641    0.3722 C   0  0  1  0  0  0  0  0  0  0  0  0
   -0.3743    2.5236   -0.8926 C   0  0  0  0  0  0  0  0  0  0  0  0
   -1.9391    0.5498   -0.5972 C   0  0  2  0  0  0  0  0  0  0  0  0
    3.1888    1.6895    0.4053 C   0  0  0  0  0  0  0  0  0  0  0  0
   -1.8013    2.0719   -0.6166 C   0  0  0  0  0  0  0  0  0  0  0  0
    0.4151    2.4138    1.5022 C   0  0  0  0  0  0  0  0  0  0  0  0
    4.1983   -0.4352    1.2547 C   0  0  2  0  0  0  0  0  0  0  0  0
   -1.0857   -1.6766    0.2210 C   0  0  0  0  0  0  0  0  0  0  0  0
    3.9923   -0.0683    2.7130 C   0  0  0  0  0  0  0  0  0  0  0  0
    5.5323    0.0781    0.7750 C   0  0  0  0  0  0  0  0  0  0  0  0
   -4.3216    0.1358   -1.1527 C   0  0  0  0  0  0  0  0  0  0  0  0
    7.4157   -0.2953   -0.8042 C   0  0  0  0  0  0  0  0  0  0  0  0
    5.6066   -1.8760   -0.8475 C   0  0  0  0  0  0  0  0  0  0  0  0
    7.8381   -1.5188   -1.6028 C   0  0  0  0  0  0  0  0  0  0  0  0
    6.5062   -2.1050   -2.0537 C   0  0  0  0  0  0  0  0  0  0  0  0
   -5.6641   -0.1901   -0.6064 C   0  0  0  0  0  0  0  0  0  0  0  0
   -5.7772   -0.9213    0.5761 C   0  0  0  0  0  0  0  0  0  0  0  0
   -6.8116    0.2352   -1.2760 C   0  0  0  0  0  0  0  0  0  0  0  0
   -7.0377   -1.2272    1.0892 C   0  0  0  0  0  0  0  0  0  0  0  0
   -8.0722   -0.0710   -0.7630 C   0  0  0  0  0  0  0  0  0  0  0  0
   -8.1853   -0.8019    0.4197 C   0  0  0  0  0  0  0  0  0  0  0  0
    0.7040    0.0522   -1.0851 H   0  0  0  0  0  0  0  0  0  0  0  0
   -1.1201    0.1123    1.3643 H   0  0  0  0  0  0  0  0  0  0  0  0
    1.4906   -0.2493    1.8301 H   0  0  0  0  0  0  0  0  0  0  0  0
    2.1589    3.4281   -0.3259 H   0  0  0  0  0  0  0  0  0  0  0  0
    2.2049    2.0856   -1.4560 H   0  0  0  0  0  0  0  0  0  0  0  0
    3.2789   -0.1365   -0.6677 H   0  0  0  0  0  0  0  0  0  0  0  0
   -0.1239    2.2646   -1.9302 H   0  0  0  0  0  0  0  0  0  0  0  0
   -0.3271    3.6182   -0.8303 H   0  0  0  0  0  0  0  0  0  0  0  0
   -1.7783    0.1889   -1.6226 H   0  0  0  0  0  0  0  0  0  0  0  0
    4.1260    2.0339   -0.0457 H   0  0  0  0  0  0  0  0  0  0  0  0
    3.1654    2.0966    1.4181 H   0  0  0  0  0  0  0  0  0  0  0  0
   -2.1538    2.4957    0.3316 H   0  0  0  0  0  0  0  0  0  0  0  0
   -2.4602    2.4949   -1.3860 H   0  0  0  0  0  0  0  0  0  0  0  0
   -0.5929    2.2002    1.8667 H   0  0  0  0  0  0  0  0  0  0  0  0
    0.5438    3.5020    1.5409 H   0  0  0  0  0  0  0  0  0  0  0  0
    1.1059    1.9795    2.2302 H   0  0  0  0  0  0  0  0  0  0  0  0
    4.1796   -1.5283    1.2007 H   0  0  0  0  0  0  0  0  0  0  0  0
   -0.7295   -2.0572   -0.7417 H   0  0  0  0  0  0  0  0  0  0  0  0
   -2.1356   -1.9691    0.3248 H   0  0  0  0  0  0  0  0  0  0  0  0
   -0.5588   -2.1927    1.0284 H   0  0  0  0  0  0  0  0  0  0  0  0
   -3.4985    0.1567    0.7684 H   0  0  0  0  0  0  0  0  0  0  0  0
    1.8343   -1.8783   -0.4760 H   0  0  0  0  0  0  0  0  0  0  0  0
    3.9878    1.0046    2.9190 H   0  0  0  0  0  0  0  0  0  0  0  0
    4.8201   -0.4761    3.3082 H   0  0  0  0  0  0  0  0  0  0  0  0
    3.0832   -0.5059    3.1333 H   0  0  0  0  0  0  0  0  0  0  0  0
    8.1307   -0.0235   -0.0221 H   0  0  0  0  0  0  0  0  0  0  0  0
    7.2536    0.5727   -1.4528 H   0  0  0  0  0  0  0  0  0  0  0  0
    4.5580   -1.7828   -1.1324 H   0  0  0  0  0  0  0  0  0  0  0  0
    5.7093   -2.6910   -0.1224 H   0  0  0  0  0  0  0  0  0  0  0  0
    8.3553   -2.2332   -0.9511 H   0  0  0  0  0  0  0  0  0  0  0  0
    8.5012   -1.2706   -2.4359 H   0  0  0  0  0  0  0  0  0  0  0  0
    6.1281   -1.5430   -2.9162 H   0  0  0  0  0  0  0  0  0  0  0  0
    6.5754   -3.1595   -2.3342 H   0  0  0  0  0  0  0  0  0  0  0  0
   -4.9109   -1.2967    1.1125 H   0  0  0  0  0  0  0  0  0  0  0  0
   -6.7446    0.8097   -2.1961 H   0  0  0  0  0  0  0  0  0  0  0  0
   -8.9658    0.2609   -1.2836 H   0  0  0  0  0  0  0  0  0  0  0  0
   -9.1665   -1.0399    0.8196 H   0  0  0  0  0  0  0  0  0  0  0  0
  1 30  1  0  0  0  0
  2 10  1  0  0  0  0
  2 54  1  0  0  0  0
  3 21  2  0  0  0  0
  4 22  2  0  0  0  0
  5 14  1  0  0  0  0
  5 22  1  0  0  0  0
  5 53  1  0  0  0  0
  6 21  1  0  0  0  0
  6 23  1  0  0  0  0
  6 24  1  0  0  0  0
  7  8  1  0  0  0  0
  7 11  1  0  0  0  0
  7 13  1  0  0  0  0
  7 17  1  0  0  0  0
  8  9  1  0  0  0  0
  8 10  1  0  0  0  0
  8 33  1  0  0  0  0
  9 14  1  0  0  0  0
  9 19  1  0  0  0  0
  9 34  1  0  0  0  0
 10 12  1  0  0  0  0
 10 35  1  0  0  0  0
 11 15  1  0  0  0  0
 11 36  1  0  0  0  0
 11 37  1  0  0  0  0
 12 15  1  0  0  0  0
 12 18  1  0  0  0  0
 12 38  1  0  0  0  0
 13 16  1  0  0  0  0
 13 39  1  0  0  0  0
 13 40  1  0  0  0  0
 14 16  1  0  0  0  0
 14 41  1  0  0  0  0
 15 42  1  0  0  0  0
 15 43  1  0  0  0  0
 16 44  1  0  0  0  0
 16 45  1  0  0  0  0
 17 46  1  0  0  0  0
 17 47  1  0  0  0  0
 17 48  1  0  0  0  0
 18 20  1  0  0  0  0
 18 21  1  0  0  0  0
 18 49  1  0  0  0  0
 19 50  1  0  0  0  0
 19 51  1  0  0  0  0
 19 52  1  0  0  0  0
 20 55  1  0  0  0  0
 20 56  1  0  0  0  0
 20 57  1  0  0  0  0
 22 27  1  0  0  0  0
 23 25  1  0  0  0  0
 23 58  1  0  0  0  0
 23 59  1  0  0  0  0
 24 26  1  0  0  0  0
 24 60  1  0  0  0  0
 24 61  1  0  0  0  0
 25 26  1  0  0  0  0
 25 62  1  0  0  0  0
 25 63  1  0  0  0  0
 26 64  1  0  0  0  0
 26 65  1  0  0  0  0
 27 28  2  0  0  0  0
 27 29  1  0  0  0  0
 28 30  1  0  0  0  0
 28 66  1  0  0  0  0
 29 31  2  0  0  0  0
 29 67  1  0  0  0  0
 30 32  2  0  0  0  0
 31 32  1  0  0  0  0
 31 68  1  0  0  0  0
 32 69  1  0  0  0  0
M  END
> <PUBCHEM_COMPOUND_CID>
28962821

> <PUBCHEM_CONFORMER_RMSD>
1

> <PUBCHEM_CONFORMER_DIVERSEORDER>
1
13
51
17
26
35
18
5
32
56
43
30
40
54
62
49
52
55
21
48
60
8
28
39
37
44
57
29
27
10
50
23
47
33
7
59
22
31
3
14
42
45
61
41
25
4
58
34
2
9
53
38
36
12
24
19
46
20
15
6
11
16

> <PUBCHEM_MMFF94_PARTIAL_CHARGES>
25
1 -0.19
10 0.28
14 0.3
18 0.06
2 -0.68
21 0.57
22 0.54
23 0.3
24 0.3
27 0.09
28 -0.15
29 -0.15
3 -0.57
30 0.19
31 -0.15
32 -0.15
4 -0.57
5 -0.73
53 0.37
54 0.4
6 -0.66
66 0.15
67 0.15
68 0.15
69 0.15

> <PUBCHEM_EFFECTIVE_ROTOR_COUNT>
8.6

> <PUBCHEM_PHARMACOPHORE_FEATURES>
10
1 2 acceptor
1 2 donor
1 20 hydrophobe
1 3 acceptor
1 4 acceptor
1 5 donor
5 6 23 24 25 26 rings
6 27 28 29 30 31 32 rings
6 7 8 10 11 12 15 rings
6 7 8 9 13 14 16 rings

> <PUBCHEM_HEAVY_ATOM_COUNT>
32

> <PUBCHEM_ATOM_DEF_STEREO_COUNT>
7

> <PUBCHEM_ATOM_UDEF_STEREO_COUNT>
0

> <PUBCHEM_BOND_DEF_STEREO_COUNT>
0

> <PUBCHEM_BOND_UDEF_STEREO_COUNT>
0

> <PUBCHEM_ISOTOPIC_ATOM_COUNT>
0

> <PUBCHEM_COMPONENT_COUNT>
1

> <PUBCHEM_CACTVS_TAUTO_COUNT>
2

> <PUBCHEM_CONFORMER_ID>
01B9F00500000001

> <PUBCHEM_MMFF94_ENERGY>
95.0089

> <PUBCHEM_FEATURE_SELFOVERLAP>
50.761

> <PUBCHEM_SHAPE_FINGERPRINT>
10076449 9 18114190743423158187
10591671 39 17894352159504257958
11331351 85 17988922275591162453
11646440 116 18343860039379238329
11828532 37 18261121794259184422
11963148 33 18113608006535475323
12166972 35 17917991685376968568
12373685 5 13110958691976281277
12522641 24 16702296858854177650
13150687 139 12973886975440257608
13533116 47 17346593085045155514
13617811 41 18187367610850667452
13668630 136 18407760348160675987
13673619 4 17989204811814503392
13685833 64 18344146986091230822
13782708 43 17604136108724305963
14123256 34 18409732858919836789
14347424 109 15482662499180006706
14856354 85 17967253096989521615
15131766 46 14690285245308274344
15198563 99 18263926549121105148
15301273 46 18272087180319322541
15419008 145 14692579775224585859
15849732 13 18412823603338132247
16728433 281 16155369990169716309
16994733 274 14490467569391875181
18335252 98 18201998825098434696
19315958 150 17917144009572889288
20105231 36 18408889533713076195
20511986 3 9295288322432895013
20554085 129 9511459996560785012
21049683 271 17821449087984894108
21130935 74 17274531143894104519
21150785 3 15791450430802633335
21267235 1 18410294709266879733
21344244 181 18272936003634394550
21403212 168 9511458905786479212
21781051 124 18041009474208650299
23522609 53 16371855019725485317
23559900 14 18340481266465590032
23569917 315 17774437300451914351
23569943 247 17703227287090149383
2747138 104 18408886243598829129
2838139 119 11599996653200444993
3004659 81 18040432204675865565
312425 54 16486679355460068958
3178227 256 18335700568095197035
3383291 50 18409728477964148155
34797466 226 18410852184012795932
4093350 32 18130499847197014352
4258327 124 14635168823172866230
439807 62 17095793357452207313
484989 97 17895486928666260123
5470011 282 18040439884800025982
563151 248 17060614508227374095
58260988 647 17417257529316441542
59755656 215 18334572417172342895

> <PUBCHEM_SHAPE_MULTIPOLES>
623.7
24.15
2.3
1.81
17.06
0.77
-0.42
-15.11
2.73
-2.21
0.3
-0.22
-0.34
3.34

> <PUBCHEM_SHAPE_SELFOVERLAP>
1318.419

> <PUBCHEM_SHAPE_VOLUME>
349.1

> <PUBCHEM_COORDINATE_TYPE>
2
5
10

$$$$
