45783933
  -OEChem-12032416373D

 79 84  0     1  0  0  0  0  0999 V2000
   -3.9348    1.7333    1.0319 O   0  0  0  0  0  0  0  0  0  0  0  0
    3.5796    0.1635    0.4197 N   0  0  0  0  0  0  0  0  0  0  0  0
    6.3886   -0.3219    0.2395 N   0  0  0  0  0  0  0  0  0  0  0  0
   -4.0634    3.3620   -0.4964 N   0  0  0  0  0  0  0  0  0  0  0  0
   -5.3502    2.9566   -0.1949 N   0  0  0  0  0  0  0  0  0  0  0  0
    8.5359    0.6653    0.1046 N   0  0  0  0  0  0  0  0  0  0  0  0
   -5.8882   -2.4547    1.6492 N   0  0  0  0  0  0  0  0  0  0  0  0
   -0.2322   -0.2039    0.2186 C   0  0  1  0  0  0  0  0  0  0  0  0
    1.2063    0.1384   -0.2433 C   0  0  2  0  0  0  0  0  0  0  0  0
   -1.2630    0.3864   -0.7556 C   0  0  0  0  0  0  0  0  0  0  0  0
   -1.1404    1.9171   -0.8765 C   0  0  2  0  0  0  0  0  0  0  0  0
   -0.4443   -1.7157    0.3449 C   0  0  0  0  0  0  0  0  0  0  0  0
    2.2143   -0.0581    0.8949 C   0  0  0  0  0  0  0  0  0  0  0  0
    1.3333    1.5405   -0.7914 C   0  0  0  0  0  0  0  0  0  0  0  0
    0.2981    2.3536   -1.0669 C   0  0  0  0  0  0  0  0  0  0  0  0
   -1.7715    2.6188    0.3313 C   0  0  0  0  0  0  0  0  0  0  0  0
   -0.7385   -2.3276   -1.0210 C   0  0  0  0  0  0  0  0  0  0  0  0
   -1.5735   -2.0146    1.3260 C   0  0  0  0  0  0  0  0  0  0  0  0
    4.4653    0.5056    1.5396 C   0  0  0  0  0  0  0  0  0  0  0  0
    4.0849   -1.0295   -0.2701 C   0  0  0  0  0  0  0  0  0  0  0  0
    0.5191    3.7319   -1.6252 C   0  0  0  0  0  0  0  0  0  0  0  0
    5.8851    0.7958    1.0477 C   0  0  0  0  0  0  0  0  0  0  0  0
    5.4928   -0.7914   -0.8218 C   0  0  0  0  0  0  0  0  0  0  0  0
   -3.2707    2.6215    0.2427 C   0  0  0  0  0  0  0  0  0  0  0  0
    7.7735   -0.4509    0.0863 C   0  0  0  0  0  0  0  0  0  0  0  0
   -5.2267    2.0050    0.7006 C   0  0  0  0  0  0  0  0  0  0  0  0
    8.2769   -1.7315   -0.0766 C   0  0  0  0  0  0  0  0  0  0  0  0
   -6.2640    1.2145    1.3751 C   0  0  0  0  0  0  0  0  0  0  0  0
    9.6513   -1.8757   -0.2302 C   0  0  0  0  0  0  0  0  0  0  0  0
   -6.1308   -0.2946    1.1999 C   0  0  0  0  0  0  0  0  0  0  0  0
    9.8672    0.4858   -0.0477 C   0  0  0  0  0  0  0  0  0  0  0  0
   10.4686   -0.7509   -0.2166 C   0  0  0  0  0  0  0  0  0  0  0  0
   -6.1517   -1.0098   -0.0302 C   0  0  0  0  0  0  0  0  0  0  0  0
   -5.9676   -1.2101    2.2138 C   0  0  0  0  0  0  0  0  0  0  0  0
   -5.9976   -2.3628    0.2799 C   0  0  0  0  0  0  0  0  0  0  0  0
   -6.2873   -0.6350   -1.3816 C   0  0  0  0  0  0  0  0  0  0  0  0
   -5.9722   -3.3636   -0.6980 C   0  0  0  0  0  0  0  0  0  0  0  0
   -6.2637   -1.6252   -2.3705 C   0  0  0  0  0  0  0  0  0  0  0  0
   -6.1085   -2.9679   -2.0317 C   0  0  0  0  0  0  0  0  0  0  0  0
   -0.3795    0.2488    1.2080 H   0  0  0  0  0  0  0  0  0  0  0  0
    1.4613   -0.5277   -1.0750 H   0  0  0  0  0  0  0  0  0  0  0  0
   -1.1036   -0.0031   -1.7696 H   0  0  0  0  0  0  0  0  0  0  0  0
   -2.2848    0.1120   -0.4736 H   0  0  0  0  0  0  0  0  0  0  0  0
   -1.6919    2.2044   -1.7836 H   0  0  0  0  0  0  0  0  0  0  0  0
    0.4552   -2.1973    0.7417 H   0  0  0  0  0  0  0  0  0  0  0  0
    1.9708    0.6728    1.6797 H   0  0  0  0  0  0  0  0  0  0  0  0
    2.1248   -1.0421    1.3685 H   0  0  0  0  0  0  0  0  0  0  0  0
    2.3348    1.9035   -1.0113 H   0  0  0  0  0  0  0  0  0  0  0  0
   -1.4647    3.6702    0.3808 H   0  0  0  0  0  0  0  0  0  0  0  0
   -1.4562    2.1697    1.2793 H   0  0  0  0  0  0  0  0  0  0  0  0
   -1.7417   -2.0906   -1.3913 H   0  0  0  0  0  0  0  0  0  0  0  0
   -0.7031   -3.4212   -0.9398 H   0  0  0  0  0  0  0  0  0  0  0  0
    0.0010   -2.0513   -1.7783 H   0  0  0  0  0  0  0  0  0  0  0  0
   -2.5316   -1.6018    0.9953 H   0  0  0  0  0  0  0  0  0  0  0  0
   -1.3512   -1.6032    2.3164 H   0  0  0  0  0  0  0  0  0  0  0  0
   -1.7044   -3.0962    1.4413 H   0  0  0  0  0  0  0  0  0  0  0  0
    4.4889   -0.3085    2.2766 H   0  0  0  0  0  0  0  0  0  0  0  0
    4.0972    1.4020    2.0535 H   0  0  0  0  0  0  0  0  0  0  0  0
    3.4456   -1.3017   -1.1162 H   0  0  0  0  0  0  0  0  0  0  0  0
    4.1047   -1.8919    0.4103 H   0  0  0  0  0  0  0  0  0  0  0  0
    1.5774    3.9293   -1.8277 H   0  0  0  0  0  0  0  0  0  0  0  0
    0.1718    4.4991   -0.9276 H   0  0  0  0  0  0  0  0  0  0  0  0
   -0.0213    3.8498   -2.5701 H   0  0  0  0  0  0  0  0  0  0  0  0
    5.8977    1.7168    0.4508 H   0  0  0  0  0  0  0  0  0  0  0  0
    6.5251    0.9567    1.9244 H   0  0  0  0  0  0  0  0  0  0  0  0
    5.8478   -1.7270   -1.2687 H   0  0  0  0  0  0  0  0  0  0  0  0
    5.4618   -0.0428   -1.6240 H   0  0  0  0  0  0  0  0  0  0  0  0
    7.6424   -2.6117   -0.0716 H   0  0  0  0  0  0  0  0  0  0  0  0
   -7.2522    1.5103    1.0014 H   0  0  0  0  0  0  0  0  0  0  0  0
   -6.2545    1.4544    2.4457 H   0  0  0  0  0  0  0  0  0  0  0  0
   10.0853   -2.8630   -0.3566 H   0  0  0  0  0  0  0  0  0  0  0  0
   10.4604    1.3942   -0.0297 H   0  0  0  0  0  0  0  0  0  0  0  0
   11.5426   -0.8396   -0.3336 H   0  0  0  0  0  0  0  0  0  0  0  0
   -5.8997   -1.0894    3.2860 H   0  0  0  0  0  0  0  0  0  0  0  0
   -5.7659   -3.3167    2.1624 H   0  0  0  0  0  0  0  0  0  0  0  0
   -6.4124    0.4058   -1.6655 H   0  0  0  0  0  0  0  0  0  0  0  0
   -5.8511   -4.4091   -0.4352 H   0  0  0  0  0  0  0  0  0  0  0  0
   -6.3683   -1.3419   -3.4145 H   0  0  0  0  0  0  0  0  0  0  0  0
   -6.0928   -3.7205   -2.8159 H   0  0  0  0  0  0  0  0  0  0  0  0
  1 24  1  0  0  0  0
  1 26  1  0  0  0  0
  2 13  1  0  0  0  0
  2 19  1  0  0  0  0
  2 20  1  0  0  0  0
  3 22  1  0  0  0  0
  3 23  1  0  0  0  0
  3 25  1  0  0  0  0
  4  5  1  0  0  0  0
  4 24  2  0  0  0  0
  5 26  2  0  0  0  0
  6 25  1  0  0  0  0
  6 31  2  0  0  0  0
  7 34  1  0  0  0  0
  7 35  1  0  0  0  0
  7 75  1  0  0  0  0
  8  9  1  0  0  0  0
  8 10  1  0  0  0  0
  8 12  1  0  0  0  0
  8 40  1  0  0  0  0
  9 13  1  0  0  0  0
  9 14  1  0  0  0  0
  9 41  1  0  0  0  0
 10 11  1  0  0  0  0
 10 42  1  0  0  0  0
 10 43  1  0  0  0  0
 11 15  1  0  0  0  0
 11 16  1  0  0  0  0
 11 44  1  0  0  0  0
 12 17  1  0  0  0  0
 12 18  1  0  0  0  0
 12 45  1  0  0  0  0
 13 46  1  0  0  0  0
 13 47  1  0  0  0  0
 14 15  2  0  0  0  0
 14 48  1  0  0  0  0
 15 21  1  0  0  0  0
 16 24  1  0  0  0  0
 16 49  1  0  0  0  0
 16 50  1  0  0  0  0
 17 51  1  0  0  0  0
 17 52  1  0  0  0  0
 17 53  1  0  0  0  0
 18 54  1  0  0  0  0
 18 55  1  0  0  0  0
 18 56  1  0  0  0  0
 19 22  1  0  0  0  0
 19 57  1  0  0  0  0
 19 58  1  0  0  0  0
 20 23  1  0  0  0  0
 20 59  1  0  0  0  0
 20 60  1  0  0  0  0
 21 61  1  0  0  0  0
 21 62  1  0  0  0  0
 21 63  1  0  0  0  0
 22 64  1  0  0  0  0
 22 65  1  0  0  0  0
 23 66  1  0  0  0  0
 23 67  1  0  0  0  0
 25 27  2  0  0  0  0
 26 28  1  0  0  0  0
 27 29  1  0  0  0  0
 27 68  1  0  0  0  0
 28 30  1  0  0  0  0
 28 69  1  0  0  0  0
 28 70  1  0  0  0  0
 29 32  2  0  0  0  0
 29 71  1  0  0  0  0
 30 33  1  0  0  0  0
 30 34  2  0  0  0  0
 31 32  1  0  0  0  0
 31 72  1  0  0  0  0
 32 73  1  0  0  0  0
 33 35  1  0  0  0  0
 33 36  2  0  0  0  0
 34 74  1  0  0  0  0
 35 37  2  0  0  0  0
 36 38  1  0  0  0  0
 36 76  1  0  0  0  0
 37 39  1  0  0  0  0
 37 77  1  0  0  0  0
 38 39  2  0  0  0  0
 38 78  1  0  0  0  0
 39 79  1  0  0  0  0
M  END
> <PUBCHEM_COMPOUND_CID>
45783933

> <PUBCHEM_CONFORMER_RMSD>
1.4

> <PUBCHEM_CONFORMER_DIVERSEORDER>
1
22
122
72
116
64
23
73
105
91
128
99
25
124
16
79
63
78
57
108
89
8
86
120
85
20
104
130
41
110
68
92
65
101
56
88
102
129
59
17
15
70
83
42
95
107
13
14
96
123
81
48
125
82
76
9
31
94
54
113
46
51
90
44
117
62
34
87
49
93
100
112
33
11
71
119
67
55
45
37
47
121
126
66
115
111
75
7
39
98
32
19
30
118
36
50
10
60
35
127
106
27
74
84
53
103
77
29
24
114
26
40
61
69
6
28
38
97
109
2
80
21
58
131
52
18
43
12
5
3
4

> <PUBCHEM_MMFF94_PARTIAL_CHARGES>
44
1 -0.28
11 0.14
13 0.27
14 -0.29
15 -0.28
16 0.18
19 0.27
2 -0.81
20 0.27
21 0.14
22 0.37
23 0.37
24 0.3
25 0.41
26 0.3
27 -0.15
28 0.36
29 -0.15
3 -0.84
30 -0.18
31 0.16
32 -0.15
34 -0.3
35 -0.15
36 -0.15
37 -0.15
38 -0.15
39 -0.15
4 -0.34
48 0.15
5 -0.34
6 -0.62
68 0.15
7 0.03
71 0.15
72 0.15
73 0.15
74 0.15
75 0.27
76 0.15
77 0.15
78 0.15
79 0.15
9 0.14

> <PUBCHEM_EFFECTIVE_ROTOR_COUNT>
10

> <PUBCHEM_PHARMACOPHORE_FEATURES>
12
1 2 cation
1 3 cation
1 6 acceptor
1 7 cation
1 7 donor
3 12 17 18 hydrophobe
5 1 4 5 24 26 rings
5 7 30 33 34 35 rings
6 2 3 19 20 22 23 rings
6 33 35 36 37 38 39 rings
6 6 25 27 29 31 32 rings
6 8 9 10 11 14 15 rings

> <PUBCHEM_HEAVY_ATOM_COUNT>
39

> <PUBCHEM_ATOM_DEF_STEREO_COUNT>
3

> <PUBCHEM_ATOM_UDEF_STEREO_COUNT>
0

> <PUBCHEM_BOND_DEF_STEREO_COUNT>
0

> <PUBCHEM_BOND_UDEF_STEREO_COUNT>
0

> <PUBCHEM_ISOTOPIC_ATOM_COUNT>
0

> <PUBCHEM_COMPONENT_COUNT>
1

> <PUBCHEM_CACTVS_TAUTO_COUNT>
1

> <PUBCHEM_CONFORMER_ID>
02BA9B7D00000001

> <PUBCHEM_MMFF94_ENERGY>
89.3938

> <PUBCHEM_FEATURE_SELFOVERLAP>
60.993

> <PUBCHEM_SHAPE_FINGERPRINT>
10055352 69 18059292188764640720
10076449 9 17603303769378438198
10815517 723 18411415142218327647
11135926 11 17168146710842556315
11181472 205 9583523127650001972
11621639 183 16127549055393746553
12104220 1 18260829293763425157
12106331 60 18187080655326947097
12522641 126 18042410299816288532
12559416 138 18337383942269025075
13383665 225 18192996139981435548
13692115 27 17170975917755171635
13782708 43 18202560678938507346
14040221 310 17385433306999603621
14279260 333 18333731308616573883
15021287 119 18337389456768721031
15064986 266 18412263956868591486
17324776 126 17127304445840435167
17686467 74 18333448759998304920
18608769 82 18341896264593937656
19303781 99 18187370990805202147
19611394 137 18202283614951498800
21792965 169 18187373155795832758
335507 130 18336274482699275893
3383291 50 18334015025159992618
3504750 166 17844237639508553935
395649 100 18333449845938806347
397830 11 17988634242014313944
45377200 153 18413108351760976018
4625314 4 18411135805835247276
54039377 194 18261115210306292115
54131252 152 17822847572554389834
6691757 9 12751231510785631812
9953998 17 18201443550040731177

> <PUBCHEM_SHAPE_MULTIPOLES>
766.85
29.9
3.85
1.63
70.37
1.47
-0.08
-16.04
0.95
-7.38
-1.25
-3.27
-0.45
-1.01

> <PUBCHEM_SHAPE_SELFOVERLAP>
1653.201

> <PUBCHEM_SHAPE_VOLUME>
420.9

> <PUBCHEM_COORDINATE_TYPE>
2
5
10

$$$$
