25390052
  -OEChem-12032416373D

 56 59  0     1  0  0  0  0  0999 V2000
   -7.0268   -3.3085    1.0128 Cl  0  0  0  0  0  0  0  0  0  0  0  0
    3.2806   -1.8607   -0.4388 O   0  0  0  0  0  0  0  0  0  0  0  0
    2.4437    0.1816   -1.1293 N   0  0  0  0  0  0  0  0  0  0  0  0
   -4.1112    0.8285    0.3524 N   0  0  0  0  0  0  0  0  0  0  0  0
   -3.8795    1.8749    1.1632 N   0  0  0  0  0  0  0  0  0  0  0  0
    4.6464    0.0481   -0.4766 N   0  0  0  0  0  0  0  0  0  0  0  0
   10.2303    1.5392    0.7761 N   0  0  0  0  0  0  0  0  0  0  0  0
   -0.5692    1.2650   -0.4741 C   0  0  2  0  0  0  0  0  0  0  0  0
    0.1555   -0.0730   -0.2198 C   0  0  0  0  0  0  0  0  0  0  0  0
    1.1056   -0.2674   -1.4079 C   0  0  1  0  0  0  0  0  0  0  0  0
   -1.9994    1.2722    0.0146 C   0  0  0  0  0  0  0  0  0  0  0  0
   -0.4114    1.4402   -1.9567 C   0  0  0  0  0  0  0  0  0  0  0  0
    0.5045    0.6059   -2.4596 C   0  0  0  0  0  0  0  0  0  0  0  0
   -3.0173    0.4285   -0.3575 C   0  0  0  0  0  0  0  0  0  0  0  0
   -2.5878    2.1415    0.9526 C   0  0  0  0  0  0  0  0  0  0  0  0
   -3.0368   -0.7013   -1.3088 C   0  0  0  0  0  0  0  0  0  0  0  0
   -1.9490    3.2517    1.6812 C   0  0  0  0  0  0  0  0  0  0  0  0
   -5.3851    0.2615    0.3013 C   0  0  0  0  0  0  0  0  0  0  0  0
    3.4571   -0.6641   -0.6548 C   0  0  0  0  0  0  0  0  0  0  0  0
   -5.5664   -1.0797    0.6392 C   0  0  0  0  0  0  0  0  0  0  0  0
   -6.4774    1.0360   -0.0894 C   0  0  0  0  0  0  0  0  0  0  0  0
   -6.8400   -1.6463    0.5868 C   0  0  0  0  0  0  0  0  0  0  0  0
   -7.7510    0.4695   -0.1421 C   0  0  0  0  0  0  0  0  0  0  0  0
   -7.9324   -0.8716    0.1963 C   0  0  0  0  0  0  0  0  0  0  0  0
    5.8908   -0.4417   -0.0159 C   0  0  0  0  0  0  0  0  0  0  0  0
   -9.3124   -1.4415    0.1264 C   0  0  0  0  0  0  0  0  0  0  0  0
    6.9802    0.4213    0.1022 C   0  0  0  0  0  0  0  0  0  0  0  0
    6.0282   -1.7885    0.3210 C   0  0  0  0  0  0  0  0  0  0  0  0
    8.2070   -0.0622    0.5571 C   0  0  0  0  0  0  0  0  0  0  0  0
    7.2550   -2.2719    0.7762 C   0  0  0  0  0  0  0  0  0  0  0  0
    8.3445   -1.4089    0.8940 C   0  0  0  0  0  0  0  0  0  0  0  0
    9.3235    0.8215    0.6780 C   0  0  0  0  0  0  0  0  0  0  0  0
   -0.0148    2.0750    0.0178 H   0  0  0  0  0  0  0  0  0  0  0  0
   -0.5420   -0.9177   -0.1754 H   0  0  0  0  0  0  0  0  0  0  0  0
    0.6805   -0.0583    0.7431 H   0  0  0  0  0  0  0  0  0  0  0  0
    1.1225   -1.3174   -1.7181 H   0  0  0  0  0  0  0  0  0  0  0  0
   -0.9456    2.1754   -2.5421 H   0  0  0  0  0  0  0  0  0  0  0  0
    0.7904    0.5785   -3.5017 H   0  0  0  0  0  0  0  0  0  0  0  0
    2.6597    1.1688   -1.2350 H   0  0  0  0  0  0  0  0  0  0  0  0
   -2.9313   -1.6537   -0.7795 H   0  0  0  0  0  0  0  0  0  0  0  0
   -3.9653   -0.7277   -1.8888 H   0  0  0  0  0  0  0  0  0  0  0  0
   -2.2263   -0.6415   -2.0384 H   0  0  0  0  0  0  0  0  0  0  0  0
   -1.1136    2.8839    2.2860 H   0  0  0  0  0  0  0  0  0  0  0  0
   -2.6507    3.7561    2.3539 H   0  0  0  0  0  0  0  0  0  0  0  0
   -1.5631    3.9992    0.9806 H   0  0  0  0  0  0  0  0  0  0  0  0
   -4.7202   -1.6844    0.9594 H   0  0  0  0  0  0  0  0  0  0  0  0
   -6.3536    2.0817   -0.3608 H   0  0  0  0  0  0  0  0  0  0  0  0
    4.6233    1.0390   -0.7035 H   0  0  0  0  0  0  0  0  0  0  0  0
   -8.5900    1.0879   -0.4499 H   0  0  0  0  0  0  0  0  0  0  0  0
  -10.0461   -0.6949   -0.1971 H   0  0  0  0  0  0  0  0  0  0  0  0
   -9.6308   -1.8004    1.1107 H   0  0  0  0  0  0  0  0  0  0  0  0
   -9.3524   -2.2655   -0.5937 H   0  0  0  0  0  0  0  0  0  0  0  0
    6.8710    1.4717   -0.1611 H   0  0  0  0  0  0  0  0  0  0  0  0
    5.2328   -2.5174    0.2565 H   0  0  0  0  0  0  0  0  0  0  0  0
    7.3632   -3.3203    1.0389 H   0  0  0  0  0  0  0  0  0  0  0  0
    9.2943   -1.8008    1.2501 H   0  0  0  0  0  0  0  0  0  0  0  0
  1 22  1  0  0  0  0
  2 19  2  0  0  0  0
  3 10  1  0  0  0  0
  3 19  1  0  0  0  0
  3 39  1  0  0  0  0
  4  5  1  0  0  0  0
  4 14  1  0  0  0  0
  4 18  1  0  0  0  0
  5 15  2  0  0  0  0
  6 19  1  0  0  0  0
  6 25  1  0  0  0  0
  6 48  1  0  0  0  0
  7 32  3  0  0  0  0
  8  9  1  0  0  0  0
  8 11  1  0  0  0  0
  8 12  1  0  0  0  0
  8 33  1  0  0  0  0
  9 10  1  0  0  0  0
  9 34  1  0  0  0  0
  9 35  1  0  0  0  0
 10 13  1  0  0  0  0
 10 36  1  0  0  0  0
 11 14  2  0  0  0  0
 11 15  1  0  0  0  0
 12 13  2  0  0  0  0
 12 37  1  0  0  0  0
 13 38  1  0  0  0  0
 14 16  1  0  0  0  0
 15 17  1  0  0  0  0
 16 40  1  0  0  0  0
 16 41  1  0  0  0  0
 16 42  1  0  0  0  0
 17 43  1  0  0  0  0
 17 44  1  0  0  0  0
 17 45  1  0  0  0  0
 18 20  2  0  0  0  0
 18 21  1  0  0  0  0
 20 22  1  0  0  0  0
 20 46  1  0  0  0  0
 21 23  2  0  0  0  0
 21 47  1  0  0  0  0
 22 24  2  0  0  0  0
 23 24  1  0  0  0  0
 23 49  1  0  0  0  0
 24 26  1  0  0  0  0
 25 27  1  0  0  0  0
 25 28  2  0  0  0  0
 26 50  1  0  0  0  0
 26 51  1  0  0  0  0
 26 52  1  0  0  0  0
 27 29  2  0  0  0  0
 27 53  1  0  0  0  0
 28 30  1  0  0  0  0
 28 54  1  0  0  0  0
 29 31  1  0  0  0  0
 29 32  1  0  0  0  0
 30 31  2  0  0  0  0
 30 55  1  0  0  0  0
 31 56  1  0  0  0  0
M  END
> <PUBCHEM_COMPOUND_CID>
25390052

> <PUBCHEM_CONFORMER_RMSD>
1

> <PUBCHEM_CONFORMER_DIVERSEORDER>
1
86
431
313
237
254
374
343
145
212
436
208
240
463
58
190
429
15
404
340
336
213
239
439
202
440
14
267
294
316
320
489
311
136
467
503
61
379
245
197
476
30
34
77
323
192
385
5
468
173
337
391
97
293
42
383
47
80
62
486
358
69
236
199
188
55
373
455
409
338
312
144
56
382
84
362
324
103
43
308
232
64
48
137
470
505
493
363
10
33
434
417
408
76
283
479
427
159
392
345
26
170
292
98
263
165
357
403
67
156
140
485
81
471
441
395
35
400
368
233
388
286
466
101
19
380
497
384
89
104
31
234
252
247
491
114
224
27
264
295
149
22
414
215
351
176
348
79
39
282
178
78
438
517
73
350
108
160
260
38
448
217
216
325
220
70
11
174
488
276
6
185
335
90
246
21
46
231
68
17
72
221
365
49
4
135
118
226
53
13
7
32
331
2
248
115
3

> <PUBCHEM_MMFF94_PARTIAL_CHARGES>
42
1 -0.18
10 0.44
11 -0.18
12 -0.29
13 -0.29
14 -0.33
15 0.11
16 0.18
17 0.18
18 -0.02
19 0.69
2 -0.57
20 -0.15
21 -0.15
22 0.18
23 -0.15
24 -0.14
25 0.12
26 0.14
27 -0.15
28 -0.15
29 0.07
3 -0.73
30 -0.15
31 -0.15
32 0.48
37 0.15
38 0.15
39 0.37
4 0.59
46 0.15
47 0.15
48 0.37
49 0.15
5 -0.71
53 0.15
54 0.15
55 0.15
56 0.15
6 -0.55
7 -0.56
8 0.32

> <PUBCHEM_EFFECTIVE_ROTOR_COUNT>
6.6

> <PUBCHEM_PHARMACOPHORE_FEATURES>
9
1 2 acceptor
1 3 donor
1 5 acceptor
1 6 donor
1 7 acceptor
5 4 5 11 14 15 rings
5 8 9 10 12 13 rings
6 18 20 21 22 23 24 rings
6 25 27 28 29 30 31 rings

> <PUBCHEM_HEAVY_ATOM_COUNT>
32

> <PUBCHEM_ATOM_DEF_STEREO_COUNT>
2

> <PUBCHEM_ATOM_UDEF_STEREO_COUNT>
0

> <PUBCHEM_BOND_DEF_STEREO_COUNT>
0

> <PUBCHEM_BOND_UDEF_STEREO_COUNT>
0

> <PUBCHEM_ISOTOPIC_ATOM_COUNT>
0

> <PUBCHEM_COMPONENT_COUNT>
1

> <PUBCHEM_CACTVS_TAUTO_COUNT>
3

> <PUBCHEM_CONFORMER_ID>
01836BE400000001

> <PUBCHEM_MMFF94_ENERGY>
86.985

> <PUBCHEM_FEATURE_SELFOVERLAP>
45.723

> <PUBCHEM_SHAPE_FINGERPRINT>
10 15 17846497028560007622
10165383 225 15051734192123152245
10369192 42 14117516519532979713
106641 1 18342175579254936892
10674148 151 15647049353199173685
11103572 95 18191586350598060367
11135609 99 18337113462006847087
11408170 132 9151162170181304026
12202916 173 16660364770872810394
12643181 29 15430040976117271569
13177829 20 18412825772744872756
13540713 4 16914835626036396341
13560911 43 17989486321314892936
14068700 675 18187087248012621101
14117953 113 11963388527799223464
14150022 121 16916795033414541209
14849402 71 18271522087921772960
15183329 4 10809343334871853196
15326923 82 18187644729960471637
15347590 135 17561090176635982435
15690457 1 18113054939105771370
15706992 2 12679188236996778543
15728490 51 18343581862969234655
16992610 120 13830133927598135972
17686467 74 18412822499410861000
19611394 137 18202285831085492931
20505436 4 11095884835457626053
21130935 74 18264206916586531146
212700 22 17894911849546483683
21585482 111 12535083979407535051
22224240 67 18260266335626452490
23389318 12 17167874071515750918
23559900 14 18191308385659150145
23576562 1 8934129518144497219
249057 25 18189070753756236404
2747138 104 17774734098800290756
3418910 222 18131080324801753240
3663271 9 18340205186093988346
3711267 37 15195285339672099418
3991529 128 17131834309418743872
4149490 64 17750812111121202921
4339292 15 16081365199778370122
4516262 110 12247684816897472985
45266715 3 15574713552227250138
5758199 1 14117517632092384223
59682541 35 18202280320948426450
5969126 39 16877940512380049429
6126387 218 17894628128633679461
6201320 82 10590949522750788675
636783 156 10518615985796600312
6697151 62 15575003900696025804
6698420 124 13254793551699156470
9689198 14 11600005453234954381
9953998 17 15841548587976026967

> <PUBCHEM_SHAPE_MULTIPOLES>
629.64
32.86
2.59
1.43
38.05
0.42
0.55
13.94
-12.06
-2.51
-1.28
0.07
-0.6
0.07

> <PUBCHEM_SHAPE_SELFOVERLAP>
1358.645

> <PUBCHEM_SHAPE_VOLUME>
346.9

> <PUBCHEM_COORDINATE_TYPE>
2
5
10

$$$$
