75537072
  -OEChem-12032416333D

 47 50  0     1  0  0  0  0  0999 V2000
   -6.2491    1.3884    0.0073 O   0  0  0  0  0  0  0  0  0  0  0  0
    2.0031   -2.6906   -0.6944 O   0  0  0  0  0  0  0  0  0  0  0  0
   -2.5121   -0.5215    0.1246 N   0  0  1  0  0  0  0  0  0  0  0  0
    0.0412   -1.7011    0.1368 N   0  0  0  0  0  0  0  0  0  0  0  0
    2.0129   -1.0092    0.9600 N   0  0  0  0  0  0  0  0  0  0  0  0
    4.2697    1.4396    0.9230 N   0  0  0  0  0  0  0  0  0  0  0  0
   -0.3109   -0.7782    1.1955 C   0  0  2  0  0  0  0  0  0  0  0  0
   -1.3701    0.2104    0.7089 C   0  0  0  0  0  0  0  0  0  0  0  0
   -3.5568    0.4123   -0.2887 C   0  0  0  0  0  0  0  0  0  0  0  0
   -2.0781   -1.3475   -1.0202 C   0  0  0  0  0  0  0  0  0  0  0  0
    1.0244   -0.1480    1.5861 C   0  0  0  0  0  0  0  0  0  0  0  0
   -1.0112   -2.3637   -0.6051 C   0  0  0  0  0  0  0  0  0  0  0  0
   -3.9794    1.3163    0.8735 C   0  0  0  0  0  0  0  0  0  0  0  0
   -4.7705   -0.3507   -0.8272 C   0  0  0  0  0  0  0  0  0  0  0  0
    1.4246   -1.9037    0.0433 C   0  0  0  0  0  0  0  0  0  0  0  0
   -5.1594    2.1904    0.4630 C   0  0  0  0  0  0  0  0  0  0  0  0
   -5.9067    0.6156   -1.1434 C   0  0  0  0  0  0  0  0  0  0  0  0
    3.4320   -0.8271    1.1713 C   0  0  0  0  0  0  0  0  0  0  0  0
    3.9925    0.2672    0.3097 C   0  0  0  0  0  0  0  0  0  0  0  0
    4.1958    0.0308   -1.0403 C   0  0  0  0  0  0  0  0  0  0  0  0
    4.7173    1.0643   -1.8105 C   0  0  0  0  0  0  0  0  0  0  0  0
    4.7752    2.4208    0.1423 C   0  0  0  0  0  0  0  0  0  0  0  0
    5.0155    2.2852   -1.2155 C   0  0  0  0  0  0  0  0  0  0  0  0
   -0.7000   -1.3798    2.0276 H   0  0  0  0  0  0  0  0  0  0  0  0
   -1.6510    0.7851    1.5956 H   0  0  0  0  0  0  0  0  0  0  0  0
   -0.9431    0.9043   -0.0276 H   0  0  0  0  0  0  0  0  0  0  0  0
   -3.1777    1.0595   -1.0937 H   0  0  0  0  0  0  0  0  0  0  0  0
   -1.6824   -0.7109   -1.8227 H   0  0  0  0  0  0  0  0  0  0  0  0
   -2.8936   -1.9446   -1.4359 H   0  0  0  0  0  0  0  0  0  0  0  0
    1.1453    0.8651    1.1891 H   0  0  0  0  0  0  0  0  0  0  0  0
    1.1702   -0.1357    2.6704 H   0  0  0  0  0  0  0  0  0  0  0  0
   -1.4406   -3.1279    0.0530 H   0  0  0  0  0  0  0  0  0  0  0  0
   -0.5827   -2.8685   -1.4767 H   0  0  0  0  0  0  0  0  0  0  0  0
   -3.1849    1.9991    1.1888 H   0  0  0  0  0  0  0  0  0  0  0  0
   -4.2714    0.7028    1.7356 H   0  0  0  0  0  0  0  0  0  0  0  0
   -5.1157   -1.0749   -0.0779 H   0  0  0  0  0  0  0  0  0  0  0  0
   -4.5562   -0.8926   -1.7524 H   0  0  0  0  0  0  0  0  0  0  0  0
   -5.5102    2.7705    1.3226 H   0  0  0  0  0  0  0  0  0  0  0  0
   -4.8767    2.9012   -0.3226 H   0  0  0  0  0  0  0  0  0  0  0  0
   -5.6425    1.2878   -1.9683 H   0  0  0  0  0  0  0  0  0  0  0  0
   -6.7981    0.0565   -1.4454 H   0  0  0  0  0  0  0  0  0  0  0  0
    3.9471   -1.7669    0.9396 H   0  0  0  0  0  0  0  0  0  0  0  0
    3.6000   -0.6153    2.2333 H   0  0  0  0  0  0  0  0  0  0  0  0
    3.9683   -0.9253   -1.4979 H   0  0  0  0  0  0  0  0  0  0  0  0
    4.8927    0.9182   -2.8721 H   0  0  0  0  0  0  0  0  0  0  0  0
    4.9904    3.3530    0.6541 H   0  0  0  0  0  0  0  0  0  0  0  0
    5.4230    3.1047   -1.7963 H   0  0  0  0  0  0  0  0  0  0  0  0
  1 16  1  0  0  0  0
  1 17  1  0  0  0  0
  2 15  2  0  0  0  0
  3  8  1  0  0  0  0
  3  9  1  0  0  0  0
  3 10  1  0  0  0  0
  4  7  1  0  0  0  0
  4 12  1  0  0  0  0
  4 15  1  0  0  0  0
  5 11  1  0  0  0  0
  5 15  1  0  0  0  0
  5 18  1  0  0  0  0
  6 19  1  0  0  0  0
  6 22  2  0  0  0  0
  7  8  1  0  0  0  0
  7 11  1  0  0  0  0
  7 24  1  0  0  0  0
  8 25  1  0  0  0  0
  8 26  1  0  0  0  0
  9 13  1  0  0  0  0
  9 14  1  0  0  0  0
  9 27  1  0  0  0  0
 10 12  1  0  0  0  0
 10 28  1  0  0  0  0
 10 29  1  0  0  0  0
 11 30  1  0  0  0  0
 11 31  1  0  0  0  0
 12 32  1  0  0  0  0
 12 33  1  0  0  0  0
 13 16  1  0  0  0  0
 13 34  1  0  0  0  0
 13 35  1  0  0  0  0
 14 17  1  0  0  0  0
 14 36  1  0  0  0  0
 14 37  1  0  0  0  0
 16 38  1  0  0  0  0
 16 39  1  0  0  0  0
 17 40  1  0  0  0  0
 17 41  1  0  0  0  0
 18 19  1  0  0  0  0
 18 42  1  0  0  0  0
 18 43  1  0  0  0  0
 19 20  2  0  0  0  0
 20 21  1  0  0  0  0
 20 44  1  0  0  0  0
 21 23  2  0  0  0  0
 21 45  1  0  0  0  0
 22 23  1  0  0  0  0
 22 46  1  0  0  0  0
 23 47  1  0  0  0  0
M  END
> <PUBCHEM_COMPOUND_CID>
75537072

> <PUBCHEM_CONFORMER_RMSD>
0.8

> <PUBCHEM_CONFORMER_DIVERSEORDER>
1
19
42
51
57
43
10
59
37
49
8
45
55
20
32
29
22
48
33
58
53
40
44
3
12
38
2
11
27
54
14
13
17
30
52
25
4
46
47
6
50
35
24
56
31
60
23
26
21
7
39
36
5
28
15
9
34
18
16
41

> <PUBCHEM_MMFF94_PARTIAL_CHARGES>
25
1 -0.56
10 0.27
11 0.3
12 0.3
15 0.69
16 0.28
17 0.28
18 0.44
19 0.17
2 -0.57
20 -0.15
21 -0.15
22 0.16
23 -0.15
3 -0.81
4 -0.66
44 0.15
45 0.15
46 0.15
47 0.15
5 -0.66
6 -0.62
7 0.3
8 0.27
9 0.27

> <PUBCHEM_EFFECTIVE_ROTOR_COUNT>
5.4

> <PUBCHEM_PHARMACOPHORE_FEATURES>
8
1 1 acceptor
1 2 acceptor
1 3 cation
1 6 acceptor
5 4 5 7 11 15 rings
6 1 9 13 14 16 17 rings
6 3 4 7 8 10 12 rings
6 6 19 20 21 22 23 rings

> <PUBCHEM_HEAVY_ATOM_COUNT>
23

> <PUBCHEM_ATOM_DEF_STEREO_COUNT>
1

> <PUBCHEM_ATOM_UDEF_STEREO_COUNT>
0

> <PUBCHEM_BOND_DEF_STEREO_COUNT>
0

> <PUBCHEM_BOND_UDEF_STEREO_COUNT>
0

> <PUBCHEM_ISOTOPIC_ATOM_COUNT>
0

> <PUBCHEM_COMPONENT_COUNT>
1

> <PUBCHEM_CACTVS_TAUTO_COUNT>
1

> <PUBCHEM_CONFORMER_ID>
04809AB000000001

> <PUBCHEM_MMFF94_ENERGY>
52.4251

> <PUBCHEM_FEATURE_SELFOVERLAP>
40.693

> <PUBCHEM_SHAPE_FINGERPRINT>
10319926 262 12902086670911527208
10498660 4 18271249434274287136
10554248 39 18124576614896504655
10591671 39 18340768234710630271
10670039 82 18342745070190835968
11796584 16 12463564071960726765
11961588 58 18201716296868150278
12596602 18 17676207949290113297
12633257 1 15285921446024560372
12839892 36 11819267850233242057
12892183 10 12613020726410885702
13782708 43 12031487914479950853
13955234 65 17604987014148756227
1420 369 9727640500888499260
14211702 104 10879404241759645133
14251751 18 10303818652875615367
14251764 38 17824251605859156477
14251764 75 17170698823734643900
14528608 73 18342173375541230933
14774955 27 18333730221366751637
14790565 3 18341896243167041777
14840074 17 18114186341219467093
14848178 5 10807940336212139420
15163728 17 18263659488322813702
15183329 4 15769782333906022945
15188451 53 9150900433882079940
15210252 30 18334579092237810360
15342168 16 18334012791554965119
15475509 35 10087629399520190421
15475509 8 15554176900193021001
15510800 12 12967138228750816188
15961568 22 18114184107704701813
17857418 61 9439398026030225025
17959699 21 18413673517304968378
18335252 114 18335414630642275580
193927 3 11599729497064541212
1979834 28 13479130159829874617
20567600 234 16298393482814552069
20567600 9 18341060614197835748
20715895 44 18413105083074299968
21033648 29 15647319836700309342
21637258 2 12175623949492903318
22061861 79 14549016576746329769
22079108 93 17095243635533918475
22849339 104 17417524843305819639
23366157 5 18053384293233681671
23559900 14 18199746947174244866
245318 6 17751093602492592300
270888 7 17969226805892155436
2838139 119 18334289855621530597
3004659 81 17987796294232629758
33382 64 12391512009597757981
3472631 163 18338800117001555916
34797466 226 16056301917410002961
351380 3 10735882780792052316
3886686 26 11029675530397275820
465052 167 8934997100799518520
474 4 18113618993124068906
5104073 3 17603301578871303978
543368 44 18410291441382479269
56616090 163 18412833490231937215
56633871 153 11314296269899338832
59682541 52 15984825891676739949
6034566 193 18116449217431808100
633830 44 18187080676680853618
7237137 82 18270390724388826759
76465 3 9583519810817118907
7970288 3 10159160328011341228
960060 61 15410899582647913672

> <PUBCHEM_SHAPE_MULTIPOLES>
441.67
14.16
2.6
1.43
7.85
0.1
-0.09
-11.95
-3.84
-1.26
-0.36
-0.88
-0.11
-1.31

> <PUBCHEM_SHAPE_SELFOVERLAP>
937.105

> <PUBCHEM_SHAPE_VOLUME>
246.2

> <PUBCHEM_COORDINATE_TYPE>
2
5
10

$$$$
