56775159
  -OEChem-12032416273D

 44 47  0     1  0  0  0  0  0999 V2000
    4.7330    1.4913   -2.1192 F   0  0  0  0  0  0  0  0  0  0  0  0
    6.2805    1.7885   -0.6210 F   0  0  0  0  0  0  0  0  0  0  0  0
    4.4002    2.8711   -0.4794 F   0  0  0  0  0  0  0  0  0  0  0  0
   -0.8052   -2.8796   -0.3981 O   0  0  0  0  0  0  0  0  0  0  0  0
   -3.3320   -1.4251   -2.4399 O   0  0  0  0  0  0  0  0  0  0  0  0
    1.2198   -0.9316    0.6392 N   0  0  0  0  0  0  0  0  0  0  0  0
   -2.1384   -0.4597   -0.6914 N   0  0  0  0  0  0  0  0  0  0  0  0
    3.0421    0.3252   -0.0474 N   0  0  0  0  0  0  0  0  0  0  0  0
    3.2893   -1.4845    1.5245 N   0  0  0  0  0  0  0  0  0  0  0  0
   -1.0932   -0.6036    0.3152 C   0  0  1  0  0  0  0  0  0  0  0  0
   -0.8556   -2.0419    0.7544 C   0  0  2  0  0  0  0  0  0  0  0  0
    0.2909   -0.1683   -0.1914 C   0  0  0  0  0  0  0  0  0  0  0  0
    0.5381   -1.9927    1.3832 C   0  0  0  0  0  0  0  0  0  0  0  0
   -2.5537   -1.5222   -1.4896 C   0  0  0  0  0  0  0  0  0  0  0  0
   -2.0477   -2.8892   -1.0635 C   0  0  0  0  0  0  0  0  0  0  0  0
   -2.6248    0.8882   -0.9501 C   0  0  0  0  0  0  0  0  0  0  0  0
    2.5746   -0.6867    0.7083 C   0  0  0  0  0  0  0  0  0  0  0  0
   -3.8602    1.2018   -0.1564 C   0  0  0  0  0  0  0  0  0  0  0  0
   -5.1199    0.9272   -0.6887 C   0  0  0  0  0  0  0  0  0  0  0  0
   -3.7479    1.7679    1.1134 C   0  0  0  0  0  0  0  0  0  0  0  0
    4.3714    0.5374    0.0445 C   0  0  0  0  0  0  0  0  0  0  0  0
    4.6110   -1.2168    1.5684 C   0  0  0  0  0  0  0  0  0  0  0  0
    5.2134   -0.2088    0.8436 C   0  0  0  0  0  0  0  0  0  0  0  0
   -6.2674    1.2187    0.0489 C   0  0  0  0  0  0  0  0  0  0  0  0
   -4.8952    2.0594    1.8510 C   0  0  0  0  0  0  0  0  0  0  0  0
   -6.1551    1.7849    1.3187 C   0  0  0  0  0  0  0  0  0  0  0  0
    4.9320    1.6491   -0.7773 C   0  0  0  0  0  0  0  0  0  0  0  0
   -1.3631   -0.0086    1.1965 H   0  0  0  0  0  0  0  0  0  0  0  0
   -1.6078   -2.4228    1.4541 H   0  0  0  0  0  0  0  0  0  0  0  0
    0.4202    0.9127   -0.0667 H   0  0  0  0  0  0  0  0  0  0  0  0
    0.4375   -0.4197   -1.2487 H   0  0  0  0  0  0  0  0  0  0  0  0
    0.4775   -1.7120    2.4405 H   0  0  0  0  0  0  0  0  0  0  0  0
    1.0549   -2.9531    1.2814 H   0  0  0  0  0  0  0  0  0  0  0  0
   -2.8071   -3.3603   -0.4289 H   0  0  0  0  0  0  0  0  0  0  0  0
   -1.9333   -3.5031   -1.9628 H   0  0  0  0  0  0  0  0  0  0  0  0
   -2.8456    0.9921   -2.0200 H   0  0  0  0  0  0  0  0  0  0  0  0
   -1.8330    1.6164   -0.7382 H   0  0  0  0  0  0  0  0  0  0  0  0
   -5.2241    0.4898   -1.6777 H   0  0  0  0  0  0  0  0  0  0  0  0
   -2.7734    1.9916    1.5388 H   0  0  0  0  0  0  0  0  0  0  0  0
    5.1917   -1.8564    2.2244 H   0  0  0  0  0  0  0  0  0  0  0  0
    6.2789   -0.0328    0.9123 H   0  0  0  0  0  0  0  0  0  0  0  0
   -7.2483    1.0057   -0.3658 H   0  0  0  0  0  0  0  0  0  0  0  0
   -4.8080    2.5012    2.8393 H   0  0  0  0  0  0  0  0  0  0  0  0
   -7.0485    2.0123    1.8928 H   0  0  0  0  0  0  0  0  0  0  0  0
  1 27  1  0  0  0  0
  2 27  1  0  0  0  0
  3 27  1  0  0  0  0
  4 11  1  0  0  0  0
  4 15  1  0  0  0  0
  5 14  2  0  0  0  0
  6 12  1  0  0  0  0
  6 13  1  0  0  0  0
  6 17  1  0  0  0  0
  7 10  1  0  0  0  0
  7 14  1  0  0  0  0
  7 16  1  0  0  0  0
  8 17  1  0  0  0  0
  8 21  2  0  0  0  0
  9 17  2  0  0  0  0
  9 22  1  0  0  0  0
 10 11  1  0  0  0  0
 10 12  1  0  0  0  0
 10 28  1  0  0  0  0
 11 13  1  0  0  0  0
 11 29  1  0  0  0  0
 12 30  1  0  0  0  0
 12 31  1  0  0  0  0
 13 32  1  0  0  0  0
 13 33  1  0  0  0  0
 14 15  1  0  0  0  0
 15 34  1  0  0  0  0
 15 35  1  0  0  0  0
 16 18  1  0  0  0  0
 16 36  1  0  0  0  0
 16 37  1  0  0  0  0
 18 19  2  0  0  0  0
 18 20  1  0  0  0  0
 19 24  1  0  0  0  0
 19 38  1  0  0  0  0
 20 25  2  0  0  0  0
 20 39  1  0  0  0  0
 21 23  1  0  0  0  0
 21 27  1  0  0  0  0
 22 23  2  0  0  0  0
 22 40  1  0  0  0  0
 23 41  1  0  0  0  0
 24 26  2  0  0  0  0
 24 42  1  0  0  0  0
 25 26  1  0  0  0  0
 25 43  1  0  0  0  0
 26 44  1  0  0  0  0
M  END
> <PUBCHEM_COMPOUND_CID>
56775159

> <PUBCHEM_CONFORMER_RMSD>
0.8

> <PUBCHEM_CONFORMER_DIVERSEORDER>
1
20
14
57
28
52
55
49
47
37
43
26
21
59
41
50
56
45
22
6
24
40
46
35
51
9
58
2
61
34
3
27
32
12
36
23
38
10
39
15
48
60
8
19
25
31
17
5
53
18
7
54
44
16
33
11
30
13
29
42
4

> <PUBCHEM_MMFF94_PARTIAL_CHARGES>
34
1 -0.34
10 0.3
11 0.28
12 0.37
13 0.37
14 0.57
15 0.34
16 0.44
17 0.72
18 -0.14
19 -0.15
2 -0.34
20 -0.15
21 0.17
22 0.16
23 -0.15
24 -0.15
25 -0.15
26 -0.15
27 1.16
3 -0.34
38 0.15
39 0.15
4 -0.56
40 0.15
41 0.15
42 0.15
43 0.15
44 0.15
5 -0.57
6 -0.84
7 -0.66
8 -0.62
9 -0.62

> <PUBCHEM_EFFECTIVE_ROTOR_COUNT>
5.2

> <PUBCHEM_PHARMACOPHORE_FEATURES>
8
1 4 acceptor
1 5 acceptor
1 8 acceptor
4 6 8 9 17 cation
5 6 10 11 12 13 rings
6 18 19 20 24 25 26 rings
6 4 7 10 11 14 15 rings
6 8 9 17 21 22 23 rings

> <PUBCHEM_HEAVY_ATOM_COUNT>
27

> <PUBCHEM_ATOM_DEF_STEREO_COUNT>
2

> <PUBCHEM_ATOM_UDEF_STEREO_COUNT>
0

> <PUBCHEM_BOND_DEF_STEREO_COUNT>
0

> <PUBCHEM_BOND_UDEF_STEREO_COUNT>
0

> <PUBCHEM_ISOTOPIC_ATOM_COUNT>
0

> <PUBCHEM_COMPONENT_COUNT>
1

> <PUBCHEM_CACTVS_TAUTO_COUNT>
2

> <PUBCHEM_CONFORMER_ID>
036251F700000001

> <PUBCHEM_MMFF94_ENERGY>
75.3581

> <PUBCHEM_FEATURE_SELFOVERLAP>
40.797

> <PUBCHEM_SHAPE_FINGERPRINT>
10 15 16588027922346018984
10794284 68 17757587365996387267
11049842 53 17916288455682035942
11273773 42 18263931097417026948
11475781 23 16128370424590539168
11823591 26 17916295053542008593
12390115 104 18060143133169745267
12616971 3 18260818281398725914
12760667 363 9871750182879728145
12788726 201 18197489847560801247
13540713 5 18261657273275084098
13583140 156 13696411331679804142
13782708 43 14780105239097308946
13885169 86 18335991946829375937
14187579 7 17986106546381368336
14251764 75 18115879653862045956
1454969 45 18341891893013575573
14790565 3 18410573972625570217
14840074 17 18333456426198307093
15021287 119 17971740095920057474
15163728 17 18273221884535063318
15183329 4 14333413302990238561
15238133 3 18130782335511414536
16760501 71 17895199921344520648
1768 23 18342188734502771377
18222031 100 11170206336283391427
18785283 64 18123470471344195131
19319366 153 18261668190627854434
21033650 10 16630254623075611337
21120745 212 18051694644667574439
21315764 119 17489316252582095852
21458453 9 15648209384536117753
21585480 29 17096955609835806195
21756936 100 18337113457268495115
22079108 93 17095525080240181723
22122407 14 17824252714409039845
22620623 9 17059760235153665783
23198884 109 17489872626550520997
23559900 14 10951178152568933039
25147074 1 18335969939522238650
3027735 51 11383569840861612773
3459 110 16009040552197950005
3472631 163 18412266155237966564
3552219 110 18337385067887164199
3610482 184 18342742952476099365
3729539 64 13542470817620523477
38570 142 18262816102711255566
397830 11 16515697657935099329
437795 70 16056608616207897913
469060 322 15430313706651726899
474 4 18334289834130779026
5104073 3 17822282548632853778
5912855 24 18334574693737521579
59682541 52 15195007068408999693
6034566 193 18335429009723426671
633830 44 18335137575097819334

> <PUBCHEM_SHAPE_MULTIPOLES>
502.16
15.12
2.95
1.73
3.05
0.76
0.23
-12.69
-0.99
-0.32
0.39
-0.2
0.14
-3.97

> <PUBCHEM_SHAPE_SELFOVERLAP>
1094.782

> <PUBCHEM_SHAPE_VOLUME>
273.7

> <PUBCHEM_COORDINATE_TYPE>
2
5
10

$$$$
