25314482
  -OEChem-12032416193D

 59 62  0     1  0  0  0  0  0999 V2000
    2.7586   -1.8244   -1.3340 O   0  0  0  0  0  0  0  0  0  0  0  0
    3.3423   -3.2388    0.4095 O   0  0  0  0  0  0  0  0  0  0  0  0
    3.1866   -1.1642    2.4027 O   0  0  0  0  0  0  0  0  0  0  0  0
    3.9019    2.6032    0.9327 O   0  0  0  0  0  0  0  0  0  0  0  0
    0.3900   -1.0248    0.0790 N   0  0  0  0  0  0  0  0  0  0  0  0
    3.0983    0.9757   -0.5146 N   0  0  0  0  0  0  0  0  0  0  0  0
    2.7487    3.1939   -0.9921 N   0  0  0  0  0  0  0  0  0  0  0  0
    1.5277   -1.6730    0.7343 C   0  0  2  0  0  0  0  0  0  0  0  0
    2.5133   -0.6078    1.2658 C   0  0  2  0  0  0  0  0  0  0  0  0
    3.5700   -0.1746    0.2260 C   0  0  1  0  0  0  0  0  0  0  0  0
    2.2335   -2.6147   -0.2587 C   0  0  1  0  0  0  0  0  0  0  0  0
    3.9574   -1.3026   -0.7523 C   0  0  1  0  0  0  0  0  0  0  0  0
   -0.5712   -0.5403    1.0786 C   0  0  0  0  0  0  0  0  0  0  0  0
   -0.2503   -1.9462   -0.8694 C   0  0  0  0  0  0  0  0  0  0  0  0
   -2.4401   -0.7069   -0.6170 C   0  0  0  0  0  0  0  0  0  0  0  0
    4.5024   -2.5481   -0.0790 C   0  0  0  0  0  0  0  0  0  0  0  0
   -1.7409    0.1874    0.4124 C   0  0  0  0  0  0  0  0  0  0  0  0
   -1.4085   -1.2662   -1.6026 C   0  0  0  0  0  0  0  0  0  0  0  0
   -3.5407    0.0561   -1.3488 C   0  0  0  0  0  0  0  0  0  0  0  0
   -4.7885    0.1660   -0.5158 C   0  0  0  0  0  0  0  0  0  0  0  0
    3.3052    2.2855   -0.0953 C   0  0  0  0  0  0  0  0  0  0  0  0
   -5.7722   -0.8193   -0.6002 C   0  0  0  0  0  0  0  0  0  0  0  0
   -4.9617    1.2528    0.3410 C   0  0  0  0  0  0  0  0  0  0  0  0
    2.8172    4.6236   -0.8014 C   0  0  0  0  0  0  0  0  0  0  0  0
   -6.9292   -0.7178    0.1721 C   0  0  0  0  0  0  0  0  0  0  0  0
   -6.1188    1.3544    1.1134 C   0  0  0  0  0  0  0  0  0  0  0  0
   -7.1026    0.3691    1.0289 C   0  0  0  0  0  0  0  0  0  0  0  0
    1.7719    5.1022    0.1848 C   0  0  0  0  0  0  0  0  0  0  0  0
    1.1875   -2.2969    1.5737 H   0  0  0  0  0  0  0  0  0  0  0  0
    1.9911    0.2699    1.6593 H   0  0  0  0  0  0  0  0  0  0  0  0
    4.4834    0.1345    0.7505 H   0  0  0  0  0  0  0  0  0  0  0  0
    1.6241   -3.4405   -0.6348 H   0  0  0  0  0  0  0  0  0  0  0  0
    4.6266   -0.9325   -1.5359 H   0  0  0  0  0  0  0  0  0  0  0  0
   -0.1043    0.1642    1.7744 H   0  0  0  0  0  0  0  0  0  0  0  0
   -0.9604   -1.3728    1.6803 H   0  0  0  0  0  0  0  0  0  0  0  0
   -0.6175   -2.8504   -0.3659 H   0  0  0  0  0  0  0  0  0  0  0  0
    0.4047   -2.2421   -1.6932 H   0  0  0  0  0  0  0  0  0  0  0  0
   -2.8791   -1.5633   -0.0852 H   0  0  0  0  0  0  0  0  0  0  0  0
    4.9847   -3.2080   -0.8081 H   0  0  0  0  0  0  0  0  0  0  0  0
    5.2030   -2.3461    0.7356 H   0  0  0  0  0  0  0  0  0  0  0  0
   -2.4385    0.4948    1.1980 H   0  0  0  0  0  0  0  0  0  0  0  0
   -1.3716    1.1031   -0.0678 H   0  0  0  0  0  0  0  0  0  0  0  0
   -1.0180   -0.4561   -2.2332 H   0  0  0  0  0  0  0  0  0  0  0  0
   -1.8873   -1.9896   -2.2739 H   0  0  0  0  0  0  0  0  0  0  0  0
    2.5248    0.8169   -1.3376 H   0  0  0  0  0  0  0  0  0  0  0  0
   -3.7985   -0.4579   -2.2846 H   0  0  0  0  0  0  0  0  0  0  0  0
   -3.1993    1.0542   -1.6529 H   0  0  0  0  0  0  0  0  0  0  0  0
    3.7604   -0.4715    2.7724 H   0  0  0  0  0  0  0  0  0  0  0  0
   -5.6480   -1.6723   -1.2622 H   0  0  0  0  0  0  0  0  0  0  0  0
   -4.2085    2.0329    0.4108 H   0  0  0  0  0  0  0  0  0  0  0  0
    2.2653    2.8383   -1.8111 H   0  0  0  0  0  0  0  0  0  0  0  0
    3.8190    4.8857   -0.4453 H   0  0  0  0  0  0  0  0  0  0  0  0
    2.6632    5.0932   -1.7778 H   0  0  0  0  0  0  0  0  0  0  0  0
   -7.6949   -1.4852    0.1068 H   0  0  0  0  0  0  0  0  0  0  0  0
   -6.2547    2.2017    1.7790 H   0  0  0  0  0  0  0  0  0  0  0  0
   -8.0036    0.4485    1.6300 H   0  0  0  0  0  0  0  0  0  0  0  0
    0.7644    4.8390   -0.1544 H   0  0  0  0  0  0  0  0  0  0  0  0
    1.9181    4.6512    1.1716 H   0  0  0  0  0  0  0  0  0  0  0  0
    1.8226    6.1896    0.2966 H   0  0  0  0  0  0  0  0  0  0  0  0
  1 11  1  0  0  0  0
  1 12  1  0  0  0  0
  2 11  1  0  0  0  0
  2 16  1  0  0  0  0
  3  9  1  0  0  0  0
  3 48  1  0  0  0  0
  4 21  2  0  0  0  0
  5  8  1  0  0  0  0
  5 13  1  0  0  0  0
  5 14  1  0  0  0  0
  6 10  1  0  0  0  0
  6 21  1  0  0  0  0
  6 45  1  0  0  0  0
  7 21  1  0  0  0  0
  7 24  1  0  0  0  0
  7 51  1  0  0  0  0
  8  9  1  0  0  0  0
  8 11  1  0  0  0  0
  8 29  1  0  0  0  0
  9 10  1  0  0  0  0
  9 30  1  0  0  0  0
 10 12  1  0  0  0  0
 10 31  1  0  0  0  0
 11 32  1  0  0  0  0
 12 16  1  0  0  0  0
 12 33  1  0  0  0  0
 13 17  1  0  0  0  0
 13 34  1  0  0  0  0
 13 35  1  0  0  0  0
 14 18  1  0  0  0  0
 14 36  1  0  0  0  0
 14 37  1  0  0  0  0
 15 17  1  0  0  0  0
 15 18  1  0  0  0  0
 15 19  1  0  0  0  0
 15 38  1  0  0  0  0
 16 39  1  0  0  0  0
 16 40  1  0  0  0  0
 17 41  1  0  0  0  0
 17 42  1  0  0  0  0
 18 43  1  0  0  0  0
 18 44  1  0  0  0  0
 19 20  1  0  0  0  0
 19 46  1  0  0  0  0
 19 47  1  0  0  0  0
 20 22  2  0  0  0  0
 20 23  1  0  0  0  0
 22 25  1  0  0  0  0
 22 49  1  0  0  0  0
 23 26  2  0  0  0  0
 23 50  1  0  0  0  0
 24 28  1  0  0  0  0
 24 52  1  0  0  0  0
 24 53  1  0  0  0  0
 25 27  2  0  0  0  0
 25 54  1  0  0  0  0
 26 27  1  0  0  0  0
 26 55  1  0  0  0  0
 27 56  1  0  0  0  0
 28 57  1  0  0  0  0
 28 58  1  0  0  0  0
 28 59  1  0  0  0  0
M  END
> <PUBCHEM_COMPOUND_CID>
25314482

> <PUBCHEM_CONFORMER_RMSD>
1

> <PUBCHEM_CONFORMER_DIVERSEORDER>
1
45
15
52
90
68
23
94
58
76
34
92
89
50
43
70
41
32
10
71
79
87
83
54
46
44
75
22
72
35
91
47
14
36
24
56
73
26
86
88
33
21
78
29
66
60
38
69
98
53
18
49
9
4
65
37
67
12
82
25
97
20
13
77
7
31
28
81
6
61
63
16
11
57
8
80
62
85
51
84
40
3
27
2
64
95
93
5
42
96
74
30
48
19
17
59
39
55

> <PUBCHEM_MMFF94_PARTIAL_CHARGES>
32
1 -0.56
10 0.3
11 0.56
12 0.28
13 0.27
14 0.27
16 0.28
19 0.14
2 -0.56
20 -0.14
21 0.69
22 -0.15
23 -0.15
24 0.3
25 -0.15
26 -0.15
27 -0.15
3 -0.68
4 -0.57
45 0.37
48 0.4
49 0.15
5 -0.81
50 0.15
51 0.37
54 0.15
55 0.15
56 0.15
6 -0.73
7 -0.73
8 0.27
9 0.28

> <PUBCHEM_EFFECTIVE_ROTOR_COUNT>
9.4

> <PUBCHEM_PHARMACOPHORE_FEATURES>
11
1 1 acceptor
1 2 acceptor
1 3 acceptor
1 3 donor
1 4 acceptor
1 5 cation
1 6 donor
1 7 donor
6 20 22 23 25 26 27 rings
6 5 13 14 15 17 18 rings
8 1 2 8 9 10 11 12 16 rings

> <PUBCHEM_HEAVY_ATOM_COUNT>
28

> <PUBCHEM_ATOM_DEF_STEREO_COUNT>
5

> <PUBCHEM_ATOM_UDEF_STEREO_COUNT>
0

> <PUBCHEM_BOND_DEF_STEREO_COUNT>
0

> <PUBCHEM_BOND_UDEF_STEREO_COUNT>
0

> <PUBCHEM_ISOTOPIC_ATOM_COUNT>
0

> <PUBCHEM_COMPONENT_COUNT>
1

> <PUBCHEM_CACTVS_TAUTO_COUNT>
3

> <PUBCHEM_CONFORMER_ID>
018244B200000001

> <PUBCHEM_MMFF94_ENERGY>
65.9869

> <PUBCHEM_FEATURE_SELFOVERLAP>
55.922

> <PUBCHEM_SHAPE_FINGERPRINT>
10483366 6 18264226832608567100
10675989 125 18198064878983231585
10937287 8 17905890632200506596
11578080 2 17678197059491120626
1200032 147 17897731096561196656
12166972 35 18343303621875674377
12616971 3 18130498661590699439
13398642 44 17898578832663045437
13590594 115 18193841440303803904
13782708 43 17096366125163732651
14251764 75 18047758388159977069
14790565 3 18052540164550128999
14849402 71 18408609179743422412
15021287 119 18341040822972861199
15081414 286 18410285904921760612
15082195 135 18124857196124541079
15183329 4 14620792683370869355
15439362 3 18268713995306216428
1768 85 18263367039715451229
17844677 252 18339083692628457665
17980427 23 17981010267743153298
19301679 30 17832137226556584098
21033648 29 17168135724948942927
21285901 2 13254802317326383411
21365058 113 18268164062696777134
22224240 67 8285903654839233910
23522609 53 17845112795588376417
23559900 14 18408605850790788194
245318 6 18044949110560819285
3004659 81 17846499192701863350
397830 11 18114755944757205131
474 4 18336823216548395844
513532 50 18059586801660850404
53794403 172 18263371445919419532

> <PUBCHEM_SHAPE_MULTIPOLES>
537.81
14.7
4.68
1.38
28.91
7.64
-0.24
0.97
-2.37
-9.36
0.68
-0.14
-0.25
-1.3

> <PUBCHEM_SHAPE_SELFOVERLAP>
1134.641

> <PUBCHEM_SHAPE_VOLUME>
298

> <PUBCHEM_COORDINATE_TYPE>
2
5
10

$$$$
