51137545
  -OEChem-12032416203D

 52 55  0     1  0  0  0  0  0999 V2000
    1.5006   -1.0103    0.3462 O   0  0  0  0  0  0  0  0  0  0  0  0
   -5.5476   -0.7226   -2.4499 O   0  5  0  0  0  0  0  0  0  0  0  0
   -5.2683   -1.8407   -0.5815 O   0  0  0  0  0  0  0  0  0  0  0  0
   -2.4946   -0.3320    0.1587 N   0  0  1  0  0  0  0  0  0  0  0  0
    1.3491   -3.2422    0.3460 N   0  0  0  0  0  0  0  0  0  0  0  0
    2.6785   -2.9043    0.1739 N   0  0  0  0  0  0  0  0  0  0  0  0
   -5.4428   -0.7650   -1.2013 N   0  3  0  0  0  0  0  0  0  0  0  0
    7.0809    1.9330   -0.3619 N   0  0  0  0  0  0  0  0  0  0  0  0
   -0.7785   -1.8564    0.6390 C   0  0  1  0  0  0  0  0  0  0  0  0
   -1.1371   -1.0676    1.9104 C   0  0  0  0  0  0  0  0  0  0  0  0
   -1.4074   -1.0525   -0.5071 C   0  0  0  0  0  0  0  0  0  0  0  0
   -1.9175    0.1434    1.4160 C   0  0  0  0  0  0  0  0  0  0  0  0
   -3.0211    0.7539   -0.6550 C   0  0  0  0  0  0  0  0  0  0  0  0
    0.6989   -2.1061    0.4421 C   0  0  0  0  0  0  0  0  0  0  0  0
   -4.3813    1.1975   -0.1858 C   0  0  0  0  0  0  0  0  0  0  0  0
   -5.5243    0.4480   -0.4633 C   0  0  0  0  0  0  0  0  0  0  0  0
   -4.4846    2.3845    0.5395 C   0  0  0  0  0  0  0  0  0  0  0  0
    2.7196   -1.5924    0.1801 C   0  0  0  0  0  0  0  0  0  0  0  0
    3.8298   -0.6950    0.0420 C   0  0  0  0  0  0  0  0  0  0  0  0
   -6.7708    0.8855   -0.0155 C   0  0  0  0  0  0  0  0  0  0  0  0
   -5.7312    2.8220    0.9872 C   0  0  0  0  0  0  0  0  0  0  0  0
   -6.8743    2.0726    0.7097 C   0  0  0  0  0  0  0  0  0  0  0  0
    5.1181   -1.2008   -0.1318 C   0  0  0  0  0  0  0  0  0  0  0  0
    3.6211    0.6837    0.0812 C   0  0  0  0  0  0  0  0  0  0  0  0
    5.9890    1.0507   -0.2271 C   0  0  0  0  0  0  0  0  0  0  0  0
    6.1977   -0.3280   -0.2664 C   0  0  0  0  0  0  0  0  0  0  0  0
    4.7007    1.5565   -0.0533 C   0  0  0  0  0  0  0  0  0  0  0  0
    8.4235    1.4172   -0.5418 C   0  0  0  0  0  0  0  0  0  0  0  0
    6.8740    3.3673   -0.3302 C   0  0  0  0  0  0  0  0  0  0  0  0
   -1.2724   -2.8362    0.6992 H   0  0  0  0  0  0  0  0  0  0  0  0
   -1.7742   -1.6876    2.5537 H   0  0  0  0  0  0  0  0  0  0  0  0
   -0.2639   -0.7671    2.4991 H   0  0  0  0  0  0  0  0  0  0  0  0
   -1.7840   -1.7143   -1.2948 H   0  0  0  0  0  0  0  0  0  0  0  0
   -0.6858   -0.3589   -0.9587 H   0  0  0  0  0  0  0  0  0  0  0  0
   -1.2298    0.9847    1.2605 H   0  0  0  0  0  0  0  0  0  0  0  0
   -2.6788    0.4425    2.1432 H   0  0  0  0  0  0  0  0  0  0  0  0
   -2.3263    1.6047   -0.6925 H   0  0  0  0  0  0  0  0  0  0  0  0
   -3.1136    0.4361   -1.7025 H   0  0  0  0  0  0  0  0  0  0  0  0
   -3.6033    2.9789    0.7655 H   0  0  0  0  0  0  0  0  0  0  0  0
   -7.6708    0.3120   -0.2241 H   0  0  0  0  0  0  0  0  0  0  0  0
   -5.8117    3.7460    1.5523 H   0  0  0  0  0  0  0  0  0  0  0  0
   -7.8448    2.4133    1.0584 H   0  0  0  0  0  0  0  0  0  0  0  0
    5.3034   -2.2718   -0.1654 H   0  0  0  0  0  0  0  0  0  0  0  0
    2.6321    1.1148    0.2149 H   0  0  0  0  0  0  0  0  0  0  0  0
    7.1799   -0.7706   -0.3995 H   0  0  0  0  0  0  0  0  0  0  0  0
    4.4869    2.6201   -0.0158 H   0  0  0  0  0  0  0  0  0  0  0  0
    8.7312    0.8065    0.3144 H   0  0  0  0  0  0  0  0  0  0  0  0
    8.5007    0.8265   -1.4614 H   0  0  0  0  0  0  0  0  0  0  0  0
    9.1593    2.2246   -0.6278 H   0  0  0  0  0  0  0  0  0  0  0  0
    6.2194    3.6911   -1.1471 H   0  0  0  0  0  0  0  0  0  0  0  0
    6.4497    3.6850    0.6288 H   0  0  0  0  0  0  0  0  0  0  0  0
    7.8155    3.9150   -0.4503 H   0  0  0  0  0  0  0  0  0  0  0  0
  1 14  1  0  0  0  0
  1 18  1  0  0  0  0
  2  7  1  0  0  0  0
  3  7  2  0  0  0  0
  4 11  1  0  0  0  0
  4 12  1  0  0  0  0
  4 13  1  0  0  0  0
  5  6  1  0  0  0  0
  5 14  2  0  0  0  0
  6 18  2  0  0  0  0
  7 16  1  0  0  0  0
  8 25  1  0  0  0  0
  8 28  1  0  0  0  0
  8 29  1  0  0  0  0
  9 10  1  0  0  0  0
  9 11  1  0  0  0  0
  9 14  1  0  0  0  0
  9 30  1  0  0  0  0
 10 12  1  0  0  0  0
 10 31  1  0  0  0  0
 10 32  1  0  0  0  0
 11 33  1  0  0  0  0
 11 34  1  0  0  0  0
 12 35  1  0  0  0  0
 12 36  1  0  0  0  0
 13 15  1  0  0  0  0
 13 37  1  0  0  0  0
 13 38  1  0  0  0  0
 15 16  1  0  0  0  0
 15 17  2  0  0  0  0
 16 20  2  0  0  0  0
 17 21  1  0  0  0  0
 17 39  1  0  0  0  0
 18 19  1  0  0  0  0
 19 23  2  0  0  0  0
 19 24  1  0  0  0  0
 20 22  1  0  0  0  0
 20 40  1  0  0  0  0
 21 22  2  0  0  0  0
 21 41  1  0  0  0  0
 22 42  1  0  0  0  0
 23 26  1  0  0  0  0
 23 43  1  0  0  0  0
 24 27  2  0  0  0  0
 24 44  1  0  0  0  0
 25 26  2  0  0  0  0
 25 27  1  0  0  0  0
 26 45  1  0  0  0  0
 27 46  1  0  0  0  0
 28 47  1  0  0  0  0
 28 48  1  0  0  0  0
 28 49  1  0  0  0  0
 29 50  1  0  0  0  0
 29 51  1  0  0  0  0
 29 52  1  0  0  0  0
M  CHG  2   2  -1   7   1
M  END
> <PUBCHEM_COMPOUND_CID>
51137545

> <PUBCHEM_CONFORMER_RMSD>
0.8

> <PUBCHEM_CONFORMER_DIVERSEORDER>
1
111
134
50
122
104
82
152
91
88
164
56
41
153
132
89
110
22
17
99
100
69
93
38
66
95
62
20
98
125
45
151
137
154
145
148
166
105
63
70
124
23
128
106
79
54
159
8
116
142
150
162
7
13
25
3
149
136
84
71
53
108
37
31
101
127
32
119
26
55
129
115
121
27
36
30
2
139
83
130
141
163
94
49
157
43
14
4
81
155
158
65
120
18
61
131
75
16
39
29
48
12
80
87
133
5
90
52
24
92
67
143
9
72
113
165
10
28
68
59
33
6
107
160
15
97
147
21
60
114
112
35
144
103
44
138
34
19
46
140
156
76
58
96
73
74
51
102
161
86
40
146
126
123
78
47
64
42
11
77
57
135
118
85
109
117

> <PUBCHEM_MMFF94_PARTIAL_CHARGES>
36
1 -0.28
11 0.27
12 0.27
13 0.41
14 0.3
15 -0.14
16 0.13
17 -0.15
18 0.43
19 0.05
2 -0.52
20 -0.15
21 -0.15
22 -0.15
23 -0.15
24 -0.15
25 0.1
26 -0.15
27 -0.15
28 0.37
29 0.37
3 -0.52
39 0.15
4 -0.81
40 0.15
41 0.15
42 0.15
43 0.15
44 0.15
45 0.15
46 0.15
5 -0.34
6 -0.34
7 0.91
8 -0.84
9 0.18

> <PUBCHEM_EFFECTIVE_ROTOR_COUNT>
7

> <PUBCHEM_PHARMACOPHORE_FEATURES>
9
1 2 acceptor
1 2 anion
1 3 acceptor
1 4 cation
1 8 cation
5 1 5 6 14 18 rings
5 4 9 10 11 12 rings
6 15 16 17 20 21 22 rings
6 19 23 24 25 26 27 rings

> <PUBCHEM_HEAVY_ATOM_COUNT>
29

> <PUBCHEM_ATOM_DEF_STEREO_COUNT>
1

> <PUBCHEM_ATOM_UDEF_STEREO_COUNT>
0

> <PUBCHEM_BOND_DEF_STEREO_COUNT>
0

> <PUBCHEM_BOND_UDEF_STEREO_COUNT>
0

> <PUBCHEM_ISOTOPIC_ATOM_COUNT>
0

> <PUBCHEM_COMPONENT_COUNT>
1

> <PUBCHEM_CACTVS_TAUTO_COUNT>
1

> <PUBCHEM_CONFORMER_ID>
030C4C0900000001

> <PUBCHEM_MMFF94_ENERGY>
87.2398

> <PUBCHEM_FEATURE_SELFOVERLAP>
45.753

> <PUBCHEM_SHAPE_FINGERPRINT>
10 15 14923954452727980734
10050765 1 18408888434265129058
10074138 170 16154006741046886595
10411042 1 17688308989888881282
10595046 47 18413102836737832215
11273773 42 18413107264548343365
11578821 258 18265895766500419429
12821665 9 18411980287047671407
12895837 130 18341335599278515356
13248334 5 18120937209734470802
13540713 4 18191047693117484858
13673619 4 12031791357623264130
13690498 29 17632001062299209583
14394314 77 18339368466009443241
14849402 71 18409451418287871725
14931854 50 17988655107798764000
15183329 4 17846781788738826761
15685185 35 18336834211633655132
1577012 14 18412824672885130868
15840311 113 18120946010454080989
16126227 98 18410296942602212513
16992752 21 18130218376931950807
16993089 31 13254503323943561413
18393751 57 17821732732130617595
19438510 23 18113901580813801584
20691028 202 18264772233030210548
20715895 44 18409452505831761544
21033648 144 18113894945068535071
21033648 29 17749401381773655090
21298829 104 18409452496651372980
21304303 64 18334299743105997689
21307412 95 13183011926448102597
21585482 111 18261957314947392860
23522609 53 17773888502256671777
2748736 6 18408320012733621936
2838139 119 18261108526461265042
34797466 226 18130511817101777327
393628 194 18260838136801395196
4073 2 18333736814379538843
4107672 100 17418088854131740367
437815 12 10952048948677299371
445580 204 18413388748120237080
5080951 261 16443352018322027619
5265222 85 18060136531884451239
543368 44 18409729539632822957
5718773 13 9871751274112768028
5758199 1 18407761430365944492
59682541 35 17748837315207695881
59682541 52 17346048771107929894
6327066 14 18409451423167485558
6691757 9 15357980113329689355
7970288 3 9511464403487633616

> <PUBCHEM_SHAPE_MULTIPOLES>
554.29
23.03
3.34
1.16
11.97
0.35
-0.13
19.57
-4.77
1.96
0.43
-1.9
-0.22
-2.13

> <PUBCHEM_SHAPE_SELFOVERLAP>
1200.146

> <PUBCHEM_SHAPE_VOLUME>
307

> <PUBCHEM_COORDINATE_TYPE>
2
5
10

$$$$
