25046676
  -OEChem-12032416343D

 63 68  0     1  0  0  0  0  0999 V2000
    7.6438   -1.7403   -2.1613 Cl  0  0  0  0  0  0  0  0  0  0  0  0
    2.9423    0.2163    1.5123 S   0  0  0  0  0  0  0  0  0  0  0  0
    0.3714    1.7284    2.4384 O   0  0  0  0  0  0  0  0  0  0  0  0
    3.4278    0.2038    2.8794 O   0  0  0  0  0  0  0  0  0  0  0  0
    1.7626   -0.5459    1.1488 O   0  0  0  0  0  0  0  0  0  0  0  0
   -3.1881    1.0057   -1.0252 N   0  0  2  0  0  0  0  0  0  0  0  0
   -0.8895    2.4878    0.6157 N   0  0  0  0  0  0  0  0  0  0  0  0
   -4.2728   -3.0229    0.6012 N   0  0  0  0  0  0  0  0  0  0  0  0
    2.7738    1.8145    0.9814 N   0  0  0  0  0  0  0  0  0  0  0  0
   -3.4295    2.8074    0.7013 C   0  0  1  0  0  0  0  0  0  0  0  0
   -2.2161    3.2811   -1.3732 C   0  0  2  0  0  0  0  0  0  0  0  0
   -3.1816    3.8783   -0.3530 C   0  0  0  0  0  0  0  0  0  0  0  0
   -4.0345    1.5486    0.0444 C   0  0  0  0  0  0  0  0  0  0  0  0
   -2.8578    2.0340   -2.0233 C   0  0  0  0  0  0  0  0  0  0  0  0
   -2.1113    2.5155    1.4307 C   0  0  0  0  0  0  0  0  0  0  0  0
   -0.8958    2.9185   -0.7179 C   0  0  0  0  0  0  0  0  0  0  0  0
   -3.8179   -0.1520   -1.6554 C   0  0  0  0  0  0  0  0  0  0  0  0
    0.2519    2.9910   -1.4166 C   0  0  0  0  0  0  0  0  0  0  0  0
    0.2999    2.1009    1.2680 C   0  0  0  0  0  0  0  0  0  0  0  0
   -3.7287   -1.3800   -0.7888 C   0  0  0  0  0  0  0  0  0  0  0  0
    1.5292    2.1810    0.4393 C   0  0  0  0  0  0  0  0  0  0  0  0
    1.5052    2.6104   -0.8230 C   0  0  0  0  0  0  0  0  0  0  0  0
   -2.5788   -2.1947   -0.5911 C   0  0  0  0  0  0  0  0  0  0  0  0
   -4.7538   -1.9147   -0.0430 C   0  0  0  0  0  0  0  0  0  0  0  0
   -2.9472   -3.2180    0.2849 C   0  0  0  0  0  0  0  0  0  0  0  0
   -1.2559   -2.1594   -1.0748 C   0  0  0  0  0  0  0  0  0  0  0  0
   -2.0551   -4.2119    0.7029 C   0  0  0  0  0  0  0  0  0  0  0  0
   -5.0586   -3.8592    1.4829 C   0  0  0  0  0  0  0  0  0  0  0  0
   -0.3527   -3.1471   -0.6653 C   0  0  0  0  0  0  0  0  0  0  0  0
   -0.7483   -4.1566    0.2100 C   0  0  0  0  0  0  0  0  0  0  0  0
    4.2665   -0.3355    0.4779 C   0  0  0  0  0  0  0  0  0  0  0  0
    5.5881   -0.1928    0.9010 C   0  0  0  0  0  0  0  0  0  0  0  0
    3.9895   -0.9128   -0.7614 C   0  0  0  0  0  0  0  0  0  0  0  0
    6.6325   -0.6272    0.0849 C   0  0  0  0  0  0  0  0  0  0  0  0
    5.0339   -1.3473   -1.5775 C   0  0  0  0  0  0  0  0  0  0  0  0
    6.3554   -1.2045   -1.1544 C   0  0  0  0  0  0  0  0  0  0  0  0
   -4.1552    3.1779    1.4361 H   0  0  0  0  0  0  0  0  0  0  0  0
   -2.0448    4.0292   -2.1584 H   0  0  0  0  0  0  0  0  0  0  0  0
   -2.7632    4.7848    0.1019 H   0  0  0  0  0  0  0  0  0  0  0  0
   -4.1228    4.1657   -0.8372 H   0  0  0  0  0  0  0  0  0  0  0  0
   -4.1837    0.8009    0.8319 H   0  0  0  0  0  0  0  0  0  0  0  0
   -5.0289    1.8034   -0.3473 H   0  0  0  0  0  0  0  0  0  0  0  0
   -3.7601    2.3383   -2.5711 H   0  0  0  0  0  0  0  0  0  0  0  0
   -2.1598    1.6187   -2.7620 H   0  0  0  0  0  0  0  0  0  0  0  0
   -2.1788    1.5736    1.9897 H   0  0  0  0  0  0  0  0  0  0  0  0
   -1.9466    3.3000    2.1821 H   0  0  0  0  0  0  0  0  0  0  0  0
   -4.8617    0.0528   -1.9283 H   0  0  0  0  0  0  0  0  0  0  0  0
   -3.3045   -0.3951   -2.5960 H   0  0  0  0  0  0  0  0  0  0  0  0
    0.2675    3.3147   -2.4520 H   0  0  0  0  0  0  0  0  0  0  0  0
    2.3955    2.6773   -1.4392 H   0  0  0  0  0  0  0  0  0  0  0  0
   -5.7805   -1.5957    0.0800 H   0  0  0  0  0  0  0  0  0  0  0  0
    3.5690    2.1693    0.4314 H   0  0  0  0  0  0  0  0  0  0  0  0
   -0.9302   -1.3780   -1.7557 H   0  0  0  0  0  0  0  0  0  0  0  0
   -2.3566   -5.0003    1.3844 H   0  0  0  0  0  0  0  0  0  0  0  0
   -6.0771   -3.4683    1.5492 H   0  0  0  0  0  0  0  0  0  0  0  0
   -4.5936   -3.8497    2.4720 H   0  0  0  0  0  0  0  0  0  0  0  0
   -5.0769   -4.8718    1.0721 H   0  0  0  0  0  0  0  0  0  0  0  0
    0.6696   -3.1235   -1.0336 H   0  0  0  0  0  0  0  0  0  0  0  0
   -0.0300   -4.9130    0.5156 H   0  0  0  0  0  0  0  0  0  0  0  0
    5.8264    0.2603    1.8591 H   0  0  0  0  0  0  0  0  0  0  0  0
    2.9680   -1.0270   -1.1130 H   0  0  0  0  0  0  0  0  0  0  0  0
    7.6574   -0.5082    0.4267 H   0  0  0  0  0  0  0  0  0  0  0  0
    4.8032   -1.7938   -2.5413 H   0  0  0  0  0  0  0  0  0  0  0  0
  1 36  1  0  0  0  0
  2  4  2  0  0  0  0
  2  5  2  0  0  0  0
  2  9  1  0  0  0  0
  2 31  1  0  0  0  0
  3 19  2  0  0  0  0
  6 13  1  0  0  0  0
  6 14  1  0  0  0  0
  6 17  1  0  0  0  0
  7 15  1  0  0  0  0
  7 16  1  0  0  0  0
  7 19  1  0  0  0  0
  8 24  1  0  0  0  0
  8 25  1  0  0  0  0
  8 28  1  0  0  0  0
  9 21  1  0  0  0  0
  9 52  1  0  0  0  0
 10 12  1  0  0  0  0
 10 13  1  0  0  0  0
 10 15  1  0  0  0  0
 10 37  1  0  0  0  0
 11 12  1  0  0  0  0
 11 14  1  0  0  0  0
 11 16  1  0  0  0  0
 11 38  1  0  0  0  0
 12 39  1  0  0  0  0
 12 40  1  0  0  0  0
 13 41  1  0  0  0  0
 13 42  1  0  0  0  0
 14 43  1  0  0  0  0
 14 44  1  0  0  0  0
 15 45  1  0  0  0  0
 15 46  1  0  0  0  0
 16 18  2  0  0  0  0
 17 20  1  0  0  0  0
 17 47  1  0  0  0  0
 17 48  1  0  0  0  0
 18 22  1  0  0  0  0
 18 49  1  0  0  0  0
 19 21  1  0  0  0  0
 20 23  1  0  0  0  0
 20 24  2  0  0  0  0
 21 22  2  0  0  0  0
 22 50  1  0  0  0  0
 23 25  1  0  0  0  0
 23 26  2  0  0  0  0
 24 51  1  0  0  0  0
 25 27  2  0  0  0  0
 26 29  1  0  0  0  0
 26 53  1  0  0  0  0
 27 30  1  0  0  0  0
 27 54  1  0  0  0  0
 28 55  1  0  0  0  0
 28 56  1  0  0  0  0
 28 57  1  0  0  0  0
 29 30  2  0  0  0  0
 29 58  1  0  0  0  0
 30 59  1  0  0  0  0
 31 32  2  0  0  0  0
 31 33  1  0  0  0  0
 32 34  1  0  0  0  0
 32 60  1  0  0  0  0
 33 35  2  0  0  0  0
 33 61  1  0  0  0  0
 34 36  2  0  0  0  0
 34 62  1  0  0  0  0
 35 36  1  0  0  0  0
 35 63  1  0  0  0  0
M  END
> <PUBCHEM_COMPOUND_CID>
25046676

> <PUBCHEM_CONFORMER_RMSD>
1

> <PUBCHEM_CONFORMER_DIVERSEORDER>
1
91
31
45
100
20
61
55
43
90
88
35
40
105
59
84
96
11
78
62
85
106
109
108
17
82
51
86
63
13
98
18
102
75
3
94
113
49
64
77
50
110
25
41
89
56
36
73
48
99
47
9
87
71
52
76
14
114
104
107
8
32
7
70
74
23
54
68
81
111
66
79
103
44
101
72
95
112
92
42
60
22
115
15
39
67
16
6
46
30
28
5
65
2
19
93
27
26
69
97
58
34
4
21
53
37
12
29
33
24
57
38
80
10
83

> <PUBCHEM_MMFF94_PARTIAL_CHARGES>
45
1 -0.18
11 0.14
13 0.27
14 0.27
15 0.3
16 -0.03
17 0.45
18 -0.15
19 0.62
2 1.45
20 -0.18
21 0.21
22 -0.15
24 -0.3
25 -0.15
26 -0.15
27 -0.15
28 0.26
29 -0.15
3 -0.57
30 -0.15
31 -0.01
32 -0.15
33 -0.15
34 -0.15
35 -0.15
36 0.18
4 -0.65
49 0.15
5 -0.65
50 0.15
51 0.15
52 0.42
53 0.15
54 0.15
58 0.15
59 0.15
6 -0.81
60 0.15
61 0.15
62 0.15
63 0.15
7 -0.47
8 0.05
9 -0.75

> <PUBCHEM_EFFECTIVE_ROTOR_COUNT>
6

> <PUBCHEM_PHARMACOPHORE_FEATURES>
12
1 3 acceptor
1 4 acceptor
1 5 acceptor
1 6 cation
1 8 cation
1 9 donor
5 8 20 23 24 25 rings
6 23 25 26 27 29 30 rings
6 31 32 33 34 35 36 rings
6 6 10 11 12 13 14 rings
6 7 10 11 12 15 16 rings
6 7 16 18 19 21 22 rings

> <PUBCHEM_HEAVY_ATOM_COUNT>
36

> <PUBCHEM_ATOM_DEF_STEREO_COUNT>
2

> <PUBCHEM_ATOM_UDEF_STEREO_COUNT>
0

> <PUBCHEM_BOND_DEF_STEREO_COUNT>
0

> <PUBCHEM_BOND_UDEF_STEREO_COUNT>
0

> <PUBCHEM_ISOTOPIC_ATOM_COUNT>
0

> <PUBCHEM_COMPONENT_COUNT>
1

> <PUBCHEM_CACTVS_TAUTO_COUNT>
1

> <PUBCHEM_CONFORMER_ID>
017E2E9400000001

> <PUBCHEM_MMFF94_ENERGY>
77.7321

> <PUBCHEM_FEATURE_SELFOVERLAP>
62.563

> <PUBCHEM_SHAPE_FINGERPRINT>
11135609 12 18341051920904506072
11387372 6 17915475903666361804
117089 54 18118977029361946355
11756154 5 18263074573331893906
12156800 1 17697644036031687213
12422481 6 18200610184598385579
12522641 33 18048594829843196989
13402501 40 18202561761502387766
14251757 5 18408042922665280502
14279260 333 16986033376638744038
14725015 67 18340477959082374203
15001296 14 18187642561070987404
150020 26 17766000884242136979
15297060 5 18198626536308472410
15351339 4 18266452110081411522
15361156 5 18060129942988037124
15927050 60 18054778500269394429
17627616 140 18049439249364921114
17909252 39 18122349248756614232
19315092 285 15047760737678822781
19958102 18 18267298738856734982
20764821 26 17833529224870777963
20775530 9 18191010412647256987
21133410 230 18263099764259401571
23379529 103 18265613358549051192
23466295 7 18409735088229526489
24771750 20 17113809697108748125
3383291 50 18341039796829371423
3737641 26 18120373426192377201
395649 100 18341057325107579182
4058900 60 17692815886958819560
4435113 14 17987810613975043638
44880168 125 18059292179193627935
469060 322 18188787079539264359
508706 21 18341043047428076407
5265222 85 18337954484927826284
56633871 153 18052539061007849623
6201320 77 17129893580943131998
70634741 139 18341057380720380404

> <PUBCHEM_SHAPE_MULTIPOLES>
709.05
13.59
6.13
2
25.62
2.2
-0.38
8.86
3.71
-9.15
-0.17
1.32
-0.52
2.72

> <PUBCHEM_SHAPE_SELFOVERLAP>
1545.725

> <PUBCHEM_SHAPE_VOLUME>
388.1

> <PUBCHEM_COORDINATE_TYPE>
2
5
10

$$$$
