7134523
  -OEChem-12032416313D

 75 77  0     1  0  0  0  0  0999 V2000
    1.7110   -2.0915   -2.6227 O   0  0  0  0  0  0  0  0  0  0  0  0
   -0.8651   -5.0898   -0.4135 O   0  0  0  0  0  0  0  0  0  0  0  0
    1.9184   -5.4390    0.0745 O   0  0  0  0  0  0  0  0  0  0  0  0
   -2.8171   -1.3787   -1.9611 O   0  0  0  0  0  0  0  0  0  0  0  0
   -1.5607   -0.3933    2.2679 O   0  0  0  0  0  0  0  0  0  0  0  0
    3.3058   -0.2186   -1.9936 O   0  0  0  0  0  0  0  0  0  0  0  0
   -3.5738   -0.0235    3.2638 O   0  0  0  0  0  0  0  0  0  0  0  0
    4.7251   -1.0064    2.3013 O   0  0  0  0  0  0  0  0  0  0  0  0
    0.2578    5.3690   -1.6759 O   0  0  0  0  0  0  0  0  0  0  0  0
   -1.8124   -2.3546   -0.1068 N   0  0  0  0  0  0  0  0  0  0  0  0
    2.9365   -0.4290    0.2951 N   0  0  0  0  0  0  0  0  0  0  0  0
    6.1536    0.5407    1.3832 N   0  0  0  0  0  0  0  0  0  0  0  0
   -4.3428    0.0259    0.2936 C   0  0  0  0  0  0  0  0  0  0  0  0
   -5.6460    0.2462    1.0738 C   0  0  0  0  0  0  0  0  0  0  0  0
   -4.6720    0.6847   -1.0530 C   0  0  0  0  0  0  0  0  0  0  0  0
   -6.1214    1.6391    0.6670 C   0  0  0  0  0  0  0  0  0  0  0  0
   -5.4967    1.9202   -0.6994 C   0  0  0  0  0  0  0  0  0  0  0  0
   -4.0287   -1.4627    0.1306 C   0  0  0  0  0  0  0  0  0  0  0  0
   -0.5615   -2.7158   -0.7374 C   0  0  1  0  0  0  0  0  0  0  0  0
   -3.1564    0.7217    0.9803 C   0  0  0  0  0  0  0  0  0  0  0  0
    1.7969   -1.8990   -1.2156 C   0  0  1  0  0  0  0  0  0  0  0  0
    0.4246   -1.5467   -0.6385 C   0  0  0  0  0  0  0  0  0  0  0  0
    0.0076   -3.9970   -0.1136 C   0  0  2  0  0  0  0  0  0  0  0  0
    1.3904   -4.3422   -0.6720 C   0  0  1  0  0  0  0  0  0  0  0  0
    2.3608   -3.1642   -0.5722 C   0  0  0  0  0  0  0  0  0  0  0  0
   -2.8401   -1.7119   -0.7794 C   0  0  0  0  0  0  0  0  0  0  0  0
    2.7544   -0.7572   -1.0374 C   0  0  0  0  0  0  0  0  0  0  0  0
   -2.8337    0.0784    2.2970 C   0  0  0  0  0  0  0  0  0  0  0  0
    3.8260    0.6208    0.7362 C   0  0  1  0  0  0  0  0  0  0  0  0
    3.0973    1.6914    1.5565 C   0  0  0  0  0  0  0  0  0  0  0  0
    4.9152   -0.0364    1.5713 C   0  0  0  0  0  0  0  0  0  0  0  0
    2.3405    2.6725    0.6947 C   0  0  0  0  0  0  0  0  0  0  0  0
    2.9682    3.8330    0.2420 C   0  0  0  0  0  0  0  0  0  0  0  0
    1.0128    2.4182    0.3508 C   0  0  0  0  0  0  0  0  0  0  0  0
    2.2683    4.7392   -0.5544 C   0  0  0  0  0  0  0  0  0  0  0  0
    0.3127    3.3244   -0.4456 C   0  0  0  0  0  0  0  0  0  0  0  0
    0.9405    4.4850   -0.8982 C   0  0  0  0  0  0  0  0  0  0  0  0
   -1.0964    5.0472   -1.9895 C   0  0  0  0  0  0  0  0  0  0  0  0
   -6.4011   -0.4809    0.7448 H   0  0  0  0  0  0  0  0  0  0  0  0
   -5.5853    0.1468    2.1574 H   0  0  0  0  0  0  0  0  0  0  0  0
   -3.7862    0.9664   -1.6315 H   0  0  0  0  0  0  0  0  0  0  0  0
   -5.2823    0.0184   -1.6758 H   0  0  0  0  0  0  0  0  0  0  0  0
   -5.7836    2.3876    1.3928 H   0  0  0  0  0  0  0  0  0  0  0  0
   -7.2144    1.6904    0.6306 H   0  0  0  0  0  0  0  0  0  0  0  0
   -6.2582    2.1195   -1.4604 H   0  0  0  0  0  0  0  0  0  0  0  0
   -4.8551    2.8071   -0.6409 H   0  0  0  0  0  0  0  0  0  0  0  0
   -3.9026   -1.9572    1.1004 H   0  0  0  0  0  0  0  0  0  0  0  0
   -4.8775   -1.9778   -0.3401 H   0  0  0  0  0  0  0  0  0  0  0  0
   -0.7799   -2.9039   -1.7970 H   0  0  0  0  0  0  0  0  0  0  0  0
   -3.3528    1.7815    1.1808 H   0  0  0  0  0  0  0  0  0  0  0  0
   -2.2710    0.7073    0.3321 H   0  0  0  0  0  0  0  0  0  0  0  0
    0.0092   -0.6840   -1.1774 H   0  0  0  0  0  0  0  0  0  0  0  0
    0.4943   -1.2409    0.4124 H   0  0  0  0  0  0  0  0  0  0  0  0
    0.0489   -3.9183    0.9795 H   0  0  0  0  0  0  0  0  0  0  0  0
    1.3041   -4.6783   -1.7124 H   0  0  0  0  0  0  0  0  0  0  0  0
    2.6086   -3.0111    0.4859 H   0  0  0  0  0  0  0  0  0  0  0  0
    3.3085   -3.4504   -1.0486 H   0  0  0  0  0  0  0  0  0  0  0  0
   -1.9008   -2.5265    0.8903 H   0  0  0  0  0  0  0  0  0  0  0  0
    2.5723   -2.4098   -2.9431 H   0  0  0  0  0  0  0  0  0  0  0  0
   -0.9309   -5.1666   -1.3807 H   0  0  0  0  0  0  0  0  0  0  0  0
    2.7900   -5.6546   -0.2992 H   0  0  0  0  0  0  0  0  0  0  0  0
    2.4675   -0.9622    1.0201 H   0  0  0  0  0  0  0  0  0  0  0  0
    4.2939    1.0782   -0.1445 H   0  0  0  0  0  0  0  0  0  0  0  0
   -1.3110   -0.8262    3.1119 H   0  0  0  0  0  0  0  0  0  0  0  0
    2.4095    1.2268    2.2762 H   0  0  0  0  0  0  0  0  0  0  0  0
    3.8158    2.2527    2.1692 H   0  0  0  0  0  0  0  0  0  0  0  0
    6.9711    0.1872    1.8693 H   0  0  0  0  0  0  0  0  0  0  0  0
    6.2975    1.3404    0.7750 H   0  0  0  0  0  0  0  0  0  0  0  0
    4.0029    4.0406    0.5011 H   0  0  0  0  0  0  0  0  0  0  0  0
    0.5126    1.5183    0.6986 H   0  0  0  0  0  0  0  0  0  0  0  0
    2.7628    5.6410   -0.9048 H   0  0  0  0  0  0  0  0  0  0  0  0
   -0.7153    3.0645   -0.6744 H   0  0  0  0  0  0  0  0  0  0  0  0
   -1.1650    4.1275   -2.5804 H   0  0  0  0  0  0  0  0  0  0  0  0
   -1.7199    5.0093   -1.0897 H   0  0  0  0  0  0  0  0  0  0  0  0
   -1.4852    5.8582   -2.6140 H   0  0  0  0  0  0  0  0  0  0  0  0
  1 21  1  0  0  0  0
  1 59  1  0  0  0  0
  2 23  1  0  0  0  0
  2 60  1  0  0  0  0
  3 24  1  0  0  0  0
  3 61  1  0  0  0  0
  4 26  2  0  0  0  0
  5 28  1  0  0  0  0
  5 64  1  0  0  0  0
  6 27  2  0  0  0  0
  7 28  2  0  0  0  0
  8 31  2  0  0  0  0
  9 37  1  0  0  0  0
  9 38  1  0  0  0  0
 10 19  1  0  0  0  0
 10 26  1  0  0  0  0
 10 58  1  0  0  0  0
 11 27  1  0  0  0  0
 11 29  1  0  0  0  0
 11 62  1  0  0  0  0
 12 31  1  0  0  0  0
 12 67  1  0  0  0  0
 12 68  1  0  0  0  0
 13 14  1  0  0  0  0
 13 15  1  0  0  0  0
 13 18  1  0  0  0  0
 13 20  1  0  0  0  0
 14 16  1  0  0  0  0
 14 39  1  0  0  0  0
 14 40  1  0  0  0  0
 15 17  1  0  0  0  0
 15 41  1  0  0  0  0
 15 42  1  0  0  0  0
 16 17  1  0  0  0  0
 16 43  1  0  0  0  0
 16 44  1  0  0  0  0
 17 45  1  0  0  0  0
 17 46  1  0  0  0  0
 18 26  1  0  0  0  0
 18 47  1  0  0  0  0
 18 48  1  0  0  0  0
 19 22  1  0  0  0  0
 19 23  1  0  0  0  0
 19 49  1  0  0  0  0
 20 28  1  0  0  0  0
 20 50  1  0  0  0  0
 20 51  1  0  0  0  0
 21 22  1  0  0  0  0
 21 25  1  0  0  0  0
 21 27  1  0  0  0  0
 22 52  1  0  0  0  0
 22 53  1  0  0  0  0
 23 24  1  0  0  0  0
 23 54  1  0  0  0  0
 24 25  1  0  0  0  0
 24 55  1  0  0  0  0
 25 56  1  0  0  0  0
 25 57  1  0  0  0  0
 29 30  1  0  0  0  0
 29 31  1  0  0  0  0
 29 63  1  0  0  0  0
 30 32  1  0  0  0  0
 30 65  1  0  0  0  0
 30 66  1  0  0  0  0
 32 33  2  0  0  0  0
 32 34  1  0  0  0  0
 33 35  1  0  0  0  0
 33 69  1  0  0  0  0
 34 36  2  0  0  0  0
 34 70  1  0  0  0  0
 35 37  2  0  0  0  0
 35 71  1  0  0  0  0
 36 37  1  0  0  0  0
 36 72  1  0  0  0  0
 38 73  1  0  0  0  0
 38 74  1  0  0  0  0
 38 75  1  0  0  0  0
M  END
> <PUBCHEM_COMPOUND_CID>
7134523

> <PUBCHEM_CONFORMER_RMSD>
1.4

> <PUBCHEM_CONFORMER_DIVERSEORDER>
1
40
72
49
54
85
57
88
78
21
90
53
44
79
22
82
32
42
83
18
100
52
73
30
16
71
70
9
36
58
69
74
39
80
33
96
17
98
5
76
64
81
14
97
60
7
29
66
75
62
48
34
55
86
93
47
27
10
35
24
63
84
56
67
68
95
94
87
8
26
12
91
59
51
92
99
15
45
13
89
6
28
61
37
50
41
25
101
19
4
65
43
20
3
11
2
31
23
38
77
46

> <PUBCHEM_MMFF94_PARTIAL_CHARGES>
43
1 -0.68
10 -0.73
11 -0.73
12 -0.8
18 0.06
19 0.3
2 -0.68
20 0.06
21 0.34
23 0.28
24 0.28
26 0.57
27 0.57
28 0.66
29 0.36
3 -0.68
30 0.14
31 0.57
32 -0.14
33 -0.15
34 -0.15
35 -0.15
36 -0.15
37 0.08
38 0.28
4 -0.57
5 -0.65
58 0.37
59 0.4
6 -0.57
60 0.4
61 0.4
62 0.37
64 0.5
67 0.37
68 0.37
69 0.15
7 -0.57
70 0.15
71 0.15
72 0.15
8 -0.57
9 -0.36

> <PUBCHEM_EFFECTIVE_ROTOR_COUNT>
15.2

> <PUBCHEM_PHARMACOPHORE_FEATURES>
19
1 1 acceptor
1 1 donor
1 10 donor
1 11 donor
1 12 donor
1 2 acceptor
1 2 donor
1 3 acceptor
1 3 donor
1 4 acceptor
1 5 acceptor
1 6 acceptor
1 7 acceptor
1 8 acceptor
1 9 acceptor
3 5 7 28 anion
5 13 14 15 16 17 rings
6 19 21 22 23 24 25 rings
6 32 33 34 35 36 37 rings

> <PUBCHEM_HEAVY_ATOM_COUNT>
38

> <PUBCHEM_ATOM_DEF_STEREO_COUNT>
5

> <PUBCHEM_ATOM_UDEF_STEREO_COUNT>
0

> <PUBCHEM_BOND_DEF_STEREO_COUNT>
0

> <PUBCHEM_BOND_UDEF_STEREO_COUNT>
0

> <PUBCHEM_ISOTOPIC_ATOM_COUNT>
0

> <PUBCHEM_COMPONENT_COUNT>
1

> <PUBCHEM_CACTVS_TAUTO_COUNT>
8

> <PUBCHEM_CONFORMER_ID>
006CDD3B00000001

> <PUBCHEM_MMFF94_ENERGY>
103.8156

> <PUBCHEM_FEATURE_SELFOVERLAP>
96.515

> <PUBCHEM_SHAPE_FINGERPRINT>
10439779 11 18341602759240335730
11828532 37 17458634441007911985
12156800 1 16962927031583669611
12786520 15 18113628863096578665
1361 2 18339078302455434085
14117953 113 18412823556136086156
14725015 67 17400362248443080753
15444296 121 18191577769764840002
15475509 84 17761211012054175366
16993438 75 17112423216717647955
20739085 24 18338232782002952804
20764821 26 18337101362704328965
340366 18 18337669844543848736
3493558 16 17543046331756723687
4066623 53 17758387479653734245
437795 96 18264193743563183781
513202 73 18192136115655927026
6371009 1 18125138666722050575
66674814 147 18125693885734066365

> <PUBCHEM_SHAPE_MULTIPOLES>
714.26
10.83
7.82
2.17
7.8
1.6
-0.73
3.37
-5.01
-4.71
4.47
0.08
0.37
0.56

> <PUBCHEM_SHAPE_SELFOVERLAP>
1498.112

> <PUBCHEM_SHAPE_VOLUME>
400.7

> <PUBCHEM_COORDINATE_TYPE>
2
5
10

$$$$
