26763115
  -OEChem-12032416183D

 62 65  0     1  0  0  0  0  0999 V2000
   -8.0910   -3.8552    1.9649 Cl  0  0  0  0  0  0  0  0  0  0  0  0
   -0.4987    4.4696    1.6706 O   0  0  0  0  0  0  0  0  0  0  0  0
    3.6796   -2.0934   -0.7884 O   0  0  0  0  0  0  0  0  0  0  0  0
    9.2873   -2.0027    1.5611 O   0  0  0  0  0  0  0  0  0  0  0  0
   -4.6664    1.1457   -1.5123 O   0  0  0  0  0  0  0  0  0  0  0  0
    0.2927    1.5929   -0.2281 N   0  0  2  0  0  0  0  0  0  0  0  0
    1.4889    3.3320    1.5102 N   0  0  0  0  0  0  0  0  0  0  0  0
   -2.6756    0.4957   -0.5326 N   0  0  0  0  0  0  0  0  0  0  0  0
    5.8407   -1.2494   -0.6650 N   0  0  0  0  0  0  0  0  0  0  0  0
   -4.5972   -0.6405    0.0093 N   0  0  0  0  0  0  0  0  0  0  0  0
   -0.2275    2.9623   -0.1814 C   0  0  1  0  0  0  0  0  0  0  0  0
    1.7544    1.6127   -0.3045 C   0  0  1  0  0  0  0  0  0  0  0  0
   -1.8409    1.4772   -1.1797 C   0  0  1  0  0  0  0  0  0  0  0  0
   -1.7260    2.7508   -0.3334 C   0  0  0  0  0  0  0  0  0  0  0  0
   -0.4041    0.9765   -1.3567 C   0  0  0  0  0  0  0  0  0  0  0  0
    2.2599    2.1985    1.0213 C   0  0  0  0  0  0  0  0  0  0  0  0
    2.3629    0.2245   -0.5158 C   0  0  0  0  0  0  0  0  0  0  0  0
    0.2038    3.6352    1.1015 C   0  0  0  0  0  0  0  0  0  0  0  0
    3.8838    0.2490   -0.4980 C   0  0  0  0  0  0  0  0  0  0  0  0
    4.4506   -1.1383   -0.6647 C   0  0  0  0  0  0  0  0  0  0  0  0
    6.7823   -0.1312   -0.5200 C   0  0  0  0  0  0  0  0  0  0  0  0
    6.4669   -2.5582   -0.8686 C   0  0  0  0  0  0  0  0  0  0  0  0
   -4.0554    0.3998   -0.7507 C   0  0  0  0  0  0  0  0  0  0  0  0
    7.7731   -0.4019    0.6084 C   0  0  0  0  0  0  0  0  0  0  0  0
    7.4502   -2.8717    0.2542 C   0  0  0  0  0  0  0  0  0  0  0  0
    8.4739   -1.7479    0.4223 C   0  0  0  0  0  0  0  0  0  0  0  0
   -5.9468   -1.0594    0.0702 C   0  0  0  0  0  0  0  0  0  0  0  0
   -6.3105   -2.1260    0.8923 C   0  0  0  0  0  0  0  0  0  0  0  0
   -6.9143   -0.4053   -0.6927 C   0  0  0  0  0  0  0  0  0  0  0  0
   -7.6417   -2.5387    0.9515 C   0  0  0  0  0  0  0  0  0  0  0  0
   -8.2454   -0.8181   -0.6336 C   0  0  0  0  0  0  0  0  0  0  0  0
   -8.6092   -1.8846    0.1886 C   0  0  0  0  0  0  0  0  0  0  0  0
    0.1456    3.5655   -1.0215 H   0  0  0  0  0  0  0  0  0  0  0  0
    2.0760    2.2629   -1.1304 H   0  0  0  0  0  0  0  0  0  0  0  0
   -2.2760    1.7120   -2.1583 H   0  0  0  0  0  0  0  0  0  0  0  0
   -2.2244    2.6416    0.6380 H   0  0  0  0  0  0  0  0  0  0  0  0
   -2.1891    3.6027   -0.8440 H   0  0  0  0  0  0  0  0  0  0  0  0
   -0.3387   -0.1163   -1.3416 H   0  0  0  0  0  0  0  0  0  0  0  0
   -0.0009    1.3406   -2.3105 H   0  0  0  0  0  0  0  0  0  0  0  0
    2.2292    1.4509    1.8231 H   0  0  0  0  0  0  0  0  0  0  0  0
    3.2905    2.5563    0.9292 H   0  0  0  0  0  0  0  0  0  0  0  0
    2.0301   -0.1843   -1.4785 H   0  0  0  0  0  0  0  0  0  0  0  0
    1.9927   -0.4627    0.2575 H   0  0  0  0  0  0  0  0  0  0  0  0
    1.8459    3.8190    2.3265 H   0  0  0  0  0  0  0  0  0  0  0  0
   -2.2560   -0.1072    0.1686 H   0  0  0  0  0  0  0  0  0  0  0  0
    4.2531    0.8882   -1.3072 H   0  0  0  0  0  0  0  0  0  0  0  0
    4.2497    0.6272    0.4613 H   0  0  0  0  0  0  0  0  0  0  0  0
    6.2745    0.8164   -0.3342 H   0  0  0  0  0  0  0  0  0  0  0  0
    7.3117   -0.0309   -1.4751 H   0  0  0  0  0  0  0  0  0  0  0  0
    6.9849   -2.5258   -1.8344 H   0  0  0  0  0  0  0  0  0  0  0  0
    5.7111   -3.3475   -0.9292 H   0  0  0  0  0  0  0  0  0  0  0  0
    8.5169    0.4018    0.6620 H   0  0  0  0  0  0  0  0  0  0  0  0
    7.2492   -0.3931    1.5733 H   0  0  0  0  0  0  0  0  0  0  0  0
    6.9068   -3.0139    1.1977 H   0  0  0  0  0  0  0  0  0  0  0  0
    7.9632   -3.8199    0.0555 H   0  0  0  0  0  0  0  0  0  0  0  0
    9.1287   -1.7023   -0.4560 H   0  0  0  0  0  0  0  0  0  0  0  0
   -3.9496   -1.1654    0.5916 H   0  0  0  0  0  0  0  0  0  0  0  0
    9.7187   -2.8637    1.4260 H   0  0  0  0  0  0  0  0  0  0  0  0
   -5.5551   -2.6355    1.4867 H   0  0  0  0  0  0  0  0  0  0  0  0
   -6.7114    0.4268   -1.3518 H   0  0  0  0  0  0  0  0  0  0  0  0
   -8.9998   -0.3096   -1.2273 H   0  0  0  0  0  0  0  0  0  0  0  0
   -9.6503   -2.1952    0.2246 H   0  0  0  0  0  0  0  0  0  0  0  0
  1 30  1  0  0  0  0
  2 18  2  0  0  0  0
  3 20  2  0  0  0  0
  4 26  1  0  0  0  0
  4 58  1  0  0  0  0
  5 23  2  0  0  0  0
  6 11  1  0  0  0  0
  6 12  1  0  0  0  0
  6 15  1  0  0  0  0
  7 16  1  0  0  0  0
  7 18  1  0  0  0  0
  7 44  1  0  0  0  0
  8 13  1  0  0  0  0
  8 23  1  0  0  0  0
  8 45  1  0  0  0  0
  9 20  1  0  0  0  0
  9 21  1  0  0  0  0
  9 22  1  0  0  0  0
 10 23  1  0  0  0  0
 10 27  1  0  0  0  0
 10 57  1  0  0  0  0
 11 14  1  0  0  0  0
 11 18  1  0  0  0  0
 11 33  1  0  0  0  0
 12 16  1  0  0  0  0
 12 17  1  0  0  0  0
 12 34  1  0  0  0  0
 13 14  1  0  0  0  0
 13 15  1  0  0  0  0
 13 35  1  0  0  0  0
 14 36  1  0  0  0  0
 14 37  1  0  0  0  0
 15 38  1  0  0  0  0
 15 39  1  0  0  0  0
 16 40  1  0  0  0  0
 16 41  1  0  0  0  0
 17 19  1  0  0  0  0
 17 42  1  0  0  0  0
 17 43  1  0  0  0  0
 19 20  1  0  0  0  0
 19 46  1  0  0  0  0
 19 47  1  0  0  0  0
 21 24  1  0  0  0  0
 21 48  1  0  0  0  0
 21 49  1  0  0  0  0
 22 25  1  0  0  0  0
 22 50  1  0  0  0  0
 22 51  1  0  0  0  0
 24 26  1  0  0  0  0
 24 52  1  0  0  0  0
 24 53  1  0  0  0  0
 25 26  1  0  0  0  0
 25 54  1  0  0  0  0
 25 55  1  0  0  0  0
 26 56  1  0  0  0  0
 27 28  2  0  0  0  0
 27 29  1  0  0  0  0
 28 30  1  0  0  0  0
 28 59  1  0  0  0  0
 29 31  2  0  0  0  0
 29 60  1  0  0  0  0
 30 32  2  0  0  0  0
 31 32  1  0  0  0  0
 31 61  1  0  0  0  0
 32 62  1  0  0  0  0
M  END
> <PUBCHEM_COMPOUND_CID>
26763115

> <PUBCHEM_CONFORMER_RMSD>
1.4

> <PUBCHEM_CONFORMER_DIVERSEORDER>
1
8
105
40
63
95
103
25
35
87
109
28
75
68
77
42
110
93
97
104
43
54
37
23
52
45
86
76
78
44
65
39
15
101
106
17
98
59
12
18
112
2
66
16
26
108
83
20
13
73
71
11
38
60
80
64
50
96
10
46
85
74
55
100
53
99
91
29
84
72
14
82
19
62
6
81
27
79
90
70
30
69
56
41
3
51
7
31
9
89
21
107
24
58
67
57
88
48
111
92
34
102
32
61
33
94
4
22
49
47
36
5

> <PUBCHEM_MMFF94_PARTIAL_CHARGES>
36
1 -0.18
10 -0.55
11 0.33
12 0.27
13 0.3
15 0.27
16 0.3
18 0.57
19 0.06
2 -0.57
20 0.57
21 0.3
22 0.3
23 0.69
26 0.28
27 0.12
28 -0.15
29 -0.15
3 -0.57
30 0.18
31 -0.15
32 -0.15
4 -0.68
44 0.37
45 0.37
5 -0.57
57 0.37
58 0.4
59 0.15
6 -0.81
60 0.15
61 0.15
62 0.15
7 -0.73
8 -0.73
9 -0.66

> <PUBCHEM_EFFECTIVE_ROTOR_COUNT>
10.4

> <PUBCHEM_PHARMACOPHORE_FEATURES>
13
1 10 donor
1 2 acceptor
1 3 acceptor
1 4 acceptor
1 4 donor
1 5 acceptor
1 6 cation
1 7 donor
1 8 donor
5 6 11 13 14 15 rings
6 27 28 29 30 31 32 rings
6 6 7 11 12 16 18 rings
6 9 21 22 24 25 26 rings

> <PUBCHEM_HEAVY_ATOM_COUNT>
32

> <PUBCHEM_ATOM_DEF_STEREO_COUNT>
3

> <PUBCHEM_ATOM_UDEF_STEREO_COUNT>
0

> <PUBCHEM_BOND_DEF_STEREO_COUNT>
0

> <PUBCHEM_BOND_UDEF_STEREO_COUNT>
0

> <PUBCHEM_ISOTOPIC_ATOM_COUNT>
0

> <PUBCHEM_COMPONENT_COUNT>
1

> <PUBCHEM_CACTVS_TAUTO_COUNT>
9

> <PUBCHEM_CONFORMER_ID>
01985F6B00000001

> <PUBCHEM_MMFF94_ENERGY>
73.1947

> <PUBCHEM_FEATURE_SELFOVERLAP>
66.116

> <PUBCHEM_SHAPE_FINGERPRINT>
10 15 12031791366524142807
10625338 86 14405187235781409427
10864689 126 18260261971998137595
11273773 42 12540688190337209479
11297750 10 18411128147740156237
11409948 8 18341884230876283714
11411753 3 18262499486503131381
117089 54 18411427176289773559
11828532 37 18188782771735280179
12342043 65 18335418024083638373
13150687 139 12973601110674647984
13631057 29 18335984156343646376
13673619 4 18407759248712865397
13782708 43 18336548330832076999
14359421 15 17676483952278776435
15510800 12 18408037429201343659
15773216 30 18116723017893415628
15803439 3 14273461387476683385
16096371 109 17557692857732083913
16120349 189 9151169848495814537
16990366 60 18408885161282751834
19246450 95 17703518688816760105
19841028 212 18333733537387361904
2026 5 18113616750930419482
20721686 146 11095891457721722323
21049683 271 18410859897574210484
21095123 293 12319445620058437954
212700 22 18333726901516268214
21585482 111 11311788250102374555
21796203 349 17775566463736932500
21987483 16 18261104172509172338
22149856 69 17703519783722177646
23569917 315 18265617581853519598
23729398 52 18267585891675780840
2747138 104 18130225965790684382
2835820 33 18409445874650325762
2851757 41 18334584550845935523
3178227 256 18202284718789488862
3383291 50 18410292510186290467
4169191 19 8358270241783132487
439807 62 18333734615070764583
5470011 282 17749393693460176142
5718773 13 18408044013423280951
5719381 82 18040434382277214203
59682541 35 18201146699413059114
6201320 82 9510919101692637671
636775 8 18336553737779678166
6691757 9 15482379907717677285
9962374 69 18130779122955037599
999808 66 18411136926968904959

> <PUBCHEM_SHAPE_MULTIPOLES>
612.03
30.12
4.81
1.39
1.43
2.19
-0.39
-43.08
-5.74
0.77
-2.82
0.59
0.23
3.17

> <PUBCHEM_SHAPE_SELFOVERLAP>
1279.31

> <PUBCHEM_SHAPE_VOLUME>
345

> <PUBCHEM_COORDINATE_TYPE>
2
5
10

$$$$
