45360576
  -OEChem-12032416193D

 52 55  0     1  0  0  0  0  0999 V2000
    7.5256    0.6993    0.2798 F   0  0  0  0  0  0  0  0  0  0  0  0
   -2.6861   -1.2565   -1.5934 O   0  0  0  0  0  0  0  0  0  0  0  0
   -4.0950   -2.4084   -0.1549 O   0  0  0  0  0  0  0  0  0  0  0  0
   -2.2839   -2.2253    2.0783 O   0  0  0  0  0  0  0  0  0  0  0  0
    1.6405   -1.9377    0.9944 O   0  0  0  0  0  0  0  0  0  0  0  0
   -2.5305    0.9203    0.2708 N   0  0  0  0  0  0  0  0  0  0  0  0
    0.0393   -1.1980   -0.4995 N   0  0  0  0  0  0  0  0  0  0  0  0
   -2.7942    3.7984    0.1935 N   0  0  0  0  0  0  0  0  0  0  0  0
    2.1604   -0.3425   -0.6474 N   0  0  0  0  0  0  0  0  0  0  0  0
   -2.9799   -0.4182    0.6486 C   0  0  2  0  0  0  0  0  0  0  0  0
   -1.7829   -1.2619    1.1422 C   0  0  2  0  0  0  0  0  0  0  0  0
   -1.0473   -2.0083    0.0076 C   0  0  1  0  0  0  0  0  0  0  0  0
   -3.6610   -1.0976   -0.5537 C   0  0  1  0  0  0  0  0  0  0  0  0
   -1.9778   -2.4190   -1.1522 C   0  0  1  0  0  0  0  0  0  0  0  0
   -3.1357   -3.3058   -0.7345 C   0  0  0  0  0  0  0  0  0  0  0  0
   -2.2792    1.7414    1.4616 C   0  0  0  0  0  0  0  0  0  0  0  0
   -3.5126    1.5726   -0.6039 C   0  0  0  0  0  0  0  0  0  0  0  0
   -1.8108    3.1461    1.0666 C   0  0  0  0  0  0  0  0  0  0  0  0
   -3.0449    2.9779   -0.9977 C   0  0  0  0  0  0  0  0  0  0  0  0
    1.3261   -1.2254    0.0439 C   0  0  0  0  0  0  0  0  0  0  0  0
   -2.3465    5.1375   -0.1833 C   0  0  0  0  0  0  0  0  0  0  0  0
    3.5293   -0.0768   -0.4110 C   0  0  0  0  0  0  0  0  0  0  0  0
    4.2087    0.8451   -1.2074 C   0  0  0  0  0  0  0  0  0  0  0  0
    4.2001   -0.7367    0.6188 C   0  0  0  0  0  0  0  0  0  0  0  0
    5.5586    1.1071   -0.9744 C   0  0  0  0  0  0  0  0  0  0  0  0
    5.5502   -0.4748    0.8519 C   0  0  0  0  0  0  0  0  0  0  0  0
    6.2295    0.4470    0.0553 C   0  0  0  0  0  0  0  0  0  0  0  0
   -3.7314   -0.3622    1.4496 H   0  0  0  0  0  0  0  0  0  0  0  0
   -1.0699   -0.6685    1.7215 H   0  0  0  0  0  0  0  0  0  0  0  0
   -0.6021   -2.9267    0.4119 H   0  0  0  0  0  0  0  0  0  0  0  0
   -4.5565   -0.5957   -0.9280 H   0  0  0  0  0  0  0  0  0  0  0  0
   -1.4077   -2.8506   -1.9813 H   0  0  0  0  0  0  0  0  0  0  0  0
   -3.6126   -3.7640   -1.6076 H   0  0  0  0  0  0  0  0  0  0  0  0
   -2.8640   -4.0916   -0.0247 H   0  0  0  0  0  0  0  0  0  0  0  0
   -3.1851    1.8223    2.0783 H   0  0  0  0  0  0  0  0  0  0  0  0
   -1.4990    1.3089    2.0950 H   0  0  0  0  0  0  0  0  0  0  0  0
   -3.6193    1.0675   -1.5685 H   0  0  0  0  0  0  0  0  0  0  0  0
   -4.4993    1.6341   -0.1251 H   0  0  0  0  0  0  0  0  0  0  0  0
   -0.1638   -0.5246   -1.2319 H   0  0  0  0  0  0  0  0  0  0  0  0
   -1.6805    3.7364    1.9819 H   0  0  0  0  0  0  0  0  0  0  0  0
   -0.8300    3.0836    0.5754 H   0  0  0  0  0  0  0  0  0  0  0  0
   -2.1421    2.9070   -1.6200 H   0  0  0  0  0  0  0  0  0  0  0  0
   -3.8269    3.4444   -1.6095 H   0  0  0  0  0  0  0  0  0  0  0  0
   -1.5221   -2.7156    2.4318 H   0  0  0  0  0  0  0  0  0  0  0  0
   -1.4051    5.1179   -0.7443 H   0  0  0  0  0  0  0  0  0  0  0  0
   -3.1036    5.6372   -0.7979 H   0  0  0  0  0  0  0  0  0  0  0  0
   -2.2041    5.7599    0.7071 H   0  0  0  0  0  0  0  0  0  0  0  0
    1.7407    0.1756   -1.4152 H   0  0  0  0  0  0  0  0  0  0  0  0
    3.6977    1.3663   -2.0129 H   0  0  0  0  0  0  0  0  0  0  0  0
    3.7436   -1.4623    1.2768 H   0  0  0  0  0  0  0  0  0  0  0  0
    6.0879    1.8249   -1.5941 H   0  0  0  0  0  0  0  0  0  0  0  0
    6.0740   -0.9876    1.6534 H   0  0  0  0  0  0  0  0  0  0  0  0
  1 27  1  0  0  0  0
  2 13  1  0  0  0  0
  2 14  1  0  0  0  0
  3 13  1  0  0  0  0
  3 15  1  0  0  0  0
  4 11  1  0  0  0  0
  4 44  1  0  0  0  0
  5 20  2  0  0  0  0
  6 10  1  0  0  0  0
  6 16  1  0  0  0  0
  6 17  1  0  0  0  0
  7 12  1  0  0  0  0
  7 20  1  0  0  0  0
  7 39  1  0  0  0  0
  8 18  1  0  0  0  0
  8 19  1  0  0  0  0
  8 21  1  0  0  0  0
  9 20  1  0  0  0  0
  9 22  1  0  0  0  0
  9 48  1  0  0  0  0
 10 11  1  0  0  0  0
 10 13  1  0  0  0  0
 10 28  1  0  0  0  0
 11 12  1  0  0  0  0
 11 29  1  0  0  0  0
 12 14  1  0  0  0  0
 12 30  1  0  0  0  0
 13 31  1  0  0  0  0
 14 15  1  0  0  0  0
 14 32  1  0  0  0  0
 15 33  1  0  0  0  0
 15 34  1  0  0  0  0
 16 18  1  0  0  0  0
 16 35  1  0  0  0  0
 16 36  1  0  0  0  0
 17 19  1  0  0  0  0
 17 37  1  0  0  0  0
 17 38  1  0  0  0  0
 18 40  1  0  0  0  0
 18 41  1  0  0  0  0
 19 42  1  0  0  0  0
 19 43  1  0  0  0  0
 21 45  1  0  0  0  0
 21 46  1  0  0  0  0
 21 47  1  0  0  0  0
 22 23  2  0  0  0  0
 22 24  1  0  0  0  0
 23 25  1  0  0  0  0
 23 49  1  0  0  0  0
 24 26  2  0  0  0  0
 24 50  1  0  0  0  0
 25 27  2  0  0  0  0
 25 51  1  0  0  0  0
 26 27  1  0  0  0  0
 26 52  1  0  0  0  0
M  END
> <PUBCHEM_COMPOUND_CID>
45360576

> <PUBCHEM_CONFORMER_RMSD>
0.8

> <PUBCHEM_CONFORMER_DIVERSEORDER>
1
26
21
6
27
22
15
14
17
13
3
10
24
25
23
7
16
5
9
11
12
8
20
19
18
2
4

> <PUBCHEM_MMFF94_PARTIAL_CHARGES>
34
1 -0.19
10 0.27
11 0.28
12 0.3
13 0.56
14 0.28
15 0.28
16 0.27
17 0.27
18 0.27
19 0.27
2 -0.56
20 0.69
21 0.27
22 0.12
23 -0.15
24 -0.15
25 -0.15
26 -0.15
27 0.19
3 -0.56
39 0.37
4 -0.68
44 0.4
48 0.37
49 0.15
5 -0.57
50 0.15
51 0.15
52 0.15
6 -0.81
7 -0.73
8 -0.81
9 -0.55

> <PUBCHEM_EFFECTIVE_ROTOR_COUNT>
7.4

> <PUBCHEM_PHARMACOPHORE_FEATURES>
12
1 2 acceptor
1 3 acceptor
1 4 acceptor
1 4 donor
1 5 acceptor
1 6 cation
1 7 donor
1 8 cation
1 9 donor
6 22 23 24 25 26 27 rings
6 6 8 16 17 18 19 rings
8 2 3 10 11 12 13 14 15 rings

> <PUBCHEM_HEAVY_ATOM_COUNT>
27

> <PUBCHEM_ATOM_DEF_STEREO_COUNT>
5

> <PUBCHEM_ATOM_UDEF_STEREO_COUNT>
0

> <PUBCHEM_BOND_DEF_STEREO_COUNT>
0

> <PUBCHEM_BOND_UDEF_STEREO_COUNT>
0

> <PUBCHEM_ISOTOPIC_ATOM_COUNT>
0

> <PUBCHEM_COMPONENT_COUNT>
1

> <PUBCHEM_CACTVS_TAUTO_COUNT>
3

> <PUBCHEM_CONFORMER_ID>
02B425C000000001

> <PUBCHEM_MMFF94_ENERGY>
78.6408

> <PUBCHEM_FEATURE_SELFOVERLAP>
61

> <PUBCHEM_SHAPE_FINGERPRINT>
100830 39 18412824669255269492
10087517 78 18339921615036586988
10291535 26 18410009944434644187
10670039 82 18339940285322395532
10673678 19 17617940228151513721
10871710 139 18410016537415217405
10937287 8 17908705029780275169
11045515 52 18195240246943879623
11059845 2 17906708347234797744
11101153 10 18195808694487322076
11477941 20 18200303459176944164
12107183 9 17902783073401869106
12166972 35 17751357502541618558
12788726 201 18335690646816176051
14142880 1 18187645756958750261
14251764 75 17766566750563274609
14466204 15 18410570674623378608
14910302 57 17631755831791763878
15064981 113 18057591084945430686
15463212 79 18335417911659575673
15513586 35 18047495566532077800
15961568 22 17909820269863340528
17492 54 18267847433971911077
17686467 74 17699838829319699346
17818456 19 18124587588379923938
17844677 252 18412269463064241862
20511986 3 18041265566203032576
21033650 10 18265639657477862822
22907989 373 18200021846987697581
22956985 138 16891747393428575675
341906 21 18341324527385446312
376196 1 17686907111903271961
469060 322 18267044880171558971
497634 4 16988291965920004658
508706 21 18201419398964963016
531348 171 18271247127935553654
5364581 5 11314891175179498230
5372103 7 17316463021807509285
550186 7 18130512967968241052
58260988 647 10667806592180569569
6299153 45 18190172387862143610
6327066 14 18192989327393132157
6677587 24 15945925007615365365
7288768 16 17969229927995314697
7808743 9 18340205185245110328
9849439 229 17979077076651003541
9981440 41 18336549313515002787

> <PUBCHEM_SHAPE_MULTIPOLES>
504.97
12.8
4.8
1.34
29.85
5.42
0.22
2.87
-0.74
-8.88
-0.28
-0.5
-0.24
-0.91

> <PUBCHEM_SHAPE_SELFOVERLAP>
1077.484

> <PUBCHEM_SHAPE_VOLUME>
279.4

> <PUBCHEM_COORDINATE_TYPE>
2
5
10

$$$$
