11883078
  -OEChem-12032416133D

 67 70  0     1  0  0  0  0  0999 V2000
    0.2236    2.8288    0.2295 S   0  0  0  0  0  0  0  0  0  0  0  0
   -7.0596    0.0146   -0.5836 O   0  0  0  0  0  0  0  0  0  0  0  0
   -6.8065    1.7590    1.0404 O   0  0  0  0  0  0  0  0  0  0  0  0
    0.6474   -2.1495   -1.6627 O   0  0  0  0  0  0  0  0  0  0  0  0
    3.7521   -0.0922   -0.3895 O   0  0  0  0  0  0  0  0  0  0  0  0
    3.6304   -3.9666    1.0721 O   0  0  0  0  0  0  0  0  0  0  0  0
    5.1072    3.1511    0.0942 O   0  0  0  0  0  0  0  0  0  0  0  0
    0.8790    0.3573   -0.1635 N   0  0  0  0  0  0  0  0  0  0  0  0
    1.0077   -3.7287    0.0040 N   0  0  0  0  0  0  0  0  0  0  0  0
    2.6811    1.9525   -0.0322 N   0  0  0  0  0  0  0  0  0  0  0  0
   -2.8335   -0.5680    0.3156 C   0  0  2  0  0  0  0  0  0  0  0  0
   -3.3375    0.8232   -0.2725 C   0  0  1  0  0  0  0  0  0  0  0  0
   -4.8895    1.1008   -0.2240 C   0  0  1  0  0  0  0  0  0  0  0  0
   -1.3502   -0.8221   -0.2218 C   0  0  1  0  0  0  0  0  0  0  0  0
   -3.7446   -1.7091   -0.2065 C   0  0  0  0  0  0  0  0  0  0  0  0
   -5.6506   -0.1549   -0.7356 C   0  0  1  0  0  0  0  0  0  0  0  0
   -2.4721    2.0077    0.2480 C   0  0  0  0  0  0  0  0  0  0  0  0
   -5.2323   -1.4402   -0.0301 C   0  0  0  0  0  0  0  0  0  0  0  0
   -2.8329   -0.6015    1.8639 C   0  0  0  0  0  0  0  0  0  0  0  0
   -0.4993    0.4124   -0.0685 C   0  0  0  0  0  0  0  0  0  0  0  0
   -5.4188    1.5401    1.1591 C   0  0  0  0  0  0  0  0  0  0  0  0
   -5.2256    2.2711   -1.1911 C   0  0  0  0  0  0  0  0  0  0  0  0
   -1.0238    1.6743    0.1233 C   0  0  0  0  0  0  0  0  0  0  0  0
   -0.6597   -2.0576    0.3714 C   0  0  0  0  0  0  0  0  0  0  0  0
    0.3901   -2.6209   -0.5583 C   0  0  0  0  0  0  0  0  0  0  0  0
    1.3661    1.5700   -0.0143 C   0  0  0  0  0  0  0  0  0  0  0  0
    2.0512   -4.4739   -0.6621 C   0  0  0  0  0  0  0  0  0  0  0  0
    3.8100    1.1229   -0.2160 C   0  0  0  0  0  0  0  0  0  0  0  0
    3.4267   -3.9224   -0.3343 C   0  0  0  0  0  0  0  0  0  0  0  0
    5.1103    1.8127   -0.1401 C   0  0  0  0  0  0  0  0  0  0  0  0
    6.3986    1.3471   -0.2657 C   0  0  0  0  0  0  0  0  0  0  0  0
    4.9063   -3.4540    1.4303 C   0  0  0  0  0  0  0  0  0  0  0  0
    7.2411    2.4718   -0.0977 C   0  0  0  0  0  0  0  0  0  0  0  0
    6.4077    3.5445    0.1186 C   0  0  0  0  0  0  0  0  0  0  0  0
   -3.1131    0.7511   -1.3511 H   0  0  0  0  0  0  0  0  0  0  0  0
   -1.4490   -0.9668   -1.3082 H   0  0  0  0  0  0  0  0  0  0  0  0
   -3.5103   -2.6552    0.2943 H   0  0  0  0  0  0  0  0  0  0  0  0
   -3.5521   -1.8730   -1.2751 H   0  0  0  0  0  0  0  0  0  0  0  0
   -5.4621   -0.2718   -1.8112 H   0  0  0  0  0  0  0  0  0  0  0  0
   -2.6990    2.2272    1.2966 H   0  0  0  0  0  0  0  0  0  0  0  0
   -2.6842    2.9123   -0.3317 H   0  0  0  0  0  0  0  0  0  0  0  0
   -5.5089   -1.4088    1.0295 H   0  0  0  0  0  0  0  0  0  0  0  0
   -5.8010   -2.2822   -0.4455 H   0  0  0  0  0  0  0  0  0  0  0  0
   -2.4544   -1.5587    2.2392 H   0  0  0  0  0  0  0  0  0  0  0  0
   -3.8282   -0.5031    2.2921 H   0  0  0  0  0  0  0  0  0  0  0  0
   -2.2042    0.1792    2.3008 H   0  0  0  0  0  0  0  0  0  0  0  0
   -4.9528    2.4708    1.4965 H   0  0  0  0  0  0  0  0  0  0  0  0
   -5.2785    0.7851    1.9284 H   0  0  0  0  0  0  0  0  0  0  0  0
   -6.3047    2.4004   -1.3314 H   0  0  0  0  0  0  0  0  0  0  0  0
   -4.8330    3.2263   -0.8270 H   0  0  0  0  0  0  0  0  0  0  0  0
   -4.7979    2.0939   -2.1847 H   0  0  0  0  0  0  0  0  0  0  0  0
   -0.1875   -1.8249    1.3342 H   0  0  0  0  0  0  0  0  0  0  0  0
   -1.3768   -2.8671    0.5408 H   0  0  0  0  0  0  0  0  0  0  0  0
   -7.4931   -0.7712   -0.9579 H   0  0  0  0  0  0  0  0  0  0  0  0
   -7.1305    2.0445    1.9115 H   0  0  0  0  0  0  0  0  0  0  0  0
    0.7292   -4.0350    0.9318 H   0  0  0  0  0  0  0  0  0  0  0  0
    2.8407    2.9468    0.1100 H   0  0  0  0  0  0  0  0  0  0  0  0
    1.8802   -4.4544   -1.7433 H   0  0  0  0  0  0  0  0  0  0  0  0
    1.9643   -5.5074   -0.3106 H   0  0  0  0  0  0  0  0  0  0  0  0
    3.5099   -2.8863   -0.6819 H   0  0  0  0  0  0  0  0  0  0  0  0
    4.1923   -4.5248   -0.8364 H   0  0  0  0  0  0  0  0  0  0  0  0
    6.6979    0.3259   -0.4543 H   0  0  0  0  0  0  0  0  0  0  0  0
    5.0089   -3.5149    2.5171 H   0  0  0  0  0  0  0  0  0  0  0  0
    4.9972   -2.4057    1.1298 H   0  0  0  0  0  0  0  0  0  0  0  0
    5.7017   -4.0485    0.9707 H   0  0  0  0  0  0  0  0  0  0  0  0
    8.3207    2.4975   -0.1301 H   0  0  0  0  0  0  0  0  0  0  0  0
    6.5743    4.5967    0.2971 H   0  0  0  0  0  0  0  0  0  0  0  0
  1 23  1  0  0  0  0
  1 26  1  0  0  0  0
  2 16  1  0  0  0  0
  2 54  1  0  0  0  0
  3 21  1  0  0  0  0
  3 55  1  0  0  0  0
  4 25  2  0  0  0  0
  5 28  2  0  0  0  0
  6 29  1  0  0  0  0
  6 32  1  0  0  0  0
  7 30  1  0  0  0  0
  7 34  1  0  0  0  0
  8 20  1  0  0  0  0
  8 26  2  0  0  0  0
  9 25  1  0  0  0  0
  9 27  1  0  0  0  0
  9 56  1  0  0  0  0
 10 26  1  0  0  0  0
 10 28  1  0  0  0  0
 10 57  1  0  0  0  0
 11 12  1  0  0  0  0
 11 14  1  0  0  0  0
 11 15  1  0  0  0  0
 11 19  1  0  0  0  0
 12 13  1  0  0  0  0
 12 17  1  0  0  0  0
 12 35  1  0  0  0  0
 13 16  1  0  0  0  0
 13 21  1  0  0  0  0
 13 22  1  0  0  0  0
 14 20  1  0  0  0  0
 14 24  1  0  0  0  0
 14 36  1  0  0  0  0
 15 18  1  0  0  0  0
 15 37  1  0  0  0  0
 15 38  1  0  0  0  0
 16 18  1  0  0  0  0
 16 39  1  0  0  0  0
 17 23  1  0  0  0  0
 17 40  1  0  0  0  0
 17 41  1  0  0  0  0
 18 42  1  0  0  0  0
 18 43  1  0  0  0  0
 19 44  1  0  0  0  0
 19 45  1  0  0  0  0
 19 46  1  0  0  0  0
 20 23  2  0  0  0  0
 21 47  1  0  0  0  0
 21 48  1  0  0  0  0
 22 49  1  0  0  0  0
 22 50  1  0  0  0  0
 22 51  1  0  0  0  0
 24 25  1  0  0  0  0
 24 52  1  0  0  0  0
 24 53  1  0  0  0  0
 27 29  1  0  0  0  0
 27 58  1  0  0  0  0
 27 59  1  0  0  0  0
 28 30  1  0  0  0  0
 29 60  1  0  0  0  0
 29 61  1  0  0  0  0
 30 31  2  0  0  0  0
 31 33  1  0  0  0  0
 31 62  1  0  0  0  0
 32 63  1  0  0  0  0
 32 64  1  0  0  0  0
 32 65  1  0  0  0  0
 33 34  2  0  0  0  0
 33 66  1  0  0  0  0
 34 67  1  0  0  0  0
M  END
> <PUBCHEM_COMPOUND_CID>
11883078

> <PUBCHEM_CONFORMER_RMSD>
1.2

> <PUBCHEM_CONFORMER_DIVERSEORDER>
1
9
6
11
8
3
10
4
7
2
5
12

> <PUBCHEM_MMFF94_PARTIAL_CHARGES>
34
1 -0.08
10 -0.49
14 0.18
16 0.28
17 0.18
2 -0.68
20 0.05
21 0.28
23 -0.14
24 0.06
25 0.57
26 0.44
27 0.3
28 0.71
29 0.28
3 -0.68
30 0.05
31 -0.15
32 0.28
33 -0.15
34 -0.01
4 -0.57
5 -0.57
54 0.4
55 0.4
56 0.37
57 0.37
6 -0.56
62 0.15
66 0.15
67 0.15
7 -0.28
8 -0.57
9 -0.73

> <PUBCHEM_EFFECTIVE_ROTOR_COUNT>
11.2

> <PUBCHEM_PHARMACOPHORE_FEATURES>
14
1 10 donor
1 2 acceptor
1 2 donor
1 3 acceptor
1 3 donor
1 4 acceptor
1 5 acceptor
1 6 acceptor
1 7 acceptor
1 9 donor
5 1 8 20 23 26 rings
5 7 30 31 33 34 rings
6 11 12 13 15 16 18 rings
6 11 12 14 17 20 23 rings

> <PUBCHEM_HEAVY_ATOM_COUNT>
34

> <PUBCHEM_ATOM_DEF_STEREO_COUNT>
5

> <PUBCHEM_ATOM_UDEF_STEREO_COUNT>
0

> <PUBCHEM_BOND_DEF_STEREO_COUNT>
0

> <PUBCHEM_BOND_UDEF_STEREO_COUNT>
0

> <PUBCHEM_ISOTOPIC_ATOM_COUNT>
0

> <PUBCHEM_COMPONENT_COUNT>
1

> <PUBCHEM_CACTVS_TAUTO_COUNT>
6

> <PUBCHEM_CONFORMER_ID>
00B5524600000001

> <PUBCHEM_MMFF94_ENERGY>
87.3872

> <PUBCHEM_FEATURE_SELFOVERLAP>
71.196

> <PUBCHEM_SHAPE_FINGERPRINT>
10050765 1 18267305318683659893
10906281 52 18336844051461440809
10940486 97 17831020496251379332
11007060 377 17984703582634456128
11135609 187 18412260670353921120
11135926 11 18410570682427537629
11136131 41 18334566937622586642
11315181 36 18339927138153857929
11578080 2 17315052404322847381
11719270 70 18411131451281111032
12977781 61 17749691634962075106
14028597 1 17702406059709971107
14659021 117 17402882823505604616
14790565 3 18339082721512811284
15183329 4 18335134332065221169
15400415 2 18266740363033375740
15815584 197 18265358216033007711
15927050 60 18341048635692946150
16067689 302 18413110589644873447
16719943 64 18266739267726466306
167882 2 18410572851417598826
18681886 176 18267015244855498641
20642791 35 18341906147330101590
21133665 82 18339646746104173588
21360443 120 18335422400528147134
23559900 14 18194678168652710219
3383291 50 18196653123369263818
3411729 13 18409167701580370914
4017518 198 18200602509761061270
4073 2 18262805193394246496
5104073 3 18336558127331089763
5265222 85 18193561305462748572
5385378 56 18339933640470093417
59755656 215 18411421725854436261
6371380 46 18200591540130048912
6669772 16 18411702084234868438
67856867 119 18337108956185454127
99344 41 18411134740930693036
9981440 41 18263652907942481067

> <PUBCHEM_SHAPE_MULTIPOLES>
653.39
17.03
5.49
1.05
3.92
5.68
-0.21
-12.49
-0.38
9.7
-0.13
-0.6
0.41
-0.84

> <PUBCHEM_SHAPE_SELFOVERLAP>
1371.699

> <PUBCHEM_SHAPE_VOLUME>
371.6

> <PUBCHEM_COORDINATE_TYPE>
2
5
10

$$$$
