28962287
  -OEChem-12032416283D

 61 63  0     1  0  0  0  0  0999 V2000
    0.8376    3.1392   -0.7164 O   0  0  0  0  0  0  0  0  0  0  0  0
    3.0626    3.5728    1.2406 O   0  0  0  0  0  0  0  0  0  0  0  0
    0.6228    5.8956   -1.2275 O   0  0  0  0  0  0  0  0  0  0  0  0
   -1.0821   -0.7438    0.2806 O   0  0  0  0  0  0  0  0  0  0  0  0
   -7.6792   -0.0367    0.0344 O   0  0  0  0  0  0  0  0  0  0  0  0
    3.4767    0.8555    0.4238 N   0  0  1  0  0  0  0  0  0  0  0  0
   -0.8038    1.4738    0.8768 N   0  0  0  0  0  0  0  0  0  0  0  0
   -2.9379    0.6723    0.5283 N   0  0  0  0  0  0  0  0  0  0  0  0
    2.5030   -3.5813    0.2996 N   0  0  0  0  0  0  0  0  0  0  0  0
    2.7965    1.8188   -0.4241 C   0  0  1  0  0  0  0  0  0  0  0  0
    1.2632    1.8011   -0.3755 C   0  0  1  0  0  0  0  0  0  0  0  0
    3.1314    3.2765   -0.1482 C   0  0  1  0  0  0  0  0  0  0  0  0
    1.9998    3.9713   -0.8961 C   0  0  2  0  0  0  0  0  0  0  0  0
    0.6257    1.4516    0.9646 C   0  0  0  0  0  0  0  0  0  0  0  0
    1.6817    5.3821   -0.4354 C   0  0  0  0  0  0  0  0  0  0  0  0
    3.4241   -0.4866   -0.1644 C   0  0  0  0  0  0  0  0  0  0  0  0
    4.8707    1.2509    0.6488 C   0  0  0  0  0  0  0  0  0  0  0  0
    3.7232   -1.5570    0.8855 C   0  0  0  0  0  0  0  0  0  0  0  0
    3.6939   -2.9415    0.2886 C   0  0  0  0  0  0  0  0  0  0  0  0
   -1.5775    0.3517    0.5338 C   0  0  0  0  0  0  0  0  0  0  0  0
    4.8594   -3.4808   -0.2318 C   0  0  0  0  0  0  0  0  0  0  0  0
    4.7985   -4.7588   -0.7760 C   0  0  0  0  0  0  0  0  0  0  0  0
   -4.0290   -0.1785    0.2353 C   0  0  0  0  0  0  0  0  0  0  0  0
    2.4827   -4.8215   -0.2379 C   0  0  0  0  0  0  0  0  0  0  0  0
    3.5913   -5.4488   -0.7831 C   0  0  0  0  0  0  0  0  0  0  0  0
   -5.3319    0.3179    0.2789 C   0  0  0  0  0  0  0  0  0  0  0  0
   -3.8024   -1.5143   -0.0969 C   0  0  0  0  0  0  0  0  0  0  0  0
   -6.4082   -0.5213   -0.0094 C   0  0  0  0  0  0  0  0  0  0  0  0
   -4.8786   -2.3535   -0.3850 C   0  0  0  0  0  0  0  0  0  0  0  0
   -6.1815   -1.8571   -0.3416 C   0  0  0  0  0  0  0  0  0  0  0  0
   -8.7327   -0.9495   -0.2705 C   0  0  0  0  0  0  0  0  0  0  0  0
    3.0886    1.6460   -1.4728 H   0  0  0  0  0  0  0  0  0  0  0  0
    0.8737    1.1270   -1.1484 H   0  0  0  0  0  0  0  0  0  0  0  0
    4.1129    3.5829   -0.5253 H   0  0  0  0  0  0  0  0  0  0  0  0
    2.2019    3.9705   -1.9750 H   0  0  0  0  0  0  0  0  0  0  0  0
    0.8932    2.1837    1.7329 H   0  0  0  0  0  0  0  0  0  0  0  0
    0.9393    0.4605    1.3066 H   0  0  0  0  0  0  0  0  0  0  0  0
    2.5525    6.0361   -0.5411 H   0  0  0  0  0  0  0  0  0  0  0  0
    1.3382    5.3944    0.6039 H   0  0  0  0  0  0  0  0  0  0  0  0
    2.4197   -0.6895   -0.5595 H   0  0  0  0  0  0  0  0  0  0  0  0
    4.1091   -0.5715   -1.0192 H   0  0  0  0  0  0  0  0  0  0  0  0
    5.4228    0.5030    1.2252 H   0  0  0  0  0  0  0  0  0  0  0  0
    4.9628    2.1582    1.2513 H   0  0  0  0  0  0  0  0  0  0  0  0
    5.4125    1.3988   -0.2934 H   0  0  0  0  0  0  0  0  0  0  0  0
    3.3871    4.4809    1.3642 H   0  0  0  0  0  0  0  0  0  0  0  0
    2.9752   -1.5054    1.6880 H   0  0  0  0  0  0  0  0  0  0  0  0
    4.6943   -1.4167    1.3709 H   0  0  0  0  0  0  0  0  0  0  0  0
   -1.2813    2.3511    1.0595 H   0  0  0  0  0  0  0  0  0  0  0  0
    0.4428    6.7985   -0.9145 H   0  0  0  0  0  0  0  0  0  0  0  0
    5.7960   -2.9335   -0.2237 H   0  0  0  0  0  0  0  0  0  0  0  0
   -3.1811    1.6317    0.7621 H   0  0  0  0  0  0  0  0  0  0  0  0
    5.6900   -5.2162   -1.1944 H   0  0  0  0  0  0  0  0  0  0  0  0
    1.5176   -5.3169   -0.2191 H   0  0  0  0  0  0  0  0  0  0  0  0
    3.5206   -6.4459   -1.2022 H   0  0  0  0  0  0  0  0  0  0  0  0
   -5.5162    1.3581    0.5373 H   0  0  0  0  0  0  0  0  0  0  0  0
   -2.8246   -1.9713   -0.1515 H   0  0  0  0  0  0  0  0  0  0  0  0
   -4.7023   -3.3938   -0.6436 H   0  0  0  0  0  0  0  0  0  0  0  0
   -6.9704   -2.5633   -0.5767 H   0  0  0  0  0  0  0  0  0  0  0  0
   -9.6739   -0.3961   -0.1873 H   0  0  0  0  0  0  0  0  0  0  0  0
   -8.7782   -1.7685    0.4554 H   0  0  0  0  0  0  0  0  0  0  0  0
   -8.6651   -1.3120   -1.3018 H   0  0  0  0  0  0  0  0  0  0  0  0
  1 11  1  0  0  0  0
  1 13  1  0  0  0  0
  2 12  1  0  0  0  0
  2 45  1  0  0  0  0
  3 15  1  0  0  0  0
  3 49  1  0  0  0  0
  4 20  2  0  0  0  0
  5 28  1  0  0  0  0
  5 31  1  0  0  0  0
  6 10  1  0  0  0  0
  6 16  1  0  0  0  0
  6 17  1  0  0  0  0
  7 14  1  0  0  0  0
  7 20  1  0  0  0  0
  7 48  1  0  0  0  0
  8 20  1  0  0  0  0
  8 23  1  0  0  0  0
  8 51  1  0  0  0  0
  9 19  1  0  0  0  0
  9 24  2  0  0  0  0
 10 11  1  0  0  0  0
 10 12  1  0  0  0  0
 10 32  1  0  0  0  0
 11 14  1  0  0  0  0
 11 33  1  0  0  0  0
 12 13  1  0  0  0  0
 12 34  1  0  0  0  0
 13 15  1  0  0  0  0
 13 35  1  0  0  0  0
 14 36  1  0  0  0  0
 14 37  1  0  0  0  0
 15 38  1  0  0  0  0
 15 39  1  0  0  0  0
 16 18  1  0  0  0  0
 16 40  1  0  0  0  0
 16 41  1  0  0  0  0
 17 42  1  0  0  0  0
 17 43  1  0  0  0  0
 17 44  1  0  0  0  0
 18 19  1  0  0  0  0
 18 46  1  0  0  0  0
 18 47  1  0  0  0  0
 19 21  2  0  0  0  0
 21 22  1  0  0  0  0
 21 50  1  0  0  0  0
 22 25  2  0  0  0  0
 22 52  1  0  0  0  0
 23 26  2  0  0  0  0
 23 27  1  0  0  0  0
 24 25  1  0  0  0  0
 24 53  1  0  0  0  0
 25 54  1  0  0  0  0
 26 28  1  0  0  0  0
 26 55  1  0  0  0  0
 27 29  2  0  0  0  0
 27 56  1  0  0  0  0
 28 30  2  0  0  0  0
 29 30  1  0  0  0  0
 29 57  1  0  0  0  0
 30 58  1  0  0  0  0
 31 59  1  0  0  0  0
 31 60  1  0  0  0  0
 31 61  1  0  0  0  0
M  END
> <PUBCHEM_COMPOUND_CID>
28962287

> <PUBCHEM_CONFORMER_RMSD>
1.2

> <PUBCHEM_CONFORMER_DIVERSEORDER>
2
66
46
28
59
5
29
31
38
77
26
47
64
43
56
1
52
60
71
75
3
45
68
24
27
55
50
39
44
51
49
42
79
69
32
23
41
40
48
6
67
62
34
18
21
33
58
9
10
35
70
7
78
76
14
65
53
30
17
54
57
37
72
63
11
20
13
73
4
16
12
36
25
8
15
61
74
22
19

> <PUBCHEM_MMFF94_PARTIAL_CHARGES>
43
1 -0.56
10 0.27
11 0.28
12 0.28
13 0.28
14 0.3
15 0.28
16 0.27
17 0.27
18 0.14
19 0.17
2 -0.68
20 0.69
21 -0.15
22 -0.15
23 0.12
24 0.16
25 -0.15
26 -0.15
27 -0.15
28 0.08
29 -0.15
3 -0.68
30 -0.15
31 0.28
4 -0.57
45 0.4
48 0.37
49 0.4
5 -0.36
50 0.15
51 0.37
52 0.15
53 0.15
54 0.15
55 0.15
56 0.15
57 0.15
58 0.15
6 -0.81
7 -0.73
8 -0.55
9 -0.62

> <PUBCHEM_EFFECTIVE_ROTOR_COUNT>
12

> <PUBCHEM_PHARMACOPHORE_FEATURES>
14
1 1 acceptor
1 2 acceptor
1 2 donor
1 3 acceptor
1 3 donor
1 4 acceptor
1 5 acceptor
1 6 cation
1 7 donor
1 8 donor
1 9 acceptor
5 1 10 11 12 13 rings
6 23 26 27 28 29 30 rings
6 9 19 21 22 24 25 rings

> <PUBCHEM_HEAVY_ATOM_COUNT>
31

> <PUBCHEM_ATOM_DEF_STEREO_COUNT>
4

> <PUBCHEM_ATOM_UDEF_STEREO_COUNT>
0

> <PUBCHEM_BOND_DEF_STEREO_COUNT>
0

> <PUBCHEM_BOND_UDEF_STEREO_COUNT>
0

> <PUBCHEM_ISOTOPIC_ATOM_COUNT>
0

> <PUBCHEM_COMPONENT_COUNT>
1

> <PUBCHEM_CACTVS_TAUTO_COUNT>
6

> <PUBCHEM_CONFORMER_ID>
01B9EDEF00000002

> <PUBCHEM_MMFF94_ENERGY>
93.4731

> <PUBCHEM_FEATURE_SELFOVERLAP>
71.104

> <PUBCHEM_SHAPE_FINGERPRINT>
10411042 1 18266178323259372410
10554248 39 18338501024907390575
11135609 149 18266719347177635165
11719270 70 18339356495992637344
11756154 67 18053388691021684638
12107183 9 18054801585386125945
12202916 173 18187075179407227354
13533116 47 18413107268980174843
1361 2 18410855464703509826
13785724 45 18268717112465769943
13989917 61 18411421726325077731
14675020 138 18127962208455946160
15183329 4 18130516331492343225
15250474 111 18126555954606667215
15400415 2 17906454686150608781
15467298 65 18056185016007300767
15484559 13 18337398252993663878
15803439 3 17393646818294613484
19319366 153 17984137333977235973
19427546 62 17904763628302432944
20028762 73 18271243941243477446
21057603 323 17040644362290947212
21133410 58 18335410275710019675
23559900 14 18409165532722198011
255183 451 18270405975480305598
3004659 81 18271249434026841329
3534868 343 18338806718604491429
404807 14 18050855420863560811
4073 2 18044093695051203163
4144715 1 18260271837521464547
5309563 4 18266178318901173166
613672 6 18048852157674213454
6441014 3 17763745394946744082
6695519 79 17548720907114665833
9831232 110 18408603691160262119

> <PUBCHEM_SHAPE_MULTIPOLES>
588.69
16.93
8.65
0.91
43.37
1.93
-0.01
-15.37
0.73
-17.42
3.19
-0.5
0.4
0.33

> <PUBCHEM_SHAPE_SELFOVERLAP>
1232.001

> <PUBCHEM_SHAPE_VOLUME>
331.5

> <PUBCHEM_COORDINATE_TYPE>
2
5
10

$$$$
