26742282
  -OEChem-12032416213D

 56 60  0     1  0  0  0  0  0999 V2000
    3.6118    5.2720    1.4555 F   0  0  0  0  0  0  0  0  0  0  0  0
   -1.2183   -0.6772    1.9665 O   0  0  0  0  0  0  0  0  0  0  0  0
    2.7739   -0.1259   -2.2127 O   0  0  0  0  0  0  0  0  0  0  0  0
   -6.6844    1.7031    0.0412 O   0  0  0  0  0  0  0  0  0  0  0  0
    3.1050   -1.5616   -0.4283 N   0  0  0  0  0  0  0  0  0  0  0  0
    0.1959   -2.0998    0.7769 N   0  0  0  0  0  0  0  0  0  0  0  0
    3.4528    0.7585   -0.1789 N   0  0  0  0  0  0  0  0  0  0  0  0
    2.4913   -2.8102    1.6565 C   0  0  1  0  0  0  0  0  0  0  0  0
    1.7169   -3.6262   -0.5272 C   0  0  2  0  0  0  0  0  0  0  0  0
    2.2738   -4.0666    0.8240 C   0  0  0  0  0  0  0  0  0  0  0  0
    3.4805   -1.8505    0.9650 C   0  0  0  0  0  0  0  0  0  0  0  0
    1.1319   -2.1461    1.9081 C   0  0  0  0  0  0  0  0  0  0  0  0
    2.7549   -2.7375   -1.2347 C   0  0  0  0  0  0  0  0  0  0  0  0
    0.4127   -2.8677   -0.3694 C   0  0  0  0  0  0  0  0  0  0  0  0
   -0.5143   -2.9055   -1.3396 C   0  0  0  0  0  0  0  0  0  0  0  0
   -0.9746   -1.3364    0.9542 C   0  0  0  0  0  0  0  0  0  0  0  0
    3.0812   -0.2829   -1.0284 C   0  0  0  0  0  0  0  0  0  0  0  0
   -1.9764   -1.3662   -0.1684 C   0  0  0  0  0  0  0  0  0  0  0  0
   -1.7226   -2.1375   -1.2361 C   0  0  0  0  0  0  0  0  0  0  0  0
   -3.2096   -0.5622   -0.1120 C   0  0  0  0  0  0  0  0  0  0  0  0
    3.0069    2.1024   -0.2253 C   0  0  0  0  0  0  0  0  0  0  0  0
   -4.4543   -1.1893   -0.1706 C   0  0  0  0  0  0  0  0  0  0  0  0
   -3.1327    0.8262   -0.0014 C   0  0  0  0  0  0  0  0  0  0  0  0
   -5.6219   -0.4281   -0.1188 C   0  0  0  0  0  0  0  0  0  0  0  0
   -4.3003    1.5874    0.0503 C   0  0  0  0  0  0  0  0  0  0  0  0
    3.5395    3.0440    0.6553 C   0  0  0  0  0  0  0  0  0  0  0  0
    2.0348    2.4837   -1.1502 C   0  0  0  0  0  0  0  0  0  0  0  0
   -5.5448    0.9603   -0.0084 C   0  0  0  0  0  0  0  0  0  0  0  0
    3.1000    4.3671    0.6109 C   0  0  0  0  0  0  0  0  0  0  0  0
    1.5954    3.8067   -1.1944 C   0  0  0  0  0  0  0  0  0  0  0  0
    2.1278    4.7485   -0.3139 C   0  0  0  0  0  0  0  0  0  0  0  0
   -6.5330    3.1174    0.1543 C   0  0  0  0  0  0  0  0  0  0  0  0
    2.9223   -3.0842    2.6275 H   0  0  0  0  0  0  0  0  0  0  0  0
    1.5527   -4.5230   -1.1388 H   0  0  0  0  0  0  0  0  0  0  0  0
    1.5783   -4.7495    1.3278 H   0  0  0  0  0  0  0  0  0  0  0  0
    3.2185   -4.6083    0.6935 H   0  0  0  0  0  0  0  0  0  0  0  0
    0.6105   -2.7003    2.7007 H   0  0  0  0  0  0  0  0  0  0  0  0
    1.2678   -1.1274    2.2925 H   0  0  0  0  0  0  0  0  0  0  0  0
    3.5643   -0.9445    1.5677 H   0  0  0  0  0  0  0  0  0  0  0  0
    4.4761   -2.3092    0.9281 H   0  0  0  0  0  0  0  0  0  0  0  0
    3.6838   -3.2983   -1.3964 H   0  0  0  0  0  0  0  0  0  0  0  0
    2.3905   -2.4385   -2.2235 H   0  0  0  0  0  0  0  0  0  0  0  0
   -0.3658   -3.4845   -2.2450 H   0  0  0  0  0  0  0  0  0  0  0  0
   -2.4052   -2.1926   -2.0792 H   0  0  0  0  0  0  0  0  0  0  0  0
    4.1239    0.5589    0.5556 H   0  0  0  0  0  0  0  0  0  0  0  0
   -4.5358   -2.2706   -0.2511 H   0  0  0  0  0  0  0  0  0  0  0  0
   -2.1705    1.3314    0.0398 H   0  0  0  0  0  0  0  0  0  0  0  0
   -6.5886   -0.9220   -0.1639 H   0  0  0  0  0  0  0  0  0  0  0  0
   -4.1681    2.6606    0.1349 H   0  0  0  0  0  0  0  0  0  0  0  0
    4.2973    2.7603    1.3810 H   0  0  0  0  0  0  0  0  0  0  0  0
    1.5638    1.7894   -1.8359 H   0  0  0  0  0  0  0  0  0  0  0  0
    0.8331    4.1030   -1.9092 H   0  0  0  0  0  0  0  0  0  0  0  0
    1.7846    5.7783   -0.3471 H   0  0  0  0  0  0  0  0  0  0  0  0
   -7.5389    3.5490    0.1810 H   0  0  0  0  0  0  0  0  0  0  0  0
   -6.0274    3.5391   -0.7210 H   0  0  0  0  0  0  0  0  0  0  0  0
   -6.0407    3.3956    1.0923 H   0  0  0  0  0  0  0  0  0  0  0  0
  1 29  1  0  0  0  0
  2 16  2  0  0  0  0
  3 17  2  0  0  0  0
  4 28  1  0  0  0  0
  4 32  1  0  0  0  0
  5 11  1  0  0  0  0
  5 13  1  0  0  0  0
  5 17  1  0  0  0  0
  6 12  1  0  0  0  0
  6 14  1  0  0  0  0
  6 16  1  0  0  0  0
  7 17  1  0  0  0  0
  7 21  1  0  0  0  0
  7 45  1  0  0  0  0
  8 10  1  0  0  0  0
  8 11  1  0  0  0  0
  8 12  1  0  0  0  0
  8 33  1  0  0  0  0
  9 10  1  0  0  0  0
  9 13  1  0  0  0  0
  9 14  1  0  0  0  0
  9 34  1  0  0  0  0
 10 35  1  0  0  0  0
 10 36  1  0  0  0  0
 11 39  1  0  0  0  0
 11 40  1  0  0  0  0
 12 37  1  0  0  0  0
 12 38  1  0  0  0  0
 13 41  1  0  0  0  0
 13 42  1  0  0  0  0
 14 15  2  0  0  0  0
 15 19  1  0  0  0  0
 15 43  1  0  0  0  0
 16 18  1  0  0  0  0
 18 19  2  0  0  0  0
 18 20  1  0  0  0  0
 19 44  1  0  0  0  0
 20 22  2  0  0  0  0
 20 23  1  0  0  0  0
 21 26  2  0  0  0  0
 21 27  1  0  0  0  0
 22 24  1  0  0  0  0
 22 46  1  0  0  0  0
 23 25  2  0  0  0  0
 23 47  1  0  0  0  0
 24 28  2  0  0  0  0
 24 48  1  0  0  0  0
 25 28  1  0  0  0  0
 25 49  1  0  0  0  0
 26 29  1  0  0  0  0
 26 50  1  0  0  0  0
 27 30  2  0  0  0  0
 27 51  1  0  0  0  0
 29 31  2  0  0  0  0
 30 31  1  0  0  0  0
 30 52  1  0  0  0  0
 31 53  1  0  0  0  0
 32 54  1  0  0  0  0
 32 55  1  0  0  0  0
 32 56  1  0  0  0  0
M  END
> <PUBCHEM_COMPOUND_CID>
26742282

> <PUBCHEM_CONFORMER_RMSD>
0.8

> <PUBCHEM_CONFORMER_DIVERSEORDER>
1
48
39
49
13
42
50
47
35
38
23
44
3
41
26
40
8
12
28
34
45
37
32
30
19
43
22
27
52
31
16
29
10
46
18
21
17
15
5
36
20
33
9
51
6
7
11
4
24
25
2
14

> <PUBCHEM_MMFF94_PARTIAL_CHARGES>
41
1 -0.19
11 0.3
12 0.3
13 0.3
14 -0.03
15 -0.15
16 0.62
17 0.69
18 -0.01
19 -0.15
2 -0.57
20 0.03
21 0.12
22 -0.15
23 -0.15
24 -0.15
25 -0.15
26 -0.15
27 -0.15
28 0.08
29 0.19
3 -0.57
30 -0.15
31 -0.15
32 0.28
4 -0.36
43 0.15
44 0.15
45 0.37
46 0.15
47 0.15
48 0.15
49 0.15
5 -0.66
50 0.15
51 0.15
52 0.15
53 0.15
6 -0.47
7 -0.55
9 0.14

> <PUBCHEM_EFFECTIVE_ROTOR_COUNT>
6

> <PUBCHEM_PHARMACOPHORE_FEATURES>
9
1 2 acceptor
1 3 acceptor
1 4 acceptor
1 7 donor
6 20 22 23 24 25 28 rings
6 21 26 27 29 30 31 rings
6 5 8 9 10 11 13 rings
6 6 14 15 16 18 19 rings
6 6 8 9 10 12 14 rings

> <PUBCHEM_HEAVY_ATOM_COUNT>
32

> <PUBCHEM_ATOM_DEF_STEREO_COUNT>
2

> <PUBCHEM_ATOM_UDEF_STEREO_COUNT>
0

> <PUBCHEM_BOND_DEF_STEREO_COUNT>
0

> <PUBCHEM_BOND_UDEF_STEREO_COUNT>
0

> <PUBCHEM_ISOTOPIC_ATOM_COUNT>
0

> <PUBCHEM_COMPONENT_COUNT>
1

> <PUBCHEM_CACTVS_TAUTO_COUNT>
6

> <PUBCHEM_CONFORMER_ID>
01980E0A00000001

> <PUBCHEM_MMFF94_ENERGY>
102.9753

> <PUBCHEM_FEATURE_SELFOVERLAP>
47.241

> <PUBCHEM_SHAPE_FINGERPRINT>
10439779 11 18410005546789092608
10673678 19 18271812341525955315
10675989 125 18342462560016660089
10937287 8 18194400228143401190
11331351 85 17685761437603657874
12107183 9 18047731979349969192
12633257 1 15719947076566908110
12788726 201 17686069297001706714
12925494 130 18407761443952765193
13761468 95 16823099355063107388
13944108 23 18263092028321935580
14150022 121 17468172472646515650
14468879 13 18046916149383035715
15001296 14 18411702059061559777
15082195 135 18340750578237174927
16067690 210 16322840320525915824
17980427 23 18197187374715690754
18681886 176 18341611447790792622
20567600 299 18338237068000129364
21344244 78 17682382664209651002
21591340 35 18411705425772509792
21860390 5 18337395946021323462
22122407 14 18265344919721627345
3298306 158 18265619964520274761
3493558 16 18269843008700306377
376196 1 17984704673851353516
463206 1 17472971809766061916
508180 173 18267606679205333756
508706 21 17403752532629139972
513532 50 18201162031824314318
5776283 40 18266479761639747116
5951187 136 18201449068345531060
60111433 81 18201424866437888104
6201320 215 16393253066655141484
7288768 16 17826506966258206010
9849439 229 18046912855111912941
9981440 41 17975692010854880387

> <PUBCHEM_SHAPE_MULTIPOLES>
618.72
11.31
7.11
1.5
23.72
7.63
-0.11
8.73
-0.56
-9.25
-0.79
-1.32
-0.57
-0.24

> <PUBCHEM_SHAPE_SELFOVERLAP>
1361.403

> <PUBCHEM_SHAPE_VOLUME>
331.7

> <PUBCHEM_COORDINATE_TYPE>
2
5
10

$$$$
