28962241
  -OEChem-12032416283D

 58 60  0     1  0  0  0  0  0999 V2000
   -3.0132   -0.5477    0.6931 O   0  0  0  0  0  0  0  0  0  0  0  0
   -2.8325   -2.6195   -1.4619 O   0  0  0  0  0  0  0  0  0  0  0  0
   -5.8058   -0.8275    0.8592 O   0  0  0  0  0  0  0  0  0  0  0  0
    0.5721    2.1073    0.3590 O   0  0  0  0  0  0  0  0  0  0  0  0
   -0.1964   -2.6667   -0.3346 N   0  0  1  0  0  0  0  0  0  0  0  0
   -1.4812    1.4823   -0.5472 N   0  0  0  0  0  0  0  0  0  0  0  0
    4.2758   -2.3394    0.3253 N   0  0  0  0  0  0  0  0  0  0  0  0
   -1.3526   -2.2328    0.4299 C   0  0  1  0  0  0  0  0  0  0  0  0
   -1.5918   -0.7190    0.4970 C   0  0  1  0  0  0  0  0  0  0  0  0
   -2.6902   -2.7701   -0.0554 C   0  0  1  0  0  0  0  0  0  0  0  0
   -3.6494   -1.8402    0.6781 C   0  0  2  0  0  0  0  0  0  0  0  0
   -1.2051    0.0896   -0.7363 C   0  0  0  0  0  0  0  0  0  0  0  0
   -1.1012    3.7811    0.0529 C   0  0  0  0  0  0  0  0  0  0  0  0
   -0.7640    4.5399   -1.2356 C   0  0  0  0  0  0  0  0  0  0  0  0
   -0.4419    4.5591    1.1928 C   0  0  0  0  0  0  0  0  0  0  0  0
   -5.0314   -1.7109    0.0641 C   0  0  0  0  0  0  0  0  0  0  0  0
    1.0303   -2.0478    0.1776 C   0  0  0  0  0  0  0  0  0  0  0  0
   -0.0063    5.7887   -0.7971 C   0  0  0  0  0  0  0  0  0  0  0  0
    0.6405    5.3883    0.5165 C   0  0  0  0  0  0  0  0  0  0  0  0
   -0.5658    2.3833   -0.0121 C   0  0  0  0  0  0  0  0  0  0  0  0
   -0.0710   -4.1274   -0.3075 C   0  0  0  0  0  0  0  0  0  0  0  0
    2.1560   -2.1275   -0.8541 C   0  0  0  0  0  0  0  0  0  0  0  0
    3.4304   -1.5139   -0.3314 C   0  0  0  0  0  0  0  0  0  0  0  0
    3.6710   -0.1659   -0.5436 C   0  0  0  0  0  0  0  0  0  0  0  0
    4.8558    0.3690   -0.0502 C   0  0  0  0  0  0  0  0  0  0  0  0
    5.4172   -1.7838    0.7905 C   0  0  0  0  0  0  0  0  0  0  0  0
    5.7509   -0.4486    0.6306 C   0  0  0  0  0  0  0  0  0  0  0  0
   -1.2385   -2.5720    1.4725 H   0  0  0  0  0  0  0  0  0  0  0  0
   -1.0939   -0.2981    1.3796 H   0  0  0  0  0  0  0  0  0  0  0  0
   -2.8623   -3.8194    0.2045 H   0  0  0  0  0  0  0  0  0  0  0  0
   -3.7377   -2.1403    1.7302 H   0  0  0  0  0  0  0  0  0  0  0  0
   -1.8069   -0.2146   -1.5991 H   0  0  0  0  0  0  0  0  0  0  0  0
   -0.1558   -0.0055   -1.0184 H   0  0  0  0  0  0  0  0  0  0  0  0
   -2.1851    3.7478    0.2163 H   0  0  0  0  0  0  0  0  0  0  0  0
   -1.6696    4.8115   -1.7887 H   0  0  0  0  0  0  0  0  0  0  0  0
   -0.1406    3.9415   -1.9109 H   0  0  0  0  0  0  0  0  0  0  0  0
   -0.0394    3.9360    1.9974 H   0  0  0  0  0  0  0  0  0  0  0  0
   -1.1806    5.2343    1.6433 H   0  0  0  0  0  0  0  0  0  0  0  0
   -5.5347   -2.6815    0.0204 H   0  0  0  0  0  0  0  0  0  0  0  0
   -4.9830   -1.2777   -0.9400 H   0  0  0  0  0  0  0  0  0  0  0  0
    0.9090   -0.9972    0.4551 H   0  0  0  0  0  0  0  0  0  0  0  0
    1.3422   -2.5394    1.1107 H   0  0  0  0  0  0  0  0  0  0  0  0
   -0.7099    6.6138   -0.6338 H   0  0  0  0  0  0  0  0  0  0  0  0
    0.7263    6.1121   -1.5421 H   0  0  0  0  0  0  0  0  0  0  0  0
    1.5332    4.7792    0.3329 H   0  0  0  0  0  0  0  0  0  0  0  0
    0.9339    6.2548    1.1159 H   0  0  0  0  0  0  0  0  0  0  0  0
   -2.3982    1.8194   -0.8256 H   0  0  0  0  0  0  0  0  0  0  0  0
    0.7757   -4.4790   -0.9037 H   0  0  0  0  0  0  0  0  0  0  0  0
   -0.9447   -4.6104   -0.7573 H   0  0  0  0  0  0  0  0  0  0  0  0
    0.0461   -4.5146    0.7115 H   0  0  0  0  0  0  0  0  0  0  0  0
   -3.6513   -3.0728   -1.7249 H   0  0  0  0  0  0  0  0  0  0  0  0
    1.8592   -1.6260   -1.7843 H   0  0  0  0  0  0  0  0  0  0  0  0
    2.3852   -3.1631   -1.1272 H   0  0  0  0  0  0  0  0  0  0  0  0
   -6.6842   -0.7662    0.4466 H   0  0  0  0  0  0  0  0  0  0  0  0
    2.9651    0.4642   -1.0740 H   0  0  0  0  0  0  0  0  0  0  0  0
    5.0807    1.4214   -0.1953 H   0  0  0  0  0  0  0  0  0  0  0  0
    6.0812   -2.4635    1.3143 H   0  0  0  0  0  0  0  0  0  0  0  0
    6.6803   -0.0531    1.0240 H   0  0  0  0  0  0  0  0  0  0  0  0
  1  9  1  0  0  0  0
  1 11  1  0  0  0  0
  2 10  1  0  0  0  0
  2 51  1  0  0  0  0
  3 16  1  0  0  0  0
  3 54  1  0  0  0  0
  4 20  2  0  0  0  0
  5  8  1  0  0  0  0
  5 17  1  0  0  0  0
  5 21  1  0  0  0  0
  6 12  1  0  0  0  0
  6 20  1  0  0  0  0
  6 47  1  0  0  0  0
  7 23  1  0  0  0  0
  7 26  2  0  0  0  0
  8  9  1  0  0  0  0
  8 10  1  0  0  0  0
  8 28  1  0  0  0  0
  9 12  1  0  0  0  0
  9 29  1  0  0  0  0
 10 11  1  0  0  0  0
 10 30  1  0  0  0  0
 11 16  1  0  0  0  0
 11 31  1  0  0  0  0
 12 32  1  0  0  0  0
 12 33  1  0  0  0  0
 13 14  1  0  0  0  0
 13 15  1  0  0  0  0
 13 20  1  0  0  0  0
 13 34  1  0  0  0  0
 14 18  1  0  0  0  0
 14 35  1  0  0  0  0
 14 36  1  0  0  0  0
 15 19  1  0  0  0  0
 15 37  1  0  0  0  0
 15 38  1  0  0  0  0
 16 39  1  0  0  0  0
 16 40  1  0  0  0  0
 17 22  1  0  0  0  0
 17 41  1  0  0  0  0
 17 42  1  0  0  0  0
 18 19  1  0  0  0  0
 18 43  1  0  0  0  0
 18 44  1  0  0  0  0
 19 45  1  0  0  0  0
 19 46  1  0  0  0  0
 21 48  1  0  0  0  0
 21 49  1  0  0  0  0
 21 50  1  0  0  0  0
 22 23  1  0  0  0  0
 22 52  1  0  0  0  0
 22 53  1  0  0  0  0
 23 24  2  0  0  0  0
 24 25  1  0  0  0  0
 24 55  1  0  0  0  0
 25 27  2  0  0  0  0
 25 56  1  0  0  0  0
 26 27  1  0  0  0  0
 26 57  1  0  0  0  0
 27 58  1  0  0  0  0
M  END
> <PUBCHEM_COMPOUND_CID>
28962241

> <PUBCHEM_CONFORMER_RMSD>
1

> <PUBCHEM_CONFORMER_DIVERSEORDER>
1
84
50
90
49
31
63
42
24
72
54
34
118
81
16
9
88
56
106
23
55
74
48
105
47
37
89
114
115
14
102
113
44
11
61
35
10
77
6
86
19
67
57
40
117
108
107
15
93
70
43
96
45
41
62
111
8
18
92
116
52
109
2
60
103
73
64
17
82
36
5
75
99
104
29
85
53
22
33
13
65
28
25
66
12
3
46
80
39
69
59
51
78
20
95
100
98
101
68
30
32
7
26
83
58
112
79
4
76
27
71
38
97
87
21
110
94
91

> <PUBCHEM_MMFF94_PARTIAL_CHARGES>
30
1 -0.56
10 0.28
11 0.28
12 0.3
13 0.06
16 0.28
17 0.27
2 -0.68
20 0.57
21 0.27
22 0.14
23 0.17
24 -0.15
25 -0.15
26 0.16
27 -0.15
3 -0.68
4 -0.57
47 0.37
5 -0.81
51 0.4
54 0.4
55 0.15
56 0.15
57 0.15
58 0.15
6 -0.73
7 -0.62
8 0.27
9 0.28

> <PUBCHEM_EFFECTIVE_ROTOR_COUNT>
11

> <PUBCHEM_PHARMACOPHORE_FEATURES>
12
1 1 acceptor
1 2 acceptor
1 2 donor
1 3 acceptor
1 3 donor
1 4 acceptor
1 5 cation
1 6 donor
1 7 acceptor
5 1 8 9 10 11 rings
5 13 14 15 18 19 rings
6 7 23 24 25 26 27 rings

> <PUBCHEM_HEAVY_ATOM_COUNT>
27

> <PUBCHEM_ATOM_DEF_STEREO_COUNT>
4

> <PUBCHEM_ATOM_UDEF_STEREO_COUNT>
0

> <PUBCHEM_BOND_DEF_STEREO_COUNT>
0

> <PUBCHEM_BOND_UDEF_STEREO_COUNT>
0

> <PUBCHEM_ISOTOPIC_ATOM_COUNT>
0

> <PUBCHEM_COMPONENT_COUNT>
1

> <PUBCHEM_CACTVS_TAUTO_COUNT>
4

> <PUBCHEM_CONFORMER_ID>
01B9EDC100000001

> <PUBCHEM_MMFF94_ENERGY>
63.2532

> <PUBCHEM_FEATURE_SELFOVERLAP>
60.902

> <PUBCHEM_SHAPE_FINGERPRINT>
10006869 2 18121212083403631667
10670039 82 18338536153265881326
10688039 33 18408325475657267762
10937287 8 17473540253277371460
1100329 8 18267308823012924579
11370993 70 17761768465134941564
12788726 201 18263944197256800270
12977781 61 17029946045512201851
13004483 165 18409444795605712418
13540713 5 17698169792313130239
138480 1 15456212230591942512
14363568 33 17975705192167605336
14394314 77 18338521953370965408
14849402 71 18193571167187032611
14955137 171 18336559308299643187
15439362 3 17977657942642164509
15961568 22 18340774853270823990
167882 2 17834109028624041551
17980427 23 17917445220082613035
20238998 120 18411981356326106441
20771845 165 17540507529738959421
21304253 13 18412267250918623105
21796203 349 17831058871382625464
22113638 7 18197499725742430278
23366157 5 17759523665442397399
23558518 356 17901116217388710466
23559900 14 17910954965456334905
23845131 108 17399520022394247065
24771750 20 17903930190356989607
469060 322 18340221703609891794
474 4 16681187012441326009
5171179 24 18194662969169300997
6004065 56 18340763853770427687
653340 110 18267584598757333570
79837 15 17905329524650716920
9777508 108 17906456528469227160
9981440 41 17833542401930429104

> <PUBCHEM_SHAPE_MULTIPOLES>
517.23
9.48
8.34
1.01
8.64
15.55
-0.08
-9.23
2.29
-4.43
-0.73
-0.2
0.34
0.21

> <PUBCHEM_SHAPE_SELFOVERLAP>
1072.739

> <PUBCHEM_SHAPE_VOLUME>
295.1

> <PUBCHEM_COORDINATE_TYPE>
2
5
10

$$$$
