45783433
  -OEChem-12032416263D

 58 61  0     1  0  0  0  0  0999 V2000
    2.8652    3.1731   -0.6226 S   0  0  0  0  0  0  0  0  0  0  0  0
   -0.9639    0.2651    2.6649 O   0  0  0  0  0  0  0  0  0  0  0  0
    3.2464    3.0088   -2.0187 O   0  0  0  0  0  0  0  0  0  0  0  0
    3.1436    4.4289    0.0595 O   0  0  0  0  0  0  0  0  0  0  0  0
    0.8099   -1.8641   -1.0539 O   0  0  0  0  0  0  0  0  0  0  0  0
   -1.2225   -2.4008   -2.9017 O   0  0  0  0  0  0  0  0  0  0  0  0
   -3.2990    0.5831    0.0582 N   0  0  1  0  0  0  0  0  0  0  0  0
   -0.8568   -1.1783    0.9555 N   0  0  0  0  0  0  0  0  0  0  0  0
    0.3418   -0.2417    2.6644 N   0  0  0  0  0  0  0  0  0  0  0  0
    2.7683   -2.9451   -0.4858 N   0  0  0  0  0  0  0  0  0  0  0  0
   -3.0506    0.0467    1.4113 C   0  0  1  0  0  0  0  0  0  0  0  0
   -4.0096   -1.1513    1.5393 C   0  0  0  0  0  0  0  0  0  0  0  0
   -4.7966   -1.1717    0.2366 C   0  0  0  0  0  0  0  0  0  0  0  0
   -4.6861    0.2524   -0.2693 C   0  0  0  0  0  0  0  0  0  0  0  0
   -3.0358    2.0123   -0.0504 C   0  0  0  0  0  0  0  0  0  0  0  0
   -1.6022   -0.3383    1.6281 C   0  0  0  0  0  0  0  0  0  0  0  0
   -1.5654    2.3023   -0.1937 C   0  0  0  0  0  0  0  0  0  0  0  0
   -0.9204    3.1139    0.7396 C   0  0  0  0  0  0  0  0  0  0  0  0
   -0.8479    1.7591   -1.2595 C   0  0  0  0  0  0  0  0  0  0  0  0
    0.3269   -1.0854    1.6281 C   0  0  0  0  0  0  0  0  0  0  0  0
    0.4419    3.3825    0.6070 C   0  0  0  0  0  0  0  0  0  0  0  0
    0.5144    2.0277   -1.3922 C   0  0  0  0  0  0  0  0  0  0  0  0
    1.1592    2.8394   -0.4590 C   0  0  0  0  0  0  0  0  0  0  0  0
    1.4761   -1.8510    1.2398 C   0  0  0  0  0  0  0  0  0  0  0  0
    1.7004   -2.2249   -0.0754 C   0  0  0  0  0  0  0  0  0  0  0  0
    2.4078   -2.2411    2.1953 C   0  0  0  0  0  0  0  0  0  0  0  0
    3.6605    1.8684    0.2880 C   0  0  0  0  0  0  0  0  0  0  0  0
    3.5197   -2.9828    1.8118 C   0  0  0  0  0  0  0  0  0  0  0  0
    3.6526   -3.3062    0.4710 C   0  0  0  0  0  0  0  0  0  0  0  0
    1.1108   -2.2861   -2.3784 C   0  0  0  0  0  0  0  0  0  0  0  0
    0.0092   -1.8175   -3.3094 C   0  0  0  0  0  0  0  0  0  0  0  0
   -2.2977   -1.9776   -3.7284 C   0  0  0  0  0  0  0  0  0  0  0  0
   -3.3389    0.7786    2.1791 H   0  0  0  0  0  0  0  0  0  0  0  0
   -3.5059   -2.1097    1.7047 H   0  0  0  0  0  0  0  0  0  0  0  0
   -4.6962   -0.9849    2.3785 H   0  0  0  0  0  0  0  0  0  0  0  0
   -5.8341   -1.4855    0.3846 H   0  0  0  0  0  0  0  0  0  0  0  0
   -4.3273   -1.8663   -0.4713 H   0  0  0  0  0  0  0  0  0  0  0  0
   -5.3955    0.9008    0.2606 H   0  0  0  0  0  0  0  0  0  0  0  0
   -4.8814    0.3131   -1.3444 H   0  0  0  0  0  0  0  0  0  0  0  0
   -3.4776    2.5717    0.7847 H   0  0  0  0  0  0  0  0  0  0  0  0
   -3.5130    2.4114   -0.9566 H   0  0  0  0  0  0  0  0  0  0  0  0
   -1.4660    3.5403    1.5771 H   0  0  0  0  0  0  0  0  0  0  0  0
   -1.3383    1.1282   -1.9959 H   0  0  0  0  0  0  0  0  0  0  0  0
    0.9252    4.0100    1.3504 H   0  0  0  0  0  0  0  0  0  0  0  0
    1.0554    1.5885   -2.2256 H   0  0  0  0  0  0  0  0  0  0  0  0
    2.2905   -1.9878    3.2460 H   0  0  0  0  0  0  0  0  0  0  0  0
    3.3986    0.9094   -0.1634 H   0  0  0  0  0  0  0  0  0  0  0  0
    3.3319    1.9097    1.3282 H   0  0  0  0  0  0  0  0  0  0  0  0
    4.7399    2.0244    0.2317 H   0  0  0  0  0  0  0  0  0  0  0  0
    4.2583   -3.2992    2.5393 H   0  0  0  0  0  0  0  0  0  0  0  0
    4.5017   -3.8834    0.1204 H   0  0  0  0  0  0  0  0  0  0  0  0
    1.1604   -3.3816   -2.4103 H   0  0  0  0  0  0  0  0  0  0  0  0
    2.0652   -1.8574   -2.7064 H   0  0  0  0  0  0  0  0  0  0  0  0
    0.2379   -2.1158   -4.3385 H   0  0  0  0  0  0  0  0  0  0  0  0
   -0.0796   -0.7268   -3.2608 H   0  0  0  0  0  0  0  0  0  0  0  0
   -3.2138   -2.4574   -3.3734 H   0  0  0  0  0  0  0  0  0  0  0  0
   -2.1255   -2.2773   -4.7666 H   0  0  0  0  0  0  0  0  0  0  0  0
   -2.4263   -0.8927   -3.6645 H   0  0  0  0  0  0  0  0  0  0  0  0
  1  3  2  0  0  0  0
  1  4  2  0  0  0  0
  1 23  1  0  0  0  0
  1 27  1  0  0  0  0
  2  9  1  0  0  0  0
  2 16  1  0  0  0  0
  5 25  1  0  0  0  0
  5 30  1  0  0  0  0
  6 31  1  0  0  0  0
  6 32  1  0  0  0  0
  7 11  1  0  0  0  0
  7 14  1  0  0  0  0
  7 15  1  0  0  0  0
  8 16  2  0  0  0  0
  8 20  1  0  0  0  0
  9 20  2  0  0  0  0
 10 25  1  0  0  0  0
 10 29  2  0  0  0  0
 11 12  1  0  0  0  0
 11 16  1  0  0  0  0
 11 33  1  0  0  0  0
 12 13  1  0  0  0  0
 12 34  1  0  0  0  0
 12 35  1  0  0  0  0
 13 14  1  0  0  0  0
 13 36  1  0  0  0  0
 13 37  1  0  0  0  0
 14 38  1  0  0  0  0
 14 39  1  0  0  0  0
 15 17  1  0  0  0  0
 15 40  1  0  0  0  0
 15 41  1  0  0  0  0
 17 18  2  0  0  0  0
 17 19  1  0  0  0  0
 18 21  1  0  0  0  0
 18 42  1  0  0  0  0
 19 22  2  0  0  0  0
 19 43  1  0  0  0  0
 20 24  1  0  0  0  0
 21 23  2  0  0  0  0
 21 44  1  0  0  0  0
 22 23  1  0  0  0  0
 22 45  1  0  0  0  0
 24 25  2  0  0  0  0
 24 26  1  0  0  0  0
 26 28  2  0  0  0  0
 26 46  1  0  0  0  0
 27 47  1  0  0  0  0
 27 48  1  0  0  0  0
 27 49  1  0  0  0  0
 28 29  1  0  0  0  0
 28 50  1  0  0  0  0
 29 51  1  0  0  0  0
 30 31  1  0  0  0  0
 30 52  1  0  0  0  0
 30 53  1  0  0  0  0
 31 54  1  0  0  0  0
 31 55  1  0  0  0  0
 32 56  1  0  0  0  0
 32 57  1  0  0  0  0
 32 58  1  0  0  0  0
M  END
> <PUBCHEM_COMPOUND_CID>
45783433

> <PUBCHEM_CONFORMER_RMSD>
1

> <PUBCHEM_CONFORMER_DIVERSEORDER>
1
148
87
51
36
155
29
82
21
94
100
30
35
63
85
44
70
149
55
151
89
62
2
78
150
96
38
76
61
80
6
141
41
109
136
139
60
20
107
153
46
124
134
14
32
144
72
47
131
117
145
129
147
16
95
116
9
42
53
37
99
157
69
3
110
121
105
13
39
156
84
66
54
31
77
152
67
71
97
106
48
40
114
118
108
57
7
28
50
135
45
128
88
8
22
25
133
34
26
101
15
27
130
49
154
43
10
73
126
90
4
11
68
132
146
93
59
64
115
86
142
58
74
12
111
79
65
91
125
5
138
120
137
33
123
103
140
98
23
83
75
119
17
112
143
92
122
19
24
113
127
56
18
52
81
104
102

> <PUBCHEM_MMFF94_PARTIAL_CHARGES>
37
1 1.2
10 -0.62
11 0.45
14 0.27
15 0.41
16 0.3
17 -0.14
18 -0.15
19 -0.15
2 -0.02
20 0.46
21 -0.15
22 -0.15
23 -0.01
24 0.05
25 0.39
26 -0.15
27 0.11
28 -0.15
29 0.16
3 -0.65
30 0.28
31 0.28
32 0.28
4 -0.65
42 0.15
43 0.15
44 0.15
45 0.15
46 0.15
5 -0.36
50 0.15
51 0.15
6 -0.56
7 -0.81
8 -0.57
9 -0.41

> <PUBCHEM_EFFECTIVE_ROTOR_COUNT>
10

> <PUBCHEM_PHARMACOPHORE_FEATURES>
11
1 10 acceptor
1 3 acceptor
1 4 acceptor
1 5 acceptor
1 6 acceptor
1 7 cation
3 8 9 20 cation
5 2 8 9 16 20 rings
5 7 11 12 13 14 rings
6 10 24 25 26 28 29 rings
6 17 18 19 21 22 23 rings

> <PUBCHEM_HEAVY_ATOM_COUNT>
32

> <PUBCHEM_ATOM_DEF_STEREO_COUNT>
1

> <PUBCHEM_ATOM_UDEF_STEREO_COUNT>
0

> <PUBCHEM_BOND_DEF_STEREO_COUNT>
0

> <PUBCHEM_BOND_UDEF_STEREO_COUNT>
0

> <PUBCHEM_ISOTOPIC_ATOM_COUNT>
0

> <PUBCHEM_COMPONENT_COUNT>
1

> <PUBCHEM_CACTVS_TAUTO_COUNT>
1

> <PUBCHEM_CONFORMER_ID>
02BA998900000001

> <PUBCHEM_MMFF94_ENERGY>
63.756

> <PUBCHEM_FEATURE_SELFOVERLAP>
55.894

> <PUBCHEM_SHAPE_FINGERPRINT>
11421498 54 17551501571610873831
11578080 2 16588844794812625135
12156800 1 16628826512216689694
133893 2 18192460560725243256
13615921 28 17898006828743743614
15274700 242 17760631969317154072
15664445 248 18053401915726427587
15876981 60 17754753628057344670
15968369 153 18339631241388409578
20028762 73 17328608605162541027
20600515 1 17540539020022604341
20764821 26 17898872149238357712
20905425 154 18335150782021709489
21133410 230 16884746657271345866
21304303 282 16901840893038662753
21860390 5 18334013865723927034
23419403 2 17386547129257832174
23557571 272 17907580229189628467
3298306 158 18263085568474635988
35225 105 16310208014148603839
469060 322 17909511065997511799
484985 159 17180240527680060060
550186 7 17257082672125185894
59755656 215 18044663237990381257

> <PUBCHEM_SHAPE_MULTIPOLES>
613.12
6.84
5.49
3.16
3.37
4.54
2.44
-2.55
-1.68
-5.99
1.35
0.49
-2.95
-1.79

> <PUBCHEM_SHAPE_SELFOVERLAP>
1297.86

> <PUBCHEM_SHAPE_VOLUME>
347.2

> <PUBCHEM_COORDINATE_TYPE>
2
5
10

$$$$
