11912195
  -OEChem-12032416363D

 60 64  0     1  0  0  0  0  0999 V2000
    3.0423    3.1042   -1.1591 S   0  0  0  0  0  0  0  0  0  0  0  0
   -0.9818    2.4486    1.3012 O   0  0  0  0  0  0  0  0  0  0  0  0
    1.3338    0.5899    2.2753 O   0  0  0  0  0  0  0  0  0  0  0  0
    3.9477    3.8839   -0.3368 O   0  0  0  0  0  0  0  0  0  0  0  0
    2.8892    3.4106   -2.5684 O   0  0  0  0  0  0  0  0  0  0  0  0
    5.7851   -2.7156    1.2850 O   0  0  0  0  0  0  0  0  0  0  0  0
    1.5063    3.0738   -0.4361 N   0  0  0  0  0  0  0  0  0  0  0  0
   -0.9652   -1.2011    1.2441 N   0  0  0  0  0  0  0  0  0  0  0  0
   -3.1291   -0.8914    0.3908 N   0  0  0  0  0  0  0  0  0  0  0  0
   -1.9117   -2.9275   -0.0328 N   0  0  0  0  0  0  0  0  0  0  0  0
    4.6802   -2.5846   -0.7935 N   0  0  0  0  0  0  0  0  0  0  0  0
    0.9961    1.1605    1.0001 C   0  0  1  0  0  0  0  0  0  0  0  0
   -0.5160    1.1530    0.8884 C   0  0  1  0  0  0  0  0  0  0  0  0
    1.3616    2.6247    0.9702 C   0  0  2  0  0  0  0  0  0  0  0  0
   -0.9552    0.0993    1.8776 C   0  0  2  0  0  0  0  0  0  0  0  0
    0.1471    3.2857    1.5922 C   0  0  0  0  0  0  0  0  0  0  0  0
    0.1329    0.1605    2.9336 C   0  0  0  0  0  0  0  0  0  0  0  0
   -2.0337   -1.6877    0.5121 C   0  0  0  0  0  0  0  0  0  0  0  0
    3.5306    1.4086   -1.0504 C   0  0  0  0  0  0  0  0  0  0  0  0
    4.2200    0.9745    0.0685 C   0  0  0  0  0  0  0  0  0  0  0  0
    3.2141    0.5466   -2.0860 C   0  0  0  0  0  0  0  0  0  0  0  0
   -4.1519   -1.3970   -0.3290 C   0  0  0  0  0  0  0  0  0  0  0  0
   -2.9720   -3.3707   -0.7397 C   0  0  0  0  0  0  0  0  0  0  0  0
    4.6053   -0.3633    0.1544 C   0  0  0  0  0  0  0  0  0  0  0  0
    3.5993   -0.7912   -2.0001 C   0  0  0  0  0  0  0  0  0  0  0  0
   -4.1295   -2.6423   -0.9232 C   0  0  0  0  0  0  0  0  0  0  0  0
    4.2949   -1.2462   -0.8798 C   0  0  0  0  0  0  0  0  0  0  0  0
   -5.3038   -0.5352   -0.4462 C   0  0  0  0  0  0  0  0  0  0  0  0
   -6.5805   -1.0860   -0.5792 C   0  0  0  0  0  0  0  0  0  0  0  0
   -5.1464    0.8524   -0.4263 C   0  0  0  0  0  0  0  0  0  0  0  0
    5.3778   -3.2187    0.2431 C   0  0  0  0  0  0  0  0  0  0  0  0
   -7.6939   -0.2534   -0.6922 C   0  0  0  0  0  0  0  0  0  0  0  0
   -6.2599    1.6849   -0.5392 C   0  0  0  0  0  0  0  0  0  0  0  0
   -7.5337    1.1320   -0.6721 C   0  0  0  0  0  0  0  0  0  0  0  0
    5.6003   -4.6820   -0.0465 C   0  0  0  0  0  0  0  0  0  0  0  0
    1.4411    0.5261    0.2350 H   0  0  0  0  0  0  0  0  0  0  0  0
   -0.8652    0.9958   -0.1373 H   0  0  0  0  0  0  0  0  0  0  0  0
    2.2588    2.8759    1.5435 H   0  0  0  0  0  0  0  0  0  0  0  0
   -1.9233    0.3100    2.3465 H   0  0  0  0  0  0  0  0  0  0  0  0
    0.2428    3.3336    2.6825 H   0  0  0  0  0  0  0  0  0  0  0  0
   -0.0465    4.2958    1.2185 H   0  0  0  0  0  0  0  0  0  0  0  0
    0.3178   -0.7928    3.4380 H   0  0  0  0  0  0  0  0  0  0  0  0
   -0.1040    0.9114    3.6956 H   0  0  0  0  0  0  0  0  0  0  0  0
    0.6761    2.9777   -1.0340 H   0  0  0  0  0  0  0  0  0  0  0  0
   -0.1343   -1.7805    1.2831 H   0  0  0  0  0  0  0  0  0  0  0  0
    4.4671    1.6460    0.8850 H   0  0  0  0  0  0  0  0  0  0  0  0
    2.6658    0.8790   -2.9620 H   0  0  0  0  0  0  0  0  0  0  0  0
   -2.8590   -4.3584   -1.1738 H   0  0  0  0  0  0  0  0  0  0  0  0
    5.1391   -0.6412    1.0525 H   0  0  0  0  0  0  0  0  0  0  0  0
    3.3488   -1.4688   -2.8124 H   0  0  0  0  0  0  0  0  0  0  0  0
   -4.9334   -3.0496   -1.5226 H   0  0  0  0  0  0  0  0  0  0  0  0
    4.4169   -3.1643   -1.5878 H   0  0  0  0  0  0  0  0  0  0  0  0
   -6.7543   -2.1588   -0.5740 H   0  0  0  0  0  0  0  0  0  0  0  0
   -4.1670    1.3162   -0.3345 H   0  0  0  0  0  0  0  0  0  0  0  0
   -8.6865   -0.6833   -0.7899 H   0  0  0  0  0  0  0  0  0  0  0  0
   -6.1354    2.7639   -0.5257 H   0  0  0  0  0  0  0  0  0  0  0  0
   -8.4007    1.7803   -0.7591 H   0  0  0  0  0  0  0  0  0  0  0  0
    6.1612   -4.7950   -0.9785 H   0  0  0  0  0  0  0  0  0  0  0  0
    6.1704   -5.1384    0.7675 H   0  0  0  0  0  0  0  0  0  0  0  0
    4.6368   -5.1915   -0.1353 H   0  0  0  0  0  0  0  0  0  0  0  0
  1  4  2  0  0  0  0
  1  5  2  0  0  0  0
  1  7  1  0  0  0  0
  1 19  1  0  0  0  0
  2 13  1  0  0  0  0
  2 16  1  0  0  0  0
  3 12  1  0  0  0  0
  3 17  1  0  0  0  0
  6 31  2  0  0  0  0
  7 14  1  0  0  0  0
  7 44  1  0  0  0  0
  8 15  1  0  0  0  0
  8 18  1  0  0  0  0
  8 45  1  0  0  0  0
  9 18  1  0  0  0  0
  9 22  2  0  0  0  0
 10 18  2  0  0  0  0
 10 23  1  0  0  0  0
 11 27  1  0  0  0  0
 11 31  1  0  0  0  0
 11 52  1  0  0  0  0
 12 13  1  0  0  0  0
 12 14  1  0  0  0  0
 12 36  1  0  0  0  0
 13 15  1  0  0  0  0
 13 37  1  0  0  0  0
 14 16  1  0  0  0  0
 14 38  1  0  0  0  0
 15 17  1  0  0  0  0
 15 39  1  0  0  0  0
 16 40  1  0  0  0  0
 16 41  1  0  0  0  0
 17 42  1  0  0  0  0
 17 43  1  0  0  0  0
 19 20  2  0  0  0  0
 19 21  1  0  0  0  0
 20 24  1  0  0  0  0
 20 46  1  0  0  0  0
 21 25  2  0  0  0  0
 21 47  1  0  0  0  0
 22 26  1  0  0  0  0
 22 28  1  0  0  0  0
 23 26  2  0  0  0  0
 23 48  1  0  0  0  0
 24 27  2  0  0  0  0
 24 49  1  0  0  0  0
 25 27  1  0  0  0  0
 25 50  1  0  0  0  0
 26 51  1  0  0  0  0
 28 29  2  0  0  0  0
 28 30  1  0  0  0  0
 29 32  1  0  0  0  0
 29 53  1  0  0  0  0
 30 33  2  0  0  0  0
 30 54  1  0  0  0  0
 31 35  1  0  0  0  0
 32 34  2  0  0  0  0
 32 55  1  0  0  0  0
 33 34  1  0  0  0  0
 33 56  1  0  0  0  0
 34 57  1  0  0  0  0
 35 58  1  0  0  0  0
 35 59  1  0  0  0  0
 35 60  1  0  0  0  0
M  END
> <PUBCHEM_COMPOUND_CID>
11912195

> <PUBCHEM_CONFORMER_RMSD>
1.2

> <PUBCHEM_CONFORMER_DIVERSEORDER>
1
197
113
133
550
353
16
275
114
351
357
259
196
397
515
503
327
313
303
91
345
445
417
433
563
35
104
365
391
106
41
323
76
50
308
342
386
202
292
47
436
140
248
274
15
447
476
12
31
470
89
102
195
382
240
159
10
129
26
130
109
479
299
349
19
322
545
70
43
217
135
221
532
368
356
96
409
32
280
289
468
279
100
39
321
30
9
561
21
49
4
68
512
149
402
354
360
508
3
45
153
285
364
234
320
404
527
107
501
226
249
112
56
28
276
166
84
256
13
163
36
134
63
136
58
18
261
177
296
448
431
212
103
287
215
51
34
369
189
205
142
123
330
119
117
478
97
42
2
297
78
93
281
38
394
23
198
65
143
148
101
555
74
5
165
99
11
145
316
223
79
201
6
158
7

> <PUBCHEM_MMFF94_PARTIAL_CHARGES>
48
1 1.45
10 -0.62
11 -0.55
12 0.28
13 0.28
14 0.36
15 0.37
16 0.28
17 0.28
18 0.72
19 -0.01
2 -0.56
20 -0.15
21 -0.15
22 0.31
23 0.16
24 -0.15
25 -0.15
26 -0.15
27 0.12
29 -0.15
3 -0.56
30 -0.15
31 0.57
32 -0.15
33 -0.15
34 -0.15
35 0.06
4 -0.65
44 0.42
45 0.4
46 0.15
47 0.15
48 0.15
49 0.15
5 -0.65
50 0.15
51 0.15
52 0.37
53 0.15
54 0.15
55 0.15
56 0.15
57 0.15
6 -0.57
7 -0.91
8 -0.87
9 -0.62

> <PUBCHEM_EFFECTIVE_ROTOR_COUNT>
9.2

> <PUBCHEM_PHARMACOPHORE_FEATURES>
15
1 11 donor
1 2 acceptor
1 3 acceptor
1 4 acceptor
1 5 acceptor
1 6 acceptor
1 7 donor
1 8 donor
1 9 acceptor
4 8 9 10 18 cation
5 2 12 13 14 16 rings
5 3 12 13 15 17 rings
6 19 20 21 24 25 27 rings
6 28 29 30 32 33 34 rings
6 9 10 18 22 23 26 rings

> <PUBCHEM_HEAVY_ATOM_COUNT>
35

> <PUBCHEM_ATOM_DEF_STEREO_COUNT>
4

> <PUBCHEM_ATOM_UDEF_STEREO_COUNT>
0

> <PUBCHEM_BOND_DEF_STEREO_COUNT>
0

> <PUBCHEM_BOND_UDEF_STEREO_COUNT>
0

> <PUBCHEM_ISOTOPIC_ATOM_COUNT>
0

> <PUBCHEM_COMPONENT_COUNT>
1

> <PUBCHEM_CACTVS_TAUTO_COUNT>
6

> <PUBCHEM_CONFORMER_ID>
00B5C40300000001

> <PUBCHEM_MMFF94_ENERGY>
94.7984

> <PUBCHEM_FEATURE_SELFOVERLAP>
76.845

> <PUBCHEM_SHAPE_FINGERPRINT>
10258939 38 14545342910803607536
10483366 6 18268991986531290763
10675989 125 18335702788398642696
10842051 180 9006475184049158059
10904742 90 9294990376784098910
10974685 15 17190376929170029020
11720765 8 18411978070407320400
11828532 37 18265336287048118351
12373685 5 15409744013365154349
13636023 51 17273672404154590746
13782708 43 17345470587027426463
13947947 73 18333726893036662567
14068700 675 18269837515442298978
14289585 56 17313947394816101493
14415361 349 18052844472185039414
15001296 14 17531806995592163629
15183329 4 17917722339830876361
15406563 42 17757844698413347396
15684389 69 8574125243360912653
20715895 44 18335984245952286876
21362857 166 17986367088658143991
21458453 9 10951753210024502591
23559900 14 18130213952751560515
3004659 81 18341618122364389734
3459 83 18410860928117707329
38570 142 17749387109528648257
4066623 53 18411975841403742085
4394409 98 18340487755660450135
4756261 7 10014991267964622761
4918855 1 17168978985673989957
504843 32 14943026237857954523
613672 6 15554175877679775287
6523845 18 15357690898874476043
8988823 20 16415478285238287664
9862260 156 18342453708457547987

> <PUBCHEM_SHAPE_MULTIPOLES>
669.88
17.21
5.16
2
22.25
1.21
0.5
8.66
-6.85
-7.72
-0.64
-1.65
-1.03
-1.67

> <PUBCHEM_SHAPE_SELFOVERLAP>
1449.03

> <PUBCHEM_SHAPE_VOLUME>
367.3

> <PUBCHEM_COORDINATE_TYPE>
2
5
10

$$$$
