25390950
  -OEChem-12032416393D

 47 50  0     1  0  0  0  0  0999 V2000
   -6.7784    1.2294   -1.4782 Cl  0  0  0  0  0  0  0  0  0  0  0  0
    4.2338    2.1083    0.7216 O   0  0  0  0  0  0  0  0  0  0  0  0
    1.0807   -0.6858   -2.3517 O   0  0  0  0  0  0  0  0  0  0  0  0
   -2.6554   -2.0121    1.1672 O   0  0  0  0  0  0  0  0  0  0  0  0
    2.7674   -0.3877   -0.7845 N   0  0  0  0  0  0  0  0  0  0  0  0
    6.6455   -1.5459    0.5890 N   0  0  0  0  0  0  0  0  0  0  0  0
    1.9539    2.1232    0.5529 N   0  0  0  0  0  0  0  0  0  0  0  0
    3.1306   -0.0332    0.5816 C   0  0  1  0  0  0  0  0  0  0  0  0
    5.5300   -0.7905    0.0705 C   0  0  2  0  0  0  0  0  0  0  0  0
    4.4047   -0.7093    1.1013 C   0  0  0  0  0  0  0  0  0  0  0  0
    4.9969   -1.4214   -1.2113 C   0  0  0  0  0  0  0  0  0  0  0  0
    3.8376   -0.6067   -1.7609 C   0  0  0  0  0  0  0  0  0  0  0  0
    3.1789    1.4841    0.6025 C   0  0  0  0  0  0  0  0  0  0  0  0
    1.4520   -0.3015   -1.2420 C   0  0  0  0  0  0  0  0  0  0  0  0
    0.4380    0.3575   -0.3761 C   0  0  0  0  0  0  0  0  0  0  0  0
    0.6828    1.5398    0.3467 C   0  0  0  0  0  0  0  0  0  0  0  0
   -0.8734   -0.1389   -0.4714 C   0  0  0  0  0  0  0  0  0  0  0  0
   -0.4055    2.2332    0.9015 C   0  0  0  0  0  0  0  0  0  0  0  0
   -1.9346    0.5367    0.1293 C   0  0  0  0  0  0  0  0  0  0  0  0
   -1.7027    1.7297    0.8038 C   0  0  0  0  0  0  0  0  0  0  0  0
   -3.2787    0.0111    0.0288 C   0  0  0  0  0  0  0  0  0  0  0  0
   -3.5973   -1.2428    0.5505 C   0  0  0  0  0  0  0  0  0  0  0  0
   -4.2619    0.7755   -0.5993 C   0  0  0  0  0  0  0  0  0  0  0  0
   -4.8993   -1.7321    0.4441 C   0  0  0  0  0  0  0  0  0  0  0  0
   -5.5638    0.2861   -0.7058 C   0  0  0  0  0  0  0  0  0  0  0  0
   -5.8825   -0.9677   -0.1840 C   0  0  0  0  0  0  0  0  0  0  0  0
   -2.4995   -1.8395    2.5738 C   0  0  0  0  0  0  0  0  0  0  0  0
    2.3246   -0.3443    1.2591 H   0  0  0  0  0  0  0  0  0  0  0  0
    4.7565   -0.2023    2.0092 H   0  0  0  0  0  0  0  0  0  0  0  0
    4.1374   -1.7318    1.4053 H   0  0  0  0  0  0  0  0  0  0  0  0
    5.8843    0.2223   -0.1559 H   0  0  0  0  0  0  0  0  0  0  0  0
    4.6602   -2.4484   -1.0168 H   0  0  0  0  0  0  0  0  0  0  0  0
    5.7876   -1.4804   -1.9692 H   0  0  0  0  0  0  0  0  0  0  0  0
    4.1876    0.3853   -2.0723 H   0  0  0  0  0  0  0  0  0  0  0  0
    3.4368   -1.0945   -2.6558 H   0  0  0  0  0  0  0  0  0  0  0  0
    7.0166   -1.0946    1.4239 H   0  0  0  0  0  0  0  0  0  0  0  0
    7.4043   -1.5628   -0.0910 H   0  0  0  0  0  0  0  0  0  0  0  0
    1.9607    3.1120    0.7914 H   0  0  0  0  0  0  0  0  0  0  0  0
   -1.0670   -1.0456   -1.0430 H   0  0  0  0  0  0  0  0  0  0  0  0
   -0.2481    3.1620    1.4465 H   0  0  0  0  0  0  0  0  0  0  0  0
   -2.5148    2.2812    1.2718 H   0  0  0  0  0  0  0  0  0  0  0  0
   -4.0205    1.7523   -1.0148 H   0  0  0  0  0  0  0  0  0  0  0  0
   -5.1548   -2.7084    0.8471 H   0  0  0  0  0  0  0  0  0  0  0  0
   -6.8927   -1.3617   -0.2595 H   0  0  0  0  0  0  0  0  0  0  0  0
   -1.6823   -2.4842    2.9087 H   0  0  0  0  0  0  0  0  0  0  0  0
   -3.4142   -2.1352    3.0973 H   0  0  0  0  0  0  0  0  0  0  0  0
   -2.2477   -0.8030    2.8181 H   0  0  0  0  0  0  0  0  0  0  0  0
  1 25  1  0  0  0  0
  2 13  2  0  0  0  0
  3 14  2  0  0  0  0
  4 22  1  0  0  0  0
  4 27  1  0  0  0  0
  5  8  1  0  0  0  0
  5 12  1  0  0  0  0
  5 14  1  0  0  0  0
  6  9  1  0  0  0  0
  6 36  1  0  0  0  0
  6 37  1  0  0  0  0
  7 13  1  0  0  0  0
  7 16  1  0  0  0  0
  7 38  1  0  0  0  0
  8 10  1  0  0  0  0
  8 13  1  0  0  0  0
  8 28  1  0  0  0  0
  9 10  1  0  0  0  0
  9 11  1  0  0  0  0
  9 31  1  0  0  0  0
 10 29  1  0  0  0  0
 10 30  1  0  0  0  0
 11 12  1  0  0  0  0
 11 32  1  0  0  0  0
 11 33  1  0  0  0  0
 12 34  1  0  0  0  0
 12 35  1  0  0  0  0
 14 15  1  0  0  0  0
 15 16  2  0  0  0  0
 15 17  1  0  0  0  0
 16 18  1  0  0  0  0
 17 19  2  0  0  0  0
 17 39  1  0  0  0  0
 18 20  2  0  0  0  0
 18 40  1  0  0  0  0
 19 20  1  0  0  0  0
 19 21  1  0  0  0  0
 20 41  1  0  0  0  0
 21 22  2  0  0  0  0
 21 23  1  0  0  0  0
 22 24  1  0  0  0  0
 23 25  2  0  0  0  0
 23 42  1  0  0  0  0
 24 26  2  0  0  0  0
 24 43  1  0  0  0  0
 25 26  1  0  0  0  0
 26 44  1  0  0  0  0
 27 45  1  0  0  0  0
 27 46  1  0  0  0  0
 27 47  1  0  0  0  0
M  END
> <PUBCHEM_COMPOUND_CID>
25390950

> <PUBCHEM_CONFORMER_RMSD>
0.6

> <PUBCHEM_CONFORMER_DIVERSEORDER>
1
16
14
3
13
11
6
4
5
12
7
9
15
2
8
10

> <PUBCHEM_MMFF94_PARTIAL_CHARGES>
32
1 -0.18
12 0.3
13 0.57
14 0.54
15 0.09
16 0.12
17 -0.15
18 -0.15
2 -0.57
20 -0.15
22 0.08
23 -0.15
24 -0.15
25 0.18
26 -0.15
27 0.28
3 -0.57
36 0.36
37 0.36
38 0.37
39 0.15
4 -0.36
40 0.15
41 0.15
42 0.15
43 0.15
44 0.15
5 -0.66
6 -0.99
7 -0.55
8 0.36
9 0.27

> <PUBCHEM_EFFECTIVE_ROTOR_COUNT>
3

> <PUBCHEM_PHARMACOPHORE_FEATURES>
10
1 2 acceptor
1 3 acceptor
1 4 acceptor
1 6 cation
1 6 donor
1 7 donor
6 15 16 17 18 19 20 rings
6 21 22 23 24 25 26 rings
6 5 8 9 10 11 12 rings
7 5 7 8 13 14 15 16 rings

> <PUBCHEM_HEAVY_ATOM_COUNT>
27

> <PUBCHEM_ATOM_DEF_STEREO_COUNT>
2

> <PUBCHEM_ATOM_UDEF_STEREO_COUNT>
0

> <PUBCHEM_BOND_DEF_STEREO_COUNT>
0

> <PUBCHEM_BOND_UDEF_STEREO_COUNT>
0

> <PUBCHEM_ISOTOPIC_ATOM_COUNT>
0

> <PUBCHEM_COMPONENT_COUNT>
1

> <PUBCHEM_CACTVS_TAUTO_COUNT>
9

> <PUBCHEM_CONFORMER_ID>
01836F6600000001

> <PUBCHEM_MMFF94_ENERGY>
99.5406

> <PUBCHEM_FEATURE_SELFOVERLAP>
50.771

> <PUBCHEM_SHAPE_FINGERPRINT>
10 15 17988910177601206842
10165383 225 17895751782995410557
10366900 7 18339935839414130058
10670039 82 17603856760226217733
10835480 77 18338507646903896449
11045977 3 18408601487366980090
11315181 36 18410016528482320016
117089 54 17910960137294525702
11796584 16 18040438789008637826
12166972 35 17968100840974922685
12236239 1 15936411135268378277
12363563 72 18270977807330538449
12788726 201 18263076618110756521
13533116 47 18188763938287492714
13544653 18 17988929976466874633
13782708 43 18264491857649348259
14294032 229 17241031100267689573
14341114 328 13686301279149596607
14790565 3 17262431212057950808
14849402 71 14404604555365785730
15183329 4 16370438956444585015
15788980 27 18343017813493168285
1601671 61 9223228538114295590
17349148 13 17418103143324182043
18222031 100 17918281935045321380
19377110 9 14117798011815543367
19489759 90 18335138661913773949
200 152 17203892968408016197
20028762 73 17632292401808601198
20645477 70 18202002148453549652
21033650 10 17241043202225252597
21267235 1 18060423487339034524
21279426 13 18408316684165252225
21315764 119 17458905937852427190
21682296 61 17273991142272686486
22224240 67 16415185776822850878
23559900 14 18334291006672778953
23569917 315 16773795922159554287
239999 70 18411981390832998648
3004659 81 18113613487018128616
3009799 131 18343014459361229869
4015057 19 18201148966797459097
44062 13 18187931737383086683
465052 167 18272370888816040862
5104073 3 18131074830868012816
5265222 85 17822584904981447134
5283173 99 18409444753047007757
559249 180 17894348865533574915
5718773 13 18270114755713644415
59755656 215 18261667074447839039
7226269 152 18334859381823866865
9709674 26 18191307293967018659

> <PUBCHEM_SHAPE_MULTIPOLES>
524.97
15.02
2.15
1.64
2.21
0.36
0.1
-4.36
2.88
0.24
-0.96
-0.09
-0.54
1.96

> <PUBCHEM_SHAPE_SELFOVERLAP>
1143.598

> <PUBCHEM_SHAPE_VOLUME>
284.1

> <PUBCHEM_COORDINATE_TYPE>
2
5
10

$$$$
