51137837
  -OEChem-12032416223D

 45 49  0     1  0  0  0  0  0999 V2000
   -2.2793    2.1446   -0.8789 S   0  0  0  0  0  0  0  0  0  0  0  0
    1.1034   -1.8700    0.1083 O   0  0  0  0  0  0  0  0  0  0  0  0
   -2.2677    0.8593    2.0105 O   0  0  0  0  0  0  0  0  0  0  0  0
   -1.9290   -1.1602    0.9148 N   0  0  0  0  0  0  0  0  0  0  0  0
    1.2239   -3.7332   -1.1239 N   0  0  0  0  0  0  0  0  0  0  0  0
    2.4540   -3.1046   -1.1787 N   0  0  0  0  0  0  0  0  0  0  0  0
    2.5970    2.3068   -1.6087 N   0  0  0  0  0  0  0  0  0  0  0  0
   -0.9806   -3.1664    0.0551 C   0  0  1  0  0  0  0  0  0  0  0  0
   -1.1211   -3.2745    1.5814 C   0  0  0  0  0  0  0  0  0  0  0  0
   -1.9442   -2.0170   -0.2720 C   0  0  0  0  0  0  0  0  0  0  0  0
   -1.2902   -1.8312    2.0363 C   0  0  0  0  0  0  0  0  0  0  0  0
    0.4677   -2.9779   -0.3623 C   0  0  0  0  0  0  0  0  0  0  0  0
   -2.3672    0.1514    1.0102 C   0  0  0  0  0  0  0  0  0  0  0  0
    2.3373   -2.0220   -0.4458 C   0  0  0  0  0  0  0  0  0  0  0  0
    3.3666   -0.9451   -0.1370 C   0  0  0  0  0  0  0  0  0  0  0  0
   -2.9869    0.7494   -0.1825 C   0  0  0  0  0  0  0  0  0  0  0  0
    2.9378    0.4261   -0.4802 C   0  0  0  0  0  0  0  0  0  0  0  0
    2.2490    1.3362    0.3696 C   0  0  0  0  0  0  0  0  0  0  0  0
    2.0475    2.5082   -0.3626 C   0  0  0  0  0  0  0  0  0  0  0  0
    3.1373    1.0515   -1.6894 C   0  0  0  0  0  0  0  0  0  0  0  0
   -4.1104    0.3426   -0.8681 C   0  0  0  0  0  0  0  0  0  0  0  0
    1.7762    1.2751    1.6956 C   0  0  0  0  0  0  0  0  0  0  0  0
    1.3942    3.6267    0.1670 C   0  0  0  0  0  0  0  0  0  0  0  0
   -4.3938    1.1874   -1.9799 C   0  0  0  0  0  0  0  0  0  0  0  0
   -3.4763    2.2077   -2.1016 C   0  0  0  0  0  0  0  0  0  0  0  0
    1.1208    2.3863    2.2385 C   0  0  0  0  0  0  0  0  0  0  0  0
    0.9339    3.5430    1.4842 C   0  0  0  0  0  0  0  0  0  0  0  0
   -1.3274   -4.0893   -0.4256 H   0  0  0  0  0  0  0  0  0  0  0  0
   -2.0325   -3.8372    1.8205 H   0  0  0  0  0  0  0  0  0  0  0  0
   -0.2798   -3.7694    2.0764 H   0  0  0  0  0  0  0  0  0  0  0  0
   -1.6586   -1.4547   -1.1659 H   0  0  0  0  0  0  0  0  0  0  0  0
   -2.9671   -2.3917   -0.3883 H   0  0  0  0  0  0  0  0  0  0  0  0
   -0.3303   -1.3412    2.2292 H   0  0  0  0  0  0  0  0  0  0  0  0
   -1.9084   -1.7404    2.9348 H   0  0  0  0  0  0  0  0  0  0  0  0
    3.6159   -1.0128    0.9290 H   0  0  0  0  0  0  0  0  0  0  0  0
    4.2880   -1.1927   -0.6794 H   0  0  0  0  0  0  0  0  0  0  0  0
    3.6144    0.7177   -2.6004 H   0  0  0  0  0  0  0  0  0  0  0  0
   -4.7089   -0.5150   -0.5881 H   0  0  0  0  0  0  0  0  0  0  0  0
    2.6002    2.9877   -2.3555 H   0  0  0  0  0  0  0  0  0  0  0  0
    1.9111    0.3808    2.2970 H   0  0  0  0  0  0  0  0  0  0  0  0
    1.2472    4.5272   -0.4198 H   0  0  0  0  0  0  0  0  0  0  0  0
   -5.2289    1.0543   -2.6552 H   0  0  0  0  0  0  0  0  0  0  0  0
    0.7521    2.3440    3.2599 H   0  0  0  0  0  0  0  0  0  0  0  0
   -3.4518    2.9872   -2.8499 H   0  0  0  0  0  0  0  0  0  0  0  0
    0.4209    4.3937    1.9254 H   0  0  0  0  0  0  0  0  0  0  0  0
  1 16  1  0  0  0  0
  1 25  1  0  0  0  0
  2 12  1  0  0  0  0
  2 14  1  0  0  0  0
  3 13  2  0  0  0  0
  4 10  1  0  0  0  0
  4 11  1  0  0  0  0
  4 13  1  0  0  0  0
  5  6  1  0  0  0  0
  5 12  2  0  0  0  0
  6 14  2  0  0  0  0
  7 19  1  0  0  0  0
  7 20  1  0  0  0  0
  7 39  1  0  0  0  0
  8  9  1  0  0  0  0
  8 10  1  0  0  0  0
  8 12  1  0  0  0  0
  8 28  1  0  0  0  0
  9 11  1  0  0  0  0
  9 29  1  0  0  0  0
  9 30  1  0  0  0  0
 10 31  1  0  0  0  0
 10 32  1  0  0  0  0
 11 33  1  0  0  0  0
 11 34  1  0  0  0  0
 13 16  1  0  0  0  0
 14 15  1  0  0  0  0
 15 17  1  0  0  0  0
 15 35  1  0  0  0  0
 15 36  1  0  0  0  0
 16 21  2  0  0  0  0
 17 18  1  0  0  0  0
 17 20  2  0  0  0  0
 18 19  1  0  0  0  0
 18 22  2  0  0  0  0
 19 23  2  0  0  0  0
 20 37  1  0  0  0  0
 21 24  1  0  0  0  0
 21 38  1  0  0  0  0
 22 26  1  0  0  0  0
 22 40  1  0  0  0  0
 23 27  1  0  0  0  0
 23 41  1  0  0  0  0
 24 25  2  0  0  0  0
 24 42  1  0  0  0  0
 25 44  1  0  0  0  0
 26 27  2  0  0  0  0
 26 43  1  0  0  0  0
 27 45  1  0  0  0  0
M  END
> <PUBCHEM_COMPOUND_CID>
51137837

> <PUBCHEM_CONFORMER_RMSD>
1.4

> <PUBCHEM_CONFORMER_DIVERSEORDER>
1
33
14
67
10
61
70
50
72
43
64
68
35
22
28
65
60
77
55
73
47
78
48
51
76
74
36
5
49
42
58
21
69
18
15
27
12
62
7
11
24
30
56
2
29
23
40
66
8
16
39
53
19
71
46
52
37
59
63
45
75
38
3
4
54
41
32
6
31
9
13
20
26
44
34
25
57
17

> <PUBCHEM_MMFF94_PARTIAL_CHARGES>
34
1 -0.08
10 0.3
11 0.3
12 0.3
13 0.71
14 0.3
15 0.36
16 -0.05
17 -0.18
19 -0.15
2 -0.28
20 -0.3
21 -0.15
22 -0.15
23 -0.15
24 -0.15
25 -0.11
26 -0.15
27 -0.15
3 -0.57
37 0.15
38 0.15
39 0.27
4 -0.66
40 0.15
41 0.15
42 0.15
43 0.15
44 0.15
45 0.15
5 -0.34
6 -0.34
7 0.03
8 0.18

> <PUBCHEM_EFFECTIVE_ROTOR_COUNT>
6

> <PUBCHEM_PHARMACOPHORE_FEATURES>
8
1 3 acceptor
1 7 cation
1 7 donor
5 1 16 21 24 25 rings
5 2 5 6 12 14 rings
5 4 8 9 10 11 rings
5 7 17 18 19 20 rings
6 18 19 22 23 26 27 rings

> <PUBCHEM_HEAVY_ATOM_COUNT>
27

> <PUBCHEM_ATOM_DEF_STEREO_COUNT>
1

> <PUBCHEM_ATOM_UDEF_STEREO_COUNT>
0

> <PUBCHEM_BOND_DEF_STEREO_COUNT>
0

> <PUBCHEM_BOND_UDEF_STEREO_COUNT>
0

> <PUBCHEM_ISOTOPIC_ATOM_COUNT>
0

> <PUBCHEM_COMPONENT_COUNT>
1

> <PUBCHEM_CACTVS_TAUTO_COUNT>
1

> <PUBCHEM_CONFORMER_ID>
030C4D2D00000001

> <PUBCHEM_MMFF94_ENERGY>
44.24

> <PUBCHEM_FEATURE_SELFOVERLAP>
40.69

> <PUBCHEM_SHAPE_FINGERPRINT>
10165383 225 18050036520412209897
10256941 240 17262962224444629153
10498660 4 17116354516469787990
10675989 125 18121213178014267460
11370993 70 18261386745657807893
11513181 2 17340977681235555542
12156800 1 15185359077023146986
12539773 59 17057265253959079505
128993 33 17979372063583316808
13122387 1 18267313023216061820
13773456 30 18051952990828801037
14114206 34 17843715272421432964
14114207 22 17176253328569977914
14202776 33 17180510998787859368
15210252 30 17538288336826322452
15297060 5 15246268958875159328
17093844 170 17974555902217333428
17921350 177 16661747904729096652
19930381 70 18411133607117316981
20764821 26 18197495331916955145
23536364 44 17981083857638840190
238 59 18411691097845350245
3187 122 17394451737804650779
3380486 77 17608084278649029746
35225 105 18123465248394107093
3524813 1 17970354711052508839
3797600 57 15292957431363036354
463206 1 18270950246662550405
469060 322 16391271746779912802
513532 50 17475745976830034173
54672768 99 18187643574582912828
6287921 2 16253093916787473568

> <PUBCHEM_SHAPE_MULTIPOLES>
527.83
6.33
5.38
2.12
3.6
2.24
0.53
-3.13
-3.31
-1.51
-0.04
0.46
-0.8
2.33

> <PUBCHEM_SHAPE_SELFOVERLAP>
1157.167

> <PUBCHEM_SHAPE_VOLUME>
289.2

> <PUBCHEM_COORDINATE_TYPE>
2
5
10

$$$$
