26742460
  -OEChem-12032416223D

 66 70  0     1  0  0  0  0  0999 V2000
   -3.0544   -1.4434    1.2767 O   0  0  0  0  0  0  0  0  0  0  0  0
    7.3308    2.2203    0.7993 O   0  0  0  0  0  0  0  0  0  0  0  0
   -7.7696   -1.3358    1.1930 O   0  0  0  0  0  0  0  0  0  0  0  0
   -7.5341    2.9653   -0.8634 O   0  0  0  0  0  0  0  0  0  0  0  0
    1.1867   -2.8760    0.3619 N   0  0  2  0  0  0  0  0  0  0  0  0
   -1.3040   -0.0738    0.6348 N   0  0  0  0  0  0  0  0  0  0  0  0
    3.4889    0.5112   -1.6500 N   0  0  0  0  0  0  0  0  0  0  0  0
    5.2914    1.8294   -0.7439 N   0  0  0  0  0  0  0  0  0  0  0  0
   -3.4694    0.6403    0.2785 N   0  0  0  0  0  0  0  0  0  0  0  0
    1.8762   -1.8431   -1.9274 C   0  0  2  0  0  0  0  0  0  0  0  0
    3.0626   -1.7860   -0.9256 C   0  0  2  0  0  0  0  0  0  0  0  0
    0.1698   -1.8833   -0.0747 C   0  0  2  0  0  0  0  0  0  0  0  0
    0.6599   -1.1130   -1.3197 C   0  0  0  0  0  0  0  0  0  0  0  0
    1.4869   -3.3300   -2.0721 C   0  0  0  0  0  0  0  0  0  0  0  0
    2.5186   -2.2287    0.4627 C   0  0  0  0  0  0  0  0  0  0  0  0
    1.2635   -3.9335   -0.6744 C   0  0  0  0  0  0  0  0  0  0  0  0
   -0.2439   -0.9375    1.0547 C   0  0  0  0  0  0  0  0  0  0  0  0
    3.8737   -0.5007   -0.8448 C   0  0  0  0  0  0  0  0  0  0  0  0
    4.9420   -0.4244    0.0254 C   0  0  0  0  0  0  0  0  0  0  0  0
    5.6210    0.7770    0.0334 C   0  0  0  0  0  0  0  0  0  0  0  0
    4.2310    1.6305   -1.5499 C   0  0  0  0  0  0  0  0  0  0  0  0
   -2.6671   -0.3901    0.7764 C   0  0  0  0  0  0  0  0  0  0  0  0
    6.7553    0.9926    0.8917 C   0  0  0  0  0  0  0  0  0  0  0  0
    3.8354    2.7726   -2.4235 C   0  0  0  0  0  0  0  0  0  0  0  0
    7.4160    0.2177    1.8165 C   0  0  0  0  0  0  0  0  0  0  0  0
   -4.8820    0.6994    0.2404 C   0  0  0  0  0  0  0  0  0  0  0  0
    8.4646    1.0209    2.3250 C   0  0  0  0  0  0  0  0  0  0  0  0
    8.3700    2.2294    1.6746 C   0  0  0  0  0  0  0  0  0  0  0  0
   -5.5192    1.8168   -0.2992 C   0  0  0  0  0  0  0  0  0  0  0  0
   -5.6383   -0.3601    0.7417 C   0  0  0  0  0  0  0  0  0  0  0  0
   -7.0315   -0.3022    0.7035 C   0  0  0  0  0  0  0  0  0  0  0  0
   -6.9123    1.8747   -0.3373 C   0  0  0  0  0  0  0  0  0  0  0  0
   -7.6684    0.8153    0.1641 C   0  0  0  0  0  0  0  0  0  0  0  0
   -9.1891   -1.2102    1.1223 C   0  0  0  0  0  0  0  0  0  0  0  0
   -8.9610    2.9583   -0.8708 C   0  0  0  0  0  0  0  0  0  0  0  0
    2.1406   -1.4207   -2.9025 H   0  0  0  0  0  0  0  0  0  0  0  0
    3.7860   -2.5458   -1.2601 H   0  0  0  0  0  0  0  0  0  0  0  0
   -0.7366   -2.4394   -0.3572 H   0  0  0  0  0  0  0  0  0  0  0  0
    0.9306   -0.0795   -1.0767 H   0  0  0  0  0  0  0  0  0  0  0  0
   -0.1482   -1.0660   -2.0603 H   0  0  0  0  0  0  0  0  0  0  0  0
    2.2760   -3.8833   -2.5946 H   0  0  0  0  0  0  0  0  0  0  0  0
    0.5742   -3.4196   -2.6738 H   0  0  0  0  0  0  0  0  0  0  0  0
    3.2232   -2.9395    0.9152 H   0  0  0  0  0  0  0  0  0  0  0  0
    2.4724   -1.3917    1.1690 H   0  0  0  0  0  0  0  0  0  0  0  0
    0.3435   -4.5310   -0.6693 H   0  0  0  0  0  0  0  0  0  0  0  0
    2.0708   -4.6356   -0.4298 H   0  0  0  0  0  0  0  0  0  0  0  0
    0.5806   -0.2911    1.3713 H   0  0  0  0  0  0  0  0  0  0  0  0
   -0.5742   -1.5107    1.9287 H   0  0  0  0  0  0  0  0  0  0  0  0
   -1.0588    0.8139    0.2071 H   0  0  0  0  0  0  0  0  0  0  0  0
    5.2251   -1.2614    0.6518 H   0  0  0  0  0  0  0  0  0  0  0  0
    4.3687    2.7101   -3.3767 H   0  0  0  0  0  0  0  0  0  0  0  0
    2.7591    2.7556   -2.6217 H   0  0  0  0  0  0  0  0  0  0  0  0
    4.0775    3.7279   -1.9476 H   0  0  0  0  0  0  0  0  0  0  0  0
   -2.9867    1.4490   -0.1049 H   0  0  0  0  0  0  0  0  0  0  0  0
    7.1826   -0.7993    2.0989 H   0  0  0  0  0  0  0  0  0  0  0  0
    9.1976    0.7527    3.0719 H   0  0  0  0  0  0  0  0  0  0  0  0
    8.9354    3.1487    1.7192 H   0  0  0  0  0  0  0  0  0  0  0  0
   -4.9362    2.6466   -0.6919 H   0  0  0  0  0  0  0  0  0  0  0  0
   -5.2122   -1.2550    1.1733 H   0  0  0  0  0  0  0  0  0  0  0  0
   -8.7468    0.8602    0.1346 H   0  0  0  0  0  0  0  0  0  0  0  0
   -9.6137   -2.1221    1.5556 H   0  0  0  0  0  0  0  0  0  0  0  0
   -9.5397   -1.1606    0.0857 H   0  0  0  0  0  0  0  0  0  0  0  0
   -9.5520   -0.3738    1.7295 H   0  0  0  0  0  0  0  0  0  0  0  0
   -9.2839    3.9013   -1.3243 H   0  0  0  0  0  0  0  0  0  0  0  0
   -9.3707    2.9401    0.1450 H   0  0  0  0  0  0  0  0  0  0  0  0
   -9.3584    2.1537   -1.4990 H   0  0  0  0  0  0  0  0  0  0  0  0
  1 22  2  0  0  0  0
  2 23  1  0  0  0  0
  2 28  1  0  0  0  0
  3 31  1  0  0  0  0
  3 34  1  0  0  0  0
  4 32  1  0  0  0  0
  4 35  1  0  0  0  0
  5 12  1  0  0  0  0
  5 15  1  0  0  0  0
  5 16  1  0  0  0  0
  6 17  1  0  0  0  0
  6 22  1  0  0  0  0
  6 49  1  0  0  0  0
  7 18  2  0  0  0  0
  7 21  1  0  0  0  0
  8 20  1  0  0  0  0
  8 21  2  0  0  0  0
  9 22  1  0  0  0  0
  9 26  1  0  0  0  0
  9 54  1  0  0  0  0
 10 11  1  0  0  0  0
 10 13  1  0  0  0  0
 10 14  1  0  0  0  0
 10 36  1  0  0  0  0
 11 15  1  0  0  0  0
 11 18  1  0  0  0  0
 11 37  1  0  0  0  0
 12 13  1  0  0  0  0
 12 17  1  0  0  0  0
 12 38  1  0  0  0  0
 13 39  1  0  0  0  0
 13 40  1  0  0  0  0
 14 16  1  0  0  0  0
 14 41  1  0  0  0  0
 14 42  1  0  0  0  0
 15 43  1  0  0  0  0
 15 44  1  0  0  0  0
 16 45  1  0  0  0  0
 16 46  1  0  0  0  0
 17 47  1  0  0  0  0
 17 48  1  0  0  0  0
 18 19  1  0  0  0  0
 19 20  2  0  0  0  0
 19 50  1  0  0  0  0
 20 23  1  0  0  0  0
 21 24  1  0  0  0  0
 23 25  2  0  0  0  0
 24 51  1  0  0  0  0
 24 52  1  0  0  0  0
 24 53  1  0  0  0  0
 25 27  1  0  0  0  0
 25 55  1  0  0  0  0
 26 29  2  0  0  0  0
 26 30  1  0  0  0  0
 27 28  2  0  0  0  0
 27 56  1  0  0  0  0
 28 57  1  0  0  0  0
 29 32  1  0  0  0  0
 29 58  1  0  0  0  0
 30 31  2  0  0  0  0
 30 59  1  0  0  0  0
 31 33  1  0  0  0  0
 32 33  2  0  0  0  0
 33 60  1  0  0  0  0
 34 61  1  0  0  0  0
 34 62  1  0  0  0  0
 34 63  1  0  0  0  0
 35 64  1  0  0  0  0
 35 65  1  0  0  0  0
 35 66  1  0  0  0  0
M  END
> <PUBCHEM_COMPOUND_CID>
26742460

> <PUBCHEM_CONFORMER_RMSD>
1.2

> <PUBCHEM_CONFORMER_DIVERSEORDER>
1
92
16
56
118
129
116
38
42
13
76
119
78
98
84
54
97
49
74
87
79
24
100
120
67
123
125
80
88
81
11
70
69
75
62
124
14
66
128
55
93
58
127
95
27
96
103
21
64
121
15
35
34
91
105
36
19
108
71
23
117
102
114
30
10
44
111
106
61
101
113
39
59
68
52
99
83
109
50
85
46
31
43
112
126
3
17
51
60
115
40
122
29
65
45
73
110
33
4
77
41
104
89
130
82
6
94
37
7
8
12
48
86
26
47
72
53
32
57
20
5
9
63
2
28
25
90
18
107
22

> <PUBCHEM_MMFF94_PARTIAL_CHARGES>
41
1 -0.57
11 0.14
12 0.27
15 0.27
16 0.27
17 0.3
18 0.17
19 -0.15
2 -0.28
20 0.36
21 0.48
22 0.69
23 0.09
24 0.14
25 -0.15
26 0.12
27 -0.15
28 -0.01
29 -0.15
3 -0.36
30 -0.15
31 0.08
32 0.08
33 -0.15
34 0.28
35 0.28
4 -0.36
49 0.37
5 -0.81
50 0.15
54 0.37
55 0.15
56 0.15
57 0.15
58 0.15
59 0.15
6 -0.73
60 0.15
7 -0.62
8 -0.62
9 -0.55

> <PUBCHEM_EFFECTIVE_ROTOR_COUNT>
10.2

> <PUBCHEM_PHARMACOPHORE_FEATURES>
13
1 1 acceptor
1 2 acceptor
1 3 acceptor
1 4 acceptor
1 5 cation
1 6 donor
1 7 acceptor
1 9 donor
3 7 8 21 cation
5 2 23 25 27 28 rings
6 26 29 30 31 32 33 rings
6 7 8 18 19 20 21 rings
8 5 10 11 12 13 14 15 16 rings

> <PUBCHEM_HEAVY_ATOM_COUNT>
35

> <PUBCHEM_ATOM_DEF_STEREO_COUNT>
3

> <PUBCHEM_ATOM_UDEF_STEREO_COUNT>
0

> <PUBCHEM_BOND_DEF_STEREO_COUNT>
0

> <PUBCHEM_BOND_UDEF_STEREO_COUNT>
0

> <PUBCHEM_ISOTOPIC_ATOM_COUNT>
0

> <PUBCHEM_COMPONENT_COUNT>
1

> <PUBCHEM_CACTVS_TAUTO_COUNT>
3

> <PUBCHEM_CONFORMER_ID>
01980EBC00000001

> <PUBCHEM_MMFF94_ENERGY>
106.5935

> <PUBCHEM_FEATURE_SELFOVERLAP>
66.022

> <PUBCHEM_SHAPE_FINGERPRINT>
10673678 19 18413393120185902407
10835480 77 18337111160400008029
11146851 88 18336269032871626176
11476731 50 17845086458997195183
11828532 37 16516263953784316305
12592606 108 11314030188533153753
12758862 56 8142086433517108767
13150687 139 17275112730417271406
13673619 4 9511460017756195402
13782708 43 9655282697885664737
14294032 229 17987511679534748814
14347424 109 15864074312627130708
14461889 52 18261683635900235699
15289351 153 18130224853473087810
15320295 40 16371000837098505357
15350500 185 17846210082011434920
15419008 145 17458614589110315972
15840311 113 18343018879452451978
19304144 158 18411415082204797397
20554085 129 18060132159528310946
20715895 44 18261118456341316020
21304303 282 17916294121424232974
22149856 69 18128558015199039747
23522609 53 15553626014629394923
25269216 80 16414898860322913613
2851757 15 18413107256169437754
335507 130 18409451419125784375
4112364 45 18114178696520278648
44249763 50 18342182210737787255
44880168 125 13045940248413895320
4874694 18 18335135363911608311
5109719 28 18262818344673803497
5372103 7 18131064957307982424
5470011 282 10519985989777951240
6058803 2 15838765572847395954

> <PUBCHEM_SHAPE_MULTIPOLES>
671.9
29.82
3.74
1.93
33.4
1.33
-0.38
-25.81
13.04
-0.62
-1.69
-3.31
-0.33
3.8

> <PUBCHEM_SHAPE_SELFOVERLAP>
1455.774

> <PUBCHEM_SHAPE_VOLUME>
363.1

> <PUBCHEM_COORDINATE_TYPE>
2
5
10

$$$$
