45784226
  -OEChem-12032416273D

 49 52  0     1  0  0  0  0  0999 V2000
   -7.3445   -0.1485    0.2924 S   0  0  0  0  0  0  0  0  0  0  0  0
   -7.9591    1.1599    0.4701 O   0  0  0  0  0  0  0  0  0  0  0  0
   -7.9276   -1.0997   -0.6432 O   0  0  0  0  0  0  0  0  0  0  0  0
   -0.6531   -0.1697   -0.3227 N   0  0  1  0  0  0  0  0  0  0  0  0
    3.9639   -1.3464    0.1855 N   0  0  0  0  0  0  0  0  0  0  0  0
    3.4340    0.8115    0.1387 N   0  0  0  0  0  0  0  0  0  0  0  0
    1.5120   -0.8213    0.2995 C   0  0  1  0  0  0  0  0  0  0  0  0
    0.7649   -0.2770    1.5295 C   0  0  0  0  0  0  0  0  0  0  0  0
    0.6805   -0.3488   -0.9007 C   0  0  0  0  0  0  0  0  0  0  0  0
   -0.4217    0.4910    0.9618 C   0  0  0  0  0  0  0  0  0  0  0  0
    2.9644   -0.4140    0.2070 C   0  0  0  0  0  0  0  0  0  0  0  0
   -1.5355    0.5975   -1.1894 C   0  0  0  0  0  0  0  0  0  0  0  0
   -2.9835    0.4121   -0.8209 C   0  0  0  0  0  0  0  0  0  0  0  0
    5.1581   -0.6782    0.0971 C   0  0  0  0  0  0  0  0  0  0  0  0
    4.8006    0.6670    0.0695 C   0  0  0  0  0  0  0  0  0  0  0  0
   -3.6484   -0.7620   -1.1746 C   0  0  0  0  0  0  0  0  0  0  0  0
   -3.6600    1.4142   -0.1254 C   0  0  0  0  0  0  0  0  0  0  0  0
    6.4798   -1.1213    0.0408 C   0  0  0  0  0  0  0  0  0  0  0  0
    5.8087    1.6418   -0.0192 C   0  0  0  0  0  0  0  0  0  0  0  0
    7.4703   -0.1376   -0.0474 C   0  0  0  0  0  0  0  0  0  0  0  0
   -4.9898   -0.9338   -0.8332 C   0  0  0  0  0  0  0  0  0  0  0  0
   -5.0014    1.2425    0.2160 C   0  0  0  0  0  0  0  0  0  0  0  0
   -5.6663    0.0685   -0.1379 C   0  0  0  0  0  0  0  0  0  0  0  0
    7.1429    1.2200   -0.0769 C   0  0  0  0  0  0  0  0  0  0  0  0
    8.9049   -0.5488   -0.1113 C   0  0  0  0  0  0  0  0  0  0  0  0
   -7.2942   -0.9186    1.8948 C   0  0  0  0  0  0  0  0  0  0  0  0
    1.4605   -1.9190    0.3446 H   0  0  0  0  0  0  0  0  0  0  0  0
    0.4123   -1.1164    2.1419 H   0  0  0  0  0  0  0  0  0  0  0  0
    1.3847    0.3619    2.1674 H   0  0  0  0  0  0  0  0  0  0  0  0
    0.6788   -1.0962   -1.7016 H   0  0  0  0  0  0  0  0  0  0  0  0
    1.0688    0.5931   -1.3107 H   0  0  0  0  0  0  0  0  0  0  0  0
   -1.2858    0.4276    1.6306 H   0  0  0  0  0  0  0  0  0  0  0  0
   -0.1505    1.5473    0.8371 H   0  0  0  0  0  0  0  0  0  0  0  0
   -1.2690    1.6629   -1.2125 H   0  0  0  0  0  0  0  0  0  0  0  0
   -1.4277    0.2535   -2.2280 H   0  0  0  0  0  0  0  0  0  0  0  0
    3.8476   -2.3503    0.2269 H   0  0  0  0  0  0  0  0  0  0  0  0
   -3.1316   -1.5508   -1.7149 H   0  0  0  0  0  0  0  0  0  0  0  0
   -3.1526    2.3323    0.1589 H   0  0  0  0  0  0  0  0  0  0  0  0
    6.7201   -2.1787    0.0664 H   0  0  0  0  0  0  0  0  0  0  0  0
    5.5644    2.6990   -0.0424 H   0  0  0  0  0  0  0  0  0  0  0  0
   -5.4853   -1.8594   -1.1123 H   0  0  0  0  0  0  0  0  0  0  0  0
   -5.5071    2.0326    0.7640 H   0  0  0  0  0  0  0  0  0  0  0  0
    7.9264    1.9715   -0.1438 H   0  0  0  0  0  0  0  0  0  0  0  0
    9.4797    0.1299   -0.7506 H   0  0  0  0  0  0  0  0  0  0  0  0
    9.0126   -1.5538   -0.5333 H   0  0  0  0  0  0  0  0  0  0  0  0
    9.3417   -0.5431    0.8923 H   0  0  0  0  0  0  0  0  0  0  0  0
   -6.7855   -0.2520    2.5938 H   0  0  0  0  0  0  0  0  0  0  0  0
   -6.7683   -1.8718    1.8142 H   0  0  0  0  0  0  0  0  0  0  0  0
   -8.3224   -1.0874    2.2221 H   0  0  0  0  0  0  0  0  0  0  0  0
  1  2  2  0  0  0  0
  1  3  2  0  0  0  0
  1 23  1  0  0  0  0
  1 26  1  0  0  0  0
  4  9  1  0  0  0  0
  4 10  1  0  0  0  0
  4 12  1  0  0  0  0
  5 11  1  0  0  0  0
  5 14  1  0  0  0  0
  5 36  1  0  0  0  0
  6 11  2  0  0  0  0
  6 15  1  0  0  0  0
  7  8  1  0  0  0  0
  7  9  1  0  0  0  0
  7 11  1  0  0  0  0
  7 27  1  0  0  0  0
  8 10  1  0  0  0  0
  8 28  1  0  0  0  0
  8 29  1  0  0  0  0
  9 30  1  0  0  0  0
  9 31  1  0  0  0  0
 10 32  1  0  0  0  0
 10 33  1  0  0  0  0
 12 13  1  0  0  0  0
 12 34  1  0  0  0  0
 12 35  1  0  0  0  0
 13 16  2  0  0  0  0
 13 17  1  0  0  0  0
 14 15  2  0  0  0  0
 14 18  1  0  0  0  0
 15 19  1  0  0  0  0
 16 21  1  0  0  0  0
 16 37  1  0  0  0  0
 17 22  2  0  0  0  0
 17 38  1  0  0  0  0
 18 20  2  0  0  0  0
 18 39  1  0  0  0  0
 19 24  2  0  0  0  0
 19 40  1  0  0  0  0
 20 24  1  0  0  0  0
 20 25  1  0  0  0  0
 21 23  2  0  0  0  0
 21 41  1  0  0  0  0
 22 23  1  0  0  0  0
 22 42  1  0  0  0  0
 24 43  1  0  0  0  0
 25 44  1  0  0  0  0
 25 45  1  0  0  0  0
 25 46  1  0  0  0  0
 26 47  1  0  0  0  0
 26 48  1  0  0  0  0
 26 49  1  0  0  0  0
M  END
> <PUBCHEM_COMPOUND_CID>
45784226

> <PUBCHEM_CONFORMER_RMSD>
0.8

> <PUBCHEM_CONFORMER_DIVERSEORDER>
1
72
29
100
92
53
87
11
90
58
50
23
77
65
98
80
94
38
4
59
64
12
71
95
49
35
51
74
73
96
85
61
26
78
104
69
67
39
18
52
88
81
15
2
60
76
79
17
30
70
97
46
63
21
42
93
99
6
22
83
54
82
66
5
84
13
102
55
7
41
25
19
20
62
8
14
33
27
43
16
28
56
31
3
75
32
89
40
45
103
68
57
36
34
44
105
10
9
47
48
24
101
91
86
37

> <PUBCHEM_MMFF94_PARTIAL_CHARGES>
33
1 1.2
10 0.27
11 0.01
12 0.41
13 -0.14
14 -0.15
15 0.23
16 -0.15
17 -0.15
18 -0.15
19 -0.15
2 -0.65
20 -0.14
21 -0.15
22 -0.15
23 -0.01
24 -0.15
25 0.14
26 0.11
3 -0.65
36 0.27
37 0.15
38 0.15
39 0.15
4 -0.81
40 0.15
41 0.15
42 0.15
43 0.15
5 0.03
6 -0.57
7 0.18
9 0.27

> <PUBCHEM_EFFECTIVE_ROTOR_COUNT>
5

> <PUBCHEM_PHARMACOPHORE_FEATURES>
9
1 2 acceptor
1 3 acceptor
1 4 cation
1 5 donor
3 5 6 11 cation
5 4 7 8 9 10 rings
5 5 6 11 14 15 rings
6 13 16 17 21 22 23 rings
6 14 15 18 19 20 24 rings

> <PUBCHEM_HEAVY_ATOM_COUNT>
26

> <PUBCHEM_ATOM_DEF_STEREO_COUNT>
1

> <PUBCHEM_ATOM_UDEF_STEREO_COUNT>
0

> <PUBCHEM_BOND_DEF_STEREO_COUNT>
0

> <PUBCHEM_BOND_UDEF_STEREO_COUNT>
0

> <PUBCHEM_ISOTOPIC_ATOM_COUNT>
0

> <PUBCHEM_COMPONENT_COUNT>
1

> <PUBCHEM_CACTVS_TAUTO_COUNT>
2

> <PUBCHEM_CONFORMER_ID>
02BA9CA200000001

> <PUBCHEM_MMFF94_ENERGY>
49.2897

> <PUBCHEM_FEATURE_SELFOVERLAP>
45.796

> <PUBCHEM_SHAPE_FINGERPRINT>
10 15 18343586231409397119
10299344 5 18201999936745878247
10319688 140 12966590607604577668
10595046 47 18411416176946606576
106641 1 18334580161952601083
10670039 82 10159707872296671911
10951579 204 13757261564767125064
11135609 127 12391210744303804786
11315181 36 10665231436841120927
11638347 137 16371000785754044120
12089408 11 17917991689676716324
12104220 1 18040440975901170817
12166972 35 18335138700854121748
12236239 1 18131628981255915364
12516196 113 16515401863299819797
12730499 353 18186237312850139482
13533116 47 17241315881989104178
13885169 127 10231762179982595739
14123256 10 17240482502760003131
14251764 18 17846777421189239383
14251764 46 17530965778384779427
14849402 71 18336832012521040828
14856354 85 17632577180337023285
14933364 13 18413106156325403004
15142383 8 13470689244103287786
15183329 4 16630527332097929881
15419008 47 16153419562813845908
15461852 350 14779551201190379003
15716309 27 18410854356722597431
17093844 174 12967125025973290191
18006028 8 10303814285110452026
18335252 98 18334861605910206930
19489759 90 11386365924547526045
21095086 128 18411697690351442495
21150785 3 14490192713012644262
21267235 1 18410575084721406676
21315763 28 18411417293843974708
21521721 280 18334858341745273898
21792961 116 17346599621268123876
22224240 67 16805322201782061058
23035841 295 17988923375149373071
23516275 137 17987256468162331247
23536379 177 18343298154867537900
23569943 247 17098607969601649802
249057 3 18413387661630453654
2747138 104 17603308167314712085
28498 318 11383838160400740960
335352 9 15123503718288334817
34797466 226 18272655653817010332
4073 2 18260831544152780362
4325135 7 18410009939997278285
4339292 15 11023807493961937381
5283156 175 17131836448322876510
5758199 1 18040716961028442682
59682541 35 17240486939509030520
5969126 39 13984654863612405847
59755656 520 17967525792631813426
6009941 240 11383827186247889613
9953998 17 18186526493325044865

> <PUBCHEM_SHAPE_MULTIPOLES>
512.24
27.61
1.33
1.11
2.17
0.22
0.2
-1.47
2.27
0.25
0.05
-1.66
-0.19
0.05

> <PUBCHEM_SHAPE_SELFOVERLAP>
1100.185

> <PUBCHEM_SHAPE_VOLUME>
286.7

> <PUBCHEM_COORDINATE_TYPE>
2
5
10

$$$$
