45361027
  -OEChem-12032416143D

 66 70  0     1  0  0  0  0  0999 V2000
   -9.3351    1.1872    0.5402 S   0  0  0  0  0  0  0  0  0  0  0  0
    1.5019   -1.9907   -0.4514 O   0  0  0  0  0  0  0  0  0  0  0  0
   -5.1745   -0.6092   -2.1318 O   0  0  0  0  0  0  0  0  0  0  0  0
    2.7832    0.2752    0.2673 N   0  0  1  0  0  0  0  0  0  0  0  0
   -0.5912    1.2520   -0.7570 N   0  0  1  0  0  0  0  0  0  0  0  0
   -0.5141   -1.3728    0.4377 N   0  0  0  0  0  0  0  0  0  0  0  0
    5.6651   -1.0347    0.0320 N   0  0  0  0  0  0  0  0  0  0  0  0
    5.9874    0.7370    1.3349 N   0  0  0  0  0  0  0  0  0  0  0  0
   -6.5491   -0.1595   -0.3161 N   0  0  0  0  0  0  0  0  0  0  0  0
    0.6718    1.4400   -0.0095 C   0  0  1  0  0  0  0  0  0  0  0  0
    1.3537    0.1898    0.6202 C   0  0  1  0  0  0  0  0  0  0  0  0
    1.8138    2.0377   -0.8522 C   0  0  0  0  0  0  0  0  0  0  0  0
    3.0580    1.6666   -0.0733 C   0  0  0  0  0  0  0  0  0  0  0  0
   -1.7275    0.7546    0.0679 C   0  0  2  0  0  0  0  0  0  0  0  0
    0.8159   -1.1531    0.1329 C   0  0  0  0  0  0  0  0  0  0  0  0
   -1.3689   -0.3763    1.0517 C   0  0  0  0  0  0  0  0  0  0  0  0
    3.6673   -0.2175    1.3159 C   0  0  0  0  0  0  0  0  0  0  0  0
   -2.8661    0.2388   -0.8370 C   0  0  0  0  0  0  0  0  0  0  0  0
   -0.9736    2.4892   -1.4587 C   0  0  0  0  0  0  0  0  0  0  0  0
    5.1116   -0.1471    0.9123 C   0  0  0  0  0  0  0  0  0  0  0  0
   -4.1967    0.2943   -0.1096 C   0  0  0  0  0  0  0  0  0  0  0  0
   -5.3328   -0.2103   -0.9812 C   0  0  0  0  0  0  0  0  0  0  0  0
    6.9861   -0.7012   -0.1238 C   0  0  0  0  0  0  0  0  0  0  0  0
    7.1626    0.4075    0.6995 C   0  0  0  0  0  0  0  0  0  0  0  0
    4.9834   -2.1302   -0.6199 C   0  0  0  0  0  0  0  0  0  0  0  0
    8.0104   -1.2572   -0.8909 C   0  0  0  0  0  0  0  0  0  0  0  0
    8.4298    1.0101    0.7744 C   0  0  0  0  0  0  0  0  0  0  0  0
   -7.7833   -0.5844   -0.9330 C   0  0  0  0  0  0  0  0  0  0  0  0
    9.2650   -0.6447   -0.8043 C   0  0  0  0  0  0  0  0  0  0  0  0
    9.4732    0.4688    0.0129 C   0  0  0  0  0  0  0  0  0  0  0  0
   -8.9626   -0.3857   -0.0252 C   0  0  0  0  0  0  0  0  0  0  0  0
   -9.8449   -1.3293    0.4530 C   0  0  0  0  0  0  0  0  0  0  0  0
  -10.8399   -0.7534    1.2947 C   0  0  0  0  0  0  0  0  0  0  0  0
  -10.6801    0.6084    1.4276 C   0  0  0  0  0  0  0  0  0  0  0  0
    0.4842    2.1515    0.8098 H   0  0  0  0  0  0  0  0  0  0  0  0
    1.2330    0.2340    1.7107 H   0  0  0  0  0  0  0  0  0  0  0  0
    1.8462    1.5835   -1.8517 H   0  0  0  0  0  0  0  0  0  0  0  0
    1.7261    3.1231   -0.9666 H   0  0  0  0  0  0  0  0  0  0  0  0
    3.1514    2.3035    0.8157 H   0  0  0  0  0  0  0  0  0  0  0  0
    3.9518    1.7839   -0.6942 H   0  0  0  0  0  0  0  0  0  0  0  0
   -2.1046    1.5925    0.6713 H   0  0  0  0  0  0  0  0  0  0  0  0
   -2.2482   -0.9058    1.4281 H   0  0  0  0  0  0  0  0  0  0  0  0
   -0.8672    0.0327    1.9346 H   0  0  0  0  0  0  0  0  0  0  0  0
    3.5388    0.3652    2.2383 H   0  0  0  0  0  0  0  0  0  0  0  0
    3.4160   -1.2527    1.5758 H   0  0  0  0  0  0  0  0  0  0  0  0
   -2.6564   -0.7855   -1.1730 H   0  0  0  0  0  0  0  0  0  0  0  0
   -2.9765    0.8145   -1.7590 H   0  0  0  0  0  0  0  0  0  0  0  0
   -0.9283   -2.2579    0.1616 H   0  0  0  0  0  0  0  0  0  0  0  0
   -1.8948    2.4057   -2.0378 H   0  0  0  0  0  0  0  0  0  0  0  0
   -0.2183    2.7728   -2.1988 H   0  0  0  0  0  0  0  0  0  0  0  0
   -1.0984    3.3229   -0.7577 H   0  0  0  0  0  0  0  0  0  0  0  0
   -4.1890   -0.3122    0.8014 H   0  0  0  0  0  0  0  0  0  0  0  0
   -4.4274    1.3277    0.1770 H   0  0  0  0  0  0  0  0  0  0  0  0
    4.4476   -2.7138    0.1322 H   0  0  0  0  0  0  0  0  0  0  0  0
    4.2922   -1.7143   -1.3567 H   0  0  0  0  0  0  0  0  0  0  0  0
    5.7029   -2.7814   -1.1197 H   0  0  0  0  0  0  0  0  0  0  0  0
   -6.5737    0.1825    0.6409 H   0  0  0  0  0  0  0  0  0  0  0  0
    7.8576   -2.1197   -1.5290 H   0  0  0  0  0  0  0  0  0  0  0  0
    8.6016    1.8756    1.4063 H   0  0  0  0  0  0  0  0  0  0  0  0
   -7.6752   -1.6417   -1.2010 H   0  0  0  0  0  0  0  0  0  0  0  0
   -7.9163   -0.0238   -1.8658 H   0  0  0  0  0  0  0  0  0  0  0  0
   10.0934   -1.0433   -1.3849 H   0  0  0  0  0  0  0  0  0  0  0  0
   10.4596    0.9231    0.0592 H   0  0  0  0  0  0  0  0  0  0  0  0
   -9.7835   -2.3833    0.2136 H   0  0  0  0  0  0  0  0  0  0  0  0
  -11.6324   -1.3096    1.7781 H   0  0  0  0  0  0  0  0  0  0  0  0
  -11.2890    1.2910    2.0035 H   0  0  0  0  0  0  0  0  0  0  0  0
  1 31  1  0  0  0  0
  1 34  1  0  0  0  0
  2 15  2  0  0  0  0
  3 22  2  0  0  0  0
  4 11  1  0  0  0  0
  4 13  1  0  0  0  0
  4 17  1  0  0  0  0
  5 10  1  0  0  0  0
  5 14  1  0  0  0  0
  5 19  1  0  0  0  0
  6 15  1  0  0  0  0
  6 16  1  0  0  0  0
  6 48  1  0  0  0  0
  7 20  1  0  0  0  0
  7 23  1  0  0  0  0
  7 25  1  0  0  0  0
  8 20  2  0  0  0  0
  8 24  1  0  0  0  0
  9 22  1  0  0  0  0
  9 28  1  0  0  0  0
  9 57  1  0  0  0  0
 10 11  1  0  0  0  0
 10 12  1  0  0  0  0
 10 35  1  0  0  0  0
 11 15  1  0  0  0  0
 11 36  1  0  0  0  0
 12 13  1  0  0  0  0
 12 37  1  0  0  0  0
 12 38  1  0  0  0  0
 13 39  1  0  0  0  0
 13 40  1  0  0  0  0
 14 16  1  0  0  0  0
 14 18  1  0  0  0  0
 14 41  1  0  0  0  0
 16 42  1  0  0  0  0
 16 43  1  0  0  0  0
 17 20  1  0  0  0  0
 17 44  1  0  0  0  0
 17 45  1  0  0  0  0
 18 21  1  0  0  0  0
 18 46  1  0  0  0  0
 18 47  1  0  0  0  0
 19 49  1  0  0  0  0
 19 50  1  0  0  0  0
 19 51  1  0  0  0  0
 21 22  1  0  0  0  0
 21 52  1  0  0  0  0
 21 53  1  0  0  0  0
 23 24  1  0  0  0  0
 23 26  2  0  0  0  0
 24 27  2  0  0  0  0
 25 54  1  0  0  0  0
 25 55  1  0  0  0  0
 25 56  1  0  0  0  0
 26 29  1  0  0  0  0
 26 58  1  0  0  0  0
 27 30  1  0  0  0  0
 27 59  1  0  0  0  0
 28 31  1  0  0  0  0
 28 60  1  0  0  0  0
 28 61  1  0  0  0  0
 29 30  2  0  0  0  0
 29 62  1  0  0  0  0
 30 63  1  0  0  0  0
 31 32  2  0  0  0  0
 32 33  1  0  0  0  0
 32 64  1  0  0  0  0
 33 34  2  0  0  0  0
 33 65  1  0  0  0  0
 34 66  1  0  0  0  0
M  END
> <PUBCHEM_COMPOUND_CID>
45361027

> <PUBCHEM_CONFORMER_RMSD>
1.4

> <PUBCHEM_CONFORMER_DIVERSEORDER>
3
104
102
100
89
105
116
33
41
31
19
113
7
126
62
88
97
75
128
130
44
124
42
120
60
115
79
38
80
109
112
81
98
125
71
72
92
101
82
36
51
47
63
34
118
111
76
70
6
86
119
74
5
117
54
107
108
28
24
61
8
73
14
37
127
52
32
21
91
77
123
67
93
49
39
53
10
43
69
46
64
13
25
56
94
121
1
35
110
87
23
40
57
99
27
50
103
26
68
17
2
29
106
95
59
122
20
114
45
78
48
16
22
85
96
18
12
66
129
83
11
90
65
15
55
30
9
84
4
58

> <PUBCHEM_MMFF94_PARTIAL_CHARGES>
41
1 -0.08
10 0.27
11 0.33
13 0.27
14 0.27
15 0.57
16 0.3
17 0.45
19 0.27
2 -0.57
20 0.01
21 0.06
22 0.57
23 -0.15
24 0.23
25 0.26
26 -0.15
27 -0.15
28 0.48
29 -0.15
3 -0.57
30 -0.15
31 -0.14
32 -0.15
33 -0.15
34 -0.11
4 -0.81
48 0.37
5 -0.81
57 0.37
58 0.15
59 0.15
6 -0.73
62 0.15
63 0.15
64 0.15
65 0.15
66 0.15
7 0.05
8 -0.57
9 -0.73

> <PUBCHEM_EFFECTIVE_ROTOR_COUNT>
9.4

> <PUBCHEM_PHARMACOPHORE_FEATURES>
12
1 2 acceptor
1 3 acceptor
1 4 cation
1 5 cation
1 6 donor
1 9 donor
3 7 8 20 cation
5 1 31 32 33 34 rings
5 4 10 11 12 13 rings
5 7 8 20 23 24 rings
6 23 24 26 27 29 30 rings
7 5 6 10 11 14 15 16 rings

> <PUBCHEM_HEAVY_ATOM_COUNT>
34

> <PUBCHEM_ATOM_DEF_STEREO_COUNT>
3

> <PUBCHEM_ATOM_UDEF_STEREO_COUNT>
0

> <PUBCHEM_BOND_DEF_STEREO_COUNT>
0

> <PUBCHEM_BOND_UDEF_STEREO_COUNT>
0

> <PUBCHEM_ISOTOPIC_ATOM_COUNT>
0

> <PUBCHEM_COMPONENT_COUNT>
1

> <PUBCHEM_CACTVS_TAUTO_COUNT>
6

> <PUBCHEM_CONFORMER_ID>
02B4278300000003

> <PUBCHEM_MMFF94_ENERGY>
73.2112

> <PUBCHEM_FEATURE_SELFOVERLAP>
61.043

> <PUBCHEM_SHAPE_FINGERPRINT>
10076449 9 17312821576739866605
10162869 55 13406795523369008942
10299344 5 17346876759055671222
11135609 127 13840278009144011774
11409948 35 16343432700609297974
11443803 9 8430315727659711469
12089408 11 17132109178282013853
12522641 33 17203611475655760671
12559415 90 8358266921187797911
13617811 41 18114185220775912532
14251764 46 18411138039460145931
14344974 52 14418140646687232396
15247644 1 16081367445022536411
15840311 113 17894633695285913292
15849732 13 18410570704587695822
16067689 302 18339080393582839526
16728433 110 17167582717802990509
17686467 74 14345796055056736799
1818759 1 18334576845852882523
18335252 98 18334853897008192054
19315958 150 17131839750804821695
20105231 36 18334010584110976067
21150785 3 14490188302402841653
21267235 1 18260546728023575821
21403212 168 11095882674466037797
21585481 151 18336267925371353091
21792965 184 18337402547930025837
232437 2 18408041805641227291
249057 3 18040714801182248883
3092352 35 14923940150719000608
335352 9 18113616806737801815
395649 100 11169922693419588433
4461854 278 18343021112371846343
4874694 18 12179845000534420576
54039377 194 18113900464438932165
636775 8 14345800466526355961
9663363 56 18114179749077260768

> <PUBCHEM_SHAPE_MULTIPOLES>
661.93
38.99
1.77
1.29
55.32
0.33
0.1
-7.24
-7.82
-0.82
0.47
0.98
0.07
0.81

> <PUBCHEM_SHAPE_SELFOVERLAP>
1406.146

> <PUBCHEM_SHAPE_VOLUME>
371.6

> <PUBCHEM_COORDINATE_TYPE>
2
5
10

$$$$
