11866400
  -OEChem-12032416363D

 56 59  0     1  0  0  0  0  0999 V2000
    8.0791   -2.5050    0.0600 S   0  0  0  0  0  0  0  0  0  0  0  0
    2.6316    2.8946    0.3130 O   0  0  0  0  0  0  0  0  0  0  0  0
   -0.3124   -0.5738   -2.2370 O   0  0  0  0  0  0  0  0  0  0  0  0
    6.9212    0.5669   -0.7570 O   0  0  0  0  0  0  0  0  0  0  0  0
   -8.3685   -1.8168    0.2305 O   0  0  0  0  0  0  0  0  0  0  0  0
    1.3729    0.0910   -0.7850 N   0  0  0  0  0  0  0  0  0  0  0  0
    5.3714   -0.5107    0.5998 N   0  0  0  0  0  0  0  0  0  0  0  0
    0.3573    2.6812    0.2218 N   0  0  0  0  0  0  0  0  0  0  0  0
    1.7308    0.6644    0.5062 C   0  0  1  0  0  0  0  0  0  0  0  0
    4.1789    0.0612    0.0212 C   0  0  2  0  0  0  0  0  0  0  0  0
    3.0738    0.1848    1.0695 C   0  0  0  0  0  0  0  0  0  0  0  0
    3.6792   -0.7885   -1.1424 C   0  0  0  0  0  0  0  0  0  0  0  0
    2.4373   -0.1659   -1.7583 C   0  0  0  0  0  0  0  0  0  0  0  0
    1.6375    2.1678    0.3168 C   0  0  0  0  0  0  0  0  0  0  0  0
    0.0455   -0.0063   -1.2040 C   0  0  0  0  0  0  0  0  0  0  0  0
   -1.0066    0.6740   -0.4025 C   0  0  0  0  0  0  0  0  0  0  0  0
   -0.8579    1.9633    0.1418 C   0  0  0  0  0  0  0  0  0  0  0  0
    6.6509   -0.2078    0.1592 C   0  0  0  0  0  0  0  0  0  0  0  0
   -2.2676    0.0537   -0.3832 C   0  0  0  0  0  0  0  0  0  0  0  0
   -1.9939    2.6273    0.6329 C   0  0  0  0  0  0  0  0  0  0  0  0
   -3.3740    0.7092    0.1548 C   0  0  0  0  0  0  0  0  0  0  0  0
   -3.2402    2.0011    0.6502 C   0  0  0  0  0  0  0  0  0  0  0  0
    7.7277   -0.9503    0.9150 C   0  0  0  0  0  0  0  0  0  0  0  0
   -4.6652    0.0564    0.1733 C   0  0  0  0  0  0  0  0  0  0  0  0
   -5.8316    0.8145    0.0723 C   0  0  0  0  0  0  0  0  0  0  0  0
   -4.7431   -1.3311    0.2931 C   0  0  0  0  0  0  0  0  0  0  0  0
   -7.0762    0.1849    0.0912 C   0  0  0  0  0  0  0  0  0  0  0  0
   -5.9877   -1.9606    0.3119 C   0  0  0  0  0  0  0  0  0  0  0  0
    9.3597   -3.1385    1.1686 C   0  0  0  0  0  0  0  0  0  0  0  0
   -7.1542   -1.2026    0.2110 C   0  0  0  0  0  0  0  0  0  0  0  0
   -8.3754   -3.2383    0.3553 C   0  0  0  0  0  0  0  0  0  0  0  0
    0.9727    0.3801    1.2475 H   0  0  0  0  0  0  0  0  0  0  0  0
    4.4376    1.0587   -0.3544 H   0  0  0  0  0  0  0  0  0  0  0  0
    3.4024    0.8392    1.8871 H   0  0  0  0  0  0  0  0  0  0  0  0
    2.9144   -0.8041    1.5228 H   0  0  0  0  0  0  0  0  0  0  0  0
    3.4506   -1.8043   -0.7942 H   0  0  0  0  0  0  0  0  0  0  0  0
    4.4582   -0.8871   -1.9080 H   0  0  0  0  0  0  0  0  0  0  0  0
    2.6865    0.7999   -2.2151 H   0  0  0  0  0  0  0  0  0  0  0  0
    2.0645   -0.8084   -2.5632 H   0  0  0  0  0  0  0  0  0  0  0  0
    5.2570   -1.2196    1.3187 H   0  0  0  0  0  0  0  0  0  0  0  0
    0.2768    3.6902    0.3217 H   0  0  0  0  0  0  0  0  0  0  0  0
   -2.3700   -0.9284   -0.8405 H   0  0  0  0  0  0  0  0  0  0  0  0
   -1.9107    3.6318    1.0435 H   0  0  0  0  0  0  0  0  0  0  0  0
   -4.0681    2.5491    1.0914 H   0  0  0  0  0  0  0  0  0  0  0  0
    7.4052   -1.1478    1.9422 H   0  0  0  0  0  0  0  0  0  0  0  0
    8.6246   -0.3238    0.9475 H   0  0  0  0  0  0  0  0  0  0  0  0
   -5.8196    1.8936   -0.0532 H   0  0  0  0  0  0  0  0  0  0  0  0
   -3.8621   -1.9574    0.4053 H   0  0  0  0  0  0  0  0  0  0  0  0
   -7.9817    0.7795    0.0058 H   0  0  0  0  0  0  0  0  0  0  0  0
   -5.9766   -3.0404    0.4143 H   0  0  0  0  0  0  0  0  0  0  0  0
    9.7089   -4.1066    0.7996 H   0  0  0  0  0  0  0  0  0  0  0  0
    8.9578   -3.2750    2.1759 H   0  0  0  0  0  0  0  0  0  0  0  0
   10.2094   -2.4516    1.2006 H   0  0  0  0  0  0  0  0  0  0  0  0
   -7.8912   -3.7199   -0.5011 H   0  0  0  0  0  0  0  0  0  0  0  0
   -9.4227   -3.5579    0.3517 H   0  0  0  0  0  0  0  0  0  0  0  0
   -7.9463   -3.5603    1.3102 H   0  0  0  0  0  0  0  0  0  0  0  0
  1 23  1  0  0  0  0
  1 29  1  0  0  0  0
  2 14  2  0  0  0  0
  3 15  2  0  0  0  0
  4 18  2  0  0  0  0
  5 30  1  0  0  0  0
  5 31  1  0  0  0  0
  6  9  1  0  0  0  0
  6 13  1  0  0  0  0
  6 15  1  0  0  0  0
  7 10  1  0  0  0  0
  7 18  1  0  0  0  0
  7 40  1  0  0  0  0
  8 14  1  0  0  0  0
  8 17  1  0  0  0  0
  8 41  1  0  0  0  0
  9 11  1  0  0  0  0
  9 14  1  0  0  0  0
  9 32  1  0  0  0  0
 10 11  1  0  0  0  0
 10 12  1  0  0  0  0
 10 33  1  0  0  0  0
 11 34  1  0  0  0  0
 11 35  1  0  0  0  0
 12 13  1  0  0  0  0
 12 36  1  0  0  0  0
 12 37  1  0  0  0  0
 13 38  1  0  0  0  0
 13 39  1  0  0  0  0
 15 16  1  0  0  0  0
 16 17  2  0  0  0  0
 16 19  1  0  0  0  0
 17 20  1  0  0  0  0
 18 23  1  0  0  0  0
 19 21  2  0  0  0  0
 19 42  1  0  0  0  0
 20 22  2  0  0  0  0
 20 43  1  0  0  0  0
 21 22  1  0  0  0  0
 21 24  1  0  0  0  0
 22 44  1  0  0  0  0
 23 45  1  0  0  0  0
 23 46  1  0  0  0  0
 24 25  2  0  0  0  0
 24 26  1  0  0  0  0
 25 27  1  0  0  0  0
 25 47  1  0  0  0  0
 26 28  2  0  0  0  0
 26 48  1  0  0  0  0
 27 30  2  0  0  0  0
 27 49  1  0  0  0  0
 28 30  1  0  0  0  0
 28 50  1  0  0  0  0
 29 51  1  0  0  0  0
 29 52  1  0  0  0  0
 29 53  1  0  0  0  0
 31 54  1  0  0  0  0
 31 55  1  0  0  0  0
 31 56  1  0  0  0  0
M  END
> <PUBCHEM_COMPOUND_CID>
11866400

> <PUBCHEM_CONFORMER_RMSD>
1

> <PUBCHEM_CONFORMER_DIVERSEORDER>
1
4
3
6
8
9
2
5
7

> <PUBCHEM_MMFF94_PARTIAL_CHARGES>
36
1 -0.46
10 0.3
13 0.3
14 0.57
15 0.54
16 0.09
17 0.12
18 0.57
19 -0.15
2 -0.57
20 -0.15
22 -0.15
23 0.29
25 -0.15
26 -0.15
27 -0.15
28 -0.15
29 0.23
3 -0.57
30 0.08
31 0.28
4 -0.57
40 0.37
41 0.37
42 0.15
43 0.15
44 0.15
47 0.15
48 0.15
49 0.15
5 -0.36
50 0.15
6 -0.66
7 -0.73
8 -0.55
9 0.36

> <PUBCHEM_EFFECTIVE_ROTOR_COUNT>
7

> <PUBCHEM_PHARMACOPHORE_FEATURES>
11
1 2 acceptor
1 29 hydrophobe
1 3 acceptor
1 4 acceptor
1 5 acceptor
1 7 donor
1 8 donor
6 16 17 19 20 21 22 rings
6 24 25 26 27 28 30 rings
6 6 9 10 11 12 13 rings
7 6 8 9 14 15 16 17 rings

> <PUBCHEM_HEAVY_ATOM_COUNT>
31

> <PUBCHEM_ATOM_DEF_STEREO_COUNT>
2

> <PUBCHEM_ATOM_UDEF_STEREO_COUNT>
0

> <PUBCHEM_BOND_DEF_STEREO_COUNT>
0

> <PUBCHEM_BOND_UDEF_STEREO_COUNT>
0

> <PUBCHEM_ISOTOPIC_ATOM_COUNT>
0

> <PUBCHEM_COMPONENT_COUNT>
1

> <PUBCHEM_CACTVS_TAUTO_COUNT>
6

> <PUBCHEM_CONFORMER_ID>
00B5112000000001

> <PUBCHEM_MMFF94_ENERGY>
113.4427

> <PUBCHEM_FEATURE_SELFOVERLAP>
55.847

> <PUBCHEM_SHAPE_FINGERPRINT>
10 15 17847055589415535506
10190206 1 12468633898311727471
10369192 42 9943809976251745977
10411042 1 18410292514518025225
106641 1 18131068264421828384
11135609 99 18337112379627764951
11456790 92 16845290536163295930
11646440 116 16630808807354404128
11963148 33 18412539912027428438
12035758 1 16988837264406820980
12107698 1 18412265047010121745
12236239 1 18114185203432681444
13248334 5 18120093042402149516
13383668 362 17914039052707288416
13540713 4 17272587026852767717
13540713 5 17271990245710948708
13811026 1 18271807878253276502
14068700 675 18113902667166818149
15183329 4 12901538053612139141
15198563 99 15574703665138987215
15706992 2 13542466518141696010
16728433 281 10954274347982066999
16994733 274 11239995651045374886
18335252 98 18343019983406402250
1979834 28 17060070271762920245
20028762 73 18201443618676143127
2026 5 18187362099559268498
20505436 4 11383830450681926404
21267235 1 18342461456019556193
21304304 249 18412263978000906959
22224240 67 16558745715605161598
23522609 53 18121534372753826032
23559900 14 18189053251890884681
23569917 315 18336270046706058482
23576562 1 12469510277946344666
3004659 81 18186798119382764985
3009799 131 13406795532227917004
3178227 256 17203887466607579962
3383291 50 18410575097596428459
3711267 37 10447929515909913795
4516262 110 11527955513298584369
465052 167 18343024436544098901
5104073 3 17559686031229777211
5718773 13 18409449189151670987
5758199 1 13901906704699653790
59682541 35 17917708028530042698
9896288 288 18056479456629447160
9962374 69 18059286686462361903

> <PUBCHEM_SHAPE_MULTIPOLES>
603.39
26.26
3.06
1.15
13.11
0.56
0.46
29.85
-6.96
-0.77
-0.94
1.15
0.17
-0.78

> <PUBCHEM_SHAPE_SELFOVERLAP>
1288.819

> <PUBCHEM_SHAPE_VOLUME>
336.1

> <PUBCHEM_COORDINATE_TYPE>
2
5
10

$$$$
