75368486
  -OEChem-12032416403D

 55 58  0     1  0  0  0  0  0999 V2000
    4.2689   -2.4172    0.2094 O   0  0  0  0  0  0  0  0  0  0  0  0
   -2.6358   -2.7208    0.2199 O   0  0  0  0  0  0  0  0  0  0  0  0
   -6.1323    2.8967    0.3809 O   0  0  0  0  0  0  0  0  0  0  0  0
    3.6592   -0.1403    0.1420 N   0  0  0  0  0  0  0  0  0  0  0  0
    2.0372   -1.6874    0.3010 N   0  0  0  0  0  0  0  0  0  0  0  0
   -0.6763   -1.6118   -0.2964 N   0  0  0  0  0  0  0  0  0  0  0  0
   -2.6168   -0.4016    0.2763 N   0  0  0  0  0  0  0  0  0  0  0  0
    1.3422   -0.4143    0.4052 C   0  0  1  0  0  0  0  0  0  0  0  0
    4.9479    0.4926   -0.0027 C   0  0  0  0  0  0  0  0  0  0  0  0
    2.4202    0.6148    0.0755 C   0  0  0  0  0  0  0  0  0  0  0  0
    5.2467    1.3835    1.2055 C   0  0  0  0  0  0  0  0  0  0  0  0
    5.0187    1.2852   -1.3106 C   0  0  0  0  0  0  0  0  0  0  0  0
    0.1359   -0.3993   -0.5275 C   0  0  0  0  0  0  0  0  0  0  0  0
    3.4277   -1.5280    0.2203 C   0  0  0  0  0  0  0  0  0  0  0  0
    1.2904   -2.9309    0.3897 C   0  0  0  0  0  0  0  0  0  0  0  0
    6.5823    2.1072    1.0543 C   0  0  0  0  0  0  0  0  0  0  0  0
    6.3553    2.0077   -1.4583 C   0  0  0  0  0  0  0  0  0  0  0  0
    6.6520    2.8936   -0.2517 C   0  0  0  0  0  0  0  0  0  0  0  0
    0.0574   -2.8695   -0.5121 C   0  0  0  0  0  0  0  0  0  0  0  0
   -2.0365   -1.6527    0.0718 C   0  0  0  0  0  0  0  0  0  0  0  0
   -3.9717   -0.0396    0.0736 C   0  0  0  0  0  0  0  0  0  0  0  0
   -4.3904    1.2662    0.3291 C   0  0  0  0  0  0  0  0  0  0  0  0
   -4.8871   -0.9893   -0.3804 C   0  0  0  0  0  0  0  0  0  0  0  0
   -5.7242    1.6226    0.1303 C   0  0  0  0  0  0  0  0  0  0  0  0
   -6.2210   -0.6330   -0.5789 C   0  0  0  0  0  0  0  0  0  0  0  0
   -6.6396    0.6730   -0.3238 C   0  0  0  0  0  0  0  0  0  0  0  0
   -7.5104    3.1925    0.1577 C   0  0  0  0  0  0  0  0  0  0  0  0
    1.0214   -0.3140    1.4499 H   0  0  0  0  0  0  0  0  0  0  0  0
    5.7070   -0.2995   -0.0382 H   0  0  0  0  0  0  0  0  0  0  0  0
    2.2970    1.0121   -0.9366 H   0  0  0  0  0  0  0  0  0  0  0  0
    2.4182    1.4375    0.7948 H   0  0  0  0  0  0  0  0  0  0  0  0
    5.2575    0.7812    2.1222 H   0  0  0  0  0  0  0  0  0  0  0  0
    4.4601    2.1359    1.3388 H   0  0  0  0  0  0  0  0  0  0  0  0
    4.8647    0.6162   -2.1659 H   0  0  0  0  0  0  0  0  0  0  0  0
    4.2230    2.0389   -1.3546 H   0  0  0  0  0  0  0  0  0  0  0  0
   -0.4283    0.5265   -0.4117 H   0  0  0  0  0  0  0  0  0  0  0  0
    0.4555   -0.4415   -1.5768 H   0  0  0  0  0  0  0  0  0  0  0  0
    0.9899   -3.0463    1.4373 H   0  0  0  0  0  0  0  0  0  0  0  0
    1.9375   -3.7726    0.1249 H   0  0  0  0  0  0  0  0  0  0  0  0
    7.3986    1.3750    1.0831 H   0  0  0  0  0  0  0  0  0  0  0  0
    6.7324    2.7856    1.9017 H   0  0  0  0  0  0  0  0  0  0  0  0
    6.3472    2.6164   -2.3695 H   0  0  0  0  0  0  0  0  0  0  0  0
    7.1578    1.2690   -1.5749 H   0  0  0  0  0  0  0  0  0  0  0  0
    7.6459    3.3424   -0.3592 H   0  0  0  0  0  0  0  0  0  0  0  0
    5.9302    3.7191   -0.2191 H   0  0  0  0  0  0  0  0  0  0  0  0
    0.3561   -2.8878   -1.5671 H   0  0  0  0  0  0  0  0  0  0  0  0
   -0.5794   -3.7408   -0.3334 H   0  0  0  0  0  0  0  0  0  0  0  0
   -2.0186    0.3574    0.5846 H   0  0  0  0  0  0  0  0  0  0  0  0
   -3.6824    2.0118    0.6837 H   0  0  0  0  0  0  0  0  0  0  0  0
   -4.6178   -2.0102   -0.6212 H   0  0  0  0  0  0  0  0  0  0  0  0
   -6.9325   -1.3711   -0.9382 H   0  0  0  0  0  0  0  0  0  0  0  0
   -7.6891    0.8820   -0.5006 H   0  0  0  0  0  0  0  0  0  0  0  0
   -8.1593    2.6124    0.8225 H   0  0  0  0  0  0  0  0  0  0  0  0
   -7.7820    3.0722   -0.8965 H   0  0  0  0  0  0  0  0  0  0  0  0
   -7.6588    4.2482    0.4074 H   0  0  0  0  0  0  0  0  0  0  0  0
  1 14  2  0  0  0  0
  2 20  2  0  0  0  0
  3 24  1  0  0  0  0
  3 27  1  0  0  0  0
  4  9  1  0  0  0  0
  4 10  1  0  0  0  0
  4 14  1  0  0  0  0
  5  8  1  0  0  0  0
  5 14  1  0  0  0  0
  5 15  1  0  0  0  0
  6 13  1  0  0  0  0
  6 19  1  0  0  0  0
  6 20  1  0  0  0  0
  7 20  1  0  0  0  0
  7 21  1  0  0  0  0
  7 48  1  0  0  0  0
  8 10  1  0  0  0  0
  8 13  1  0  0  0  0
  8 28  1  0  0  0  0
  9 11  1  0  0  0  0
  9 12  1  0  0  0  0
  9 29  1  0  0  0  0
 10 30  1  0  0  0  0
 10 31  1  0  0  0  0
 11 16  1  0  0  0  0
 11 32  1  0  0  0  0
 11 33  1  0  0  0  0
 12 17  1  0  0  0  0
 12 34  1  0  0  0  0
 12 35  1  0  0  0  0
 13 36  1  0  0  0  0
 13 37  1  0  0  0  0
 15 19  1  0  0  0  0
 15 38  1  0  0  0  0
 15 39  1  0  0  0  0
 16 18  1  0  0  0  0
 16 40  1  0  0  0  0
 16 41  1  0  0  0  0
 17 18  1  0  0  0  0
 17 42  1  0  0  0  0
 17 43  1  0  0  0  0
 18 44  1  0  0  0  0
 18 45  1  0  0  0  0
 19 46  1  0  0  0  0
 19 47  1  0  0  0  0
 21 22  2  0  0  0  0
 21 23  1  0  0  0  0
 22 24  1  0  0  0  0
 22 49  1  0  0  0  0
 23 25  2  0  0  0  0
 23 50  1  0  0  0  0
 24 26  2  0  0  0  0
 25 26  1  0  0  0  0
 25 51  1  0  0  0  0
 26 52  1  0  0  0  0
 27 53  1  0  0  0  0
 27 54  1  0  0  0  0
 27 55  1  0  0  0  0
M  END
> <PUBCHEM_COMPOUND_CID>
75368486

> <PUBCHEM_CONFORMER_RMSD>
1

> <PUBCHEM_CONFORMER_DIVERSEORDER>
1
28
97
76
60
104
103
11
29
46
31
107
69
111
105
14
92
90
102
48
113
53
108
109
91
33
99
18
96
106
94
74
117
118
112
19
8
85
78
95
39
56
84
17
67
54
20
36
44
42
98
50
37
61
10
64
72
87
79
93
43
35
83
70
6
9
116
88
65
58
26
110
77
66
40
89
75
81
73
55
62
23
12
21
45
4
71
16
34
120
3
49
47
82
115
41
5
57
119
101
86
38
51
63
2
100
114
15
22
25
24
68
27
7
32
13
52
80
30
59

> <PUBCHEM_MMFF94_PARTIAL_CHARGES>
27
1 -0.57
10 0.3
13 0.3
14 0.69
15 0.3
19 0.3
2 -0.57
20 0.69
21 0.12
22 -0.15
23 -0.15
24 0.08
25 -0.15
26 -0.15
27 0.28
3 -0.36
4 -0.66
48 0.37
49 0.15
5 -0.66
50 0.15
51 0.15
52 0.15
6 -0.66
7 -0.55
8 0.3
9 0.3

> <PUBCHEM_EFFECTIVE_ROTOR_COUNT>
7.4

> <PUBCHEM_PHARMACOPHORE_FEATURES>
8
1 1 acceptor
1 2 acceptor
1 3 acceptor
1 7 donor
5 4 5 8 10 14 rings
6 21 22 23 24 25 26 rings
6 5 6 8 13 15 19 rings
6 9 11 12 16 17 18 rings

> <PUBCHEM_HEAVY_ATOM_COUNT>
27

> <PUBCHEM_ATOM_DEF_STEREO_COUNT>
1

> <PUBCHEM_ATOM_UDEF_STEREO_COUNT>
0

> <PUBCHEM_BOND_DEF_STEREO_COUNT>
0

> <PUBCHEM_BOND_UDEF_STEREO_COUNT>
0

> <PUBCHEM_ISOTOPIC_ATOM_COUNT>
0

> <PUBCHEM_COMPONENT_COUNT>
1

> <PUBCHEM_CACTVS_TAUTO_COUNT>
2

> <PUBCHEM_CONFORMER_ID>
047E082600000001

> <PUBCHEM_MMFF94_ENERGY>
74.1142

> <PUBCHEM_FEATURE_SELFOVERLAP>
40.695

> <PUBCHEM_SHAPE_FINGERPRINT>
10 15 17822009851873047595
10050765 1 18410574015576094154
10190206 1 17845671316998375712
10280341 67 18341598326528566809
10411042 1 17618503177952051714
10554248 39 18269823238443539031
10595046 47 18412820275445781503
10906281 52 17749961071825325332
11578821 258 17831582351785589036
12342043 65 13191435246869297592
13073987 5 18335702754228918779
13248334 5 18194399987974658994
13540713 5 18339059576124463814
13782708 43 11527942344649110685
14347332 77 10447939355542039635
14394314 77 18411424990700650153
14565420 104 18114460085012315346
14617042 71 18198630939711430073
14790565 3 18119536676722400060
14931854 50 17846784004899766592
15183329 4 16200162001344542854
15198563 99 17698149987923556455
15400415 2 18411416177384878627
15519825 34 16298968566456975473
1577012 14 18341610404635043741
15803439 3 16774077384208787975
15840311 113 18262522485904307933
18608769 82 18267868470590299675
20058555 10 18410854326827241901
20691028 202 18409730664086326492
21033648 144 18260819411107416319
21033648 29 18040725744785286891
21150785 3 12319461030548126328
21298829 104 18409450293037854965
21424621 283 18410854403988193840
21585482 111 18261954050819584301
23569914 152 17485106106648141470
23569943 247 10519718777982111469
270888 7 18410855464433691601
2748736 6 18409160030441667756
2838139 119 18271799163812053482
3411729 13 18407758119152387810
3918712 181 18343294881850401312
4073 2 18259990370982370539
4169191 19 18260826020887940045
4340502 62 16225757537176007394
44249763 50 17488167383047618330
5104073 3 18040713671026004874
54583773 228 18412821375616825117
59682541 52 17060069129522964340
6327066 14 18411980256750778941
6328613 192 18409731767966618605
636775 72 18196649829636373616

> <PUBCHEM_SHAPE_MULTIPOLES>
518.12
21.45
3.73
0.93
9.56
0.03
0.11
23.4
0.83
0.53
-0.18
-1.33
0.36
-1.06

> <PUBCHEM_SHAPE_SELFOVERLAP>
1094.426

> <PUBCHEM_SHAPE_VOLUME>
288.2

> <PUBCHEM_COORDINATE_TYPE>
2
5
10

$$$$
