7662935
  -OEChem-12032416113D

 51 54  0     1  0  0  0  0  0999 V2000
   -0.6667   -3.6627    2.6034 O   0  0  0  0  0  0  0  0  0  0  0  0
    2.8701   -2.1666   -1.0018 O   0  0  0  0  0  0  0  0  0  0  0  0
    3.6185    0.1208   -0.2286 O   0  0  0  0  0  0  0  0  0  0  0  0
    5.8363    2.5960    1.1214 O   0  0  0  0  0  0  0  0  0  0  0  0
    6.1080    0.3505    0.8541 O   0  0  0  0  0  0  0  0  0  0  0  0
    0.7405   -1.5387   -1.6855 N   0  0  0  0  0  0  0  0  0  0  0  0
   -1.1754   -2.3758    0.7136 N   0  0  0  0  0  0  0  0  0  0  0  0
   -0.1637    5.2802   -0.8150 N   0  0  0  0  0  0  0  0  0  0  0  0
   -0.9819   -3.3374   -1.6549 C   0  0  1  0  0  0  0  0  0  0  0  0
   -1.6637   -0.9981   -1.3321 C   0  0  2  0  0  0  0  0  0  0  0  0
   -2.0527   -2.3150   -2.0017 C   0  0  0  0  0  0  0  0  0  0  0  0
    0.3957   -2.8785   -2.1606 C   0  0  0  0  0  0  0  0  0  0  0  0
   -0.9914   -3.5565   -0.1416 C   0  0  0  0  0  0  0  0  0  0  0  0
   -0.3028   -0.5241   -1.8838 C   0  0  0  0  0  0  0  0  0  0  0  0
   -1.5978   -1.1371    0.1914 C   0  0  0  0  0  0  0  0  0  0  0  0
   -1.9013   -0.1157    1.0344 C   0  0  0  0  0  0  0  0  0  0  0  0
   -1.0188   -2.5988    2.0933 C   0  0  0  0  0  0  0  0  0  0  0  0
    2.0091   -1.2969   -1.1592 C   0  0  0  0  0  0  0  0  0  0  0  0
   -1.7483   -0.3079    2.4640 C   0  0  0  0  0  0  0  0  0  0  0  0
   -1.3222   -1.4577    2.9862 C   0  0  0  0  0  0  0  0  0  0  0  0
   -2.3666    1.1963    0.5337 C   0  0  0  0  0  0  0  0  0  0  0  0
    2.3151    0.1240   -0.7581 C   0  0  0  0  0  0  0  0  0  0  0  0
   -1.4399    2.1883    0.2277 C   0  0  0  0  0  0  0  0  0  0  0  0
   -3.7290    1.4294    0.3721 C   0  0  0  0  0  0  0  0  0  0  0  0
   -1.8798    3.4250   -0.2443 C   0  0  0  0  0  0  0  0  0  0  0  0
   -4.1687    2.6660   -0.1000 C   0  0  0  0  0  0  0  0  0  0  0  0
   -3.2442    3.6639   -0.4082 C   0  0  0  0  0  0  0  0  0  0  0  0
    4.0295    1.4206    0.1916 C   0  0  0  0  0  0  0  0  0  0  0  0
   -0.9332    4.4482   -0.5590 C   0  0  0  0  0  0  0  0  0  0  0  0
    5.4253    1.3582    0.7473 C   0  0  0  0  0  0  0  0  0  0  0  0
   -1.2123   -4.2920   -2.1439 H   0  0  0  0  0  0  0  0  0  0  0  0
   -2.4232   -0.2626   -1.6199 H   0  0  0  0  0  0  0  0  0  0  0  0
   -2.1209   -2.1867   -3.0889 H   0  0  0  0  0  0  0  0  0  0  0  0
   -3.0383   -2.6511   -1.6558 H   0  0  0  0  0  0  0  0  0  0  0  0
    1.1651   -3.6027   -1.8729 H   0  0  0  0  0  0  0  0  0  0  0  0
    0.3934   -2.8333   -3.2567 H   0  0  0  0  0  0  0  0  0  0  0  0
   -1.8226   -4.2309    0.1074 H   0  0  0  0  0  0  0  0  0  0  0  0
   -0.0788   -4.0787    0.1734 H   0  0  0  0  0  0  0  0  0  0  0  0
   -0.3781   -0.3617   -2.9665 H   0  0  0  0  0  0  0  0  0  0  0  0
   -0.0182    0.4334   -1.4497 H   0  0  0  0  0  0  0  0  0  0  0  0
   -1.9795    0.5245    3.1222 H   0  0  0  0  0  0  0  0  0  0  0  0
   -1.2054   -1.5905    4.0551 H   0  0  0  0  0  0  0  0  0  0  0  0
    2.2628    0.7730   -1.6381 H   0  0  0  0  0  0  0  0  0  0  0  0
    1.6083    0.4445    0.0134 H   0  0  0  0  0  0  0  0  0  0  0  0
   -0.3759    2.0073    0.3660 H   0  0  0  0  0  0  0  0  0  0  0  0
   -4.4610    0.6609    0.6075 H   0  0  0  0  0  0  0  0  0  0  0  0
   -5.2312    2.8519   -0.2278 H   0  0  0  0  0  0  0  0  0  0  0  0
   -3.6026    4.6227   -0.7750 H   0  0  0  0  0  0  0  0  0  0  0  0
    3.3555    1.7808    0.9759 H   0  0  0  0  0  0  0  0  0  0  0  0
    4.0237    2.0989   -0.6681 H   0  0  0  0  0  0  0  0  0  0  0  0
    6.7462    2.5845    1.4879 H   0  0  0  0  0  0  0  0  0  0  0  0
  1 17  2  0  0  0  0
  2 18  2  0  0  0  0
  3 22  1  0  0  0  0
  3 28  1  0  0  0  0
  4 30  1  0  0  0  0
  4 51  1  0  0  0  0
  5 30  2  0  0  0  0
  6 12  1  0  0  0  0
  6 14  1  0  0  0  0
  6 18  1  0  0  0  0
  7 13  1  0  0  0  0
  7 15  1  0  0  0  0
  7 17  1  0  0  0  0
  8 29  3  0  0  0  0
  9 11  1  0  0  0  0
  9 12  1  0  0  0  0
  9 13  1  0  0  0  0
  9 31  1  0  0  0  0
 10 11  1  0  0  0  0
 10 14  1  0  0  0  0
 10 15  1  0  0  0  0
 10 32  1  0  0  0  0
 11 33  1  0  0  0  0
 11 34  1  0  0  0  0
 12 35  1  0  0  0  0
 12 36  1  0  0  0  0
 13 37  1  0  0  0  0
 13 38  1  0  0  0  0
 14 39  1  0  0  0  0
 14 40  1  0  0  0  0
 15 16  2  0  0  0  0
 16 19  1  0  0  0  0
 16 21  1  0  0  0  0
 17 20  1  0  0  0  0
 18 22  1  0  0  0  0
 19 20  2  0  0  0  0
 19 41  1  0  0  0  0
 20 42  1  0  0  0  0
 21 23  1  0  0  0  0
 21 24  2  0  0  0  0
 22 43  1  0  0  0  0
 22 44  1  0  0  0  0
 23 25  2  0  0  0  0
 23 45  1  0  0  0  0
 24 26  1  0  0  0  0
 24 46  1  0  0  0  0
 25 27  1  0  0  0  0
 25 29  1  0  0  0  0
 26 27  2  0  0  0  0
 26 47  1  0  0  0  0
 27 48  1  0  0  0  0
 28 30  1  0  0  0  0
 28 49  1  0  0  0  0
 28 50  1  0  0  0  0
M  END
> <PUBCHEM_COMPOUND_CID>
7662935

> <PUBCHEM_CONFORMER_RMSD>
0.8

> <PUBCHEM_CONFORMER_DIVERSEORDER>
1
9
16
21
5
4
29
30
11
28
25
20
2
31
27
32
24
10
18
15
26
14
22
12
34
6
19
8
33
17
13
35
3
23
7

> <PUBCHEM_MMFF94_PARTIAL_CHARGES>
35
1 -0.57
10 0.14
12 0.3
13 0.3
14 0.3
15 -0.03
16 -0.03
17 0.62
18 0.57
19 -0.15
2 -0.57
20 -0.14
21 0.03
22 0.34
23 -0.15
24 -0.15
25 0.07
26 -0.15
27 -0.15
28 0.34
29 0.48
3 -0.56
30 0.66
4 -0.65
41 0.15
42 0.15
45 0.15
46 0.15
47 0.15
48 0.15
5 -0.57
51 0.5
6 -0.66
7 -0.47
8 -0.56

> <PUBCHEM_EFFECTIVE_ROTOR_COUNT>
7

> <PUBCHEM_PHARMACOPHORE_FEATURES>
11
1 1 acceptor
1 2 acceptor
1 3 acceptor
1 4 acceptor
1 5 acceptor
1 8 acceptor
3 4 5 30 anion
6 21 23 24 25 26 27 rings
6 6 9 10 11 12 14 rings
6 7 15 16 17 19 20 rings
6 7 9 10 11 13 15 rings

> <PUBCHEM_HEAVY_ATOM_COUNT>
30

> <PUBCHEM_ATOM_DEF_STEREO_COUNT>
2

> <PUBCHEM_ATOM_UDEF_STEREO_COUNT>
0

> <PUBCHEM_BOND_DEF_STEREO_COUNT>
0

> <PUBCHEM_BOND_UDEF_STEREO_COUNT>
0

> <PUBCHEM_ISOTOPIC_ATOM_COUNT>
0

> <PUBCHEM_COMPONENT_COUNT>
1

> <PUBCHEM_CACTVS_TAUTO_COUNT>
1

> <PUBCHEM_CONFORMER_ID>
0074ED5700000001

> <PUBCHEM_MMFF94_ENERGY>
73.3781

> <PUBCHEM_FEATURE_SELFOVERLAP>
57.468

> <PUBCHEM_SHAPE_FINGERPRINT>
11582403 64 18193834851639368523
11725454 13 18046920281442482031
12156800 1 17412132777836801127
1361 2 18271239431201295405
14142880 1 17774172338706102891
14468879 13 18340773658510331776
14725015 67 18047200643701084824
15513586 35 17834689562316654008
17974551 9 17606697816029857994
20101258 96 18050569848292786392
20691752 17 15728444880221448613
238 59 17769947778824453407
3380486 77 17481430803689673974
376196 1 18195248806312456125
445580 44 18054783146990855312
469060 322 17983300623083148154
56638632 33 16885827580069563778
57527295 17 16388780717667719759
5895379 119 15962862820694852941
84936 182 16961283270711818097
9981440 41 18341891896380511138

> <PUBCHEM_SHAPE_MULTIPOLES>
573.1
7.69
6.32
2.42
14.39
3.79
1.23
10.04
2.11
-2.17
-1.09
-0.49
-2.8
1.94

> <PUBCHEM_SHAPE_SELFOVERLAP>
1242.269

> <PUBCHEM_SHAPE_VOLUME>
304.9

> <PUBCHEM_COORDINATE_TYPE>
2
5
10

$$$$
