11867459
  -OEChem-12032416133D

 77 80  0     1  0  0  0  0  0999 V2000
   -0.6013    3.0775   -0.3932 S   0  0  0  0  0  0  0  0  0  0  0  0
   -7.4609   -0.7391   -0.3181 O   0  0  0  0  0  0  0  0  0  0  0  0
   -7.3925    1.2787    0.9735 O   0  0  0  0  0  0  0  0  0  0  0  0
    0.4282   -2.0588   -1.4433 O   0  0  0  0  0  0  0  0  0  0  0  0
    3.3148    0.5718   -0.7125 O   0  0  0  0  0  0  0  0  0  0  0  0
    0.3684    0.6791   -0.4014 N   0  0  0  0  0  0  0  0  0  0  0  0
    1.0525   -3.2655    0.4423 N   0  0  0  0  0  0  0  0  0  0  0  0
    1.9422    2.4890   -0.6396 N   0  0  0  0  0  0  0  0  0  0  0  0
    5.5095   -2.4304   -0.9966 N   0  0  0  0  0  0  0  0  0  0  0  0
   -3.1677   -0.6139    0.4310 C   0  0  2  0  0  0  0  0  0  0  0  0
   -3.8737    0.5784   -0.3536 C   0  0  1  0  0  0  0  0  0  0  0  0
   -5.4465    0.6603   -0.2665 C   0  0  1  0  0  0  0  0  0  0  0  0
   -1.6820   -0.7665   -0.1374 C   0  0  1  0  0  0  0  0  0  0  0  0
   -3.9331   -1.9349    0.1590 C   0  0  0  0  0  0  0  0  0  0  0  0
   -6.0477   -0.7517   -0.5172 C   0  0  1  0  0  0  0  0  0  0  0  0
   -3.1595    1.9357   -0.0880 C   0  0  0  0  0  0  0  0  0  0  0  0
   -5.4370   -1.8310    0.3698 C   0  0  0  0  0  0  0  0  0  0  0  0
   -3.1120   -0.3776    1.9604 C   0  0  0  0  0  0  0  0  0  0  0  0
   -1.0009    0.5740   -0.2408 C   0  0  0  0  0  0  0  0  0  0  0  0
   -5.9848    1.2622    1.0503 C   0  0  0  0  0  0  0  0  0  0  0  0
   -5.9689    1.5924   -1.3962 C   0  0  0  0  0  0  0  0  0  0  0  0
   -1.6843    1.7729   -0.2348 C   0  0  0  0  0  0  0  0  0  0  0  0
   -0.8122   -1.7821    0.6156 C   0  0  0  0  0  0  0  0  0  0  0  0
    0.2731   -2.3601   -0.2629 C   0  0  0  0  0  0  0  0  0  0  0  0
    0.6920    1.9512   -0.4850 C   0  0  0  0  0  0  0  0  0  0  0  0
    2.1647   -3.9762   -0.1460 C   0  0  0  0  0  0  0  0  0  0  0  0
    3.1557    1.7889   -0.7425 C   0  0  0  0  0  0  0  0  0  0  0  0
    4.3572    2.7136   -0.8998 C   0  0  0  0  0  0  0  0  0  0  0  0
    3.4544   -3.2219    0.0011 C   0  0  0  0  0  0  0  0  0  0  0  0
    5.0734    3.0763    0.4231 C   0  0  0  0  0  0  0  0  0  0  0  0
    6.2912    3.9568    0.0798 C   0  0  0  0  0  0  0  0  0  0  0  0
    5.5741    1.8144    1.1457 C   0  0  0  0  0  0  0  0  0  0  0  0
    4.1526    3.8684    1.3655 C   0  0  0  0  0  0  0  0  0  0  0  0
    3.8048   -2.6304    1.2098 C   0  0  0  0  0  0  0  0  0  0  0  0
    4.3335   -3.0941   -1.0623 C   0  0  0  0  0  0  0  0  0  0  0  0
    5.0065   -1.9389    1.3165 C   0  0  0  0  0  0  0  0  0  0  0  0
    5.8162   -1.8687    0.1943 C   0  0  0  0  0  0  0  0  0  0  0  0
   -3.6770    0.3493   -1.4154 H   0  0  0  0  0  0  0  0  0  0  0  0
   -1.7958   -1.1091   -1.1770 H   0  0  0  0  0  0  0  0  0  0  0  0
   -3.7553   -2.2560   -0.8759 H   0  0  0  0  0  0  0  0  0  0  0  0
   -3.5570   -2.7420    0.7978 H   0  0  0  0  0  0  0  0  0  0  0  0
   -5.8803   -1.0286   -1.5666 H   0  0  0  0  0  0  0  0  0  0  0  0
   -3.5106    2.6914   -0.7987 H   0  0  0  0  0  0  0  0  0  0  0  0
   -3.3796    2.3033    0.9198 H   0  0  0  0  0  0  0  0  0  0  0  0
   -5.6805   -1.6515    1.4228 H   0  0  0  0  0  0  0  0  0  0  0  0
   -5.9001   -2.7977    0.1337 H   0  0  0  0  0  0  0  0  0  0  0  0
   -2.5958   -1.1989    2.4696 H   0  0  0  0  0  0  0  0  0  0  0  0
   -4.0969   -0.3338    2.4205 H   0  0  0  0  0  0  0  0  0  0  0  0
   -2.5805    0.5407    2.2247 H   0  0  0  0  0  0  0  0  0  0  0  0
   -5.7189    0.6764    1.9265 H   0  0  0  0  0  0  0  0  0  0  0  0
   -5.6379    2.2891    1.2004 H   0  0  0  0  0  0  0  0  0  0  0  0
   -5.5539    1.3013   -2.3681 H   0  0  0  0  0  0  0  0  0  0  0  0
   -5.6971    2.6384   -1.2199 H   0  0  0  0  0  0  0  0  0  0  0  0
   -7.0595    1.5570   -1.4964 H   0  0  0  0  0  0  0  0  0  0  0  0
   -0.3444   -1.3274    1.4980 H   0  0  0  0  0  0  0  0  0  0  0  0
   -1.4076   -2.6345    0.9580 H   0  0  0  0  0  0  0  0  0  0  0  0
   -7.7964   -1.6266   -0.5305 H   0  0  0  0  0  0  0  0  0  0  0  0
   -7.7234    1.6676    1.8009 H   0  0  0  0  0  0  0  0  0  0  0  0
    0.8456   -3.4404    1.4217 H   0  0  0  0  0  0  0  0  0  0  0  0
    1.9680    3.5046   -0.6787 H   0  0  0  0  0  0  0  0  0  0  0  0
    2.2478   -4.9438    0.3604 H   0  0  0  0  0  0  0  0  0  0  0  0
    1.9398   -4.1627   -1.2022 H   0  0  0  0  0  0  0  0  0  0  0  0
    5.0560    2.2112   -1.5821 H   0  0  0  0  0  0  0  0  0  0  0  0
    4.0384    3.6274   -1.4179 H   0  0  0  0  0  0  0  0  0  0  0  0
    5.9829    4.8771   -0.4289 H   0  0  0  0  0  0  0  0  0  0  0  0
    6.8416    4.2446    0.9828 H   0  0  0  0  0  0  0  0  0  0  0  0
    6.9890    3.4280   -0.5795 H   0  0  0  0  0  0  0  0  0  0  0  0
    6.2099    1.2124    0.4882 H   0  0  0  0  0  0  0  0  0  0  0  0
    6.1662    2.0758    2.0303 H   0  0  0  0  0  0  0  0  0  0  0  0
    4.7432    1.1892    1.4875 H   0  0  0  0  0  0  0  0  0  0  0  0
    3.3086    3.2616    1.7098 H   0  0  0  0  0  0  0  0  0  0  0  0
    3.7491    4.7578    0.8688 H   0  0  0  0  0  0  0  0  0  0  0  0
    4.6950    4.2034    2.2571 H   0  0  0  0  0  0  0  0  0  0  0  0
    3.1601   -2.7047    2.0810 H   0  0  0  0  0  0  0  0  0  0  0  0
    4.1174   -3.5338   -2.0310 H   0  0  0  0  0  0  0  0  0  0  0  0
    5.3013   -1.4719    2.2491 H   0  0  0  0  0  0  0  0  0  0  0  0
    6.7649   -1.3433    0.2258 H   0  0  0  0  0  0  0  0  0  0  0  0
  1 22  1  0  0  0  0
  1 25  1  0  0  0  0
  2 15  1  0  0  0  0
  2 57  1  0  0  0  0
  3 20  1  0  0  0  0
  3 58  1  0  0  0  0
  4 24  2  0  0  0  0
  5 27  2  0  0  0  0
  6 19  1  0  0  0  0
  6 25  2  0  0  0  0
  7 24  1  0  0  0  0
  7 26  1  0  0  0  0
  7 59  1  0  0  0  0
  8 25  1  0  0  0  0
  8 27  1  0  0  0  0
  8 60  1  0  0  0  0
  9 35  1  0  0  0  0
  9 37  2  0  0  0  0
 10 11  1  0  0  0  0
 10 13  1  0  0  0  0
 10 14  1  0  0  0  0
 10 18  1  0  0  0  0
 11 12  1  0  0  0  0
 11 16  1  0  0  0  0
 11 38  1  0  0  0  0
 12 15  1  0  0  0  0
 12 20  1  0  0  0  0
 12 21  1  0  0  0  0
 13 19  1  0  0  0  0
 13 23  1  0  0  0  0
 13 39  1  0  0  0  0
 14 17  1  0  0  0  0
 14 40  1  0  0  0  0
 14 41  1  0  0  0  0
 15 17  1  0  0  0  0
 15 42  1  0  0  0  0
 16 22  1  0  0  0  0
 16 43  1  0  0  0  0
 16 44  1  0  0  0  0
 17 45  1  0  0  0  0
 17 46  1  0  0  0  0
 18 47  1  0  0  0  0
 18 48  1  0  0  0  0
 18 49  1  0  0  0  0
 19 22  2  0  0  0  0
 20 50  1  0  0  0  0
 20 51  1  0  0  0  0
 21 52  1  0  0  0  0
 21 53  1  0  0  0  0
 21 54  1  0  0  0  0
 23 24  1  0  0  0  0
 23 55  1  0  0  0  0
 23 56  1  0  0  0  0
 26 29  1  0  0  0  0
 26 61  1  0  0  0  0
 26 62  1  0  0  0  0
 27 28  1  0  0  0  0
 28 30  1  0  0  0  0
 28 63  1  0  0  0  0
 28 64  1  0  0  0  0
 29 34  1  0  0  0  0
 29 35  2  0  0  0  0
 30 31  1  0  0  0  0
 30 32  1  0  0  0  0
 30 33  1  0  0  0  0
 31 65  1  0  0  0  0
 31 66  1  0  0  0  0
 31 67  1  0  0  0  0
 32 68  1  0  0  0  0
 32 69  1  0  0  0  0
 32 70  1  0  0  0  0
 33 71  1  0  0  0  0
 33 72  1  0  0  0  0
 33 73  1  0  0  0  0
 34 36  2  0  0  0  0
 34 74  1  0  0  0  0
 35 75  1  0  0  0  0
 36 37  1  0  0  0  0
 36 76  1  0  0  0  0
 37 77  1  0  0  0  0
M  END
> <PUBCHEM_COMPOUND_CID>
11867459

> <PUBCHEM_CONFORMER_RMSD>
1.2

> <PUBCHEM_CONFORMER_DIVERSEORDER>
1
10
26
32
37
34
25
39
14
5
33
16
27
38
36
41
6
43
35
20
12
22
45
8
31
29
44
11
28
42
13
17
21
7
30
4
18
24
40
9
19
2
23
3
15

> <PUBCHEM_MMFF94_PARTIAL_CHARGES>
34
1 -0.08
13 0.18
15 0.28
16 0.18
19 0.05
2 -0.68
20 0.28
22 -0.14
23 0.06
24 0.57
25 0.44
26 0.44
27 0.57
28 0.06
29 -0.14
3 -0.68
34 -0.15
35 0.16
36 -0.15
37 0.16
4 -0.57
5 -0.57
57 0.4
58 0.4
59 0.37
6 -0.57
60 0.37
7 -0.73
74 0.15
75 0.15
76 0.15
77 0.15
8 -0.49
9 -0.62

> <PUBCHEM_EFFECTIVE_ROTOR_COUNT>
11.2

> <PUBCHEM_PHARMACOPHORE_FEATURES>
14
1 2 acceptor
1 2 donor
1 3 acceptor
1 3 donor
1 4 acceptor
1 5 acceptor
1 7 donor
1 8 donor
1 9 acceptor
4 30 31 32 33 hydrophobe
5 1 6 19 22 25 rings
6 10 11 12 14 15 17 rings
6 10 11 13 16 19 22 rings
6 9 29 34 35 36 37 rings

> <PUBCHEM_HEAVY_ATOM_COUNT>
37

> <PUBCHEM_ATOM_DEF_STEREO_COUNT>
5

> <PUBCHEM_ATOM_UDEF_STEREO_COUNT>
0

> <PUBCHEM_BOND_DEF_STEREO_COUNT>
0

> <PUBCHEM_BOND_UDEF_STEREO_COUNT>
0

> <PUBCHEM_ISOTOPIC_ATOM_COUNT>
0

> <PUBCHEM_COMPONENT_COUNT>
1

> <PUBCHEM_CACTVS_TAUTO_COUNT>
6

> <PUBCHEM_CONFORMER_ID>
00B5154300000001

> <PUBCHEM_MMFF94_ENERGY>
110.2687

> <PUBCHEM_FEATURE_SELFOVERLAP>
71.193

> <PUBCHEM_SHAPE_FINGERPRINT>
11719270 70 18336824303259894572
12166972 35 18129100026707254010
13533116 47 18413107256106406904
1361 2 18408322190123577794
13811026 1 18261671571321075235
14295345 954 18335139816938697584
14394314 77 18339363062523340321
14415360 78 17250599986086404701
14725015 67 18187357676486141378
14840074 17 18059002870470584039
15001296 14 18408601474440107562
15200665 1 17691687109649897866
15400415 2 18122061172552754572
15815584 197 18192172553461977487
15927050 60 18196933486271510126
16067689 302 18339646758863371255
20642791 35 18335421227290464403
20721686 56 18334579040380925362
21279426 13 18260543395113013117
21344244 246 18337665430161350807
21703447 108 18411695457549086856
21859007 373 17460014224246316781
22311459 1 18337391513594435786
23559900 14 18338228263760193283
24771293 8 18342166744402019450
24771750 20 18042988608165656167
3411729 13 18335700585269894994
394071 54 18340771446940011962
404807 14 17693101764398120130
4073 2 18190747616161777696
4093350 32 17561086891170006710
4144715 1 18261398871088904283
5104073 3 18410302415060331225
53794403 172 18410292532467209046
5385378 56 18410581690919301609
5776283 40 18337686299813318630
6176135 31 18338505461308602400
6669772 16 18339641243517825060
67856867 119 18410575067868637039
99344 41 18410570729745952672
9961470 85 18339921645037768954

> <PUBCHEM_SHAPE_MULTIPOLES>
721.89
17.73
5.47
1.22
11.77
0.22
0.24
-4.37
1.78
-10.89
0.03
-0.19
-0.03
0.89

> <PUBCHEM_SHAPE_SELFOVERLAP>
1510.073

> <PUBCHEM_SHAPE_VOLUME>
412.7

> <PUBCHEM_COORDINATE_TYPE>
2
5
10

$$$$
