26744519
  -OEChem-12032416283D

 36 38  0     1  0  0  0  0  0999 V2000
   -5.3697   -1.1306    0.3229 F   0  0  0  0  0  0  0  0  0  0  0  0
    5.4318    1.8616    1.1094 O   0  0  0  0  0  0  0  0  0  0  0  0
    1.0206   -2.0341    0.5736 O   0  0  0  0  0  0  0  0  0  0  0  0
    3.4737   -0.1536   -1.0989 N   0  0  1  0  0  0  0  0  0  0  0  0
    0.5455    0.0832    0.0187 N   0  0  0  0  0  0  0  0  0  0  0  0
   -0.3767   -1.9430    0.5458 N   0  0  0  0  0  0  0  0  0  0  0  0
    2.9893   -0.6318    0.2120 C   0  0  1  0  0  0  0  0  0  0  0  0
    3.5005    0.4099    1.2246 C   0  0  0  0  0  0  0  0  0  0  0  0
    4.2987    1.4079    0.3949 C   0  0  2  0  0  0  0  0  0  0  0  0
    4.6903    0.6129   -0.8360 C   0  0  0  0  0  0  0  0  0  0  0  0
    1.4848   -0.7982    0.2521 C   0  0  0  0  0  0  0  0  0  0  0  0
    3.6992   -1.2295   -2.0552 C   0  0  0  0  0  0  0  0  0  0  0  0
   -0.5792   -0.6652    0.2110 C   0  0  0  0  0  0  0  0  0  0  0  0
   -1.8912   -0.1050    0.0621 C   0  0  0  0  0  0  0  0  0  0  0  0
   -3.0175   -0.9021    0.2676 C   0  0  0  0  0  0  0  0  0  0  0  0
   -2.0409    1.2369   -0.2877 C   0  0  0  0  0  0  0  0  0  0  0  0
   -4.4431    0.9849   -0.2265 C   0  0  0  0  0  0  0  0  0  0  0  0
   -4.2933   -0.3571    0.1234 C   0  0  0  0  0  0  0  0  0  0  0  0
   -3.3168    1.7818   -0.4321 C   0  0  0  0  0  0  0  0  0  0  0  0
   -5.8058    1.5707   -0.3817 C   0  0  0  0  0  0  0  0  0  0  0  0
    3.4580   -1.5935    0.4645 H   0  0  0  0  0  0  0  0  0  0  0  0
    2.6984    0.9229    1.7675 H   0  0  0  0  0  0  0  0  0  0  0  0
    4.1396   -0.0731    1.9745 H   0  0  0  0  0  0  0  0  0  0  0  0
    3.6773    2.2693    0.1207 H   0  0  0  0  0  0  0  0  0  0  0  0
    4.9522    1.2728   -1.6696 H   0  0  0  0  0  0  0  0  0  0  0  0
    5.5569   -0.0281   -0.6265 H   0  0  0  0  0  0  0  0  0  0  0  0
    2.7682   -1.7705   -2.2558 H   0  0  0  0  0  0  0  0  0  0  0  0
    4.4463   -1.9499   -1.7030 H   0  0  0  0  0  0  0  0  0  0  0  0
    4.0414   -0.8219   -3.0128 H   0  0  0  0  0  0  0  0  0  0  0  0
    5.1123    2.2934    1.9201 H   0  0  0  0  0  0  0  0  0  0  0  0
   -2.9404   -1.9513    0.5410 H   0  0  0  0  0  0  0  0  0  0  0  0
   -1.1832    1.8837   -0.4547 H   0  0  0  0  0  0  0  0  0  0  0  0
   -3.4178    2.8286   -0.7061 H   0  0  0  0  0  0  0  0  0  0  0  0
   -6.2994    1.1482   -1.2628 H   0  0  0  0  0  0  0  0  0  0  0  0
   -6.4151    1.3608    0.5037 H   0  0  0  0  0  0  0  0  0  0  0  0
   -5.7706    2.6587   -0.5029 H   0  0  0  0  0  0  0  0  0  0  0  0
  1 18  1  0  0  0  0
  2  9  1  0  0  0  0
  2 30  1  0  0  0  0
  3  6  1  0  0  0  0
  3 11  1  0  0  0  0
  4  7  1  0  0  0  0
  4 10  1  0  0  0  0
  4 12  1  0  0  0  0
  5 11  2  0  0  0  0
  5 13  1  0  0  0  0
  6 13  2  0  0  0  0
  7  8  1  0  0  0  0
  7 11  1  0  0  0  0
  7 21  1  0  0  0  0
  8  9  1  0  0  0  0
  8 22  1  0  0  0  0
  8 23  1  0  0  0  0
  9 10  1  0  0  0  0
  9 24  1  0  0  0  0
 10 25  1  0  0  0  0
 10 26  1  0  0  0  0
 12 27  1  0  0  0  0
 12 28  1  0  0  0  0
 12 29  1  0  0  0  0
 13 14  1  0  0  0  0
 14 15  2  0  0  0  0
 14 16  1  0  0  0  0
 15 18  1  0  0  0  0
 15 31  1  0  0  0  0
 16 19  2  0  0  0  0
 16 32  1  0  0  0  0
 17 18  2  0  0  0  0
 17 19  1  0  0  0  0
 17 20  1  0  0  0  0
 19 33  1  0  0  0  0
 20 34  1  0  0  0  0
 20 35  1  0  0  0  0
 20 36  1  0  0  0  0
M  END
> <PUBCHEM_COMPOUND_CID>
26744519

> <PUBCHEM_CONFORMER_RMSD>
0.6

> <PUBCHEM_CONFORMER_DIVERSEORDER>
1
18
11
17
16
9
3
13
22
14
21
10
12
2
5
4
8
15
7
6
19
20

> <PUBCHEM_MMFF94_PARTIAL_CHARGES>
23
1 -0.19
10 0.27
11 0.3
12 0.27
13 0.46
14 0.05
15 -0.15
16 -0.15
17 -0.14
18 0.19
19 -0.15
2 -0.68
20 0.14
3 -0.02
30 0.4
31 0.15
32 0.15
33 0.15
4 -0.81
5 -0.57
6 -0.41
7 0.45
9 0.28

> <PUBCHEM_EFFECTIVE_ROTOR_COUNT>
3

> <PUBCHEM_PHARMACOPHORE_FEATURES>
7
1 2 acceptor
1 2 donor
1 4 cation
3 5 6 13 cation
5 3 5 6 11 13 rings
5 4 7 8 9 10 rings
6 14 15 16 17 18 19 rings

> <PUBCHEM_HEAVY_ATOM_COUNT>
20

> <PUBCHEM_ATOM_DEF_STEREO_COUNT>
2

> <PUBCHEM_ATOM_UDEF_STEREO_COUNT>
0

> <PUBCHEM_BOND_DEF_STEREO_COUNT>
0

> <PUBCHEM_BOND_UDEF_STEREO_COUNT>
0

> <PUBCHEM_ISOTOPIC_ATOM_COUNT>
0

> <PUBCHEM_COMPONENT_COUNT>
1

> <PUBCHEM_CACTVS_TAUTO_COUNT>
1

> <PUBCHEM_CONFORMER_ID>
019816C700000001

> <PUBCHEM_MMFF94_ENERGY>
38.278

> <PUBCHEM_FEATURE_SELFOVERLAP>
35.522

> <PUBCHEM_SHAPE_FINGERPRINT>
10014705 185 18040712520860602469
10378564 45 18129104416131707950
10498660 4 18336546031917264997
10670039 82 17895769387322350764
10912923 1 15864078693029561427
11128504 68 15410895188790790512
11543360 7 17131826581785952630
12236239 1 17168144550769151374
12390115 104 18341625763512187889
12403259 118 16732975405910585541
12403259 415 18412553106171170786
12596602 18 16008752437054626616
12633257 1 14996003250746823992
12730499 353 18060426845639859246
12916748 109 18334862735512576691
13081056 2 18412546504885532044
13402501 40 18341325686805765200
13533116 47 16805876282448766066
13955234 65 18191867825242702547
14341114 328 16443069395570936280
14528608 73 18412259528319472525
15196674 1 18335137570749461531
15788980 27 12251902607477536851
15885798 251 10447927265193335595
15961568 22 18334579087805648148
17844677 252 18059303075725526593
1813 80 13470684832575951626
18186145 218 18271816683184088058
18222031 100 10447923975242819875
20645477 56 18342176712809824306
20645477 70 17274835636048882518
21150785 3 17203317940953986805
221357 26 17845937338107559960
22289505 5 17989205932737800640
23227448 37 18270114763458741708
23557571 272 18340496641646416279
23559900 14 18261963946734976582
26918003 58 11602818016721282532
2916195 48 18341325686462438488
300161 21 18041272189348038301
31174 14 12107788540852654870
341906 21 18040435481862409068
3472631 163 18188213216701977708
34797466 226 18060140938235689885
351380 3 13039189195089365420
3545911 37 18261114024309463437
465052 167 7925633336548235072
474 4 17168154424535013654
495365 180 17775279474633792506
4990 188 18201726115379868110
5104073 3 18187646847890863459
5281201 14 17774730762011595932
5374978 207 13912327867133033806
542803 24 17095527287974547823
5924683 9 12613337398692644929
59682541 52 17131265736767823173
633830 44 18201153252530872079
67856867 119 18188480264271767299
7164475 11 15122964880750734138
7808743 9 18190180286048732440
8988823 20 13118007724738975966
960060 61 15123509207435776676
9981440 41 17967814955325509299

> <PUBCHEM_SHAPE_MULTIPOLES>
377.64
12.99
1.88
1.11
3.59
0.06
0.37
5.67
0.92
-0.01
-0.17
-1.65
-0.13
1.54

> <PUBCHEM_SHAPE_SELFOVERLAP>
814.02

> <PUBCHEM_SHAPE_VOLUME>
212.3

> <PUBCHEM_COORDINATE_TYPE>
2
5
10

$$$$
