40780662
  -OEChem-12032416173D

 63 66  0     1  0  0  0  0  0999 V2000
   -8.7156    0.3344    0.7618 F   0  0  0  0  0  0  0  0  0  0  0  0
    3.1338   -5.3305   -0.5378 F   0  0  0  0  0  0  0  0  0  0  0  0
   -1.5723   -5.7663   -0.3240 F   0  0  0  0  0  0  0  0  0  0  0  0
    3.5226    1.4295   -0.4990 O   0  0  0  0  0  0  0  0  0  0  0  0
    3.9693    4.7973    0.6662 O   0  0  0  0  0  0  0  0  0  0  0  0
    5.8653    3.3592   -0.7143 O   0  0  0  0  0  0  0  0  0  0  0  0
    1.3475    1.6137   -2.0043 O   0  0  0  0  0  0  0  0  0  0  0  0
    2.1344   -0.6392    1.0976 O   0  0  0  0  0  0  0  0  0  0  0  0
   -0.5899    1.9152   -0.7571 N   0  0  0  0  0  0  0  0  0  0  0  0
   -3.3976    1.4097   -0.2651 N   0  0  0  0  0  0  0  0  0  0  0  0
    4.4115   -0.9394    0.8232 N   0  0  0  0  0  0  0  0  0  0  0  0
    2.9915   -2.6923    0.3487 N   0  0  0  0  0  0  0  0  0  0  0  0
    3.0474    2.7753   -0.3199 C   0  0  2  0  0  0  0  0  0  0  0  0
    3.9414    3.3882    0.7447 C   0  0  1  0  0  0  0  0  0  0  0  0
    5.2750    2.7429    0.4295 C   0  0  1  0  0  0  0  0  0  0  0  0
    4.8594    1.3278    0.0429 C   0  0  1  0  0  0  0  0  0  0  0  0
    1.5794    2.7521    0.0666 C   0  0  0  0  0  0  0  0  0  0  0  0
    4.8095    0.3758    1.2302 C   0  0  0  0  0  0  0  0  0  0  0  0
    0.7791    2.0401   -0.9963 C   0  0  0  0  0  0  0  0  0  0  0  0
   -1.4342    1.2427   -1.7413 C   0  0  0  0  0  0  0  0  0  0  0  0
   -1.2616    2.4127    0.4456 C   0  0  0  0  0  0  0  0  0  0  0  0
   -2.5944    0.4979   -1.0846 C   0  0  0  0  0  0  0  0  0  0  0  0
   -2.7609    2.6289    0.2397 C   0  0  0  0  0  0  0  0  0  0  0  0
   -4.7389    1.1385   -0.0061 C   0  0  0  0  0  0  0  0  0  0  0  0
    3.0736   -1.3665    0.7836 C   0  0  0  0  0  0  0  0  0  0  0  0
   -5.1843   -0.1820    0.0548 C   0  0  0  0  0  0  0  0  0  0  0  0
   -5.6368    2.1872    0.1926 C   0  0  0  0  0  0  0  0  0  0  0  0
   -6.5276   -0.4537    0.3141 C   0  0  0  0  0  0  0  0  0  0  0  0
   -6.9800    1.9156    0.4519 C   0  0  0  0  0  0  0  0  0  0  0  0
   -7.4255    0.5952    0.5127 C   0  0  0  0  0  0  0  0  0  0  0  0
    1.8286   -3.4788    0.1763 C   0  0  0  0  0  0  0  0  0  0  0  0
    1.9339   -4.7965   -0.2690 C   0  0  0  0  0  0  0  0  0  0  0  0
    0.5745   -2.9341    0.4525 C   0  0  0  0  0  0  0  0  0  0  0  0
    0.7852   -5.5693   -0.4381 C   0  0  0  0  0  0  0  0  0  0  0  0
   -0.5743   -3.7069    0.2834 C   0  0  0  0  0  0  0  0  0  0  0  0
   -0.4689   -5.0246   -0.1619 C   0  0  0  0  0  0  0  0  0  0  0  0
    3.1696    3.3035   -1.2752 H   0  0  0  0  0  0  0  0  0  0  0  0
    3.6084    3.0961    1.7479 H   0  0  0  0  0  0  0  0  0  0  0  0
    5.9932    2.8026    1.2521 H   0  0  0  0  0  0  0  0  0  0  0  0
    5.4977    0.9135   -0.7463 H   0  0  0  0  0  0  0  0  0  0  0  0
    1.2163    3.7786    0.1765 H   0  0  0  0  0  0  0  0  0  0  0  0
    1.4443    2.2123    1.0107 H   0  0  0  0  0  0  0  0  0  0  0  0
    4.1025    0.7279    1.9892 H   0  0  0  0  0  0  0  0  0  0  0  0
    5.7976    0.2890    1.6934 H   0  0  0  0  0  0  0  0  0  0  0  0
   -0.8344    0.5493   -2.3405 H   0  0  0  0  0  0  0  0  0  0  0  0
   -1.8112    2.0186   -2.4189 H   0  0  0  0  0  0  0  0  0  0  0  0
   -0.8056    3.3486    0.7782 H   0  0  0  0  0  0  0  0  0  0  0  0
   -1.0913    1.6651    1.2302 H   0  0  0  0  0  0  0  0  0  0  0  0
   -3.2011    0.0498   -1.8809 H   0  0  0  0  0  0  0  0  0  0  0  0
   -2.2060   -0.3106   -0.4530 H   0  0  0  0  0  0  0  0  0  0  0  0
   -3.1896    2.9283    1.2039 H   0  0  0  0  0  0  0  0  0  0  0  0
   -2.9257    3.4451   -0.4743 H   0  0  0  0  0  0  0  0  0  0  0  0
    4.6443    5.1106    1.2920 H   0  0  0  0  0  0  0  0  0  0  0  0
    6.6966    2.8903   -0.9004 H   0  0  0  0  0  0  0  0  0  0  0  0
    5.1351   -1.5920    0.5380 H   0  0  0  0  0  0  0  0  0  0  0  0
   -4.5088   -1.0222   -0.0803 H   0  0  0  0  0  0  0  0  0  0  0  0
   -5.3271    3.2270    0.1359 H   0  0  0  0  0  0  0  0  0  0  0  0
    3.8685   -3.1572    0.1273 H   0  0  0  0  0  0  0  0  0  0  0  0
   -6.8744   -1.4816    0.3649 H   0  0  0  0  0  0  0  0  0  0  0  0
   -7.6804    2.7317    0.6032 H   0  0  0  0  0  0  0  0  0  0  0  0
    0.4103   -1.9232    0.7981 H   0  0  0  0  0  0  0  0  0  0  0  0
    0.8669   -6.5951   -0.7848 H   0  0  0  0  0  0  0  0  0  0  0  0
   -1.5516   -3.2835    0.4968 H   0  0  0  0  0  0  0  0  0  0  0  0
  1 30  1  0  0  0  0
  2 32  1  0  0  0  0
  3 36  1  0  0  0  0
  4 13  1  0  0  0  0
  4 16  1  0  0  0  0
  5 14  1  0  0  0  0
  5 53  1  0  0  0  0
  6 15  1  0  0  0  0
  6 54  1  0  0  0  0
  7 19  2  0  0  0  0
  8 25  2  0  0  0  0
  9 19  1  0  0  0  0
  9 20  1  0  0  0  0
  9 21  1  0  0  0  0
 10 22  1  0  0  0  0
 10 23  1  0  0  0  0
 10 24  1  0  0  0  0
 11 18  1  0  0  0  0
 11 25  1  0  0  0  0
 11 55  1  0  0  0  0
 12 25  1  0  0  0  0
 12 31  1  0  0  0  0
 12 58  1  0  0  0  0
 13 14  1  0  0  0  0
 13 17  1  0  0  0  0
 13 37  1  0  0  0  0
 14 15  1  0  0  0  0
 14 38  1  0  0  0  0
 15 16  1  0  0  0  0
 15 39  1  0  0  0  0
 16 18  1  0  0  0  0
 16 40  1  0  0  0  0
 17 19  1  0  0  0  0
 17 41  1  0  0  0  0
 17 42  1  0  0  0  0
 18 43  1  0  0  0  0
 18 44  1  0  0  0  0
 20 22  1  0  0  0  0
 20 45  1  0  0  0  0
 20 46  1  0  0  0  0
 21 23  1  0  0  0  0
 21 47  1  0  0  0  0
 21 48  1  0  0  0  0
 22 49  1  0  0  0  0
 22 50  1  0  0  0  0
 23 51  1  0  0  0  0
 23 52  1  0  0  0  0
 24 26  2  0  0  0  0
 24 27  1  0  0  0  0
 26 28  1  0  0  0  0
 26 56  1  0  0  0  0
 27 29  2  0  0  0  0
 27 57  1  0  0  0  0
 28 30  2  0  0  0  0
 28 59  1  0  0  0  0
 29 30  1  0  0  0  0
 29 60  1  0  0  0  0
 31 32  2  0  0  0  0
 31 33  1  0  0  0  0
 32 34  1  0  0  0  0
 33 35  2  0  0  0  0
 33 61  1  0  0  0  0
 34 36  2  0  0  0  0
 34 62  1  0  0  0  0
 35 36  1  0  0  0  0
 35 63  1  0  0  0  0
M  END
> <PUBCHEM_COMPOUND_CID>
40780662

> <PUBCHEM_CONFORMER_RMSD>
1.2

> <PUBCHEM_CONFORMER_DIVERSEORDER>
1
29
4
57
44
102
72
10
41
152
85
61
147
11
13
87
130
40
19
37
78
48
90
148
138
55
129
75
112
51
108
49
63
91
82
18
118
115
116
50
140
5
68
135
71
137
125
145
15
33
107
155
69
30
105
150
58
121
131
56
21
20
77
123
2
146
99
141
65
114
96
76
133
36
35
113
88
124
28
132
93
127
60
117
144
26
73
136
53
45
98
16
139
70
24
156
120
119
31
83
39
154
32
101
64
110
23
74
81
52
42
100
128
126
95
153
97
54
38
89
143
14
79
142
149
6
84
25
92
94
47
151
80
111
66
8
86
59
27
134
104
7
106
46
43
9
62
157
122
103
12
67
17
22
3
109
34

> <PUBCHEM_MMFF94_PARTIAL_CHARGES>
47
1 -0.19
10 -0.84
11 -0.73
12 -0.55
13 0.28
14 0.28
15 0.28
16 0.28
17 0.06
18 0.3
19 0.57
2 -0.19
20 0.3
21 0.3
22 0.37
23 0.37
24 0.1
25 0.69
26 -0.15
27 -0.15
28 -0.15
29 -0.15
3 -0.19
30 0.19
31 0.12
32 0.19
33 -0.15
34 -0.15
35 -0.15
36 0.19
4 -0.56
5 -0.68
53 0.4
54 0.4
55 0.37
56 0.15
57 0.15
58 0.37
59 0.15
6 -0.68
60 0.15
61 0.15
62 0.15
63 0.15
7 -0.57
8 -0.57
9 -0.66

> <PUBCHEM_EFFECTIVE_ROTOR_COUNT>
11.2

> <PUBCHEM_PHARMACOPHORE_FEATURES>
14
1 10 cation
1 11 donor
1 12 donor
1 4 acceptor
1 5 acceptor
1 5 donor
1 6 acceptor
1 6 donor
1 7 acceptor
1 8 acceptor
5 4 13 14 15 16 rings
6 24 26 27 28 29 30 rings
6 31 32 33 34 35 36 rings
6 9 10 20 21 22 23 rings

> <PUBCHEM_HEAVY_ATOM_COUNT>
36

> <PUBCHEM_ATOM_DEF_STEREO_COUNT>
4

> <PUBCHEM_ATOM_UDEF_STEREO_COUNT>
0

> <PUBCHEM_BOND_DEF_STEREO_COUNT>
0

> <PUBCHEM_BOND_UDEF_STEREO_COUNT>
0

> <PUBCHEM_ISOTOPIC_ATOM_COUNT>
0

> <PUBCHEM_COMPONENT_COUNT>
1

> <PUBCHEM_CACTVS_TAUTO_COUNT>
3

> <PUBCHEM_CONFORMER_ID>
026E437600000001

> <PUBCHEM_MMFF94_ENERGY>
102.2441

> <PUBCHEM_FEATURE_SELFOVERLAP>
71.119

> <PUBCHEM_SHAPE_FINGERPRINT>
10258939 38 17531239535548742389
10316853 100 18335707122083707286
11014199 57 17475232397525264098
11719270 70 18409165519926966573
11828042 200 17690290313752323382
12677640 9 18052820540448092227
12788726 201 17180255920673842780
1361 2 18410012104856136859
13692114 37 18339913943523116922
13785724 45 17766565650950484389
13835254 42 17186437387982608128
14028597 1 17845948355389609065
14790565 3 18339357573543949739
15297060 5 18271801367467887122
15320467 1 18267020561877019019
15351339 4 17545000125528898015
15400415 2 18339078306302638473
15406563 47 18040716962141662787
15419008 42 17680967631879216493
15483637 11 18049439545785768682
15927050 60 18341332305249920775
16993438 75 17974854174431318203
18365409 1 18120381118690080788
19319366 153 18272922817345479336
1979834 28 18334013869549642613
21057603 199 18340499915646113358
21133410 38 18343013416038274263
21197605 99 18334017224351806347
21344244 181 18341908376876570478
21792965 131 18271227423300554375
23516275 137 18262819392134089307
404807 14 17474395673777436299
4144715 1 18045225930246745401
5309563 4 17834394519004874686
5776283 40 18338533966943242526
59520647 33 18197499748146233467
6176135 31 18411128126306680307
653340 110 17834950155024396072
6609424 69 17176914405710250186
9777508 108 18051967323477202064

> <PUBCHEM_SHAPE_MULTIPOLES>
669.77
16.03
8.55
1.07
30.59
14.94
-0.29
-13.52
4.61
-10.11
-0.69
-0.29
-0.41
-0.03

> <PUBCHEM_SHAPE_SELFOVERLAP>
1432.509

> <PUBCHEM_SHAPE_VOLUME>
369.5

> <PUBCHEM_COORDINATE_TYPE>
2
5
10

$$$$
