7050109
  -OEChem-12032416193D

 56 58  0     1  0  0  0  0  0999 V2000
   -3.8166   -3.2411    1.4505 Cl  0  0  0  0  0  0  0  0  0  0  0  0
   -6.6305   -2.3105    1.3561 F   0  0  0  0  0  0  0  0  0  0  0  0
   -0.6680    3.1427    1.5551 O   0  0  0  0  0  0  0  0  0  0  0  0
    0.7040    4.8162   -1.3945 O   0  0  0  0  0  0  0  0  0  0  0  0
    4.0030    1.5507   -1.0436 O   0  0  0  0  0  0  0  0  0  0  0  0
   -3.3475    2.1835   -1.6075 O   0  0  0  0  0  0  0  0  0  0  0  0
    4.5795    0.1752    2.6515 O   0  0  0  0  0  0  0  0  0  0  0  0
   -1.6728    1.3128   -0.2603 N   0  0  0  0  0  0  0  0  0  0  0  0
    2.9616    0.0757    0.4310 N   0  0  0  0  0  0  0  0  0  0  0  0
    6.2826   -0.7347    1.4074 N   0  0  0  0  0  0  0  0  0  0  0  0
   -0.5944    3.4911    0.1710 C   0  0  2  0  0  0  0  0  0  0  0  0
   -0.6283    2.2117   -0.6867 C   0  0  1  0  0  0  0  0  0  0  0  0
    0.6904    4.2940   -0.0675 C   0  0  1  0  0  0  0  0  0  0  0  0
    1.9537    3.4522    0.1812 C   0  0  0  0  0  0  0  0  0  0  0  0
    1.8284    2.0335   -0.2969 C   0  0  0  0  0  0  0  0  0  0  0  0
    0.6796    1.4676   -0.6967 C   0  0  0  0  0  0  0  0  0  0  0  0
    3.0422    1.2137   -0.3525 C   0  0  0  0  0  0  0  0  0  0  0  0
    4.0334   -0.8882    0.5357 C   0  0  2  0  0  0  0  0  0  0  0  0
   -2.9634    1.3765   -0.7651 C   0  0  0  0  0  0  0  0  0  0  0  0
    3.5174   -2.2969    0.8507 C   0  0  0  0  0  0  0  0  0  0  0  0
   -3.9298    0.3975   -0.2042 C   0  0  0  0  0  0  0  0  0  0  0  0
    2.5648   -2.8177   -0.1979 C   0  0  0  0  0  0  0  0  0  0  0  0
    4.9635   -0.4056    1.6391 C   0  0  0  0  0  0  0  0  0  0  0  0
    1.1955   -2.5826   -0.0747 C   0  0  0  0  0  0  0  0  0  0  0  0
    3.0539   -3.5347   -1.2899 C   0  0  0  0  0  0  0  0  0  0  0  0
   -3.4756   -0.8211    0.3004 C   0  0  0  0  0  0  0  0  0  0  0  0
   -5.2917    0.6979   -0.1809 C   0  0  0  0  0  0  0  0  0  0  0  0
    0.3152   -3.0642   -1.0437 C   0  0  0  0  0  0  0  0  0  0  0  0
    2.1736   -4.0161   -2.2590 C   0  0  0  0  0  0  0  0  0  0  0  0
   -4.3834   -1.7392    0.8286 C   0  0  0  0  0  0  0  0  0  0  0  0
   -6.1994   -0.2202    0.3471 C   0  0  0  0  0  0  0  0  0  0  0  0
    0.8043   -3.7808   -2.1359 C   0  0  0  0  0  0  0  0  0  0  0  0
   -5.7453   -1.4388    0.8519 C   0  0  0  0  0  0  0  0  0  0  0  0
   -1.4762    4.0996   -0.0642 H   0  0  0  0  0  0  0  0  0  0  0  0
   -0.8344    2.4979   -1.7265 H   0  0  0  0  0  0  0  0  0  0  0  0
    0.7137    5.1549    0.6118 H   0  0  0  0  0  0  0  0  0  0  0  0
    2.1572    3.4232    1.2592 H   0  0  0  0  0  0  0  0  0  0  0  0
    2.8142    3.9287   -0.3037 H   0  0  0  0  0  0  0  0  0  0  0  0
    0.6690    0.4485   -1.0769 H   0  0  0  0  0  0  0  0  0  0  0  0
   -1.4550    0.6843    0.5065 H   0  0  0  0  0  0  0  0  0  0  0  0
   -0.6742    3.9706    2.0651 H   0  0  0  0  0  0  0  0  0  0  0  0
    1.5085    5.3536   -1.4911 H   0  0  0  0  0  0  0  0  0  0  0  0
    4.5772   -0.8919   -0.4176 H   0  0  0  0  0  0  0  0  0  0  0  0
    2.1501   -0.0566    1.0284 H   0  0  0  0  0  0  0  0  0  0  0  0
    3.0157   -2.3087    1.8284 H   0  0  0  0  0  0  0  0  0  0  0  0
    4.3611   -2.9920    0.9548 H   0  0  0  0  0  0  0  0  0  0  0  0
    0.7983   -2.0303    0.7728 H   0  0  0  0  0  0  0  0  0  0  0  0
    4.1189   -3.7224   -1.3976 H   0  0  0  0  0  0  0  0  0  0  0  0
   -2.4241   -1.0932    0.2665 H   0  0  0  0  0  0  0  0  0  0  0  0
   -5.6649    1.6437   -0.5647 H   0  0  0  0  0  0  0  0  0  0  0  0
    7.0063   -0.4836    2.0727 H   0  0  0  0  0  0  0  0  0  0  0  0
    6.5823   -1.2349    0.5766 H   0  0  0  0  0  0  0  0  0  0  0  0
   -0.7511   -2.8819   -0.9474 H   0  0  0  0  0  0  0  0  0  0  0  0
    2.5544   -4.5736   -3.1097 H   0  0  0  0  0  0  0  0  0  0  0  0
   -7.2597    0.0138    0.3666 H   0  0  0  0  0  0  0  0  0  0  0  0
    0.1188   -4.1556   -2.8903 H   0  0  0  0  0  0  0  0  0  0  0  0
  1 30  1  0  0  0  0
  2 33  1  0  0  0  0
  3 11  1  0  0  0  0
  3 41  1  0  0  0  0
  4 13  1  0  0  0  0
  4 42  1  0  0  0  0
  5 17  2  0  0  0  0
  6 19  2  0  0  0  0
  7 23  2  0  0  0  0
  8 12  1  0  0  0  0
  8 19  1  0  0  0  0
  8 40  1  0  0  0  0
  9 17  1  0  0  0  0
  9 18  1  0  0  0  0
  9 44  1  0  0  0  0
 10 23  1  0  0  0  0
 10 51  1  0  0  0  0
 10 52  1  0  0  0  0
 11 12  1  0  0  0  0
 11 13  1  0  0  0  0
 11 34  1  0  0  0  0
 12 16  1  0  0  0  0
 12 35  1  0  0  0  0
 13 14  1  0  0  0  0
 13 36  1  0  0  0  0
 14 15  1  0  0  0  0
 14 37  1  0  0  0  0
 14 38  1  0  0  0  0
 15 16  2  0  0  0  0
 15 17  1  0  0  0  0
 16 39  1  0  0  0  0
 18 20  1  0  0  0  0
 18 23  1  0  0  0  0
 18 43  1  0  0  0  0
 19 21  1  0  0  0  0
 20 22  1  0  0  0  0
 20 45  1  0  0  0  0
 20 46  1  0  0  0  0
 21 26  2  0  0  0  0
 21 27  1  0  0  0  0
 22 24  2  0  0  0  0
 22 25  1  0  0  0  0
 24 28  1  0  0  0  0
 24 47  1  0  0  0  0
 25 29  2  0  0  0  0
 25 48  1  0  0  0  0
 26 30  1  0  0  0  0
 26 49  1  0  0  0  0
 27 31  2  0  0  0  0
 27 50  1  0  0  0  0
 28 32  2  0  0  0  0
 28 53  1  0  0  0  0
 29 32  1  0  0  0  0
 29 54  1  0  0  0  0
 30 33  2  0  0  0  0
 31 33  1  0  0  0  0
 31 55  1  0  0  0  0
 32 56  1  0  0  0  0
M  END
> <PUBCHEM_COMPOUND_CID>
7050109

> <PUBCHEM_CONFORMER_RMSD>
1.2

> <PUBCHEM_CONFORMER_DIVERSEORDER>
1
81
98
87
37
113
72
118
31
19
84
20
69
99
94
102
82
148
17
56
95
29
60
149
109
143
62
46
21
68
110
54
124
119
30
146
9
140
26
36
59
33
41
91
63
103
53
74
67
137
147
78
88
25
16
44
142
42
50
107
8
24
131
130
76
64
66
14
127
12
106
3
43
7
138
73
71
38
90
34
32
79
45
13
22
122
117
134
47
75
136
97
40
83
57
121
108
120
18
116
96
35
11
51
129
4
65
6
144
101
139
77
125
2
27
55
135
58
104
115
128
10
105
48
111
114
112
5
39
61
100
23
133
132
145
15
28
49
52
126
86
70
89
92
85
150
141
80
93
123

> <PUBCHEM_MMFF94_PARTIAL_CHARGES>
48
1 -0.18
10 -0.8
11 0.28
12 0.44
13 0.28
14 0.14
15 -0.12
16 -0.29
17 0.62
18 0.36
19 0.54
2 -0.19
20 0.14
21 0.09
22 -0.14
23 0.57
24 -0.15
25 -0.15
26 -0.15
27 -0.15
28 -0.15
29 -0.15
3 -0.68
30 0.18
31 -0.15
32 -0.15
33 0.19
39 0.15
4 -0.68
40 0.37
41 0.4
42 0.4
44 0.37
47 0.15
48 0.15
49 0.15
5 -0.57
50 0.15
51 0.37
52 0.37
53 0.15
54 0.15
55 0.15
56 0.15
6 -0.57
7 -0.57
8 -0.73
9 -0.73

> <PUBCHEM_EFFECTIVE_ROTOR_COUNT>
9.8

> <PUBCHEM_PHARMACOPHORE_FEATURES>
13
1 10 donor
1 3 acceptor
1 3 donor
1 4 acceptor
1 4 donor
1 5 acceptor
1 6 acceptor
1 7 acceptor
1 8 donor
1 9 donor
6 11 12 13 14 15 16 rings
6 21 26 27 30 31 33 rings
6 22 24 25 28 29 32 rings

> <PUBCHEM_HEAVY_ATOM_COUNT>
33

> <PUBCHEM_ATOM_DEF_STEREO_COUNT>
4

> <PUBCHEM_ATOM_UDEF_STEREO_COUNT>
0

> <PUBCHEM_BOND_DEF_STEREO_COUNT>
0

> <PUBCHEM_BOND_UDEF_STEREO_COUNT>
0

> <PUBCHEM_ISOTOPIC_ATOM_COUNT>
0

> <PUBCHEM_COMPONENT_COUNT>
1

> <PUBCHEM_CACTVS_TAUTO_COUNT>
8

> <PUBCHEM_CONFORMER_ID>
006B937D00000001

> <PUBCHEM_MMFF94_ENERGY>
74.9618

> <PUBCHEM_FEATURE_SELFOVERLAP>
65.98

> <PUBCHEM_SHAPE_FINGERPRINT>
11828532 37 17532099470091045339
12107183 9 18337681824194483873
12422481 6 18340195371530019994
131258 38 17532640433874646250
13402501 40 18409165485229650851
140371 6 18338518521497079461
14068700 686 18198048197962736472
150020 26 18341328980981708513
15927050 60 17691970783967082972
17909252 39 18128266579871935486
19319366 153 17751924868365023988
1979834 28 18272934924911398131
20028762 73 17986395709681660335
20567600 70 18260542351098493112
20764821 26 18047217192120217251
21197605 99 18265338493875967971
21315759 227 18261104119735259413
21796203 349 18192734408182908056
22113638 7 18340195410236732436
23572383 38 18265885870261337735
255183 313 17986929986865936234
42626532 9 17691142438856865535
445580 102 18410575054846279943
4461854 278 18272373104861877998
5265222 85 17832163966262931021
5309563 4 18411421683031324613
563151 40 17254010052316204956
613672 6 18266445538765013829
6823239 73 18266467515960102294

> <PUBCHEM_SHAPE_MULTIPOLES>
629.43
12.6
6.54
1.75
11.88
1.82
-0.11
-7.27
-6.63
-2.6
2.69
-1.4
-1.12
2.56

> <PUBCHEM_SHAPE_SELFOVERLAP>
1334.748

> <PUBCHEM_SHAPE_VOLUME>
350.9

> <PUBCHEM_COORDINATE_TYPE>
2
5
10

$$$$
