45783381
  -OEChem-12032416263D

 54 57  0     1  0  0  0  0  0999 V2000
    0.5857    1.3023   -2.0496 O   0  0  0  0  0  0  0  0  0  0  0  0
    2.3456    2.3926    0.6707 O   0  0  0  0  0  0  0  0  0  0  0  0
   -0.0718    4.5863    0.4540 O   0  0  0  0  0  0  0  0  0  0  0  0
    0.1621   -3.2294    1.3873 O   0  0  0  0  0  0  0  0  0  0  0  0
    2.8277   -0.8645   -0.4285 N   0  0  1  0  0  0  0  0  0  0  0  0
   -0.2281   -0.5502   -1.0889 N   0  0  0  0  0  0  0  0  0  0  0  0
   -0.7741    1.5476   -1.8204 N   0  0  0  0  0  0  0  0  0  0  0  0
   -1.8429   -1.2773    0.9360 N   0  0  0  0  0  0  0  0  0  0  0  0
   -4.1490   -0.8368    0.6410 N   0  0  0  0  0  0  0  0  0  0  0  0
    2.2438   -0.4637   -1.7241 C   0  0  1  0  0  0  0  0  0  0  0  0
    2.3427   -1.7235   -2.6042 C   0  0  0  0  0  0  0  0  0  0  0  0
    3.0493   -2.7579   -1.7398 C   0  0  0  0  0  0  0  0  0  0  0  0
    3.7963   -1.9213   -0.7208 C   0  0  0  0  0  0  0  0  0  0  0  0
    3.4301    0.2458    0.2981 C   0  0  0  0  0  0  0  0  0  0  0  0
    0.8241    0.0459   -1.5902 C   0  0  0  0  0  0  0  0  0  0  0  0
    2.3960    1.0776    1.0091 C   0  0  0  0  0  0  0  0  0  0  0  0
    1.4512    0.7883    1.9661 C   0  0  0  0  0  0  0  0  0  0  0  0
   -1.1841    0.4098   -1.2520 C   0  0  0  0  0  0  0  0  0  0  0  0
    1.3578    2.9492    1.4200 C   0  0  0  0  0  0  0  0  0  0  0  0
    0.7768    2.0037    2.2328 C   0  0  0  0  0  0  0  0  0  0  0  0
   -2.5410    0.1997   -0.8373 C   0  0  0  0  0  0  0  0  0  0  0  0
    1.1195    4.3853    1.2185 C   0  0  0  0  0  0  0  0  0  0  0  0
   -2.8803   -0.6196    0.2274 C   0  0  0  0  0  0  0  0  0  0  0  0
   -3.5700    0.8374   -1.5215 C   0  0  0  0  0  0  0  0  0  0  0  0
   -4.8881    0.6389   -1.1257 C   0  0  0  0  0  0  0  0  0  0  0  0
   -2.0741   -2.4288    1.7448 C   0  0  0  0  0  0  0  0  0  0  0  0
   -5.1223   -0.2001   -0.0482 C   0  0  0  0  0  0  0  0  0  0  0  0
   -0.7762   -2.8759    2.3957 C   0  0  0  0  0  0  0  0  0  0  0  0
    1.3933   -3.6613    1.9498 C   0  0  0  0  0  0  0  0  0  0  0  0
    2.8541    0.3163   -2.2010 H   0  0  0  0  0  0  0  0  0  0  0  0
    1.3751   -2.1016   -2.9512 H   0  0  0  0  0  0  0  0  0  0  0  0
    2.9542   -1.5072   -3.4888 H   0  0  0  0  0  0  0  0  0  0  0  0
    3.7150   -3.3998   -2.3242 H   0  0  0  0  0  0  0  0  0  0  0  0
    2.3074   -3.3969   -1.2461 H   0  0  0  0  0  0  0  0  0  0  0  0
    4.7171   -1.5184   -1.1614 H   0  0  0  0  0  0  0  0  0  0  0  0
    4.0531   -2.5043    0.1688 H   0  0  0  0  0  0  0  0  0  0  0  0
    4.0578    0.8717   -0.3487 H   0  0  0  0  0  0  0  0  0  0  0  0
    4.0918   -0.1452    1.0831 H   0  0  0  0  0  0  0  0  0  0  0  0
    1.2699   -0.1764    2.4170 H   0  0  0  0  0  0  0  0  0  0  0  0
   -0.0323    2.1669    2.9302 H   0  0  0  0  0  0  0  0  0  0  0  0
    0.9977    4.8918    2.1813 H   0  0  0  0  0  0  0  0  0  0  0  0
    1.9515    4.8555    0.6845 H   0  0  0  0  0  0  0  0  0  0  0  0
   -3.3777    1.4882   -2.3709 H   0  0  0  0  0  0  0  0  0  0  0  0
   -0.9591   -0.7866    1.0170 H   0  0  0  0  0  0  0  0  0  0  0  0
   -2.8079   -2.2124    2.5293 H   0  0  0  0  0  0  0  0  0  0  0  0
   -2.4655   -3.2404    1.1203 H   0  0  0  0  0  0  0  0  0  0  0  0
   -5.7065    1.1240   -1.6451 H   0  0  0  0  0  0  0  0  0  0  0  0
   -6.1327   -0.3884    0.2997 H   0  0  0  0  0  0  0  0  0  0  0  0
   -0.1867    5.5470    0.3563 H   0  0  0  0  0  0  0  0  0  0  0  0
   -0.9709   -3.7455    3.0340 H   0  0  0  0  0  0  0  0  0  0  0  0
   -0.3631   -2.0714    3.0160 H   0  0  0  0  0  0  0  0  0  0  0  0
    2.0570   -3.9672    1.1379 H   0  0  0  0  0  0  0  0  0  0  0  0
    1.2361   -4.5201    2.6097 H   0  0  0  0  0  0  0  0  0  0  0  0
    1.8682   -2.8441    2.5011 H   0  0  0  0  0  0  0  0  0  0  0  0
  1  7  1  0  0  0  0
  1 15  1  0  0  0  0
  2 16  1  0  0  0  0
  2 19  1  0  0  0  0
  3 22  1  0  0  0  0
  3 49  1  0  0  0  0
  4 28  1  0  0  0  0
  4 29  1  0  0  0  0
  5 10  1  0  0  0  0
  5 13  1  0  0  0  0
  5 14  1  0  0  0  0
  6 15  2  0  0  0  0
  6 18  1  0  0  0  0
  7 18  2  0  0  0  0
  8 23  1  0  0  0  0
  8 26  1  0  0  0  0
  8 44  1  0  0  0  0
  9 23  1  0  0  0  0
  9 27  2  0  0  0  0
 10 11  1  0  0  0  0
 10 15  1  0  0  0  0
 10 30  1  0  0  0  0
 11 12  1  0  0  0  0
 11 31  1  0  0  0  0
 11 32  1  0  0  0  0
 12 13  1  0  0  0  0
 12 33  1  0  0  0  0
 12 34  1  0  0  0  0
 13 35  1  0  0  0  0
 13 36  1  0  0  0  0
 14 16  1  0  0  0  0
 14 37  1  0  0  0  0
 14 38  1  0  0  0  0
 16 17  2  0  0  0  0
 17 20  1  0  0  0  0
 17 39  1  0  0  0  0
 18 21  1  0  0  0  0
 19 20  2  0  0  0  0
 19 22  1  0  0  0  0
 20 40  1  0  0  0  0
 21 23  2  0  0  0  0
 21 24  1  0  0  0  0
 22 41  1  0  0  0  0
 22 42  1  0  0  0  0
 24 25  2  0  0  0  0
 24 43  1  0  0  0  0
 25 27  1  0  0  0  0
 25 47  1  0  0  0  0
 26 28  1  0  0  0  0
 26 45  1  0  0  0  0
 26 46  1  0  0  0  0
 27 48  1  0  0  0  0
 28 50  1  0  0  0  0
 28 51  1  0  0  0  0
 29 52  1  0  0  0  0
 29 53  1  0  0  0  0
 29 54  1  0  0  0  0
M  END
> <PUBCHEM_COMPOUND_CID>
45783381

> <PUBCHEM_CONFORMER_RMSD>
1

> <PUBCHEM_CONFORMER_DIVERSEORDER>
1
113
137
62
69
130
28
142
117
18
53
79
12
157
107
123
23
95
22
127
66
40
33
134
2
151
98
35
158
32
11
19
80
155
97
85
49
129
99
71
116
102
122
76
143
25
44
145
131
105
124
8
72
46
94
58
81
86
77
15
82
67
47
73
24
3
112
91
103
147
115
74
133
50
34
6
92
59
120
101
139
51
31
39
7
68
90
63
70
109
26
89
108
144
106
140
9
114
78
41
30
5
65
60
56
83
20
156
154
42
52
38
54
132
141
93
57
128
64
87
29
104
45
152
121
37
118
75
48
150
119
10
96
55
14
149
88
17
100
16
110
153
111
27
13
125
4
135
21
84
126
61
43
148
138
36
146
136

> <PUBCHEM_MMFF94_PARTIAL_CHARGES>
34
1 -0.02
10 0.45
13 0.27
14 0.45
15 0.3
16 -0.04
17 -0.15
18 0.46
19 -0.04
2 -0.28
20 -0.15
21 0.05
22 0.46
23 0.41
24 -0.15
25 -0.15
26 0.37
27 0.16
28 0.28
29 0.28
3 -0.68
39 0.15
4 -0.56
40 0.15
43 0.15
44 0.4
47 0.15
48 0.15
49 0.4
5 -0.81
6 -0.57
7 -0.41
8 -0.87
9 -0.62

> <PUBCHEM_EFFECTIVE_ROTOR_COUNT>
10

> <PUBCHEM_PHARMACOPHORE_FEATURES>
13
1 2 acceptor
1 3 acceptor
1 3 donor
1 4 acceptor
1 5 cation
1 8 cation
1 8 donor
1 9 acceptor
3 6 7 18 cation
5 1 6 7 15 18 rings
5 2 16 17 19 20 rings
5 5 10 11 12 13 rings
6 9 21 23 24 25 27 rings

> <PUBCHEM_HEAVY_ATOM_COUNT>
29

> <PUBCHEM_ATOM_DEF_STEREO_COUNT>
1

> <PUBCHEM_ATOM_UDEF_STEREO_COUNT>
0

> <PUBCHEM_BOND_DEF_STEREO_COUNT>
0

> <PUBCHEM_BOND_UDEF_STEREO_COUNT>
0

> <PUBCHEM_ISOTOPIC_ATOM_COUNT>
0

> <PUBCHEM_COMPONENT_COUNT>
1

> <PUBCHEM_CACTVS_TAUTO_COUNT>
8

> <PUBCHEM_CONFORMER_ID>
02BA995500000001

> <PUBCHEM_MMFF94_ENERGY>
53.5858

> <PUBCHEM_FEATURE_SELFOVERLAP>
65.973

> <PUBCHEM_SHAPE_FINGERPRINT>
11244481 83 18192999433276644800
11578080 2 17909577256217720251
11640471 11 16199302273161468617
12156800 1 17192896502840788274
12403259 327 18116408484035533696
12633257 1 18046036492778548937
12788726 201 18195816159060945406
133893 2 17344654714074084849
13583140 156 18059571455695047055
14114206 34 17907338426962740598
14840074 17 17774135995552109762
15003188 3 18408885157182969461
16752209 62 17313099748749427343
17093844 170 17894633613022326534
19930381 70 17988646263844130903
20600515 1 18113332029058042924
23559900 14 18187369839411167133
238 59 17987516098849776546
35225 105 17179912765455542306
4409770 3 14536421425909596717
474 4 17631159960903520629
513532 50 18127947790139826515
6086070 43 18125419944763391749

> <PUBCHEM_SHAPE_MULTIPOLES>
548.42
6.99
4.71
2.73
7.77
3.22
-0.12
-2.32
2.44
-3.13
-3.43
-0.9
-1.19
2.45

> <PUBCHEM_SHAPE_SELFOVERLAP>
1171.5

> <PUBCHEM_SHAPE_VOLUME>
306.8

> <PUBCHEM_COORDINATE_TYPE>
2
5
10

$$$$
