51137242
  -OEChem-12032416323D

 46 50  0     1  0  0  0  0  0999 V2000
    7.9618    2.8232   -0.4642 Cl  0  0  0  0  0  0  0  0  0  0  0  0
    2.3623   -0.7033    0.2290 O   0  0  0  0  0  0  0  0  0  0  0  0
   -1.6699   -0.2792    0.0940 N   0  0  1  0  0  0  0  0  0  0  0  0
    2.3546   -2.9394    0.1644 N   0  0  0  0  0  0  0  0  0  0  0  0
   -5.3352    2.1849    0.8094 N   0  0  0  0  0  0  0  0  0  0  0  0
    3.6577   -2.5115   -0.0086 N   0  0  0  0  0  0  0  0  0  0  0  0
    0.1453   -1.7028    0.5153 C   0  0  2  0  0  0  0  0  0  0  0  0
   -0.5453   -0.9085   -0.6015 C   0  0  0  0  0  0  0  0  0  0  0  0
   -0.2505   -0.9759    1.8123 C   0  0  0  0  0  0  0  0  0  0  0  0
   -1.1120    0.1961    1.3601 C   0  0  0  0  0  0  0  0  0  0  0  0
   -2.2733    0.7935   -0.6830 C   0  0  0  0  0  0  0  0  0  0  0  0
    1.6337   -1.8509    0.2992 C   0  0  0  0  0  0  0  0  0  0  0  0
   -3.6543    1.1346   -0.1899 C   0  0  0  0  0  0  0  0  0  0  0  0
   -4.8439    0.3879   -0.4180 C   0  0  0  0  0  0  0  0  0  0  0  0
   -3.9885    2.2335    0.5675 C   0  0  0  0  0  0  0  0  0  0  0  0
   -5.8836    1.0683    0.2196 C   0  0  0  0  0  0  0  0  0  0  0  0
    3.6145   -1.2004    0.0359 C   0  0  0  0  0  0  0  0  0  0  0  0
   -5.1369   -0.8054   -1.1078 C   0  0  0  0  0  0  0  0  0  0  0  0
   -7.2068    0.6134    0.2017 C   0  0  0  0  0  0  0  0  0  0  0  0
   -6.4561   -1.2724   -1.1340 C   0  0  0  0  0  0  0  0  0  0  0  0
    4.6632   -0.2296   -0.0847 C   0  0  0  0  0  0  0  0  0  0  0  0
   -7.4736   -0.5723   -0.4887 C   0  0  0  0  0  0  0  0  0  0  0  0
    5.9795   -0.6462   -0.2839 C   0  0  0  0  0  0  0  0  0  0  0  0
    4.3671    1.1310   -0.0031 C   0  0  0  0  0  0  0  0  0  0  0  0
    6.9996    0.2977   -0.4013 C   0  0  0  0  0  0  0  0  0  0  0  0
    5.3871    2.0750   -0.1205 C   0  0  0  0  0  0  0  0  0  0  0  0
    6.7034    1.6585   -0.3196 C   0  0  0  0  0  0  0  0  0  0  0  0
   -0.2838   -2.7138    0.5508 H   0  0  0  0  0  0  0  0  0  0  0  0
   -0.8862   -1.5702   -1.4053 H   0  0  0  0  0  0  0  0  0  0  0  0
    0.1255   -0.1569   -1.0382 H   0  0  0  0  0  0  0  0  0  0  0  0
    0.6075   -0.6367    2.4024 H   0  0  0  0  0  0  0  0  0  0  0  0
   -0.8399   -1.6539    2.4423 H   0  0  0  0  0  0  0  0  0  0  0  0
   -1.8840    0.4255    2.1011 H   0  0  0  0  0  0  0  0  0  0  0  0
   -0.4814    1.0841    1.2231 H   0  0  0  0  0  0  0  0  0  0  0  0
   -1.6404    1.6906   -0.7076 H   0  0  0  0  0  0  0  0  0  0  0  0
   -2.3810    0.4750   -1.7292 H   0  0  0  0  0  0  0  0  0  0  0  0
   -3.3904    3.0454    0.9572 H   0  0  0  0  0  0  0  0  0  0  0  0
   -5.8526    2.8690    1.3439 H   0  0  0  0  0  0  0  0  0  0  0  0
   -4.3556   -1.3635   -1.6158 H   0  0  0  0  0  0  0  0  0  0  0  0
   -7.9996    1.1577    0.7039 H   0  0  0  0  0  0  0  0  0  0  0  0
   -6.6880   -2.1922   -1.6644 H   0  0  0  0  0  0  0  0  0  0  0  0
   -8.4911   -0.9533   -0.5218 H   0  0  0  0  0  0  0  0  0  0  0  0
    6.2334   -1.7014   -0.3506 H   0  0  0  0  0  0  0  0  0  0  0  0
    3.3541    1.4941    0.1512 H   0  0  0  0  0  0  0  0  0  0  0  0
    8.0207   -0.0411   -0.5562 H   0  0  0  0  0  0  0  0  0  0  0  0
    5.1421    3.1320   -0.0549 H   0  0  0  0  0  0  0  0  0  0  0  0
  1 27  1  0  0  0  0
  2 12  1  0  0  0  0
  2 17  1  0  0  0  0
  3  8  1  0  0  0  0
  3 10  1  0  0  0  0
  3 11  1  0  0  0  0
  4  6  1  0  0  0  0
  4 12  2  0  0  0  0
  5 15  1  0  0  0  0
  5 16  1  0  0  0  0
  5 38  1  0  0  0  0
  6 17  2  0  0  0  0
  7  8  1  0  0  0  0
  7  9  1  0  0  0  0
  7 12  1  0  0  0  0
  7 28  1  0  0  0  0
  8 29  1  0  0  0  0
  8 30  1  0  0  0  0
  9 10  1  0  0  0  0
  9 31  1  0  0  0  0
  9 32  1  0  0  0  0
 10 33  1  0  0  0  0
 10 34  1  0  0  0  0
 11 13  1  0  0  0  0
 11 35  1  0  0  0  0
 11 36  1  0  0  0  0
 13 14  1  0  0  0  0
 13 15  2  0  0  0  0
 14 16  1  0  0  0  0
 14 18  2  0  0  0  0
 15 37  1  0  0  0  0
 16 19  2  0  0  0  0
 17 21  1  0  0  0  0
 18 20  1  0  0  0  0
 18 39  1  0  0  0  0
 19 22  1  0  0  0  0
 19 40  1  0  0  0  0
 20 22  2  0  0  0  0
 20 41  1  0  0  0  0
 21 23  2  0  0  0  0
 21 24  1  0  0  0  0
 22 42  1  0  0  0  0
 23 25  1  0  0  0  0
 23 43  1  0  0  0  0
 24 26  2  0  0  0  0
 24 44  1  0  0  0  0
 25 27  2  0  0  0  0
 25 45  1  0  0  0  0
 26 27  1  0  0  0  0
 26 46  1  0  0  0  0
M  END
> <PUBCHEM_COMPOUND_CID>
51137242

> <PUBCHEM_CONFORMER_RMSD>
0.8

> <PUBCHEM_CONFORMER_DIVERSEORDER>
1
81
9
36
99
115
47
100
8
12
87
82
119
144
26
120
75
27
62
129
114
60
134
121
86
2
40
76
77
142
73
79
145
101
44
118
98
108
23
93
91
133
22
124
6
117
110
104
25
94
18
146
53
102
45
122
105
123
43
139
30
96
85
109
90
55
7
72
132
63
127
78
92
116
66
138
10
56
42
84
29
24
37
65
83
111
35
128
113
137
68
95
64
46
34
50
38
32
71
4
17
88
97
48
58
11
31
3
112
59
28
89
141
21
130
13
61
14
106
135
69
70
33
57
131
51
39
41
107
74
125
140
20
80
136
52
16
143
54
67
126
103
5
19
15
49

> <PUBCHEM_MMFF94_PARTIAL_CHARGES>
35
1 -0.18
10 0.27
11 0.45
12 0.3
13 -0.18
15 -0.3
16 -0.15
17 0.43
18 -0.15
19 -0.15
2 -0.28
20 -0.15
21 0.05
22 -0.15
23 -0.15
24 -0.15
25 -0.15
26 -0.15
27 0.18
3 -0.81
37 0.15
38 0.27
39 0.15
4 -0.34
40 0.15
41 0.15
42 0.15
43 0.15
44 0.15
45 0.15
46 0.15
5 0.03
6 -0.34
7 0.18
8 0.27

> <PUBCHEM_EFFECTIVE_ROTOR_COUNT>
5

> <PUBCHEM_PHARMACOPHORE_FEATURES>
8
1 3 cation
1 5 cation
1 5 donor
5 2 4 6 12 17 rings
5 3 7 8 9 10 rings
5 5 13 14 15 16 rings
6 14 16 18 19 20 22 rings
6 21 23 24 25 26 27 rings

> <PUBCHEM_HEAVY_ATOM_COUNT>
27

> <PUBCHEM_ATOM_DEF_STEREO_COUNT>
1

> <PUBCHEM_ATOM_UDEF_STEREO_COUNT>
0

> <PUBCHEM_BOND_DEF_STEREO_COUNT>
0

> <PUBCHEM_BOND_UDEF_STEREO_COUNT>
0

> <PUBCHEM_ISOTOPIC_ATOM_COUNT>
0

> <PUBCHEM_COMPONENT_COUNT>
1

> <PUBCHEM_CACTVS_TAUTO_COUNT>
1

> <PUBCHEM_CONFORMER_ID>
030C4ADA00000001

> <PUBCHEM_MMFF94_ENERGY>
49.5503

> <PUBCHEM_FEATURE_SELFOVERLAP>
40.691

> <PUBCHEM_SHAPE_FINGERPRINT>
10 15 14923948964039318918
10299344 5 18131349700912748743
10411042 1 17832705674585011218
10595046 47 18341330003178591507
10930396 42 15792002454707998436
11101153 10 18409167701775874757
11273773 42 18340486759227530764
11315181 36 18412544306959632861
11374522 155 18042131010497961644
11476731 38 18411135862523702231
11719270 70 13118282551132751777
12144603 126 18343862205192345901
12236239 1 18273213058397985359
12821665 9 18411701023826163383
13533116 47 17096078079181971282
1361 2 18408604764289935182
13673619 4 12175629468905992586
13685833 64 10663822975225411202
13690498 29 17559382755669537959
14040221 310 17915169346218299750
14150023 79 18259987033935608946
14257110 125 18410011044421045252
14394314 77 18340212903861367921
14428016 204 17458917036928810988
14428016 545 9222964676961996199
14528608 73 18412545388141475982
1454969 45 18343294873808092319
14681490 219 18411981330182126568
14767858 380 18272365386588466115
14849402 71 18411140276637843513
14856354 85 16917068880729208637
14931854 50 17988657319865352296
14933364 13 18272370854182119301
15003188 100 18410013256455933148
15064981 194 17972891538271521166
15183329 4 18202283606298071880
15301273 46 13479129065462247626
15475509 8 13973969796353950931
15537594 2 15267335193899157287
15685185 35 18191870243915867020
16992752 21 18130220584471255399
16993427 108 16955895711382713146
16994733 274 18261388923538893545
18335252 98 18410016546380159763
18643901 69 11887687186370578944
20157964 124 18408886218382958386
20554085 129 16226043392502544689
20567600 254 17313099748264071970
21033648 29 16588303826760358919
21049683 271 18271805757288986473
21150785 3 18131351916429954379
21298829 104 18410298034215586796
21365058 113 14907893916598919931
21521721 280 18408327662038689131
21585482 57 18189612915924968188
22224240 67 17749106703587194482
23389318 12 18341039797071614343
23522609 53 17845389786128574393
23559900 14 18272072904650085585
24771293 8 18113622287106029341
2838139 119 18334011662479570052
28498 318 10663824066004647275
3246875 12 18334577987750045002
335352 9 18409173195835183286
34797466 226 18202570544557416847
4073 2 18260833717253361835
4258327 124 17459486600746505724
4325135 7 18413387627365699735
437815 12 10952050052399504850
445580 167 18412820309240569589
46194498 28 18058454193073016334
497634 4 18270678663481195605
513532 50 18271257028024458606
5265222 85 17632007654440980039
53794403 172 18190744326744966932
543368 44 18409449176883908333
5758199 1 18335422373982928663
59682541 35 17749114413380493209

> <PUBCHEM_SHAPE_MULTIPOLES>
531.72
23.69
2.67
1.02
3.71
0.06
0.21
12.47
-5.52
3.13
0.16
-0.85
-0.12
-1.66

> <PUBCHEM_SHAPE_SELFOVERLAP>
1171.923

> <PUBCHEM_SHAPE_VOLUME>
290.1

> <PUBCHEM_COORDINATE_TYPE>
2
5
10

$$$$
