25314288
  -OEChem-12032416193D

 57 60  0     1  0  0  0  0  0999 V2000
   -7.3843    1.4114    0.2275 F   0  0  0  0  0  0  0  0  0  0  0  0
   -6.2958    1.0912    2.0823 F   0  0  0  0  0  0  0  0  0  0  0  0
   -5.6310    2.6125    0.6867 F   0  0  0  0  0  0  0  0  0  0  0  0
    2.8972   -1.6952    1.8157 O   0  0  0  0  0  0  0  0  0  0  0  0
    4.5035   -2.8799    0.6337 O   0  0  0  0  0  0  0  0  0  0  0  0
    2.9753   -2.8949   -1.8088 O   0  0  0  0  0  0  0  0  0  0  0  0
   -1.0588   -2.6830   -1.2264 O   0  0  0  0  0  0  0  0  0  0  0  0
    3.5998    5.0614   -1.4483 O   0  0  0  0  0  0  0  0  0  0  0  0
    2.9092    0.3620   -0.1878 N   0  0  0  0  0  0  0  0  0  0  0  0
    0.3258   -1.7991    0.3996 N   0  0  0  0  0  0  0  0  0  0  0  0
    2.9930    3.2256   -0.1610 N   0  0  0  0  0  0  0  0  0  0  0  0
   -1.8205   -1.0124    0.2362 N   0  0  0  0  0  0  0  0  0  0  0  0
    3.4400   -0.9821   -0.4232 C   0  0  2  0  0  0  0  0  0  0  0  0
    2.3366   -1.8959   -1.0029 C   0  0  2  0  0  0  0  0  0  0  0  0
    1.4887   -2.5990    0.0798 C   0  0  1  0  0  0  0  0  0  0  0  0
    2.2812   -2.9065    1.3670 C   0  0  1  0  0  0  0  0  0  0  0  0
    3.9873   -1.5640    0.8931 C   0  0  1  0  0  0  0  0  0  0  0  0
    3.5060   -3.7749    1.1492 C   0  0  0  0  0  0  0  0  0  0  0  0
    2.8511    1.1217   -1.4450 C   0  0  0  0  0  0  0  0  0  0  0  0
    3.7274    1.0735    0.8053 C   0  0  0  0  0  0  0  0  0  0  0  0
    2.2650    2.5134   -1.2101 C   0  0  0  0  0  0  0  0  0  0  0  0
    3.1632    2.4683    1.0823 C   0  0  0  0  0  0  0  0  0  0  0  0
   -0.8833   -1.9046   -0.2921 C   0  0  0  0  0  0  0  0  0  0  0  0
    3.3540    4.5591   -0.3488 C   0  0  0  0  0  0  0  0  0  0  0  0
    3.4457    5.4136    0.8903 C   0  0  0  0  0  0  0  0  0  0  0  0
   -3.1571   -0.8101   -0.1800 C   0  0  0  0  0  0  0  0  0  0  0  0
   -3.9543    0.1331    0.4682 C   0  0  0  0  0  0  0  0  0  0  0  0
   -3.6778   -1.5537   -1.2390 C   0  0  0  0  0  0  0  0  0  0  0  0
   -5.2724    0.3327    0.0575 C   0  0  0  0  0  0  0  0  0  0  0  0
   -4.9959   -1.3542   -1.6497 C   0  0  0  0  0  0  0  0  0  0  0  0
   -5.7931   -0.4110   -1.0015 C   0  0  0  0  0  0  0  0  0  0  0  0
   -6.1256    1.3409    0.7503 C   0  0  0  0  0  0  0  0  0  0  0  0
    4.2833   -0.9478   -1.1284 H   0  0  0  0  0  0  0  0  0  0  0  0
    1.6865   -1.3568   -1.6992 H   0  0  0  0  0  0  0  0  0  0  0  0
    1.1224   -3.5550   -0.3162 H   0  0  0  0  0  0  0  0  0  0  0  0
    1.6260   -3.3077    2.1471 H   0  0  0  0  0  0  0  0  0  0  0  0
    4.8182   -1.0116    1.3390 H   0  0  0  0  0  0  0  0  0  0  0  0
    3.8850   -4.1628    2.1008 H   0  0  0  0  0  0  0  0  0  0  0  0
    3.3455   -4.6108    0.4632 H   0  0  0  0  0  0  0  0  0  0  0  0
    2.2250    0.6217   -2.1906 H   0  0  0  0  0  0  0  0  0  0  0  0
    3.8549    1.2239   -1.8793 H   0  0  0  0  0  0  0  0  0  0  0  0
    4.7684    1.1645    0.4672 H   0  0  0  0  0  0  0  0  0  0  0  0
    3.7122    0.6073    1.7942 H   0  0  0  0  0  0  0  0  0  0  0  0
    0.4187   -1.0766    1.1071 H   0  0  0  0  0  0  0  0  0  0  0  0
    2.2754    3.0905   -2.1408 H   0  0  0  0  0  0  0  0  0  0  0  0
    1.2197    2.4397   -0.8849 H   0  0  0  0  0  0  0  0  0  0  0  0
    2.1785    2.4036    1.5612 H   0  0  0  0  0  0  0  0  0  0  0  0
    3.8321    3.0052    1.7616 H   0  0  0  0  0  0  0  0  0  0  0  0
    2.2764   -3.4303   -2.2218 H   0  0  0  0  0  0  0  0  0  0  0  0
   -1.5127   -0.4348    1.0145 H   0  0  0  0  0  0  0  0  0  0  0  0
    4.4271    5.2823    1.3530 H   0  0  0  0  0  0  0  0  0  0  0  0
    2.6596    5.1510    1.6033 H   0  0  0  0  0  0  0  0  0  0  0  0
    3.3177    6.4652    0.6170 H   0  0  0  0  0  0  0  0  0  0  0  0
   -3.5519    0.7150    1.2944 H   0  0  0  0  0  0  0  0  0  0  0  0
   -3.1241   -2.3010   -1.7896 H   0  0  0  0  0  0  0  0  0  0  0  0
   -5.4024   -1.9328   -2.4743 H   0  0  0  0  0  0  0  0  0  0  0  0
   -6.8170   -0.2710   -1.3369 H   0  0  0  0  0  0  0  0  0  0  0  0
  1 32  1  0  0  0  0
  2 32  1  0  0  0  0
  3 32  1  0  0  0  0
  4 16  1  0  0  0  0
  4 17  1  0  0  0  0
  5 17  1  0  0  0  0
  5 18  1  0  0  0  0
  6 14  1  0  0  0  0
  6 49  1  0  0  0  0
  7 23  2  0  0  0  0
  8 24  2  0  0  0  0
  9 13  1  0  0  0  0
  9 19  1  0  0  0  0
  9 20  1  0  0  0  0
 10 15  1  0  0  0  0
 10 23  1  0  0  0  0
 10 44  1  0  0  0  0
 11 21  1  0  0  0  0
 11 22  1  0  0  0  0
 11 24  1  0  0  0  0
 12 23  1  0  0  0  0
 12 26  1  0  0  0  0
 12 50  1  0  0  0  0
 13 14  1  0  0  0  0
 13 17  1  0  0  0  0
 13 33  1  0  0  0  0
 14 15  1  0  0  0  0
 14 34  1  0  0  0  0
 15 16  1  0  0  0  0
 15 35  1  0  0  0  0
 16 18  1  0  0  0  0
 16 36  1  0  0  0  0
 17 37  1  0  0  0  0
 18 38  1  0  0  0  0
 18 39  1  0  0  0  0
 19 21  1  0  0  0  0
 19 40  1  0  0  0  0
 19 41  1  0  0  0  0
 20 22  1  0  0  0  0
 20 42  1  0  0  0  0
 20 43  1  0  0  0  0
 21 45  1  0  0  0  0
 21 46  1  0  0  0  0
 22 47  1  0  0  0  0
 22 48  1  0  0  0  0
 24 25  1  0  0  0  0
 25 51  1  0  0  0  0
 25 52  1  0  0  0  0
 25 53  1  0  0  0  0
 26 27  1  0  0  0  0
 26 28  2  0  0  0  0
 27 29  2  0  0  0  0
 27 54  1  0  0  0  0
 28 30  1  0  0  0  0
 28 55  1  0  0  0  0
 29 31  1  0  0  0  0
 29 32  1  0  0  0  0
 30 31  2  0  0  0  0
 30 56  1  0  0  0  0
 31 57  1  0  0  0  0
M  END
> <PUBCHEM_COMPOUND_CID>
25314288

> <PUBCHEM_CONFORMER_RMSD>
1

> <PUBCHEM_CONFORMER_DIVERSEORDER>
1
52
68
69
65
4
98
75
89
64
73
83
80
47
87
81
101
96
38
32
59
50
34
39
19
93
48
44
67
22
26
45
71
63
30
25
94
78
31
88
72
21
60
82
70
79
16
91
42
100
33
29
51
3
43
103
18
95
14
54
15
27
61
90
24
99
86
12
46
74
92
84
77
35
97
76
6
9
58
66
20
41
57
17
28
53
11
49
85
36
8
23
5
102
62
7
40
55
37
56
10
2
13

> <PUBCHEM_MMFF94_PARTIAL_CHARGES>
39
1 -0.34
10 -0.73
11 -0.66
12 -0.55
13 0.27
14 0.28
15 0.3
16 0.28
17 0.56
18 0.28
19 0.27
2 -0.34
20 0.27
21 0.3
22 0.3
23 0.69
24 0.57
25 0.06
26 0.12
27 -0.15
28 -0.15
29 -0.14
3 -0.34
30 -0.15
31 -0.15
32 1.16
4 -0.56
44 0.37
49 0.4
5 -0.56
50 0.37
54 0.15
55 0.15
56 0.15
57 0.15
6 -0.68
7 -0.57
8 -0.57
9 -0.81

> <PUBCHEM_EFFECTIVE_ROTOR_COUNT>
9.4

> <PUBCHEM_PHARMACOPHORE_FEATURES>
12
1 10 donor
1 12 donor
1 4 acceptor
1 5 acceptor
1 6 acceptor
1 6 donor
1 7 acceptor
1 8 acceptor
1 9 cation
6 26 27 28 29 30 31 rings
6 9 11 19 20 21 22 rings
8 4 5 13 14 15 16 17 18 rings

> <PUBCHEM_HEAVY_ATOM_COUNT>
32

> <PUBCHEM_ATOM_DEF_STEREO_COUNT>
5

> <PUBCHEM_ATOM_UDEF_STEREO_COUNT>
0

> <PUBCHEM_BOND_DEF_STEREO_COUNT>
0

> <PUBCHEM_BOND_UDEF_STEREO_COUNT>
0

> <PUBCHEM_ISOTOPIC_ATOM_COUNT>
0

> <PUBCHEM_COMPONENT_COUNT>
1

> <PUBCHEM_CACTVS_TAUTO_COUNT>
3

> <PUBCHEM_CONFORMER_ID>
018243F000000001

> <PUBCHEM_MMFF94_ENERGY>
89.1621

> <PUBCHEM_FEATURE_SELFOVERLAP>
60.999

> <PUBCHEM_SHAPE_FINGERPRINT>
10675989 125 18341055215050210705
10937287 8 17976535336763935922
11059845 2 17545295928970364376
11331351 85 18056477245164407390
12166972 35 18342170016803186707
12422481 6 18115309956688803389
12616971 3 18340200800695606063
13590594 115 18192146002058393762
13878862 14 18115567302206461909
13944108 23 18337118886545702644
13965767 371 17606941057412992348
14251764 75 18267592496991824321
14849402 71 18335417985117293338
15001296 14 18411699898703123817
15326921 28 17189244437095809056
15980000 95 18337387116491247948
16992779 147 18337971076760777841
19302320 297 18124044438410743473
21033648 29 16878213183201615887
21591340 35 18339082708733242176
22122407 14 18264783082138257993
23559900 14 17059790901199047647
245318 6 18189904295254739909
24771293 8 18270100384947874370
3103668 31 17690003336863087878
376196 1 18053109698925519406
4058900 60 18118126007440720460
474 4 18262789808679266030
5104073 3 18333729130989072995
513532 50 17846502539124374550
57724786 102 18409728465489955467
5951187 136 18201733854678749477
6058803 2 18198607999235885271
6201320 215 16319508821911976900
9849439 229 18121215651920106768
9981440 41 17685768421588973442

> <PUBCHEM_SHAPE_MULTIPOLES>
587.45
14.99
6.42
1.57
31.34
7.31
0.06
8.52
-2.28
-12.38
-0.35
0.02
-0.17
-3.04

> <PUBCHEM_SHAPE_SELFOVERLAP>
1255.331

> <PUBCHEM_SHAPE_VOLUME>
324.2

> <PUBCHEM_COORDINATE_TYPE>
2
5
10

$$$$
