11886479
  -OEChem-12032416403D

 62 66  0     1  0  0  0  0  0999 V2000
    5.1227    4.0279    0.8922 O   0  0  0  0  0  0  0  0  0  0  0  0
    0.0487   -1.8320    1.8880 O   0  0  0  0  0  0  0  0  0  0  0  0
   -2.5537    0.5982   -1.3717 O   0  0  0  0  0  0  0  0  0  0  0  0
   -6.3794   -0.4889    1.8046 O   0  0  0  0  0  0  0  0  0  0  0  0
    4.2941    0.0172   -0.0318 N   0  0  2  0  0  0  0  0  0  0  0  0
    1.6891   -1.8080    0.2246 N   0  0  0  0  0  0  0  0  0  0  0  0
   -1.9301   -1.0292    0.1578 N   0  0  0  0  0  0  0  0  0  0  0  0
   -4.0552   -0.1685    0.2611 N   0  0  0  0  0  0  0  0  0  0  0  0
    4.1444   -2.3815    0.6821 C   0  0  1  0  0  0  0  0  0  0  0  0
    3.4454   -1.7519   -1.5789 C   0  0  2  0  0  0  0  0  0  0  0  0
    4.1551   -2.8355   -0.7715 C   0  0  0  0  0  0  0  0  0  0  0  0
    4.8751   -1.0287    0.8188 C   0  0  0  0  0  0  0  0  0  0  0  0
    4.2098   -0.4162   -1.4346 C   0  0  0  0  0  0  0  0  0  0  0  0
    2.6910   -2.3182    1.1709 C   0  0  0  0  0  0  0  0  0  0  0  0
    5.0443    1.2653    0.0859 C   0  0  0  0  0  0  0  0  0  0  0  0
    2.0075   -1.5935   -1.1203 C   0  0  0  0  0  0  0  0  0  0  0  0
    5.1821    1.6894    1.5515 C   0  0  0  0  0  0  0  0  0  0  0  0
    4.3616    2.3750   -0.7187 C   0  0  0  0  0  0  0  0  0  0  0  0
    1.0515   -1.2315   -1.9920 C   0  0  0  0  0  0  0  0  0  0  0  0
    0.3791   -1.6405    0.7169 C   0  0  0  0  0  0  0  0  0  0  0  0
    5.8486    3.0574    1.6468 C   0  0  0  0  0  0  0  0  0  0  0  0
    5.0735    3.7050   -0.4976 C   0  0  0  0  0  0  0  0  0  0  0  0
   -0.6524   -1.2141   -0.2814 C   0  0  0  0  0  0  0  0  0  0  0  0
   -0.3042   -1.0371   -1.5604 C   0  0  0  0  0  0  0  0  0  0  0  0
   -2.8309   -0.1211   -0.4145 C   0  0  0  0  0  0  0  0  0  0  0  0
   -5.2223    0.5860   -0.0018 C   0  0  0  0  0  0  0  0  0  0  0  0
   -6.3548    0.4063    0.7769 C   0  0  0  0  0  0  0  0  0  0  0  0
   -5.2044    1.4984   -1.0455 C   0  0  0  0  0  0  0  0  0  0  0  0
   -7.4982    1.1579    0.5053 C   0  0  0  0  0  0  0  0  0  0  0  0
   -6.3479    2.2499   -1.3169 C   0  0  0  0  0  0  0  0  0  0  0  0
   -7.4947    2.0796   -0.5417 C   0  0  0  0  0  0  0  0  0  0  0  0
   -6.7953   -1.8173    1.4961 C   0  0  0  0  0  0  0  0  0  0  0  0
    4.6834   -3.1126    1.2978 H   0  0  0  0  0  0  0  0  0  0  0  0
    3.4648   -2.0485   -2.6360 H   0  0  0  0  0  0  0  0  0  0  0  0
    5.1850   -2.9660   -1.1256 H   0  0  0  0  0  0  0  0  0  0  0  0
    3.6508   -3.8036   -0.8822 H   0  0  0  0  0  0  0  0  0  0  0  0
    5.9379   -1.1734    0.5823 H   0  0  0  0  0  0  0  0  0  0  0  0
    4.8038   -0.7652    1.8789 H   0  0  0  0  0  0  0  0  0  0  0  0
    3.6707    0.3122   -2.0482 H   0  0  0  0  0  0  0  0  0  0  0  0
    5.2136   -0.5285   -1.8665 H   0  0  0  0  0  0  0  0  0  0  0  0
    2.3642   -3.3360    1.4249 H   0  0  0  0  0  0  0  0  0  0  0  0
    2.6196   -1.7396    2.1004 H   0  0  0  0  0  0  0  0  0  0  0  0
    6.0582    1.1260   -0.3176 H   0  0  0  0  0  0  0  0  0  0  0  0
    4.1898    1.7427    2.0181 H   0  0  0  0  0  0  0  0  0  0  0  0
    5.7997    0.9976    2.1325 H   0  0  0  0  0  0  0  0  0  0  0  0
    3.3153    2.4727   -0.4012 H   0  0  0  0  0  0  0  0  0  0  0  0
    4.3743    2.1850   -1.7959 H   0  0  0  0  0  0  0  0  0  0  0  0
    1.2747   -1.0556   -3.0392 H   0  0  0  0  0  0  0  0  0  0  0  0
    6.8860    3.0225    1.2934 H   0  0  0  0  0  0  0  0  0  0  0  0
    5.8659    3.3915    2.6892 H   0  0  0  0  0  0  0  0  0  0  0  0
    4.5298    4.5076   -1.0062 H   0  0  0  0  0  0  0  0  0  0  0  0
    6.0918    3.6861   -0.9037 H   0  0  0  0  0  0  0  0  0  0  0  0
   -1.0022   -0.7871   -2.3502 H   0  0  0  0  0  0  0  0  0  0  0  0
   -2.1543   -1.3831    1.0839 H   0  0  0  0  0  0  0  0  0  0  0  0
   -4.1223   -0.8212    1.0379 H   0  0  0  0  0  0  0  0  0  0  0  0
   -4.3624    1.6920   -1.6924 H   0  0  0  0  0  0  0  0  0  0  0  0
   -8.3952    1.0315    1.1056 H   0  0  0  0  0  0  0  0  0  0  0  0
   -6.3467    2.9680   -2.1319 H   0  0  0  0  0  0  0  0  0  0  0  0
   -8.3848    2.6647   -0.7530 H   0  0  0  0  0  0  0  0  0  0  0  0
   -7.8367   -1.8221    1.1589 H   0  0  0  0  0  0  0  0  0  0  0  0
   -6.1516   -2.2602    0.7296 H   0  0  0  0  0  0  0  0  0  0  0  0
   -6.7201   -2.4196    2.4056 H   0  0  0  0  0  0  0  0  0  0  0  0
  1 21  1  0  0  0  0
  1 22  1  0  0  0  0
  2 20  2  0  0  0  0
  3 25  2  0  0  0  0
  4 27  1  0  0  0  0
  4 32  1  0  0  0  0
  5 12  1  0  0  0  0
  5 13  1  0  0  0  0
  5 15  1  0  0  0  0
  6 14  1  0  0  0  0
  6 16  1  0  0  0  0
  6 20  1  0  0  0  0
  7 23  1  0  0  0  0
  7 25  1  0  0  0  0
  7 54  1  0  0  0  0
  8 25  1  0  0  0  0
  8 26  1  0  0  0  0
  8 55  1  0  0  0  0
  9 11  1  0  0  0  0
  9 12  1  0  0  0  0
  9 14  1  0  0  0  0
  9 33  1  0  0  0  0
 10 11  1  0  0  0  0
 10 13  1  0  0  0  0
 10 16  1  0  0  0  0
 10 34  1  0  0  0  0
 11 35  1  0  0  0  0
 11 36  1  0  0  0  0
 12 37  1  0  0  0  0
 12 38  1  0  0  0  0
 13 39  1  0  0  0  0
 13 40  1  0  0  0  0
 14 41  1  0  0  0  0
 14 42  1  0  0  0  0
 15 17  1  0  0  0  0
 15 18  1  0  0  0  0
 15 43  1  0  0  0  0
 16 19  2  0  0  0  0
 17 21  1  0  0  0  0
 17 44  1  0  0  0  0
 17 45  1  0  0  0  0
 18 22  1  0  0  0  0
 18 46  1  0  0  0  0
 18 47  1  0  0  0  0
 19 24  1  0  0  0  0
 19 48  1  0  0  0  0
 20 23  1  0  0  0  0
 21 49  1  0  0  0  0
 21 50  1  0  0  0  0
 22 51  1  0  0  0  0
 22 52  1  0  0  0  0
 23 24  2  0  0  0  0
 24 53  1  0  0  0  0
 26 27  1  0  0  0  0
 26 28  2  0  0  0  0
 27 29  2  0  0  0  0
 28 30  1  0  0  0  0
 28 56  1  0  0  0  0
 29 31  1  0  0  0  0
 29 57  1  0  0  0  0
 30 31  2  0  0  0  0
 30 58  1  0  0  0  0
 31 59  1  0  0  0  0
 32 60  1  0  0  0  0
 32 61  1  0  0  0  0
 32 62  1  0  0  0  0
M  END
> <PUBCHEM_COMPOUND_CID>
11886479

> <PUBCHEM_CONFORMER_RMSD>
1

> <PUBCHEM_CONFORMER_DIVERSEORDER>
1
20
15
17
10
18
23
19
8
12
22
25
16
14
27
28
11
6
26
4
3
21
13
7
2
5
24
9

> <PUBCHEM_MMFF94_PARTIAL_CHARGES>
36
1 -0.56
10 0.14
12 0.27
13 0.27
14 0.3
15 0.27
16 -0.03
19 -0.15
2 -0.57
20 0.62
21 0.28
22 0.28
23 0.12
24 -0.15
25 0.69
26 0.12
27 0.08
28 -0.15
29 -0.15
3 -0.57
30 -0.15
31 -0.15
32 0.28
4 -0.36
48 0.15
5 -0.81
53 0.15
54 0.37
55 0.37
56 0.15
57 0.15
58 0.15
59 0.15
6 -0.47
7 -0.54
8 -0.55

> <PUBCHEM_EFFECTIVE_ROTOR_COUNT>
8.2

> <PUBCHEM_PHARMACOPHORE_FEATURES>
12
1 1 acceptor
1 2 acceptor
1 3 acceptor
1 4 acceptor
1 5 cation
1 7 donor
1 8 donor
6 1 15 17 18 21 22 rings
6 26 27 28 29 30 31 rings
6 5 9 10 11 12 13 rings
6 6 16 19 20 23 24 rings
6 6 9 10 11 14 16 rings

> <PUBCHEM_HEAVY_ATOM_COUNT>
32

> <PUBCHEM_ATOM_DEF_STEREO_COUNT>
2

> <PUBCHEM_ATOM_UDEF_STEREO_COUNT>
0

> <PUBCHEM_BOND_DEF_STEREO_COUNT>
0

> <PUBCHEM_BOND_UDEF_STEREO_COUNT>
0

> <PUBCHEM_ISOTOPIC_ATOM_COUNT>
0

> <PUBCHEM_COMPONENT_COUNT>
1

> <PUBCHEM_CACTVS_TAUTO_COUNT>
3

> <PUBCHEM_CONFORMER_ID>
00B55F8F00000001

> <PUBCHEM_MMFF94_ENERGY>
101.9004

> <PUBCHEM_FEATURE_SELFOVERLAP>
62.5

> <PUBCHEM_SHAPE_FINGERPRINT>
10554248 39 17417811699702342263
10673678 19 18202567301899150078
11456790 92 18114734955225617042
11505856 67 17549537861708336902
11578080 2 18336273456540209498
12522641 24 18114738218636403706
12633257 1 16806712075470422452
13692114 37 17313112973086179403
13782708 43 7925914781554762547
13878862 14 18340751668589337868
14251764 75 18199184182347230184
14904525 67 18059016065101137233
15183329 4 13901901177488440347
15348495 7 18259989254058433227
15475509 8 12391529580631310731
17134984 74 10015580628057562668
18335252 114 17989488494594035740
21033648 29 18040437702270752354
21136928 126 14950398372781147941
21641784 216 16128385839349633683
22122407 14 18341057319937041985
23081809 10 15913044266979171439
23522609 53 15984560944251006523
23569914 152 9364858748543999953
23569914 2 17609450009509193029
249057 3 18130507436314893686
27425 322 18413101762511192887
2838139 119 18342730836684723420
328310 630 17632579353664503041
3411729 13 18411416237187191428
34797466 226 18201443541276606207
3534868 343 17058943147368456518
394071 54 18272655640420794932
397830 11 18409172134318929931
4073 2 15937279732380207139
4093350 32 17989491805539138900
4112364 45 18272640278060794432
4258327 124 17917704726407158613
44317340 157 18341897380874244415
474113 269 13407338721195026587
5104073 3 18040149609034554739
5109719 28 18262530311187502281
531348 171 11169907321725770027
5364581 5 18188213199764798593
5372103 7 15481244219775546320
6898599 12 17703219745559314967
9658208 31 17895487976390984146

> <PUBCHEM_SHAPE_MULTIPOLES>
615.14
21.26
3.95
1.77
35.66
3.2
-0.03
15.18
-4.9
-7.48
-0.56
-0.25
-0.29
3.31

> <PUBCHEM_SHAPE_SELFOVERLAP>
1331.115

> <PUBCHEM_SHAPE_VOLUME>
328.1

> <PUBCHEM_COORDINATE_TYPE>
2
5
10

$$$$
