51137845
  -OEChem-12032416223D

 39 42  0     1  0  0  0  0  0999 V2000
   -1.2326    0.8815   -0.2524 O   0  0  0  0  0  0  0  0  0  0  0  0
    2.5732   -0.0368    2.4827 O   0  0  0  0  0  0  0  0  0  0  0  0
    1.7719    1.3249    0.7805 N   0  0  0  0  0  0  0  0  0  0  0  0
   -2.1066    2.7326   -1.1549 N   0  0  0  0  0  0  0  0  0  0  0  0
   -3.1231    1.8070   -1.0101 N   0  0  0  0  0  0  0  0  0  0  0  0
    4.2299   -2.4570   -1.5091 N   0  0  0  0  0  0  0  0  0  0  0  0
   -5.0895   -1.9408    0.0314 N   0  0  0  0  0  0  0  0  0  0  0  0
    0.3970    2.6833   -0.6079 C   0  0  1  0  0  0  0  0  0  0  0  0
    0.6481    3.3988    0.7285 C   0  0  0  0  0  0  0  0  0  0  0  0
    1.5245    1.6415   -0.6271 C   0  0  0  0  0  0  0  0  0  0  0  0
    1.1205    2.2871    1.6556 C   0  0  0  0  0  0  0  0  0  0  0  0
   -1.0221    2.1496   -0.6998 C   0  0  0  0  0  0  0  0  0  0  0  0
    2.4521    0.2291    1.2886 C   0  0  0  0  0  0  0  0  0  0  0  0
    3.0651   -0.6973    0.3240 C   0  0  0  0  0  0  0  0  0  0  0  0
   -2.5674    0.7425   -0.4801 C   0  0  0  0  0  0  0  0  0  0  0  0
    4.0333   -0.2408   -0.5634 C   0  0  0  0  0  0  0  0  0  0  0  0
    2.6786   -2.0327    0.2958 C   0  0  0  0  0  0  0  0  0  0  0  0
   -3.1388   -0.5199   -0.1105 C   0  0  0  0  0  0  0  0  0  0  0  0
    4.5801   -1.1524   -1.4521 C   0  0  0  0  0  0  0  0  0  0  0  0
    3.2858   -2.8641   -0.6314 C   0  0  0  0  0  0  0  0  0  0  0  0
   -2.3562   -1.5263    0.4448 C   0  0  0  0  0  0  0  0  0  0  0  0
   -4.4881   -0.7749   -0.2950 C   0  0  0  0  0  0  0  0  0  0  0  0
   -2.9387   -2.7397    0.7935 C   0  0  0  0  0  0  0  0  0  0  0  0
   -4.2971   -2.8954    0.5686 C   0  0  0  0  0  0  0  0  0  0  0  0
    0.5214    3.3806   -1.4454 H   0  0  0  0  0  0  0  0  0  0  0  0
    1.4569    4.1294    0.5999 H   0  0  0  0  0  0  0  0  0  0  0  0
   -0.2240    3.9272    1.1261 H   0  0  0  0  0  0  0  0  0  0  0  0
    2.4403    2.0911   -1.0261 H   0  0  0  0  0  0  0  0  0  0  0  0
    1.2826    0.7423   -1.2012 H   0  0  0  0  0  0  0  0  0  0  0  0
    1.8147    2.6374    2.4254 H   0  0  0  0  0  0  0  0  0  0  0  0
    0.2802    1.7828    2.1453 H   0  0  0  0  0  0  0  0  0  0  0  0
    4.3780    0.7876   -0.5599 H   0  0  0  0  0  0  0  0  0  0  0  0
    1.9242   -2.4216    0.9715 H   0  0  0  0  0  0  0  0  0  0  0  0
    5.3427   -0.8478   -2.1613 H   0  0  0  0  0  0  0  0  0  0  0  0
    3.0188   -3.9139   -0.6946 H   0  0  0  0  0  0  0  0  0  0  0  0
   -1.2908   -1.3992    0.6193 H   0  0  0  0  0  0  0  0  0  0  0  0
   -5.1577   -0.0345   -0.7232 H   0  0  0  0  0  0  0  0  0  0  0  0
   -2.3484   -3.5385    1.2276 H   0  0  0  0  0  0  0  0  0  0  0  0
   -4.7993   -3.8229    0.8232 H   0  0  0  0  0  0  0  0  0  0  0  0
  1 12  1  0  0  0  0
  1 15  1  0  0  0  0
  2 13  2  0  0  0  0
  3 10  1  0  0  0  0
  3 11  1  0  0  0  0
  3 13  1  0  0  0  0
  4  5  1  0  0  0  0
  4 12  2  0  0  0  0
  5 15  2  0  0  0  0
  6 19  2  0  0  0  0
  6 20  1  0  0  0  0
  7 22  1  0  0  0  0
  7 24  2  0  0  0  0
  8  9  1  0  0  0  0
  8 10  1  0  0  0  0
  8 12  1  0  0  0  0
  8 25  1  0  0  0  0
  9 11  1  0  0  0  0
  9 26  1  0  0  0  0
  9 27  1  0  0  0  0
 10 28  1  0  0  0  0
 10 29  1  0  0  0  0
 11 30  1  0  0  0  0
 11 31  1  0  0  0  0
 13 14  1  0  0  0  0
 14 16  2  0  0  0  0
 14 17  1  0  0  0  0
 15 18  1  0  0  0  0
 16 19  1  0  0  0  0
 16 32  1  0  0  0  0
 17 20  2  0  0  0  0
 17 33  1  0  0  0  0
 18 21  1  0  0  0  0
 18 22  2  0  0  0  0
 19 34  1  0  0  0  0
 20 35  1  0  0  0  0
 21 23  2  0  0  0  0
 21 36  1  0  0  0  0
 22 37  1  0  0  0  0
 23 24  1  0  0  0  0
 23 38  1  0  0  0  0
 24 39  1  0  0  0  0
M  END
> <PUBCHEM_COMPOUND_CID>
51137845

> <PUBCHEM_CONFORMER_RMSD>
0.8

> <PUBCHEM_CONFORMER_DIVERSEORDER>
1
38
24
23
57
42
52
16
46
21
7
39
14
40
18
51
33
13
28
49
11
58
27
2
19
10
55
36
54
17
22
6
34
41
35
56
50
26
32
30
25
20
43
47
3
53
59
62
4
12
37
60
8
44
15
29
31
61
5
48
9
45

> <PUBCHEM_MMFF94_PARTIAL_CHARGES>
31
1 -0.28
10 0.3
11 0.3
12 0.3
13 0.54
14 0.09
15 0.43
16 -0.15
17 -0.15
18 0.05
19 0.16
2 -0.57
20 0.16
21 -0.15
22 0.16
23 -0.15
24 0.16
3 -0.66
32 0.15
33 0.15
34 0.15
35 0.15
36 0.15
37 0.15
38 0.15
39 0.15
4 -0.34
5 -0.34
6 -0.62
7 -0.62
8 0.18

> <PUBCHEM_EFFECTIVE_ROTOR_COUNT>
5

> <PUBCHEM_PHARMACOPHORE_FEATURES>
7
1 2 acceptor
1 6 acceptor
1 7 acceptor
5 1 4 5 12 15 rings
5 3 8 9 10 11 rings
6 6 14 16 17 19 20 rings
6 7 18 21 22 23 24 rings

> <PUBCHEM_HEAVY_ATOM_COUNT>
24

> <PUBCHEM_ATOM_DEF_STEREO_COUNT>
1

> <PUBCHEM_ATOM_UDEF_STEREO_COUNT>
0

> <PUBCHEM_BOND_DEF_STEREO_COUNT>
0

> <PUBCHEM_BOND_UDEF_STEREO_COUNT>
0

> <PUBCHEM_ISOTOPIC_ATOM_COUNT>
0

> <PUBCHEM_COMPONENT_COUNT>
1

> <PUBCHEM_CACTVS_TAUTO_COUNT>
1

> <PUBCHEM_CONFORMER_ID>
030C4D3500000001

> <PUBCHEM_MMFF94_ENERGY>
59.0245

> <PUBCHEM_FEATURE_SELFOVERLAP>
35.524

> <PUBCHEM_SHAPE_FINGERPRINT>
10928967 22 18259704493284464619
114674 6 18264202698005435170
12506688 2 18413108368270529104
12553582 1 18260545636827225203
12712778 12 17616228318453303530
13135754 10 16771573676157768840
13402501 40 18337390547173676562
13533116 47 18128257986042867555
13631057 29 18339653239757349070
13911882 115 18343299301713502834
14251740 57 18124882515068020403
14251740 79 17905904578107107030
14251757 5 18263653861366808543
14251764 30 17274279261695679566
14363568 33 18123768687965431070
14681488 357 18268434696954843159
14863182 85 17829612008454194812
14866123 147 18196378009766463801
15352361 1 18409733966921484383
15664445 248 17097494456127261517
17909252 39 18341066185165784836
17974551 9 17274543105446485881
1979834 28 17906735057267334355
20645477 70 18045495580760745367
20775530 9 18412265029851305907
21279426 13 18261659451503166887
23379529 103 18198072382754782262
23428019 142 16974233305690348414
23466295 7 17981905046432416034
23557571 272 18338787932426938696
23559900 14 18335699507270105253
238078 22 18339653217918619308
3117164 225 18340784701820705689
314173 41 18115304608953015177
329604 57 18408892836943288638
3737641 26 18341907315328603264
4280585 95 18188204296191650812
6287921 2 17982452903559633523
6823239 73 18411415124785114370
7987 15 18201165368586394686
9709674 26 18337942485183813581
9862886 166 18123750860258383630

> <PUBCHEM_SHAPE_MULTIPOLES>
457.27
9.47
4.31
1.45
3.59
0.68
-0.5
-9.45
1.81
0.53
0.2
-1.31
0.26
2.43

> <PUBCHEM_SHAPE_SELFOVERLAP>
1006.247

> <PUBCHEM_SHAPE_VOLUME>
244.9

> <PUBCHEM_COORDINATE_TYPE>
2
5
10

$$$$
