11884600
  -OEChem-12032416373D

 51 55  0     1  0  0  0  0  0999 V2000
    1.2590    1.0460   -1.0724 O   0  0  0  0  0  0  0  0  0  0  0  0
    2.5356    3.1326    0.7580 O   0  0  0  0  0  0  0  0  0  0  0  0
   -0.7714    1.7582    0.6847 O   0  0  0  0  0  0  0  0  0  0  0  0
    6.6432   -1.3344   -1.1775 O   0  0  0  0  0  0  0  0  0  0  0  0
   -0.7583   -0.4395    1.3171 O   0  0  0  0  0  0  0  0  0  0  0  0
    4.2790    0.3001   -0.8530 N   0  0  0  0  0  0  0  0  0  0  0  0
   -2.6561    0.5581    0.3774 N   0  0  0  0  0  0  0  0  0  0  0  0
    2.8503    1.7402    0.5388 C   0  0  1  0  0  0  0  0  0  0  0  0
    1.5314    1.0210    0.3399 C   0  0  1  0  0  0  0  0  0  0  0  0
    3.5650    1.5740   -0.7849 C   0  0  2  0  0  0  0  0  0  0  0  0
    0.5665    1.8907    1.1090 C   0  0  1  0  0  0  0  0  0  0  0  0
    2.4022    1.5688   -1.7666 C   0  0  0  0  0  0  0  0  0  0  0  0
    1.1108    3.2776    0.8501 C   0  0  0  0  0  0  0  0  0  0  0  0
    5.3899    0.2798    0.0865 C   0  0  0  0  0  0  0  0  0  0  0  0
   -1.3544    0.5173    0.8378 C   0  0  0  0  0  0  0  0  0  0  0  0
    6.1269   -1.0302    0.0250 C   0  0  0  0  0  0  0  0  0  0  0  0
    6.3736   -1.9749    0.9598 C   0  0  0  0  0  0  0  0  0  0  0  0
   -3.6032   -0.4909    0.3504 C   0  0  0  0  0  0  0  0  0  0  0  0
    7.1171   -2.9731    0.2861 C   0  0  0  0  0  0  0  0  0  0  0  0
    7.2545   -2.5366   -1.0110 C   0  0  0  0  0  0  0  0  0  0  0  0
   -4.8928   -0.2927   -0.1498 C   0  0  0  0  0  0  0  0  0  0  0  0
   -3.1940   -1.7235    0.8430 C   0  0  0  0  0  0  0  0  0  0  0  0
   -5.7983   -1.3803   -0.1510 C   0  0  0  0  0  0  0  0  0  0  0  0
   -5.3127    0.9511   -0.6493 C   0  0  0  0  0  0  0  0  0  0  0  0
   -4.0844   -2.7931    0.8416 C   0  0  0  0  0  0  0  0  0  0  0  0
   -5.3785   -2.6241    0.3481 C   0  0  0  0  0  0  0  0  0  0  0  0
   -7.0969   -1.1923   -0.6515 C   0  0  0  0  0  0  0  0  0  0  0  0
   -6.6067    1.1199   -1.1425 C   0  0  0  0  0  0  0  0  0  0  0  0
   -7.4973    0.0503   -1.1436 C   0  0  0  0  0  0  0  0  0  0  0  0
    3.3705    1.4115    1.4393 H   0  0  0  0  0  0  0  0  0  0  0  0
    1.5670   -0.0250    0.6552 H   0  0  0  0  0  0  0  0  0  0  0  0
    4.2437    2.4022   -1.0195 H   0  0  0  0  0  0  0  0  0  0  0  0
    0.6429    1.6801    2.1843 H   0  0  0  0  0  0  0  0  0  0  0  0
    2.1557    2.5895   -2.0808 H   0  0  0  0  0  0  0  0  0  0  0  0
    2.5812    0.9792   -2.6717 H   0  0  0  0  0  0  0  0  0  0  0  0
    0.8647    3.9774    1.6543 H   0  0  0  0  0  0  0  0  0  0  0  0
    0.7369    3.7034   -0.0878 H   0  0  0  0  0  0  0  0  0  0  0  0
    4.6320    0.1637   -1.8004 H   0  0  0  0  0  0  0  0  0  0  0  0
    6.1017    1.0832   -0.1412 H   0  0  0  0  0  0  0  0  0  0  0  0
    5.0689    0.4089    1.1235 H   0  0  0  0  0  0  0  0  0  0  0  0
   -2.9429    1.4620    0.0205 H   0  0  0  0  0  0  0  0  0  0  0  0
    6.0689   -1.9691    1.9963 H   0  0  0  0  0  0  0  0  0  0  0  0
    7.5043   -3.8953    0.6946 H   0  0  0  0  0  0  0  0  0  0  0  0
    7.7330   -2.9433   -1.8900 H   0  0  0  0  0  0  0  0  0  0  0  0
   -2.2193   -1.9530    1.2435 H   0  0  0  0  0  0  0  0  0  0  0  0
   -4.6707    1.8254   -0.6781 H   0  0  0  0  0  0  0  0  0  0  0  0
   -3.7740   -3.7613    1.2244 H   0  0  0  0  0  0  0  0  0  0  0  0
   -6.0577   -3.4741    0.3567 H   0  0  0  0  0  0  0  0  0  0  0  0
   -7.8097   -2.0144   -0.6623 H   0  0  0  0  0  0  0  0  0  0  0  0
   -6.9198    2.0868   -1.5261 H   0  0  0  0  0  0  0  0  0  0  0  0
   -8.5045    0.1825   -1.5278 H   0  0  0  0  0  0  0  0  0  0  0  0
  1  9  1  0  0  0  0
  1 12  1  0  0  0  0
  2  8  1  0  0  0  0
  2 13  1  0  0  0  0
  3 11  1  0  0  0  0
  3 15  1  0  0  0  0
  4 16  1  0  0  0  0
  4 20  1  0  0  0  0
  5 15  2  0  0  0  0
  6 10  1  0  0  0  0
  6 14  1  0  0  0  0
  6 38  1  0  0  0  0
  7 15  1  0  0  0  0
  7 18  1  0  0  0  0
  7 41  1  0  0  0  0
  8  9  1  0  0  0  0
  8 10  1  0  0  0  0
  8 30  1  0  0  0  0
  9 11  1  0  0  0  0
  9 31  1  0  0  0  0
 10 12  1  0  0  0  0
 10 32  1  0  0  0  0
 11 13  1  0  0  0  0
 11 33  1  0  0  0  0
 12 34  1  0  0  0  0
 12 35  1  0  0  0  0
 13 36  1  0  0  0  0
 13 37  1  0  0  0  0
 14 16  1  0  0  0  0
 14 39  1  0  0  0  0
 14 40  1  0  0  0  0
 16 17  2  0  0  0  0
 17 19  1  0  0  0  0
 17 42  1  0  0  0  0
 18 21  1  0  0  0  0
 18 22  2  0  0  0  0
 19 20  2  0  0  0  0
 19 43  1  0  0  0  0
 20 44  1  0  0  0  0
 21 23  1  0  0  0  0
 21 24  2  0  0  0  0
 22 25  1  0  0  0  0
 22 45  1  0  0  0  0
 23 26  1  0  0  0  0
 23 27  2  0  0  0  0
 24 28  1  0  0  0  0
 24 46  1  0  0  0  0
 25 26  2  0  0  0  0
 25 47  1  0  0  0  0
 26 48  1  0  0  0  0
 27 29  1  0  0  0  0
 27 49  1  0  0  0  0
 28 29  2  0  0  0  0
 28 50  1  0  0  0  0
 29 51  1  0  0  0  0
M  END
> <PUBCHEM_COMPOUND_CID>
11884600

> <PUBCHEM_CONFORMER_RMSD>
1

> <PUBCHEM_CONFORMER_DIVERSEORDER>
1
136
46
38
119
48
24
51
60
21
41
122
130
129
100
120
36
50
71
93
99
67
117
66
64
106
92
4
135
10
42
35
29
94
31
123
107
96
116
134
78
124
85
118
5
54
57
102
28
45
44
83
63
73
105
26
110
101
25
49
37
40
126
18
112
13
111
33
87
61
80
75
128
6
8
79
47
70
32
39
16
114
59
14
77
84
55
68
65
104
125
97
132
12
88
3
81
86
53
22
113
15
98
19
56
95
89
23
127
52
30
131
17
109
2
62
11
58
34
27
133
74
90
72
115
7
20
103
121
43
91
69
108
76
9
82

> <PUBCHEM_MMFF94_PARTIAL_CHARGES>
39
1 -0.56
10 0.27
11 0.28
12 0.28
13 0.28
14 0.45
15 0.78
16 -0.04
17 -0.15
18 0.12
19 -0.15
2 -0.56
20 -0.01
22 -0.15
24 -0.15
25 -0.15
26 -0.15
27 -0.15
28 -0.15
29 -0.15
3 -0.43
38 0.36
4 -0.28
41 0.37
42 0.15
43 0.15
44 0.15
45 0.15
46 0.15
47 0.15
48 0.15
49 0.15
5 -0.57
50 0.15
51 0.15
6 -0.9
7 -0.55
8 0.28
9 0.28

> <PUBCHEM_EFFECTIVE_ROTOR_COUNT>
8.2

> <PUBCHEM_PHARMACOPHORE_FEATURES>
12
1 1 acceptor
1 2 acceptor
1 4 acceptor
1 5 acceptor
1 6 cation
1 6 donor
1 7 donor
5 1 8 9 10 12 rings
5 2 8 9 11 13 rings
5 4 16 17 19 20 rings
6 18 21 22 23 25 26 rings
6 21 23 24 27 28 29 rings

> <PUBCHEM_HEAVY_ATOM_COUNT>
29

> <PUBCHEM_ATOM_DEF_STEREO_COUNT>
4

> <PUBCHEM_ATOM_UDEF_STEREO_COUNT>
0

> <PUBCHEM_BOND_DEF_STEREO_COUNT>
0

> <PUBCHEM_BOND_UDEF_STEREO_COUNT>
0

> <PUBCHEM_ISOTOPIC_ATOM_COUNT>
0

> <PUBCHEM_COMPONENT_COUNT>
1

> <PUBCHEM_CACTVS_TAUTO_COUNT>
2

> <PUBCHEM_CONFORMER_ID>
00B5583800000001

> <PUBCHEM_MMFF94_ENERGY>
81.8149

> <PUBCHEM_FEATURE_SELFOVERLAP>
61.643

> <PUBCHEM_SHAPE_FINGERPRINT>
10 15 10015864284323330093
10670039 82 17531238432100519269
10673678 19 8214144075496138856
10917259 69 18126847089450480473
11273773 46 18409731729517998423
117089 54 17913219668244269710
11719270 70 18202283593703580534
11720765 8 18341048622591844448
11796584 16 17968093179117062360
12013929 112 17604420792142054447
1361 4 18121784086578744995
13782708 43 18339645671771986367
13885169 86 8790591620654197458
14068700 675 18336828590080198872
14931854 50 17968107383007063162
15183329 4 17821727212896870035
15188451 53 18202000985276853210
15230672 131 18187920652114713235
15320295 40 17632286857416439807
15475509 8 17094959935484697181
15510800 12 18131080290283142294
15519825 34 14620499151845771231
15530120 55 17025177351417411342
16126227 98 8502074259066728186
16991971 28 18130240293996639700
16992610 120 10591467478757711346
19301676 85 18336268933856075794
19304671 126 13840562748544072966
19377110 9 13398637173066319841
19841028 212 18188204305130518562
20028762 73 18343024351088403966
2026 5 18273213097734011615
20567600 234 14836117780420902360
21279426 13 18334856147096236723
21315764 119 17967813868476859607
21344244 78 15123514734937433448
21781055 127 18059010563653270995
23559900 14 18339073917183113785
23569943 247 18412265026189738163
25269216 80 14852186060376324323
3004659 81 18259699008278196648
32027 91 18341893034298483419
3633792 109 17968103023551642316
38570 142 14996004337210103769
4340502 62 13183021817815638580
444769 64 18337118869671158513
474113 269 18059288773225949135
5085150 59 18131348601011380975
5104073 3 17703522067927725696
531348 171 18341610456486225663
5718773 13 18343301436196282230
59682541 35 10231745717800075533
59682541 52 17386012784456041332
6438161 24 18410849967139517898
6695519 79 16972820974044952480
6697151 62 18130772478034442801
7970288 3 18412266104315952922
9689198 14 7997964700401781818

> <PUBCHEM_SHAPE_MULTIPOLES>
557.5
22.92
3.51
1.27
3.6
0.28
0.21
18.81
7.24
3.61
-0.77
0.33
-0.25
1.3

> <PUBCHEM_SHAPE_SELFOVERLAP>
1233.147

> <PUBCHEM_SHAPE_VOLUME>
300.2

> <PUBCHEM_COORDINATE_TYPE>
2
5
10

$$$$
