71694374
  -OEChem-12032416223D

 81 85  0     1  0  0  0  0  0999 V2000
   -5.2585    0.4035    2.3373 O   0  0  0  0  0  0  0  0  0  0  0  0
   -0.2643    3.0521   -1.4667 O   0  0  0  0  0  0  0  0  0  0  0  0
   -9.8993    0.9714    0.7252 O   0  0  0  0  0  0  0  0  0  0  0  0
    0.0381   -2.1415   -0.4232 O   0  0  0  0  0  0  0  0  0  0  0  0
   -1.9882    1.5174   -1.6411 N   0  0  0  0  0  0  0  0  0  0  0  0
   -7.2064    0.2245    1.0868 N   0  0  0  0  0  0  0  0  0  0  0  0
    0.7380    0.0038   -2.2593 N   0  0  0  0  0  0  0  0  0  0  0  0
    5.5635   -2.1406    0.3875 N   0  0  3  0  0  0  0  0  0  0  0  0
    8.3948    1.2523    1.3778 N   0  0  0  0  0  0  0  0  0  0  0  0
   -3.5032    0.0501    0.3706 C   0  0  1  0  0  0  0  0  0  0  0  0
   -2.5673   -0.6376   -0.6676 C   0  0  2  0  0  0  0  0  0  0  0  0
   -3.0381    1.5101    0.5831 C   0  0  0  0  0  0  0  0  0  0  0  0
   -2.5000    0.1823   -1.9701 C   0  0  0  0  0  0  0  0  0  0  0  0
   -2.8580    2.2701   -0.7336 C   0  0  0  0  0  0  0  0  0  0  0  0
   -4.9946    0.0061    0.0151 C   0  0  0  0  0  0  0  0  0  0  0  0
   -2.9080   -2.0776   -0.9451 C   0  0  0  0  0  0  0  0  0  0  0  0
   -5.8234    0.2282    1.2549 C   0  0  0  0  0  0  0  0  0  0  0  0
   -0.7090    1.9938   -1.9268 C   0  0  0  0  0  0  0  0  0  0  0  0
   -2.1456   -3.1712   -0.7742 C   0  0  0  0  0  0  0  0  0  0  0  0
    0.1695    1.1992   -2.8755 C   0  0  0  0  0  0  0  0  0  0  0  0
   -8.0845    0.4375    2.2372 C   0  0  0  0  0  0  0  0  0  0  0  0
   -7.9118   -0.1051   -0.1564 C   0  0  0  0  0  0  0  0  0  0  0  0
   -0.7197   -3.3409   -0.3152 C   0  0  0  0  0  0  0  0  0  0  0  0
   -9.1921    1.4201    1.8843 C   0  0  0  0  0  0  0  0  0  0  0  0
   -9.0314    0.8969   -0.4089 C   0  0  0  0  0  0  0  0  0  0  0  0
    1.4574    0.2339   -1.0085 C   0  0  0  0  0  0  0  0  0  0  0  0
    2.1258   -1.0326   -0.5003 C   0  0  0  0  0  0  0  0  0  0  0  0
    1.3913   -2.2036   -0.2026 C   0  0  0  0  0  0  0  0  0  0  0  0
    3.5154   -1.0288   -0.2964 C   0  0  0  0  0  0  0  0  0  0  0  0
    2.0565   -3.3320    0.2919 C   0  0  0  0  0  0  0  0  0  0  0  0
    4.1673   -2.1606    0.1901 C   0  0  0  0  0  0  0  0  0  0  0  0
    3.4387   -3.3084    0.4845 C   0  0  0  0  0  0  0  0  0  0  0  0
    6.3320   -0.9515    0.0762 C   0  0  0  0  0  0  0  0  0  0  0  0
    6.2497   -3.3111    0.8973 C   0  0  0  0  0  0  0  0  0  0  0  0
    6.2816    0.0494    1.2296 C   0  0  0  0  0  0  0  0  0  0  0  0
    7.1048    1.2884    0.9749 C   0  0  0  0  0  0  0  0  0  0  0  0
    6.5161    2.3785    0.3547 C   0  0  0  0  0  0  0  0  0  0  0  0
    7.3020    3.5040    0.1333 C   0  0  0  0  0  0  0  0  0  0  0  0
    9.1276    2.3645    1.1459 C   0  0  0  0  0  0  0  0  0  0  0  0
    8.6337    3.5049    0.5334 C   0  0  0  0  0  0  0  0  0  0  0  0
   -3.3453   -0.4884    1.3160 H   0  0  0  0  0  0  0  0  0  0  0  0
   -1.5757   -0.5897   -0.2096 H   0  0  0  0  0  0  0  0  0  0  0  0
   -2.0711    1.4871    1.1037 H   0  0  0  0  0  0  0  0  0  0  0  0
   -3.7228    2.0669    1.2309 H   0  0  0  0  0  0  0  0  0  0  0  0
   -1.8650   -0.3170   -2.7043 H   0  0  0  0  0  0  0  0  0  0  0  0
   -3.4890    0.2997   -2.4287 H   0  0  0  0  0  0  0  0  0  0  0  0
   -3.8166    2.4249   -1.2401 H   0  0  0  0  0  0  0  0  0  0  0  0
   -2.4402    3.2610   -0.5290 H   0  0  0  0  0  0  0  0  0  0  0  0
   -5.2748   -0.9779   -0.3689 H   0  0  0  0  0  0  0  0  0  0  0  0
   -5.2514    0.7581   -0.7362 H   0  0  0  0  0  0  0  0  0  0  0  0
   -3.9019   -2.2616   -1.3491 H   0  0  0  0  0  0  0  0  0  0  0  0
   -2.6255   -4.1192   -1.0214 H   0  0  0  0  0  0  0  0  0  0  0  0
   -0.4102    0.9281   -3.7639 H   0  0  0  0  0  0  0  0  0  0  0  0
    0.9770    1.8539   -3.2256 H   0  0  0  0  0  0  0  0  0  0  0  0
   -7.5199    0.7936    3.1041 H   0  0  0  0  0  0  0  0  0  0  0  0
   -8.5117   -0.5407    2.4875 H   0  0  0  0  0  0  0  0  0  0  0  0
   -8.3307   -1.1083   -0.0137 H   0  0  0  0  0  0  0  0  0  0  0  0
   -7.2453   -0.1410   -1.0192 H   0  0  0  0  0  0  0  0  0  0  0  0
   -0.7318   -3.6889    0.7242 H   0  0  0  0  0  0  0  0  0  0  0  0
   -0.2690   -4.1119   -0.9527 H   0  0  0  0  0  0  0  0  0  0  0  0
   -9.9083    1.4920    2.7087 H   0  0  0  0  0  0  0  0  0  0  0  0
   -8.7923    2.4239    1.6977 H   0  0  0  0  0  0  0  0  0  0  0  0
   -8.6321    1.8952   -0.6242 H   0  0  0  0  0  0  0  0  0  0  0  0
   -9.6297    0.5826   -1.2697 H   0  0  0  0  0  0  0  0  0  0  0  0
    1.3618   -0.4409   -2.9331 H   0  0  0  0  0  0  0  0  0  0  0  0
    0.7797    0.5841   -0.2208 H   0  0  0  0  0  0  0  0  0  0  0  0
    2.2096    1.0177   -1.1592 H   0  0  0  0  0  0  0  0  0  0  0  0
    4.0422   -0.1097   -0.5298 H   0  0  0  0  0  0  0  0  0  0  0  0
    1.5265   -4.2462    0.5412 H   0  0  0  0  0  0  0  0  0  0  0  0
    3.8990   -4.2139    0.8678 H   0  0  0  0  0  0  0  0  0  0  0  0
    7.3822   -1.2305   -0.0896 H   0  0  0  0  0  0  0  0  0  0  0  0
    6.0402   -0.5003   -0.8801 H   0  0  0  0  0  0  0  0  0  0  0  0
    7.3230   -3.1264    1.0197 H   0  0  0  0  0  0  0  0  0  0  0  0
    6.1515   -4.1583    0.2096 H   0  0  0  0  0  0  0  0  0  0  0  0
    5.8717   -3.5936    1.8863 H   0  0  0  0  0  0  0  0  0  0  0  0
    5.2525    0.3434    1.4678 H   0  0  0  0  0  0  0  0  0  0  0  0
    6.6590   -0.4318    2.1423 H   0  0  0  0  0  0  0  0  0  0  0  0
    5.4767    2.3667    0.0444 H   0  0  0  0  0  0  0  0  0  0  0  0
    6.8777    4.3786   -0.3507 H   0  0  0  0  0  0  0  0  0  0  0  0
   10.1598    2.3144    1.4767 H   0  0  0  0  0  0  0  0  0  0  0  0
    9.2649    4.3710    0.3709 H   0  0  0  0  0  0  0  0  0  0  0  0
  1 17  2  0  0  0  0
  2 18  2  0  0  0  0
  3 24  1  0  0  0  0
  3 25  1  0  0  0  0
  4 23  1  0  0  0  0
  4 28  1  0  0  0  0
  5 13  1  0  0  0  0
  5 14  1  0  0  0  0
  5 18  1  0  0  0  0
  6 17  1  0  0  0  0
  6 21  1  0  0  0  0
  6 22  1  0  0  0  0
  7 20  1  0  0  0  0
  7 26  1  0  0  0  0
  7 65  1  0  0  0  0
  8 31  1  0  0  0  0
  8 33  1  0  0  0  0
  8 34  1  0  0  0  0
  9 36  1  0  0  0  0
  9 39  2  0  0  0  0
 10 11  1  0  0  0  0
 10 12  1  0  0  0  0
 10 15  1  0  0  0  0
 10 41  1  0  0  0  0
 11 13  1  0  0  0  0
 11 16  1  0  0  0  0
 11 42  1  0  0  0  0
 12 14  1  0  0  0  0
 12 43  1  0  0  0  0
 12 44  1  0  0  0  0
 13 45  1  0  0  0  0
 13 46  1  0  0  0  0
 14 47  1  0  0  0  0
 14 48  1  0  0  0  0
 15 17  1  0  0  0  0
 15 49  1  0  0  0  0
 15 50  1  0  0  0  0
 16 19  2  0  0  0  0
 16 51  1  0  0  0  0
 18 20  1  0  0  0  0
 19 23  1  0  0  0  0
 19 52  1  0  0  0  0
 20 53  1  0  0  0  0
 20 54  1  0  0  0  0
 21 24  1  0  0  0  0
 21 55  1  0  0  0  0
 21 56  1  0  0  0  0
 22 25  1  0  0  0  0
 22 57  1  0  0  0  0
 22 58  1  0  0  0  0
 23 59  1  0  0  0  0
 23 60  1  0  0  0  0
 24 61  1  0  0  0  0
 24 62  1  0  0  0  0
 25 63  1  0  0  0  0
 25 64  1  0  0  0  0
 26 27  1  0  0  0  0
 26 66  1  0  0  0  0
 26 67  1  0  0  0  0
 27 28  2  0  0  0  0
 27 29  1  0  0  0  0
 28 30  1  0  0  0  0
 29 31  2  0  0  0  0
 29 68  1  0  0  0  0
 30 32  2  0  0  0  0
 30 69  1  0  0  0  0
 31 32  1  0  0  0  0
 32 70  1  0  0  0  0
 33 35  1  0  0  0  0
 33 71  1  0  0  0  0
 33 72  1  0  0  0  0
 34 73  1  0  0  0  0
 34 74  1  0  0  0  0
 34 75  1  0  0  0  0
 35 36  1  0  0  0  0
 35 76  1  0  0  0  0
 35 77  1  0  0  0  0
 36 37  2  0  0  0  0
 37 38  1  0  0  0  0
 37 78  1  0  0  0  0
 38 40  2  0  0  0  0
 38 79  1  0  0  0  0
 39 40  1  0  0  0  0
 39 80  1  0  0  0  0
 40 81  1  0  0  0  0
M  END
> <PUBCHEM_COMPOUND_CID>
71694374

> <PUBCHEM_CONFORMER_RMSD>
1.4

> <PUBCHEM_CONFORMER_DIVERSEORDER>
1
81
80
154
163
39
176
148
118
120
98
169
162
181
73
59
85
134
140
94
84
30
16
105
109
27
155
173
168
104
90
160
86
129
93
136
110
114
43
127
126
60
40
180
87
112
4
51
62
124
54
92
141
128
179
138
172
135
15
131
164
70
35
66
175
45
46
91
165
146
125
55
101
102
21
166
132
178
108
117
177
71
48
77
63
19
57
121
97
17
38
159
88
24
167
56
68
142
42
144
12
150
130
119
111
116
67
113
58
107
153
151
147
37
103
174
79
156
82
22
50
75
31
123
157
49
14
36
171
69
25
145
170
139
41
78
149
72
122
53
26
137
65
7
161
32
152
115
9
100
76
34
6
133
89
95
99
143
83
33
44
11
61
28
158
29
47
74
96
23
20
18
106
64
52
13
3
10
8
5
2

> <PUBCHEM_MMFF94_PARTIAL_CHARGES>
48
1 -0.57
11 0.14
13 0.3
14 0.3
15 0.06
16 -0.29
17 0.57
18 0.57
19 -0.29
2 -0.57
20 0.33
21 0.3
22 0.3
23 0.42
24 0.28
25 0.28
26 0.41
27 -0.14
28 0.08
29 -0.15
3 -0.56
30 -0.15
31 0.1
32 -0.15
33 0.37
34 0.37
35 0.14
36 0.17
37 -0.15
38 -0.15
39 0.16
4 -0.36
40 -0.15
5 -0.66
51 0.15
52 0.15
6 -0.66
65 0.36
68 0.15
69 0.15
7 -0.9
70 0.15
78 0.15
79 0.15
8 -0.84
80 0.15
81 0.15
9 -0.62

> <PUBCHEM_EFFECTIVE_ROTOR_COUNT>
10

> <PUBCHEM_PHARMACOPHORE_FEATURES>
12
1 1 acceptor
1 2 acceptor
1 3 acceptor
1 4 acceptor
1 7 cation
1 7 donor
1 8 cation
1 9 acceptor
6 27 28 29 30 31 32 rings
6 3 6 21 22 24 25 rings
6 5 10 11 12 13 14 rings
6 9 36 37 38 39 40 rings

> <PUBCHEM_HEAVY_ATOM_COUNT>
40

> <PUBCHEM_ATOM_DEF_STEREO_COUNT>
2

> <PUBCHEM_ATOM_UDEF_STEREO_COUNT>
0

> <PUBCHEM_BOND_DEF_STEREO_COUNT>
1

> <PUBCHEM_BOND_UDEF_STEREO_COUNT>
0

> <PUBCHEM_ISOTOPIC_ATOM_COUNT>
0

> <PUBCHEM_COMPONENT_COUNT>
1

> <PUBCHEM_CACTVS_TAUTO_COUNT>
4

> <PUBCHEM_CONFORMER_ID>
0445F82600000001

> <PUBCHEM_MMFF94_ENERGY>
126.0921

> <PUBCHEM_FEATURE_SELFOVERLAP>
60.899

> <PUBCHEM_SHAPE_FINGERPRINT>
10483366 6 10087650303458556468
10930396 42 17458338663430986769
11621639 148 18335143133291298763
12539765 74 17560808688748074559
13383668 362 17970359311252522561
13811026 1 17676490515045929607
13947930 73 16299253330687577139
14068700 675 14129350576537140383
14394314 77 18411135882996472029
15183329 4 10735886097298017964
15406563 190 17896022292240365844
15840311 113 18412548695809794950
18393751 57 18335138674388154587
19302320 297 18334288791645885168
19315958 150 18410011030908350282
2026 5 11242232053633633896
21057603 238 13326575227963511820
21792934 111 17968096396047690261
23569943 247 11169913888482923201
24771293 8 18342174492781042751
50009960 94 16662349526879502211
57527293 21 18201428169562709350
6126387 218 18186800263051688233
6636798 310 13479122502641319590

> <PUBCHEM_SHAPE_MULTIPOLES>
774.8
29.7
4.37
1.93
11.03
1.45
-0.49
-23.84
20.86
-9.65
-0.01
2.41
-0.99
-0.39

> <PUBCHEM_SHAPE_SELFOVERLAP>
1630.584

> <PUBCHEM_SHAPE_VOLUME>
428.4

> <PUBCHEM_COORDINATE_TYPE>
2
5
10

$$$$
