75536883
  -OEChem-12032416303D

 38 39  0     1  0  0  0  0  0999 V2000
   -3.7085    0.5430    1.2430 O   0  0  0  0  0  0  0  0  0  0  0  0
   -2.4119   -2.5293   -0.1764 O   0  0  0  0  0  0  0  0  0  0  0  0
    0.2631    2.8241   -0.2832 O   0  0  0  0  0  0  0  0  0  0  0  0
    3.6527   -1.0198    1.6103 O   0  0  0  0  0  0  0  0  0  0  0  0
   -1.1391    0.9591   -0.5029 N   0  0  0  0  0  0  0  0  0  0  0  0
   -2.5908   -1.1124   -0.1585 C   0  0  2  0  0  0  0  0  0  0  0  0
   -1.2761   -0.4954   -0.6440 C   0  0  0  0  0  0  0  0  0  0  0  0
   -2.3564    1.7645   -0.3920 C   0  0  0  0  0  0  0  0  0  0  0  0
   -2.9737   -0.6770    1.2545 C   0  0  0  0  0  0  0  0  0  0  0  0
   -2.9228    1.7092    1.0210 C   0  0  0  0  0  0  0  0  0  0  0  0
    0.1020    1.6132   -0.4325 C   0  0  0  0  0  0  0  0  0  0  0  0
    1.3253    0.8034   -0.5450 C   0  0  0  0  0  0  0  0  0  0  0  0
   -2.5675   -3.0514   -1.4862 C   0  0  0  0  0  0  0  0  0  0  0  0
    1.9163    0.2695    0.6001 C   0  0  0  0  0  0  0  0  0  0  0  0
    1.8941    0.5696   -1.7971 C   0  0  0  0  0  0  0  0  0  0  0  0
    3.0759   -0.4983    0.4933 C   0  0  0  0  0  0  0  0  0  0  0  0
    3.0538   -0.1979   -1.9040 C   0  0  0  0  0  0  0  0  0  0  0  0
    3.6447   -0.7322   -0.7588 C   0  0  0  0  0  0  0  0  0  0  0  0
    3.0190   -0.7418    2.8583 C   0  0  0  0  0  0  0  0  0  0  0  0
   -3.4097   -0.8339   -0.8349 H   0  0  0  0  0  0  0  0  0  0  0  0
   -0.4431   -0.9945   -0.1380 H   0  0  0  0  0  0  0  0  0  0  0  0
   -1.1358   -0.6981   -1.7120 H   0  0  0  0  0  0  0  0  0  0  0  0
   -3.0763    1.4208   -1.1421 H   0  0  0  0  0  0  0  0  0  0  0  0
   -2.1121    2.8058   -0.6286 H   0  0  0  0  0  0  0  0  0  0  0  0
   -3.6327   -1.4321    1.6982 H   0  0  0  0  0  0  0  0  0  0  0  0
   -2.1034   -0.6032    1.9182 H   0  0  0  0  0  0  0  0  0  0  0  0
   -3.5995    2.5592    1.1594 H   0  0  0  0  0  0  0  0  0  0  0  0
   -2.1420    1.7861    1.7867 H   0  0  0  0  0  0  0  0  0  0  0  0
   -3.5422   -2.7833   -1.9062 H   0  0  0  0  0  0  0  0  0  0  0  0
   -2.5192   -4.1423   -1.4199 H   0  0  0  0  0  0  0  0  0  0  0  0
   -1.7631   -2.7255   -2.1502 H   0  0  0  0  0  0  0  0  0  0  0  0
    1.4298    0.4837    1.5464 H   0  0  0  0  0  0  0  0  0  0  0  0
    1.4412    0.9805   -2.6957 H   0  0  0  0  0  0  0  0  0  0  0  0
    3.4965   -0.3801   -2.8788 H   0  0  0  0  0  0  0  0  0  0  0  0
    4.5479   -1.3295   -0.8485 H   0  0  0  0  0  0  0  0  0  0  0  0
    3.6107   -1.2334    3.6375 H   0  0  0  0  0  0  0  0  0  0  0  0
    2.0124   -1.1713    2.9031 H   0  0  0  0  0  0  0  0  0  0  0  0
    3.0240    0.3304    3.0822 H   0  0  0  0  0  0  0  0  0  0  0  0
  1  9  1  0  0  0  0
  1 10  1  0  0  0  0
  2  6  1  0  0  0  0
  2 13  1  0  0  0  0
  3 11  2  0  0  0  0
  4 16  1  0  0  0  0
  4 19  1  0  0  0  0
  5  7  1  0  0  0  0
  5  8  1  0  0  0  0
  5 11  1  0  0  0  0
  6  7  1  0  0  0  0
  6  9  1  0  0  0  0
  6 20  1  0  0  0  0
  7 21  1  0  0  0  0
  7 22  1  0  0  0  0
  8 10  1  0  0  0  0
  8 23  1  0  0  0  0
  8 24  1  0  0  0  0
  9 25  1  0  0  0  0
  9 26  1  0  0  0  0
 10 27  1  0  0  0  0
 10 28  1  0  0  0  0
 11 12  1  0  0  0  0
 12 14  2  0  0  0  0
 12 15  1  0  0  0  0
 13 29  1  0  0  0  0
 13 30  1  0  0  0  0
 13 31  1  0  0  0  0
 14 16  1  0  0  0  0
 14 32  1  0  0  0  0
 15 17  2  0  0  0  0
 15 33  1  0  0  0  0
 16 18  2  0  0  0  0
 17 18  1  0  0  0  0
 17 34  1  0  0  0  0
 18 35  1  0  0  0  0
 19 36  1  0  0  0  0
 19 37  1  0  0  0  0
 19 38  1  0  0  0  0
M  END
> <PUBCHEM_COMPOUND_CID>
75536883

> <PUBCHEM_CONFORMER_RMSD>
0.8

> <PUBCHEM_CONFORMER_DIVERSEORDER>
1
28
22
61
41
51
60
69
23
29
19
66
46
67
17
15
59
64
26
55
47
39
35
18
31
37
21
54
52
4
57
45
20
27
48
14
12
44
68
56
43
3
32
11
6
62
30
53
49
40
13
9
63
24
34
25
42
16
50
65
58
5
38
10
7
36
8
2
33

> <PUBCHEM_MMFF94_PARTIAL_CHARGES>
23
1 -0.56
10 0.28
11 0.54
12 0.09
13 0.28
14 -0.15
15 -0.15
16 0.08
17 -0.15
18 -0.15
19 0.28
2 -0.56
3 -0.57
32 0.15
33 0.15
34 0.15
35 0.15
4 -0.36
5 -0.66
6 0.28
7 0.3
8 0.3
9 0.28

> <PUBCHEM_EFFECTIVE_ROTOR_COUNT>
5.4

> <PUBCHEM_PHARMACOPHORE_FEATURES>
6
1 1 acceptor
1 2 acceptor
1 3 acceptor
1 4 acceptor
6 12 14 15 16 17 18 rings
7 1 5 6 7 8 9 10 rings

> <PUBCHEM_HEAVY_ATOM_COUNT>
19

> <PUBCHEM_ATOM_DEF_STEREO_COUNT>
1

> <PUBCHEM_ATOM_UDEF_STEREO_COUNT>
0

> <PUBCHEM_BOND_DEF_STEREO_COUNT>
0

> <PUBCHEM_BOND_UDEF_STEREO_COUNT>
0

> <PUBCHEM_ISOTOPIC_ATOM_COUNT>
0

> <PUBCHEM_COMPONENT_COUNT>
1

> <PUBCHEM_CACTVS_TAUTO_COUNT>
1

> <PUBCHEM_CONFORMER_ID>
048099F300000001

> <PUBCHEM_MMFF94_ENERGY>
71.559

> <PUBCHEM_FEATURE_SELFOVERLAP>
30.449

> <PUBCHEM_SHAPE_FINGERPRINT>
10366900 7 16773524278235959636
11552529 35 17775001340376877054
12346177 29 18202563982179626479
12403259 327 17842810284330721970
12553582 1 18335424607429570463
12633257 1 18059557067332832114
12670545 47 17489585649662603952
13083527 12 17695036165980359573
13931106 250 18268690810497337279
14178342 30 18201716266793329759
15295992 7 16271663195291300587
15342168 16 11383572138727352843
15375462 189 17967825941603710816
16752209 62 18408882906778219213
16945 1 18339924788284182956
18186145 218 12757153446227031532
18522851 12 18040727969040223554
18981168 100 11023280908256368309
19049666 15 17058105293616870772
19422 9 17458922447754179313
20291156 8 17531527564623505968
20361792 2 17967814980725735461
20442098 301 18341059604511048239
212916 134 17986676970120918065
21452121 199 17910940667584013743
21731516 1 18261392307703583895
22112679 90 18261109668912087748
22892500 29 15984828069309392128
23184049 29 18197777902294553063
232386 152 18334009488930654172
23419403 2 17265199640491324373
23532345 11 18060413655389039779
23559900 14 17845945120508997077
23598288 3 17896037650483734125
23598291 2 17459487562566193148
23728640 28 18117820128311673387
465052 167 18043842907752907609
5902787 121 18411136952570020020
602551 16 18272373062011840646
603831 33 17968385636145729084
74978 22 18340777034666116181
85463 6 18042664170699622402

> <PUBCHEM_SHAPE_MULTIPOLES>
362.55
6.98
2.54
2.03
1.09
0.72
-1.03
2.22
-1.99
-2.88
0.79
2.03
0.54
-1.24

> <PUBCHEM_SHAPE_SELFOVERLAP>
749.519

> <PUBCHEM_SHAPE_VOLUME>
205.3

> <PUBCHEM_COORDINATE_TYPE>
2
5
10

$$$$
