75536515
  -OEChem-12032416393D

 58 59  0     1  0  0  0  0  0999 V2000
    1.6615   -0.0403   -0.3764 O   0  0  0  0  0  0  0  0  0  0  0  0
    0.0306   -2.7542    1.3209 O   0  0  0  0  0  0  0  0  0  0  0  0
   -7.3357    0.6460    1.4945 O   0  0  0  0  0  0  0  0  0  0  0  0
    4.3038   -0.3695   -1.8322 O   0  0  0  0  0  0  0  0  0  0  0  0
   -1.8168   -1.0820   -0.5940 N   0  0  0  0  0  0  0  0  0  0  0  0
   -5.5215    0.8448    0.0569 N   0  0  0  0  0  0  0  0  0  0  0  0
    4.1337   -1.3638    0.2629 N   0  0  0  0  0  0  0  0  0  0  0  0
   -0.5629   -0.7484    0.0619 C   0  0  1  0  0  0  0  0  0  0  0  0
   -2.7969   -0.0139   -0.4129 C   0  0  0  0  0  0  0  0  0  0  0  0
    0.3737   -1.9315    0.2227 C   0  0  1  0  0  0  0  0  0  0  0  0
    1.7051   -1.2244    0.4372 C   0  0  1  0  0  0  0  0  0  0  0  0
    0.2951    0.2060   -0.7523 C   0  0  0  0  0  0  0  0  0  0  0  0
   -3.4482   -0.1262    0.9714 C   0  0  0  0  0  0  0  0  0  0  0  0
   -3.8626   -0.0849   -1.5142 C   0  0  0  0  0  0  0  0  0  0  0  0
   -4.5445    0.9235    1.1449 C   0  0  0  0  0  0  0  0  0  0  0  0
   -4.9520    0.9641   -1.2912 C   0  0  0  0  0  0  0  0  0  0  0  0
    2.9041   -2.0707    0.0480 C   0  0  0  0  0  0  0  0  0  0  0  0
   -6.8778    0.7081    0.3506 C   0  0  0  0  0  0  0  0  0  0  0  0
    5.8839    1.4757    0.3955 C   0  0  0  0  0  0  0  0  0  0  0  0
    6.0392    0.0682   -0.2277 C   0  0  0  0  0  0  0  0  0  0  0  0
    4.7401   -0.5645   -0.6994 C   0  0  0  0  0  0  0  0  0  0  0  0
   -7.8193    0.6314   -0.8246 C   0  0  0  0  0  0  0  0  0  0  0  0
    5.2877    2.4091   -0.6765 C   0  0  0  0  0  0  0  0  0  0  0  0
    4.9337    1.4550    1.6040 C   0  0  0  0  0  0  0  0  0  0  0  0
    7.2459    2.0424    0.8302 C   0  0  0  0  0  0  0  0  0  0  0  0
   -0.7331   -0.3298    1.0615 H   0  0  0  0  0  0  0  0  0  0  0  0
   -2.3163    0.9695   -0.5019 H   0  0  0  0  0  0  0  0  0  0  0  0
    0.3936   -2.5454   -0.6864 H   0  0  0  0  0  0  0  0  0  0  0  0
    1.8127   -0.8998    1.4807 H   0  0  0  0  0  0  0  0  0  0  0  0
   -2.1849   -1.9581   -0.2251 H   0  0  0  0  0  0  0  0  0  0  0  0
    0.2187    0.0191   -1.8297 H   0  0  0  0  0  0  0  0  0  0  0  0
    0.0554    1.2573   -0.5671 H   0  0  0  0  0  0  0  0  0  0  0  0
   -2.7177    0.0019    1.7769 H   0  0  0  0  0  0  0  0  0  0  0  0
   -3.8923   -1.1230    1.0966 H   0  0  0  0  0  0  0  0  0  0  0  0
   -4.3240   -1.0815   -1.5239 H   0  0  0  0  0  0  0  0  0  0  0  0
   -3.4035    0.0681   -2.4984 H   0  0  0  0  0  0  0  0  0  0  0  0
   -5.0315    0.7905    2.1162 H   0  0  0  0  0  0  0  0  0  0  0  0
   -4.1163    1.9328    1.1287 H   0  0  0  0  0  0  0  0  0  0  0  0
   -4.5328    1.9737   -1.3767 H   0  0  0  0  0  0  0  0  0  0  0  0
   -5.7127    0.8652   -2.0674 H   0  0  0  0  0  0  0  0  0  0  0  0
    2.9420   -2.9875    0.6452 H   0  0  0  0  0  0  0  0  0  0  0  0
    2.8497   -2.3483   -1.0108 H   0  0  0  0  0  0  0  0  0  0  0  0
    0.0123   -2.2033    2.1217 H   0  0  0  0  0  0  0  0  0  0  0  0
    4.5711   -1.4526    1.1754 H   0  0  0  0  0  0  0  0  0  0  0  0
    6.5179   -0.6044    0.4960 H   0  0  0  0  0  0  0  0  0  0  0  0
    6.7152    0.1063   -1.0920 H   0  0  0  0  0  0  0  0  0  0  0  0
   -8.8456    0.5175   -0.4619 H   0  0  0  0  0  0  0  0  0  0  0  0
   -7.7661    1.5515   -1.4126 H   0  0  0  0  0  0  0  0  0  0  0  0
   -7.5795   -0.2361   -1.4452 H   0  0  0  0  0  0  0  0  0  0  0  0
    4.2659    2.1257   -0.9500 H   0  0  0  0  0  0  0  0  0  0  0  0
    5.8963    2.4087   -1.5879 H   0  0  0  0  0  0  0  0  0  0  0  0
    5.2432    3.4423   -0.3122 H   0  0  0  0  0  0  0  0  0  0  0  0
    3.9113    1.1847    1.3211 H   0  0  0  0  0  0  0  0  0  0  0  0
    4.8825    2.4416    2.0792 H   0  0  0  0  0  0  0  0  0  0  0  0
    5.2776    0.7415    2.3609 H   0  0  0  0  0  0  0  0  0  0  0  0
    7.7051    1.4086    1.5969 H   0  0  0  0  0  0  0  0  0  0  0  0
    7.9389    2.0960   -0.0169 H   0  0  0  0  0  0  0  0  0  0  0  0
    7.1465    3.0514    1.2455 H   0  0  0  0  0  0  0  0  0  0  0  0
  1 11  1  0  0  0  0
  1 12  1  0  0  0  0
  2 10  1  0  0  0  0
  2 43  1  0  0  0  0
  3 18  2  0  0  0  0
  4 21  2  0  0  0  0
  5  8  1  0  0  0  0
  5  9  1  0  0  0  0
  5 30  1  0  0  0  0
  6 15  1  0  0  0  0
  6 16  1  0  0  0  0
  6 18  1  0  0  0  0
  7 17  1  0  0  0  0
  7 21  1  0  0  0  0
  7 44  1  0  0  0  0
  8 10  1  0  0  0  0
  8 12  1  0  0  0  0
  8 26  1  0  0  0  0
  9 13  1  0  0  0  0
  9 14  1  0  0  0  0
  9 27  1  0  0  0  0
 10 11  1  0  0  0  0
 10 28  1  0  0  0  0
 11 17  1  0  0  0  0
 11 29  1  0  0  0  0
 12 31  1  0  0  0  0
 12 32  1  0  0  0  0
 13 15  1  0  0  0  0
 13 33  1  0  0  0  0
 13 34  1  0  0  0  0
 14 16  1  0  0  0  0
 14 35  1  0  0  0  0
 14 36  1  0  0  0  0
 15 37  1  0  0  0  0
 15 38  1  0  0  0  0
 16 39  1  0  0  0  0
 16 40  1  0  0  0  0
 17 41  1  0  0  0  0
 17 42  1  0  0  0  0
 18 22  1  0  0  0  0
 19 20  1  0  0  0  0
 19 23  1  0  0  0  0
 19 24  1  0  0  0  0
 19 25  1  0  0  0  0
 20 21  1  0  0  0  0
 20 45  1  0  0  0  0
 20 46  1  0  0  0  0
 22 47  1  0  0  0  0
 22 48  1  0  0  0  0
 22 49  1  0  0  0  0
 23 50  1  0  0  0  0
 23 51  1  0  0  0  0
 23 52  1  0  0  0  0
 24 53  1  0  0  0  0
 24 54  1  0  0  0  0
 24 55  1  0  0  0  0
 25 56  1  0  0  0  0
 25 57  1  0  0  0  0
 25 58  1  0  0  0  0
M  END
> <PUBCHEM_COMPOUND_CID>
75536515

> <PUBCHEM_CONFORMER_RMSD>
1

> <PUBCHEM_CONFORMER_DIVERSEORDER>
1
13
133
125
56
72
134
7
20
142
89
165
108
77
105
111
160
146
52
147
114
102
151
83
156
162
50
145
109
76
161
65
158
16
153
92
157
93
130
75
31
32
63
86
138
22
132
115
38
91
54
100
55
104
148
118
117
18
123
166
61
47
26
127
122
2
121
14
62
149
150
103
159
98
35
87
80
64
9
71
4
141
126
94
21
27
90
99
120
11
78
97
48
59
8
139
28
129
81
101
53
74
68
128
137
60
46
124
82
66
154
42
135
33
12
88
107
24
40
110
41
152
19
119
136
84
79
69
113
116
96
155
70
85
45
44
73
39
36
23
112
57
5
25
106
34
3
143
163
43
95
30
29
10
67
37
131
49
15
58
164
144
140
51
17
6

> <PUBCHEM_MMFF94_PARTIAL_CHARGES>
22
1 -0.56
10 0.28
11 0.28
12 0.28
15 0.3
16 0.3
17 0.3
18 0.57
2 -0.68
20 0.06
21 0.57
22 0.06
3 -0.57
30 0.36
4 -0.57
43 0.4
44 0.37
5 -0.9
6 -0.66
7 -0.73
8 0.27
9 0.27

> <PUBCHEM_EFFECTIVE_ROTOR_COUNT>
10.2

> <PUBCHEM_PHARMACOPHORE_FEATURES>
11
1 1 acceptor
1 2 acceptor
1 2 donor
1 3 acceptor
1 4 acceptor
1 5 cation
1 5 donor
1 7 donor
4 19 23 24 25 hydrophobe
5 1 8 10 11 12 rings
6 6 9 13 14 15 16 rings

> <PUBCHEM_HEAVY_ATOM_COUNT>
25

> <PUBCHEM_ATOM_DEF_STEREO_COUNT>
3

> <PUBCHEM_ATOM_UDEF_STEREO_COUNT>
0

> <PUBCHEM_BOND_DEF_STEREO_COUNT>
0

> <PUBCHEM_BOND_UDEF_STEREO_COUNT>
0

> <PUBCHEM_ISOTOPIC_ATOM_COUNT>
0

> <PUBCHEM_COMPONENT_COUNT>
1

> <PUBCHEM_CACTVS_TAUTO_COUNT>
2

> <PUBCHEM_CONFORMER_ID>
0480988300000001

> <PUBCHEM_MMFF94_ENERGY>
46.0431

> <PUBCHEM_FEATURE_SELFOVERLAP>
55.822

> <PUBCHEM_SHAPE_FINGERPRINT>
10 15 17313107470499277516
10638233 991 17989204832999222265
11796584 16 13542169589577067423
12236239 1 18130787807537106471
125118 31 18339361868780842849
13533116 47 18336265627126077770
13782708 43 12894483612962963293
13955234 65 18116427051602037562
14170010 4 18187649097952838933
14211702 104 8141784115323489249
14216079 64 9223235143578688113
14251757 52 17988647363529546201
14251764 18 13190343465327923000
14251764 75 17826522351501837884
14461889 52 17458354043487698427
14528608 73 17775280586687164494
14849402 71 18342458183819297793
15183329 4 16272212998239013640
15188451 53 12107781913116541926
155225 6 17971481947259495316
15840311 113 18411985749618461380
18222031 100 10735876171095833790
20157964 124 18272654532846356982
20281389 69 18261391122318958085
20397935 70 12757146862458722992
21033648 29 17676763168297048933
21130935 74 17822857464476483691
21150785 3 16988841687547850685
21521721 280 18411140221061101739
21792934 111 17822281336771775468
2215653 11 11815896764656562476
22224240 67 18040435495195807827
23522609 53 16916804946014047483
23559900 14 11311758576198966167
2916195 48 18407758153300726710
3004659 81 12823293503022726346
3472631 163 18272936046335348790
34797466 226 17703794695281829316
4093350 32 17703795799389247740
4340502 62 16153425034881664114
44317340 157 18131071554150707150
445580 126 18412254048347514824
445580 167 18131061654699158341
465052 167 8430316857699535152
5080951 261 16226044557378042635
5104073 3 17387122083866268321
5265222 85 16199574922259662991
5312510 48 18201997776731126824
543368 44 18273212006610941725
5758199 1 18408887330647359515
59682541 35 17458632245583290760
59682541 52 16702306745910675228

> <PUBCHEM_SHAPE_MULTIPOLES>
476.07
21.81
2.15
1.37
12.72
0.43
-0.02
-14.78
1.34
-3.44
0.5
0.52
-0.18
0.48

> <PUBCHEM_SHAPE_SELFOVERLAP>
954.356

> <PUBCHEM_SHAPE_VOLUME>
280.6

> <PUBCHEM_COORDINATE_TYPE>
2
5
10

$$$$
