26742464
  -OEChem-12032416223D

 63 67  0     1  0  0  0  0  0999 V2000
   -3.1883   -1.2159    1.4969 O   0  0  0  0  0  0  0  0  0  0  0  0
    7.1927    2.3353    0.4347 O   0  0  0  0  0  0  0  0  0  0  0  0
   -9.9503   -0.1443    0.0706 O   0  0  0  0  0  0  0  0  0  0  0  0
    1.0522   -2.7706    0.8059 N   0  0  2  0  0  0  0  0  0  0  0  0
   -1.4404    0.0387    0.6467 N   0  0  0  0  0  0  0  0  0  0  0  0
    3.3473    0.2652   -1.7116 N   0  0  0  0  0  0  0  0  0  0  0  0
    5.1505    1.7088   -1.0247 N   0  0  0  0  0  0  0  0  0  0  0  0
   -3.6071    0.6877    0.1888 N   0  0  0  0  0  0  0  0  0  0  0  0
    1.7360   -2.1046   -1.6173 C   0  0  2  0  0  0  0  0  0  0  0  0
    2.9244   -1.8923   -0.6391 C   0  0  2  0  0  0  0  0  0  0  0  0
    0.0335   -1.8581    0.2229 C   0  0  2  0  0  0  0  0  0  0  0  0
    0.5204   -1.2898   -1.1274 C   0  0  0  0  0  0  0  0  0  0  0  0
    1.3478   -3.5961   -1.5290 C   0  0  0  0  0  0  0  0  0  0  0  0
    2.3837   -2.1148    0.8023 C   0  0  0  0  0  0  0  0  0  0  0  0
    1.1278   -3.9759   -0.0542 C   0  0  0  0  0  0  0  0  0  0  0  0
   -0.3787   -0.7489    1.1931 C   0  0  0  0  0  0  0  0  0  0  0  0
    3.7346   -0.6095   -0.7602 C   0  0  0  0  0  0  0  0  0  0  0  0
    4.8047   -0.3987    0.0853 C   0  0  0  0  0  0  0  0  0  0  0  0
    5.4826    0.7898   -0.0945 C   0  0  0  0  0  0  0  0  0  0  0  0
    4.0885    1.3869   -1.7879 C   0  0  0  0  0  0  0  0  0  0  0  0
   -2.8029   -0.2527    0.8386 C   0  0  0  0  0  0  0  0  0  0  0  0
    6.6185    1.1364    0.7176 C   0  0  0  0  0  0  0  0  0  0  0  0
    3.6901    2.3796   -2.8271 C   0  0  0  0  0  0  0  0  0  0  0  0
    7.2818    0.5145    1.7498 C   0  0  0  0  0  0  0  0  0  0  0  0
   -5.0199    0.7394    0.1451 C   0  0  0  0  0  0  0  0  0  0  0  0
    8.3308    1.3874    2.1254 C   0  0  0  0  0  0  0  0  0  0  0  0
    8.2338    2.4805    1.2958 C   0  0  0  0  0  0  0  0  0  0  0  0
   -5.6590    1.7596   -0.5598 C   0  0  0  0  0  0  0  0  0  0  0  0
   -5.7741   -0.2305    0.8053 C   0  0  0  0  0  0  0  0  0  0  0  0
   -7.0522    1.8096   -0.6043 C   0  0  0  0  0  0  0  0  0  0  0  0
   -7.1673   -0.1806    0.7607 C   0  0  0  0  0  0  0  0  0  0  0  0
   -7.8064    0.8395    0.0559 C   0  0  0  0  0  0  0  0  0  0  0  0
   -9.2590    0.8921    0.0104 C   0  0  0  0  0  0  0  0  0  0  0  0
   -9.9762    2.2321   -0.1145 C   0  0  0  0  0  0  0  0  0  0  0  0
    1.9981   -1.8382   -2.6467 H   0  0  0  0  0  0  0  0  0  0  0  0
    3.6478   -2.6944   -0.8534 H   0  0  0  0  0  0  0  0  0  0  0  0
   -0.8730   -2.4518    0.0320 H   0  0  0  0  0  0  0  0  0  0  0  0
    0.7907   -0.2310   -1.0481 H   0  0  0  0  0  0  0  0  0  0  0  0
   -0.2893   -1.3585   -1.8647 H   0  0  0  0  0  0  0  0  0  0  0  0
    2.1362   -4.2233   -1.9612 H   0  0  0  0  0  0  0  0  0  0  0  0
    0.4339   -3.7784   -2.1075 H   0  0  0  0  0  0  0  0  0  0  0  0
    3.0899   -2.7465    1.3579 H   0  0  0  0  0  0  0  0  0  0  0  0
    2.3383   -1.1785    1.3704 H   0  0  0  0  0  0  0  0  0  0  0  0
    0.2084   -4.5658    0.0455 H   0  0  0  0  0  0  0  0  0  0  0  0
    1.9362   -4.6312    0.2945 H   0  0  0  0  0  0  0  0  0  0  0  0
    0.4459   -0.0608    1.4038 H   0  0  0  0  0  0  0  0  0  0  0  0
   -0.7066   -1.1800    2.1460 H   0  0  0  0  0  0  0  0  0  0  0  0
   -1.1968    0.8495    0.0861 H   0  0  0  0  0  0  0  0  0  0  0  0
    5.0898   -1.1284    0.8333 H   0  0  0  0  0  0  0  0  0  0  0  0
    4.2990    2.2387   -3.7249 H   0  0  0  0  0  0  0  0  0  0  0  0
    2.6359    2.2622   -3.0970 H   0  0  0  0  0  0  0  0  0  0  0  0
    3.8349    3.4005   -2.4602 H   0  0  0  0  0  0  0  0  0  0  0  0
   -3.1260    1.4277   -0.3163 H   0  0  0  0  0  0  0  0  0  0  0  0
    7.0499   -0.4464    2.1869 H   0  0  0  0  0  0  0  0  0  0  0  0
    9.0655    1.2387    2.9033 H   0  0  0  0  0  0  0  0  0  0  0  0
    8.7985    3.3959    1.1962 H   0  0  0  0  0  0  0  0  0  0  0  0
   -5.0828    2.5198   -1.0811 H   0  0  0  0  0  0  0  0  0  0  0  0
   -5.3527   -1.0491    1.3714 H   0  0  0  0  0  0  0  0  0  0  0  0
   -7.5236    2.6077   -1.1711 H   0  0  0  0  0  0  0  0  0  0  0  0
   -7.7397   -0.9422    1.2843 H   0  0  0  0  0  0  0  0  0  0  0  0
  -10.1105    2.4780   -1.1707 H   0  0  0  0  0  0  0  0  0  0  0  0
   -9.4147    3.0218    0.3919 H   0  0  0  0  0  0  0  0  0  0  0  0
  -10.9537    2.1604    0.3719 H   0  0  0  0  0  0  0  0  0  0  0  0
  1 21  2  0  0  0  0
  2 22  1  0  0  0  0
  2 27  1  0  0  0  0
  3 33  2  0  0  0  0
  4 11  1  0  0  0  0
  4 14  1  0  0  0  0
  4 15  1  0  0  0  0
  5 16  1  0  0  0  0
  5 21  1  0  0  0  0
  5 48  1  0  0  0  0
  6 17  2  0  0  0  0
  6 20  1  0  0  0  0
  7 19  1  0  0  0  0
  7 20  2  0  0  0  0
  8 21  1  0  0  0  0
  8 25  1  0  0  0  0
  8 53  1  0  0  0  0
  9 10  1  0  0  0  0
  9 12  1  0  0  0  0
  9 13  1  0  0  0  0
  9 35  1  0  0  0  0
 10 14  1  0  0  0  0
 10 17  1  0  0  0  0
 10 36  1  0  0  0  0
 11 12  1  0  0  0  0
 11 16  1  0  0  0  0
 11 37  1  0  0  0  0
 12 38  1  0  0  0  0
 12 39  1  0  0  0  0
 13 15  1  0  0  0  0
 13 40  1  0  0  0  0
 13 41  1  0  0  0  0
 14 42  1  0  0  0  0
 14 43  1  0  0  0  0
 15 44  1  0  0  0  0
 15 45  1  0  0  0  0
 16 46  1  0  0  0  0
 16 47  1  0  0  0  0
 17 18  1  0  0  0  0
 18 19  2  0  0  0  0
 18 49  1  0  0  0  0
 19 22  1  0  0  0  0
 20 23  1  0  0  0  0
 22 24  2  0  0  0  0
 23 50  1  0  0  0  0
 23 51  1  0  0  0  0
 23 52  1  0  0  0  0
 24 26  1  0  0  0  0
 24 54  1  0  0  0  0
 25 28  2  0  0  0  0
 25 29  1  0  0  0  0
 26 27  2  0  0  0  0
 26 55  1  0  0  0  0
 27 56  1  0  0  0  0
 28 30  1  0  0  0  0
 28 57  1  0  0  0  0
 29 31  2  0  0  0  0
 29 58  1  0  0  0  0
 30 32  2  0  0  0  0
 30 59  1  0  0  0  0
 31 32  1  0  0  0  0
 31 60  1  0  0  0  0
 32 33  1  0  0  0  0
 33 34  1  0  0  0  0
 34 61  1  0  0  0  0
 34 62  1  0  0  0  0
 34 63  1  0  0  0  0
M  END
> <PUBCHEM_COMPOUND_CID>
26742464

> <PUBCHEM_CONFORMER_RMSD>
1

> <PUBCHEM_CONFORMER_DIVERSEORDER>
1
70
14
22
63
46
55
34
23
58
52
44
57
33
35
49
32
16
72
15
36
42
64
31
61
54
39
68
51
71
45
50
27
12
4
30
43
60
69
65
21
66
40
41
56
47
24
3
10
29
28
48
13
20
67
26
59
7
53
18
37
73
2
5
38
6
17
62
8
19
25
11
9

> <PUBCHEM_MMFF94_PARTIAL_CHARGES>
41
1 -0.57
10 0.14
11 0.27
14 0.27
15 0.27
16 0.3
17 0.17
18 -0.15
19 0.36
2 -0.28
20 0.48
21 0.69
22 0.09
23 0.14
24 -0.15
25 0.12
26 -0.15
27 -0.01
28 -0.15
29 -0.15
3 -0.57
30 -0.15
31 -0.15
32 0.09
33 0.42
34 0.06
4 -0.81
48 0.37
49 0.15
5 -0.73
53 0.37
54 0.15
55 0.15
56 0.15
57 0.15
58 0.15
59 0.15
6 -0.62
60 0.15
7 -0.62
8 -0.55

> <PUBCHEM_EFFECTIVE_ROTOR_COUNT>
9.2

> <PUBCHEM_PHARMACOPHORE_FEATURES>
12
1 1 acceptor
1 2 acceptor
1 3 acceptor
1 4 cation
1 5 donor
1 6 acceptor
1 8 donor
3 6 7 20 cation
5 2 22 24 26 27 rings
6 25 28 29 30 31 32 rings
6 6 7 17 18 19 20 rings
8 4 9 10 11 12 13 14 15 rings

> <PUBCHEM_HEAVY_ATOM_COUNT>
34

> <PUBCHEM_ATOM_DEF_STEREO_COUNT>
3

> <PUBCHEM_ATOM_UDEF_STEREO_COUNT>
0

> <PUBCHEM_BOND_DEF_STEREO_COUNT>
0

> <PUBCHEM_BOND_UDEF_STEREO_COUNT>
0

> <PUBCHEM_ISOTOPIC_ATOM_COUNT>
0

> <PUBCHEM_COMPONENT_COUNT>
1

> <PUBCHEM_CACTVS_TAUTO_COUNT>
16

> <PUBCHEM_CONFORMER_ID>
01980EC000000001

> <PUBCHEM_MMFF94_ENERGY>
87.2045

> <PUBCHEM_FEATURE_SELFOVERLAP>
60.946

> <PUBCHEM_SHAPE_FINGERPRINT>
10673678 19 18411706478007478259
11135609 201 18341604923602698230
11146346 40 15769485538427950481
11146851 88 18259987093521539788
11456790 92 13479138961256723965
11607047 74 18130505224333129678
11828042 75 14349408917623797408
12592606 108 8502652615115235201
13150687 139 17632305571000788942
13673619 4 10447928356289212779
14117953 113 18334307456967066596
14294032 229 18199473353741941590
14347424 109 14779554512847346430
14675020 138 16805610239764641323
15350500 185 18131064961639496352
15419008 145 16950833726665814708
15669420 48 14692567728526440336
15840311 113 18413386515365140194
15890870 6 18342738546689265280
19301679 30 12180112147578742066
19302320 297 17822017544228703124
19304144 158 18410007707284333829
20105231 36 11672060853151853557
20554085 129 18273208716771592594
20721686 146 18199470051861721724
21304303 282 18058159708656969966
22899556 105 10591505905566831500
22899556 56 15576093422008442382
23522609 53 16270824242498034371
25269216 80 16558171826908004263
3146122 72 16271631399901714448
4112364 45 17676486185529426104
4149490 64 18188215308420220563
445580 126 18407758140399955352
44880168 125 12468636174823502032
4874694 18 18260829290117713459
5372103 7 17059766841203835456
6058803 2 16268858229275728187

> <PUBCHEM_SHAPE_MULTIPOLES>
657.19
30.47
3.48
1.8
51.29
2.67
-0.65
-30.08
8.91
-4.03
-0.86
-3.74
-0.58
1.85

> <PUBCHEM_SHAPE_SELFOVERLAP>
1429.219

> <PUBCHEM_SHAPE_VOLUME>
353.2

> <PUBCHEM_COORDINATE_TYPE>
2
5
10

$$$$
