25389777
  -OEChem-12032416163D

 62 66  0     1  0  0  0  0  0999 V2000
   -6.5393    0.2429   -0.2488 F   0  0  0  0  0  0  0  0  0  0  0  0
   -1.6655    3.1030    1.1015 O   0  0  0  0  0  0  0  0  0  0  0  0
   -0.4117    3.9443   -0.6469 O   0  0  0  0  0  0  0  0  0  0  0  0
   -0.2514    0.7801    0.6858 N   0  0  2  0  0  0  0  0  0  0  0  0
   -1.3705   -2.9856   -0.3016 N   0  0  0  0  0  0  0  0  0  0  0  0
    3.0400   -1.0450    0.9104 N   0  0  0  0  0  0  0  0  0  0  0  0
    0.6368   -0.2456    1.3066 C   0  0  1  0  0  0  0  0  0  0  0  0
   -0.8926    0.3798   -0.5915 C   0  0  1  0  0  0  0  0  0  0  0  0
    0.0320   -1.6497    1.1959 C   0  0  0  0  0  0  0  0  0  0  0  0
   -0.2056   -2.1004   -0.2488 C   0  0  2  0  0  0  0  0  0  0  0  0
   -0.3325   -0.9184   -1.2147 C   0  0  0  0  0  0  0  0  0  0  0  0
    0.4090    2.1111    0.6787 C   0  0  1  0  0  0  0  0  0  0  0  0
    2.0383   -0.1265    0.7766 C   0  0  0  0  0  0  0  0  0  0  0  0
    1.6932    2.1622   -0.1820 C   0  0  0  0  0  0  0  0  0  0  0  0
    2.5441    0.9711    0.1078 C   0  0  0  0  0  0  0  0  0  0  0  0
   -2.4190    0.3427   -0.4987 C   0  0  0  0  0  0  0  0  0  0  0  0
    3.9021    0.6965   -0.2060 C   0  0  0  0  0  0  0  0  0  0  0  0
    4.1873   -0.5737    0.3073 C   0  0  0  0  0  0  0  0  0  0  0  0
   -0.5792    3.1632    0.2798 C   0  0  0  0  0  0  0  0  0  0  0  0
   -1.0484   -4.2947    0.2452 C   0  0  0  0  0  0  0  0  0  0  0  0
   -3.1936    0.8198   -1.5562 C   0  0  0  0  0  0  0  0  0  0  0  0
   -3.0365   -0.1680    0.6430 C   0  0  0  0  0  0  0  0  0  0  0  0
    4.9224    1.4013   -0.8755 C   0  0  0  0  0  0  0  0  0  0  0  0
    5.4469   -1.1710    0.1819 C   0  0  0  0  0  0  0  0  0  0  0  0
   -2.3332   -4.9956    0.6748 C   0  0  0  0  0  0  0  0  0  0  0  0
   -0.2885   -5.1258   -0.7849 C   0  0  0  0  0  0  0  0  0  0  0  0
    6.1856    0.8141   -1.0084 C   0  0  0  0  0  0  0  0  0  0  0  0
   -4.5854    0.7864   -1.4719 C   0  0  0  0  0  0  0  0  0  0  0  0
   -4.4283   -0.2014    0.7274 C   0  0  0  0  0  0  0  0  0  0  0  0
    6.4417   -0.4523   -0.4870 C   0  0  0  0  0  0  0  0  0  0  0  0
   -5.2028    0.2758   -0.3300 C   0  0  0  0  0  0  0  0  0  0  0  0
   -2.6952    4.0593    0.8303 C   0  0  0  0  0  0  0  0  0  0  0  0
    0.6908   -0.0100    2.3790 H   0  0  0  0  0  0  0  0  0  0  0  0
   -0.6701    1.1514   -1.3411 H   0  0  0  0  0  0  0  0  0  0  0  0
    0.6993   -2.3702    1.6882 H   0  0  0  0  0  0  0  0  0  0  0  0
   -0.8854   -1.6949    1.7907 H   0  0  0  0  0  0  0  0  0  0  0  0
    0.6855   -2.6408   -0.5891 H   0  0  0  0  0  0  0  0  0  0  0  0
   -0.9123   -1.2011   -2.1039 H   0  0  0  0  0  0  0  0  0  0  0  0
    0.6698   -0.6969   -1.6079 H   0  0  0  0  0  0  0  0  0  0  0  0
    0.6944    2.3584    1.7125 H   0  0  0  0  0  0  0  0  0  0  0  0
    2.2479    3.0828    0.0364 H   0  0  0  0  0  0  0  0  0  0  0  0
    1.4550    2.1756   -1.2527 H   0  0  0  0  0  0  0  0  0  0  0  0
   -1.7008   -3.0834   -1.2610 H   0  0  0  0  0  0  0  0  0  0  0  0
    2.9593   -1.9398    1.3735 H   0  0  0  0  0  0  0  0  0  0  0  0
   -0.4329   -4.2186    1.1485 H   0  0  0  0  0  0  0  0  0  0  0  0
   -2.7265    1.2190   -2.4525 H   0  0  0  0  0  0  0  0  0  0  0  0
   -2.4807   -0.5083    1.5048 H   0  0  0  0  0  0  0  0  0  0  0  0
    4.7378    2.3896   -1.2869 H   0  0  0  0  0  0  0  0  0  0  0  0
    5.6484   -2.1567    0.5878 H   0  0  0  0  0  0  0  0  0  0  0  0
   -3.0104   -5.1497   -0.1731 H   0  0  0  0  0  0  0  0  0  0  0  0
   -2.8662   -4.4082    1.4310 H   0  0  0  0  0  0  0  0  0  0  0  0
   -2.1137   -5.9765    1.1102 H   0  0  0  0  0  0  0  0  0  0  0  0
   -0.8549   -5.2266   -1.7179 H   0  0  0  0  0  0  0  0  0  0  0  0
    0.6919   -4.7065   -1.0279 H   0  0  0  0  0  0  0  0  0  0  0  0
   -0.1132   -6.1373   -0.4007 H   0  0  0  0  0  0  0  0  0  0  0  0
    6.9754    1.3537   -1.5243 H   0  0  0  0  0  0  0  0  0  0  0  0
   -5.1887    1.1575   -2.2951 H   0  0  0  0  0  0  0  0  0  0  0  0
   -4.9099   -0.5902    1.6199 H   0  0  0  0  0  0  0  0  0  0  0  0
    7.4304   -0.8893   -0.6013 H   0  0  0  0  0  0  0  0  0  0  0  0
   -3.5214    3.8736    1.5216 H   0  0  0  0  0  0  0  0  0  0  0  0
   -3.0630    3.9439   -0.1937 H   0  0  0  0  0  0  0  0  0  0  0  0
   -2.3193    5.0736    0.9942 H   0  0  0  0  0  0  0  0  0  0  0  0
  1 31  1  0  0  0  0
  2 19  1  0  0  0  0
  2 32  1  0  0  0  0
  3 19  2  0  0  0  0
  4  7  1  0  0  0  0
  4  8  1  0  0  0  0
  4 12  1  0  0  0  0
  5 10  1  0  0  0  0
  5 20  1  0  0  0  0
  5 43  1  0  0  0  0
  6 13  1  0  0  0  0
  6 18  1  0  0  0  0
  6 44  1  0  0  0  0
  7  9  1  0  0  0  0
  7 13  1  0  0  0  0
  7 33  1  0  0  0  0
  8 11  1  0  0  0  0
  8 16  1  0  0  0  0
  8 34  1  0  0  0  0
  9 10  1  0  0  0  0
  9 35  1  0  0  0  0
  9 36  1  0  0  0  0
 10 11  1  0  0  0  0
 10 37  1  0  0  0  0
 11 38  1  0  0  0  0
 11 39  1  0  0  0  0
 12 14  1  0  0  0  0
 12 19  1  0  0  0  0
 12 40  1  0  0  0  0
 13 15  2  0  0  0  0
 14 15  1  0  0  0  0
 14 41  1  0  0  0  0
 14 42  1  0  0  0  0
 15 17  1  0  0  0  0
 16 21  2  0  0  0  0
 16 22  1  0  0  0  0
 17 18  1  0  0  0  0
 17 23  2  0  0  0  0
 18 24  2  0  0  0  0
 20 25  1  0  0  0  0
 20 26  1  0  0  0  0
 20 45  1  0  0  0  0
 21 28  1  0  0  0  0
 21 46  1  0  0  0  0
 22 29  2  0  0  0  0
 22 47  1  0  0  0  0
 23 27  1  0  0  0  0
 23 48  1  0  0  0  0
 24 30  1  0  0  0  0
 24 49  1  0  0  0  0
 25 50  1  0  0  0  0
 25 51  1  0  0  0  0
 25 52  1  0  0  0  0
 26 53  1  0  0  0  0
 26 54  1  0  0  0  0
 26 55  1  0  0  0  0
 27 30  2  0  0  0  0
 27 56  1  0  0  0  0
 28 31  2  0  0  0  0
 28 57  1  0  0  0  0
 29 31  1  0  0  0  0
 29 58  1  0  0  0  0
 30 59  1  0  0  0  0
 32 60  1  0  0  0  0
 32 61  1  0  0  0  0
 32 62  1  0  0  0  0
M  END
> <PUBCHEM_COMPOUND_CID>
25389777

> <PUBCHEM_CONFORMER_RMSD>
0.8

> <PUBCHEM_CONFORMER_DIVERSEORDER>
1
9
3
5
8
4
7
6
2

> <PUBCHEM_MMFF94_PARTIAL_CHARGES>
37
1 -0.19
10 0.27
12 0.33
13 -0.33
14 0.18
15 -0.18
16 -0.14
18 -0.15
19 0.66
2 -0.43
20 0.27
21 -0.15
22 -0.15
23 -0.15
24 -0.15
27 -0.15
28 -0.15
29 -0.15
3 -0.57
30 -0.15
31 0.19
32 0.28
4 -0.81
43 0.36
44 0.27
46 0.15
47 0.15
48 0.15
49 0.15
5 -0.9
56 0.15
57 0.15
58 0.15
59 0.15
6 0.03
7 0.45
8 0.41

> <PUBCHEM_EFFECTIVE_ROTOR_COUNT>
6.2

> <PUBCHEM_PHARMACOPHORE_FEATURES>
12
1 3 acceptor
1 4 cation
1 5 cation
1 5 donor
1 6 cation
1 6 donor
3 20 25 26 hydrophobe
5 6 13 15 17 18 rings
6 16 21 22 28 29 31 rings
6 17 18 23 24 27 30 rings
6 4 7 12 13 14 15 rings
6 4 7 8 9 10 11 rings

> <PUBCHEM_HEAVY_ATOM_COUNT>
32

> <PUBCHEM_ATOM_DEF_STEREO_COUNT>
4

> <PUBCHEM_ATOM_UDEF_STEREO_COUNT>
0

> <PUBCHEM_BOND_DEF_STEREO_COUNT>
0

> <PUBCHEM_BOND_UDEF_STEREO_COUNT>
0

> <PUBCHEM_ISOTOPIC_ATOM_COUNT>
0

> <PUBCHEM_COMPONENT_COUNT>
1

> <PUBCHEM_CACTVS_TAUTO_COUNT>
1

> <PUBCHEM_CONFORMER_ID>
01836AD100000001

> <PUBCHEM_MMFF94_ENERGY>
74.1772

> <PUBCHEM_FEATURE_SELFOVERLAP>
61.194

> <PUBCHEM_SHAPE_FINGERPRINT>
10190108 129 18196676016035490777
1100329 8 18338233885613706457
11285246 1 17839146921893391719
11578080 2 17557417988108105712
12058002 1 17486247579626317897
12293681 4 18341621450631494049
12788726 201 18272087158828967432
13140716 1 18195796586815720288
13911987 19 18336255778564997919
14251757 5 18337672018034579590
14790565 3 18339083687743315872
14955137 171 18270682086311550689
15131766 46 15576995194185585022
15297060 5 18269840817539238705
15439362 3 17113250041489817436
15775530 1 17696174186369320994
16752209 62 18270669871108192800
19319366 153 17821719533896876386
19958102 18 18340494348956969222
20028762 73 18129654331393045479
20691752 17 18127155011895763557
20775438 99 17047627279018113519
21033648 29 18264468681209416053
21033650 10 17416432912406193928
21236236 1 18270120106509522656
229495 10 16952221301602179978
23366157 5 17616252481421832099
2818148 4 17833284381743715065
283562 15 18270681948429719713
3027735 51 18199753535468577344
3178227 256 18336276716862927163
3380486 145 18048333424245457760
3383291 50 18339637837873484138
340366 18 18261958552171117934
4058900 60 18190459364164374303
5486654 2 18410292510533560111

> <PUBCHEM_SHAPE_MULTIPOLES>
624.59
11.36
5.44
1.2
8.98
5.38
0.11
-1.96
3.02
-4.71
-0.55
-0.42
-0.11
-0.27

> <PUBCHEM_SHAPE_SELFOVERLAP>
1362.62

> <PUBCHEM_SHAPE_VOLUME>
341.2

> <PUBCHEM_COORDINATE_TYPE>
2
5
10

$$$$
