11941199
  -OEChem-12032416153D

 74 76  0     1  0  0  0  0  0999 V2000
    2.2691    2.4340    1.6126 O   0  0  0  0  0  0  0  0  0  0  0  0
   -3.5107   -1.5636    1.7043 O   0  0  0  0  0  0  0  0  0  0  0  0
   -7.3606    1.8436    1.0582 O   0  0  0  0  0  0  0  0  0  0  0  0
   -8.3751    2.1513   -1.5109 O   0  0  0  0  0  0  0  0  0  0  0  0
    7.9340   -1.0032   -0.8357 O   0  0  0  0  0  0  0  0  0  0  0  0
    9.2229    0.8848   -1.1069 O   0  0  0  0  0  0  0  0  0  0  0  0
    1.4589    0.2773    1.8010 N   0  0  0  0  0  0  0  0  0  0  0  0
   -4.1150   -2.4016   -0.3775 N   0  0  0  0  0  0  0  0  0  0  0  0
    3.7144    0.6607    1.2275 N   0  0  0  0  0  0  0  0  0  0  0  0
   -0.8020   -1.3583    1.0342 C   0  0  1  0  0  0  0  0  0  0  0  0
    0.6528   -1.8221    0.7577 C   0  0  2  0  0  0  0  0  0  0  0  0
   -0.9047    0.1746    1.1338 C   0  0  0  0  0  0  0  0  0  0  0  0
    1.5996   -1.1865    1.7896 C   0  0  0  0  0  0  0  0  0  0  0  0
    0.1095    0.7411    2.1266 C   0  0  0  0  0  0  0  0  0  0  0  0
    1.1404   -1.5336   -0.6668 C   0  0  0  0  0  0  0  0  0  0  0  0
   -1.8079   -1.9012    0.0195 C   0  0  0  0  0  0  0  0  0  0  0  0
    2.5284   -2.0948   -0.8940 C   0  0  0  0  0  0  0  0  0  0  0  0
    2.4806    1.2199    1.5583 C   0  0  0  0  0  0  0  0  0  0  0  0
   -3.2185   -1.9236    0.5672 C   0  0  0  0  0  0  0  0  0  0  0  0
   -5.5318   -2.5341   -0.1256 C   0  0  0  0  0  0  0  0  0  0  0  0
    4.7180    1.2216    0.3991 C   0  0  0  0  0  0  0  0  0  0  0  0
   -6.2863   -1.2885   -0.4907 C   0  0  0  0  0  0  0  0  0  0  0  0
    5.9039    0.5242    0.1697 C   0  0  0  0  0  0  0  0  0  0  0  0
    4.5196    2.4718   -0.1866 C   0  0  0  0  0  0  0  0  0  0  0  0
   -6.4775   -0.2855    0.4597 C   0  0  0  0  0  0  0  0  0  0  0  0
   -6.7963   -1.1343   -1.7797 C   0  0  0  0  0  0  0  0  0  0  0  0
    6.8916    1.0771   -0.6453 C   0  0  0  0  0  0  0  0  0  0  0  0
    5.5072    3.0248   -1.0018 C   0  0  0  0  0  0  0  0  0  0  0  0
    6.6932    2.3274   -1.2312 C   0  0  0  0  0  0  0  0  0  0  0  0
   -7.1787    0.8717    0.1210 C   0  0  0  0  0  0  0  0  0  0  0  0
   -7.4975    0.0230   -2.1184 C   0  0  0  0  0  0  0  0  0  0  0  0
   -7.6887    1.0259   -1.1680 C   0  0  0  0  0  0  0  0  0  0  0  0
    8.1281    0.3504   -0.8855 C   0  0  0  0  0  0  0  0  0  0  0  0
   -6.8077    1.6083    2.3516 C   0  0  0  0  0  0  0  0  0  0  0  0
   -8.8635    2.2305   -2.8486 C   0  0  0  0  0  0  0  0  0  0  0  0
    9.0819   -1.8299   -1.0562 C   0  0  0  0  0  0  0  0  0  0  0  0
    8.6682   -3.2831   -0.9620 C   0  0  0  0  0  0  0  0  0  0  0  0
   -1.0591   -1.7612    2.0251 H   0  0  0  0  0  0  0  0  0  0  0  0
    0.6830   -2.9107    0.9064 H   0  0  0  0  0  0  0  0  0  0  0  0
   -0.7298    0.6232    0.1478 H   0  0  0  0  0  0  0  0  0  0  0  0
   -1.9101    0.4799    1.4436 H   0  0  0  0  0  0  0  0  0  0  0  0
    2.6235   -1.5277    1.6566 H   0  0  0  0  0  0  0  0  0  0  0  0
    1.3172   -1.5279    2.7947 H   0  0  0  0  0  0  0  0  0  0  0  0
    0.0545    1.8340    2.1232 H   0  0  0  0  0  0  0  0  0  0  0  0
   -0.1200    0.4061    3.1450 H   0  0  0  0  0  0  0  0  0  0  0  0
    0.4668   -2.0037   -1.3917 H   0  0  0  0  0  0  0  0  0  0  0  0
    1.1404   -0.4604   -0.8861 H   0  0  0  0  0  0  0  0  0  0  0  0
   -1.5527   -2.9368   -0.2390 H   0  0  0  0  0  0  0  0  0  0  0  0
   -1.7969   -1.3116   -0.9049 H   0  0  0  0  0  0  0  0  0  0  0  0
    2.5958   -3.1421   -0.5824 H   0  0  0  0  0  0  0  0  0  0  0  0
    2.7690   -2.0545   -1.9623 H   0  0  0  0  0  0  0  0  0  0  0  0
    3.3057   -1.5271   -0.3813 H   0  0  0  0  0  0  0  0  0  0  0  0
   -3.7741   -2.6587   -1.2994 H   0  0  0  0  0  0  0  0  0  0  0  0
    3.9445   -0.2540    1.5973 H   0  0  0  0  0  0  0  0  0  0  0  0
   -5.8917   -3.3871   -0.7121 H   0  0  0  0  0  0  0  0  0  0  0  0
   -5.6928   -2.7845    0.9298 H   0  0  0  0  0  0  0  0  0  0  0  0
    6.0480   -0.4444    0.6434 H   0  0  0  0  0  0  0  0  0  0  0  0
    3.6121    3.0508   -0.0719 H   0  0  0  0  0  0  0  0  0  0  0  0
   -6.0631   -0.4612    1.4463 H   0  0  0  0  0  0  0  0  0  0  0  0
   -6.6518   -1.9085   -2.5287 H   0  0  0  0  0  0  0  0  0  0  0  0
    5.3506    3.9951   -1.4642 H   0  0  0  0  0  0  0  0  0  0  0  0
    7.4505    2.7706   -1.8726 H   0  0  0  0  0  0  0  0  0  0  0  0
   -7.8643    0.0743   -3.1377 H   0  0  0  0  0  0  0  0  0  0  0  0
   -7.2717    0.7434    2.8379 H   0  0  0  0  0  0  0  0  0  0  0  0
   -5.7155    1.5319    2.3165 H   0  0  0  0  0  0  0  0  0  0  0  0
   -7.0446    2.4827    2.9669 H   0  0  0  0  0  0  0  0  0  0  0  0
   -9.6006    1.4473   -3.0564 H   0  0  0  0  0  0  0  0  0  0  0  0
   -9.3832    3.1895   -2.9456 H   0  0  0  0  0  0  0  0  0  0  0  0
   -8.0456    2.2375   -3.5771 H   0  0  0  0  0  0  0  0  0  0  0  0
    9.8400   -1.6093   -0.2967 H   0  0  0  0  0  0  0  0  0  0  0  0
    9.4926   -1.6240   -2.0507 H   0  0  0  0  0  0  0  0  0  0  0  0
    9.5234   -3.9447   -1.1256 H   0  0  0  0  0  0  0  0  0  0  0  0
    7.8962   -3.5127   -1.7038 H   0  0  0  0  0  0  0  0  0  0  0  0
    8.2376   -3.4980    0.0216 H   0  0  0  0  0  0  0  0  0  0  0  0
  1 18  2  0  0  0  0
  2 19  2  0  0  0  0
  3 30  1  0  0  0  0
  3 34  1  0  0  0  0
  4 32  1  0  0  0  0
  4 35  1  0  0  0  0
  5 33  1  0  0  0  0
  5 36  1  0  0  0  0
  6 33  2  0  0  0  0
  7 13  1  0  0  0  0
  7 14  1  0  0  0  0
  7 18  1  0  0  0  0
  8 19  1  0  0  0  0
  8 20  1  0  0  0  0
  8 53  1  0  0  0  0
  9 18  1  0  0  0  0
  9 21  1  0  0  0  0
  9 54  1  0  0  0  0
 10 11  1  0  0  0  0
 10 12  1  0  0  0  0
 10 16  1  0  0  0  0
 10 38  1  0  0  0  0
 11 13  1  0  0  0  0
 11 15  1  0  0  0  0
 11 39  1  0  0  0  0
 12 14  1  0  0  0  0
 12 40  1  0  0  0  0
 12 41  1  0  0  0  0
 13 42  1  0  0  0  0
 13 43  1  0  0  0  0
 14 44  1  0  0  0  0
 14 45  1  0  0  0  0
 15 17  1  0  0  0  0
 15 46  1  0  0  0  0
 15 47  1  0  0  0  0
 16 19  1  0  0  0  0
 16 48  1  0  0  0  0
 16 49  1  0  0  0  0
 17 50  1  0  0  0  0
 17 51  1  0  0  0  0
 17 52  1  0  0  0  0
 20 22  1  0  0  0  0
 20 55  1  0  0  0  0
 20 56  1  0  0  0  0
 21 23  1  0  0  0  0
 21 24  2  0  0  0  0
 22 25  2  0  0  0  0
 22 26  1  0  0  0  0
 23 27  2  0  0  0  0
 23 57  1  0  0  0  0
 24 28  1  0  0  0  0
 24 58  1  0  0  0  0
 25 30  1  0  0  0  0
 25 59  1  0  0  0  0
 26 31  2  0  0  0  0
 26 60  1  0  0  0  0
 27 29  1  0  0  0  0
 27 33  1  0  0  0  0
 28 29  2  0  0  0  0
 28 61  1  0  0  0  0
 29 62  1  0  0  0  0
 30 32  2  0  0  0  0
 31 32  1  0  0  0  0
 31 63  1  0  0  0  0
 34 64  1  0  0  0  0
 34 65  1  0  0  0  0
 34 66  1  0  0  0  0
 35 67  1  0  0  0  0
 35 68  1  0  0  0  0
 35 69  1  0  0  0  0
 36 37  1  0  0  0  0
 36 70  1  0  0  0  0
 36 71  1  0  0  0  0
 37 72  1  0  0  0  0
 37 73  1  0  0  0  0
 37 74  1  0  0  0  0
M  END
> <PUBCHEM_COMPOUND_CID>
11941199

> <PUBCHEM_CONFORMER_RMSD>
1.2

> <PUBCHEM_CONFORMER_DIVERSEORDER>
4
141
55
43
60
123
89
68
133
69
40
113
12
156
27
71
96
111
75
176
112
65
21
46
134
24
147
150
63
59
175
118
73
97
140
15
62
120
30
117
85
104
16
49
135
136
2
121
174
177
8
82
119
53
34
131
64
178
23
61
99
88
6
154
28
157
1
144
77
165
35
122
38
128
80
153
11
103
18
158
105
25
78
171
9
95
106
100
125
161
26
180
13
166
162
36
173
163
87
50
17
51
152
3
90
149
31
83
145
48
179
114
52
146
84
170
107
167
66
5
181
45
79
169
58
164
91
127
29
108
130
74
138
81
102
172
160
155
41
137
47
101
151
115
116
92
132
7
110
42
182
54
19
124
98
126
143
32
72
10
67
129
14
56
86
139
159
94
33
20
57
142
168
93
37
70
148
22
39
76
44
109

> <PUBCHEM_MMFF94_PARTIAL_CHARGES>
40
1 -0.57
13 0.3
14 0.3
16 0.06
18 0.69
19 0.57
2 -0.57
20 0.44
21 0.12
22 -0.14
23 -0.15
24 -0.15
25 -0.15
26 -0.15
27 0.09
28 -0.15
29 -0.15
3 -0.36
30 0.08
31 -0.15
32 0.08
33 0.63
34 0.28
35 0.28
36 0.28
4 -0.36
5 -0.43
53 0.37
54 0.37
57 0.15
58 0.15
59 0.15
6 -0.57
60 0.15
61 0.15
62 0.15
63 0.15
7 -0.66
8 -0.73
9 -0.55

> <PUBCHEM_EFFECTIVE_ROTOR_COUNT>
15.2

> <PUBCHEM_PHARMACOPHORE_FEATURES>
11
1 1 acceptor
1 17 hydrophobe
1 2 acceptor
1 3 acceptor
1 4 acceptor
1 6 acceptor
1 8 donor
1 9 donor
6 21 23 24 27 28 29 rings
6 22 25 26 30 31 32 rings
6 7 10 11 12 13 14 rings

> <PUBCHEM_HEAVY_ATOM_COUNT>
37

> <PUBCHEM_ATOM_DEF_STEREO_COUNT>
2

> <PUBCHEM_ATOM_UDEF_STEREO_COUNT>
0

> <PUBCHEM_BOND_DEF_STEREO_COUNT>
0

> <PUBCHEM_BOND_UDEF_STEREO_COUNT>
0

> <PUBCHEM_ISOTOPIC_ATOM_COUNT>
0

> <PUBCHEM_COMPONENT_COUNT>
1

> <PUBCHEM_CACTVS_TAUTO_COUNT>
4

> <PUBCHEM_CONFORMER_ID>
00B6354F00000004

> <PUBCHEM_MMFF94_ENERGY>
111.587

> <PUBCHEM_FEATURE_SELFOVERLAP>
55.827

> <PUBCHEM_SHAPE_FINGERPRINT>
10 15 12107777532054753771
10055352 69 12252198393702412222
11115154 58 17676491666567339404
11181472 205 17894908491266250474
11211813 163 18202289065792277673
11273773 118 18335427898292209683
11456790 92 12540957652364233116
12013929 112 18334856091166924647
13782708 43 11743852382128012603
14294032 229 18337392638812739785
14849402 71 11602827921154108038
14919807 6 18335135367188555054
15064981 113 17203034190061230533
15160630 1 17675924292138383163
15183329 4 18412543236441884945
15392192 104 11887665205250204050
16994733 274 17749944570065621841
19303781 99 10951756496650332265
20156587 128 17775563106037228221
2026 5 14261362366384066741
20609170 45 18121492462963592494
21585481 104 17967817154823160860
21585482 111 17822000979167408181
21792965 20 17846202334244179746
21987483 16 11167944654282981284
22002106 203 10735580428881721285
24771293 8 13045945711411738033
2747138 104 11458688496487623298
3383291 50 12319739202410708973
3633792 109 18335425695058278506
3711267 37 17022905687511422156
397830 11 8213880174976873744
3986486 107 18113901589688520230
4058900 60 18409445904061541235
4093350 32 16660636350461551778
4169191 19 18409167710507714403
42767 39 16056608637793263228
4353968 344 17917720046186224592
474113 269 17917434186470353110
5223283 242 17312821577203726428
5718773 13 12103567515650046113
6201320 221 17988646234518130894
6691757 9 14490470941574510707
6697151 62 16271928280577806442
9689198 14 17022901272010396696

> <PUBCHEM_SHAPE_MULTIPOLES>
711.28
33.52
3.4
2.19
2.23
0.11
-0.09
-8.56
22.15
2.24
0.9
-3.5
-0.94
1.7

> <PUBCHEM_SHAPE_SELFOVERLAP>
1482.275

> <PUBCHEM_SHAPE_VOLUME>
401.8

> <PUBCHEM_COORDINATE_TYPE>
2
5
10

$$$$
