23757077
  -OEChem-12032416403D

 55 59  0     1  0  0  0  0  0999 V2000
    1.2258   -1.6377   -0.6219 S   0  0  0  0  0  0  0  0  0  0  0  0
   -6.1093   -1.7056   -0.6848 S   0  0  0  0  0  0  0  0  0  0  0  0
    1.2329   -1.9681   -2.0315 O   0  0  0  0  0  0  0  0  0  0  0  0
    0.7350   -2.5804    0.3611 O   0  0  0  0  0  0  0  0  0  0  0  0
   -4.2823    0.6968   -1.7845 O   0  0  0  0  0  0  0  0  0  0  0  0
    7.7387    0.5892   -1.1172 O   0  0  0  0  0  0  0  0  0  0  0  0
    0.4307   -0.1387   -0.4018 N   0  0  2  0  0  0  0  0  0  0  0  0
   -2.4576    1.1399   -0.3996 N   0  0  0  0  0  0  0  0  0  0  0  0
    6.7697   -0.1148    0.9134 N   0  0  0  0  0  0  0  0  0  0  0  0
   -0.2522    2.0939   -1.2861 C   0  0  1  0  0  0  0  0  0  0  0  0
   -0.4944    1.6060    1.1087 C   0  0  2  0  0  0  0  0  0  0  0  0
   -0.1141    2.6931    0.1071 C   0  0  0  0  0  0  0  0  0  0  0  0
    0.6874    0.8883   -1.4517 C   0  0  0  0  0  0  0  0  0  0  0  0
    0.4831    0.4235    0.9809 C   0  0  0  0  0  0  0  0  0  0  0  0
   -1.7220    1.7284   -1.5273 C   0  0  0  0  0  0  0  0  0  0  0  0
   -1.9210    1.1371    0.8907 C   0  0  0  0  0  0  0  0  0  0  0  0
   -2.6564    0.7013    1.9263 C   0  0  0  0  0  0  0  0  0  0  0  0
   -3.7631    0.6808   -0.6671 C   0  0  0  0  0  0  0  0  0  0  0  0
   -4.5454    0.1662    0.5097 C   0  0  0  0  0  0  0  0  0  0  0  0
   -3.9890    0.2047    1.7291 C   0  0  0  0  0  0  0  0  0  0  0  0
    2.8706   -1.1858   -0.1664 C   0  0  0  0  0  0  0  0  0  0  0  0
   -5.8656   -0.3525    0.3361 C   0  0  0  0  0  0  0  0  0  0  0  0
    3.7573   -0.7131   -1.1338 C   0  0  0  0  0  0  0  0  0  0  0  0
    3.2834   -1.3018    1.1611 C   0  0  0  0  0  0  0  0  0  0  0  0
    5.0566   -0.3561   -0.7739 C   0  0  0  0  0  0  0  0  0  0  0  0
    4.5830   -0.9447    1.5211 C   0  0  0  0  0  0  0  0  0  0  0  0
   -7.0437    0.0924    0.8947 C   0  0  0  0  0  0  0  0  0  0  0  0
    5.4696   -0.4719    0.5536 C   0  0  0  0  0  0  0  0  0  0  0  0
   -8.1609   -0.6880    0.4792 C   0  0  0  0  0  0  0  0  0  0  0  0
   -7.7944   -1.6994   -0.3810 C   0  0  0  0  0  0  0  0  0  0  0  0
    7.7916    0.3751    0.0895 C   0  0  0  0  0  0  0  0  0  0  0  0
    9.0563    0.6419    0.8664 C   0  0  0  0  0  0  0  0  0  0  0  0
    0.0397    2.8417   -2.0343 H   0  0  0  0  0  0  0  0  0  0  0  0
   -0.3961    2.0260    2.1185 H   0  0  0  0  0  0  0  0  0  0  0  0
   -0.7645    3.5699    0.2175 H   0  0  0  0  0  0  0  0  0  0  0  0
    0.9145    3.0326    0.2791 H   0  0  0  0  0  0  0  0  0  0  0  0
    0.5351    0.4545   -2.4456 H   0  0  0  0  0  0  0  0  0  0  0  0
    1.7234    1.2367   -1.3844 H   0  0  0  0  0  0  0  0  0  0  0  0
    1.4921    0.7840    1.2059 H   0  0  0  0  0  0  0  0  0  0  0  0
    0.2197   -0.3516    1.7093 H   0  0  0  0  0  0  0  0  0  0  0  0
   -2.2708    2.6428   -1.7918 H   0  0  0  0  0  0  0  0  0  0  0  0
   -1.8161    1.0605   -2.3927 H   0  0  0  0  0  0  0  0  0  0  0  0
   -2.2602    0.6819    2.9362 H   0  0  0  0  0  0  0  0  0  0  0  0
   -4.5110   -0.1544    2.6113 H   0  0  0  0  0  0  0  0  0  0  0  0
    3.4556   -0.6126   -2.1726 H   0  0  0  0  0  0  0  0  0  0  0  0
    2.6100   -1.6661    1.9317 H   0  0  0  0  0  0  0  0  0  0  0  0
    5.6849    0.0020   -1.5775 H   0  0  0  0  0  0  0  0  0  0  0  0
    4.8910   -1.0395    2.5593 H   0  0  0  0  0  0  0  0  0  0  0  0
   -7.1117    0.9374    1.5689 H   0  0  0  0  0  0  0  0  0  0  0  0
   -9.1817   -0.5160    0.7948 H   0  0  0  0  0  0  0  0  0  0  0  0
   -8.4356   -2.4350   -0.8458 H   0  0  0  0  0  0  0  0  0  0  0  0
    6.9938   -0.2282    1.8999 H   0  0  0  0  0  0  0  0  0  0  0  0
    9.3966   -0.2786    1.3492 H   0  0  0  0  0  0  0  0  0  0  0  0
    8.8689    1.4058    1.6262 H   0  0  0  0  0  0  0  0  0  0  0  0
    9.8389    0.9972    0.1902 H   0  0  0  0  0  0  0  0  0  0  0  0
  1  3  2  0  0  0  0
  1  4  2  0  0  0  0
  1  7  1  0  0  0  0
  1 21  1  0  0  0  0
  2 22  1  0  0  0  0
  2 30  1  0  0  0  0
  5 18  2  0  0  0  0
  6 31  2  0  0  0  0
  7 13  1  0  0  0  0
  7 14  1  0  0  0  0
  8 15  1  0  0  0  0
  8 16  1  0  0  0  0
  8 18  1  0  0  0  0
  9 28  1  0  0  0  0
  9 31  1  0  0  0  0
  9 52  1  0  0  0  0
 10 12  1  0  0  0  0
 10 13  1  0  0  0  0
 10 15  1  0  0  0  0
 10 33  1  0  0  0  0
 11 12  1  0  0  0  0
 11 14  1  0  0  0  0
 11 16  1  0  0  0  0
 11 34  1  0  0  0  0
 12 35  1  0  0  0  0
 12 36  1  0  0  0  0
 13 37  1  0  0  0  0
 13 38  1  0  0  0  0
 14 39  1  0  0  0  0
 14 40  1  0  0  0  0
 15 41  1  0  0  0  0
 15 42  1  0  0  0  0
 16 17  2  0  0  0  0
 17 20  1  0  0  0  0
 17 43  1  0  0  0  0
 18 19  1  0  0  0  0
 19 20  2  0  0  0  0
 19 22  1  0  0  0  0
 20 44  1  0  0  0  0
 21 23  2  0  0  0  0
 21 24  1  0  0  0  0
 22 27  2  0  0  0  0
 23 25  1  0  0  0  0
 23 45  1  0  0  0  0
 24 26  2  0  0  0  0
 24 46  1  0  0  0  0
 25 28  2  0  0  0  0
 25 47  1  0  0  0  0
 26 28  1  0  0  0  0
 26 48  1  0  0  0  0
 27 29  1  0  0  0  0
 27 49  1  0  0  0  0
 29 30  2  0  0  0  0
 29 50  1  0  0  0  0
 30 51  1  0  0  0  0
 31 32  1  0  0  0  0
 32 53  1  0  0  0  0
 32 54  1  0  0  0  0
 32 55  1  0  0  0  0
M  END
> <PUBCHEM_COMPOUND_CID>
23757077

> <PUBCHEM_CONFORMER_RMSD>
0.8

> <PUBCHEM_CONFORMER_DIVERSEORDER>
1
10
19
18
9
6
2
4
17
14
15
12
8
5
11
16
7
13
3

> <PUBCHEM_MMFF94_PARTIAL_CHARGES>
40
1 1.45
11 0.14
13 0.36
14 0.36
15 0.3
16 -0.03
17 -0.15
18 0.62
19 0.06
2 -0.08
20 -0.15
21 -0.01
22 -0.01
23 -0.15
24 -0.15
25 -0.15
26 -0.15
27 -0.15
28 0.12
29 -0.15
3 -0.65
30 -0.11
31 0.57
32 0.06
4 -0.65
43 0.15
44 0.15
45 0.15
46 0.15
47 0.15
48 0.15
49 0.15
5 -0.57
50 0.15
51 0.15
52 0.37
6 -0.57
7 -0.85
8 -0.47
9 -0.55

> <PUBCHEM_EFFECTIVE_ROTOR_COUNT>
6

> <PUBCHEM_PHARMACOPHORE_FEATURES>
10
1 3 acceptor
1 4 acceptor
1 5 acceptor
1 6 acceptor
1 9 donor
5 2 22 27 29 30 rings
6 21 23 24 25 26 28 rings
6 7 10 11 12 13 14 rings
6 8 10 11 12 15 16 rings
6 8 16 17 18 19 20 rings

> <PUBCHEM_HEAVY_ATOM_COUNT>
32

> <PUBCHEM_ATOM_DEF_STEREO_COUNT>
2

> <PUBCHEM_ATOM_UDEF_STEREO_COUNT>
0

> <PUBCHEM_BOND_DEF_STEREO_COUNT>
0

> <PUBCHEM_BOND_UDEF_STEREO_COUNT>
0

> <PUBCHEM_ISOTOPIC_ATOM_COUNT>
0

> <PUBCHEM_COMPONENT_COUNT>
1

> <PUBCHEM_CACTVS_TAUTO_COUNT>
2

> <PUBCHEM_CONFORMER_ID>
016A811500000001

> <PUBCHEM_MMFF94_ENERGY>
74.4611

> <PUBCHEM_FEATURE_SELFOVERLAP>
52.35

> <PUBCHEM_SHAPE_FINGERPRINT>
10 15 15482957146742175349
10165383 225 12391515282795574933
106641 1 18202282523965897362
10670039 82 13984652656336578847
10674148 151 8862944962087487846
10930396 42 17677315234930663856
11135609 99 18059009635608466911
11146851 88 17240489121505261458
11578080 2 10518541209676842794
12120059 20 18194140696466563367
12202916 173 17458346342310708291
12516196 113 18342740698082498689
12633257 1 13326564130600850727
12857493 111 17458061581932527733
13811026 1 17240481395243931736
13914758 101 12901542442857744644
14068700 675 18412263956811004657
1454969 45 18408326600954601298
14856354 85 16415469484934681477
14955137 171 15697996353309828928
15183329 4 13334733522863167509
15274700 256 11819268980669626998
15301273 46 16845579690483346141
15728490 51 17775283893712126103
15840311 113 15051723222649954705
18335252 98 17988926665511332742
18608769 82 17489584584953780934
19309040 13 15336840985212331896
20105231 36 15841556284298874292
20511986 3 15068628227318275232
21057603 130 18340201990638696711
21365058 27 16774077379950899510
22224240 67 18343022194381240370
23559900 14 16660935490844257733
24180151 40 12325056367390656772
24771293 8 18341621394945047793
249057 3 14129064728787226179
2747138 104 17846497054023902362
2838139 119 7925910379435200311
3009799 131 16008750216550688097
3633792 109 14273730742414210632
4066623 53 15936410057189364039
4258327 124 18263092170910008644
4325135 7 18412265042909780914
4366758 6 15574711409275777128
437795 51 17632007641682373600
4461854 278 17489032673288740727
474113 269 13407338661582754536
563151 40 14333402363550683916
57035037 87 14634875288281248198
57724786 102 10375285826318382803
59682541 35 18342175596229071594
5969126 39 17967810531546104253
6009941 240 15357703014993160035
6081469 158 15068617185205289696
6086070 43 8790590495393482245
6394761 36 9871751295370839576
6669772 16 17532375459476288808
6703917 75 17131843096615908718
9689198 14 15698000743035384754

> <PUBCHEM_SHAPE_MULTIPOLES>
627.82
22.62
2.08
1.67
12.17
0.08
-0.09
-5.71
3.64
-0.82
-0.46
-0.07
0.19
-0.35

> <PUBCHEM_SHAPE_SELFOVERLAP>
1349.629

> <PUBCHEM_SHAPE_VOLUME>
345.8

> <PUBCHEM_COORDINATE_TYPE>
2
5
10

$$$$
