11884337
  -OEChem-12032416263D

 37 39  0     1  0  0  0  0  0999 V2000
   -2.9776   -0.2364   -1.4297 O   0  0  0  0  0  0  0  0  0  0  0  0
   -3.9396    0.4938    1.3766 O   0  0  0  0  0  0  0  0  0  0  0  0
   -5.2494   -1.7900   -1.0522 O   0  0  0  0  0  0  0  0  0  0  0  0
    0.5417    2.5842    0.1532 O   0  0  0  0  0  0  0  0  0  0  0  0
    5.7227   -0.9765   -0.2109 O   0  0  0  0  0  0  0  0  0  0  0  0
   -0.4297    0.4792    0.2198 N   0  0  0  0  0  0  0  0  0  0  0  0
   -2.7118   -0.1148    0.9207 C   0  0  1  0  0  0  0  0  0  0  0  0
   -3.0789   -1.0270   -0.2323 C   0  0  1  0  0  0  0  0  0  0  0  0
   -1.8176    0.9326    0.2929 C   0  0  2  0  0  0  0  0  0  0  0  0
   -4.5120   -1.3856    0.0792 C   0  0  1  0  0  0  0  0  0  0  0  0
   -2.4018    1.0392   -1.1084 C   0  0  0  0  0  0  0  0  0  0  0  0
   -5.0409   -0.0994    0.6731 C   0  0  0  0  0  0  0  0  0  0  0  0
    0.6410    1.3600    0.1555 C   0  0  0  0  0  0  0  0  0  0  0  0
    1.9882    0.7410    0.0588 C   0  0  0  0  0  0  0  0  0  0  0  0
    3.0031    1.4466   -0.5530 C   0  0  0  0  0  0  0  0  0  0  0  0
    2.1809   -0.5201    0.5839 C   0  0  0  0  0  0  0  0  0  0  0  0
    4.2678    0.8652   -0.6441 C   0  0  0  0  0  0  0  0  0  0  0  0
    3.4455   -1.1016    0.4931 C   0  0  0  0  0  0  0  0  0  0  0  0
    4.4891   -0.4089   -0.1210 C   0  0  0  0  0  0  0  0  0  0  0  0
    5.8793   -2.2814    0.3448 C   0  0  0  0  0  0  0  0  0  0  0  0
   -2.2655   -0.6433    1.7690 H   0  0  0  0  0  0  0  0  0  0  0  0
   -2.4231   -1.8946   -0.3490 H   0  0  0  0  0  0  0  0  0  0  0  0
   -1.8502    1.9004    0.8039 H   0  0  0  0  0  0  0  0  0  0  0  0
   -4.5426   -2.1821    0.8316 H   0  0  0  0  0  0  0  0  0  0  0  0
   -3.2136    1.7746   -1.1358 H   0  0  0  0  0  0  0  0  0  0  0  0
   -1.6701    1.3087   -1.8762 H   0  0  0  0  0  0  0  0  0  0  0  0
   -5.3916    0.6038   -0.0905 H   0  0  0  0  0  0  0  0  0  0  0  0
   -5.8676   -0.2738    1.3683 H   0  0  0  0  0  0  0  0  0  0  0  0
   -0.2812   -0.5177    0.1049 H   0  0  0  0  0  0  0  0  0  0  0  0
   -5.1636   -1.0982   -1.7301 H   0  0  0  0  0  0  0  0  0  0  0  0
    2.8463    2.4370   -0.9699 H   0  0  0  0  0  0  0  0  0  0  0  0
    1.4043   -1.0761    1.0989 H   0  0  0  0  0  0  0  0  0  0  0  0
    5.0765    1.4088   -1.1249 H   0  0  0  0  0  0  0  0  0  0  0  0
    3.5502   -2.0903    0.9266 H   0  0  0  0  0  0  0  0  0  0  0  0
    6.9207   -2.5784    0.1836 H   0  0  0  0  0  0  0  0  0  0  0  0
    5.2535   -3.0168   -0.1723 H   0  0  0  0  0  0  0  0  0  0  0  0
    5.7109   -2.2806    1.4270 H   0  0  0  0  0  0  0  0  0  0  0  0
  1  8  1  0  0  0  0
  1 11  1  0  0  0  0
  2  7  1  0  0  0  0
  2 12  1  0  0  0  0
  3 10  1  0  0  0  0
  3 30  1  0  0  0  0
  4 13  2  0  0  0  0
  5 19  1  0  0  0  0
  5 20  1  0  0  0  0
  6  9  1  0  0  0  0
  6 13  1  0  0  0  0
  6 29  1  0  0  0  0
  7  8  1  0  0  0  0
  7  9  1  0  0  0  0
  7 21  1  0  0  0  0
  8 10  1  0  0  0  0
  8 22  1  0  0  0  0
  9 11  1  0  0  0  0
  9 23  1  0  0  0  0
 10 12  1  0  0  0  0
 10 24  1  0  0  0  0
 11 25  1  0  0  0  0
 11 26  1  0  0  0  0
 12 27  1  0  0  0  0
 12 28  1  0  0  0  0
 13 14  1  0  0  0  0
 14 15  2  0  0  0  0
 14 16  1  0  0  0  0
 15 17  1  0  0  0  0
 15 31  1  0  0  0  0
 16 18  2  0  0  0  0
 16 32  1  0  0  0  0
 17 19  2  0  0  0  0
 17 33  1  0  0  0  0
 18 19  1  0  0  0  0
 18 34  1  0  0  0  0
 20 35  1  0  0  0  0
 20 36  1  0  0  0  0
 20 37  1  0  0  0  0
M  END
> <PUBCHEM_COMPOUND_CID>
11884337

> <PUBCHEM_CONFORMER_RMSD>
0.8

> <PUBCHEM_CONFORMER_DIVERSEORDER>
1
4
8
2
6
7
3
5

> <PUBCHEM_MMFF94_PARTIAL_CHARGES>
26
1 -0.56
10 0.28
11 0.28
12 0.28
13 0.54
14 0.09
15 -0.15
16 -0.15
17 -0.15
18 -0.15
19 0.08
2 -0.56
20 0.28
29 0.37
3 -0.68
30 0.4
31 0.15
32 0.15
33 0.15
34 0.15
4 -0.57
5 -0.36
6 -0.73
7 0.28
8 0.28
9 0.3

> <PUBCHEM_EFFECTIVE_ROTOR_COUNT>
5.2

> <PUBCHEM_PHARMACOPHORE_FEATURES>
10
1 1 acceptor
1 2 acceptor
1 3 acceptor
1 3 donor
1 4 acceptor
1 5 acceptor
1 6 donor
5 1 7 8 9 11 rings
5 2 7 8 10 12 rings
6 14 15 16 17 18 19 rings

> <PUBCHEM_HEAVY_ATOM_COUNT>
20

> <PUBCHEM_ATOM_DEF_STEREO_COUNT>
4

> <PUBCHEM_ATOM_UDEF_STEREO_COUNT>
0

> <PUBCHEM_BOND_DEF_STEREO_COUNT>
0

> <PUBCHEM_BOND_UDEF_STEREO_COUNT>
0

> <PUBCHEM_ISOTOPIC_ATOM_COUNT>
0

> <PUBCHEM_COMPONENT_COUNT>
1

> <PUBCHEM_CACTVS_TAUTO_COUNT>
2

> <PUBCHEM_CONFORMER_ID>
00B5573100000001

> <PUBCHEM_MMFF94_ENERGY>
68.1067

> <PUBCHEM_FEATURE_SELFOVERLAP>
51.471

> <PUBCHEM_SHAPE_FINGERPRINT>
10 15 14189568642093555746
10498660 4 14129049327113611143
10912923 1 18130799987378718416
12236239 1 18202286917643731129
12553582 1 18410284805072054952
12555020 224 18334851758204545579
12596602 18 17489868262884828394
13103583 49 17988652878008844609
13167823 11 18412829104980169987
13288520 33 18412827984410378605
13533116 47 18126565859011501057
13675066 3 15698009539012544133
13760787 5 18261117395368440140
13862211 1 18334573504637767634
14123255 352 9367338245853826418
1420 369 18342460309869709358
14350574 20 17967821539446530424
14576447 43 18260829268352466898
15188451 53 16773504569137480071
15788980 27 18334013874129264652
15880784 105 18060701714634940370
17780758 139 17703788089553679626
17857418 61 18413107264326757986
17870717 6 16732703852809345035
1813 80 18342188756062055876
18186145 218 17022623070131367200
193927 3 18410584963531179318
19784866 140 18040716935554044608
19784866 240 18411703183624851655
200 152 18408605863680406200
20028762 73 18341891871123021046
20281475 54 18412263951751042144
20645477 70 18187367623635322546
20871999 31 16588019091713689837
21267235 1 18336274465904606658
221357 26 18113333106936311948
221490 88 18115317807572099858
22393880 68 17677040249195109350
22646028 1 18413671326676540088
22646028 28 18342458157505388611
22950370 63 18411705391312102648
23402539 116 18412262796726359080
235170 7 16298380249693681246
23522609 53 18122940652462598560
23557571 272 16660645128762372037
23559900 14 17603868961152047360
2767999 5 8790881857263783374
2838139 119 9295286127947017994
2871803 45 17822286898817558344
3004659 81 18113897148280937746
314194 84 18411143570982566258
3472631 163 11963381938950638971
34797466 226 15864364587290321086
351380 3 18411981347556654714
3545911 37 11167940264404047176
4214541 1 18336266756232874209
4259306 186 18259984872838239998
46194498 28 17095806636884548900
465052 167 18270405017781466439
5104073 3 17632021965477433595
5281201 14 17530967986230241132
559249 180 18343863299776263119
573450 72 17917719010946119273
5924683 9 13829834855908201709
602551 16 16415192421063249110
76465 3 18413386548875305516
7970288 3 18413385445116949934

> <PUBCHEM_SHAPE_MULTIPOLES>
377.26
13.43
1.96
1.01
3.95
0.01
-0.09
-8.37
-0.63
1.3
-0.1
-1.02
-0.01
-0.86

> <PUBCHEM_SHAPE_SELFOVERLAP>
811.848

> <PUBCHEM_SHAPE_VOLUME>
209.4

> <PUBCHEM_COORDINATE_TYPE>
2
5
10

$$$$
