45784332
  -OEChem-12032416283D

 51 54  0     1  0  0  0  0  0999 V2000
    5.5312   -1.1029    0.2806 S   0  0  0  0  0  0  0  0  0  0  0  0
    0.6364    2.0538    0.5194 O   0  0  0  0  0  0  0  0  0  0  0  0
    6.4615   -0.6810    1.3174 O   0  0  0  0  0  0  0  0  0  0  0  0
    5.1093   -2.4935    0.2069 O   0  0  0  0  0  0  0  0  0  0  0  0
   -3.7704    0.6078   -0.3749 N   0  0  1  0  0  0  0  0  0  0  0  0
    0.4474    0.0077   -0.4369 N   0  0  0  0  0  0  0  0  0  0  0  0
   -4.7052   -0.4778   -0.0853 C   0  0  0  0  0  0  0  0  0  0  0  0
   -1.6059    1.5031   -0.2601 C   0  0  2  0  0  0  0  0  0  0  0  0
   -2.5670    0.5459    0.4576 C   0  0  0  0  0  0  0  0  0  0  0  0
   -3.2787    0.5669   -1.7521 C   0  0  0  0  0  0  0  0  0  0  0  0
   -5.8865   -0.4221   -1.0602 C   0  0  0  0  0  0  0  0  0  0  0  0
   -5.1826   -0.3802    1.3678 C   0  0  0  0  0  0  0  0  0  0  0  0
   -2.0957    1.5259   -1.7185 C   0  0  0  0  0  0  0  0  0  0  0  0
   -6.9238   -1.4969   -0.7393 C   0  0  0  0  0  0  0  0  0  0  0  0
   -6.2212   -1.4545    1.6859 C   0  0  0  0  0  0  0  0  0  0  0  0
   -7.3937   -1.4104    0.7100 C   0  0  0  0  0  0  0  0  0  0  0  0
   -0.1541    1.1223   -0.0837 C   0  0  0  0  0  0  0  0  0  0  0  0
    1.7465    0.2092   -0.0380 C   0  0  0  0  0  0  0  0  0  0  0  0
    1.8661    1.4607    0.5479 C   0  0  0  0  0  0  0  0  0  0  0  0
    2.8830   -0.6068   -0.1310 C   0  0  0  0  0  0  0  0  0  0  0  0
    3.0456    1.9848    1.0621 C   0  0  0  0  0  0  0  0  0  0  0  0
    4.0929   -0.1120    0.3774 C   0  0  0  0  0  0  0  0  0  0  0  0
    4.1699    1.1583    0.9616 C   0  0  0  0  0  0  0  0  0  0  0  0
    6.2604   -0.6670   -1.2810 C   0  0  0  0  0  0  0  0  0  0  0  0
    7.5347   -1.4414   -1.5335 C   0  0  0  0  0  0  0  0  0  0  0  0
   -4.2042   -1.4481   -0.2168 H   0  0  0  0  0  0  0  0  0  0  0  0
   -1.7457    2.5132    0.1512 H   0  0  0  0  0  0  0  0  0  0  0  0
   -2.1552   -0.4711    0.5036 H   0  0  0  0  0  0  0  0  0  0  0  0
   -2.7434    0.8962    1.4801 H   0  0  0  0  0  0  0  0  0  0  0  0
   -4.0137    0.9149   -2.4842 H   0  0  0  0  0  0  0  0  0  0  0  0
   -2.9354   -0.4360   -2.0369 H   0  0  0  0  0  0  0  0  0  0  0  0
   -6.3673    0.5643   -1.0211 H   0  0  0  0  0  0  0  0  0  0  0  0
   -5.5652   -0.5850   -2.0949 H   0  0  0  0  0  0  0  0  0  0  0  0
   -4.3533   -0.5076    2.0724 H   0  0  0  0  0  0  0  0  0  0  0  0
   -5.6192    0.6090    1.5590 H   0  0  0  0  0  0  0  0  0  0  0  0
   -1.3253    1.2337   -2.4400 H   0  0  0  0  0  0  0  0  0  0  0  0
   -2.4246    2.5407   -1.9754 H   0  0  0  0  0  0  0  0  0  0  0  0
   -6.4921   -2.4883   -0.9244 H   0  0  0  0  0  0  0  0  0  0  0  0
   -7.7831   -1.3923   -1.4114 H   0  0  0  0  0  0  0  0  0  0  0  0
   -6.5893   -1.3201    2.7093 H   0  0  0  0  0  0  0  0  0  0  0  0
   -5.7484   -2.4435    1.6436 H   0  0  0  0  0  0  0  0  0  0  0  0
   -8.0830   -2.2349    0.9241 H   0  0  0  0  0  0  0  0  0  0  0  0
   -7.9543   -0.4789    0.8561 H   0  0  0  0  0  0  0  0  0  0  0  0
    2.8116   -1.5862   -0.5919 H   0  0  0  0  0  0  0  0  0  0  0  0
    3.0947    2.9692    1.5104 H   0  0  0  0  0  0  0  0  0  0  0  0
    5.1150    1.5347    1.3462 H   0  0  0  0  0  0  0  0  0  0  0  0
    6.4657    0.4076   -1.2650 H   0  0  0  0  0  0  0  0  0  0  0  0
    5.5252   -0.8796   -2.0629 H   0  0  0  0  0  0  0  0  0  0  0  0
    7.9653   -1.1606   -2.4996 H   0  0  0  0  0  0  0  0  0  0  0  0
    7.3470   -2.5198   -1.5452 H   0  0  0  0  0  0  0  0  0  0  0  0
    8.2808   -1.2411   -0.7578 H   0  0  0  0  0  0  0  0  0  0  0  0
  1  3  2  0  0  0  0
  1  4  2  0  0  0  0
  1 22  1  0  0  0  0
  1 24  1  0  0  0  0
  2 17  1  0  0  0  0
  2 19  1  0  0  0  0
  5  7  1  0  0  0  0
  5  9  1  0  0  0  0
  5 10  1  0  0  0  0
  6 17  2  0  0  0  0
  6 18  1  0  0  0  0
  7 11  1  0  0  0  0
  7 12  1  0  0  0  0
  7 26  1  0  0  0  0
  8  9  1  0  0  0  0
  8 13  1  0  0  0  0
  8 17  1  0  0  0  0
  8 27  1  0  0  0  0
  9 28  1  0  0  0  0
  9 29  1  0  0  0  0
 10 13  1  0  0  0  0
 10 30  1  0  0  0  0
 10 31  1  0  0  0  0
 11 14  1  0  0  0  0
 11 32  1  0  0  0  0
 11 33  1  0  0  0  0
 12 15  1  0  0  0  0
 12 34  1  0  0  0  0
 12 35  1  0  0  0  0
 13 36  1  0  0  0  0
 13 37  1  0  0  0  0
 14 16  1  0  0  0  0
 14 38  1  0  0  0  0
 14 39  1  0  0  0  0
 15 16  1  0  0  0  0
 15 40  1  0  0  0  0
 15 41  1  0  0  0  0
 16 42  1  0  0  0  0
 16 43  1  0  0  0  0
 18 19  2  0  0  0  0
 18 20  1  0  0  0  0
 19 21  1  0  0  0  0
 20 22  2  0  0  0  0
 20 44  1  0  0  0  0
 21 23  2  0  0  0  0
 21 45  1  0  0  0  0
 22 23  1  0  0  0  0
 23 46  1  0  0  0  0
 24 25  1  0  0  0  0
 24 47  1  0  0  0  0
 24 48  1  0  0  0  0
 25 49  1  0  0  0  0
 25 50  1  0  0  0  0
 25 51  1  0  0  0  0
M  END
> <PUBCHEM_COMPOUND_CID>
45784332

> <PUBCHEM_CONFORMER_RMSD>
0.8

> <PUBCHEM_CONFORMER_DIVERSEORDER>
1
57
34
15
50
41
12
30
48
11
40
20
52
27
36
2
43
49
24
8
46
44
51
14
4
37
55
53
6
26
29
22
35
47
10
45
42
25
32
21
56
3
18
13
9
19
23
54
16
7
17
39
28
5
33
38
31

> <PUBCHEM_MMFF94_PARTIAL_CHARGES>
21
1 1.2
10 0.27
17 0.3
18 0.23
19 0.14
2 -0.28
20 -0.15
21 -0.15
22 -0.01
23 -0.15
24 0.11
3 -0.65
4 -0.65
44 0.15
45 0.15
46 0.15
5 -0.81
6 -0.57
7 0.27
8 0.18
9 0.27

> <PUBCHEM_EFFECTIVE_ROTOR_COUNT>
6.2

> <PUBCHEM_PHARMACOPHORE_FEATURES>
7
1 3 acceptor
1 4 acceptor
1 5 cation
5 2 6 17 18 19 rings
5 5 8 9 10 13 rings
6 18 19 20 21 22 23 rings
6 7 11 12 14 15 16 rings

> <PUBCHEM_HEAVY_ATOM_COUNT>
25

> <PUBCHEM_ATOM_DEF_STEREO_COUNT>
1

> <PUBCHEM_ATOM_UDEF_STEREO_COUNT>
0

> <PUBCHEM_BOND_DEF_STEREO_COUNT>
0

> <PUBCHEM_BOND_UDEF_STEREO_COUNT>
0

> <PUBCHEM_ISOTOPIC_ATOM_COUNT>
0

> <PUBCHEM_COMPONENT_COUNT>
1

> <PUBCHEM_CACTVS_TAUTO_COUNT>
1

> <PUBCHEM_CONFORMER_ID>
02BA9D0C00000001

> <PUBCHEM_MMFF94_ENERGY>
26.0053

> <PUBCHEM_FEATURE_SELFOVERLAP>
35.658

> <PUBCHEM_SHAPE_FINGERPRINT>
10076449 9 18341622508048023902
10692045 39 14404918954806984780
12166972 35 18410577305267380704
12236239 1 16917349259687775657
12596602 18 17418095468666231867
12616971 3 17346591997596022869
12760667 363 18410011044637225667
12778500 126 13038909889915262262
13402501 40 18260831509914380803
13533116 47 18130785706760249944
13668630 136 18413387635438870846
13673619 4 18409730664070658021
13685833 64 18341892995928601088
13782708 43 18334008376270536402
13955234 65 18199178659035255376
14123256 34 18413111653751536638
14251732 14 17385726897999492404
14251764 18 17132112472110447072
14294032 229 16300054716626460965
14350574 20 18410855456144651860
14528608 73 14417853631461250476
14556957 393 14418135067699399535
14849402 71 16772940562353339104
15238133 3 14692573246900182089
15352257 5 18334859428477994779
15510800 12 17896045502681548947
1577012 14 13262668232702722727
18222031 100 17022899064328907652
18335252 98 18334577954281460074
20028762 73 17989485233896973334
2026 5 17823407202878894362
20281389 69 12103850064073240155
20554085 129 12252185233896484204
20715895 44 8286190657322543262
21033650 10 16153981341022059253
21049683 271 18410296935004814852
21150785 3 16298390171189148950
21196832 93 16589168171448441627
21267235 1 18202285788679196980
21307412 95 17603864564240115099
21315763 76 12107796194273354062
21365058 113 18260553341799101676
21585481 151 16845298237203207542
21623969 137 18342737411989632959
21682296 61 18411700963638741799
2297311 6 17821728334490255909
2303208 19 18408317787375917293
23522609 53 18124346915065790256
23559900 14 16950567730872187621
246663 6 18272939310579162854
2748736 6 8430310229948267038
2838139 119 10447923936857399627
2916195 48 11600008756539623489
300161 21 11458426834242534584
3004659 81 16515401906692526045
312425 54 15123496000817731926
34797466 226 17313385668558645804
3663271 9 15841540912252367966
439807 62 17968093088479961875
46194498 28 17821725070225706964
465052 167 18202001010962189734
504843 32 7997673303819496881
5104073 3 18059850636642542976
54039377 194 18202290169836028782
54076057 127 18129946810059682720
5718773 13 18187636956434020106
59682541 52 14707203280617259370
59755656 215 17749383767706748563
636775 8 18187094957072722126
8863177 126 18337673121588032139
999808 66 18341337725213662143

> <PUBCHEM_SHAPE_MULTIPOLES>
490.77
21.55
1.99
1.5
2.95
0.05
0.23
-16.32
0.02
-1.16
-0.16
0.57
-0.05
2.04

> <PUBCHEM_SHAPE_SELFOVERLAP>
1035.567

> <PUBCHEM_SHAPE_VOLUME>
278.1

> <PUBCHEM_COORDINATE_TYPE>
2
5
10

$$$$
