45783768
  -OEChem-12032416263D

 46 49  0     1  0  0  0  0  0999 V2000
   -2.1040    1.1031   -2.3431 F   0  0  0  0  0  0  0  0  0  0  0  0
   -0.9051   -0.5897    2.1007 O   0  0  0  0  0  0  0  0  0  0  0  0
   -3.2609   -0.8299   -0.4956 N   0  0  1  0  0  0  0  0  0  0  0  0
   -0.1908   -1.1932    0.0654 N   0  0  0  0  0  0  0  0  0  0  0  0
    0.4648   -0.2996    2.0669 N   0  0  0  0  0  0  0  0  0  0  0  0
    4.4513    0.0823    0.7346 N   0  0  0  0  0  0  0  0  0  0  0  0
    6.0637   -0.2115   -0.9942 N   0  0  0  0  0  0  0  0  0  0  0  0
   -2.6527   -1.5134    0.6634 C   0  0  1  0  0  0  0  0  0  0  0  0
   -2.8132   -3.0146    0.3606 C   0  0  0  0  0  0  0  0  0  0  0  0
   -3.5751   -3.0757   -0.9557 C   0  0  0  0  0  0  0  0  0  0  0  0
   -4.2816   -1.7367   -1.0214 C   0  0  0  0  0  0  0  0  0  0  0  0
   -3.8081    0.4803   -0.1676 C   0  0  0  0  0  0  0  0  0  0  0  0
   -1.2092   -1.1126    0.8840 C   0  0  0  0  0  0  0  0  0  0  0  0
   -2.7351    1.5340   -0.0955 C   0  0  0  0  0  0  0  0  0  0  0  0
   -1.9301    1.7901   -1.2055 C   0  0  0  0  0  0  0  0  0  0  0  0
   -2.5468    2.2546    1.0837 C   0  0  0  0  0  0  0  0  0  0  0  0
    0.8138   -0.6829    0.8351 C   0  0  0  0  0  0  0  0  0  0  0  0
   -0.9369    2.7670   -1.1362 C   0  0  0  0  0  0  0  0  0  0  0  0
   -1.5534    3.2315    1.1532 C   0  0  0  0  0  0  0  0  0  0  0  0
    2.1568   -0.5712    0.3437 C   0  0  0  0  0  0  0  0  0  0  0  0
   -0.7485    3.4877    0.0432 C   0  0  0  0  0  0  0  0  0  0  0  0
    2.4852   -0.9816   -0.9437 C   0  0  0  0  0  0  0  0  0  0  0  0
    3.1671   -0.0507    1.1360 C   0  0  0  0  0  0  0  0  0  0  0  0
    3.7957   -0.8607   -1.3927 C   0  0  0  0  0  0  0  0  0  0  0  0
    4.7329   -0.3273   -0.5227 C   0  0  0  0  0  0  0  0  0  0  0  0
    7.1202    0.3209   -0.1966 C   0  0  0  0  0  0  0  0  0  0  0  0
   -3.2204   -1.3034    1.5810 H   0  0  0  0  0  0  0  0  0  0  0  0
   -1.8652   -3.5584    0.2874 H   0  0  0  0  0  0  0  0  0  0  0  0
   -3.4099   -3.4875    1.1504 H   0  0  0  0  0  0  0  0  0  0  0  0
   -4.2703   -3.9195   -0.9927 H   0  0  0  0  0  0  0  0  0  0  0  0
   -2.8698   -3.1775   -1.7899 H   0  0  0  0  0  0  0  0  0  0  0  0
   -4.5693   -1.4838   -2.0465 H   0  0  0  0  0  0  0  0  0  0  0  0
   -5.1795   -1.7489   -0.3906 H   0  0  0  0  0  0  0  0  0  0  0  0
   -4.4988    0.8047   -0.9588 H   0  0  0  0  0  0  0  0  0  0  0  0
   -4.4078    0.4517    0.7517 H   0  0  0  0  0  0  0  0  0  0  0  0
   -3.1648    2.0643    1.9571 H   0  0  0  0  0  0  0  0  0  0  0  0
   -0.3097    2.9654   -2.0002 H   0  0  0  0  0  0  0  0  0  0  0  0
   -1.4058    3.7916    2.0718 H   0  0  0  0  0  0  0  0  0  0  0  0
    0.0256    4.2475    0.0974 H   0  0  0  0  0  0  0  0  0  0  0  0
    1.7414   -1.3984   -1.6178 H   0  0  0  0  0  0  0  0  0  0  0  0
    2.9941    0.2925    2.1516 H   0  0  0  0  0  0  0  0  0  0  0  0
    4.0586   -1.1799   -2.3960 H   0  0  0  0  0  0  0  0  0  0  0  0
    6.2098   -0.3037   -1.9937 H   0  0  0  0  0  0  0  0  0  0  0  0
    7.2716   -0.2744    0.7097 H   0  0  0  0  0  0  0  0  0  0  0  0
    8.0572    0.3081   -0.7620 H   0  0  0  0  0  0  0  0  0  0  0  0
    6.9175    1.3581    0.0894 H   0  0  0  0  0  0  0  0  0  0  0  0
  1 15  1  0  0  0  0
  2  5  1  0  0  0  0
  2 13  1  0  0  0  0
  3  8  1  0  0  0  0
  3 11  1  0  0  0  0
  3 12  1  0  0  0  0
  4 13  2  0  0  0  0
  4 17  1  0  0  0  0
  5 17  2  0  0  0  0
  6 23  1  0  0  0  0
  6 25  2  0  0  0  0
  7 25  1  0  0  0  0
  7 26  1  0  0  0  0
  7 43  1  0  0  0  0
  8  9  1  0  0  0  0
  8 13  1  0  0  0  0
  8 27  1  0  0  0  0
  9 10  1  0  0  0  0
  9 28  1  0  0  0  0
  9 29  1  0  0  0  0
 10 11  1  0  0  0  0
 10 30  1  0  0  0  0
 10 31  1  0  0  0  0
 11 32  1  0  0  0  0
 11 33  1  0  0  0  0
 12 14  1  0  0  0  0
 12 34  1  0  0  0  0
 12 35  1  0  0  0  0
 14 15  1  0  0  0  0
 14 16  2  0  0  0  0
 15 18  2  0  0  0  0
 16 19  1  0  0  0  0
 16 36  1  0  0  0  0
 17 20  1  0  0  0  0
 18 21  1  0  0  0  0
 18 37  1  0  0  0  0
 19 21  2  0  0  0  0
 19 38  1  0  0  0  0
 20 22  1  0  0  0  0
 20 23  2  0  0  0  0
 21 39  1  0  0  0  0
 22 24  2  0  0  0  0
 22 40  1  0  0  0  0
 23 41  1  0  0  0  0
 24 25  1  0  0  0  0
 24 42  1  0  0  0  0
 26 44  1  0  0  0  0
 26 45  1  0  0  0  0
 26 46  1  0  0  0  0
M  END
> <PUBCHEM_COMPOUND_CID>
45783768

> <PUBCHEM_CONFORMER_RMSD>
0.8

> <PUBCHEM_CONFORMER_DIVERSEORDER>
1
123
19
119
35
98
27
105
114
95
16
20
130
115
91
109
4
102
18
111
108
59
132
36
106
28
11
56
83
80
31
125
134
78
133
103
30
89
107
96
74
101
53
126
73
37
97
44
25
135
3
100
14
52
88
136
86
131
72
26
116
29
13
81
99
124
63
110
24
117
112
71
15
2
76
60
93
21
69
104
82
46
77
121
113
45
85
87
39
92
58
68
12
118
43
40
10
128
79
64
122
75
9
7
90
54
55
84
120
32
65
17
129
50
41
49
67
94
34
51
127
62
8
22
33
66
5
42
57
48
47
61
6
70
23
38

> <PUBCHEM_MMFF94_PARTIAL_CHARGES>
32
1 -0.19
11 0.27
12 0.41
13 0.3
14 -0.14
15 0.19
16 -0.15
17 0.46
18 -0.15
19 -0.15
2 -0.02
20 0.05
21 -0.15
22 -0.15
23 0.16
24 -0.15
25 0.41
26 0.37
3 -0.81
36 0.15
37 0.15
38 0.15
39 0.15
4 -0.57
40 0.15
41 0.15
42 0.15
43 0.4
5 -0.41
6 -0.62
7 -0.87
8 0.45

> <PUBCHEM_EFFECTIVE_ROTOR_COUNT>
6

> <PUBCHEM_PHARMACOPHORE_FEATURES>
8
1 3 cation
1 7 donor
3 4 5 17 cation
3 6 7 25 cation
5 2 4 5 13 17 rings
5 3 8 9 10 11 rings
6 14 15 16 18 19 21 rings
6 6 20 22 23 24 25 rings

> <PUBCHEM_HEAVY_ATOM_COUNT>
26

> <PUBCHEM_ATOM_DEF_STEREO_COUNT>
1

> <PUBCHEM_ATOM_UDEF_STEREO_COUNT>
0

> <PUBCHEM_BOND_DEF_STEREO_COUNT>
0

> <PUBCHEM_BOND_UDEF_STEREO_COUNT>
0

> <PUBCHEM_ISOTOPIC_ATOM_COUNT>
0

> <PUBCHEM_COMPONENT_COUNT>
1

> <PUBCHEM_CACTVS_TAUTO_COUNT>
8

> <PUBCHEM_CONFORMER_ID>
02BA9AD800000001

> <PUBCHEM_MMFF94_ENERGY>
59.1871

> <PUBCHEM_FEATURE_SELFOVERLAP>
40.598

> <PUBCHEM_SHAPE_FINGERPRINT>
10291535 26 18410581665043736616
10498660 4 18263072249865161397
107951 10 17628925534565006069
10871710 139 17894908473907403749
10937287 8 17691124829480162232
11101153 10 18265624367415992068
11477941 20 18339078293839321308
11488393 25 17039236982679598147
12166972 35 16878510171051443462
12173636 292 18052534366392005381
12788726 201 18334568032226901467
13761468 95 17608380034528935612
13994607 96 17168726157860150585
14142880 1 17969793973271449893
14713325 29 18342463599329549782
14910302 57 18201719501172618622
14955137 171 18339095873440708667
15183329 4 17895197650514992618
15463212 79 18261675848559837146
15849732 13 18271257071237914219
15961568 22 18192986244023500744
17357779 13 18270945960279926983
17492 54 17969482863394378493
17818456 19 17974830793088307754
20642791 239 17967800670596454949
20775438 99 16899310929895873271
20905425 154 17831290976206088053
21033650 10 18117581560591116582
21623110 236 18188504582656477244
22393880 68 18200042724982629046
23402539 116 18261113002039090902
23557571 272 18413671322402736814
3268164 11 18335137596313764390
469060 322 17169012048285086857
497634 4 17703803530404051530
531348 171 18268437841419588462
57527585 103 17171250816914678505
7399639 24 17988064712692812034

> <PUBCHEM_SHAPE_MULTIPOLES>
497.02
10.83
3.56
1.63
22.21
1.9
0.05
-3.47
-3.09
-5.49
-0.22
-0.27
0.17
-0.08

> <PUBCHEM_SHAPE_SELFOVERLAP>
1080.792

> <PUBCHEM_SHAPE_VOLUME>
273.8

> <PUBCHEM_COORDINATE_TYPE>
2
5
10

$$$$
