75536036
  -OEChem-12032416323D

 54 55  0     1  0  0  0  0  0999 V2000
    1.0108   -1.3879    1.9545 O   0  0  0  0  0  0  0  0  0  0  0  0
    4.5148    1.1257    0.2081 O   0  0  0  0  0  0  0  0  0  0  0  0
   -2.7161    2.0828    2.0242 O   0  0  0  0  0  0  0  0  0  0  0  0
   -1.4732    2.2968    0.1013 O   0  0  0  0  0  0  0  0  0  0  0  0
    3.0349   -0.6600    0.0412 N   0  0  0  0  0  0  0  0  0  0  0  0
    2.5613   -3.4895    0.3215 N   0  0  0  0  0  0  0  0  0  0  0  0
   -0.2731   -0.1498    0.4584 N   0  0  0  0  0  0  0  0  0  0  0  0
    2.6043    1.4084   -1.0308 N   0  0  0  0  0  0  0  0  0  0  0  0
   -5.0535   -0.3099   -1.2787 N   0  0  0  0  0  0  0  0  0  0  0  0
    1.7229   -1.2234   -0.3198 C   0  0  1  0  0  0  0  0  0  0  0  0
    1.7759   -2.7200   -0.6438 C   0  0  0  0  0  0  0  0  0  0  0  0
    3.8876   -1.5055    0.8845 C   0  0  0  0  0  0  0  0  0  0  0  0
    3.9166   -2.9531    0.4135 C   0  0  0  0  0  0  0  0  0  0  0  0
    0.8030   -0.9370    0.8310 C   0  0  0  0  0  0  0  0  0  0  0  0
    3.4596    0.6571   -0.2317 C   0  0  0  0  0  0  0  0  0  0  0  0
   -1.3157    0.2497    1.3759 C   0  0  2  0  0  0  0  0  0  0  0  0
   -2.4503   -0.7836    1.4370 C   0  0  0  0  0  0  0  0  0  0  0  0
    2.8960    2.7770   -1.3941 C   0  0  0  0  0  0  0  0  0  0  0  0
   -1.8355    1.6502    1.0789 C   0  0  0  0  0  0  0  0  0  0  0  0
   -3.2108   -0.9646    0.1428 C   0  0  0  0  0  0  0  0  0  0  0  0
    2.3511    3.7321   -0.3402 C   0  0  0  0  0  0  0  0  0  0  0  0
    2.3317    3.0960   -2.7730 C   0  0  0  0  0  0  0  0  0  0  0  0
   -2.8100   -1.9067   -0.7981 C   0  0  0  0  0  0  0  0  0  0  0  0
   -4.3291   -0.1980   -0.1427 C   0  0  0  0  0  0  0  0  0  0  0  0
   -3.5298   -2.0513   -1.9790 C   0  0  0  0  0  0  0  0  0  0  0  0
   -3.2396    3.4004    1.8289 C   0  0  0  0  0  0  0  0  0  0  0  0
   -4.6339   -1.2361   -2.1696 C   0  0  0  0  0  0  0  0  0  0  0  0
    1.3542   -0.7441   -1.2293 H   0  0  0  0  0  0  0  0  0  0  0  0
    0.7606   -3.1317   -0.6788 H   0  0  0  0  0  0  0  0  0  0  0  0
    2.2091   -2.8597   -1.6428 H   0  0  0  0  0  0  0  0  0  0  0  0
    3.5183   -1.4355    1.9138 H   0  0  0  0  0  0  0  0  0  0  0  0
    4.9109   -1.1147    0.8952 H   0  0  0  0  0  0  0  0  0  0  0  0
    4.4200   -3.0299   -0.5581 H   0  0  0  0  0  0  0  0  0  0  0  0
    4.4932   -3.5538    1.1251 H   0  0  0  0  0  0  0  0  0  0  0  0
    2.6024   -4.4630    0.0213 H   0  0  0  0  0  0  0  0  0  0  0  0
   -0.3608    0.1561   -0.5061 H   0  0  0  0  0  0  0  0  0  0  0  0
   -0.8541    0.3079    2.3705 H   0  0  0  0  0  0  0  0  0  0  0  0
    1.6768    1.0741   -1.2543 H   0  0  0  0  0  0  0  0  0  0  0  0
   -2.0442   -1.7576    1.7421 H   0  0  0  0  0  0  0  0  0  0  0  0
   -3.1646   -0.5101    2.2248 H   0  0  0  0  0  0  0  0  0  0  0  0
    3.9850    2.8986   -1.4366 H   0  0  0  0  0  0  0  0  0  0  0  0
    2.5833    4.7712   -0.5957 H   0  0  0  0  0  0  0  0  0  0  0  0
    2.7854    3.5216    0.6432 H   0  0  0  0  0  0  0  0  0  0  0  0
    1.2634    3.6389   -0.2450 H   0  0  0  0  0  0  0  0  0  0  0  0
    2.5779    4.1206   -3.0700 H   0  0  0  0  0  0  0  0  0  0  0  0
    2.7431    2.4158   -3.5269 H   0  0  0  0  0  0  0  0  0  0  0  0
    1.2415    2.9875   -2.7916 H   0  0  0  0  0  0  0  0  0  0  0  0
   -1.9406   -2.5339   -0.6223 H   0  0  0  0  0  0  0  0  0  0  0  0
   -4.6962    0.5503    0.5525 H   0  0  0  0  0  0  0  0  0  0  0  0
   -3.2358   -2.7792   -2.7265 H   0  0  0  0  0  0  0  0  0  0  0  0
   -3.9253    3.6190    2.6518 H   0  0  0  0  0  0  0  0  0  0  0  0
   -3.7942    3.4512    0.8870 H   0  0  0  0  0  0  0  0  0  0  0  0
   -2.4295    4.1358    1.8417 H   0  0  0  0  0  0  0  0  0  0  0  0
   -5.2289   -1.3097   -3.0739 H   0  0  0  0  0  0  0  0  0  0  0  0
  1 14  2  0  0  0  0
  2 15  2  0  0  0  0
  3 19  1  0  0  0  0
  3 26  1  0  0  0  0
  4 19  2  0  0  0  0
  5 10  1  0  0  0  0
  5 12  1  0  0  0  0
  5 15  1  0  0  0  0
  6 11  1  0  0  0  0
  6 13  1  0  0  0  0
  6 35  1  0  0  0  0
  7 14  1  0  0  0  0
  7 16  1  0  0  0  0
  7 36  1  0  0  0  0
  8 15  1  0  0  0  0
  8 18  1  0  0  0  0
  8 38  1  0  0  0  0
  9 24  1  0  0  0  0
  9 27  2  0  0  0  0
 10 11  1  0  0  0  0
 10 14  1  0  0  0  0
 10 28  1  0  0  0  0
 11 29  1  0  0  0  0
 11 30  1  0  0  0  0
 12 13  1  0  0  0  0
 12 31  1  0  0  0  0
 12 32  1  0  0  0  0
 13 33  1  0  0  0  0
 13 34  1  0  0  0  0
 16 17  1  0  0  0  0
 16 19  1  0  0  0  0
 16 37  1  0  0  0  0
 17 20  1  0  0  0  0
 17 39  1  0  0  0  0
 17 40  1  0  0  0  0
 18 21  1  0  0  0  0
 18 22  1  0  0  0  0
 18 41  1  0  0  0  0
 20 23  1  0  0  0  0
 20 24  2  0  0  0  0
 21 42  1  0  0  0  0
 21 43  1  0  0  0  0
 21 44  1  0  0  0  0
 22 45  1  0  0  0  0
 22 46  1  0  0  0  0
 22 47  1  0  0  0  0
 23 25  2  0  0  0  0
 23 48  1  0  0  0  0
 24 49  1  0  0  0  0
 25 27  1  0  0  0  0
 25 50  1  0  0  0  0
 26 51  1  0  0  0  0
 26 52  1  0  0  0  0
 26 53  1  0  0  0  0
 27 54  1  0  0  0  0
M  END
> <PUBCHEM_COMPOUND_CID>
75536036

> <PUBCHEM_CONFORMER_RMSD>
1.2

> <PUBCHEM_CONFORMER_DIVERSEORDER>
1
46
123
73
109
68
111
50
71
113
57
118
82
59
31
34
54
74
114
91
70
96
93
81
39
60
84
17
108
89
92
9
119
40
32
122
97
33
44
100
107
112
63
42
125
99
65
38
41
24
62
90
104
58
11
105
75
35
45
86
12
25
103
95
2
49
53
56
94
69
43
78
14
28
79
102
116
13
83
23
101
110
20
55
67
29
52
3
21
88
124
120
4
48
30
16
76
77
22
7
121
18
51
61
72
19
27
106
6
85
36
10
66
98
26
47
64
5
37
87
15
126
8
117
115
80

> <PUBCHEM_MMFF94_PARTIAL_CHARGES>
32
1 -0.57
10 0.36
11 0.27
12 0.3
13 0.27
14 0.57
15 0.69
16 0.36
17 0.14
18 0.3
19 0.66
2 -0.57
20 -0.14
23 -0.15
24 0.16
25 -0.15
26 0.28
27 0.16
3 -0.43
35 0.36
36 0.37
38 0.37
4 -0.57
48 0.15
49 0.15
5 -0.66
50 0.15
54 0.15
6 -0.9
7 -0.73
8 -0.73
9 -0.62

> <PUBCHEM_EFFECTIVE_ROTOR_COUNT>
11.2

> <PUBCHEM_PHARMACOPHORE_FEATURES>
11
1 1 acceptor
1 2 acceptor
1 4 acceptor
1 6 cation
1 6 donor
1 7 donor
1 8 donor
1 9 acceptor
3 18 21 22 hydrophobe
6 5 6 10 11 12 13 rings
6 9 20 23 24 25 27 rings

> <PUBCHEM_HEAVY_ATOM_COUNT>
27

> <PUBCHEM_ATOM_DEF_STEREO_COUNT>
2

> <PUBCHEM_ATOM_UDEF_STEREO_COUNT>
0

> <PUBCHEM_BOND_DEF_STEREO_COUNT>
0

> <PUBCHEM_BOND_UDEF_STEREO_COUNT>
0

> <PUBCHEM_ISOTOPIC_ATOM_COUNT>
0

> <PUBCHEM_COMPONENT_COUNT>
1

> <PUBCHEM_CACTVS_TAUTO_COUNT>
4

> <PUBCHEM_CONFORMER_ID>
048096A400000001

> <PUBCHEM_MMFF94_ENERGY>
57.2685

> <PUBCHEM_FEATURE_SELFOVERLAP>
55.821

> <PUBCHEM_SHAPE_FINGERPRINT>
11725454 13 16009297816507277897
12035759 4 18200315545198798045
12553582 1 17988359377514523787
12788726 201 17989211430469629697
13134695 92 17968094188614231078
133893 2 17967825963147235908
13583140 156 17168426072890776514
13899415 180 18043527205939799538
13911987 19 17758133865786727893
14251757 17 17168688804883018597
14289585 56 17326056148894973461
15420108 30 18199750250604423418
17980427 23 18410855426311742672
192875 21 18335413578238137810
21033648 144 17678466483280397428
21033648 29 16009026245756969140
2132832 1 18340475678116649562
21860390 5 18186799205998902806
23557571 272 17346604032320849976
23558518 356 18336841813672612947
23559900 14 18335135418965935634
23598288 3 17703218525524682853
238 59 18193007121542255448
328310 1195 17895736487334585214
340366 18 17910690769111833279
3737641 26 10014493206588593164
474 4 18188215398249561834
6371009 1 18267297815513190944
6669772 16 17120562334616059441
7471813 234 18341602720500707752

> <PUBCHEM_SHAPE_MULTIPOLES>
507.27
9.5
4.56
2.11
3.69
2.38
0.68
-1.48
2.83
-3.49
0.45
1.48
1.09
-4.4

> <PUBCHEM_SHAPE_SELFOVERLAP>
1037.018

> <PUBCHEM_SHAPE_VOLUME>
289.4

> <PUBCHEM_COORDINATE_TYPE>
2
5
10

$$$$
