11882084
  -OEChem-12032416123D

 67 69  0     1  0  0  0  0  0999 V2000
   -4.1713    4.9356    0.4121 S   0  0  0  0  0  0  0  0  0  0  0  0
   -3.4477    0.6315    0.7210 O   0  0  0  0  0  0  0  0  0  0  0  0
   -2.4250    3.0490   -1.7275 O   0  0  0  0  0  0  0  0  0  0  0  0
    1.6899   -0.8332    0.3607 O   0  0  0  0  0  0  0  0  0  0  0  0
   -3.7148   -0.5282   -3.0792 O   0  0  0  0  0  0  0  0  0  0  0  0
    7.9187    1.3001   -0.4993 O   0  0  0  0  0  0  0  0  0  0  0  0
   -1.6886    2.6126    0.4231 N   0  0  0  0  0  0  0  0  0  0  0  0
    1.0335    1.2407    1.1436 N   0  0  0  0  0  0  0  0  0  0  0  0
   -2.2423   -0.6957   -0.7639 N   0  0  0  0  0  0  0  0  0  0  0  0
    3.2229    0.9372    0.5242 N   0  0  0  0  0  0  0  0  0  0  0  0
   -5.4480   -1.5925   -2.0116 N   0  0  0  0  0  0  0  0  0  0  0  0
   -0.3506    0.9020    1.3753 C   0  0  2  0  0  0  0  0  0  0  0  0
   -1.2119    1.2578    0.1635 C   0  0  1  0  0  0  0  0  0  0  0  0
   -0.9506    1.7497    2.5003 C   0  0  0  0  0  0  0  0  0  0  0  0
   -1.4031    3.0220    1.7956 C   0  0  0  0  0  0  0  0  0  0  0  0
   -2.4293    0.3859    0.0799 C   0  0  0  0  0  0  0  0  0  0  0  0
   -2.1953    3.4276   -0.5777 C   0  0  0  0  0  0  0  0  0  0  0  0
   -3.2555   -1.6986   -0.9997 C   0  0  2  0  0  0  0  0  0  0  0  0
   -2.4735    4.8543   -0.1760 C   0  0  0  0  0  0  0  0  0  0  0  0
    1.9699    0.3294    0.6432 C   0  0  0  0  0  0  0  0  0  0  0  0
   -2.6505   -3.0593   -1.3636 C   0  0  0  0  0  0  0  0  0  0  0  0
   -4.1347   -1.1894   -2.1325 C   0  0  0  0  0  0  0  0  0  0  0  0
   -2.1557   -3.8197   -0.1575 C   0  0  0  0  0  0  0  0  0  0  0  0
    4.4274    0.3593    0.0596 C   0  0  0  0  0  0  0  0  0  0  0  0
   -0.8411   -3.6554    0.2793 C   0  0  0  0  0  0  0  0  0  0  0  0
   -3.0128   -4.6863    0.5209 C   0  0  0  0  0  0  0  0  0  0  0  0
   -4.2427    6.6982    0.8169 C   0  0  0  0  0  0  0  0  0  0  0  0
    5.5932    1.1237    0.0095 C   0  0  0  0  0  0  0  0  0  0  0  0
    4.4496   -0.9743   -0.3487 C   0  0  0  0  0  0  0  0  0  0  0  0
   -0.3835   -4.3580    1.3941 C   0  0  0  0  0  0  0  0  0  0  0  0
   -2.5552   -5.3886    1.6359 C   0  0  0  0  0  0  0  0  0  0  0  0
   -1.2405   -5.2244    2.0724 C   0  0  0  0  0  0  0  0  0  0  0  0
    6.7812    0.5544   -0.4492 C   0  0  0  0  0  0  0  0  0  0  0  0
    5.6375   -1.5434   -0.8073 C   0  0  0  0  0  0  0  0  0  0  0  0
    6.8033   -0.7791   -0.8576 C   0  0  0  0  0  0  0  0  0  0  0  0
    9.0973    0.6552   -0.9796 C   0  0  0  0  0  0  0  0  0  0  0  0
   -0.4048   -0.1638    1.6250 H   0  0  0  0  0  0  0  0  0  0  0  0
   -0.6641    1.2428   -0.7861 H   0  0  0  0  0  0  0  0  0  0  0  0
   -0.2549    1.9551    3.3197 H   0  0  0  0  0  0  0  0  0  0  0  0
   -1.8243    1.2370    2.9209 H   0  0  0  0  0  0  0  0  0  0  0  0
   -2.2814    3.4666    2.2694 H   0  0  0  0  0  0  0  0  0  0  0  0
   -0.5935    3.7594    1.7717 H   0  0  0  0  0  0  0  0  0  0  0  0
    1.3282    2.2016    1.2891 H   0  0  0  0  0  0  0  0  0  0  0  0
   -1.3728   -0.7697   -1.2844 H   0  0  0  0  0  0  0  0  0  0  0  0
   -3.8699   -1.7798   -0.0936 H   0  0  0  0  0  0  0  0  0  0  0  0
   -2.3610    5.4844   -1.0648 H   0  0  0  0  0  0  0  0  0  0  0  0
   -1.7726    5.2219    0.5755 H   0  0  0  0  0  0  0  0  0  0  0  0
   -1.8319   -2.9416   -2.0866 H   0  0  0  0  0  0  0  0  0  0  0  0
   -3.3967   -3.6798   -1.8784 H   0  0  0  0  0  0  0  0  0  0  0  0
    3.2854    1.9127    0.8045 H   0  0  0  0  0  0  0  0  0  0  0  0
   -6.1384   -1.3326   -2.7082 H   0  0  0  0  0  0  0  0  0  0  0  0
   -5.7758   -2.1590   -1.2358 H   0  0  0  0  0  0  0  0  0  0  0  0
   -0.1635   -2.9846   -0.2416 H   0  0  0  0  0  0  0  0  0  0  0  0
   -4.0398   -4.8207    0.1920 H   0  0  0  0  0  0  0  0  0  0  0  0
   -3.5054    6.9414    1.5864 H   0  0  0  0  0  0  0  0  0  0  0  0
   -4.0572    7.3012   -0.0757 H   0  0  0  0  0  0  0  0  0  0  0  0
   -5.2378    6.9397    1.1998 H   0  0  0  0  0  0  0  0  0  0  0  0
    5.5833    2.1641    0.3259 H   0  0  0  0  0  0  0  0  0  0  0  0
    3.5896   -1.6289   -0.3393 H   0  0  0  0  0  0  0  0  0  0  0  0
    0.6400   -4.2297    1.7339 H   0  0  0  0  0  0  0  0  0  0  0  0
   -3.2227   -6.0627    2.1646 H   0  0  0  0  0  0  0  0  0  0  0  0
   -0.8844   -5.7711    2.9406 H   0  0  0  0  0  0  0  0  0  0  0  0
    5.6550   -2.5819   -1.1255 H   0  0  0  0  0  0  0  0  0  0  0  0
    7.6904   -1.2841   -1.2243 H   0  0  0  0  0  0  0  0  0  0  0  0
    9.9044    1.3946   -0.9517 H   0  0  0  0  0  0  0  0  0  0  0  0
    8.9874    0.3412   -2.0232 H   0  0  0  0  0  0  0  0  0  0  0  0
    9.3983   -0.1712   -0.3268 H   0  0  0  0  0  0  0  0  0  0  0  0
  1 19  1  0  0  0  0
  1 27  1  0  0  0  0
  2 16  2  0  0  0  0
  3 17  2  0  0  0  0
  4 20  2  0  0  0  0
  5 22  2  0  0  0  0
  6 33  1  0  0  0  0
  6 36  1  0  0  0  0
  7 13  1  0  0  0  0
  7 15  1  0  0  0  0
  7 17  1  0  0  0  0
  8 12  1  0  0  0  0
  8 20  1  0  0  0  0
  8 43  1  0  0  0  0
  9 16  1  0  0  0  0
  9 18  1  0  0  0  0
  9 44  1  0  0  0  0
 10 20  1  0  0  0  0
 10 24  1  0  0  0  0
 10 50  1  0  0  0  0
 11 22  1  0  0  0  0
 11 51  1  0  0  0  0
 11 52  1  0  0  0  0
 12 13  1  0  0  0  0
 12 14  1  0  0  0  0
 12 37  1  0  0  0  0
 13 16  1  0  0  0  0
 13 38  1  0  0  0  0
 14 15  1  0  0  0  0
 14 39  1  0  0  0  0
 14 40  1  0  0  0  0
 15 41  1  0  0  0  0
 15 42  1  0  0  0  0
 17 19  1  0  0  0  0
 18 21  1  0  0  0  0
 18 22  1  0  0  0  0
 18 45  1  0  0  0  0
 19 46  1  0  0  0  0
 19 47  1  0  0  0  0
 21 23  1  0  0  0  0
 21 48  1  0  0  0  0
 21 49  1  0  0  0  0
 23 25  2  0  0  0  0
 23 26  1  0  0  0  0
 24 28  2  0  0  0  0
 24 29  1  0  0  0  0
 25 30  1  0  0  0  0
 25 53  1  0  0  0  0
 26 31  2  0  0  0  0
 26 54  1  0  0  0  0
 27 55  1  0  0  0  0
 27 56  1  0  0  0  0
 27 57  1  0  0  0  0
 28 33  1  0  0  0  0
 28 58  1  0  0  0  0
 29 34  2  0  0  0  0
 29 59  1  0  0  0  0
 30 32  2  0  0  0  0
 30 60  1  0  0  0  0
 31 32  1  0  0  0  0
 31 61  1  0  0  0  0
 32 62  1  0  0  0  0
 33 35  2  0  0  0  0
 34 35  1  0  0  0  0
 34 63  1  0  0  0  0
 35 64  1  0  0  0  0
 36 65  1  0  0  0  0
 36 66  1  0  0  0  0
 36 67  1  0  0  0  0
M  END
> <PUBCHEM_COMPOUND_CID>
11882084

> <PUBCHEM_CONFORMER_RMSD>
1.2

> <PUBCHEM_CONFORMER_DIVERSEORDER>
2
28
23
13
33
25
39
40
18
19
29
31
43
37
27
21
9
10
26
38
7
17
15
34
8
24
12
32
41
42
6
5
14
16
30
3
35
4
20
36
11
1
22

> <PUBCHEM_MMFF94_PARTIAL_CHARGES>
49
1 -0.46
10 -0.55
11 -0.8
12 0.3
13 0.36
15 0.3
16 0.57
17 0.57
18 0.36
19 0.29
2 -0.57
20 0.69
21 0.14
22 0.57
23 -0.14
24 0.12
25 -0.15
26 -0.15
27 0.23
28 -0.15
29 -0.15
3 -0.57
30 -0.15
31 -0.15
32 -0.15
33 0.08
34 -0.15
35 -0.15
36 0.28
4 -0.57
43 0.37
44 0.37
5 -0.57
50 0.37
51 0.37
52 0.37
53 0.15
54 0.15
58 0.15
59 0.15
6 -0.36
60 0.15
61 0.15
62 0.15
63 0.15
64 0.15
7 -0.66
8 -0.73
9 -0.73

> <PUBCHEM_EFFECTIVE_ROTOR_COUNT>
15

> <PUBCHEM_PHARMACOPHORE_FEATURES>
13
1 10 donor
1 11 donor
1 2 acceptor
1 27 hydrophobe
1 3 acceptor
1 4 acceptor
1 5 acceptor
1 6 acceptor
1 8 donor
1 9 donor
5 7 12 13 14 15 rings
6 23 25 26 30 31 32 rings
6 24 28 29 33 34 35 rings

> <PUBCHEM_HEAVY_ATOM_COUNT>
36

> <PUBCHEM_ATOM_DEF_STEREO_COUNT>
3

> <PUBCHEM_ATOM_UDEF_STEREO_COUNT>
0

> <PUBCHEM_BOND_DEF_STEREO_COUNT>
0

> <PUBCHEM_BOND_UDEF_STEREO_COUNT>
0

> <PUBCHEM_ISOTOPIC_ATOM_COUNT>
0

> <PUBCHEM_COMPONENT_COUNT>
1

> <PUBCHEM_CACTVS_TAUTO_COUNT>
12

> <PUBCHEM_CONFORMER_ID>
00B54E6400000002

> <PUBCHEM_MMFF94_ENERGY>
104.5588

> <PUBCHEM_FEATURE_SELFOVERLAP>
66.026

> <PUBCHEM_SHAPE_FINGERPRINT>
10032420 55 18200292364991061843
11434127 23 18411697699632441878
12788726 201 18340190943138974411
14004853 49 18194958548222357297
14114206 34 18267559438449024047
14659021 117 18337950198939893848
15064986 266 18342187695410387326
15361156 5 18200593708850572004
15463212 79 18265614282172949736
15927050 60 18055066559172052109
15950262 2 15287296763251449623
16114785 44 18339089189965408265
16628084 112 18339637820508738599
19958102 18 18335414656644675006
20642791 178 17190642496163251905
21133410 32 16011003262248366010
21716022 299 17465678074775696637
395649 100 18335986476248653926
4058900 60 18121783829122728769
5265222 85 18341051800661609545
563151 40 18269557148519599913
57527358 35 14926717439997830047
70634741 139 17971757929109319838

> <PUBCHEM_SHAPE_MULTIPOLES>
690.46
15.66
9.14
1.98
49.84
0.1
0.38
-8.39
8.03
-19.64
-4.42
-2.68
1.01
-1.15

> <PUBCHEM_SHAPE_SELFOVERLAP>
1435.638

> <PUBCHEM_SHAPE_VOLUME>
394.2

> <PUBCHEM_COORDINATE_TYPE>
2
5
10

$$$$
