7662800
  -OEChem-12032416413D

 48 51  0     1  0  0  0  0  0999 V2000
   -1.4761   -4.2202    1.1999 S   0  0  0  0  0  0  0  0  0  0  0  0
   -3.1930    2.0698    2.2813 O   0  0  0  0  0  0  0  0  0  0  0  0
   -3.2197   -2.6038   -0.1479 O   0  0  0  0  0  0  0  0  0  0  0  0
   -1.8439   -1.1292   -1.3009 N   0  0  0  0  0  0  0  0  0  0  0  0
   -1.8456    1.5334    0.4420 N   0  0  0  0  0  0  0  0  0  0  0  0
    4.8261   -2.6113   -0.1064 N   0  0  0  0  0  0  0  0  0  0  0  0
   -2.8536    1.0752   -1.8701 C   0  0  1  0  0  0  0  0  0  0  0  0
   -0.4249    0.9029   -1.5342 C   0  0  2  0  0  0  0  0  0  0  0  0
   -1.5082    1.5544   -2.3920 C   0  0  0  0  0  0  0  0  0  0  0  0
   -2.9614   -0.4558   -1.9622 C   0  0  0  0  0  0  0  0  0  0  0  0
   -3.0239    1.5749   -0.4350 C   0  0  0  0  0  0  0  0  0  0  0  0
   -0.5133   -0.6314   -1.6736 C   0  0  0  0  0  0  0  0  0  0  0  0
   -0.5494    1.3088   -0.0630 C   0  0  0  0  0  0  0  0  0  0  0  0
    0.5265    1.4291    0.7578 C   0  0  0  0  0  0  0  0  0  0  0  0
   -2.0851    1.8507    1.7910 C   0  0  0  0  0  0  0  0  0  0  0  0
   -2.0916   -2.2033   -0.4466 C   0  0  0  0  0  0  0  0  0  0  0  0
    0.3180    1.7517    2.1566 C   0  0  0  0  0  0  0  0  0  0  0  0
   -0.8974    1.9401    2.6701 C   0  0  0  0  0  0  0  0  0  0  0  0
    1.9072    1.2213    0.2688 C   0  0  0  0  0  0  0  0  0  0  0  0
   -0.8856   -2.8922    0.1403 C   0  0  0  0  0  0  0  0  0  0  0  0
    2.4685   -0.0516    0.3000 C   0  0  0  0  0  0  0  0  0  0  0  0
    2.6361    2.3021   -0.2179 C   0  0  0  0  0  0  0  0  0  0  0  0
    3.7711   -0.2455   -0.1597 C   0  0  0  0  0  0  0  0  0  0  0  0
    3.9387    2.1083   -0.6779 C   0  0  0  0  0  0  0  0  0  0  0  0
    4.5062    0.8345   -0.6487 C   0  0  0  0  0  0  0  0  0  0  0  0
    0.1211   -4.8626    1.7588 C   0  0  0  0  0  0  0  0  0  0  0  0
    4.3530   -1.5504   -0.1303 C   0  0  0  0  0  0  0  0  0  0  0  0
   -3.6586    1.5007   -2.4821 H   0  0  0  0  0  0  0  0  0  0  0  0
    0.5381    1.2276   -1.9438 H   0  0  0  0  0  0  0  0  0  0  0  0
   -1.4386    2.6483   -2.3421 H   0  0  0  0  0  0  0  0  0  0  0  0
   -1.3843    1.2726   -3.4449 H   0  0  0  0  0  0  0  0  0  0  0  0
   -3.9179   -0.7936   -1.5492 H   0  0  0  0  0  0  0  0  0  0  0  0
   -2.9396   -0.7676   -3.0138 H   0  0  0  0  0  0  0  0  0  0  0  0
   -3.3278    2.6305   -0.4677 H   0  0  0  0  0  0  0  0  0  0  0  0
   -3.8471    1.0427    0.0585 H   0  0  0  0  0  0  0  0  0  0  0  0
   -0.3543   -0.9186   -2.7207 H   0  0  0  0  0  0  0  0  0  0  0  0
    0.2722   -1.1200   -1.0985 H   0  0  0  0  0  0  0  0  0  0  0  0
    1.1882    1.8275    2.8019 H   0  0  0  0  0  0  0  0  0  0  0  0
   -1.0442    2.1752    3.7176 H   0  0  0  0  0  0  0  0  0  0  0  0
   -0.3169   -2.1803    0.7442 H   0  0  0  0  0  0  0  0  0  0  0  0
   -0.2693   -3.3045   -0.6632 H   0  0  0  0  0  0  0  0  0  0  0  0
    1.9003   -0.8929    0.6916 H   0  0  0  0  0  0  0  0  0  0  0  0
    2.2067    3.3004   -0.2470 H   0  0  0  0  0  0  0  0  0  0  0  0
    4.5108    2.9492   -1.0588 H   0  0  0  0  0  0  0  0  0  0  0  0
    5.5227    0.6993   -1.0108 H   0  0  0  0  0  0  0  0  0  0  0  0
    0.7088   -5.2138    0.9068 H   0  0  0  0  0  0  0  0  0  0  0  0
   -0.0463   -5.7036    2.4369 H   0  0  0  0  0  0  0  0  0  0  0  0
    0.6758   -4.0880    2.2948 H   0  0  0  0  0  0  0  0  0  0  0  0
  1 20  1  0  0  0  0
  1 26  1  0  0  0  0
  2 15  2  0  0  0  0
  3 16  2  0  0  0  0
  4 10  1  0  0  0  0
  4 12  1  0  0  0  0
  4 16  1  0  0  0  0
  5 11  1  0  0  0  0
  5 13  1  0  0  0  0
  5 15  1  0  0  0  0
  6 27  3  0  0  0  0
  7  9  1  0  0  0  0
  7 10  1  0  0  0  0
  7 11  1  0  0  0  0
  7 28  1  0  0  0  0
  8  9  1  0  0  0  0
  8 12  1  0  0  0  0
  8 13  1  0  0  0  0
  8 29  1  0  0  0  0
  9 30  1  0  0  0  0
  9 31  1  0  0  0  0
 10 32  1  0  0  0  0
 10 33  1  0  0  0  0
 11 34  1  0  0  0  0
 11 35  1  0  0  0  0
 12 36  1  0  0  0  0
 12 37  1  0  0  0  0
 13 14  2  0  0  0  0
 14 17  1  0  0  0  0
 14 19  1  0  0  0  0
 15 18  1  0  0  0  0
 16 20  1  0  0  0  0
 17 18  2  0  0  0  0
 17 38  1  0  0  0  0
 18 39  1  0  0  0  0
 19 21  1  0  0  0  0
 19 22  2  0  0  0  0
 20 40  1  0  0  0  0
 20 41  1  0  0  0  0
 21 23  2  0  0  0  0
 21 42  1  0  0  0  0
 22 24  1  0  0  0  0
 22 43  1  0  0  0  0
 23 25  1  0  0  0  0
 23 27  1  0  0  0  0
 24 25  2  0  0  0  0
 24 44  1  0  0  0  0
 25 45  1  0  0  0  0
 26 46  1  0  0  0  0
 26 47  1  0  0  0  0
 26 48  1  0  0  0  0
M  END
> <PUBCHEM_COMPOUND_CID>
7662800

> <PUBCHEM_CONFORMER_RMSD>
0.8

> <PUBCHEM_CONFORMER_DIVERSEORDER>
1
8
5
10
3
6
4
9
7
2

> <PUBCHEM_MMFF94_PARTIAL_CHARGES>
31
1 -0.46
10 0.3
11 0.3
12 0.3
13 -0.03
14 -0.03
15 0.62
16 0.57
17 -0.15
18 -0.14
19 0.03
2 -0.57
20 0.29
21 -0.15
22 -0.15
23 0.07
24 -0.15
25 -0.15
26 0.23
27 0.48
3 -0.57
38 0.15
39 0.15
4 -0.66
42 0.15
43 0.15
44 0.15
45 0.15
5 -0.47
6 -0.56
8 0.14

> <PUBCHEM_EFFECTIVE_ROTOR_COUNT>
5

> <PUBCHEM_PHARMACOPHORE_FEATURES>
8
1 2 acceptor
1 26 hydrophobe
1 3 acceptor
1 6 acceptor
6 19 21 22 23 24 25 rings
6 4 7 8 9 10 12 rings
6 5 13 14 15 17 18 rings
6 5 7 8 9 11 13 rings

> <PUBCHEM_HEAVY_ATOM_COUNT>
27

> <PUBCHEM_ATOM_DEF_STEREO_COUNT>
2

> <PUBCHEM_ATOM_UDEF_STEREO_COUNT>
0

> <PUBCHEM_BOND_DEF_STEREO_COUNT>
0

> <PUBCHEM_BOND_UDEF_STEREO_COUNT>
0

> <PUBCHEM_ISOTOPIC_ATOM_COUNT>
0

> <PUBCHEM_COMPONENT_COUNT>
1

> <PUBCHEM_CACTVS_TAUTO_COUNT>
1

> <PUBCHEM_CONFORMER_ID>
0074ECD000000001

> <PUBCHEM_MMFF94_ENERGY>
74.3254

> <PUBCHEM_FEATURE_SELFOVERLAP>
42.162

> <PUBCHEM_SHAPE_FINGERPRINT>
10764073 3 13173540715600077588
12156800 1 17187349810270734199
12539773 59 17482234185970262774
12553582 1 17274258503849634164
12592029 89 18045770196511407629
12788726 201 17775293763114429649
13135754 10 17553530041877624454
13631057 29 18124316271000601820
14787075 74 18201999933025774685
15420108 30 16476565734086280336
16752209 62 17203889656461178532
20775530 9 17614001119779688218
23466295 7 18188502362248004002
23728640 28 16988273175527508812
3493558 16 12527482767128485262
35225 105 17839785622068415011
3737641 26 18050581930167821182
394222 165 17482563988520426609
469060 322 17681284578826955740
50150288 127 17558023681713317282
57527295 17 17700949266858973685
57527585 103 18266478532646441646
59444896 2 16618960199492344053
9925002 15 12470370036062242689

> <PUBCHEM_SHAPE_MULTIPOLES>
532.82
7.01
4.84
2.35
8.74
7.93
-0.77
0.8
1.99
-1.7
-2.67
-2.18
-1.39
-0.16

> <PUBCHEM_SHAPE_SELFOVERLAP>
1142.385

> <PUBCHEM_SHAPE_VOLUME>
295

> <PUBCHEM_COORDINATE_TYPE>
2
5
10

$$$$
