11884040
  -OEChem-12032416373D

 63 67  0     1  0  0  0  0  0999 V2000
   -1.4206   -2.4823   -0.9655 O   0  0  0  0  0  0  0  0  0  0  0  0
   -3.0683   -3.2874    1.4923 O   0  0  0  0  0  0  0  0  0  0  0  0
    0.4610   -2.8745    1.0375 O   0  0  0  0  0  0  0  0  0  0  0  0
   -6.3702   -1.0983   -0.3659 O   0  0  0  0  0  0  0  0  0  0  0  0
    0.9917   -0.6730    0.7186 O   0  0  0  0  0  0  0  0  0  0  0  0
    7.1223    0.3512   -1.2017 O   0  0  0  0  0  0  0  0  0  0  0  0
   -4.2042   -1.0759   -1.2030 N   0  0  0  0  0  0  0  0  0  0  0  0
   -5.6415    0.6493   -1.7071 N   0  0  0  0  0  0  0  0  0  0  0  0
    2.5573   -2.3782    0.3697 N   0  0  0  0  0  0  0  0  0  0  0  0
   -3.0594   -2.0810    0.7008 C   0  0  1  0  0  0  0  0  0  0  0  0
   -1.6199   -1.8295    0.2995 C   0  0  1  0  0  0  0  0  0  0  0  0
   -3.7660   -2.3176   -0.6137 C   0  0  2  0  0  0  0  0  0  0  0  0
   -0.8492   -2.5077    1.4066 C   0  0  1  0  0  0  0  0  0  0  0  0
   -2.6803   -2.9733   -1.4495 C   0  0  0  0  0  0  0  0  0  0  0  0
   -1.7140   -3.7112    1.7066 C   0  0  0  0  0  0  0  0  0  0  0  0
   -5.4870   -0.5582   -1.0308 C   0  0  0  0  0  0  0  0  0  0  0  0
    1.3244   -1.8518    0.7032 C   0  0  0  0  0  0  0  0  0  0  0  0
   -6.8748    1.4003   -1.6958 C   0  0  0  0  0  0  0  0  0  0  0  0
    3.7208   -1.6830   -0.0313 C   0  0  0  0  0  0  0  0  0  0  0  0
   -6.9250    2.3811   -0.5601 C   0  0  0  0  0  0  0  0  0  0  0  0
    3.6885   -0.3003   -0.1204 C   0  0  0  0  0  0  0  0  0  0  0  0
    4.8713   -2.3969   -0.3262 C   0  0  0  0  0  0  0  0  0  0  0  0
   -7.4534    1.9887    0.6643 C   0  0  0  0  0  0  0  0  0  0  0  0
   -6.4422    3.6715   -0.7440 C   0  0  0  0  0  0  0  0  0  0  0  0
    4.8368    0.3864   -0.5147 C   0  0  0  0  0  0  0  0  0  0  0  0
    6.0196   -1.7103   -0.7204 C   0  0  0  0  0  0  0  0  0  0  0  0
    6.0024   -0.3186   -0.8148 C   0  0  0  0  0  0  0  0  0  0  0  0
   -7.4999    2.8997    1.7195 C   0  0  0  0  0  0  0  0  0  0  0  0
   -6.4887    4.5824    0.3114 C   0  0  0  0  0  0  0  0  0  0  0  0
   -7.0175    4.1964    1.5431 C   0  0  0  0  0  0  0  0  0  0  0  0
    7.4782    1.4797   -0.4822 C   0  0  0  0  0  0  0  0  0  0  0  0
    7.4429    1.4365    0.8998 C   0  0  0  0  0  0  0  0  0  0  0  0
    7.8593    2.6208   -1.1646 C   0  0  0  0  0  0  0  0  0  0  0  0
    7.8007    2.5734    1.6243 C   0  0  0  0  0  0  0  0  0  0  0  0
    8.2171    3.7576   -0.4400 C   0  0  0  0  0  0  0  0  0  0  0  0
    8.1878    3.7340    0.9544 C   0  0  0  0  0  0  0  0  0  0  0  0
   -3.4860   -1.2797    1.3125 H   0  0  0  0  0  0  0  0  0  0  0  0
   -1.3989   -0.7674    0.1652 H   0  0  0  0  0  0  0  0  0  0  0  0
   -4.6301   -2.9834   -0.5160 H   0  0  0  0  0  0  0  0  0  0  0  0
   -0.8237   -1.8650    2.2970 H   0  0  0  0  0  0  0  0  0  0  0  0
   -2.6792   -4.0594   -1.3063 H   0  0  0  0  0  0  0  0  0  0  0  0
   -2.7621   -2.7677   -2.5212 H   0  0  0  0  0  0  0  0  0  0  0  0
   -1.5976   -4.0602    2.7370 H   0  0  0  0  0  0  0  0  0  0  0  0
   -1.4977   -4.5556    1.0425 H   0  0  0  0  0  0  0  0  0  0  0  0
   -3.5280   -0.5188   -1.7168 H   0  0  0  0  0  0  0  0  0  0  0  0
   -4.8483    1.0306   -2.2133 H   0  0  0  0  0  0  0  0  0  0  0  0
    2.6406   -3.3908    0.4175 H   0  0  0  0  0  0  0  0  0  0  0  0
   -7.7241    0.7089   -1.6419 H   0  0  0  0  0  0  0  0  0  0  0  0
   -6.9514    1.9205   -2.6574 H   0  0  0  0  0  0  0  0  0  0  0  0
    2.8240    0.3124    0.0898 H   0  0  0  0  0  0  0  0  0  0  0  0
    4.8956   -3.4808   -0.2558 H   0  0  0  0  0  0  0  0  0  0  0  0
   -7.8360    0.9832    0.8143 H   0  0  0  0  0  0  0  0  0  0  0  0
   -6.0265    3.9822   -1.6984 H   0  0  0  0  0  0  0  0  0  0  0  0
    4.7884    1.4686   -0.6030 H   0  0  0  0  0  0  0  0  0  0  0  0
    6.9248   -2.2648   -0.9528 H   0  0  0  0  0  0  0  0  0  0  0  0
   -7.9124    2.5995    2.6784 H   0  0  0  0  0  0  0  0  0  0  0  0
   -6.1127    5.5921    0.1744 H   0  0  0  0  0  0  0  0  0  0  0  0
   -7.0537    4.9057    2.3647 H   0  0  0  0  0  0  0  0  0  0  0  0
    7.1682    0.5383    1.4449 H   0  0  0  0  0  0  0  0  0  0  0  0
    7.8820    2.6408   -2.2500 H   0  0  0  0  0  0  0  0  0  0  0  0
    7.7832    2.5536    2.7100 H   0  0  0  0  0  0  0  0  0  0  0  0
    8.5187    4.6613   -0.9614 H   0  0  0  0  0  0  0  0  0  0  0  0
    8.4677    4.6188    1.5185 H   0  0  0  0  0  0  0  0  0  0  0  0
  1 11  1  0  0  0  0
  1 14  1  0  0  0  0
  2 10  1  0  0  0  0
  2 15  1  0  0  0  0
  3 13  1  0  0  0  0
  3 17  1  0  0  0  0
  4 16  2  0  0  0  0
  5 17  2  0  0  0  0
  6 27  1  0  0  0  0
  6 31  1  0  0  0  0
  7 12  1  0  0  0  0
  7 16  1  0  0  0  0
  7 45  1  0  0  0  0
  8 16  1  0  0  0  0
  8 18  1  0  0  0  0
  8 46  1  0  0  0  0
  9 17  1  0  0  0  0
  9 19  1  0  0  0  0
  9 47  1  0  0  0  0
 10 11  1  0  0  0  0
 10 12  1  0  0  0  0
 10 37  1  0  0  0  0
 11 13  1  0  0  0  0
 11 38  1  0  0  0  0
 12 14  1  0  0  0  0
 12 39  1  0  0  0  0
 13 15  1  0  0  0  0
 13 40  1  0  0  0  0
 14 41  1  0  0  0  0
 14 42  1  0  0  0  0
 15 43  1  0  0  0  0
 15 44  1  0  0  0  0
 18 20  1  0  0  0  0
 18 48  1  0  0  0  0
 18 49  1  0  0  0  0
 19 21  2  0  0  0  0
 19 22  1  0  0  0  0
 20 23  2  0  0  0  0
 20 24  1  0  0  0  0
 21 25  1  0  0  0  0
 21 50  1  0  0  0  0
 22 26  2  0  0  0  0
 22 51  1  0  0  0  0
 23 28  1  0  0  0  0
 23 52  1  0  0  0  0
 24 29  2  0  0  0  0
 24 53  1  0  0  0  0
 25 27  2  0  0  0  0
 25 54  1  0  0  0  0
 26 27  1  0  0  0  0
 26 55  1  0  0  0  0
 28 30  2  0  0  0  0
 28 56  1  0  0  0  0
 29 30  1  0  0  0  0
 29 57  1  0  0  0  0
 30 58  1  0  0  0  0
 31 32  2  0  0  0  0
 31 33  1  0  0  0  0
 32 34  1  0  0  0  0
 32 59  1  0  0  0  0
 33 35  2  0  0  0  0
 33 60  1  0  0  0  0
 34 36  2  0  0  0  0
 34 61  1  0  0  0  0
 35 36  1  0  0  0  0
 35 62  1  0  0  0  0
 36 63  1  0  0  0  0
M  END
> <PUBCHEM_COMPOUND_CID>
11884040

> <PUBCHEM_CONFORMER_RMSD>
1.2

> <PUBCHEM_CONFORMER_DIVERSEORDER>
1
177
206
146
135
181
82
121
74
84
57
86
170
202
151
31
96
75
114
173
8
214
83
62
191
61
205
47
66
145
46
154
38
33
48
127
63
150
116
218
184
21
160
190
109
108
222
29
95
72
115
26
28
147
100
189
223
107
91
80
49
139
126
207
13
39
56
210
94
102
178
201
164
19
69
40
162
159
76
215
70
88
132
171
142
97
81
193
157
78
221
209
87
53
36
153
129
148
43
4
111
59
219
203
68
130
106
104
128
85
30
186
123
67
20
9
65
163
138
35
149
55
6
141
200
50
187
131
161
133
194
98
140
176
99
169
90
12
93
213
175
110
198
103
71
52
212
119
158
179
32
113
5
152
195
172
42
216
155
144
101
174
166
64
89
34
118
54
15
183
58
208
73
143
197
27
137
185
125
168
167
17
199
156
7
124
24
196
182
16
44
3
25
79
22
11
18
134
180
23
211
92
37
77
45
188
51
10
204
136
165
105
117
120
192
122
60
217
2
41
112
14
220

> <PUBCHEM_MMFF94_PARTIAL_CHARGES>
53
1 -0.56
10 0.28
11 0.28
12 0.3
13 0.28
14 0.28
15 0.28
16 0.69
17 0.78
18 0.44
19 0.12
2 -0.56
20 -0.14
21 -0.15
22 -0.15
23 -0.15
24 -0.15
25 -0.15
26 -0.15
27 0.08
28 -0.15
29 -0.15
3 -0.43
30 -0.15
31 0.08
32 -0.15
33 -0.15
34 -0.15
35 -0.15
36 -0.15
4 -0.57
45 0.37
46 0.37
47 0.37
5 -0.57
50 0.15
51 0.15
52 0.15
53 0.15
54 0.15
55 0.15
56 0.15
57 0.15
58 0.15
59 0.15
6 -0.17
60 0.15
61 0.15
62 0.15
63 0.15
7 -0.73
8 -0.73
9 -0.55

> <PUBCHEM_EFFECTIVE_ROTOR_COUNT>
12.2

> <PUBCHEM_PHARMACOPHORE_FEATURES>
13
1 1 acceptor
1 2 acceptor
1 4 acceptor
1 5 acceptor
1 6 acceptor
1 7 donor
1 8 donor
1 9 donor
5 1 10 11 12 14 rings
5 2 10 11 13 15 rings
6 19 21 22 25 26 27 rings
6 20 23 24 28 29 30 rings
6 31 32 33 34 35 36 rings

> <PUBCHEM_HEAVY_ATOM_COUNT>
36

> <PUBCHEM_ATOM_DEF_STEREO_COUNT>
4

> <PUBCHEM_ATOM_UDEF_STEREO_COUNT>
0

> <PUBCHEM_BOND_DEF_STEREO_COUNT>
0

> <PUBCHEM_BOND_UDEF_STEREO_COUNT>
0

> <PUBCHEM_ISOTOPIC_ATOM_COUNT>
0

> <PUBCHEM_COMPONENT_COUNT>
1

> <PUBCHEM_CACTVS_TAUTO_COUNT>
6

> <PUBCHEM_CONFORMER_ID>
00B5560800000001

> <PUBCHEM_MMFF94_ENERGY>
109.3232

> <PUBCHEM_FEATURE_SELFOVERLAP>
66.742

> <PUBCHEM_SHAPE_FINGERPRINT>
10533779 1 18115008763069117069
11135609 201 18262242115367324915
11181472 205 18113898291681358732
11421887 103 17913200156118439864
11497681 19 9583512131700644714
11621639 254 18272361019625098447
12013929 29 18268994181053844149
12120059 9 8934715535808043971
12539765 74 18201442419720793998
12975358 362 18042703856472270148
13165053 182 18339653341998638792
13782708 43 9655580708160054118
14150022 121 17968672605193239907
14340393 14 18272926120787207608
14394314 77 18336268959868011381
14930077 153 18273494559782783661
15131766 46 18116700826334460293
15604295 49 18270960266573955696
16067689 391 10374713003100571557
16126227 98 18335423444078787725
16728433 281 18130790032293489937
16993089 31 10231764379037324904
16994733 274 18333726949039470346
19304671 126 18341336591690566310
2026 5 9727338131666559661
21033648 29 17968376862013723034
21223535 225 18411976996432848916
25025965 108 11891623472674897161
2835820 40 18265330612779960229
4173938 188 17748831809724189187
4366758 26 18125446298361583881
44802255 64 17846499287608149263
44880568 143 18341617044528266510
4516262 110 18261945242880117311
4616759 239 16805891801088987171
5718773 13 10087634897099622719
5776283 40 18341888619674068241
5937810 71 18343587343400212737
6201320 82 18271259269496986232
6289498 60 17749100098070652692
636775 72 18335419131288063845
6475588 51 18410852148978545477
6673363 416 18268709580011050255
6698420 124 18187368713887941306
9980921 221 16773522075382000425

> <PUBCHEM_SHAPE_MULTIPOLES>
690.7
31.6
6.55
1.63
18.71
4.1
0.18
46.83
-2.17
-5.26
2.13
-1.44
0.07
-0.47

> <PUBCHEM_SHAPE_SELFOVERLAP>
1505.35

> <PUBCHEM_SHAPE_VOLUME>
374.1

> <PUBCHEM_COORDINATE_TYPE>
2
5
10

$$$$
