11941204
  -OEChem-12032416153D

 60 62  0     1  0  0  0  0  0999 V2000
    3.2258    2.1985   -0.3608 S   0  0  0  0  0  0  0  0  0  0  0  0
   -6.6379    0.6111   -3.2401 F   0  0  0  0  0  0  0  0  0  0  0  0
    3.8935    3.1613    0.4881 O   0  0  0  0  0  0  0  0  0  0  0  0
    2.8359    2.5380   -1.7121 O   0  0  0  0  0  0  0  0  0  0  0  0
   -2.0612   -2.0750    1.1517 O   0  0  0  0  0  0  0  0  0  0  0  0
    6.6032   -2.6525   -0.6027 O   0  0  0  0  0  0  0  0  0  0  0  0
    1.8632    1.5728    0.4694 N   0  0  1  0  0  0  0  0  0  0  0  0
   -3.7347   -0.8317    2.1788 N   0  0  0  0  0  0  0  0  0  0  0  0
   -0.3680    0.4827    0.3665 C   0  0  2  0  0  0  0  0  0  0  0  0
   -0.1517   -0.0457    1.8054 C   0  0  1  0  0  0  0  0  0  0  0  0
    0.8306    0.8402    2.5867 C   0  0  0  0  0  0  0  0  0  0  0  0
    0.9887    0.6659   -0.3327 C   0  0  0  0  0  0  0  0  0  0  0  0
    2.1407    1.0249    1.8277 C   0  0  0  0  0  0  0  0  0  0  0  0
   -1.1910    1.7753    0.2917 C   0  0  0  0  0  0  0  0  0  0  0  0
   -1.4554   -0.2217    2.5837 C   0  0  0  0  0  0  0  0  0  0  0  0
   -1.4533    2.1732   -1.1453 C   0  0  0  0  0  0  0  0  0  0  0  0
   -2.4185   -1.1561    1.8838 C   0  0  0  0  0  0  0  0  0  0  0  0
    4.2330    0.7507   -0.4323 C   0  0  0  0  0  0  0  0  0  0  0  0
    4.1252   -0.1206   -1.5161 C   0  0  0  0  0  0  0  0  0  0  0  0
    5.1375    0.4786    0.5942 C   0  0  0  0  0  0  0  0  0  0  0  0
   -4.8653   -1.5562    1.6447 C   0  0  0  0  0  0  0  0  0  0  0  0
    4.9219   -1.2640   -1.5736 C   0  0  0  0  0  0  0  0  0  0  0  0
    5.9341   -0.6648    0.5367 C   0  0  0  0  0  0  0  0  0  0  0  0
    5.8265   -1.5362   -0.5472 C   0  0  0  0  0  0  0  0  0  0  0  0
   -5.3383   -0.9784    0.3422 C   0  0  0  0  0  0  0  0  0  0  0  0
   -6.3094    0.0229    0.3349 C   0  0  0  0  0  0  0  0  0  0  0  0
   -4.8062   -1.4425   -0.8607 C   0  0  0  0  0  0  0  0  0  0  0  0
   -6.7485    0.5599   -0.8752 C   0  0  0  0  0  0  0  0  0  0  0  0
   -5.2451   -0.9056   -2.0708 C   0  0  0  0  0  0  0  0  0  0  0  0
   -6.2164    0.0956   -2.0781 C   0  0  0  0  0  0  0  0  0  0  0  0
    6.4411   -3.5006   -1.7385 C   0  0  0  0  0  0  0  0  0  0  0  0
   -0.9083   -0.2825   -0.2053 H   0  0  0  0  0  0  0  0  0  0  0  0
    0.3158   -1.0376    1.7142 H   0  0  0  0  0  0  0  0  0  0  0  0
    0.3794    1.8209    2.7818 H   0  0  0  0  0  0  0  0  0  0  0  0
    1.0423    0.3908    3.5644 H   0  0  0  0  0  0  0  0  0  0  0  0
    0.8658    1.0317   -1.3538 H   0  0  0  0  0  0  0  0  0  0  0  0
    1.4711   -0.3165   -0.4108 H   0  0  0  0  0  0  0  0  0  0  0  0
    2.7750    1.7149    2.3932 H   0  0  0  0  0  0  0  0  0  0  0  0
    2.6470    0.0569    1.7566 H   0  0  0  0  0  0  0  0  0  0  0  0
   -0.7009    2.6021    0.8168 H   0  0  0  0  0  0  0  0  0  0  0  0
   -2.1652    1.6283    0.7691 H   0  0  0  0  0  0  0  0  0  0  0  0
   -1.2415   -0.6687    3.5631 H   0  0  0  0  0  0  0  0  0  0  0  0
   -1.9253    0.7477    2.7827 H   0  0  0  0  0  0  0  0  0  0  0  0
   -1.8221    1.3315   -1.7404 H   0  0  0  0  0  0  0  0  0  0  0  0
   -2.2177    2.9576   -1.1759 H   0  0  0  0  0  0  0  0  0  0  0  0
   -0.5642    2.5877   -1.6289 H   0  0  0  0  0  0  0  0  0  0  0  0
   -3.9314   -0.0449    2.7904 H   0  0  0  0  0  0  0  0  0  0  0  0
    3.4250    0.0706   -2.3245 H   0  0  0  0  0  0  0  0  0  0  0  0
    5.2381    1.1419    1.4486 H   0  0  0  0  0  0  0  0  0  0  0  0
   -4.5952   -2.6113    1.5182 H   0  0  0  0  0  0  0  0  0  0  0  0
   -5.6639   -1.5201    2.3943 H   0  0  0  0  0  0  0  0  0  0  0  0
    4.7865   -1.8983   -2.4431 H   0  0  0  0  0  0  0  0  0  0  0  0
    6.6365   -0.8720    1.3395 H   0  0  0  0  0  0  0  0  0  0  0  0
   -6.7302    0.3944    1.2655 H   0  0  0  0  0  0  0  0  0  0  0  0
   -4.0508   -2.2234   -0.8707 H   0  0  0  0  0  0  0  0  0  0  0  0
   -7.5041    1.3398   -0.8813 H   0  0  0  0  0  0  0  0  0  0  0  0
   -4.8312   -1.2668   -3.0076 H   0  0  0  0  0  0  0  0  0  0  0  0
    5.4325   -3.9253   -1.7829 H   0  0  0  0  0  0  0  0  0  0  0  0
    6.7168   -2.9877   -2.6662 H   0  0  0  0  0  0  0  0  0  0  0  0
    7.1356   -4.3384   -1.6181 H   0  0  0  0  0  0  0  0  0  0  0  0
  1  3  2  0  0  0  0
  1  4  2  0  0  0  0
  1  7  1  0  0  0  0
  1 18  1  0  0  0  0
  2 30  1  0  0  0  0
  5 17  2  0  0  0  0
  6 24  1  0  0  0  0
  6 31  1  0  0  0  0
  7 12  1  0  0  0  0
  7 13  1  0  0  0  0
  8 17  1  0  0  0  0
  8 21  1  0  0  0  0
  8 47  1  0  0  0  0
  9 10  1  0  0  0  0
  9 12  1  0  0  0  0
  9 14  1  0  0  0  0
  9 32  1  0  0  0  0
 10 11  1  0  0  0  0
 10 15  1  0  0  0  0
 10 33  1  0  0  0  0
 11 13  1  0  0  0  0
 11 34  1  0  0  0  0
 11 35  1  0  0  0  0
 12 36  1  0  0  0  0
 12 37  1  0  0  0  0
 13 38  1  0  0  0  0
 13 39  1  0  0  0  0
 14 16  1  0  0  0  0
 14 40  1  0  0  0  0
 14 41  1  0  0  0  0
 15 17  1  0  0  0  0
 15 42  1  0  0  0  0
 15 43  1  0  0  0  0
 16 44  1  0  0  0  0
 16 45  1  0  0  0  0
 16 46  1  0  0  0  0
 18 19  2  0  0  0  0
 18 20  1  0  0  0  0
 19 22  1  0  0  0  0
 19 48  1  0  0  0  0
 20 23  2  0  0  0  0
 20 49  1  0  0  0  0
 21 25  1  0  0  0  0
 21 50  1  0  0  0  0
 21 51  1  0  0  0  0
 22 24  2  0  0  0  0
 22 52  1  0  0  0  0
 23 24  1  0  0  0  0
 23 53  1  0  0  0  0
 25 26  2  0  0  0  0
 25 27  1  0  0  0  0
 26 28  1  0  0  0  0
 26 54  1  0  0  0  0
 27 29  2  0  0  0  0
 27 55  1  0  0  0  0
 28 30  2  0  0  0  0
 28 56  1  0  0  0  0
 29 30  1  0  0  0  0
 29 57  1  0  0  0  0
 31 58  1  0  0  0  0
 31 59  1  0  0  0  0
 31 60  1  0  0  0  0
M  END
> <PUBCHEM_COMPOUND_CID>
11941204

> <PUBCHEM_CONFORMER_RMSD>
1.2

> <PUBCHEM_CONFORMER_DIVERSEORDER>
2
136
21
133
74
134
131
98
95
118
71
73
92
128
62
97
109
55
102
117
96
31
24
77
127
112
129
139
135
33
60
3
86
54
126
137
85
80
125
87
99
1
53
17
130
142
104
84
119
105
36
63
40
100
93
25
83
35
132
27
138
65
44
106
18
124
56
57
108
8
91
123
72
16
47
32
26
39
89
12
113
45
144
68
15
46
29
141
116
51
121
61
28
101
94
38
11
114
110
37
67
20
42
120
23
78
34
58
30
4
111
9
64
81
43
75
76
41
10
49
90
52
70
107
82
48
14
5
22
122
103
88
79
66
7
19
6
50
59
140
69
13
143
115

> <PUBCHEM_MMFF94_PARTIAL_CHARGES>
35
1 1.45
12 0.36
13 0.36
15 0.06
17 0.57
18 -0.01
19 -0.15
2 -0.19
20 -0.15
21 0.44
22 -0.15
23 -0.15
24 0.08
25 -0.14
26 -0.15
27 -0.15
28 -0.15
29 -0.15
3 -0.65
30 0.19
31 0.28
4 -0.65
47 0.37
48 0.15
49 0.15
5 -0.57
52 0.15
53 0.15
54 0.15
55 0.15
56 0.15
57 0.15
6 -0.36
7 -0.85
8 -0.73

> <PUBCHEM_EFFECTIVE_ROTOR_COUNT>
10.2

> <PUBCHEM_PHARMACOPHORE_FEATURES>
9
1 16 hydrophobe
1 3 acceptor
1 4 acceptor
1 5 acceptor
1 6 acceptor
1 8 donor
6 18 19 20 22 23 24 rings
6 25 26 27 28 29 30 rings
6 7 9 10 11 12 13 rings

> <PUBCHEM_HEAVY_ATOM_COUNT>
31

> <PUBCHEM_ATOM_DEF_STEREO_COUNT>
2

> <PUBCHEM_ATOM_UDEF_STEREO_COUNT>
0

> <PUBCHEM_BOND_DEF_STEREO_COUNT>
0

> <PUBCHEM_BOND_UDEF_STEREO_COUNT>
0

> <PUBCHEM_ISOTOPIC_ATOM_COUNT>
0

> <PUBCHEM_COMPONENT_COUNT>
1

> <PUBCHEM_CACTVS_TAUTO_COUNT>
2

> <PUBCHEM_CONFORMER_ID>
00B6355400000002

> <PUBCHEM_MMFF94_ENERGY>
65.7354

> <PUBCHEM_FEATURE_SELFOVERLAP>
45.69

> <PUBCHEM_SHAPE_FINGERPRINT>
10 15 12535341286423369954
10939801 23 14404605697246239480
11135609 201 9222933835012873206
11273773 42 12829504648698796574
11475781 23 17531237396496299300
1200032 147 12396309149603958218
12596602 18 14261361240638326022
12717326 150 17413593848412838614
12730499 353 10015591588782284664
13782708 43 18131350799696395821
14294032 229 15792555375817637036
14664723 55 17095804318325129709
14790565 3 15574712534346100769
15052358 14 17676488341296826283
15183329 4 18040437680890829155
15188451 53 17346601829308763946
15475509 8 16587748628895962990
15519825 34 15697986419330619702
15629462 23 18129096715335474121
17857418 61 16917073278090092803
17899979 129 13479431474368482902
19958102 18 18334860497861190715
20028762 73 17060347279995210262
21223535 225 18337391518611920901
21279426 13 17822008739766876113
22061861 79 18335989752206069667
22149856 69 11743574249057909663
23536364 44 17894911832772308517
23559900 14 17968101979268051160
23569914 152 17755561768623783463
32027 91 18411987970417460978
3459 83 18410299112072438905
38570 142 15140683566208371787
3882209 13 17537984880550902506
4058900 60 15285349592725475441
4173938 77 13335035926994687766
4339292 15 18266747888533685558
437795 139 16629670894782834983
437795 70 17676492713657943164
474113 269 17131269047860326623
531348 171 18060140921451225633
57816373 69 17417263022516121438
5874358 3 16916488273242802031
59755656 215 17676199148237309535
6608658 132 15430034318611910781
8988823 20 17703795864098762768
9980921 221 17677064425249937084

> <PUBCHEM_SHAPE_MULTIPOLES>
601.1
19.28
2.82
2.66
6.33
1.38
-0.06
14.8
-5.67
-5.78
-0.42
3.78
-0.45
-1.53

> <PUBCHEM_SHAPE_SELFOVERLAP>
1247.357

> <PUBCHEM_SHAPE_VOLUME>
345.9

> <PUBCHEM_COORDINATE_TYPE>
2
5
10

$$$$
