7682267
  -OEChem-12032416283D

 58 62  0     1  0  0  0  0  0999 V2000
   -1.5117   -4.7500   -1.9401 F   0  0  0  0  0  0  0  0  0  0  0  0
    4.4333    2.0383   -2.0777 O   0  0  0  0  0  0  0  0  0  0  0  0
   -5.5237   -0.6714    0.0956 O   0  0  0  0  0  0  0  0  0  0  0  0
    2.4305   -1.0326    1.3013 N   0  0  2  0  0  0  0  0  0  0  0  0
    2.8733    1.6324   -0.3788 N   0  0  0  0  0  0  0  0  0  0  0  0
   -4.9391    1.5804    0.4775 N   0  0  0  0  0  0  0  0  0  0  0  0
    3.6026    1.0594    2.0135 C   0  0  1  0  0  0  0  0  0  0  0  0
    1.2220    1.1527    1.4532 C   0  0  2  0  0  0  0  0  0  0  0  0
    2.2817    1.6993    2.4066 C   0  0  0  0  0  0  0  0  0  0  0  0
    3.5088   -0.4758    2.1259 C   0  0  0  0  0  0  0  0  0  0  0  0
    1.1449   -0.3859    1.5989 C   0  0  0  0  0  0  0  0  0  0  0  0
    3.9644    1.5215    0.5999 C   0  0  0  0  0  0  0  0  0  0  0  0
    1.5200    1.5481    0.0040 C   0  0  0  0  0  0  0  0  0  0  0  0
    2.3385   -2.4811    1.4679 C   0  0  0  0  0  0  0  0  0  0  0  0
    0.5425    1.7965   -0.9060 C   0  0  0  0  0  0  0  0  0  0  0  0
    3.2678    1.9381   -1.6933 C   0  0  0  0  0  0  0  0  0  0  0  0
    0.9112    2.1104   -2.2734 C   0  0  0  0  0  0  0  0  0  0  0  0
    2.1817    2.1703   -2.6722 C   0  0  0  0  0  0  0  0  0  0  0  0
    1.3099   -3.0871    0.5576 C   0  0  0  0  0  0  0  0  0  0  0  0
   -0.8906    1.7399   -0.5445 C   0  0  0  0  0  0  0  0  0  0  0  0
   -1.5831    0.5379   -0.6519 C   0  0  0  0  0  0  0  0  0  0  0  0
   -1.5365    2.8895   -0.0999 C   0  0  0  0  0  0  0  0  0  0  0  0
   -0.0040   -3.2128    0.9923 C   0  0  0  0  0  0  0  0  0  0  0  0
    1.6824   -3.5160   -0.7108 C   0  0  0  0  0  0  0  0  0  0  0  0
   -2.9347    0.4848   -0.3114 C   0  0  0  0  0  0  0  0  0  0  0  0
   -2.8881    2.8365    0.2408 C   0  0  0  0  0  0  0  0  0  0  0  0
   -0.9596   -3.7758    0.1464 C   0  0  0  0  0  0  0  0  0  0  0  0
    0.7269   -4.0790   -1.5570 C   0  0  0  0  0  0  0  0  0  0  0  0
   -3.5873    1.6340    0.1351 C   0  0  0  0  0  0  0  0  0  0  0  0
   -0.5942   -4.2089   -1.1284 C   0  0  0  0  0  0  0  0  0  0  0  0
   -5.7980    0.4741    0.4384 C   0  0  0  0  0  0  0  0  0  0  0  0
   -7.1916    0.8323    0.8903 C   0  0  0  0  0  0  0  0  0  0  0  0
    4.3910    1.3931    2.6996 H   0  0  0  0  0  0  0  0  0  0  0  0
    0.2635    1.5733    1.7780 H   0  0  0  0  0  0  0  0  0  0  0  0
    2.3408    2.7931    2.3437 H   0  0  0  0  0  0  0  0  0  0  0  0
    2.0290    1.4500    3.4445 H   0  0  0  0  0  0  0  0  0  0  0  0
    4.4683   -0.9098    1.8176 H   0  0  0  0  0  0  0  0  0  0  0  0
    3.3606   -0.7442    3.1809 H   0  0  0  0  0  0  0  0  0  0  0  0
    0.8150   -0.6293    2.6182 H   0  0  0  0  0  0  0  0  0  0  0  0
    0.3667   -0.7195    0.9118 H   0  0  0  0  0  0  0  0  0  0  0  0
    4.4025    2.5272    0.6657 H   0  0  0  0  0  0  0  0  0  0  0  0
    4.7494    0.8814    0.1773 H   0  0  0  0  0  0  0  0  0  0  0  0
    2.1132   -2.7501    2.5096 H   0  0  0  0  0  0  0  0  0  0  0  0
    3.3105   -2.9435    1.2491 H   0  0  0  0  0  0  0  0  0  0  0  0
    0.1167    2.2901   -2.9918 H   0  0  0  0  0  0  0  0  0  0  0  0
    2.4478    2.4008   -3.6969 H   0  0  0  0  0  0  0  0  0  0  0  0
   -1.0902   -0.3637   -1.0070 H   0  0  0  0  0  0  0  0  0  0  0  0
   -1.0039    3.8332   -0.0119 H   0  0  0  0  0  0  0  0  0  0  0  0
   -0.3024   -2.8937    1.9872 H   0  0  0  0  0  0  0  0  0  0  0  0
    2.7077   -3.4175   -1.0565 H   0  0  0  0  0  0  0  0  0  0  0  0
   -3.4085   -0.4807   -0.4211 H   0  0  0  0  0  0  0  0  0  0  0  0
   -3.3837    3.7397    0.5877 H   0  0  0  0  0  0  0  0  0  0  0  0
   -1.9877   -3.8791    0.4806 H   0  0  0  0  0  0  0  0  0  0  0  0
    1.0109   -4.4156   -2.5496 H   0  0  0  0  0  0  0  0  0  0  0  0
   -5.3420    2.4601    0.7939 H   0  0  0  0  0  0  0  0  0  0  0  0
   -7.1664    1.1752    1.9284 H   0  0  0  0  0  0  0  0  0  0  0  0
   -7.8407   -0.0449    0.8211 H   0  0  0  0  0  0  0  0  0  0  0  0
   -7.5966    1.6236    0.2533 H   0  0  0  0  0  0  0  0  0  0  0  0
  1 30  1  0  0  0  0
  2 16  2  0  0  0  0
  3 31  2  0  0  0  0
  4 10  1  0  0  0  0
  4 11  1  0  0  0  0
  4 14  1  0  0  0  0
  5 12  1  0  0  0  0
  5 13  1  0  0  0  0
  5 16  1  0  0  0  0
  6 29  1  0  0  0  0
  6 31  1  0  0  0  0
  6 55  1  0  0  0  0
  7  9  1  0  0  0  0
  7 10  1  0  0  0  0
  7 12  1  0  0  0  0
  7 33  1  0  0  0  0
  8  9  1  0  0  0  0
  8 11  1  0  0  0  0
  8 13  1  0  0  0  0
  8 34  1  0  0  0  0
  9 35  1  0  0  0  0
  9 36  1  0  0  0  0
 10 37  1  0  0  0  0
 10 38  1  0  0  0  0
 11 39  1  0  0  0  0
 11 40  1  0  0  0  0
 12 41  1  0  0  0  0
 12 42  1  0  0  0  0
 13 15  2  0  0  0  0
 14 19  1  0  0  0  0
 14 43  1  0  0  0  0
 14 44  1  0  0  0  0
 15 17  1  0  0  0  0
 15 20  1  0  0  0  0
 16 18  1  0  0  0  0
 17 18  2  0  0  0  0
 17 45  1  0  0  0  0
 18 46  1  0  0  0  0
 19 23  2  0  0  0  0
 19 24  1  0  0  0  0
 20 21  2  0  0  0  0
 20 22  1  0  0  0  0
 21 25  1  0  0  0  0
 21 47  1  0  0  0  0
 22 26  2  0  0  0  0
 22 48  1  0  0  0  0
 23 27  1  0  0  0  0
 23 49  1  0  0  0  0
 24 28  2  0  0  0  0
 24 50  1  0  0  0  0
 25 29  2  0  0  0  0
 25 51  1  0  0  0  0
 26 29  1  0  0  0  0
 26 52  1  0  0  0  0
 27 30  2  0  0  0  0
 27 53  1  0  0  0  0
 28 30  1  0  0  0  0
 28 54  1  0  0  0  0
 31 32  1  0  0  0  0
 32 56  1  0  0  0  0
 32 57  1  0  0  0  0
 32 58  1  0  0  0  0
M  END
> <PUBCHEM_COMPOUND_CID>
7682267

> <PUBCHEM_CONFORMER_RMSD>
0.8

> <PUBCHEM_CONFORMER_DIVERSEORDER>
1
4
5
2
3

> <PUBCHEM_MMFF94_PARTIAL_CHARGES>
41
1 -0.19
10 0.27
11 0.27
12 0.3
13 -0.03
14 0.41
15 -0.03
16 0.62
17 -0.15
18 -0.14
19 -0.14
2 -0.57
20 0.03
21 -0.15
22 -0.15
23 -0.15
24 -0.15
25 -0.15
26 -0.15
27 -0.15
28 -0.15
29 0.12
3 -0.57
30 0.19
31 0.57
32 0.06
4 -0.81
45 0.15
46 0.15
47 0.15
48 0.15
49 0.15
5 -0.47
50 0.15
51 0.15
52 0.15
53 0.15
54 0.15
55 0.37
6 -0.55
8 0.14

> <PUBCHEM_EFFECTIVE_ROTOR_COUNT>
6

> <PUBCHEM_PHARMACOPHORE_FEATURES>
9
1 2 acceptor
1 3 acceptor
1 4 cation
1 6 donor
6 19 23 24 27 28 30 rings
6 20 21 22 25 26 29 rings
6 4 7 8 9 10 11 rings
6 5 13 15 16 17 18 rings
6 5 7 8 9 12 13 rings

> <PUBCHEM_HEAVY_ATOM_COUNT>
32

> <PUBCHEM_ATOM_DEF_STEREO_COUNT>
2

> <PUBCHEM_ATOM_UDEF_STEREO_COUNT>
0

> <PUBCHEM_BOND_DEF_STEREO_COUNT>
0

> <PUBCHEM_BOND_UDEF_STEREO_COUNT>
0

> <PUBCHEM_ISOTOPIC_ATOM_COUNT>
0

> <PUBCHEM_COMPONENT_COUNT>
1

> <PUBCHEM_CACTVS_TAUTO_COUNT>
2

> <PUBCHEM_CONFORMER_ID>
007538DB00000001

> <PUBCHEM_MMFF94_ENERGY>
95.2951

> <PUBCHEM_FEATURE_SELFOVERLAP>
47.222

> <PUBCHEM_SHAPE_FINGERPRINT>
10064457 181 18269815610918958328
10764073 3 14533527369915045928
11421498 54 18269570355006588928
11513181 2 18059846277346137719
11578080 2 17052208935386538512
12128747 34 17336724744305248193
12156800 1 18337679706606483606
12788726 201 17543917157697504990
13150687 139 18115611347465990668
13383661 66 17626126151969677278
13583140 156 17914307144571711641
14725015 67 15383289325113363977
14863182 85 18409729538804842977
14918310 93 17895482423008079750
14932701 244 16689931463510731294
15219462 58 17913465970657750113
15297060 5 18270969054065967890
15324884 4 17467026849937806912
15392192 104 18262256482175452633
15664445 248 17466800272911073508
17492 54 17679614197616248102
17974551 9 16406161835363850905
18681886 176 18261116304927529092
19301679 30 18188219698382887225
1979834 28 18411135801882359825
20775530 9 17331680146333460759
21304303 282 16452099938216142276
22956985 138 18119248359715372963
23559900 14 18120377549830557829
27425 322 17987225806305837241
3117164 225 17480870723639706121
3493558 16 12475708478199490153
6287921 2 18268143163291013835

> <PUBCHEM_SHAPE_MULTIPOLES>
624.59
9.41
5.85
2.31
19.72
9.01
-0.43
-5.4
3.26
-1.58
-3.08
-2.87
-0.58
-1.46

> <PUBCHEM_SHAPE_SELFOVERLAP>
1371.507

> <PUBCHEM_SHAPE_VOLUME>
336.2

> <PUBCHEM_COORDINATE_TYPE>
2
5
10

$$$$
