26743094
  -OEChem-12032416193D

 63 66  0     1  0  0  0  0  0999 V2000
    5.9848   -1.7246    0.7860 S   0  0  0  0  0  0  0  0  0  0  0  0
   -4.2549    1.9862   -1.8196 O   0  0  0  0  0  0  0  0  0  0  0  0
    2.9318   -2.9800    0.2800 O   0  0  0  0  0  0  0  0  0  0  0  0
    0.5167    2.5370    0.2272 N   0  0  0  0  0  0  0  0  0  0  0  0
   -4.4169   -0.0537   -0.7180 N   0  0  0  0  0  0  0  0  0  0  0  0
    1.5884   -2.6342    0.1989 N   0  0  0  0  0  0  0  0  0  0  0  0
   -1.5932    0.5043   -0.1233 C   0  0  1  0  0  0  0  0  0  0  0  0
   -0.0852    0.1650   -0.1934 C   0  0  2  0  0  0  0  0  0  0  0  0
   -1.7824    1.7781    0.7174 C   0  0  0  0  0  0  0  0  0  0  0  0
    0.7502    1.3783   -0.6355 C   0  0  0  0  0  0  0  0  0  0  0  0
   -2.2641    0.6508   -1.4942 C   0  0  0  0  0  0  0  0  0  0  0  0
   -0.8917    2.9264    0.2449 C   0  0  0  0  0  0  0  0  0  0  0  0
    0.2161   -1.0456   -1.0779 C   0  0  0  0  0  0  0  0  0  0  0  0
   -5.8403   -0.0206   -0.4650 C   0  0  0  0  0  0  0  0  0  0  0  0
   -6.4358   -1.4324   -0.4834 C   0  0  0  0  0  0  0  0  0  0  0  0
   -6.1489    0.6954    0.8542 C   0  0  0  0  0  0  0  0  0  0  0  0
   -3.7412    0.9613   -1.3793 C   0  0  0  0  0  0  0  0  0  0  0  0
   -6.0311   -2.2539    0.7407 C   0  0  0  0  0  0  0  0  0  0  0  0
   -5.7445   -0.1297    2.0760 C   0  0  0  0  0  0  0  0  0  0  0  0
   -6.3582   -1.5259    2.0409 C   0  0  0  0  0  0  0  0  0  0  0  0
    1.5353   -1.6681   -0.7224 C   0  0  0  0  0  0  0  0  0  0  0  0
    2.8017   -1.3653   -1.2519 C   0  0  0  0  0  0  0  0  0  0  0  0
    3.6442   -2.2176   -0.5885 C   0  0  0  0  0  0  0  0  0  0  0  0
    5.0921   -2.4540   -0.6325 C   0  0  0  0  0  0  0  0  0  0  0  0
    5.4810   -0.0144    0.6643 C   0  0  0  0  0  0  0  0  0  0  0  0
    5.7711    0.7182   -0.4866 C   0  0  0  0  0  0  0  0  0  0  0  0
    4.7978    0.5878    1.7207 C   0  0  0  0  0  0  0  0  0  0  0  0
    5.3779    2.0532   -0.5813 C   0  0  0  0  0  0  0  0  0  0  0  0
    4.4046    1.9227    1.6262 C   0  0  0  0  0  0  0  0  0  0  0  0
    4.6947    2.6555    0.4752 C   0  0  0  0  0  0  0  0  0  0  0  0
   -2.0765   -0.3163    0.4218 H   0  0  0  0  0  0  0  0  0  0  0  0
    0.2206   -0.0788    0.8363 H   0  0  0  0  0  0  0  0  0  0  0  0
   -1.5254    1.5453    1.7602 H   0  0  0  0  0  0  0  0  0  0  0  0
   -2.8273    2.1048    0.7394 H   0  0  0  0  0  0  0  0  0  0  0  0
    1.8175    1.1468   -0.5757 H   0  0  0  0  0  0  0  0  0  0  0  0
    0.5434    1.6413   -1.6799 H   0  0  0  0  0  0  0  0  0  0  0  0
   -2.1737   -0.2756   -2.0734 H   0  0  0  0  0  0  0  0  0  0  0  0
   -1.7975    1.4416   -2.0909 H   0  0  0  0  0  0  0  0  0  0  0  0
   -1.2020    3.2794   -0.7452 H   0  0  0  0  0  0  0  0  0  0  0  0
   -1.0108    3.7720    0.9314 H   0  0  0  0  0  0  0  0  0  0  0  0
    0.2168   -0.7700   -2.1397 H   0  0  0  0  0  0  0  0  0  0  0  0
   -0.5659   -1.8060   -0.9518 H   0  0  0  0  0  0  0  0  0  0  0  0
   -6.2999    0.5539   -1.2789 H   0  0  0  0  0  0  0  0  0  0  0  0
    1.0800    3.3210   -0.1008 H   0  0  0  0  0  0  0  0  0  0  0  0
   -6.1308   -1.9625   -1.3937 H   0  0  0  0  0  0  0  0  0  0  0  0
   -7.5304   -1.3572   -0.5107 H   0  0  0  0  0  0  0  0  0  0  0  0
   -7.2268    0.8953    0.9065 H   0  0  0  0  0  0  0  0  0  0  0  0
   -5.6449    1.6686    0.8914 H   0  0  0  0  0  0  0  0  0  0  0  0
   -4.9587   -2.4792    0.7062 H   0  0  0  0  0  0  0  0  0  0  0  0
   -6.5534   -3.2173    0.7210 H   0  0  0  0  0  0  0  0  0  0  0  0
   -6.0615    0.3877    2.9886 H   0  0  0  0  0  0  0  0  0  0  0  0
   -4.6515   -0.2109    2.1215 H   0  0  0  0  0  0  0  0  0  0  0  0
   -7.4470   -1.4475    2.1501 H   0  0  0  0  0  0  0  0  0  0  0  0
   -5.9939   -2.1108    2.8930 H   0  0  0  0  0  0  0  0  0  0  0  0
   -3.8998   -0.8646   -0.3946 H   0  0  0  0  0  0  0  0  0  0  0  0
    3.0647   -0.6388   -2.0065 H   0  0  0  0  0  0  0  0  0  0  0  0
    5.2933   -3.5308   -0.6276 H   0  0  0  0  0  0  0  0  0  0  0  0
    5.5197   -2.0619   -1.5612 H   0  0  0  0  0  0  0  0  0  0  0  0
    6.3086    0.2723   -1.3195 H   0  0  0  0  0  0  0  0  0  0  0  0
    4.5614    0.0321    2.6248 H   0  0  0  0  0  0  0  0  0  0  0  0
    5.6042    2.6241   -1.4771 H   0  0  0  0  0  0  0  0  0  0  0  0
    3.8708    2.3914    2.4478 H   0  0  0  0  0  0  0  0  0  0  0  0
    4.3871    3.6945    0.4012 H   0  0  0  0  0  0  0  0  0  0  0  0
  1 24  1  0  0  0  0
  1 25  1  0  0  0  0
  2 17  2  0  0  0  0
  3  6  1  0  0  0  0
  3 23  1  0  0  0  0
  4 10  1  0  0  0  0
  4 12  1  0  0  0  0
  4 44  1  0  0  0  0
  5 14  1  0  0  0  0
  5 17  1  0  0  0  0
  5 55  1  0  0  0  0
  6 21  2  0  0  0  0
  7  8  1  0  0  0  0
  7  9  1  0  0  0  0
  7 11  1  0  0  0  0
  7 31  1  0  0  0  0
  8 10  1  0  0  0  0
  8 13  1  0  0  0  0
  8 32  1  0  0  0  0
  9 12  1  0  0  0  0
  9 33  1  0  0  0  0
  9 34  1  0  0  0  0
 10 35  1  0  0  0  0
 10 36  1  0  0  0  0
 11 17  1  0  0  0  0
 11 37  1  0  0  0  0
 11 38  1  0  0  0  0
 12 39  1  0  0  0  0
 12 40  1  0  0  0  0
 13 21  1  0  0  0  0
 13 41  1  0  0  0  0
 13 42  1  0  0  0  0
 14 15  1  0  0  0  0
 14 16  1  0  0  0  0
 14 43  1  0  0  0  0
 15 18  1  0  0  0  0
 15 45  1  0  0  0  0
 15 46  1  0  0  0  0
 16 19  1  0  0  0  0
 16 47  1  0  0  0  0
 16 48  1  0  0  0  0
 18 20  1  0  0  0  0
 18 49  1  0  0  0  0
 18 50  1  0  0  0  0
 19 20  1  0  0  0  0
 19 51  1  0  0  0  0
 19 52  1  0  0  0  0
 20 53  1  0  0  0  0
 20 54  1  0  0  0  0
 21 22  1  0  0  0  0
 22 23  2  0  0  0  0
 22 56  1  0  0  0  0
 23 24  1  0  0  0  0
 24 57  1  0  0  0  0
 24 58  1  0  0  0  0
 25 26  2  0  0  0  0
 25 27  1  0  0  0  0
 26 28  1  0  0  0  0
 26 59  1  0  0  0  0
 27 29  2  0  0  0  0
 27 60  1  0  0  0  0
 28 30  2  0  0  0  0
 28 61  1  0  0  0  0
 29 30  1  0  0  0  0
 29 62  1  0  0  0  0
 30 63  1  0  0  0  0
M  END
> <PUBCHEM_COMPOUND_CID>
26743094

> <PUBCHEM_CONFORMER_RMSD>
1.4

> <PUBCHEM_CONFORMER_DIVERSEORDER>
1
19
90
7
74
42
102
40
98
51
35
85
2
114
121
72
52
25
107
53
118
79
83
22
34
92
103
115
62
44
69
105
80
66
65
56
86
77
50
117
54
29
63
122
109
12
13
76
89
120
43
8
33
14
15
100
17
4
5
28
32
9
97
45
16
113
81
116
78
75
96
39
94
57
84
70
37
110
48
95
23
46
30
47
106
82
91
20
61
67
104
41
93
18
59
11
68
58
21
64
26
101
55
112
38
10
27
73
111
119
60
49
108
3
99
31
88
87
36
71
24
6

> <PUBCHEM_MMFF94_PARTIAL_CHARGES>
30
1 -0.33
10 0.27
11 0.06
12 0.27
13 0.18
14 0.3
17 0.57
2 -0.57
21 0.11
22 -0.15
23 -0.04
24 0.41
25 0.1
26 -0.15
27 -0.15
28 -0.15
29 -0.15
3 -0.02
30 -0.15
4 -0.9
44 0.36
5 -0.73
55 0.37
56 0.15
59 0.15
6 -0.41
60 0.15
61 0.15
62 0.15
63 0.15

> <PUBCHEM_EFFECTIVE_ROTOR_COUNT>
11.4

> <PUBCHEM_PHARMACOPHORE_FEATURES>
9
1 2 acceptor
1 4 cation
1 4 donor
1 5 donor
1 6 acceptor
5 3 6 21 22 23 rings
6 14 15 16 18 19 20 rings
6 25 26 27 28 29 30 rings
6 4 7 8 9 10 12 rings

> <PUBCHEM_HEAVY_ATOM_COUNT>
30

> <PUBCHEM_ATOM_DEF_STEREO_COUNT>
2

> <PUBCHEM_ATOM_UDEF_STEREO_COUNT>
0

> <PUBCHEM_BOND_DEF_STEREO_COUNT>
0

> <PUBCHEM_BOND_UDEF_STEREO_COUNT>
0

> <PUBCHEM_ISOTOPIC_ATOM_COUNT>
0

> <PUBCHEM_COMPONENT_COUNT>
1

> <PUBCHEM_CACTVS_TAUTO_COUNT>
2

> <PUBCHEM_CONFORMER_ID>
0198113600000001

> <PUBCHEM_MMFF94_ENERGY>
38.5198

> <PUBCHEM_FEATURE_SELFOVERLAP>
45.672

> <PUBCHEM_SHAPE_FINGERPRINT>
12166972 35 17967255269705124404
13533116 47 18342737412638375372
13782708 43 17749389282417843049
146900 427 18131350808402348922
14840074 17 17917711314043088493
14856354 85 16630520765731277239
15183329 4 14908180867316170705
15352257 5 18408324410510835043
15510800 12 17895482552780732259
15721738 202 17988928834179478994
16110190 28 18201720656909133607
16112460 7 18202847673296755647
18608769 82 18411980295716785838
190975 80 18410015476806585427
19377110 9 18060704978788914425
21623969 137 18409448106851385385
21781051 124 18408609171617821602
22149856 69 18341342132298013699
25222932 49 17822280323222888626
392239 28 18412540994479908378
397830 11 18334577962259679431
4093350 32 16988575597270790158
484989 97 18409735024195634574
4918855 1 16702304550681312337
5104073 3 18341615850437401521

> <PUBCHEM_SHAPE_MULTIPOLES>
594.55
19.09
3.39
1.64
13.24
0.17
0.41
4.67
6.02
-3.28
0.14
1.47
-0.12
1.96

> <PUBCHEM_SHAPE_SELFOVERLAP>
1227.997

> <PUBCHEM_SHAPE_VOLUME>
341.1

> <PUBCHEM_COORDINATE_TYPE>
2
5
10

$$$$
