51137142
  -OEChem-12032416203D

 49 52  0     1  0  0  0  0  0999 V2000
   -5.5326    1.0989    0.2841 S   0  0  0  0  0  0  0  0  0  0  0  0
    7.3400    1.3246    0.7049 O   0  0  0  0  0  0  0  0  0  0  0  0
   -0.6337   -2.0519    0.5161 O   0  0  0  0  0  0  0  0  0  0  0  0
   -6.4614    0.6751    1.3215 O   0  0  0  0  0  0  0  0  0  0  0  0
   -5.1124    2.4900    0.2109 O   0  0  0  0  0  0  0  0  0  0  0  0
    3.7703   -0.5999   -0.3816 N   0  0  1  0  0  0  0  0  0  0  0  0
   -0.4481   -0.0050   -0.4391 N   0  0  0  0  0  0  0  0  0  0  0  0
    4.7037    0.4861   -0.0922 C   0  0  0  0  0  0  0  0  0  0  0  0
    1.6071   -1.4980   -0.2651 C   0  0  2  0  0  0  0  0  0  0  0  0
    2.5679   -0.5400    0.4522 C   0  0  0  0  0  0  0  0  0  0  0  0
    3.2772   -0.5587   -1.7582 C   0  0  0  0  0  0  0  0  0  0  0  0
    2.0955   -1.5193   -1.7241 C   0  0  0  0  0  0  0  0  0  0  0  0
    5.1896    0.3988    1.3573 C   0  0  0  0  0  0  0  0  0  0  0  0
    5.8998    0.4545   -1.0488 C   0  0  0  0  0  0  0  0  0  0  0  0
    0.1550   -1.1191   -0.0871 C   0  0  0  0  0  0  0  0  0  0  0  0
    6.2554    1.4562    1.6239 C   0  0  0  0  0  0  0  0  0  0  0  0
    6.9261    1.5088   -0.6489 C   0  0  0  0  0  0  0  0  0  0  0  0
   -1.7466   -0.2084   -0.0390 C   0  0  0  0  0  0  0  0  0  0  0  0
   -1.8641   -1.4604    0.5462 C   0  0  0  0  0  0  0  0  0  0  0  0
   -2.8843    0.6063   -0.1304 C   0  0  0  0  0  0  0  0  0  0  0  0
   -3.0425   -1.9863    1.0612 C   0  0  0  0  0  0  0  0  0  0  0  0
   -4.0929    0.1097    0.3789 C   0  0  0  0  0  0  0  0  0  0  0  0
   -4.1679   -1.1611    0.9623 C   0  0  0  0  0  0  0  0  0  0  0  0
   -6.2628    0.6630   -1.2771 C   0  0  0  0  0  0  0  0  0  0  0  0
   -7.5383    1.4360   -1.5278 C   0  0  0  0  0  0  0  0  0  0  0  0
    4.1982    1.4545   -0.2226 H   0  0  0  0  0  0  0  0  0  0  0  0
    1.7486   -2.5081    0.1454 H   0  0  0  0  0  0  0  0  0  0  0  0
    2.7478   -0.8888    1.4747 H   0  0  0  0  0  0  0  0  0  0  0  0
    2.1547    0.4763    0.4990 H   0  0  0  0  0  0  0  0  0  0  0  0
    4.0162   -0.9005   -2.4894 H   0  0  0  0  0  0  0  0  0  0  0  0
    2.9321    0.4441   -2.0410 H   0  0  0  0  0  0  0  0  0  0  0  0
    2.4257   -2.5334   -1.9820 H   0  0  0  0  0  0  0  0  0  0  0  0
    1.3241   -1.2276   -2.4447 H   0  0  0  0  0  0  0  0  0  0  0  0
    4.3735    0.5454    2.0726 H   0  0  0  0  0  0  0  0  0  0  0  0
    5.6218   -0.5938    1.5405 H   0  0  0  0  0  0  0  0  0  0  0  0
    6.3743   -0.5348   -1.0106 H   0  0  0  0  0  0  0  0  0  0  0  0
    5.6007    0.6435   -2.0852 H   0  0  0  0  0  0  0  0  0  0  0  0
    6.6583    1.3319    2.6341 H   0  0  0  0  0  0  0  0  0  0  0  0
    5.8400    2.4685    1.5554 H   0  0  0  0  0  0  0  0  0  0  0  0
    6.5273    2.5225   -0.7738 H   0  0  0  0  0  0  0  0  0  0  0  0
    7.8143    1.4228   -1.2830 H   0  0  0  0  0  0  0  0  0  0  0  0
   -2.8145    1.5860   -0.5907 H   0  0  0  0  0  0  0  0  0  0  0  0
   -3.0899   -2.9711    1.5089 H   0  0  0  0  0  0  0  0  0  0  0  0
   -5.1122   -1.5389    1.3476 H   0  0  0  0  0  0  0  0  0  0  0  0
   -6.4668   -0.4118   -1.2616 H   0  0  0  0  0  0  0  0  0  0  0  0
   -5.5286    0.8771   -2.0595 H   0  0  0  0  0  0  0  0  0  0  0  0
   -7.9695    1.1554   -2.4937 H   0  0  0  0  0  0  0  0  0  0  0  0
   -7.3519    2.5147   -1.5390 H   0  0  0  0  0  0  0  0  0  0  0  0
   -8.2834    1.2344   -0.7516 H   0  0  0  0  0  0  0  0  0  0  0  0
  1  4  2  0  0  0  0
  1  5  2  0  0  0  0
  1 22  1  0  0  0  0
  1 24  1  0  0  0  0
  2 16  1  0  0  0  0
  2 17  1  0  0  0  0
  3 15  1  0  0  0  0
  3 19  1  0  0  0  0
  6  8  1  0  0  0  0
  6 10  1  0  0  0  0
  6 11  1  0  0  0  0
  7 15  2  0  0  0  0
  7 18  1  0  0  0  0
  8 13  1  0  0  0  0
  8 14  1  0  0  0  0
  8 26  1  0  0  0  0
  9 10  1  0  0  0  0
  9 12  1  0  0  0  0
  9 15  1  0  0  0  0
  9 27  1  0  0  0  0
 10 28  1  0  0  0  0
 10 29  1  0  0  0  0
 11 12  1  0  0  0  0
 11 30  1  0  0  0  0
 11 31  1  0  0  0  0
 12 32  1  0  0  0  0
 12 33  1  0  0  0  0
 13 16  1  0  0  0  0
 13 34  1  0  0  0  0
 13 35  1  0  0  0  0
 14 17  1  0  0  0  0
 14 36  1  0  0  0  0
 14 37  1  0  0  0  0
 16 38  1  0  0  0  0
 16 39  1  0  0  0  0
 17 40  1  0  0  0  0
 17 41  1  0  0  0  0
 18 19  2  0  0  0  0
 18 20  1  0  0  0  0
 19 21  1  0  0  0  0
 20 22  2  0  0  0  0
 20 42  1  0  0  0  0
 21 23  2  0  0  0  0
 21 43  1  0  0  0  0
 22 23  1  0  0  0  0
 23 44  1  0  0  0  0
 24 25  1  0  0  0  0
 24 45  1  0  0  0  0
 24 46  1  0  0  0  0
 25 47  1  0  0  0  0
 25 48  1  0  0  0  0
 25 49  1  0  0  0  0
M  END
> <PUBCHEM_COMPOUND_CID>
51137142

> <PUBCHEM_CONFORMER_RMSD>
0.8

> <PUBCHEM_CONFORMER_DIVERSEORDER>
1
57
42
54
26
43
50
27
34
5
37
56
21
2
64
53
30
32
15
20
65
39
3
49
23
28
59
12
46
40
8
4
55
18
63
14
44
10
52
22
31
41
61
19
62
29
58
38
51
25
11
33
16
35
48
7
13
45
9
6
36
60
17
47
24

> <PUBCHEM_MMFF94_PARTIAL_CHARGES>
24
1 1.2
10 0.27
11 0.27
15 0.3
16 0.28
17 0.28
18 0.23
19 0.14
2 -0.56
20 -0.15
21 -0.15
22 -0.01
23 -0.15
24 0.11
3 -0.28
4 -0.65
42 0.15
43 0.15
44 0.15
5 -0.65
6 -0.81
7 -0.57
8 0.27
9 0.18

> <PUBCHEM_EFFECTIVE_ROTOR_COUNT>
6.2

> <PUBCHEM_PHARMACOPHORE_FEATURES>
8
1 2 acceptor
1 4 acceptor
1 5 acceptor
1 6 cation
5 3 7 15 18 19 rings
5 6 9 10 11 12 rings
6 18 19 20 21 22 23 rings
6 2 8 13 14 16 17 rings

> <PUBCHEM_HEAVY_ATOM_COUNT>
25

> <PUBCHEM_ATOM_DEF_STEREO_COUNT>
1

> <PUBCHEM_ATOM_UDEF_STEREO_COUNT>
0

> <PUBCHEM_BOND_DEF_STEREO_COUNT>
0

> <PUBCHEM_BOND_UDEF_STEREO_COUNT>
0

> <PUBCHEM_ISOTOPIC_ATOM_COUNT>
0

> <PUBCHEM_COMPONENT_COUNT>
1

> <PUBCHEM_CACTVS_TAUTO_COUNT>
1

> <PUBCHEM_CONFORMER_ID>
030C4A7600000001

> <PUBCHEM_MMFF94_ENERGY>
32.6734

> <PUBCHEM_FEATURE_SELFOVERLAP>
40.733

> <PUBCHEM_SHAPE_FINGERPRINT>
10 15 17458348545750028845
10554248 39 17560810888061038518
10693767 8 14691748532630163068
10763959 59 18201723990046406624
11393246 34 10809635839594203321
12166972 35 12895348915064593218
12236239 1 16805323318410533594
12596602 18 17386005122255776504
12616971 3 15936416662216489966
12778500 126 16950557779823339660
13288520 33 10159700179535081987
13402501 40 18272368681103293296
13533116 47 18338517413896729098
13668630 136 12823296792693537428
13673619 4 8862943874696201950
13685833 64 11386364850995586246
14123256 34 10231753400953112317
14251764 18 17022905678720688695
14528608 73 16558750109267131546
14556957 393 15267073561365678921
14681490 219 16988844960234310040
14739800 52 18337663123062000936
14767858 380 14980238452674252782
15003188 100 17203320152672266312
15142383 8 15791725291524388388
15238133 3 17894639184037339244
15352257 5 8358261449141058440
15461852 350 18411135883260359367
16079462 125 18343303664899206442
17980427 23 17968098680627693046
18335252 114 17775846818449624816
195137 95 16878492442075351029
2026 5 9582979960053364740
20281389 69 18334860502187670128
20511986 3 18113889451736979811
20554085 129 18335969918010239043
20567600 254 18272087214816373382
21033648 29 18201711912624354608
21150785 3 16415757535616955029
21424621 283 18340213973381032145
21521239 73 14620803704388664268
21859007 373 16734376102436680175
221357 26 16200157586693305920
23081809 10 14333140654314018766
23516275 100 17416666116188256344
23559900 14 18191043234587639950
246663 6 10807932691465634949
24771293 8 18410856543083120949
249057 25 16443639011846851463
2748736 6 18335700524782098525
2838139 119 18202274788788040320
2916195 48 18342459252732754698
300161 21 18186519891200863251
3103668 31 16914515925545017951
312425 54 14345800456580978809
34797466 226 17418097594347748789
3663271 9 17168426073217388728
439807 62 11023836071423785988
44249763 50 18059843004501000692
465052 167 11314313845463948882
5104073 3 18041003907867757819
5283384 27 18272363200719430128
543368 44 18272934891458761201
5718773 13 10953752135365355137
59682541 52 15625953019354717988
5969126 39 18196652015906647863
636775 72 18412825798062068192
7226269 152 18187366523786318569
8863177 126 7853561392850393416
999808 66 7853576815808882857

> <PUBCHEM_SHAPE_MULTIPOLES>
484.9
21.15
1.98
1.49
3.22
0.07
0.24
-15.89
-0.13
-1.17
-0.17
0.58
-0.06
1.98

> <PUBCHEM_SHAPE_SELFOVERLAP>
1025.754

> <PUBCHEM_SHAPE_VOLUME>
274.1

> <PUBCHEM_COORDINATE_TYPE>
2
5
10

$$$$
