25314818
  -OEChem-12032416383D

 69 73  0     1  0  0  0  0  0999 V2000
    1.4025   -2.7389   -1.6289 O   0  0  0  0  0  0  0  0  0  0  0  0
    1.5567   -4.6452   -0.3163 O   0  0  0  0  0  0  0  0  0  0  0  0
    2.4256   -3.2016    2.0209 O   0  0  0  0  0  0  0  0  0  0  0  0
    4.4089    0.2747    1.1748 O   0  0  0  0  0  0  0  0  0  0  0  0
   -5.1870   -1.0514   -0.7121 O   0  0  0  0  0  0  0  0  0  0  0  0
   -0.3099   -1.5088    0.3204 N   0  0  0  0  0  0  0  0  0  0  0  0
    2.8915   -0.5355   -0.3817 N   0  0  0  0  0  0  0  0  0  0  0  0
   -2.7478   -0.0232    0.2240 N   0  0  0  0  0  0  0  0  0  0  0  0
    3.4022    1.7019   -0.3550 N   0  0  0  0  0  0  0  0  0  0  0  0
    0.5424   -2.6603    0.6226 C   0  0  2  0  0  0  0  0  0  0  0  0
    1.9141   -2.1832    1.1510 C   0  0  2  0  0  0  0  0  0  0  0  0
    2.9466   -1.9210    0.0326 C   0  0  1  0  0  0  0  0  0  0  0  0
    2.7615   -2.8403   -1.1924 C   0  0  1  0  0  0  0  0  0  0  0  0
    0.7200   -3.5225   -0.6407 C   0  0  1  0  0  0  0  0  0  0  0  0
    2.8395   -4.3215   -0.8741 C   0  0  0  0  0  0  0  0  0  0  0  0
   -0.8998   -0.9677    1.5510 C   0  0  0  0  0  0  0  0  0  0  0  0
   -1.3731   -1.8874   -0.6186 C   0  0  0  0  0  0  0  0  0  0  0  0
   -1.7487    0.2713    1.2558 C   0  0  0  0  0  0  0  0  0  0  0  0
   -2.2366   -0.6786   -0.9865 C   0  0  0  0  0  0  0  0  0  0  0  0
    3.6393    0.4626    0.2335 C   0  0  0  0  0  0  0  0  0  0  0  0
    4.0446    2.9214    0.0821 C   0  0  0  0  0  0  0  0  0  0  0  0
    4.2609    3.8815   -1.0926 C   0  0  0  0  0  0  0  0  0  0  0  0
    3.2484    3.5909    1.2073 C   0  0  0  0  0  0  0  0  0  0  0  0
   -3.8810    0.7886    0.1033 C   0  0  0  0  0  0  0  0  0  0  0  0
    2.9555    4.5053   -1.5861 C   0  0  0  0  0  0  0  0  0  0  0  0
    1.9446    4.2152    0.7099 C   0  0  0  0  0  0  0  0  0  0  0  0
    2.1868    5.1748   -0.4510 C   0  0  0  0  0  0  0  0  0  0  0  0
   -5.0858    0.2618   -0.3622 C   0  0  0  0  0  0  0  0  0  0  0  0
   -3.7987    2.1360    0.4551 C   0  0  0  0  0  0  0  0  0  0  0  0
   -6.2082    1.0822   -0.4761 C   0  0  0  0  0  0  0  0  0  0  0  0
   -4.9212    2.9564    0.3415 C   0  0  0  0  0  0  0  0  0  0  0  0
   -6.1259    2.4296   -0.1243 C   0  0  0  0  0  0  0  0  0  0  0  0
   -5.5676   -1.9671    0.3128 C   0  0  0  0  0  0  0  0  0  0  0  0
    0.0712   -3.3032    1.3805 H   0  0  0  0  0  0  0  0  0  0  0  0
    1.8189   -1.2996    1.7900 H   0  0  0  0  0  0  0  0  0  0  0  0
    3.9554   -2.0990    0.4271 H   0  0  0  0  0  0  0  0  0  0  0  0
    3.4403   -2.5577   -2.0035 H   0  0  0  0  0  0  0  0  0  0  0  0
   -0.1982   -3.9566   -1.0439 H   0  0  0  0  0  0  0  0  0  0  0  0
    2.9494   -4.9133   -1.7893 H   0  0  0  0  0  0  0  0  0  0  0  0
    3.6409   -4.5883   -0.1799 H   0  0  0  0  0  0  0  0  0  0  0  0
   -0.1316   -0.6734    2.2731 H   0  0  0  0  0  0  0  0  0  0  0  0
   -1.5281   -1.7241    2.0417 H   0  0  0  0  0  0  0  0  0  0  0  0
   -2.0104   -2.6795   -0.2029 H   0  0  0  0  0  0  0  0  0  0  0  0
   -0.9949   -2.2113   -1.5919 H   0  0  0  0  0  0  0  0  0  0  0  0
    2.2242   -0.2707   -1.1000 H   0  0  0  0  0  0  0  0  0  0  0  0
   -2.2350    0.5793    2.1899 H   0  0  0  0  0  0  0  0  0  0  0  0
   -1.0971    1.0901    0.9239 H   0  0  0  0  0  0  0  0  0  0  0  0
   -1.6361    0.0481   -1.5506 H   0  0  0  0  0  0  0  0  0  0  0  0
   -3.0280   -1.0139   -1.6633 H   0  0  0  0  0  0  0  0  0  0  0  0
    3.2585   -2.8730    2.4001 H   0  0  0  0  0  0  0  0  0  0  0  0
    5.0282    2.6438    0.4809 H   0  0  0  0  0  0  0  0  0  0  0  0
    4.7520    3.3615   -1.9239 H   0  0  0  0  0  0  0  0  0  0  0  0
    4.9377    4.6854   -0.7759 H   0  0  0  0  0  0  0  0  0  0  0  0
    3.8650    4.3785    1.6592 H   0  0  0  0  0  0  0  0  0  0  0  0
    3.0244    2.8698    2.0026 H   0  0  0  0  0  0  0  0  0  0  0  0
    2.6920    1.7563   -1.0784 H   0  0  0  0  0  0  0  0  0  0  0  0
    2.3258    3.7398   -2.0545 H   0  0  0  0  0  0  0  0  0  0  0  0
    3.1772    5.2461   -2.3630 H   0  0  0  0  0  0  0  0  0  0  0  0
    1.4576    4.7505    1.5329 H   0  0  0  0  0  0  0  0  0  0  0  0
    1.2529    3.4247    0.3936 H   0  0  0  0  0  0  0  0  0  0  0  0
    2.7514    6.0444   -0.0924 H   0  0  0  0  0  0  0  0  0  0  0  0
    1.2279    5.5501   -0.8258 H   0  0  0  0  0  0  0  0  0  0  0  0
   -2.8748    2.5861    0.8067 H   0  0  0  0  0  0  0  0  0  0  0  0
   -7.1498    0.6791   -0.8391 H   0  0  0  0  0  0  0  0  0  0  0  0
   -4.8566    4.0063    0.6119 H   0  0  0  0  0  0  0  0  0  0  0  0
   -6.9994    3.0686   -0.2139 H   0  0  0  0  0  0  0  0  0  0  0  0
   -5.5888   -2.9722   -0.1172 H   0  0  0  0  0  0  0  0  0  0  0  0
   -6.5667   -1.7264    0.6898 H   0  0  0  0  0  0  0  0  0  0  0  0
   -4.8431   -1.9538    1.1331 H   0  0  0  0  0  0  0  0  0  0  0  0
  1 13  1  0  0  0  0
  1 14  1  0  0  0  0
  2 14  1  0  0  0  0
  2 15  1  0  0  0  0
  3 11  1  0  0  0  0
  3 50  1  0  0  0  0
  4 20  2  0  0  0  0
  5 28  1  0  0  0  0
  5 33  1  0  0  0  0
  6 10  1  0  0  0  0
  6 16  1  0  0  0  0
  6 17  1  0  0  0  0
  7 12  1  0  0  0  0
  7 20  1  0  0  0  0
  7 45  1  0  0  0  0
  8 18  1  0  0  0  0
  8 19  1  0  0  0  0
  8 24  1  0  0  0  0
  9 20  1  0  0  0  0
  9 21  1  0  0  0  0
  9 56  1  0  0  0  0
 10 11  1  0  0  0  0
 10 14  1  0  0  0  0
 10 34  1  0  0  0  0
 11 12  1  0  0  0  0
 11 35  1  0  0  0  0
 12 13  1  0  0  0  0
 12 36  1  0  0  0  0
 13 15  1  0  0  0  0
 13 37  1  0  0  0  0
 14 38  1  0  0  0  0
 15 39  1  0  0  0  0
 15 40  1  0  0  0  0
 16 18  1  0  0  0  0
 16 41  1  0  0  0  0
 16 42  1  0  0  0  0
 17 19  1  0  0  0  0
 17 43  1  0  0  0  0
 17 44  1  0  0  0  0
 18 46  1  0  0  0  0
 18 47  1  0  0  0  0
 19 48  1  0  0  0  0
 19 49  1  0  0  0  0
 21 22  1  0  0  0  0
 21 23  1  0  0  0  0
 21 51  1  0  0  0  0
 22 25  1  0  0  0  0
 22 52  1  0  0  0  0
 22 53  1  0  0  0  0
 23 26  1  0  0  0  0
 23 54  1  0  0  0  0
 23 55  1  0  0  0  0
 24 28  1  0  0  0  0
 24 29  2  0  0  0  0
 25 27  1  0  0  0  0
 25 57  1  0  0  0  0
 25 58  1  0  0  0  0
 26 27  1  0  0  0  0
 26 59  1  0  0  0  0
 26 60  1  0  0  0  0
 27 61  1  0  0  0  0
 27 62  1  0  0  0  0
 28 30  2  0  0  0  0
 29 31  1  0  0  0  0
 29 63  1  0  0  0  0
 30 32  1  0  0  0  0
 30 64  1  0  0  0  0
 31 32  2  0  0  0  0
 31 65  1  0  0  0  0
 32 66  1  0  0  0  0
 33 67  1  0  0  0  0
 33 68  1  0  0  0  0
 33 69  1  0  0  0  0
M  END
> <PUBCHEM_COMPOUND_CID>
25314818

> <PUBCHEM_CONFORMER_RMSD>
1.4

> <PUBCHEM_CONFORMER_DIVERSEORDER>
1
12
7
35
23
22
30
6
32
20
37
29
14
2
31
24
15
19
28
17
36
16
26
13
27
11
34
18
3
5
33
9
25
10
8
21
4

> <PUBCHEM_MMFF94_PARTIAL_CHARGES>
35
1 -0.56
10 0.27
11 0.28
12 0.3
13 0.28
14 0.56
15 0.28
16 0.27
17 0.27
18 0.37
19 0.37
2 -0.56
20 0.69
21 0.3
24 0.1
28 0.08
29 -0.15
3 -0.68
30 -0.15
31 -0.15
32 -0.15
33 0.28
4 -0.57
45 0.37
5 -0.36
50 0.4
56 0.37
6 -0.81
63 0.15
64 0.15
65 0.15
66 0.15
7 -0.73
8 -0.84
9 -0.73

> <PUBCHEM_EFFECTIVE_ROTOR_COUNT>
10.6

> <PUBCHEM_PHARMACOPHORE_FEATURES>
14
1 1 acceptor
1 2 acceptor
1 3 acceptor
1 3 donor
1 4 acceptor
1 5 acceptor
1 6 cation
1 7 donor
1 8 cation
1 9 donor
6 21 22 23 25 26 27 rings
6 24 28 29 30 31 32 rings
6 6 8 16 17 18 19 rings
8 1 2 10 11 12 13 14 15 rings

> <PUBCHEM_HEAVY_ATOM_COUNT>
33

> <PUBCHEM_ATOM_DEF_STEREO_COUNT>
5

> <PUBCHEM_ATOM_UDEF_STEREO_COUNT>
0

> <PUBCHEM_BOND_DEF_STEREO_COUNT>
0

> <PUBCHEM_BOND_UDEF_STEREO_COUNT>
0

> <PUBCHEM_ISOTOPIC_ATOM_COUNT>
0

> <PUBCHEM_COMPONENT_COUNT>
1

> <PUBCHEM_CACTVS_TAUTO_COUNT>
3

> <PUBCHEM_CONFORMER_ID>
0182460200000001

> <PUBCHEM_MMFF94_ENERGY>
105.14

> <PUBCHEM_FEATURE_SELFOVERLAP>
71.151

> <PUBCHEM_SHAPE_FINGERPRINT>
10439779 11 18124017191048761208
10483366 6 18339097999612940300
10675989 125 18413392025012388936
10937287 8 18267303325417375324
11059048 146 18049732011753264036
11059845 2 17908678955698882696
12107183 9 18191570051951546544
13590594 115 17762349015389354546
1361 2 18338796831262130701
13761468 95 17183668757485558340
13944108 23 18263369096757295316
14068700 686 18265059214001286171
14117953 113 18411979144576230668
14790565 3 18195526128293083775
14849402 71 18261109656470401618
15082195 135 18269537413361035869
15320467 1 17474668833154714077
15400415 2 18195528310143057089
15979999 66 18197224646531446350
16988056 13 18267308638534715356
16991981 162 17472424729832564209
17844677 252 18198065773031838579
18681886 176 18270676442340136050
21860390 5 18341053999879355628
23559900 14 18055351328162708663
245318 6 17969512695393795661
3103668 31 16969995761879397702
3298306 158 18269556207505362137
3493558 16 18341055116808872329
376196 1 18262236737050184722
550186 72 17905608053912754663
6371009 1 18195788864211567364
6608658 132 17620219541028721230
9981440 41 18193279813247652817

> <PUBCHEM_SHAPE_MULTIPOLES>
629.85
12.46
7.74
1.34
19.01
3
-0.16
9.75
1.16
-10.66
1.56
-0.96
-0.25
-0.51

> <PUBCHEM_SHAPE_SELFOVERLAP>
1337.181

> <PUBCHEM_SHAPE_VOLUME>
346.3

> <PUBCHEM_COORDINATE_TYPE>
2
5
10

$$$$
