56775704
  -OEChem-12032416213D

 40 43  0     0  0  0  0  0  0999 V2000
   -1.9685    3.3953   -1.1358 O   0  0  0  0  0  0  0  0  0  0  0  0
    1.7275   -1.1084    0.7242 O   0  0  0  0  0  0  0  0  0  0  0  0
   -3.8363   -1.9716   -0.5831 O   0  0  0  0  0  0  0  0  0  0  0  0
   -2.2250    0.4775   -0.3784 N   0  0  0  0  0  0  0  0  0  0  0  0
    0.4576   -0.6764    1.0872 N   0  0  0  0  0  0  0  0  0  0  0  0
    4.1620   -1.6386    0.0108 N   0  0  0  0  0  0  0  0  0  0  0  0
   -1.5486    1.6862    0.0718 C   0  0  0  0  0  0  0  0  0  0  0  0
   -2.5471    2.8383    0.0663 C   0  0  0  0  0  0  0  0  0  0  0  0
   -0.9348    2.3844   -1.1362 C   0  0  0  0  0  0  0  0  0  0  0  0
   -0.6842    1.4582    1.3189 C   0  0  0  0  0  0  0  0  0  0  0  0
    0.5075    0.6558    0.9998 C   0  0  0  0  0  0  0  0  0  0  0  0
   -3.0299   -0.0730    0.7095 C   0  0  0  0  0  0  0  0  0  0  0  0
    1.7708    1.1168    0.5906 C   0  0  0  0  0  0  0  0  0  0  0  0
   -4.1714   -0.9090    0.1950 C   0  0  0  0  0  0  0  0  0  0  0  0
    2.5003   -0.0315    0.4309 C   0  0  0  0  0  0  0  0  0  0  0  0
   -5.5365   -0.8315    0.3453 C   0  0  0  0  0  0  0  0  0  0  0  0
    3.8523   -0.3229    0.0332 C   0  0  0  0  0  0  0  0  0  0  0  0
   -6.0748   -1.9163   -0.3872 C   0  0  0  0  0  0  0  0  0  0  0  0
   -5.0002   -2.5793   -0.9333 C   0  0  0  0  0  0  0  0  0  0  0  0
    4.7404    0.6888   -0.2948 C   0  0  0  0  0  0  0  0  0  0  0  0
    6.0294    0.3266   -0.6702 C   0  0  0  0  0  0  0  0  0  0  0  0
    5.4239   -1.9523   -0.3589 C   0  0  0  0  0  0  0  0  0  0  0  0
    6.3857   -1.0170   -0.7055 C   0  0  0  0  0  0  0  0  0  0  0  0
   -2.4563    3.5437    0.8994 H   0  0  0  0  0  0  0  0  0  0  0  0
   -3.6076    2.6085   -0.0811 H   0  0  0  0  0  0  0  0  0  0  0  0
   -0.9130    1.8335   -2.0826 H   0  0  0  0  0  0  0  0  0  0  0  0
    0.0419    2.8536   -0.9827 H   0  0  0  0  0  0  0  0  0  0  0  0
   -1.2437    1.0290    2.1573 H   0  0  0  0  0  0  0  0  0  0  0  0
   -0.3442    2.4353    1.6907 H   0  0  0  0  0  0  0  0  0  0  0  0
   -1.6100   -0.2463   -0.7490 H   0  0  0  0  0  0  0  0  0  0  0  0
   -3.4678    0.7066    1.3457 H   0  0  0  0  0  0  0  0  0  0  0  0
   -2.4189   -0.7140    1.3559 H   0  0  0  0  0  0  0  0  0  0  0  0
    2.0965    2.1355    0.4383 H   0  0  0  0  0  0  0  0  0  0  0  0
   -6.0781   -0.0873    0.9114 H   0  0  0  0  0  0  0  0  0  0  0  0
   -7.1156   -2.1817   -0.5031 H   0  0  0  0  0  0  0  0  0  0  0  0
   -4.9009   -3.4529   -1.5607 H   0  0  0  0  0  0  0  0  0  0  0  0
    4.4654    1.7379   -0.2684 H   0  0  0  0  0  0  0  0  0  0  0  0
    6.7551    1.0898   -0.9348 H   0  0  0  0  0  0  0  0  0  0  0  0
    5.6513   -3.0132   -0.3701 H   0  0  0  0  0  0  0  0  0  0  0  0
    7.3846   -1.3225   -0.9950 H   0  0  0  0  0  0  0  0  0  0  0  0
  1  8  1  0  0  0  0
  1  9  1  0  0  0  0
  2  5  1  0  0  0  0
  2 15  1  0  0  0  0
  3 14  1  0  0  0  0
  3 19  1  0  0  0  0
  4  7  1  0  0  0  0
  4 12  1  0  0  0  0
  4 30  1  0  0  0  0
  5 11  2  0  0  0  0
  6 17  1  0  0  0  0
  6 22  2  0  0  0  0
  7  8  1  0  0  0  0
  7  9  1  0  0  0  0
  7 10  1  0  0  0  0
  8 24  1  0  0  0  0
  8 25  1  0  0  0  0
  9 26  1  0  0  0  0
  9 27  1  0  0  0  0
 10 11  1  0  0  0  0
 10 28  1  0  0  0  0
 10 29  1  0  0  0  0
 11 13  1  0  0  0  0
 12 14  1  0  0  0  0
 12 31  1  0  0  0  0
 12 32  1  0  0  0  0
 13 15  2  0  0  0  0
 13 33  1  0  0  0  0
 14 16  2  0  0  0  0
 15 17  1  0  0  0  0
 16 18  1  0  0  0  0
 16 34  1  0  0  0  0
 17 20  2  0  0  0  0
 18 19  2  0  0  0  0
 18 35  1  0  0  0  0
 19 36  1  0  0  0  0
 20 21  1  0  0  0  0
 20 37  1  0  0  0  0
 21 23  2  0  0  0  0
 21 38  1  0  0  0  0
 22 23  1  0  0  0  0
 22 39  1  0  0  0  0
 23 40  1  0  0  0  0
M  END
> <PUBCHEM_COMPOUND_CID>
56775704

> <PUBCHEM_CONFORMER_RMSD>
1

> <PUBCHEM_CONFORMER_DIVERSEORDER>
2
84
43
12
18
115
39
62
110
107
89
94
68
65
38
45
20
96
42
59
95
106
14
117
47
99
78
93
28
81
104
37
30
22
82
35
72
98
121
67
74
91
13
31
75
114
116
41
44
46
49
108
118
102
8
100
5
125
15
90
51
105
56
83
80
24
19
4
10
16
122
73
77
69
101
64
88
85
36
123
6
58
17
57
29
1
48
87
61
112
26
23
55
103
52
63
120
25
66
27
3
33
32
60
70
40
76
7
53
97
113
9
79
124
50
11
54
21
109
92
71
111
119
86
34

> <PUBCHEM_MMFF94_PARTIAL_CHARGES>
32
1 -0.52
10 0.18
11 0.11
12 0.45
13 -0.15
14 -0.04
15 0.09
16 -0.15
17 0.36
18 -0.15
19 -0.01
2 -0.02
20 -0.15
21 -0.15
22 0.16
23 -0.15
3 -0.28
30 0.36
33 0.15
34 0.15
35 0.15
36 0.15
37 0.15
38 0.15
39 0.15
4 -0.84
40 0.15
5 -0.41
6 -0.62
7 0.21
8 0.26
9 0.26

> <PUBCHEM_EFFECTIVE_ROTOR_COUNT>
6.8

> <PUBCHEM_PHARMACOPHORE_FEATURES>
10
1 1 acceptor
1 3 acceptor
1 4 cation
1 4 donor
1 5 acceptor
1 6 acceptor
4 1 7 8 9 rings
5 2 5 11 13 15 rings
5 3 14 16 18 19 rings
6 6 17 20 21 22 23 rings

> <PUBCHEM_HEAVY_ATOM_COUNT>
23

> <PUBCHEM_ATOM_DEF_STEREO_COUNT>
0

> <PUBCHEM_ATOM_UDEF_STEREO_COUNT>
0

> <PUBCHEM_BOND_DEF_STEREO_COUNT>
0

> <PUBCHEM_BOND_UDEF_STEREO_COUNT>
0

> <PUBCHEM_ISOTOPIC_ATOM_COUNT>
0

> <PUBCHEM_COMPONENT_COUNT>
1

> <PUBCHEM_CACTVS_TAUTO_COUNT>
1

> <PUBCHEM_CONFORMER_ID>
0362541800000002

> <PUBCHEM_MMFF94_ENERGY>
42.8209

> <PUBCHEM_FEATURE_SELFOVERLAP>
50.748

> <PUBCHEM_SHAPE_FINGERPRINT>
10042902 136 18057881536261501031
10291535 26 11530487718298959375
10595046 47 18335143068740156052
10692045 39 9366808276696315332
11089746 13 11458427976967417178
11524674 6 16271927112631772335
117890 112 10737283558895826822
11809386 21 18261948531791234002
12553582 1 18262222418209501083
12592606 108 18270116942284462631
12596602 18 12319732579159493119
12633257 1 15841271575106287815
12760667 363 18059852861941555455
12788726 201 18187919560918070651
13009979 54 18199198450592071753
13103583 49 17059789900545448819
13540713 5 17460863008509900496
13631057 29 18412542093985936674
13668630 136 17775295933043475214
13673619 4 18131071558139466201
13757389 114 18119250567455573557
14251764 30 18201153351521185959
14347332 77 18336541625612959962
14508225 48 18260546753561556933
14556957 393 17458639899040797253
14767858 380 18114471153538123582
15238133 3 10303814315227971090
15250474 111 18189606142904389474
15461852 350 18411707552930866566
16087824 20 18263078813889512629
16994733 274 14346059899171540007
17492 89 18198063573950976614
18643901 69 18271254841211007527
21033648 29 12036025632925879748
21236236 1 18410297973637041305
21267235 1 18339083791592424043
21344244 246 17681280184727428309
21637258 2 17489866059624438867
221357 26 18410293618724747824
22393880 68 18262233297208349392
22950370 63 18271527589003978971
23402539 116 17967537856519259953
23522609 53 18055949633743514409
23559900 14 18271234011057920129
23622692 88 13039189212274399033
2838139 119 12035726548077346391
2871803 45 18261105292335132251
2916195 48 8286208249271080743
3004659 81 18336261327225205811
3117164 225 10375861992181143782
329604 57 18413390930195595614
4325135 7 18411986879711551700
437815 12 17988639714482701689
465052 167 17846222205997411430
497634 4 18201164273322417296
5104073 3 17917424281837373410
6700243 42 17914083961043825260
7237137 82 18335985281029141565
7495541 125 17988923379839953712
7970288 3 18268144434876225023
8217 86 18411701014692948742

> <PUBCHEM_SHAPE_MULTIPOLES>
440.78
15.32
3.03
1.06
7.35
1.31
0.01
-12.55
-3.89
-3.52
-1.05
-0.2
0.3
-0.18

> <PUBCHEM_SHAPE_SELFOVERLAP>
962.573

> <PUBCHEM_SHAPE_VOLUME>
240.8

> <PUBCHEM_COORDINATE_TYPE>
2
5
10

$$$$
