11866319
  -OEChem-12032416113D

 65 67  0     1  0  0  0  0  0999 V2000
    0.1833    4.3324    1.3904 O   0  0  0  0  0  0  0  0  0  0  0  0
    2.0686    4.1223   -1.7376 O   0  0  0  0  0  0  0  0  0  0  0  0
    3.0441    0.3973    2.1064 O   0  0  0  0  0  0  0  0  0  0  0  0
   -2.1297    0.8772   -1.3441 O   0  0  0  0  0  0  0  0  0  0  0  0
    6.1037    0.1877   -1.3145 O   0  0  0  0  0  0  0  0  0  0  0  0
   -1.1022   -4.0375    0.6464 O   0  0  0  0  0  0  0  0  0  0  0  0
   -1.4035    2.3599    0.2743 N   0  0  0  0  0  0  0  0  0  0  0  0
    3.6252    0.0845   -0.1295 N   0  0  0  0  0  0  0  0  0  0  0  0
   -3.4993    1.4429    0.4765 N   0  0  0  0  0  0  0  0  0  0  0  0
    6.9050   -1.1148    0.3995 N   0  0  0  0  0  0  0  0  0  0  0  0
    0.3795    4.0457    0.0040 C   0  0  1  0  0  0  0  0  0  0  0  0
    1.8667    4.2178   -0.3291 C   0  0  1  0  0  0  0  0  0  0  0  0
   -0.1062    2.6160   -0.3021 C   0  0  1  0  0  0  0  0  0  0  0  0
    2.7464    3.1885    0.4011 C   0  0  0  0  0  0  0  0  0  0  0  0
    2.1247    1.8232    0.4812 C   0  0  0  0  0  0  0  0  0  0  0  0
    0.8507    1.5509    0.1611 C   0  0  0  0  0  0  0  0  0  0  0  0
    2.9668    0.7055    0.9176 C   0  0  0  0  0  0  0  0  0  0  0  0
    4.5141   -1.0404    0.0530 C   0  0  1  0  0  0  0  0  0  0  0  0
   -2.3387    1.4915   -0.3008 C   0  0  0  0  0  0  0  0  0  0  0  0
    4.0691   -2.2671   -0.7515 C   0  0  0  0  0  0  0  0  0  0  0  0
    2.6857   -2.7404   -0.3772 C   0  0  0  0  0  0  0  0  0  0  0  0
    5.9000   -0.5922   -0.3870 C   0  0  0  0  0  0  0  0  0  0  0  0
   -4.6719    0.6882    0.2395 C   0  0  0  0  0  0  0  0  0  0  0  0
    1.5876   -2.2287   -1.0506 C   0  0  0  0  0  0  0  0  0  0  0  0
    2.5384   -3.6785    0.6320 C   0  0  0  0  0  0  0  0  0  0  0  0
    0.3091   -2.6666   -0.7054 C   0  0  0  0  0  0  0  0  0  0  0  0
    1.2597   -4.1164    0.9771 C   0  0  0  0  0  0  0  0  0  0  0  0
    0.1451   -3.6104    0.3084 C   0  0  0  0  0  0  0  0  0  0  0  0
   -5.7264    0.7749    1.1337 C   0  0  0  0  0  0  0  0  0  0  0  0
   -4.7420   -0.1223   -0.8819 C   0  0  0  0  0  0  0  0  0  0  0  0
   -6.8829    0.0306    0.9002 C   0  0  0  0  0  0  0  0  0  0  0  0
   -5.8984   -0.8664   -1.1155 C   0  0  0  0  0  0  0  0  0  0  0  0
   -6.9689   -0.7900   -0.2243 C   0  0  0  0  0  0  0  0  0  0  0  0
   -8.2053   -1.5858   -0.4742 C   0  0  0  0  0  0  0  0  0  0  0  0
   -2.1980   -3.4795   -0.0772 C   0  0  0  0  0  0  0  0  0  0  0  0
   -0.2246    4.7610   -0.5661 H   0  0  0  0  0  0  0  0  0  0  0  0
    2.1910    5.2212   -0.0271 H   0  0  0  0  0  0  0  0  0  0  0  0
   -0.1951    2.5053   -1.3907 H   0  0  0  0  0  0  0  0  0  0  0  0
    3.7202    3.1163   -0.0982 H   0  0  0  0  0  0  0  0  0  0  0  0
    2.9293    3.5344    1.4262 H   0  0  0  0  0  0  0  0  0  0  0  0
    0.4845    0.5284    0.2174 H   0  0  0  0  0  0  0  0  0  0  0  0
   -1.6163    2.7657    1.1806 H   0  0  0  0  0  0  0  0  0  0  0  0
    0.6025    3.6335    1.9188 H   0  0  0  0  0  0  0  0  0  0  0  0
    3.0121    4.2811   -1.9110 H   0  0  0  0  0  0  0  0  0  0  0  0
    4.5409   -1.2952    1.1197 H   0  0  0  0  0  0  0  0  0  0  0  0
    3.5077    0.4452   -1.0727 H   0  0  0  0  0  0  0  0  0  0  0  0
    4.7876   -3.0863   -0.6143 H   0  0  0  0  0  0  0  0  0  0  0  0
    4.0946   -2.0448   -1.8275 H   0  0  0  0  0  0  0  0  0  0  0  0
   -3.5101    2.0181    1.3150 H   0  0  0  0  0  0  0  0  0  0  0  0
    1.7044   -1.4946   -1.8428 H   0  0  0  0  0  0  0  0  0  0  0  0
    3.4004   -4.0763    1.1598 H   0  0  0  0  0  0  0  0  0  0  0  0
    6.7225   -1.7553    1.1654 H   0  0  0  0  0  0  0  0  0  0  0  0
    7.8769   -0.8829    0.2235 H   0  0  0  0  0  0  0  0  0  0  0  0
   -0.5125   -2.2312   -1.2639 H   0  0  0  0  0  0  0  0  0  0  0  0
    1.1382   -4.8512    1.7683 H   0  0  0  0  0  0  0  0  0  0  0  0
   -5.6694    1.4106    2.0129 H   0  0  0  0  0  0  0  0  0  0  0  0
   -3.9577   -0.2370   -1.6153 H   0  0  0  0  0  0  0  0  0  0  0  0
   -7.7094    0.0973    1.6028 H   0  0  0  0  0  0  0  0  0  0  0  0
   -5.9537   -1.5047   -1.9936 H   0  0  0  0  0  0  0  0  0  0  0  0
   -8.3768   -1.7223   -1.5475 H   0  0  0  0  0  0  0  0  0  0  0  0
   -8.1194   -2.5706   -0.0044 H   0  0  0  0  0  0  0  0  0  0  0  0
   -9.0892   -1.0804   -0.0707 H   0  0  0  0  0  0  0  0  0  0  0  0
   -2.1517   -3.7377   -1.1406 H   0  0  0  0  0  0  0  0  0  0  0  0
   -3.1127   -3.9298    0.3219 H   0  0  0  0  0  0  0  0  0  0  0  0
   -2.2776   -2.3988    0.0839 H   0  0  0  0  0  0  0  0  0  0  0  0
  1 11  1  0  0  0  0
  1 43  1  0  0  0  0
  2 12  1  0  0  0  0
  2 44  1  0  0  0  0
  3 17  2  0  0  0  0
  4 19  2  0  0  0  0
  5 22  2  0  0  0  0
  6 28  1  0  0  0  0
  6 35  1  0  0  0  0
  7 13  1  0  0  0  0
  7 19  1  0  0  0  0
  7 42  1  0  0  0  0
  8 17  1  0  0  0  0
  8 18  1  0  0  0  0
  8 46  1  0  0  0  0
  9 19  1  0  0  0  0
  9 23  1  0  0  0  0
  9 49  1  0  0  0  0
 10 22  1  0  0  0  0
 10 52  1  0  0  0  0
 10 53  1  0  0  0  0
 11 12  1  0  0  0  0
 11 13  1  0  0  0  0
 11 36  1  0  0  0  0
 12 14  1  0  0  0  0
 12 37  1  0  0  0  0
 13 16  1  0  0  0  0
 13 38  1  0  0  0  0
 14 15  1  0  0  0  0
 14 39  1  0  0  0  0
 14 40  1  0  0  0  0
 15 16  2  0  0  0  0
 15 17  1  0  0  0  0
 16 41  1  0  0  0  0
 18 20  1  0  0  0  0
 18 22  1  0  0  0  0
 18 45  1  0  0  0  0
 20 21  1  0  0  0  0
 20 47  1  0  0  0  0
 20 48  1  0  0  0  0
 21 24  2  0  0  0  0
 21 25  1  0  0  0  0
 23 29  2  0  0  0  0
 23 30  1  0  0  0  0
 24 26  1  0  0  0  0
 24 50  1  0  0  0  0
 25 27  2  0  0  0  0
 25 51  1  0  0  0  0
 26 28  2  0  0  0  0
 26 54  1  0  0  0  0
 27 28  1  0  0  0  0
 27 55  1  0  0  0  0
 29 31  1  0  0  0  0
 29 56  1  0  0  0  0
 30 32  2  0  0  0  0
 30 57  1  0  0  0  0
 31 33  2  0  0  0  0
 31 58  1  0  0  0  0
 32 33  1  0  0  0  0
 32 59  1  0  0  0  0
 33 34  1  0  0  0  0
 34 60  1  0  0  0  0
 34 61  1  0  0  0  0
 34 62  1  0  0  0  0
 35 63  1  0  0  0  0
 35 64  1  0  0  0  0
 35 65  1  0  0  0  0
M  END
> <PUBCHEM_COMPOUND_CID>
11866319

> <PUBCHEM_CONFORMER_RMSD>
1.2

> <PUBCHEM_CONFORMER_DIVERSEORDER>
1
76
145
57
123
24
55
75
62
86
88
130
143
65
35
113
126
9
53
93
115
38
118
107
98
14
52
13
67
139
105
54
16
141
26
80
27
120
94
96
32
44
15
69
134
109
73
49
64
82
135
48
95
114
110
137
4
19
25
63
125
33
50
133
108
36
28
119
40
129
99
147
112
138
97
81
117
60
61
127
79
42
46
11
89
72
70
77
56
91
100
41
34
87
84
131
121
103
71
23
146
30
74
152
58
136
20
116
150
151
59
142
128
90
148
17
83
7
12
78
31
101
5
66
85
8
104
45
43
92
111
29
6
122
140
21
102
68
22
39
47
37
106
144
3
132
2
149
124
10
18
51

> <PUBCHEM_MMFF94_PARTIAL_CHARGES>
51
1 -0.68
10 -0.8
11 0.28
12 0.28
13 0.44
14 0.14
15 -0.12
16 -0.29
17 0.62
18 0.36
19 0.69
2 -0.68
20 0.14
21 -0.14
22 0.57
23 0.12
24 -0.15
25 -0.15
26 -0.15
27 -0.15
28 0.08
29 -0.15
3 -0.57
30 -0.15
31 -0.15
32 -0.15
33 -0.14
34 0.14
35 0.28
4 -0.57
41 0.15
42 0.37
43 0.4
44 0.4
46 0.37
49 0.37
5 -0.57
50 0.15
51 0.15
52 0.37
53 0.37
54 0.15
55 0.15
56 0.15
57 0.15
58 0.15
59 0.15
6 -0.36
7 -0.73
8 -0.73
9 -0.55

> <PUBCHEM_EFFECTIVE_ROTOR_COUNT>
11.8

> <PUBCHEM_PHARMACOPHORE_FEATURES>
15
1 1 acceptor
1 1 donor
1 10 donor
1 2 acceptor
1 2 donor
1 3 acceptor
1 4 acceptor
1 5 acceptor
1 6 acceptor
1 7 donor
1 8 donor
1 9 donor
6 11 12 13 14 15 16 rings
6 21 24 25 26 27 28 rings
6 23 29 30 31 32 33 rings

> <PUBCHEM_HEAVY_ATOM_COUNT>
35

> <PUBCHEM_ATOM_DEF_STEREO_COUNT>
4

> <PUBCHEM_ATOM_UDEF_STEREO_COUNT>
0

> <PUBCHEM_BOND_DEF_STEREO_COUNT>
0

> <PUBCHEM_BOND_UDEF_STEREO_COUNT>
0

> <PUBCHEM_ISOTOPIC_ATOM_COUNT>
0

> <PUBCHEM_COMPONENT_COUNT>
1

> <PUBCHEM_CACTVS_TAUTO_COUNT>
12

> <PUBCHEM_CONFORMER_ID>
00B510CF00000001

> <PUBCHEM_MMFF94_ENERGY>
97.2495

> <PUBCHEM_FEATURE_SELFOVERLAP>
76.185

> <PUBCHEM_SHAPE_FINGERPRINT>
10316853 100 18410293631240663914
1100329 8 18410857706570351998
11513181 2 17767972295748035958
12107183 9 18127704734305637729
13383661 66 17487069855769359902
13402501 40 18410578357439175787
1361 2 18410291449655610873
14068700 675 18202003209479712456
14394314 77 18267591208854849025
14849402 71 18410295826348883847
15320467 1 18410856555804264915
15328829 1 17488721473074365821
15483637 11 17905044003989165819
15538507 32 18411422852049016964
15927050 60 17981325908768245180
16112460 7 18341614883732318609
20028762 73 18272650164548320327
20764821 26 18337677532519341126
21133410 62 18188756272324913663
21133410 90 17131550664750573146
21197605 99 18272368702219420478
3178227 256 18336557070230785121
373842 8 18266461095770036683
392239 28 18194686951581203891
463206 1 18412826910420764807
5309563 4 18339642222591292781
53794403 172 18264491852646940741
5776283 40 18265342875148369548
66674814 147 18412549794793636345
86090 222 18041001752400693627

> <PUBCHEM_SHAPE_MULTIPOLES>
665.14
15.97
6.5
1.2
23.89
1.28
-0.06
-6.03
1.17
-4.78
-0.47
-0.16
0.24
-0.64

> <PUBCHEM_SHAPE_SELFOVERLAP>
1408.39

> <PUBCHEM_SHAPE_VOLUME>
368.6

> <PUBCHEM_COORDINATE_TYPE>
2
5
10

$$$$
