26762945
  -OEChem-12032416283D

 58 61  0     1  0  0  0  0  0999 V2000
   -6.5101    2.2553   -0.3947 S   0  0  0  0  0  0  0  0  0  0  0  0
    2.3006   -2.8126   -2.6984 O   0  0  0  0  0  0  0  0  0  0  0  0
    2.5855    1.9791    2.4514 O   0  0  0  0  0  0  0  0  0  0  0  0
   -3.5116   -1.9755    1.0018 O   0  0  0  0  0  0  0  0  0  0  0  0
    1.2444   -2.2201    0.5162 N   0  0  2  0  0  0  0  0  0  0  0  0
    3.5775   -2.3344   -0.8325 N   0  0  0  0  0  0  0  0  0  0  0  0
   -1.6834   -1.6775   -0.3820 N   0  0  0  0  0  0  0  0  0  0  0  0
    2.7273    2.7919    0.2794 N   0  0  0  0  0  0  0  0  0  0  0  0
   -3.4027   -0.1569   -0.4786 N   0  0  0  0  0  0  0  0  0  0  0  0
    1.3754   -3.2605   -0.5019 C   0  0  1  0  0  0  0  0  0  0  0  0
    2.4279   -2.0812    1.3691 C   0  0  1  0  0  0  0  0  0  0  0  0
   -0.9480   -2.8402    0.0570 C   0  0  1  0  0  0  0  0  0  0  0  0
   -0.0390   -3.3785   -1.0579 C   0  0  0  0  0  0  0  0  0  0  0  0
   -0.0051   -2.5060    1.2139 C   0  0  0  0  0  0  0  0  0  0  0  0
    3.7191   -2.4586    0.6079 C   0  0  0  0  0  0  0  0  0  0  0  0
    2.5081   -0.6340    1.8622 C   0  0  0  0  0  0  0  0  0  0  0  0
    2.4311   -2.7776   -1.4787 C   0  0  0  0  0  0  0  0  0  0  0  0
    2.6054    0.3639    0.7181 C   0  0  0  0  0  0  0  0  0  0  0  0
    2.6386    1.7801    1.2350 C   0  0  0  0  0  0  0  0  0  0  0  0
   -2.9364   -1.3237    0.1334 C   0  0  0  0  0  0  0  0  0  0  0  0
    2.7624    4.1934    0.7028 C   0  0  0  0  0  0  0  0  0  0  0  0
    2.8365    2.5846   -1.1701 C   0  0  0  0  0  0  0  0  0  0  0  0
    1.6780    5.0038   -0.0023 C   0  0  0  0  0  0  0  0  0  0  0  0
    1.7539    3.3656   -1.9122 C   0  0  0  0  0  0  0  0  0  0  0  0
    1.7654    4.8419   -1.5189 C   0  0  0  0  0  0  0  0  0  0  0  0
   -4.6198    0.5224   -0.2385 C   0  0  0  0  0  0  0  0  0  0  0  0
   -5.6086    0.1147    0.7029 C   0  0  0  0  0  0  0  0  0  0  0  0
   -4.9830    1.6722   -0.9048 C   0  0  0  0  0  0  0  0  0  0  0  0
   -6.6894    0.9684    0.7206 C   0  0  0  0  0  0  0  0  0  0  0  0
    1.6869   -4.2227   -0.0734 H   0  0  0  0  0  0  0  0  0  0  0  0
    2.3635   -2.7383    2.2466 H   0  0  0  0  0  0  0  0  0  0  0  0
   -1.6682   -3.6060    0.3672 H   0  0  0  0  0  0  0  0  0  0  0  0
   -0.1747   -2.8307   -1.9976 H   0  0  0  0  0  0  0  0  0  0  0  0
   -0.2718   -4.4307   -1.2598 H   0  0  0  0  0  0  0  0  0  0  0  0
   -0.3530   -1.6583    1.8128 H   0  0  0  0  0  0  0  0  0  0  0  0
    0.1035   -3.3798    1.8688 H   0  0  0  0  0  0  0  0  0  0  0  0
    4.5859   -1.8678    0.9212 H   0  0  0  0  0  0  0  0  0  0  0  0
    3.9545   -3.5135    0.7950 H   0  0  0  0  0  0  0  0  0  0  0  0
    3.3770   -0.5262    2.5251 H   0  0  0  0  0  0  0  0  0  0  0  0
    1.6303   -0.4086    2.4823 H   0  0  0  0  0  0  0  0  0  0  0  0
    4.3666   -2.0154   -1.3860 H   0  0  0  0  0  0  0  0  0  0  0  0
   -1.2364   -1.0395   -1.0336 H   0  0  0  0  0  0  0  0  0  0  0  0
    3.5253    0.2010    0.1483 H   0  0  0  0  0  0  0  0  0  0  0  0
    1.7417    0.2731    0.0510 H   0  0  0  0  0  0  0  0  0  0  0  0
    3.7562    4.5849    0.4550 H   0  0  0  0  0  0  0  0  0  0  0  0
    2.6389    4.2769    1.7872 H   0  0  0  0  0  0  0  0  0  0  0  0
    2.7714    1.5306   -1.4445 H   0  0  0  0  0  0  0  0  0  0  0  0
    3.8313    2.9345   -1.4709 H   0  0  0  0  0  0  0  0  0  0  0  0
    1.7692    6.0620    0.2658 H   0  0  0  0  0  0  0  0  0  0  0  0
    0.6915    4.6655    0.3385 H   0  0  0  0  0  0  0  0  0  0  0  0
    0.7714    2.9383   -1.6755 H   0  0  0  0  0  0  0  0  0  0  0  0
    1.8988    3.2676   -2.9936 H   0  0  0  0  0  0  0  0  0  0  0  0
    0.9276    5.3610   -1.9975 H   0  0  0  0  0  0  0  0  0  0  0  0
    2.6870    5.3110   -1.8847 H   0  0  0  0  0  0  0  0  0  0  0  0
   -2.8097    0.2697   -1.1859 H   0  0  0  0  0  0  0  0  0  0  0  0
   -5.5622   -0.7514    1.3481 H   0  0  0  0  0  0  0  0  0  0  0  0
   -4.4292    2.2023   -1.6675 H   0  0  0  0  0  0  0  0  0  0  0  0
   -7.5760    0.8981    1.3350 H   0  0  0  0  0  0  0  0  0  0  0  0
  1 28  1  0  0  0  0
  1 29  1  0  0  0  0
  2 17  2  0  0  0  0
  3 19  2  0  0  0  0
  4 20  2  0  0  0  0
  5 10  1  0  0  0  0
  5 11  1  0  0  0  0
  5 14  1  0  0  0  0
  6 15  1  0  0  0  0
  6 17  1  0  0  0  0
  6 41  1  0  0  0  0
  7 12  1  0  0  0  0
  7 20  1  0  0  0  0
  7 42  1  0  0  0  0
  8 19  1  0  0  0  0
  8 21  1  0  0  0  0
  8 22  1  0  0  0  0
  9 20  1  0  0  0  0
  9 26  1  0  0  0  0
  9 55  1  0  0  0  0
 10 13  1  0  0  0  0
 10 17  1  0  0  0  0
 10 30  1  0  0  0  0
 11 15  1  0  0  0  0
 11 16  1  0  0  0  0
 11 31  1  0  0  0  0
 12 13  1  0  0  0  0
 12 14  1  0  0  0  0
 12 32  1  0  0  0  0
 13 33  1  0  0  0  0
 13 34  1  0  0  0  0
 14 35  1  0  0  0  0
 14 36  1  0  0  0  0
 15 37  1  0  0  0  0
 15 38  1  0  0  0  0
 16 18  1  0  0  0  0
 16 39  1  0  0  0  0
 16 40  1  0  0  0  0
 18 19  1  0  0  0  0
 18 43  1  0  0  0  0
 18 44  1  0  0  0  0
 21 23  1  0  0  0  0
 21 45  1  0  0  0  0
 21 46  1  0  0  0  0
 22 24  1  0  0  0  0
 22 47  1  0  0  0  0
 22 48  1  0  0  0  0
 23 25  1  0  0  0  0
 23 49  1  0  0  0  0
 23 50  1  0  0  0  0
 24 25  1  0  0  0  0
 24 51  1  0  0  0  0
 24 52  1  0  0  0  0
 25 53  1  0  0  0  0
 25 54  1  0  0  0  0
 26 27  1  0  0  0  0
 26 28  2  0  0  0  0
 27 29  2  0  0  0  0
 27 56  1  0  0  0  0
 28 57  1  0  0  0  0
 29 58  1  0  0  0  0
M  END
> <PUBCHEM_COMPOUND_CID>
26762945

> <PUBCHEM_CONFORMER_RMSD>
1.2

> <PUBCHEM_CONFORMER_DIVERSEORDER>
2
134
24
125
88
17
98
103
104
49
76
65
119
29
71
37
93
33
10
57
120
129
22
9
124
132
95
139
110
126
114
11
53
52
116
35
102
109
107
38
27
59
113
19
16
128
70
45
30
122
123
6
54
135
36
84
46
89
131
20
105
73
51
130
75
90
108
121
67
14
3
68
115
133
112
72
63
25
31
5
42
99
18
82
44
43
56
79
106
58
101
94
80
12
60
127
138
26
23
48
50
32
85
78
97
136
62
91
34
86
66
74
47
8
81
64
118
87
117
137
69
100
83
4
111
28
7
96
55
41
40
92
1
77
21
13
61
15
39

> <PUBCHEM_MMFF94_PARTIAL_CHARGES>
30
1 -0.08
10 0.33
11 0.27
12 0.3
14 0.27
15 0.3
17 0.57
18 0.06
19 0.57
2 -0.57
20 0.69
21 0.3
22 0.3
26 0.06
27 -0.15
28 -0.11
29 -0.11
3 -0.57
4 -0.57
41 0.37
42 0.37
5 -0.81
55 0.37
56 0.15
57 0.15
58 0.15
6 -0.73
7 -0.73
8 -0.66
9 -0.49

> <PUBCHEM_EFFECTIVE_ROTOR_COUNT>
10.4

> <PUBCHEM_PHARMACOPHORE_FEATURES>
11
1 2 acceptor
1 3 acceptor
1 4 acceptor
1 5 cation
1 6 donor
1 7 donor
1 9 donor
5 1 26 27 28 29 rings
5 5 10 12 13 14 rings
6 5 6 10 11 15 17 rings
6 8 21 22 23 24 25 rings

> <PUBCHEM_HEAVY_ATOM_COUNT>
29

> <PUBCHEM_ATOM_DEF_STEREO_COUNT>
3

> <PUBCHEM_ATOM_UDEF_STEREO_COUNT>
0

> <PUBCHEM_BOND_DEF_STEREO_COUNT>
0

> <PUBCHEM_BOND_UDEF_STEREO_COUNT>
0

> <PUBCHEM_ISOTOPIC_ATOM_COUNT>
0

> <PUBCHEM_COMPONENT_COUNT>
1

> <PUBCHEM_CACTVS_TAUTO_COUNT>
9

> <PUBCHEM_CONFORMER_ID>
01985EC100000002

> <PUBCHEM_MMFF94_ENERGY>
52.8428

> <PUBCHEM_FEATURE_SELFOVERLAP>
55.967

> <PUBCHEM_SHAPE_FINGERPRINT>
10483366 6 18337972129544262188
10937287 8 18048877699507021585
11059048 146 18120938575217007501
12925494 130 18048306757722853397
13761468 95 17401519393973848856
14251764 38 18336820996367055175
151778 21 18337106873521889457
15210252 30 18193572081493028502
15475509 84 17322934660705323099
16988056 13 18340489950087486197
16992727 255 18044389433873721972
21857420 4 18124601881614119948
21860390 5 18343015558392978878
21987440 362 18264489666815484588
23559900 14 18412267203600058255
24180151 248 17549286051808048126
245318 6 18115873078187890629
4066623 53 17983026557257268390
50150288 127 13850449856614154860
53794403 172 18409731785605313253
54076057 255 18115886108606554639
6201320 77 15940300043466662624
6609424 69 18192141612591846629

> <PUBCHEM_SHAPE_MULTIPOLES>
558.14
11.63
7.27
1.85
29.32
7.45
0.25
4.9
-1.19
-8.57
2.34
-2
0.01
0.99

> <PUBCHEM_SHAPE_SELFOVERLAP>
1158.559

> <PUBCHEM_SHAPE_VOLUME>
319.3

> <PUBCHEM_COORDINATE_TYPE>
2
5
10

$$$$
