26742412
  -OEChem-12032416213D

 53 57  0     1  0  0  0  0  0999 V2000
    4.7235   -2.3989   -0.2904 S   0  0  0  0  0  0  0  0  0  0  0  0
    4.8835    0.9229    1.7229 O   0  0  0  0  0  0  0  0  0  0  0  0
   -5.7007   -1.9079    0.4492 O   0  0  0  0  0  0  0  0  0  0  0  0
    0.8015    2.7348    0.7339 N   0  0  2  0  0  0  0  0  0  0  0  0
    3.0708   -0.2583    0.8837 N   0  0  0  0  0  0  0  0  0  0  0  0
   -1.6242   -0.2964   -1.6638 N   0  0  0  0  0  0  0  0  0  0  0  0
   -3.5603   -1.5458   -0.9582 N   0  0  0  0  0  0  0  0  0  0  0  0
    0.1627    1.9458   -1.6646 C   0  0  2  0  0  0  0  0  0  0  0  0
   -1.0759    1.8961   -0.7278 C   0  0  2  0  0  0  0  0  0  0  0  0
    1.7676    1.7078    0.2625 C   0  0  2  0  0  0  0  0  0  0  0  0
    1.2908    1.0801   -1.0649 C   0  0  0  0  0  0  0  0  0  0  0  0
    0.6628    3.4064   -1.6640 C   0  0  0  0  0  0  0  0  0  0  0  0
   -0.5761    2.1825    0.7171 C   0  0  0  0  0  0  0  0  0  0  0  0
    0.8541    3.8759   -0.2112 C   0  0  0  0  0  0  0  0  0  0  0  0
    2.0535    0.6451    1.3256 C   0  0  0  0  0  0  0  0  0  0  0  0
   -1.9786    0.6725   -0.7945 C   0  0  0  0  0  0  0  0  0  0  0  0
   -3.0941    0.6055    0.0153 C   0  0  0  0  0  0  0  0  0  0  0  0
   -3.8555   -0.5385   -0.1106 C   0  0  0  0  0  0  0  0  0  0  0  0
   -2.4475   -1.3617   -1.6941 C   0  0  0  0  0  0  0  0  0  0  0  0
    4.4279   -0.0456    1.1205 C   0  0  0  0  0  0  0  0  0  0  0  0
   -5.0459   -0.7380    0.6724 C   0  0  0  0  0  0  0  0  0  0  0  0
   -2.0877   -2.4552   -2.6421 C   0  0  0  0  0  0  0  0  0  0  0  0
    5.3603   -1.0643    0.5732 C   0  0  0  0  0  0  0  0  0  0  0  0
   -5.6982    0.0061    1.6278 C   0  0  0  0  0  0  0  0  0  0  0  0
    6.7348   -1.1094    0.6543 C   0  0  0  0  0  0  0  0  0  0  0  0
   -6.8262   -0.7553    2.0167 C   0  0  0  0  0  0  0  0  0  0  0  0
   -6.7827   -1.9106    1.2711 C   0  0  0  0  0  0  0  0  0  0  0  0
    7.2721   -2.2545   -0.0014 C   0  0  0  0  0  0  0  0  0  0  0  0
    6.2879   -3.0411   -0.5585 C   0  0  0  0  0  0  0  0  0  0  0  0
   -0.0790    1.6251   -2.6833 H   0  0  0  0  0  0  0  0  0  0  0  0
   -1.7254    2.7324   -1.0299 H   0  0  0  0  0  0  0  0  0  0  0  0
    2.7244    2.2161    0.0708 H   0  0  0  0  0  0  0  0  0  0  0  0
    0.9357    0.0532   -0.9235 H   0  0  0  0  0  0  0  0  0  0  0  0
    2.1315    1.0331   -1.7683 H   0  0  0  0  0  0  0  0  0  0  0  0
   -0.0567    4.0577   -2.1739 H   0  0  0  0  0  0  0  0  0  0  0  0
    1.6100    3.4763   -2.2126 H   0  0  0  0  0  0  0  0  0  0  0  0
   -1.2518    2.9047    1.1949 H   0  0  0  0  0  0  0  0  0  0  0  0
   -0.6263    1.2898    1.3510 H   0  0  0  0  0  0  0  0  0  0  0  0
    1.8123    4.4006   -0.1123 H   0  0  0  0  0  0  0  0  0  0  0  0
    0.0865    4.6140    0.0542 H   0  0  0  0  0  0  0  0  0  0  0  0
    1.1699    0.0380    1.5465 H   0  0  0  0  0  0  0  0  0  0  0  0
    2.3754    1.1192    2.2600 H   0  0  0  0  0  0  0  0  0  0  0  0
    2.7847   -1.0848    0.3668 H   0  0  0  0  0  0  0  0  0  0  0  0
   -3.3502    1.4076    0.6967 H   0  0  0  0  0  0  0  0  0  0  0  0
   -2.5610   -2.2737   -3.6116 H   0  0  0  0  0  0  0  0  0  0  0  0
   -1.0036   -2.5048   -2.7844 H   0  0  0  0  0  0  0  0  0  0  0  0
   -2.4248   -3.4250   -2.2629 H   0  0  0  0  0  0  0  0  0  0  0  0
   -5.4090    0.9764    2.0062 H   0  0  0  0  0  0  0  0  0  0  0  0
    7.3330   -0.3606    1.1580 H   0  0  0  0  0  0  0  0  0  0  0  0
   -7.5768   -0.4949    2.7487 H   0  0  0  0  0  0  0  0  0  0  0  0
   -7.4130   -2.7857    1.2110 H   0  0  0  0  0  0  0  0  0  0  0  0
    8.3268   -2.4895   -0.0614 H   0  0  0  0  0  0  0  0  0  0  0  0
    6.4129   -3.9622   -1.1102 H   0  0  0  0  0  0  0  0  0  0  0  0
  1 23  1  0  0  0  0
  1 29  1  0  0  0  0
  2 20  2  0  0  0  0
  3 21  1  0  0  0  0
  3 27  1  0  0  0  0
  4 10  1  0  0  0  0
  4 13  1  0  0  0  0
  4 14  1  0  0  0  0
  5 15  1  0  0  0  0
  5 20  1  0  0  0  0
  5 43  1  0  0  0  0
  6 16  2  0  0  0  0
  6 19  1  0  0  0  0
  7 18  1  0  0  0  0
  7 19  2  0  0  0  0
  8  9  1  0  0  0  0
  8 11  1  0  0  0  0
  8 12  1  0  0  0  0
  8 30  1  0  0  0  0
  9 13  1  0  0  0  0
  9 16  1  0  0  0  0
  9 31  1  0  0  0  0
 10 11  1  0  0  0  0
 10 15  1  0  0  0  0
 10 32  1  0  0  0  0
 11 33  1  0  0  0  0
 11 34  1  0  0  0  0
 12 14  1  0  0  0  0
 12 35  1  0  0  0  0
 12 36  1  0  0  0  0
 13 37  1  0  0  0  0
 13 38  1  0  0  0  0
 14 39  1  0  0  0  0
 14 40  1  0  0  0  0
 15 41  1  0  0  0  0
 15 42  1  0  0  0  0
 16 17  1  0  0  0  0
 17 18  2  0  0  0  0
 17 44  1  0  0  0  0
 18 21  1  0  0  0  0
 19 22  1  0  0  0  0
 20 23  1  0  0  0  0
 21 24  2  0  0  0  0
 22 45  1  0  0  0  0
 22 46  1  0  0  0  0
 22 47  1  0  0  0  0
 23 25  2  0  0  0  0
 24 26  1  0  0  0  0
 24 48  1  0  0  0  0
 25 28  1  0  0  0  0
 25 49  1  0  0  0  0
 26 27  2  0  0  0  0
 26 50  1  0  0  0  0
 27 51  1  0  0  0  0
 28 29  2  0  0  0  0
 28 52  1  0  0  0  0
 29 53  1  0  0  0  0
M  END
> <PUBCHEM_COMPOUND_CID>
26742412

> <PUBCHEM_CONFORMER_RMSD>
0.8

> <PUBCHEM_CONFORMER_DIVERSEORDER>
1
215
58
70
263
104
112
276
265
201
239
126
230
185
221
184
268
206
103
280
93
158
236
240
148
202
157
143
271
20
237
284
175
29
147
264
128
254
203
31
135
207
211
150
270
30
228
124
120
24
282
279
116
216
182
94
53
198
27
186
137
16
217
169
231
41
214
72
63
208
253
34
288
256
251
227
248
46
285
86
139
56
286
97
250
189
156
247
258
122
102
64
172
224
132
164
199
66
287
15
219
218
229
73
88
233
188
281
178
142
161
259
204
269
179
49
60
220
90
223
180
246
43
242
67
181
245
171
5
119
155
121
272
44
21
59
177
257
83
174
92
243
192
62
130
39
165
74
110
28
10
277
266
136
154
173
98
80
225
197
162
241
17
183
141
101
134
22
213
8
108
144
212
244
118
267
255
76
138
37
89
25
68
140
234
131
166
191
99
115
65
168
23
95
195
145
117
113
210
194
87
152
106
273
33
78
159
45
283
57
190
47
2
35
262
160
111
127
54
235
151
107
109
40
51
167
153
125
18
71
278
114
91
232
252
261
170
11
69
238
4
82
100
77
12
193
226
52
36
81
26
123
6
105
129
96
9
163
205
50
176
187
19
274
13
209
61
32
133
38
222
42
48
200
260
149
249
3
14
275
79
7
55
196
146
75
84
85

> <PUBCHEM_MMFF94_PARTIAL_CHARGES>
34
1 -0.08
10 0.27
13 0.27
14 0.27
15 0.3
16 0.17
17 -0.15
18 0.36
19 0.48
2 -0.57
20 0.71
21 0.09
22 0.14
23 -0.05
24 -0.15
25 -0.15
26 -0.15
27 -0.01
28 -0.15
29 -0.11
3 -0.28
4 -0.81
43 0.37
44 0.15
48 0.15
49 0.15
5 -0.73
50 0.15
51 0.15
52 0.15
53 0.15
6 -0.62
7 -0.62
9 0.14

> <PUBCHEM_EFFECTIVE_ROTOR_COUNT>
7.2

> <PUBCHEM_PHARMACOPHORE_FEATURES>
10
1 2 acceptor
1 3 acceptor
1 4 cation
1 5 donor
1 6 acceptor
3 6 7 19 cation
5 1 23 25 28 29 rings
5 3 21 24 26 27 rings
6 6 7 16 17 18 19 rings
8 4 8 9 10 11 12 13 14 rings

> <PUBCHEM_HEAVY_ATOM_COUNT>
29

> <PUBCHEM_ATOM_DEF_STEREO_COUNT>
3

> <PUBCHEM_ATOM_UDEF_STEREO_COUNT>
0

> <PUBCHEM_BOND_DEF_STEREO_COUNT>
0

> <PUBCHEM_BOND_UDEF_STEREO_COUNT>
0

> <PUBCHEM_ISOTOPIC_ATOM_COUNT>
0

> <PUBCHEM_COMPONENT_COUNT>
1

> <PUBCHEM_CACTVS_TAUTO_COUNT>
2

> <PUBCHEM_CONFORMER_ID>
01980E8C00000001

> <PUBCHEM_MMFF94_ENERGY>
59.5445

> <PUBCHEM_FEATURE_SELFOVERLAP>
50.747

> <PUBCHEM_SHAPE_FINGERPRINT>
10319926 262 16702031927864352279
10692045 39 16988575575806736871
10764073 3 17060341782115005292
10928967 22 18265310890226638650
11059845 2 18057058925882073465
11135609 12 18412262805564155000
11135926 11 18119802767179322612
11200772 71 12540957596387700863
11211813 15 8790588296085876818
11399939 17 17903082466428672855
11505856 67 12974700588323039999
11513181 2 17174921029768187995
11961588 58 8286198336001362344
11991303 11 17462838779524292149
12107183 9 17917994992533012363
12166972 35 17386011659021986126
12422481 6 18202844335758409487
12633257 1 16845567638567522536
13103583 49 17346590906963986358
131258 43 15937274316410499407
13383668 262 17539156216758195551
13673619 4 17458345256179418701
13690498 29 17676203550752952749
13782708 43 16950557826803983003
13941219 33 17846492613207338382
13947930 73 17822868596420278835
14123256 34 18040720268348556467
14251764 30 18260267430146969314
14767858 380 11891333170932983819
14950920 106 16773218678765616322
14955137 171 18410577296787689801
15064986 96 17630893698859338391
15669420 48 15792021099387330918
16110190 28 18131628997929765758
16120349 189 11023812990574999098
16991981 162 14564469026952707751
17492 54 12612755722080048929
1813 80 18333449850365753236
19053607 189 13613703824733919451
19246450 95 17917157074789596577
20567600 254 10375868576244351570
20715895 44 9583511024052691570
20775530 9 18336531751620224842
21298829 104 10159706797948414235
21344244 246 17749683978048177332
21365058 113 17603872229875497909
21403212 168 17561084662372311923
21421861 104 18269844266508701477
21424621 283 10231745670181194096
21716022 299 17823156638602237692
229767 44 17917712387785178631
25269216 80 15285644287801211915
2748736 6 11167935857736388826
2838139 119 8285934513598343850
312425 54 17346587612956653290
3388396 114 11241962668689381950
3737641 26 18267579118353411066
3862424 121 14997429399370499939
393628 179 7997676564116431654
437815 12 18186807988948313363
44880168 125 17916854730330236006
46194498 28 16009307741960597004
474113 269 18270109232733686215
513202 73 18339921502807832882
5372103 7 10447928339157109075
54039377 194 18334582313520778526
56633871 153 18272928336510707063
6058803 2 17627506374375329413
6327066 14 10303805476105881562
6679774 75 18269573748183987399
7918774 8 18186803573526851394
7970288 3 18333450949687749714
999808 66 18410295778756161954

> <PUBCHEM_SHAPE_MULTIPOLES>
568.99
17.72
3.9
1.95
5.46
2.32
-0.57
-20.71
9.74
2.45
-1.37
-1.77
-0.38
0.82

> <PUBCHEM_SHAPE_SELFOVERLAP>
1231.575

> <PUBCHEM_SHAPE_VOLUME>
313.4

> <PUBCHEM_COORDINATE_TYPE>
2
5
10

$$$$
