7144092
  -OEChem-12032416113D

 54 58  0     1  0  0  0  0  0999 V2000
   -2.9582    2.5819    2.2998 O   0  0  0  0  0  0  0  0  0  0  0  0
   -3.9231   -1.4738   -0.5934 O   0  0  0  0  0  0  0  0  0  0  0  0
    5.6718   -0.6362   -0.7137 O   0  0  0  0  0  0  0  0  0  0  0  0
   -2.1196   -0.3693   -1.5905 N   0  0  0  0  0  0  0  0  0  0  0  0
   -1.6148    1.9550    0.4864 N   0  0  0  0  0  0  0  0  0  0  0  0
   -2.4823    2.0628   -1.9259 C   0  0  1  0  0  0  0  0  0  0  0  0
   -0.2151    1.2237   -1.4688 C   0  0  2  0  0  0  0  0  0  0  0  0
   -1.0151    2.2335   -2.2909 C   0  0  0  0  0  0  0  0  0  0  0  0
   -2.9569    0.6347   -2.2438 C   0  0  0  0  0  0  0  0  0  0  0  0
   -2.6573    2.4090   -0.4460 C   0  0  0  0  0  0  0  0  0  0  0  0
   -0.6761   -0.2079   -1.8188 C   0  0  0  0  0  0  0  0  0  0  0  0
   -0.3712    1.4706    0.0338 C   0  0  0  0  0  0  0  0  0  0  0  0
    0.6197    1.2100    0.9260 C   0  0  0  0  0  0  0  0  0  0  0  0
   -1.8963    2.1499    1.8502 C   0  0  0  0  0  0  0  0  0  0  0  0
   -2.7148   -1.3412   -0.7825 C   0  0  0  0  0  0  0  0  0  0  0  0
    0.3640    1.3949    2.3416 C   0  0  0  0  0  0  0  0  0  0  0  0
   -0.8121    1.8198    2.8029 C   0  0  0  0  0  0  0  0  0  0  0  0
    1.9487    0.7240    0.4940 C   0  0  0  0  0  0  0  0  0  0  0  0
   -1.8422   -2.2849   -0.0739 C   0  0  0  0  0  0  0  0  0  0  0  0
    2.1778   -0.6428    0.3705 C   0  0  0  0  0  0  0  0  0  0  0  0
    2.9605    1.6376    0.2149 C   0  0  0  0  0  0  0  0  0  0  0  0
   -1.3811   -1.9770    1.2035 C   0  0  0  0  0  0  0  0  0  0  0  0
   -1.4797   -3.4837   -0.6825 C   0  0  0  0  0  0  0  0  0  0  0  0
    3.4313   -1.1006   -0.0361 C   0  0  0  0  0  0  0  0  0  0  0  0
    4.2137    1.1798   -0.1919 C   0  0  0  0  0  0  0  0  0  0  0  0
    4.4492   -0.1893   -0.3173 C   0  0  0  0  0  0  0  0  0  0  0  0
   -0.5515   -2.8738    1.8767 C   0  0  0  0  0  0  0  0  0  0  0  0
   -0.6503   -4.3806   -0.0093 C   0  0  0  0  0  0  0  0  0  0  0  0
   -0.1862   -4.0756    1.2703 C   0  0  0  0  0  0  0  0  0  0  0  0
    6.6672    0.3496   -0.9851 C   0  0  0  0  0  0  0  0  0  0  0  0
   -3.0925    2.7548   -2.5193 H   0  0  0  0  0  0  0  0  0  0  0  0
    0.8323    1.3292   -1.7723 H   0  0  0  0  0  0  0  0  0  0  0  0
   -0.6792    3.2572   -2.0833 H   0  0  0  0  0  0  0  0  0  0  0  0
   -0.8655    2.0579   -3.3633 H   0  0  0  0  0  0  0  0  0  0  0  0
   -4.0066    0.5120   -1.9569 H   0  0  0  0  0  0  0  0  0  0  0  0
   -2.8936    0.4505   -3.3232 H   0  0  0  0  0  0  0  0  0  0  0  0
   -2.6837    3.5030   -0.3453 H   0  0  0  0  0  0  0  0  0  0  0  0
   -3.6303    2.0523   -0.0845 H   0  0  0  0  0  0  0  0  0  0  0  0
   -0.5035   -0.4025   -2.8848 H   0  0  0  0  0  0  0  0  0  0  0  0
   -0.1001   -0.9533   -1.2710 H   0  0  0  0  0  0  0  0  0  0  0  0
    1.1605    1.1626    3.0425 H   0  0  0  0  0  0  0  0  0  0  0  0
   -0.9964    1.9486    3.8628 H   0  0  0  0  0  0  0  0  0  0  0  0
    1.4036   -1.3672    0.5871 H   0  0  0  0  0  0  0  0  0  0  0  0
    2.7900    2.7073    0.3081 H   0  0  0  0  0  0  0  0  0  0  0  0
   -1.6710   -1.0507    1.6896 H   0  0  0  0  0  0  0  0  0  0  0  0
   -1.8353   -3.7300   -1.6795 H   0  0  0  0  0  0  0  0  0  0  0  0
    3.6085   -2.1684   -0.1313 H   0  0  0  0  0  0  0  0  0  0  0  0
    4.9587    1.9416   -0.3942 H   0  0  0  0  0  0  0  0  0  0  0  0
   -0.1916   -2.6366    2.8736 H   0  0  0  0  0  0  0  0  0  0  0  0
   -0.3652   -5.3162   -0.4816 H   0  0  0  0  0  0  0  0  0  0  0  0
    0.4600   -4.7736    1.7943 H   0  0  0  0  0  0  0  0  0  0  0  0
    6.9179    0.9258   -0.0880 H   0  0  0  0  0  0  0  0  0  0  0  0
    6.3790    0.9920   -1.8241 H   0  0  0  0  0  0  0  0  0  0  0  0
    7.5752   -0.1826   -1.2873 H   0  0  0  0  0  0  0  0  0  0  0  0
  1 14  2  0  0  0  0
  2 15  2  0  0  0  0
  3 26  1  0  0  0  0
  3 30  1  0  0  0  0
  4  9  1  0  0  0  0
  4 11  1  0  0  0  0
  4 15  1  0  0  0  0
  5 10  1  0  0  0  0
  5 12  1  0  0  0  0
  5 14  1  0  0  0  0
  6  8  1  0  0  0  0
  6  9  1  0  0  0  0
  6 10  1  0  0  0  0
  6 31  1  0  0  0  0
  7  8  1  0  0  0  0
  7 11  1  0  0  0  0
  7 12  1  0  0  0  0
  7 32  1  0  0  0  0
  8 33  1  0  0  0  0
  8 34  1  0  0  0  0
  9 35  1  0  0  0  0
  9 36  1  0  0  0  0
 10 37  1  0  0  0  0
 10 38  1  0  0  0  0
 11 39  1  0  0  0  0
 11 40  1  0  0  0  0
 12 13  2  0  0  0  0
 13 16  1  0  0  0  0
 13 18  1  0  0  0  0
 14 17  1  0  0  0  0
 15 19  1  0  0  0  0
 16 17  2  0  0  0  0
 16 41  1  0  0  0  0
 17 42  1  0  0  0  0
 18 20  2  0  0  0  0
 18 21  1  0  0  0  0
 19 22  2  0  0  0  0
 19 23  1  0  0  0  0
 20 24  1  0  0  0  0
 20 43  1  0  0  0  0
 21 25  2  0  0  0  0
 21 44  1  0  0  0  0
 22 27  1  0  0  0  0
 22 45  1  0  0  0  0
 23 28  2  0  0  0  0
 23 46  1  0  0  0  0
 24 26  2  0  0  0  0
 24 47  1  0  0  0  0
 25 26  1  0  0  0  0
 25 48  1  0  0  0  0
 27 29  2  0  0  0  0
 27 49  1  0  0  0  0
 28 29  1  0  0  0  0
 28 50  1  0  0  0  0
 29 51  1  0  0  0  0
 30 52  1  0  0  0  0
 30 53  1  0  0  0  0
 30 54  1  0  0  0  0
M  END
> <PUBCHEM_COMPOUND_CID>
7144092

> <PUBCHEM_CONFORMER_RMSD>
0.8

> <PUBCHEM_CONFORMER_DIVERSEORDER>
1
2

> <PUBCHEM_MMFF94_PARTIAL_CHARGES>
39
1 -0.57
10 0.3
11 0.3
12 -0.03
13 -0.03
14 0.62
15 0.54
16 -0.15
17 -0.14
18 0.03
19 0.09
2 -0.57
20 -0.15
21 -0.15
22 -0.15
23 -0.15
24 -0.15
25 -0.15
26 0.08
27 -0.15
28 -0.15
29 -0.15
3 -0.36
30 0.28
4 -0.66
41 0.15
42 0.15
43 0.15
44 0.15
45 0.15
46 0.15
47 0.15
48 0.15
49 0.15
5 -0.47
50 0.15
51 0.15
7 0.14
9 0.3

> <PUBCHEM_EFFECTIVE_ROTOR_COUNT>
5

> <PUBCHEM_PHARMACOPHORE_FEATURES>
8
1 1 acceptor
1 2 acceptor
1 3 acceptor
6 18 20 21 24 25 26 rings
6 19 22 23 27 28 29 rings
6 4 6 7 8 9 11 rings
6 5 12 13 14 16 17 rings
6 5 6 7 8 10 12 rings

> <PUBCHEM_HEAVY_ATOM_COUNT>
30

> <PUBCHEM_ATOM_DEF_STEREO_COUNT>
2

> <PUBCHEM_ATOM_UDEF_STEREO_COUNT>
0

> <PUBCHEM_BOND_DEF_STEREO_COUNT>
0

> <PUBCHEM_BOND_UDEF_STEREO_COUNT>
0

> <PUBCHEM_ISOTOPIC_ATOM_COUNT>
0

> <PUBCHEM_COMPONENT_COUNT>
1

> <PUBCHEM_CACTVS_TAUTO_COUNT>
1

> <PUBCHEM_CONFORMER_ID>
006D029C00000001

> <PUBCHEM_MMFF94_ENERGY>
101.6205

> <PUBCHEM_FEATURE_SELFOVERLAP>
42.182

> <PUBCHEM_SHAPE_FINGERPRINT>
12156800 1 17615464367961002795
12788726 201 18130790048929936098
133893 2 17545027209248942981
14114206 34 17987217959289661744
14251740 79 18410854365312765742
14251757 5 18188491410165561294
15463212 79 17822278077419014386
17974551 9 17414444102061405739
20642791 178 17544447792749735221
20775530 9 17832706047413391458
238 59 17537705608421817695
3027735 51 18412544292946408354
3493558 16 11088304509767638830
35225 105 17912120267366712091
394222 165 16765935255903116737
469060 322 17531264875412092755
484985 159 18060146427082828358
5080951 261 18187362173432659408
57527452 28 18337688485440255363
59755656 520 18198919019397431320
6287921 2 16331021163609198235

> <PUBCHEM_SHAPE_MULTIPOLES>
589.82
7.61
4.57
2.45
16.56
5.26
-0.84
-0.96
3.52
-3.94
-1.14
-1.9
-1.64
-0.09

> <PUBCHEM_SHAPE_SELFOVERLAP>
1304.466

> <PUBCHEM_SHAPE_VOLUME>
310.7

> <PUBCHEM_COORDINATE_TYPE>
2
5
10

$$$$
