51137970
  -OEChem-12032416233D

 50 52  0     1  0  0  0  0  0999 V2000
   -2.4973    1.4497   -1.6540 O   0  0  0  0  0  0  0  0  0  0  0  0
   -0.5238   -0.3236   -0.6663 N   0  0  0  0  0  0  0  0  0  0  0  0
    3.8476    2.1462   -0.1234 N   0  0  0  0  0  0  0  0  0  0  0  0
   -2.9038    1.6438    0.6299 N   0  0  0  0  0  0  0  0  0  0  0  0
    0.3293   -1.1988    0.1488 C   0  0  1  0  0  0  0  0  0  0  0  0
   -0.7204    1.0123   -0.1222 C   0  0  1  0  0  0  0  0  0  0  0  0
    0.2020   -2.5861   -0.5059 C   0  0  0  0  0  0  0  0  0  0  0  0
    1.7873   -0.7550    0.3056 C   0  0  0  0  0  0  0  0  0  0  0  0
    2.2807    0.5531    0.0306 C   0  0  0  0  0  0  0  0  0  0  0  0
    0.2395    2.0208   -0.7504 C   0  0  0  0  0  0  0  0  0  0  0  0
    1.6741    1.7762   -0.4210 C   0  0  0  0  0  0  0  0  0  0  0  0
   -1.1196   -3.2855   -0.1734 C   0  0  0  0  0  0  0  0  0  0  0  0
    3.6375    0.8340    0.2289 C   0  0  0  0  0  0  0  0  0  0  0  0
    2.7239   -1.6776    0.8373 C   0  0  0  0  0  0  0  0  0  0  0  0
    2.6742    2.7234   -0.5096 C   0  0  0  0  0  0  0  0  0  0  0  0
   -2.1264    1.3814   -0.4852 C   0  0  0  0  0  0  0  0  0  0  0  0
   -1.1321   -4.6735   -0.8183 C   0  0  0  0  0  0  0  0  0  0  0  0
   -2.3404   -2.4894   -0.6367 C   0  0  0  0  0  0  0  0  0  0  0  0
    4.5542   -0.1025    0.7096 C   0  0  0  0  0  0  0  0  0  0  0  0
    4.0692   -1.3654    1.0242 C   0  0  0  0  0  0  0  0  0  0  0  0
   -4.2904    2.0430    0.5509 C   0  0  0  0  0  0  0  0  0  0  0  0
   -5.2393    0.8506    0.5643 C   0  0  0  0  0  0  0  0  0  0  0  0
   -5.1259    0.0228    1.8365 C   0  0  0  0  0  0  0  0  0  0  0  0
   -0.0839   -1.2551    1.1653 H   0  0  0  0  0  0  0  0  0  0  0  0
   -0.6032    1.0140    0.9690 H   0  0  0  0  0  0  0  0  0  0  0  0
    0.9980   -3.2646   -0.1860 H   0  0  0  0  0  0  0  0  0  0  0  0
    0.3320   -2.5102   -1.5958 H   0  0  0  0  0  0  0  0  0  0  0  0
    0.1321    2.0335   -1.8441 H   0  0  0  0  0  0  0  0  0  0  0  0
   -0.0355    3.0294   -0.4121 H   0  0  0  0  0  0  0  0  0  0  0  0
   -0.1905   -0.2841   -1.6288 H   0  0  0  0  0  0  0  0  0  0  0  0
   -1.1903   -3.4234    0.9130 H   0  0  0  0  0  0  0  0  0  0  0  0
    2.4061   -2.6686    1.1530 H   0  0  0  0  0  0  0  0  0  0  0  0
    2.6463    3.7614   -0.8113 H   0  0  0  0  0  0  0  0  0  0  0  0
    4.7404    2.6183   -0.0841 H   0  0  0  0  0  0  0  0  0  0  0  0
   -1.0785   -4.6058   -1.9103 H   0  0  0  0  0  0  0  0  0  0  0  0
   -2.0474   -5.2158   -0.5578 H   0  0  0  0  0  0  0  0  0  0  0  0
   -0.2837   -5.2738   -0.4728 H   0  0  0  0  0  0  0  0  0  0  0  0
   -2.2466   -2.1606   -1.6769 H   0  0  0  0  0  0  0  0  0  0  0  0
   -2.5353   -1.6299    0.0101 H   0  0  0  0  0  0  0  0  0  0  0  0
   -3.2420   -3.1108   -0.5769 H   0  0  0  0  0  0  0  0  0  0  0  0
    5.5993    0.1486    0.8554 H   0  0  0  0  0  0  0  0  0  0  0  0
    4.7437   -2.1144    1.4305 H   0  0  0  0  0  0  0  0  0  0  0  0
   -2.5012    1.5549    1.5579 H   0  0  0  0  0  0  0  0  0  0  0  0
   -4.4884    2.7014    1.4033 H   0  0  0  0  0  0  0  0  0  0  0  0
   -4.4410    2.6232   -0.3660 H   0  0  0  0  0  0  0  0  0  0  0  0
   -5.0397    0.2042   -0.2986 H   0  0  0  0  0  0  0  0  0  0  0  0
   -6.2688    1.2133    0.4651 H   0  0  0  0  0  0  0  0  0  0  0  0
   -5.8629   -0.7865    1.8250 H   0  0  0  0  0  0  0  0  0  0  0  0
   -5.3122    0.6380    2.7225 H   0  0  0  0  0  0  0  0  0  0  0  0
   -4.1346   -0.4308    1.9332 H   0  0  0  0  0  0  0  0  0  0  0  0
  1 16  2  0  0  0  0
  2  5  1  0  0  0  0
  2  6  1  0  0  0  0
  2 30  1  0  0  0  0
  3 13  1  0  0  0  0
  3 15  1  0  0  0  0
  3 34  1  0  0  0  0
  4 16  1  0  0  0  0
  4 21  1  0  0  0  0
  4 43  1  0  0  0  0
  5  7  1  0  0  0  0
  5  8  1  0  0  0  0
  5 24  1  0  0  0  0
  6 10  1  0  0  0  0
  6 16  1  0  0  0  0
  6 25  1  0  0  0  0
  7 12  1  0  0  0  0
  7 26  1  0  0  0  0
  7 27  1  0  0  0  0
  8  9  2  0  0  0  0
  8 14  1  0  0  0  0
  9 11  1  0  0  0  0
  9 13  1  0  0  0  0
 10 11  1  0  0  0  0
 10 28  1  0  0  0  0
 10 29  1  0  0  0  0
 11 15  2  0  0  0  0
 12 17  1  0  0  0  0
 12 18  1  0  0  0  0
 12 31  1  0  0  0  0
 13 19  2  0  0  0  0
 14 20  2  0  0  0  0
 14 32  1  0  0  0  0
 15 33  1  0  0  0  0
 17 35  1  0  0  0  0
 17 36  1  0  0  0  0
 17 37  1  0  0  0  0
 18 38  1  0  0  0  0
 18 39  1  0  0  0  0
 18 40  1  0  0  0  0
 19 20  1  0  0  0  0
 19 41  1  0  0  0  0
 20 42  1  0  0  0  0
 21 22  1  0  0  0  0
 21 44  1  0  0  0  0
 21 45  1  0  0  0  0
 22 23  1  0  0  0  0
 22 46  1  0  0  0  0
 22 47  1  0  0  0  0
 23 48  1  0  0  0  0
 23 49  1  0  0  0  0
 23 50  1  0  0  0  0
M  END
> <PUBCHEM_COMPOUND_CID>
51137970

> <PUBCHEM_CONFORMER_RMSD>
0.8

> <PUBCHEM_CONFORMER_DIVERSEORDER>
1
20
26
25
8
29
6
19
17
2
33
12
4
14
15
30
28
24
34
3
21
9
32
5
7
11
16
18
35
10
31
22
13
23
27

> <PUBCHEM_MMFF94_PARTIAL_CHARGES>
23
1 -0.57
10 0.18
11 -0.18
13 -0.15
14 -0.15
15 -0.3
16 0.57
19 -0.15
2 -0.9
20 -0.15
21 0.3
3 0.03
30 0.36
32 0.15
33 0.15
34 0.27
4 -0.73
41 0.15
42 0.15
43 0.37
5 0.41
6 0.33
8 -0.14

> <PUBCHEM_EFFECTIVE_ROTOR_COUNT>
6.8

> <PUBCHEM_PHARMACOPHORE_FEATURES>
11
1 1 acceptor
1 2 cation
1 2 donor
1 23 hydrophobe
1 3 cation
1 3 donor
1 4 donor
3 12 17 18 hydrophobe
5 3 9 11 13 15 rings
6 8 9 13 14 19 20 rings
7 2 5 6 8 9 10 11 rings

> <PUBCHEM_HEAVY_ATOM_COUNT>
23

> <PUBCHEM_ATOM_DEF_STEREO_COUNT>
2

> <PUBCHEM_ATOM_UDEF_STEREO_COUNT>
0

> <PUBCHEM_BOND_DEF_STEREO_COUNT>
0

> <PUBCHEM_BOND_UDEF_STEREO_COUNT>
0

> <PUBCHEM_ISOTOPIC_ATOM_COUNT>
0

> <PUBCHEM_COMPONENT_COUNT>
1

> <PUBCHEM_CACTVS_TAUTO_COUNT>
2

> <PUBCHEM_CONFORMER_ID>
030C4DB200000001

> <PUBCHEM_MMFF94_ENERGY>
43.0286

> <PUBCHEM_FEATURE_SELFOVERLAP>
55.951

> <PUBCHEM_SHAPE_FINGERPRINT>
10064457 181 18341893000023550104
104564 63 18051977209948260686
10493431 412 18341326721396348536
10967382 1 18192697957117141646
1100329 8 18411131446680240688
12035758 1 18198054782179276066
12422481 6 18335426755372096299
12788726 201 18057881549167378487
12839892 36 18411419475892920811
13140716 1 18409440410702559760
13540713 5 18117269466824291952
13583140 156 17096068191702609145
138480 1 17619352000795975103
14178342 30 18122325033952590864
14464042 87 18126561452375698687
14790565 3 18411422838556927213
14866123 147 18411979191145910274
14955137 171 18265902350130045018
16728300 4 16957294294114042650
16945 1 18263346037515004948
17138139 8 17698965722640059671
19591789 44 17907013981039076726
20028762 73 18272926103597406679
20261772 1 18408606967550071033
20739085 24 18049170973233959808
21033648 29 18127385900922534936
21041028 32 17543360805130958883
21197605 99 18263658393444127323
23184049 59 18336262328174183664
23558518 356 18047474714465218740
23559900 14 17978513031902096641
23598288 3 18057317499633796766
25147074 1 18115865373232546756
2748010 2 17615387187915216764
283562 15 17616246327187351584
350125 39 18336826498014075776
465052 167 18041007197696369192
5104073 3 18266722736676854880
6438718 38 17916866953658915343
7064713 232 18343579629591119321
7164475 11 18194390328771629574
7832392 63 18410004464641833016
81228 2 17901092341628146984

> <PUBCHEM_SHAPE_MULTIPOLES>
452.52
8.97
4.37
1.13
5.16
4.85
0.14
-4.33
4.28
1.34
-1.43
0.79
0.02
-1.27

> <PUBCHEM_SHAPE_SELFOVERLAP>
954.382

> <PUBCHEM_SHAPE_VOLUME>
254.9

> <PUBCHEM_COORDINATE_TYPE>
2
5
10

$$$$
