38028961
  -OEChem-12032416253D

 72 75  0     1  0  0  0  0  0999 V2000
    0.0323    3.6520   -0.2331 O   0  0  0  0  0  0  0  0  0  0  0  0
   -3.5667   -2.5106    1.8525 O   0  0  0  0  0  0  0  0  0  0  0  0
    1.5555    1.9136   -0.4738 N   0  0  0  0  0  0  0  0  0  0  0  0
   -3.8651   -1.5217   -0.2257 N   0  0  0  0  0  0  0  0  0  0  0  0
    4.1814    0.7641   -0.0699 N   0  0  0  0  0  0  0  0  0  0  0  0
    6.1066   -0.3287   -0.8925 N   0  0  0  0  0  0  0  0  0  0  0  0
   -1.8521   -3.0358   -1.1750 N   0  0  0  0  0  0  0  0  0  0  0  0
   -3.3733    1.2394    0.8595 C   0  0  1  0  0  0  0  0  0  0  0  0
   -4.5311    0.8201   -0.0805 C   0  0  1  0  0  0  0  0  0  0  0  0
   -2.7072    2.5261    0.3488 C   0  0  0  0  0  0  0  0  0  0  0  0
   -2.1449    2.3650   -1.0762 C   0  0  2  0  0  0  0  0  0  0  0  0
   -3.8546    1.4411    2.2998 C   0  0  0  0  0  0  0  0  0  0  0  0
   -3.1446    1.7060   -2.0048 C   0  0  0  0  0  0  0  0  0  0  0  0
   -4.2120    1.0313   -1.5419 C   0  0  0  0  0  0  0  0  0  0  0  0
   -0.8188    1.5965   -1.0631 C   0  0  0  0  0  0  0  0  0  0  0  0
   -4.9280   -0.6427    0.1493 C   0  0  0  0  0  0  0  0  0  0  0  0
   -4.4846    2.8208    2.4619 C   0  0  0  0  0  0  0  0  0  0  0  0
   -2.6990    1.2556    3.2780 C   0  0  0  0  0  0  0  0  0  0  0  0
   -2.9142    1.8789   -3.4804 C   0  0  0  0  0  0  0  0  0  0  0  0
    0.2859    2.4876   -0.5503 C   0  0  0  0  0  0  0  0  0  0  0  0
    1.8528    0.5272   -0.8409 C   0  0  0  0  0  0  0  0  0  0  0  0
    2.6789    2.7130    0.0081 C   0  0  0  0  0  0  0  0  0  0  0  0
    3.3291    0.3056   -1.1698 C   0  0  0  0  0  0  0  0  0  0  0  0
    3.6986    1.8663    0.7668 C   0  0  0  0  0  0  0  0  0  0  0  0
   -3.2570   -2.4017    0.6691 C   0  0  0  0  0  0  0  0  0  0  0  0
    5.4327    0.1955    0.1557 C   0  0  0  0  0  0  0  0  0  0  0  0
   -2.1484   -3.2304    0.1296 C   0  0  0  0  0  0  0  0  0  0  0  0
    5.9082    0.2054    1.4571 C   0  0  0  0  0  0  0  0  0  0  0  0
   -1.4879   -4.1317    0.9489 C   0  0  0  0  0  0  0  0  0  0  0  0
    7.1559   -0.3589    1.6981 C   0  0  0  0  0  0  0  0  0  0  0  0
    7.3157   -0.8684   -0.6195 C   0  0  0  0  0  0  0  0  0  0  0  0
    7.8795   -0.9081    0.6455 C   0  0  0  0  0  0  0  0  0  0  0  0
   -0.4569   -4.8812    0.3936 C   0  0  0  0  0  0  0  0  0  0  0  0
   -0.8443   -3.7822   -1.6797 C   0  0  0  0  0  0  0  0  0  0  0  0
   -0.1226   -4.7091   -0.9451 C   0  0  0  0  0  0  0  0  0  0  0  0
   -2.6171    0.4459    0.8617 H   0  0  0  0  0  0  0  0  0  0  0  0
   -5.4156    1.4342    0.1306 H   0  0  0  0  0  0  0  0  0  0  0  0
   -1.9259    2.8597    1.0380 H   0  0  0  0  0  0  0  0  0  0  0  0
   -3.4391    3.3419    0.2866 H   0  0  0  0  0  0  0  0  0  0  0  0
   -1.9815    3.3789   -1.4683 H   0  0  0  0  0  0  0  0  0  0  0  0
   -4.6096    0.6916    2.5585 H   0  0  0  0  0  0  0  0  0  0  0  0
   -4.9225    0.6186   -2.2555 H   0  0  0  0  0  0  0  0  0  0  0  0
   -0.5477    1.3065   -2.0836 H   0  0  0  0  0  0  0  0  0  0  0  0
   -0.8749    0.6879   -0.4561 H   0  0  0  0  0  0  0  0  0  0  0  0
   -5.2351   -0.8253    1.1826 H   0  0  0  0  0  0  0  0  0  0  0  0
   -5.7864   -0.9037   -0.4816 H   0  0  0  0  0  0  0  0  0  0  0  0
   -5.2511    3.0268    1.7091 H   0  0  0  0  0  0  0  0  0  0  0  0
   -4.9859    2.8747    3.4363 H   0  0  0  0  0  0  0  0  0  0  0  0
   -3.7495    3.6326    2.4613 H   0  0  0  0  0  0  0  0  0  0  0  0
   -1.9012    1.9887    3.1245 H   0  0  0  0  0  0  0  0  0  0  0  0
   -2.2631    0.2552    3.1836 H   0  0  0  0  0  0  0  0  0  0  0  0
   -3.0508    1.3640    4.3099 H   0  0  0  0  0  0  0  0  0  0  0  0
   -2.8309    2.9416   -3.7305 H   0  0  0  0  0  0  0  0  0  0  0  0
   -3.7368    1.4673   -4.0752 H   0  0  0  0  0  0  0  0  0  0  0  0
   -1.9978    1.3732   -3.7974 H   0  0  0  0  0  0  0  0  0  0  0  0
   -3.5655   -1.5338   -1.1966 H   0  0  0  0  0  0  0  0  0  0  0  0
    1.2454    0.2176   -1.6950 H   0  0  0  0  0  0  0  0  0  0  0  0
    1.5586   -0.0929    0.0149 H   0  0  0  0  0  0  0  0  0  0  0  0
    2.3162    3.5257    0.6465 H   0  0  0  0  0  0  0  0  0  0  0  0
    3.1424    3.1723   -0.8736 H   0  0  0  0  0  0  0  0  0  0  0  0
    3.4832   -0.7635   -1.3608 H   0  0  0  0  0  0  0  0  0  0  0  0
    3.5994    0.8503   -2.0825 H   0  0  0  0  0  0  0  0  0  0  0  0
    4.5232    2.5255    1.0647 H   0  0  0  0  0  0  0  0  0  0  0  0
    3.2353    1.4595    1.6742 H   0  0  0  0  0  0  0  0  0  0  0  0
    5.3525    0.6103    2.2955 H   0  0  0  0  0  0  0  0  0  0  0  0
   -1.7478   -4.2664    1.9933 H   0  0  0  0  0  0  0  0  0  0  0  0
    7.5621   -0.3751    2.7051 H   0  0  0  0  0  0  0  0  0  0  0  0
    7.8393   -1.2836   -1.4744 H   0  0  0  0  0  0  0  0  0  0  0  0
    8.8536   -1.3543    0.8102 H   0  0  0  0  0  0  0  0  0  0  0  0
    0.0855   -5.5980    1.0028 H   0  0  0  0  0  0  0  0  0  0  0  0
   -0.6226   -3.6099   -2.7278 H   0  0  0  0  0  0  0  0  0  0  0  0
    0.6777   -5.2823   -1.3989 H   0  0  0  0  0  0  0  0  0  0  0  0
  1 20  2  0  0  0  0
  2 25  2  0  0  0  0
  3 20  1  0  0  0  0
  3 21  1  0  0  0  0
  3 22  1  0  0  0  0
  4 16  1  0  0  0  0
  4 25  1  0  0  0  0
  4 56  1  0  0  0  0
  5 23  1  0  0  0  0
  5 24  1  0  0  0  0
  5 26  1  0  0  0  0
  6 26  1  0  0  0  0
  6 31  2  0  0  0  0
  7 27  1  0  0  0  0
  7 34  2  0  0  0  0
  8  9  1  0  0  0  0
  8 10  1  0  0  0  0
  8 12  1  0  0  0  0
  8 36  1  0  0  0  0
  9 14  1  0  0  0  0
  9 16  1  0  0  0  0
  9 37  1  0  0  0  0
 10 11  1  0  0  0  0
 10 38  1  0  0  0  0
 10 39  1  0  0  0  0
 11 13  1  0  0  0  0
 11 15  1  0  0  0  0
 11 40  1  0  0  0  0
 12 17  1  0  0  0  0
 12 18  1  0  0  0  0
 12 41  1  0  0  0  0
 13 14  2  0  0  0  0
 13 19  1  0  0  0  0
 14 42  1  0  0  0  0
 15 20  1  0  0  0  0
 15 43  1  0  0  0  0
 15 44  1  0  0  0  0
 16 45  1  0  0  0  0
 16 46  1  0  0  0  0
 17 47  1  0  0  0  0
 17 48  1  0  0  0  0
 17 49  1  0  0  0  0
 18 50  1  0  0  0  0
 18 51  1  0  0  0  0
 18 52  1  0  0  0  0
 19 53  1  0  0  0  0
 19 54  1  0  0  0  0
 19 55  1  0  0  0  0
 21 23  1  0  0  0  0
 21 57  1  0  0  0  0
 21 58  1  0  0  0  0
 22 24  1  0  0  0  0
 22 59  1  0  0  0  0
 22 60  1  0  0  0  0
 23 61  1  0  0  0  0
 23 62  1  0  0  0  0
 24 63  1  0  0  0  0
 24 64  1  0  0  0  0
 25 27  1  0  0  0  0
 26 28  2  0  0  0  0
 27 29  2  0  0  0  0
 28 30  1  0  0  0  0
 28 65  1  0  0  0  0
 29 33  1  0  0  0  0
 29 66  1  0  0  0  0
 30 32  2  0  0  0  0
 30 67  1  0  0  0  0
 31 32  1  0  0  0  0
 31 68  1  0  0  0  0
 32 69  1  0  0  0  0
 33 35  2  0  0  0  0
 33 70  1  0  0  0  0
 34 35  1  0  0  0  0
 34 71  1  0  0  0  0
 35 72  1  0  0  0  0
M  END
> <PUBCHEM_COMPOUND_CID>
38028961

> <PUBCHEM_CONFORMER_RMSD>
1.2

> <PUBCHEM_CONFORMER_DIVERSEORDER>
1
26
90
62
81
56
93
8
12
24
89
55
95
92
38
23
13
19
77
57
86
21
71
40
44
35
37
76
79
10
41
87
18
33
61
2
47
29
58
78
51
48
54
73
63
36
27
82
39
59
53
84
15
30
49
91
43
25
32
70
22
65
20
83
6
52
11
74
5
68
75
42
94
16
46
28
72
50
60
7
45
80
17
14
69
31
4
66
67
85
34
9
3
64
88

> <PUBCHEM_MMFF94_PARTIAL_CHARGES>
40
1 -0.57
11 0.14
13 -0.28
14 -0.29
15 0.06
16 0.3
19 0.14
2 -0.57
20 0.57
21 0.3
22 0.3
23 0.37
24 0.37
25 0.54
26 0.41
27 0.4
28 -0.15
29 -0.15
3 -0.66
30 -0.15
31 0.16
32 -0.15
33 -0.15
34 0.16
35 -0.15
4 -0.73
42 0.15
5 -0.84
56 0.37
6 -0.62
65 0.15
66 0.15
67 0.15
68 0.15
69 0.15
7 -0.62
70 0.15
71 0.15
72 0.15
9 0.14

> <PUBCHEM_EFFECTIVE_ROTOR_COUNT>
11

> <PUBCHEM_PHARMACOPHORE_FEATURES>
11
1 1 acceptor
1 2 acceptor
1 4 donor
1 5 cation
1 6 acceptor
1 7 acceptor
3 12 17 18 hydrophobe
6 3 5 21 22 23 24 rings
6 6 26 28 30 31 32 rings
6 7 27 29 33 34 35 rings
6 8 9 10 11 13 14 rings

> <PUBCHEM_HEAVY_ATOM_COUNT>
35

> <PUBCHEM_ATOM_DEF_STEREO_COUNT>
3

> <PUBCHEM_ATOM_UDEF_STEREO_COUNT>
0

> <PUBCHEM_BOND_DEF_STEREO_COUNT>
0

> <PUBCHEM_BOND_UDEF_STEREO_COUNT>
0

> <PUBCHEM_ISOTOPIC_ATOM_COUNT>
0

> <PUBCHEM_COMPONENT_COUNT>
1

> <PUBCHEM_CACTVS_TAUTO_COUNT>
2

> <PUBCHEM_CONFORMER_ID>
024446A100000001

> <PUBCHEM_MMFF94_ENERGY>
97.0517

> <PUBCHEM_FEATURE_SELFOVERLAP>
55.822

> <PUBCHEM_SHAPE_FINGERPRINT>
10305334 12 18059304141310153593
11524674 6 18342450435455007807
11763389 116 18339357475314428206
12522641 33 17897426313250119949
13947930 73 18189909775617035731
14725015 67 18338231695771651599
14950920 106 18201726188347366024
15320294 125 18040425578127150238
15326923 133 17985273971925668582
15444296 8 16153721912112277765
16112460 7 18199190590227251130
17627616 140 18117262679895613422
18603816 31 17315044759170355512
19611394 137 18270950350591566112
20578428 11 16741108314204114357
20764821 26 18338246950699012791
20771845 38 18262791874690359275
20775530 9 17404315478097533711
229767 44 18411705417161385242
238918 7 18272661146759013470
3383291 50 18341324582840914551
484985 159 18334574634077146077
5080951 261 18335406998548752520
5085150 59 18263065661337674655

> <PUBCHEM_SHAPE_MULTIPOLES>
683.64
15.61
5.87
2.47
38.25
8.59
-0.33
-1.79
-4.92
-5.31
0.35
-3.25
-1.37
0

> <PUBCHEM_SHAPE_SELFOVERLAP>
1440.843

> <PUBCHEM_SHAPE_VOLUME>
379.1

> <PUBCHEM_COORDINATE_TYPE>
2
5
10

$$$$
