51137566
  -OEChem-12032416223D

 45 48  0     1  0  0  0  0  0999 V2000
    3.5445    0.0000   -0.3435 O   0  0  0  0  0  0  0  0  0  0  0  0
   -0.5011   -0.0794   -0.0602 N   0  0  1  0  0  0  0  0  0  0  0  0
    3.8679   -2.0558    0.4771 N   0  0  0  0  0  0  0  0  0  0  0  0
   -4.4159    2.0771    0.1417 N   0  0  0  0  0  0  0  0  0  0  0  0
    5.0712   -1.6052   -0.0328 N   0  0  0  0  0  0  0  0  0  0  0  0
    1.5376   -1.0147    0.6241 C   0  0  2  0  0  0  0  0  0  0  0  0
    0.6386   -0.8209   -0.6043 C   0  0  0  0  0  0  0  0  0  0  0  0
    1.1547    0.1349    1.5724 C   0  0  0  0  0  0  0  0  0  0  0  0
    0.0901    0.9257    0.8231 C   0  0  0  0  0  0  0  0  0  0  0  0
   -1.3255    0.5147   -1.1021 C   0  0  0  0  0  0  0  0  0  0  0  0
    3.0061   -1.0868    0.2742 C   0  0  0  0  0  0  0  0  0  0  0  0
   -2.6925    0.8860   -0.5919 C   0  0  0  0  0  0  0  0  0  0  0  0
   -3.7721   -0.0048   -0.3357 C   0  0  0  0  0  0  0  0  0  0  0  0
   -3.1189    2.1585   -0.2889 C   0  0  0  0  0  0  0  0  0  0  0  0
   -4.8410    0.7678    0.1235 C   0  0  0  0  0  0  0  0  0  0  0  0
    4.8353   -0.4020   -0.5012 C   0  0  0  0  0  0  0  0  0  0  0  0
   -3.9431   -1.3988   -0.4508 C   0  0  0  0  0  0  0  0  0  0  0  0
    5.7499    0.5446   -1.1516 C   0  0  0  0  0  0  0  0  0  0  0  0
   -6.0771    0.2140    0.4749 C   0  0  0  0  0  0  0  0  0  0  0  0
    6.6774    1.2712   -0.1536 C   0  0  0  0  0  0  0  0  0  0  0  0
   -5.1743   -1.9666   -0.1030 C   0  0  0  0  0  0  0  0  0  0  0  0
   -6.2235   -1.1707    0.3525 C   0  0  0  0  0  0  0  0  0  0  0  0
    5.9118    2.1115    0.8562 C   0  0  0  0  0  0  0  0  0  0  0  0
    1.2701   -1.9606    1.1154 H   0  0  0  0  0  0  0  0  0  0  0  0
    0.3304   -1.7842   -1.0253 H   0  0  0  0  0  0  0  0  0  0  0  0
    1.1472   -0.2500   -1.3924 H   0  0  0  0  0  0  0  0  0  0  0  0
    0.7325   -0.2820    2.4953 H   0  0  0  0  0  0  0  0  0  0  0  0
    2.0013    0.7706    1.8526 H   0  0  0  0  0  0  0  0  0  0  0  0
    0.5653    1.7390    0.2595 H   0  0  0  0  0  0  0  0  0  0  0  0
   -0.6383    1.3587    1.5158 H   0  0  0  0  0  0  0  0  0  0  0  0
   -1.4773   -0.2129   -1.9116 H   0  0  0  0  0  0  0  0  0  0  0  0
   -0.8394    1.3823   -1.5677 H   0  0  0  0  0  0  0  0  0  0  0  0
   -2.6170    3.1147   -0.3398 H   0  0  0  0  0  0  0  0  0  0  0  0
   -4.9803    2.8637    0.4315 H   0  0  0  0  0  0  0  0  0  0  0  0
   -3.1354   -2.0337   -0.8038 H   0  0  0  0  0  0  0  0  0  0  0  0
    5.1833    1.2868   -1.7267 H   0  0  0  0  0  0  0  0  0  0  0  0
    6.3713    0.0004   -1.8726 H   0  0  0  0  0  0  0  0  0  0  0  0
   -6.8945    0.8327    0.8296 H   0  0  0  0  0  0  0  0  0  0  0  0
    7.3585    1.9198   -0.7167 H   0  0  0  0  0  0  0  0  0  0  0  0
    7.2956    0.5402    0.3813 H   0  0  0  0  0  0  0  0  0  0  0  0
   -5.3119   -3.0412   -0.1896 H   0  0  0  0  0  0  0  0  0  0  0  0
   -7.1712   -1.6327    0.6172 H   0  0  0  0  0  0  0  0  0  0  0  0
    6.6115    2.6687    1.4874 H   0  0  0  0  0  0  0  0  0  0  0  0
    5.2955    1.4911    1.5141 H   0  0  0  0  0  0  0  0  0  0  0  0
    5.2615    2.8343    0.3532 H   0  0  0  0  0  0  0  0  0  0  0  0
  1 11  1  0  0  0  0
  1 16  1  0  0  0  0
  2  7  1  0  0  0  0
  2  9  1  0  0  0  0
  2 10  1  0  0  0  0
  3  5  1  0  0  0  0
  3 11  2  0  0  0  0
  4 14  1  0  0  0  0
  4 15  1  0  0  0  0
  4 34  1  0  0  0  0
  5 16  2  0  0  0  0
  6  7  1  0  0  0  0
  6  8  1  0  0  0  0
  6 11  1  0  0  0  0
  6 24  1  0  0  0  0
  7 25  1  0  0  0  0
  7 26  1  0  0  0  0
  8  9  1  0  0  0  0
  8 27  1  0  0  0  0
  8 28  1  0  0  0  0
  9 29  1  0  0  0  0
  9 30  1  0  0  0  0
 10 12  1  0  0  0  0
 10 31  1  0  0  0  0
 10 32  1  0  0  0  0
 12 13  1  0  0  0  0
 12 14  2  0  0  0  0
 13 15  1  0  0  0  0
 13 17  2  0  0  0  0
 14 33  1  0  0  0  0
 15 19  2  0  0  0  0
 16 18  1  0  0  0  0
 17 21  1  0  0  0  0
 17 35  1  0  0  0  0
 18 20  1  0  0  0  0
 18 36  1  0  0  0  0
 18 37  1  0  0  0  0
 19 22  1  0  0  0  0
 19 38  1  0  0  0  0
 20 23  1  0  0  0  0
 20 39  1  0  0  0  0
 20 40  1  0  0  0  0
 21 22  2  0  0  0  0
 21 41  1  0  0  0  0
 22 42  1  0  0  0  0
 23 43  1  0  0  0  0
 23 44  1  0  0  0  0
 23 45  1  0  0  0  0
M  END
> <PUBCHEM_COMPOUND_CID>
51137566

> <PUBCHEM_CONFORMER_RMSD>
1

> <PUBCHEM_CONFORMER_DIVERSEORDER>
1
103
86
22
88
77
41
105
46
117
84
45
112
23
82
39
94
29
15
48
114
34
20
78
110
120
99
116
92
36
24
100
74
63
79
90
8
70
56
3
68
51
119
17
113
80
108
87
59
118
25
104
47
71
55
52
16
97
11
37
64
35
28
58
38
106
95
75
44
33
5
101
27
19
60
2
111
4
93
61
14
115
54
49
57
102
50
73
53
83
91
85
69
31
40
18
26
62
9
13
10
21
42
65
98
6
81
109
89
7
43
12
107
66
96
32
30
72
76
67

> <PUBCHEM_MMFF94_PARTIAL_CHARGES>
25
1 -0.28
10 0.45
11 0.3
12 -0.18
14 -0.3
15 -0.15
16 0.3
17 -0.15
18 0.18
19 -0.15
2 -0.81
21 -0.15
22 -0.15
3 -0.34
33 0.15
34 0.27
35 0.15
38 0.15
4 0.03
41 0.15
42 0.15
5 -0.34
6 0.18
7 0.27
9 0.27

> <PUBCHEM_EFFECTIVE_ROTOR_COUNT>
6

> <PUBCHEM_PHARMACOPHORE_FEATURES>
8
1 2 cation
1 23 hydrophobe
1 4 cation
1 4 donor
5 1 3 5 11 16 rings
5 2 6 7 8 9 rings
5 4 12 13 14 15 rings
6 13 15 17 19 21 22 rings

> <PUBCHEM_HEAVY_ATOM_COUNT>
23

> <PUBCHEM_ATOM_DEF_STEREO_COUNT>
1

> <PUBCHEM_ATOM_UDEF_STEREO_COUNT>
0

> <PUBCHEM_BOND_DEF_STEREO_COUNT>
0

> <PUBCHEM_BOND_UDEF_STEREO_COUNT>
0

> <PUBCHEM_ISOTOPIC_ATOM_COUNT>
0

> <PUBCHEM_COMPONENT_COUNT>
1

> <PUBCHEM_CACTVS_TAUTO_COUNT>
1

> <PUBCHEM_CONFORMER_ID>
030C4C1E00000001

> <PUBCHEM_MMFF94_ENERGY>
29.0452

> <PUBCHEM_FEATURE_SELFOVERLAP>
40.689

> <PUBCHEM_SHAPE_FINGERPRINT>
10366900 7 18059841841303426143
10595046 47 18334295340436893390
10968037 39 18187366541366984439
11287383 113 18411136931316307394
11315181 36 18410014343314715497
11524674 6 16702582732062172351
11719270 70 12540689327854891136
11724838 91 17894629292812039340
12107183 9 17469878883756685323
12236239 1 17895196571723379319
12730499 353 18411984663725003466
12788726 201 16988567862282408658
12821665 9 18116724091017073260
13073987 5 18408885109795709592
13167823 11 18261389979884492259
13533116 47 17023177173042801794
13914758 101 8862674494584325591
14251732 16 18410012160606087964
14251758 9 13758076311404441107
14341114 176 18413390930095440377
14461889 52 18261392295409701778
14528608 73 18408045100429555126
14856354 85 16845576448141532861
14933364 13 18343586243877794980
15537594 2 16343982486044708678
17349148 13 14923953305744826862
173720 79 14923942371069302018
17834072 33 18334859402565226862
17844677 252 18340493266039621640
18335252 98 18410862083369009730
19377110 9 17822282479401764624
200 152 15719393906849781135
20567600 75 8070037666090752040
21267235 1 18336270124420794019
21521721 280 18272374208636084282
22079108 93 18186800296909746990
22849341 161 14979958098589113531
22950370 63 18411418380275346419
2297311 6 18272375261245871837
23402539 116 17022905601711828087
23424782 7 18338802320103494170
23522609 53 18197524907257343857
23559900 14 18337945784104286481
23569914 2 17613664424730836676
3246875 12 18265893747621950168
335352 9 18410852163033455141
34797466 226 17988932179985454004
351380 180 9295279543603832671
394071 54 15482090766139869322
4073 2 18113905974080431618
4325135 7 18333452057946904998
4340502 62 18113896070539857626
44317340 157 17703507787994739944
497634 4 18409168771169724253
5104073 3 18334572395839438160
5312625 73 18412542150126544544
53794403 172 18045506563399401580
67856867 119 18187936135260637189
6913067 236 16081081576257422342
7495541 125 18342735217429753528

> <PUBCHEM_SHAPE_MULTIPOLES>
447.54
17.99
2.08
1.01
7.71
0.22
0.09
1.31
-0.28
-0.1
0.16
0.55
0.12
0.19

> <PUBCHEM_SHAPE_SELFOVERLAP>
967.37

> <PUBCHEM_SHAPE_VOLUME>
249.5

> <PUBCHEM_COORDINATE_TYPE>
2
5
10

$$$$
