7675150
  -OEChem-12032416413D

 47 50  0     1  0  0  0  0  0999 V2000
    0.4754    2.0487    0.8207 O   0  0  0  0  0  0  0  0  0  0  0  0
    2.4688   -2.0658    0.2385 O   0  0  0  0  0  0  0  0  0  0  0  0
   -4.3534   -2.3221   -0.6766 O   0  0  0  0  0  0  0  0  0  0  0  0
    0.3517   -1.2282   -0.3071 N   0  0  0  0  0  0  0  0  0  0  0  0
    1.8209    0.1458    0.6403 N   0  0  0  0  0  0  0  0  0  0  0  0
   -2.4017   -1.3257    0.0678 N   0  0  0  0  0  0  0  0  0  0  0  0
   -5.7657    1.5396    1.0352 N   0  0  0  0  0  0  0  0  0  0  0  0
   -0.3719    0.0208   -0.2046 C   0  0  1  0  0  0  0  0  0  0  0  0
   -1.6448   -0.1763    0.6039 C   0  0  0  0  0  0  0  0  0  0  0  0
   -0.3489   -2.4134   -0.7713 C   0  0  0  0  0  0  0  0  0  0  0  0
   -1.6446   -2.5874    0.0222 C   0  0  0  0  0  0  0  0  0  0  0  0
    0.6673    0.8879    0.4833 C   0  0  0  0  0  0  0  0  0  0  0  0
    1.6532   -1.1541    0.1896 C   0  0  0  0  0  0  0  0  0  0  0  0
    3.0306    0.6542    1.2552 C   0  0  2  0  0  0  0  0  0  0  0  0
   -3.7573   -1.3095   -0.3055 C   0  0  0  0  0  0  0  0  0  0  0  0
    4.1872    0.6489    0.2789 C   0  0  0  0  0  0  0  0  0  0  0  0
    3.3451   -0.1132    2.5378 C   0  0  0  0  0  0  0  0  0  0  0  0
   -4.4531   -0.0294   -0.2429 C   0  0  0  0  0  0  0  0  0  0  0  0
    4.3528    1.7230   -0.5780 C   0  0  0  0  0  0  0  0  0  0  0  0
    5.0536   -0.4303    0.2640 C   0  0  0  0  0  0  0  0  0  0  0  0
    5.4185    1.7179   -1.4782 C   0  0  0  0  0  0  0  0  0  0  0  0
    6.1192   -0.4354   -0.6360 C   0  0  0  0  0  0  0  0  0  0  0  0
   -4.4789    0.8196   -1.3396 C   0  0  0  0  0  0  0  0  0  0  0  0
   -5.1030    0.3678    0.9106 C   0  0  0  0  0  0  0  0  0  0  0  0
    6.3016    0.6387   -1.5070 C   0  0  0  0  0  0  0  0  0  0  0  0
   -5.1505    2.0338   -1.2500 C   0  0  0  0  0  0  0  0  0  0  0  0
   -5.7723    2.3442   -0.0512 C   0  0  0  0  0  0  0  0  0  0  0  0
   -0.5676    0.3910   -1.2164 H   0  0  0  0  0  0  0  0  0  0  0  0
   -1.4186   -0.4061    1.6529 H   0  0  0  0  0  0  0  0  0  0  0  0
   -2.2319    0.7444    0.6029 H   0  0  0  0  0  0  0  0  0  0  0  0
    0.2945   -3.2928   -0.6723 H   0  0  0  0  0  0  0  0  0  0  0  0
   -0.5703   -2.2602   -1.8334 H   0  0  0  0  0  0  0  0  0  0  0  0
   -2.2432   -3.3938   -0.4117 H   0  0  0  0  0  0  0  0  0  0  0  0
   -1.4213   -2.8599    1.0607 H   0  0  0  0  0  0  0  0  0  0  0  0
    2.8538    1.6957    1.5556 H   0  0  0  0  0  0  0  0  0  0  0  0
    4.2723    0.2450    2.9998 H   0  0  0  0  0  0  0  0  0  0  0  0
    2.5395    0.0437    3.2659 H   0  0  0  0  0  0  0  0  0  0  0  0
    3.4242   -1.1967    2.4097 H   0  0  0  0  0  0  0  0  0  0  0  0
    3.6689    2.5667   -0.5644 H   0  0  0  0  0  0  0  0  0  0  0  0
    4.9494   -1.2897    0.9157 H   0  0  0  0  0  0  0  0  0  0  0  0
    5.5602    2.5538   -2.1569 H   0  0  0  0  0  0  0  0  0  0  0  0
    6.8063   -1.2762   -0.6603 H   0  0  0  0  0  0  0  0  0  0  0  0
   -3.9806    0.5484   -2.2662 H   0  0  0  0  0  0  0  0  0  0  0  0
   -5.1143   -0.2568    1.7985 H   0  0  0  0  0  0  0  0  0  0  0  0
    7.1310    0.6343   -2.2082 H   0  0  0  0  0  0  0  0  0  0  0  0
   -5.1857    2.7159   -2.0917 H   0  0  0  0  0  0  0  0  0  0  0  0
   -6.3092    3.2792    0.0700 H   0  0  0  0  0  0  0  0  0  0  0  0
  1 12  2  0  0  0  0
  2 13  2  0  0  0  0
  3 15  2  0  0  0  0
  4  8  1  0  0  0  0
  4 10  1  0  0  0  0
  4 13  1  0  0  0  0
  5 12  1  0  0  0  0
  5 13  1  0  0  0  0
  5 14  1  0  0  0  0
  6  9  1  0  0  0  0
  6 11  1  0  0  0  0
  6 15  1  0  0  0  0
  7 24  1  0  0  0  0
  7 27  2  0  0  0  0
  8  9  1  0  0  0  0
  8 12  1  0  0  0  0
  8 28  1  0  0  0  0
  9 29  1  0  0  0  0
  9 30  1  0  0  0  0
 10 11  1  0  0  0  0
 10 31  1  0  0  0  0
 10 32  1  0  0  0  0
 11 33  1  0  0  0  0
 11 34  1  0  0  0  0
 14 16  1  0  0  0  0
 14 17  1  0  0  0  0
 14 35  1  0  0  0  0
 15 18  1  0  0  0  0
 16 19  2  0  0  0  0
 16 20  1  0  0  0  0
 17 36  1  0  0  0  0
 17 37  1  0  0  0  0
 17 38  1  0  0  0  0
 18 23  1  0  0  0  0
 18 24  2  0  0  0  0
 19 21  1  0  0  0  0
 19 39  1  0  0  0  0
 20 22  2  0  0  0  0
 20 40  1  0  0  0  0
 21 25  2  0  0  0  0
 21 41  1  0  0  0  0
 22 25  1  0  0  0  0
 22 42  1  0  0  0  0
 23 26  2  0  0  0  0
 23 43  1  0  0  0  0
 24 44  1  0  0  0  0
 25 45  1  0  0  0  0
 26 27  1  0  0  0  0
 26 46  1  0  0  0  0
 27 47  1  0  0  0  0
M  END
> <PUBCHEM_COMPOUND_CID>
7675150

> <PUBCHEM_CONFORMER_RMSD>
0.8

> <PUBCHEM_CONFORMER_DIVERSEORDER>
1
9
26
79
63
50
100
84
83
57
90
76
62
80
91
53
85
5
60
11
49
4
95
32
25
41
38
75
6
12
22
43
89
86
81
54
92
52
42
66
40
73
23
39
94
61
34
74
37
46
21
99
93
55
24
33
51
28
96
65
68
87
31
82
77
10
3
64
36
72
69
2
56
78
88
35
98
27
44
47
67
58
70
48
7
59
45
18
13
97
8
71
14
20
17
29
15
30
19
16

> <PUBCHEM_MMFF94_PARTIAL_CHARGES>
35
1 -0.57
10 0.3
11 0.3
12 0.57
13 0.69
14 0.44
15 0.54
16 -0.14
18 0.09
19 -0.15
2 -0.57
20 -0.15
21 -0.15
22 -0.15
23 -0.15
24 0.16
25 -0.15
26 -0.15
27 0.16
3 -0.57
39 0.15
4 -0.66
40 0.15
41 0.15
42 0.15
43 0.15
44 0.15
45 0.15
46 0.15
47 0.15
5 -0.42
6 -0.66
7 -0.62
8 0.36
9 0.3

> <PUBCHEM_EFFECTIVE_ROTOR_COUNT>
5

> <PUBCHEM_PHARMACOPHORE_FEATURES>
8
1 1 acceptor
1 2 acceptor
1 3 acceptor
1 7 acceptor
5 4 5 8 12 13 rings
6 16 19 20 21 22 25 rings
6 4 6 8 9 10 11 rings
6 7 18 23 24 26 27 rings

> <PUBCHEM_HEAVY_ATOM_COUNT>
27

> <PUBCHEM_ATOM_DEF_STEREO_COUNT>
2

> <PUBCHEM_ATOM_UDEF_STEREO_COUNT>
0

> <PUBCHEM_BOND_DEF_STEREO_COUNT>
0

> <PUBCHEM_BOND_UDEF_STEREO_COUNT>
0

> <PUBCHEM_ISOTOPIC_ATOM_COUNT>
0

> <PUBCHEM_COMPONENT_COUNT>
1

> <PUBCHEM_CACTVS_TAUTO_COUNT>
1

> <PUBCHEM_CONFORMER_ID>
00751D0E00000001

> <PUBCHEM_MMFF94_ENERGY>
72.8995

> <PUBCHEM_FEATURE_SELFOVERLAP>
40.715

> <PUBCHEM_SHAPE_FINGERPRINT>
10 15 17967820427651660457
10554248 39 18043228198495085183
10670039 82 18271812284937708048
10906281 52 18199763474344809467
11089746 13 16988552498730683984
12236239 1 18113899390475340774
12390115 104 18341617018926935975
12403259 415 18060134392499737627
12422481 6 17603580803116411388
12596602 18 16515684420967400769
12616971 3 17458892813160046410
12670543 26 18131074822667973916
12730499 353 15068337909341668320
12788726 201 18263359209473418352
12954195 1 17702962343953464440
13690498 29 18055356004959887151
14211702 104 10879999081238473756
14251751 18 11312053248987684941
14251757 5 18410295851664708049
14347329 18 18410570682422139529
14790565 3 18335703892152074444
14931854 50 17988350474416785557
15183329 4 18410011044030824236
15188451 53 11671785936141485940
15238133 3 18336251402035553842
15629462 23 15265673746020335064
15685185 35 16300666263955533940
1601671 61 18410290315636668124
17349148 13 11671513334519456426
17857418 61 11024108745922518005
18608769 82 18338242678092919131
19377110 9 15357706292211461623
20567600 247 13614241451797305732
21033648 29 17845923130350145811
21279426 13 18131071536912549156
21298829 104 17896330284682941980
21421861 104 17824247229440202938
2215653 11 17346885546363592974
22393880 68 17560508590829720847
23081809 10 17968088746510456178
23402539 116 11743847966743499947
23559900 14 17775281716232058272
23569914 152 16338370380806914765
3004659 81 18410014352025950062
3545911 37 18202001028147450507
392239 28 7853575729340256903
4015057 19 14332838361187933771
4058900 60 18262243213887487691
4340502 62 16443351957538188410
5104073 3 18334285504793091874
542803 24 17894347791437848794
5718773 13 9943220642679189597
59755656 215 17988647341716936980
59755656 520 17417266411050398803
6086070 43 17703784833994908186
6328613 192 18409452496324169404
6431902 208 9799689299060479421

> <PUBCHEM_SHAPE_MULTIPOLES>
518.12
16
2.52
1.43
0.3
0.54
-0.42
-8.35
3.77
-2.32
0.6
1.1
-0.34
-0.86

> <PUBCHEM_SHAPE_SELFOVERLAP>
1130.935

> <PUBCHEM_SHAPE_VOLUME>
279.7

> <PUBCHEM_COORDINATE_TYPE>
2
5
10

$$$$
