40777891
  -OEChem-12032416183D

 56 58  0     1  0  0  0  0  0999 V2000
    1.3333   -3.8072   -2.2407 F   0  0  0  0  0  0  0  0  0  0  0  0
   -2.3876    0.9739    0.7887 O   0  0  0  0  0  0  0  0  0  0  0  0
   -4.6122    1.8618   -1.0867 O   0  0  0  0  0  0  0  0  0  0  0  0
   -5.0490   -0.8394   -0.8017 O   0  0  0  0  0  0  0  0  0  0  0  0
    2.2745    2.9358    1.6743 O   0  0  0  0  0  0  0  0  0  0  0  0
   -0.1199    2.8608    0.2380 O   0  0  0  0  0  0  0  0  0  0  0  0
   -0.3267   -0.5265    2.3655 O   0  0  0  0  0  0  0  0  0  0  0  0
    1.4106    1.6666   -1.0217 N   0  0  0  0  0  0  0  0  0  0  0  0
   -1.8385   -1.7887    1.1388 N   0  0  0  0  0  0  0  0  0  0  0  0
   -2.3084    1.5354   -0.5415 C   0  0  2  0  0  0  0  0  0  0  0  0
   -3.5060    0.9884   -1.3106 C   0  0  1  0  0  0  0  0  0  0  0  0
   -3.7397   -0.3421   -0.6255 C   0  0  1  0  0  0  0  0  0  0  0  0
   -3.4527    0.0077    0.8251 C   0  0  1  0  0  0  0  0  0  0  0  0
    2.5869    2.4534   -0.6445 C   0  0  2  0  0  0  0  0  0  0  0  0
   -0.9730    1.1201   -1.1437 C   0  0  0  0  0  0  0  0  0  0  0  0
    3.6401    2.0523   -1.6804 C   0  0  0  0  0  0  0  0  0  0  0  0
    1.7584    0.6212   -1.9807 C   0  0  0  0  0  0  0  0  0  0  0  0
    3.2793    0.6085   -2.0098 C   0  0  0  0  0  0  0  0  0  0  0  0
    0.1350    1.9694   -0.5736 C   0  0  0  0  0  0  0  0  0  0  0  0
   -3.0302   -1.1877    1.6603 C   0  0  0  0  0  0  0  0  0  0  0  0
    3.0332    2.1408    0.7824 C   0  0  0  0  0  0  0  0  0  0  0  0
   -0.5615   -1.4044    1.5391 C   0  0  0  0  0  0  0  0  0  0  0  0
    2.6359    2.6988    3.0304 C   0  0  0  0  0  0  0  0  0  0  0  0
    0.5720   -2.1068    0.8845 C   0  0  0  0  0  0  0  0  0  0  0  0
    0.4174   -2.6378   -0.3961 C   0  0  0  0  0  0  0  0  0  0  0  0
    1.7910   -2.2355    1.5504 C   0  0  0  0  0  0  0  0  0  0  0  0
    1.4816   -3.2974   -1.0109 C   0  0  0  0  0  0  0  0  0  0  0  0
    2.8552   -2.8953    0.9357 C   0  0  0  0  0  0  0  0  0  0  0  0
    2.7007   -3.4260   -0.3450 C   0  0  0  0  0  0  0  0  0  0  0  0
   -2.3873    2.6244   -0.4444 H   0  0  0  0  0  0  0  0  0  0  0  0
   -3.3617    0.9019   -2.3912 H   0  0  0  0  0  0  0  0  0  0  0  0
   -3.0312   -1.0792   -1.0193 H   0  0  0  0  0  0  0  0  0  0  0  0
   -4.3245    0.4786    1.2962 H   0  0  0  0  0  0  0  0  0  0  0  0
    2.3397    3.5183   -0.7326 H   0  0  0  0  0  0  0  0  0  0  0  0
   -0.9865    1.2799   -2.2277 H   0  0  0  0  0  0  0  0  0  0  0  0
   -0.7627    0.0690   -0.9402 H   0  0  0  0  0  0  0  0  0  0  0  0
    4.6712    2.1642   -1.3335 H   0  0  0  0  0  0  0  0  0  0  0  0
    3.5210    2.6664   -2.5821 H   0  0  0  0  0  0  0  0  0  0  0  0
    1.3467    0.9098   -2.9539 H   0  0  0  0  0  0  0  0  0  0  0  0
    1.3354   -0.3390   -1.6902 H   0  0  0  0  0  0  0  0  0  0  0  0
    3.6784    0.2763   -2.9720 H   0  0  0  0  0  0  0  0  0  0  0  0
    3.6652   -0.0591   -1.2303 H   0  0  0  0  0  0  0  0  0  0  0  0
   -3.8140   -1.9518    1.6742 H   0  0  0  0  0  0  0  0  0  0  0  0
   -2.8376   -0.8717    2.6916 H   0  0  0  0  0  0  0  0  0  0  0  0
    4.0906    2.4010    0.9095 H   0  0  0  0  0  0  0  0  0  0  0  0
    2.9011    1.0782    1.0198 H   0  0  0  0  0  0  0  0  0  0  0  0
   -4.4076    2.7075   -1.5209 H   0  0  0  0  0  0  0  0  0  0  0  0
   -5.2045   -0.9195   -1.7582 H   0  0  0  0  0  0  0  0  0  0  0  0
   -1.9612   -2.5598    0.4912 H   0  0  0  0  0  0  0  0  0  0  0  0
    2.0193    3.3389    3.6668 H   0  0  0  0  0  0  0  0  0  0  0  0
    3.6881    2.9490    3.1963 H   0  0  0  0  0  0  0  0  0  0  0  0
    2.4484    1.6544    3.2986 H   0  0  0  0  0  0  0  0  0  0  0  0
   -0.5049   -2.5357   -0.9599 H   0  0  0  0  0  0  0  0  0  0  0  0
    1.9298   -1.8308    2.5495 H   0  0  0  0  0  0  0  0  0  0  0  0
    3.8044   -2.9955    1.4540 H   0  0  0  0  0  0  0  0  0  0  0  0
    3.5293   -3.9390   -0.8241 H   0  0  0  0  0  0  0  0  0  0  0  0
  1 27  1  0  0  0  0
  2 10  1  0  0  0  0
  2 13  1  0  0  0  0
  3 11  1  0  0  0  0
  3 47  1  0  0  0  0
  4 12  1  0  0  0  0
  4 48  1  0  0  0  0
  5 21  1  0  0  0  0
  5 23  1  0  0  0  0
  6 19  2  0  0  0  0
  7 22  2  0  0  0  0
  8 14  1  0  0  0  0
  8 17  1  0  0  0  0
  8 19  1  0  0  0  0
  9 20  1  0  0  0  0
  9 22  1  0  0  0  0
  9 49  1  0  0  0  0
 10 11  1  0  0  0  0
 10 15  1  0  0  0  0
 10 30  1  0  0  0  0
 11 12  1  0  0  0  0
 11 31  1  0  0  0  0
 12 13  1  0  0  0  0
 12 32  1  0  0  0  0
 13 20  1  0  0  0  0
 13 33  1  0  0  0  0
 14 16  1  0  0  0  0
 14 21  1  0  0  0  0
 14 34  1  0  0  0  0
 15 19  1  0  0  0  0
 15 35  1  0  0  0  0
 15 36  1  0  0  0  0
 16 18  1  0  0  0  0
 16 37  1  0  0  0  0
 16 38  1  0  0  0  0
 17 18  1  0  0  0  0
 17 39  1  0  0  0  0
 17 40  1  0  0  0  0
 18 41  1  0  0  0  0
 18 42  1  0  0  0  0
 20 43  1  0  0  0  0
 20 44  1  0  0  0  0
 21 45  1  0  0  0  0
 21 46  1  0  0  0  0
 22 24  1  0  0  0  0
 23 50  1  0  0  0  0
 23 51  1  0  0  0  0
 23 52  1  0  0  0  0
 24 25  2  0  0  0  0
 24 26  1  0  0  0  0
 25 27  1  0  0  0  0
 25 53  1  0  0  0  0
 26 28  2  0  0  0  0
 26 54  1  0  0  0  0
 27 29  2  0  0  0  0
 28 29  1  0  0  0  0
 28 55  1  0  0  0  0
 29 56  1  0  0  0  0
M  END
> <PUBCHEM_COMPOUND_CID>
40777891

> <PUBCHEM_CONFORMER_RMSD>
1.2

> <PUBCHEM_CONFORMER_DIVERSEORDER>
2
4
76
125
40
128
99
48
9
127
61
108
106
49
55
26
97
52
101
45
23
15
56
98
62
102
37
60
95
107
33
75
126
90
28
35
79
11
39
130
87
69
110
53
115
14
10
85
119
3
93
129
42
31
114
121
19
122
27
30
116
112
22
32
89
66
21
77
54
132
109
25
91
65
29
44
82
104
57
120
38
86
131
94
17
103
117
73
34
80
47
83
113
68
64
36
71
88
1
51
70
118
124
67
59
72
16
63
41
6
24
81
46
13
96
50
20
111
18
123
105
92
58
43
100
78
74
8
84
7
5
12

> <PUBCHEM_MMFF94_PARTIAL_CHARGES>
34
1 -0.19
10 0.28
11 0.28
12 0.28
13 0.28
14 0.3
15 0.06
17 0.3
19 0.57
2 -0.56
20 0.3
21 0.28
22 0.54
23 0.28
24 0.09
25 -0.15
26 -0.15
27 0.19
28 -0.15
29 -0.15
3 -0.68
4 -0.68
47 0.4
48 0.4
49 0.37
5 -0.56
53 0.15
54 0.15
55 0.15
56 0.15
6 -0.57
7 -0.57
8 -0.66
9 -0.73

> <PUBCHEM_EFFECTIVE_ROTOR_COUNT>
11

> <PUBCHEM_PHARMACOPHORE_FEATURES>
12
1 2 acceptor
1 3 acceptor
1 3 donor
1 4 acceptor
1 4 donor
1 5 acceptor
1 6 acceptor
1 7 acceptor
1 9 donor
5 2 10 11 12 13 rings
5 8 14 16 17 18 rings
6 24 25 26 27 28 29 rings

> <PUBCHEM_HEAVY_ATOM_COUNT>
29

> <PUBCHEM_ATOM_DEF_STEREO_COUNT>
5

> <PUBCHEM_ATOM_UDEF_STEREO_COUNT>
0

> <PUBCHEM_BOND_DEF_STEREO_COUNT>
0

> <PUBCHEM_BOND_UDEF_STEREO_COUNT>
0

> <PUBCHEM_ISOTOPIC_ATOM_COUNT>
0

> <PUBCHEM_COMPONENT_COUNT>
1

> <PUBCHEM_CACTVS_TAUTO_COUNT>
2

> <PUBCHEM_CONFORMER_ID>
026E38A300000002

> <PUBCHEM_MMFF94_ENERGY>
71.323

> <PUBCHEM_FEATURE_SELFOVERLAP>
60.916

> <PUBCHEM_SHAPE_FINGERPRINT>
1100329 8 17613728020052189709
11578080 2 16515673425756353303
12156800 1 15622244525131223126
12422481 6 18043221644907293472
12788726 201 17398675601547663522
13149001 5 17897176723334997803
133893 2 18115604650699014769
14251764 3 18128257981099177144
16752209 62 17754455977674166448
17492 54 17244163530741798910
20567600 347 18188765171153693839
20600515 1 17469022385483449676
20775438 99 18190436390844030383
20905425 154 18114760294504365263
22182313 1 17531261564904683627
23419403 2 17612267958962701748
23557571 272 17547561587983519266
23559900 14 18261663766964558829
238 59 18410304609345715414
3298306 158 18261115217935955573
35225 105 17979070819035770384
469060 322 14613187674663114168
5265222 85 17899717914393906956
59755656 215 17970073455784021523
6287921 2 18200026227342980947
81228 2 17187295006567203982

> <PUBCHEM_SHAPE_MULTIPOLES>
544.35
7.07
4.83
2.43
6.87
2.64
0.94
-2.39
-1.56
-4.92
-0.03
-1.65
-0.54
1.38

> <PUBCHEM_SHAPE_SELFOVERLAP>
1143.468

> <PUBCHEM_SHAPE_VOLUME>
308.3

> <PUBCHEM_COORDINATE_TYPE>
2
5
10

$$$$
