9391198
  -OEChem-12032416153D

 61 65  0     1  0  0  0  0  0999 V2000
    3.9124    2.0367    0.2548 S   0  0  0  0  0  0  0  0  0  0  0  0
   -0.9736    0.8192   -3.6778 O   0  0  0  0  0  0  0  0  0  0  0  0
   -1.7033   -0.4131    2.0667 O   0  0  0  0  0  0  0  0  0  0  0  0
    4.0909    2.2185   -1.1734 O   0  0  0  0  0  0  0  0  0  0  0  0
    4.1007    3.1524    1.1627 O   0  0  0  0  0  0  0  0  0  0  0  0
   -7.7762    1.4295    0.6786 O   0  0  0  0  0  0  0  0  0  0  0  0
    0.2509   -0.2306   -1.9775 N   0  0  0  0  0  0  0  0  0  0  0  0
   -0.7771   -1.9085    0.5628 N   0  0  0  0  0  0  0  0  0  0  0  0
    2.4228    1.3008    0.5558 N   0  0  0  0  0  0  0  0  0  0  0  0
   -3.1151   -1.6058    0.6643 N   0  0  0  0  0  0  0  0  0  0  0  0
    0.1537   -2.7609   -1.6054 C   0  0  2  0  0  0  0  0  0  0  0  0
    1.5490   -1.3656   -0.1452 C   0  0  2  0  0  0  0  0  0  0  0  0
    1.5585   -2.5934   -1.0532 C   0  0  0  0  0  0  0  0  0  0  0  0
   -0.1666   -1.5459   -2.4783 C   0  0  0  0  0  0  0  0  0  0  0  0
   -0.8760   -2.9476   -0.4741 C   0  0  0  0  0  0  0  0  0  0  0  0
    0.5847   -1.6179    1.0271 C   0  0  0  0  0  0  0  0  0  0  0  0
    1.1385   -0.0975   -0.8914 C   0  0  0  0  0  0  0  0  0  0  0  0
    1.5553    1.1396   -0.5502 C   0  0  0  0  0  0  0  0  0  0  0  0
   -0.2121    0.8795   -2.7119 C   0  0  0  0  0  0  0  0  0  0  0  0
   -1.8660   -1.2369    1.1630 C   0  0  0  0  0  0  0  0  0  0  0  0
    1.1265    2.3113   -1.2593 C   0  0  0  0  0  0  0  0  0  0  0  0
    0.2778    2.2154   -2.2839 C   0  0  0  0  0  0  0  0  0  0  0  0
   -4.3026   -0.8332    0.6683 C   0  0  0  0  0  0  0  0  0  0  0  0
    5.0142    0.7502    0.7639 C   0  0  0  0  0  0  0  0  0  0  0  0
   -5.4940   -1.3920    0.2141 C   0  0  0  0  0  0  0  0  0  0  0  0
   -4.2710    0.4816    1.1253 C   0  0  0  0  0  0  0  0  0  0  0  0
    5.4295   -0.1890   -0.1636 C   0  0  0  0  0  0  0  0  0  0  0  0
    5.4396    0.7076    2.0799 C   0  0  0  0  0  0  0  0  0  0  0  0
   -6.6627   -0.6304    0.2168 C   0  0  0  0  0  0  0  0  0  0  0  0
   -5.4396    1.2433    1.1282 C   0  0  0  0  0  0  0  0  0  0  0  0
    6.2980   -1.2038    0.2380 C   0  0  0  0  0  0  0  0  0  0  0  0
    6.3082   -0.3073    2.4814 C   0  0  0  0  0  0  0  0  0  0  0  0
   -6.6356    0.6872    0.6739 C   0  0  0  0  0  0  0  0  0  0  0  0
    6.7374   -1.2630    1.5604 C   0  0  0  0  0  0  0  0  0  0  0  0
   -7.6770    2.7695    1.1592 C   0  0  0  0  0  0  0  0  0  0  0  0
    0.1123   -3.6561   -2.2383 H   0  0  0  0  0  0  0  0  0  0  0  0
    2.5656   -1.2685    0.2503 H   0  0  0  0  0  0  0  0  0  0  0  0
    1.8579   -3.4860   -0.4902 H   0  0  0  0  0  0  0  0  0  0  0  0
    2.2846   -2.4689   -1.8665 H   0  0  0  0  0  0  0  0  0  0  0  0
    0.3383   -1.6664   -3.4469 H   0  0  0  0  0  0  0  0  0  0  0  0
   -1.2402   -1.5105   -2.7032 H   0  0  0  0  0  0  0  0  0  0  0  0
   -1.8707   -2.9971   -0.9199 H   0  0  0  0  0  0  0  0  0  0  0  0
   -0.6992   -3.9046    0.0316 H   0  0  0  0  0  0  0  0  0  0  0  0
    0.9141   -2.4919    1.6031 H   0  0  0  0  0  0  0  0  0  0  0  0
    0.5856   -0.7690    1.7184 H   0  0  0  0  0  0  0  0  0  0  0  0
    1.4712    3.2889   -0.9390 H   0  0  0  0  0  0  0  0  0  0  0  0
   -0.0680    3.0895   -2.8229 H   0  0  0  0  0  0  0  0  0  0  0  0
    2.4445    0.5089    1.2087 H   0  0  0  0  0  0  0  0  0  0  0  0
   -3.2233   -2.5393    0.2828 H   0  0  0  0  0  0  0  0  0  0  0  0
   -5.5283   -2.4173   -0.1447 H   0  0  0  0  0  0  0  0  0  0  0  0
   -3.3677    0.9790    1.4562 H   0  0  0  0  0  0  0  0  0  0  0  0
    5.0911   -0.1651   -1.1948 H   0  0  0  0  0  0  0  0  0  0  0  0
    5.1106    1.4374    2.8131 H   0  0  0  0  0  0  0  0  0  0  0  0
   -7.5913   -1.0690   -0.1380 H   0  0  0  0  0  0  0  0  0  0  0  0
   -5.3468    2.2621    1.4891 H   0  0  0  0  0  0  0  0  0  0  0  0
    6.6301   -1.9496   -0.4784 H   0  0  0  0  0  0  0  0  0  0  0  0
    6.6489   -0.3549    3.5116 H   0  0  0  0  0  0  0  0  0  0  0  0
    7.4127   -2.0539    1.8734 H   0  0  0  0  0  0  0  0  0  0  0  0
   -7.0175    3.3752    0.5286 H   0  0  0  0  0  0  0  0  0  0  0  0
   -8.6767    3.2113    1.0930 H   0  0  0  0  0  0  0  0  0  0  0  0
   -7.3842    2.7980    2.2142 H   0  0  0  0  0  0  0  0  0  0  0  0
  1  4  2  0  0  0  0
  1  5  2  0  0  0  0
  1  9  1  0  0  0  0
  1 24  1  0  0  0  0
  2 19  2  0  0  0  0
  3 20  2  0  0  0  0
  6 33  1  0  0  0  0
  6 35  1  0  0  0  0
  7 14  1  0  0  0  0
  7 17  1  0  0  0  0
  7 19  1  0  0  0  0
  8 15  1  0  0  0  0
  8 16  1  0  0  0  0
  8 20  1  0  0  0  0
  9 18  1  0  0  0  0
  9 48  1  0  0  0  0
 10 20  1  0  0  0  0
 10 23  1  0  0  0  0
 10 49  1  0  0  0  0
 11 13  1  0  0  0  0
 11 14  1  0  0  0  0
 11 15  1  0  0  0  0
 11 36  1  0  0  0  0
 12 13  1  0  0  0  0
 12 16  1  0  0  0  0
 12 17  1  0  0  0  0
 12 37  1  0  0  0  0
 13 38  1  0  0  0  0
 13 39  1  0  0  0  0
 14 40  1  0  0  0  0
 14 41  1  0  0  0  0
 15 42  1  0  0  0  0
 15 43  1  0  0  0  0
 16 44  1  0  0  0  0
 16 45  1  0  0  0  0
 17 18  2  0  0  0  0
 18 21  1  0  0  0  0
 19 22  1  0  0  0  0
 21 22  2  0  0  0  0
 21 46  1  0  0  0  0
 22 47  1  0  0  0  0
 23 25  2  0  0  0  0
 23 26  1  0  0  0  0
 24 27  2  0  0  0  0
 24 28  1  0  0  0  0
 25 29  1  0  0  0  0
 25 50  1  0  0  0  0
 26 30  2  0  0  0  0
 26 51  1  0  0  0  0
 27 31  1  0  0  0  0
 27 52  1  0  0  0  0
 28 32  2  0  0  0  0
 28 53  1  0  0  0  0
 29 33  2  0  0  0  0
 29 54  1  0  0  0  0
 30 33  1  0  0  0  0
 30 55  1  0  0  0  0
 31 34  2  0  0  0  0
 31 56  1  0  0  0  0
 32 34  1  0  0  0  0
 32 57  1  0  0  0  0
 34 58  1  0  0  0  0
 35 59  1  0  0  0  0
 35 60  1  0  0  0  0
 35 61  1  0  0  0  0
M  END
> <PUBCHEM_COMPOUND_CID>
9391198

> <PUBCHEM_CONFORMER_RMSD>
1

> <PUBCHEM_CONFORMER_DIVERSEORDER>
1
48
7
34
38
41
10
42
29
30
20
44
26
45
16
31
43
40
28
9
50
15
27
46
14
39
49
32
33
23
25
24
22
35
12
8
21
6
19
37
18
2
11
36
13
4
47
17
3
5

> <PUBCHEM_MMFF94_PARTIAL_CHARGES>
46
1 1.45
10 -0.55
12 0.14
14 0.3
15 0.3
16 0.3
17 -0.03
18 0.19
19 0.62
2 -0.57
20 0.69
21 -0.15
22 -0.14
23 0.12
24 -0.01
25 -0.15
26 -0.15
27 -0.15
28 -0.15
29 -0.15
3 -0.57
30 -0.15
31 -0.15
32 -0.15
33 0.08
34 -0.15
35 0.28
4 -0.65
46 0.15
47 0.15
48 0.42
49 0.37
5 -0.65
50 0.15
51 0.15
52 0.15
53 0.15
54 0.15
55 0.15
56 0.15
57 0.15
58 0.15
6 -0.36
7 -0.47
8 -0.66
9 -0.75

> <PUBCHEM_EFFECTIVE_ROTOR_COUNT>
8

> <PUBCHEM_PHARMACOPHORE_FEATURES>
12
1 10 donor
1 2 acceptor
1 3 acceptor
1 4 acceptor
1 5 acceptor
1 6 acceptor
1 9 donor
6 23 25 26 29 30 33 rings
6 24 27 28 31 32 34 rings
6 7 11 12 13 14 17 rings
6 7 17 18 19 21 22 rings
6 8 11 12 13 15 16 rings

> <PUBCHEM_HEAVY_ATOM_COUNT>
35

> <PUBCHEM_ATOM_DEF_STEREO_COUNT>
2

> <PUBCHEM_ATOM_UDEF_STEREO_COUNT>
0

> <PUBCHEM_BOND_DEF_STEREO_COUNT>
0

> <PUBCHEM_BOND_UDEF_STEREO_COUNT>
0

> <PUBCHEM_ISOTOPIC_ATOM_COUNT>
0

> <PUBCHEM_COMPONENT_COUNT>
1

> <PUBCHEM_CACTVS_TAUTO_COUNT>
2

> <PUBCHEM_CONFORMER_ID>
008F4C5E00000001

> <PUBCHEM_MMFF94_ENERGY>
104.4984

> <PUBCHEM_FEATURE_SELFOVERLAP>
62.466

> <PUBCHEM_SHAPE_FINGERPRINT>
10190108 129 17313384474704982514
10439779 11 18338807835337653481
10692045 39 18335141998523543283
10764073 3 18260828181018963606
11374522 184 8934699112428123338
11672396 43 17677617639325336139
11961588 58 14549016602399887902
11991303 11 15697706107935936383
12107183 9 18334010627139413442
12422481 6 18259701215901923254
12633257 1 16950850335773164231
13150687 139 15841559573922283636
13617811 41 13039182593798874907
14347424 109 18335134324208321608
14767858 380 11240001161245367802
15131766 46 17982443000409729632
15420108 30 18413100684405991807
16067689 68 17774139272296626318
173720 79 16343986927125281686
17492 54 14261352461788190695
17974551 9 17974854174620988152
17980427 23 18408602591495698839
20775438 99 12175629481591064460
21133410 230 17897728652624065742
21304303 282 17345742127080124223
21403212 168 18131347480240830450
21521721 280 11671788203457021774
21774942 28 17560249011775984673
22121540 332 17986381192475739608
24893992 56 17022908965546849523
2838139 119 18272367611787668643
3552219 110 14707212102527694646
4112364 45 18201725080614425329
513202 73 17023450972221668806
513532 50 18199770088895022535
57359948 33 15480715109806327913
6201320 77 16443896155332436763
6669772 16 15482671286498653278
77296 10 17346324824918593174

> <PUBCHEM_SHAPE_MULTIPOLES>
674.86
17.91
3.18
2.58
16.22
0.2
1.77
7.65
-14.06
0.13
0.64
-1.31
0.48
-0.87

> <PUBCHEM_SHAPE_SELFOVERLAP>
1459.693

> <PUBCHEM_SHAPE_VOLUME>
368.3

> <PUBCHEM_COORDINATE_TYPE>
2
5
10

$$$$
