26743608
  -OEChem-12032416183D

 46 49  0     1  0  0  0  0  0999 V2000
    6.6398   -1.5718   -0.5386 F   0  0  0  0  0  0  0  0  0  0  0  0
    5.9217   -1.9940    1.4698 F   0  0  0  0  0  0  0  0  0  0  0  0
    6.9610   -0.1308    1.0500 F   0  0  0  0  0  0  0  0  0  0  0  0
   -4.7739    2.9421    2.2126 O   0  0  0  0  0  0  0  0  0  0  0  0
   -0.4714    2.7306   -1.5201 O   0  0  0  0  0  0  0  0  0  0  0  0
   -3.0993    0.6723    0.0183 N   0  0  1  0  0  0  0  0  0  0  0  0
   -0.1392    1.0555   -0.0709 N   0  0  0  0  0  0  0  0  0  0  0  0
    0.9018    2.4566   -1.5498 N   0  0  0  0  0  0  0  0  0  0  0  0
   -2.5050    1.9555   -0.4078 C   0  0  1  0  0  0  0  0  0  0  0  0
   -2.8847    2.9532    0.7022 C   0  0  0  0  0  0  0  0  0  0  0  0
   -3.7292    2.1494    1.6830 C   0  0  2  0  0  0  0  0  0  0  0  0
   -4.2614    1.0067    0.8394 C   0  0  0  0  0  0  0  0  0  0  0  0
   -3.4481   -0.1977   -1.0973 C   0  0  0  0  0  0  0  0  0  0  0  0
   -1.0093    1.8618   -0.6244 C   0  0  0  0  0  0  0  0  0  0  0  0
   -3.5762   -1.6353   -0.6685 C   0  0  0  0  0  0  0  0  0  0  0  0
    1.0190    1.4579   -0.6696 C   0  0  0  0  0  0  0  0  0  0  0  0
   -2.4629   -2.4752   -0.7011 C   0  0  0  0  0  0  0  0  0  0  0  0
   -4.8084   -2.1273   -0.2384 C   0  0  0  0  0  0  0  0  0  0  0  0
    2.2781    0.8418   -0.3649 C   0  0  0  0  0  0  0  0  0  0  0  0
   -2.5819   -3.8070   -0.3039 C   0  0  0  0  0  0  0  0  0  0  0  0
   -4.9275   -3.4591    0.1591 C   0  0  0  0  0  0  0  0  0  0  0  0
   -3.8141   -4.2989    0.1262 C   0  0  0  0  0  0  0  0  0  0  0  0
    2.3397   -0.1966    0.5645 C   0  0  0  0  0  0  0  0  0  0  0  0
    3.4407    1.2805   -0.9984 C   0  0  0  0  0  0  0  0  0  0  0  0
    3.5638   -0.7960    0.8605 C   0  0  0  0  0  0  0  0  0  0  0  0
    4.6649    0.6812   -0.7025 C   0  0  0  0  0  0  0  0  0  0  0  0
    4.7265   -0.3570    0.2270 C   0  0  0  0  0  0  0  0  0  0  0  0
    6.0353   -0.9980    0.5435 C   0  0  0  0  0  0  0  0  0  0  0  0
   -2.9726    2.2992   -1.3415 H   0  0  0  0  0  0  0  0  0  0  0  0
   -2.0166    3.3847    1.2137 H   0  0  0  0  0  0  0  0  0  0  0  0
   -3.4608    3.7870    0.2818 H   0  0  0  0  0  0  0  0  0  0  0  0
   -3.1117    1.7707    2.5069 H   0  0  0  0  0  0  0  0  0  0  0  0
   -4.5832    0.1797    1.4802 H   0  0  0  0  0  0  0  0  0  0  0  0
   -5.1251    1.3341    0.2456 H   0  0  0  0  0  0  0  0  0  0  0  0
   -2.6643   -0.1589   -1.8665 H   0  0  0  0  0  0  0  0  0  0  0  0
   -4.3613    0.1332   -1.6106 H   0  0  0  0  0  0  0  0  0  0  0  0
   -4.3649    3.6938    2.6743 H   0  0  0  0  0  0  0  0  0  0  0  0
   -1.4961   -2.1037   -1.0311 H   0  0  0  0  0  0  0  0  0  0  0  0
   -5.6856   -1.4864   -0.2133 H   0  0  0  0  0  0  0  0  0  0  0  0
   -1.7149   -4.4607   -0.3286 H   0  0  0  0  0  0  0  0  0  0  0  0
   -5.8872   -3.8426    0.4929 H   0  0  0  0  0  0  0  0  0  0  0  0
   -3.9069   -5.3358    0.4355 H   0  0  0  0  0  0  0  0  0  0  0  0
    1.4512   -0.5612    1.0743 H   0  0  0  0  0  0  0  0  0  0  0  0
    3.4318    2.0864   -1.7280 H   0  0  0  0  0  0  0  0  0  0  0  0
    3.5904   -1.6033    1.5873 H   0  0  0  0  0  0  0  0  0  0  0  0
    5.5657    1.0295   -1.2009 H   0  0  0  0  0  0  0  0  0  0  0  0
  1 28  1  0  0  0  0
  2 28  1  0  0  0  0
  3 28  1  0  0  0  0
  4 11  1  0  0  0  0
  4 37  1  0  0  0  0
  5  8  1  0  0  0  0
  5 14  1  0  0  0  0
  6  9  1  0  0  0  0
  6 12  1  0  0  0  0
  6 13  1  0  0  0  0
  7 14  2  0  0  0  0
  7 16  1  0  0  0  0
  8 16  2  0  0  0  0
  9 10  1  0  0  0  0
  9 14  1  0  0  0  0
  9 29  1  0  0  0  0
 10 11  1  0  0  0  0
 10 30  1  0  0  0  0
 10 31  1  0  0  0  0
 11 12  1  0  0  0  0
 11 32  1  0  0  0  0
 12 33  1  0  0  0  0
 12 34  1  0  0  0  0
 13 15  1  0  0  0  0
 13 35  1  0  0  0  0
 13 36  1  0  0  0  0
 15 17  2  0  0  0  0
 15 18  1  0  0  0  0
 16 19  1  0  0  0  0
 17 20  1  0  0  0  0
 17 38  1  0  0  0  0
 18 21  2  0  0  0  0
 18 39  1  0  0  0  0
 19 23  2  0  0  0  0
 19 24  1  0  0  0  0
 20 22  2  0  0  0  0
 20 40  1  0  0  0  0
 21 22  1  0  0  0  0
 21 41  1  0  0  0  0
 22 42  1  0  0  0  0
 23 25  1  0  0  0  0
 23 43  1  0  0  0  0
 24 26  2  0  0  0  0
 24 44  1  0  0  0  0
 25 27  2  0  0  0  0
 25 45  1  0  0  0  0
 26 27  1  0  0  0  0
 26 46  1  0  0  0  0
 27 28  1  0  0  0  0
M  END
> <PUBCHEM_COMPOUND_CID>
26743608

> <PUBCHEM_CONFORMER_RMSD>
0.8

> <PUBCHEM_CONFORMER_DIVERSEORDER>
1
22
10
38
20
29
7
9
34
28
5
27
17
14
31
24
32
8
11
30
33
13
4
37
23
3
21
36
6
25
16
19
12
15
18
2
35
26

> <PUBCHEM_MMFF94_PARTIAL_CHARGES>
37
1 -0.34
11 0.28
12 0.27
13 0.41
14 0.3
15 -0.14
16 0.46
17 -0.15
18 -0.15
19 0.05
2 -0.34
20 -0.15
21 -0.15
22 -0.15
23 -0.15
24 -0.15
25 -0.15
26 -0.15
27 -0.14
28 1.16
3 -0.34
37 0.4
38 0.15
39 0.15
4 -0.68
40 0.15
41 0.15
42 0.15
43 0.15
44 0.15
45 0.15
46 0.15
5 -0.02
6 -0.81
7 -0.57
8 -0.41
9 0.45

> <PUBCHEM_EFFECTIVE_ROTOR_COUNT>
6

> <PUBCHEM_PHARMACOPHORE_FEATURES>
8
1 4 acceptor
1 4 donor
1 6 cation
3 7 8 16 cation
5 5 7 8 14 16 rings
5 6 9 10 11 12 rings
6 15 17 18 20 21 22 rings
6 19 23 24 25 26 27 rings

> <PUBCHEM_HEAVY_ATOM_COUNT>
28

> <PUBCHEM_ATOM_DEF_STEREO_COUNT>
2

> <PUBCHEM_ATOM_UDEF_STEREO_COUNT>
0

> <PUBCHEM_BOND_DEF_STEREO_COUNT>
0

> <PUBCHEM_BOND_UDEF_STEREO_COUNT>
0

> <PUBCHEM_ISOTOPIC_ATOM_COUNT>
0

> <PUBCHEM_COMPONENT_COUNT>
1

> <PUBCHEM_CACTVS_TAUTO_COUNT>
1

> <PUBCHEM_CONFORMER_ID>
0198133800000001

> <PUBCHEM_MMFF94_ENERGY>
56.6954

> <PUBCHEM_FEATURE_SELFOVERLAP>
40.597

> <PUBCHEM_SHAPE_FINGERPRINT>
10305334 12 18337391544117960887
10319688 45 18335414647564279340
10319688 67 17703243836626782265
10483366 6 18189311539151087157
10622 236 18263354961919378823
10939801 23 18195241346956407326
11036077 4 18342460309896018177
11315621 246 18334579002100753630
11443803 9 17059210334012730025
117089 54 17900550278386699027
12107183 9 18124614217683840595
12174731 88 18261381201092925146
12422481 6 17917991655708018446
12549972 3 16196816101783921101
12616971 3 18113627759342646452
12760667 363 18340761659079049903
12788726 201 17982756335136719845
12988421 55 17841164251427719753
13009979 54 18338520849659094973
13540713 5 18263662808048235989
13583140 156 16702295728808130640
14705955 166 17131844136055731665
14844126 61 18202279238896534799
14856354 85 18201722817140663340
14866123 147 18340774819143538315
14950920 106 18273210893951311624
15250474 111 18407760352550881206
15348495 7 18059850650176167520
15439362 3 17326887384498277093
15537594 2 17968097465320304642
15728490 83 18260270784611990579
15799311 1 18339659845264121334
16728300 4 18045526324812560115
17492 89 18119526793807362607
17780758 139 18343016701102095049
17909252 39 17976826707039478282
20775530 9 18191291887703524039
21033648 29 16271939185537102533
21315759 148 17917712388380816302
229767 44 18411706452591167467
23522609 53 18118152245755167540
23559900 14 18268416005542104881
25147074 1 18261404385616149596
312425 54 18272646801968411152
397830 11 18201142348558545208
4017518 198 18197777700748082527
4073 2 18201720626965512522
4435113 14 17916042165710197142
484985 159 18408316692866203711
5104073 3 18272365391395539656
5486654 36 18411140259800203313
563151 248 18337972107689312403
563151 74 15841004264842230703
6058803 2 18192172575143322069
6679774 75 17756185269622353219
6691757 9 18130231459033075409
7970288 3 18263358264549061399
9981440 41 16271370678228225173

> <PUBCHEM_SHAPE_MULTIPOLES>
527.72
15.03
4.78
1.35
22.48
2.53
-0.29
9.96
-4.42
-8.56
-0.49
-0.27
-0.95
-3.07

> <PUBCHEM_SHAPE_SELFOVERLAP>
1152.98

> <PUBCHEM_SHAPE_VOLUME>
289.2

> <PUBCHEM_COORDINATE_TYPE>
2
5
10

$$$$
