75537111
  -OEChem-12032416343D

 37 39  0     1  0  0  0  0  0999 V2000
    4.4585    1.1763   -0.0139 O   0  0  0  0  0  0  0  0  0  0  0  0
    2.1770    0.6458   -0.1932 N   0  0  0  0  0  0  0  0  0  0  0  0
   -0.5835    0.7127    0.3419 N   0  0  2  0  0  0  0  0  0  0  0  0
    3.6648   -1.0365   -0.2092 N   0  0  0  0  0  0  0  0  0  0  0  0
   -3.6286    0.3512   -0.5283 N   0  0  0  0  0  0  0  0  0  0  0  0
   -3.2524   -1.3467    0.8529 N   0  0  0  0  0  0  0  0  0  0  0  0
    1.3835   -0.5385   -0.4475 C   0  0  2  0  0  0  0  0  0  0  0  0
    0.1550   -0.5608    0.4614 C   0  0  0  0  0  0  0  0  0  0  0  0
    2.3660   -1.6871   -0.2274 C   0  0  0  0  0  0  0  0  0  0  0  0
    1.5250    1.9377   -0.1400 C   0  0  0  0  0  0  0  0  0  0  0  0
    0.2690    1.8543    0.7310 C   0  0  0  0  0  0  0  0  0  0  0  0
    3.5485    0.3659   -0.1287 C   0  0  0  0  0  0  0  0  0  0  0  0
   -1.7941    0.6782    1.1620 C   0  0  0  0  0  0  0  0  0  0  0  0
    4.8977   -1.7884   -0.1298 C   0  0  0  0  0  0  0  0  0  0  0  0
   -2.8870   -0.1300    0.5146 C   0  0  0  0  0  0  0  0  0  0  0  0
   -4.5239   -0.6205   -0.8772 C   0  0  0  0  0  0  0  0  0  0  0  0
   -3.5032    1.6446   -1.1578 C   0  0  0  0  0  0  0  0  0  0  0  0
   -4.2724   -1.6582   -0.0109 C   0  0  0  0  0  0  0  0  0  0  0  0
    1.0797   -0.5006   -1.5020 H   0  0  0  0  0  0  0  0  0  0  0  0
    0.4581   -0.7251    1.5046 H   0  0  0  0  0  0  0  0  0  0  0  0
   -0.4723   -1.4091    0.1644 H   0  0  0  0  0  0  0  0  0  0  0  0
    2.2227   -2.1914    0.7339 H   0  0  0  0  0  0  0  0  0  0  0  0
    2.3269   -2.4226   -1.0364 H   0  0  0  0  0  0  0  0  0  0  0  0
    1.2631    2.2124   -1.1682 H   0  0  0  0  0  0  0  0  0  0  0  0
    2.2250    2.6867    0.2435 H   0  0  0  0  0  0  0  0  0  0  0  0
    0.5620    1.7631    1.7856 H   0  0  0  0  0  0  0  0  0  0  0  0
   -0.2842    2.7949    0.6228 H   0  0  0  0  0  0  0  0  0  0  0  0
   -2.1842    1.6925    1.3190 H   0  0  0  0  0  0  0  0  0  0  0  0
   -1.5888    0.2827    2.1656 H   0  0  0  0  0  0  0  0  0  0  0  0
    4.8990   -2.3635    0.7999 H   0  0  0  0  0  0  0  0  0  0  0  0
    5.7555   -1.1113   -0.1390 H   0  0  0  0  0  0  0  0  0  0  0  0
    4.9539   -2.4666   -0.9851 H   0  0  0  0  0  0  0  0  0  0  0  0
   -5.2370   -0.4985   -1.6806 H   0  0  0  0  0  0  0  0  0  0  0  0
   -3.6693    2.4188   -0.4051 H   0  0  0  0  0  0  0  0  0  0  0  0
   -2.5043    1.7282   -1.5921 H   0  0  0  0  0  0  0  0  0  0  0  0
   -4.2535    1.7374   -1.9476 H   0  0  0  0  0  0  0  0  0  0  0  0
   -4.7738   -2.6139    0.0347 H   0  0  0  0  0  0  0  0  0  0  0  0
  1 12  2  0  0  0  0
  2  7  1  0  0  0  0
  2 10  1  0  0  0  0
  2 12  1  0  0  0  0
  3  8  1  0  0  0  0
  3 11  1  0  0  0  0
  3 13  1  0  0  0  0
  4  9  1  0  0  0  0
  4 12  1  0  0  0  0
  4 14  1  0  0  0  0
  5 15  1  0  0  0  0
  5 16  1  0  0  0  0
  5 17  1  0  0  0  0
  6 15  2  0  0  0  0
  6 18  1  0  0  0  0
  7  8  1  0  0  0  0
  7  9  1  0  0  0  0
  7 19  1  0  0  0  0
  8 20  1  0  0  0  0
  8 21  1  0  0  0  0
  9 22  1  0  0  0  0
  9 23  1  0  0  0  0
 10 11  1  0  0  0  0
 10 24  1  0  0  0  0
 10 25  1  0  0  0  0
 11 26  1  0  0  0  0
 11 27  1  0  0  0  0
 13 15  1  0  0  0  0
 13 28  1  0  0  0  0
 13 29  1  0  0  0  0
 14 30  1  0  0  0  0
 14 31  1  0  0  0  0
 14 32  1  0  0  0  0
 16 18  2  0  0  0  0
 16 33  1  0  0  0  0
 17 34  1  0  0  0  0
 17 35  1  0  0  0  0
 17 36  1  0  0  0  0
 18 37  1  0  0  0  0
M  END
> <PUBCHEM_COMPOUND_CID>
75537111

> <PUBCHEM_CONFORMER_RMSD>
0.6

> <PUBCHEM_CONFORMER_DIVERSEORDER>
1
25
4
11
15
24
16
29
18
23
19
22
17
26
14
7
9
3
12
5
21
8
2
20
13
10
30
28
27
6

> <PUBCHEM_MMFF94_PARTIAL_CHARGES>
20
1 -0.57
10 0.3
11 0.27
12 0.69
13 0.45
14 0.3
15 0.01
16 -0.3
17 0.26
18 0.08
2 -0.66
3 -0.81
33 0.15
37 0.15
4 -0.66
5 0.05
6 -0.57
7 0.3
8 0.27
9 0.3

> <PUBCHEM_EFFECTIVE_ROTOR_COUNT>
3.2

> <PUBCHEM_PHARMACOPHORE_FEATURES>
6
1 1 acceptor
1 3 cation
3 5 6 15 cation
5 2 4 7 9 12 rings
5 5 6 15 16 18 rings
6 2 3 7 8 10 11 rings

> <PUBCHEM_HEAVY_ATOM_COUNT>
18

> <PUBCHEM_ATOM_DEF_STEREO_COUNT>
1

> <PUBCHEM_ATOM_UDEF_STEREO_COUNT>
0

> <PUBCHEM_BOND_DEF_STEREO_COUNT>
0

> <PUBCHEM_BOND_UDEF_STEREO_COUNT>
0

> <PUBCHEM_ISOTOPIC_ATOM_COUNT>
0

> <PUBCHEM_COMPONENT_COUNT>
1

> <PUBCHEM_CACTVS_TAUTO_COUNT>
1

> <PUBCHEM_CONFORMER_ID>
04809AD700000001

> <PUBCHEM_MMFF94_ENERGY>
30.9335

> <PUBCHEM_FEATURE_SELFOVERLAP>
30.544

> <PUBCHEM_SHAPE_FINGERPRINT>
11806522 49 18343022224271697768
13705890 14 18411138043401724128
14576447 43 18201435942862131526
15196674 1 18412265029803358850
17834072 14 18408321073178730104
18186145 218 17748827410353520105
193927 3 17988375775493788878
19433438 38 18333446560578643949
200 152 18273213084209837667
20281475 54 18341901778831136712
20645477 70 18413109433586065966
20671657 53 18343024401894249233
21250096 35 18272650138472243001
21267235 1 18342469127221556510
221357 26 18408597068273017469
221490 88 18264495150992186267
22393880 68 18187639172299404111
22646028 1 17988925573914217723
22646028 28 18060140946630302439
23402539 116 18341612556150018790
23403322 49 18411982455673891947
23557571 272 17604709014459320449
23559900 14 18337948996465036730
2871803 45 18407758131593801194
2916195 48 11531067204077359206
4028521 119 17385711483920984733
4214541 1 18408603626371606125
4921388 177 17095250254447942731
5104073 3 18342741801561916978
5281201 14 18113621209211298765
5283173 99 18188763934034827228
633830 44 16298678213012521660
9709674 26 18261960759647475955

> <PUBCHEM_SHAPE_MULTIPOLES>
339.66
9.99
2.06
0.93
0.61
0.16
0.02
-3.85
-1.92
0.53
-0.05
-0.79
0.15
0.5

> <PUBCHEM_SHAPE_SELFOVERLAP>
714.156

> <PUBCHEM_SHAPE_VOLUME>
193.6

> <PUBCHEM_COORDINATE_TYPE>
2
5
10

$$$$
