56775621
  -OEChem-12032416323D

 61 64  0     1  0  0  0  0  0999 V2000
    3.4340   -2.3786   -2.6489 O   0  0  0  0  0  0  0  0  0  0  0  0
   -1.0785   -3.5828    0.5922 O   0  0  0  0  0  0  0  0  0  0  0  0
    2.2239   -0.3046   -0.6681 N   0  0  0  0  0  0  0  0  0  0  0  0
    0.2425   -3.7309    0.1873 N   0  0  0  0  0  0  0  0  0  0  0  0
   -3.0422   -0.8299    1.3877 N   0  0  1  0  0  0  0  0  0  0  0  0
    2.6151   -1.7137   -0.7931 C   0  0  0  0  0  0  0  0  0  0  0  0
    2.9494    1.8596    0.2390 C   0  0  0  0  0  0  0  0  0  0  0  0
    3.0449    0.3388    0.3457 C   0  0  0  0  0  0  0  0  0  0  0  0
    3.8986    2.5336    1.2389 C   0  0  0  0  0  0  0  0  0  0  0  0
    1.5043    2.3283    0.4565 C   0  0  0  0  0  0  0  0  0  0  0  0
    3.9879   -1.7859   -1.4521 C   0  0  0  0  0  0  0  0  0  0  0  0
    2.0940   -2.2519   -2.1210 C   0  0  0  0  0  0  0  0  0  0  0  0
    2.3663   -2.5016    0.4565 C   0  0  0  0  0  0  0  0  0  0  0  0
    3.7824    4.0554    1.1887 C   0  0  0  0  0  0  0  0  0  0  0  0
    1.3921    3.8504    0.4073 C   0  0  0  0  0  0  0  0  0  0  0  0
    2.3433    4.5171    1.3963 C   0  0  0  0  0  0  0  0  0  0  0  0
    0.8809   -2.6739    0.6974 C   0  0  0  0  0  0  0  0  0  0  0  0
    0.0227   -1.8328    1.4263 C   0  0  0  0  0  0  0  0  0  0  0  0
   -1.1969   -2.4490    1.3293 C   0  0  0  0  0  0  0  0  0  0  0  0
   -2.5367   -2.1370    1.8413 C   0  0  0  0  0  0  0  0  0  0  0  0
   -3.5088   -0.9246    0.0088 C   0  0  0  0  0  0  0  0  0  0  0  0
   -4.1119   -0.3741    2.2684 C   0  0  0  0  0  0  0  0  0  0  0  0
   -3.5310    0.4195   -0.6691 C   0  0  0  0  0  0  0  0  0  0  0  0
   -4.6774    1.2118   -0.6104 C   0  0  0  0  0  0  0  0  0  0  0  0
   -2.4048    0.8724   -1.3561 C   0  0  0  0  0  0  0  0  0  0  0  0
   -4.6978    2.4570   -1.2387 C   0  0  0  0  0  0  0  0  0  0  0  0
   -2.4249    2.1175   -1.9843 C   0  0  0  0  0  0  0  0  0  0  0  0
   -3.5714    2.9099   -1.9258 C   0  0  0  0  0  0  0  0  0  0  0  0
    3.2623    2.1627   -0.7705 H   0  0  0  0  0  0  0  0  0  0  0  0
    4.1032    0.0643    0.2701 H   0  0  0  0  0  0  0  0  0  0  0  0
    2.7095    0.0471    1.3476 H   0  0  0  0  0  0  0  0  0  0  0  0
    3.6755    2.1889    2.2568 H   0  0  0  0  0  0  0  0  0  0  0  0
    4.9348    2.2449    1.0259 H   0  0  0  0  0  0  0  0  0  0  0  0
    0.8381    1.9102   -0.3069 H   0  0  0  0  0  0  0  0  0  0  0  0
    1.1369    1.9724    1.4278 H   0  0  0  0  0  0  0  0  0  0  0  0
    2.2892    0.2193   -1.5412 H   0  0  0  0  0  0  0  0  0  0  0  0
    4.5076   -0.8554   -1.7039 H   0  0  0  0  0  0  0  0  0  0  0  0
    4.7028   -2.4663   -0.9772 H   0  0  0  0  0  0  0  0  0  0  0  0
    1.6099   -3.2326   -2.0983 H   0  0  0  0  0  0  0  0  0  0  0  0
    1.4875   -1.5820   -2.7407 H   0  0  0  0  0  0  0  0  0  0  0  0
    2.8441   -2.0818    1.3479 H   0  0  0  0  0  0  0  0  0  0  0  0
    2.8034   -3.5053    0.3556 H   0  0  0  0  0  0  0  0  0  0  0  0
    4.1456    4.4170    0.2188 H   0  0  0  0  0  0  0  0  0  0  0  0
    4.4261    4.4994    1.9563 H   0  0  0  0  0  0  0  0  0  0  0  0
    0.3615    4.1509    0.6279 H   0  0  0  0  0  0  0  0  0  0  0  0
    1.6163    4.2001   -0.6080 H   0  0  0  0  0  0  0  0  0  0  0  0
    2.2856    5.6059    1.2870 H   0  0  0  0  0  0  0  0  0  0  0  0
    2.0287    4.2813    2.4204 H   0  0  0  0  0  0  0  0  0  0  0  0
    0.2537   -0.9150    1.9466 H   0  0  0  0  0  0  0  0  0  0  0  0
   -3.2511   -2.9364    1.6025 H   0  0  0  0  0  0  0  0  0  0  0  0
   -2.4481   -2.1345    2.9366 H   0  0  0  0  0  0  0  0  0  0  0  0
   -4.4965   -1.4024   -0.0596 H   0  0  0  0  0  0  0  0  0  0  0  0
   -2.8508   -1.5670   -0.5925 H   0  0  0  0  0  0  0  0  0  0  0  0
   -4.4215    0.6491    2.0376 H   0  0  0  0  0  0  0  0  0  0  0  0
   -4.9927   -1.0257    2.2307 H   0  0  0  0  0  0  0  0  0  0  0  0
   -3.7652   -0.3394    3.3083 H   0  0  0  0  0  0  0  0  0  0  0  0
   -5.5674    0.8682   -0.0900 H   0  0  0  0  0  0  0  0  0  0  0  0
   -1.5034    0.2669   -1.4065 H   0  0  0  0  0  0  0  0  0  0  0  0
   -5.5914    3.0728   -1.1954 H   0  0  0  0  0  0  0  0  0  0  0  0
   -1.5471    2.4708   -2.5175 H   0  0  0  0  0  0  0  0  0  0  0  0
   -3.5871    3.8794   -2.4151 H   0  0  0  0  0  0  0  0  0  0  0  0
  1 11  1  0  0  0  0
  1 12  1  0  0  0  0
  2  4  1  0  0  0  0
  2 19  1  0  0  0  0
  3  6  1  0  0  0  0
  3  8  1  0  0  0  0
  3 36  1  0  0  0  0
  4 17  2  0  0  0  0
  5 20  1  0  0  0  0
  5 21  1  0  0  0  0
  5 22  1  0  0  0  0
  6 11  1  0  0  0  0
  6 12  1  0  0  0  0
  6 13  1  0  0  0  0
  7  8  1  0  0  0  0
  7  9  1  0  0  0  0
  7 10  1  0  0  0  0
  7 29  1  0  0  0  0
  8 30  1  0  0  0  0
  8 31  1  0  0  0  0
  9 14  1  0  0  0  0
  9 32  1  0  0  0  0
  9 33  1  0  0  0  0
 10 15  1  0  0  0  0
 10 34  1  0  0  0  0
 10 35  1  0  0  0  0
 11 37  1  0  0  0  0
 11 38  1  0  0  0  0
 12 39  1  0  0  0  0
 12 40  1  0  0  0  0
 13 17  1  0  0  0  0
 13 41  1  0  0  0  0
 13 42  1  0  0  0  0
 14 16  1  0  0  0  0
 14 43  1  0  0  0  0
 14 44  1  0  0  0  0
 15 16  1  0  0  0  0
 15 45  1  0  0  0  0
 15 46  1  0  0  0  0
 16 47  1  0  0  0  0
 16 48  1  0  0  0  0
 17 18  1  0  0  0  0
 18 19  2  0  0  0  0
 18 49  1  0  0  0  0
 19 20  1  0  0  0  0
 20 50  1  0  0  0  0
 20 51  1  0  0  0  0
 21 23  1  0  0  0  0
 21 52  1  0  0  0  0
 21 53  1  0  0  0  0
 22 54  1  0  0  0  0
 22 55  1  0  0  0  0
 22 56  1  0  0  0  0
 23 24  2  0  0  0  0
 23 25  1  0  0  0  0
 24 26  1  0  0  0  0
 24 57  1  0  0  0  0
 25 27  2  0  0  0  0
 25 58  1  0  0  0  0
 26 28  2  0  0  0  0
 26 59  1  0  0  0  0
 27 28  1  0  0  0  0
 27 60  1  0  0  0  0
 28 61  1  0  0  0  0
M  END
> <PUBCHEM_COMPOUND_CID>
56775621

> <PUBCHEM_CONFORMER_RMSD>
1.4

> <PUBCHEM_CONFORMER_DIVERSEORDER>
2
20
87
99
62
69
128
33
75
74
127
30
78
101
35
66
95
115
122
83
17
36
52
94
46
109
103
68
110
59
4
29
117
47
64
93
67
106
123
121
49
80
41
58
112
25
100
44
72
63
26
124
31
102
34
14
56
37
24
55
70
10
23
130
54
125
27
39
86
51
32
18
3
116
57
105
1
132
79
16
92
111
113
13
126
38
48
131
9
5
73
91
71
43
90
45
11
22
107
118
114
120
61
84
15
6
50
98
42
81
89
53
96
7
88
76
12
97
65
108
85
119
133
8
40
82
129
60
21
77
28
19
104

> <PUBCHEM_MMFF94_PARTIAL_CHARGES>
29
1 -0.52
11 0.26
12 0.26
13 0.18
17 0.11
18 -0.15
19 -0.04
2 -0.02
20 0.45
21 0.41
22 0.27
23 -0.14
24 -0.15
25 -0.15
26 -0.15
27 -0.15
28 -0.15
3 -0.84
36 0.36
4 -0.41
49 0.15
5 -0.81
57 0.15
58 0.15
59 0.15
6 0.21
60 0.15
61 0.15
8 0.27

> <PUBCHEM_EFFECTIVE_ROTOR_COUNT>
11

> <PUBCHEM_PHARMACOPHORE_FEATURES>
9
1 1 acceptor
1 3 cation
1 3 donor
1 4 acceptor
1 5 cation
4 1 6 11 12 rings
5 2 4 17 18 19 rings
6 23 24 25 26 27 28 rings
6 7 9 10 14 15 16 rings

> <PUBCHEM_HEAVY_ATOM_COUNT>
28

> <PUBCHEM_ATOM_DEF_STEREO_COUNT>
0

> <PUBCHEM_ATOM_UDEF_STEREO_COUNT>
0

> <PUBCHEM_BOND_DEF_STEREO_COUNT>
0

> <PUBCHEM_BOND_UDEF_STEREO_COUNT>
0

> <PUBCHEM_ISOTOPIC_ATOM_COUNT>
0

> <PUBCHEM_COMPONENT_COUNT>
1

> <PUBCHEM_CACTVS_TAUTO_COUNT>
1

> <PUBCHEM_CONFORMER_ID>
036253C500000002

> <PUBCHEM_MMFF94_ENERGY>
54.4675

> <PUBCHEM_FEATURE_SELFOVERLAP>
45.672

> <PUBCHEM_SHAPE_FINGERPRINT>
10764073 3 17971162908640341826
12100795 323 17977101584719964841
12788726 201 17404582173643444660
13402501 40 18334853947988760241
13617811 41 17313949590003150677
13642711 20 18267010683256910382
14114206 34 17764334759301574308
14114207 22 15306455147685386263
14347329 18 17604447197020793086
14932702 115 17972068935611154708
15351339 4 17469309349666358721
17974551 9 17168965834104341850
19309040 13 17272881885195258857
20600515 1 15876135623748989674
23536364 44 17905067858121386406
238918 7 18266733778452579816
25019877 29 16117712094132210990
3187 122 17321273741281064307
4371632 12 18264464288143505765
46194498 28 18201440298281230047
463206 1 17256239350458297617
4742675 86 17620453036746601868
5081480 168 17916047710137643156
508706 21 18187083979141153063
9862522 239 17765988790062059128

> <PUBCHEM_SHAPE_MULTIPOLES>
549.55
9.17
6.29
2.27
4.96
2.98
0.56
5.69
1.3
-4.82
-1.18
0.54
-0.51
5.9

> <PUBCHEM_SHAPE_SELFOVERLAP>
1151.214

> <PUBCHEM_SHAPE_VOLUME>
312.3

> <PUBCHEM_COORDINATE_TYPE>
2
5
10

$$$$
