11911512
  -OEChem-12032416163D

 63 67  0     1  0  0  0  0  0999 V2000
   -2.0229   -2.5208    0.8834 O   0  0  0  0  0  0  0  0  0  0  0  0
    1.2026   -0.2784   -2.5523 O   0  0  0  0  0  0  0  0  0  0  0  0
   -6.5631   -1.7781   -1.1076 O   0  0  0  0  0  0  0  0  0  0  0  0
   -8.8102    0.3098    0.5187 O   0  0  0  0  0  0  0  0  0  0  0  0
    4.9248    1.5395    1.8683 O   0  0  0  0  0  0  0  0  0  0  0  0
    9.1940    1.5104   -0.2393 O   0  0  0  0  0  0  0  0  0  0  0  0
   -0.5818   -0.3346   -1.0682 N   0  0  0  0  0  0  0  0  0  0  0  0
   -4.6774    0.7674   -0.2355 N   0  0  0  0  0  0  0  0  0  0  0  0
    0.2605   -2.4153    0.8606 N   0  0  0  0  0  0  0  0  0  0  0  0
   -4.6932    2.1040   -0.1495 N   0  0  0  0  0  0  0  0  0  0  0  0
   -5.9472    2.4624    0.1035 N   0  0  0  0  0  0  0  0  0  0  0  0
   -6.1607   -1.8731    1.1340 N   0  0  0  0  0  0  0  0  0  0  0  0
   -8.7225    2.5852    0.6225 N   0  0  0  0  0  0  0  0  0  0  0  0
   -3.4171    0.0650   -0.5071 C   0  0  2  0  0  0  0  0  0  0  0  0
   -1.0288   -0.3956    0.3185 C   0  0  1  0  0  0  0  0  0  0  0  0
   -2.3721    0.2935    0.5927 C   0  0  0  0  0  0  0  0  0  0  0  0
   -2.8195    0.4269   -1.8696 C   0  0  0  0  0  0  0  0  0  0  0  0
   -1.5830   -0.4178   -2.1358 C   0  0  0  0  0  0  0  0  0  0  0  0
   -0.9972   -1.8681    0.6867 C   0  0  0  0  0  0  0  0  0  0  0  0
    0.7679   -0.4289   -1.4097 C   0  0  0  0  0  0  0  0  0  0  0  0
    1.7464   -0.8037   -0.3540 C   0  0  0  0  0  0  0  0  0  0  0  0
   -5.9075    0.2286   -0.0429 C   0  0  0  0  0  0  0  0  0  0  0  0
    1.5106   -1.8065    0.6049 C   0  0  0  0  0  0  0  0  0  0  0  0
   -6.7036    1.3255    0.1720 C   0  0  0  0  0  0  0  0  0  0  0  0
    3.0327   -0.2518   -0.4791 C   0  0  0  0  0  0  0  0  0  0  0  0
    2.5887   -2.2789    1.3711 C   0  0  0  0  0  0  0  0  0  0  0  0
    4.0794   -0.6987    0.3259 C   0  0  0  0  0  0  0  0  0  0  0  0
   -6.2346   -1.1600   -0.0682 C   0  0  0  0  0  0  0  0  0  0  0  0
    3.8609   -1.7216    1.2413 C   0  0  0  0  0  0  0  0  0  0  0  0
   -8.1098    1.3430    0.4325 C   0  0  0  0  0  0  0  0  0  0  0  0
    5.3971   -0.1167    0.1911 C   0  0  0  0  0  0  0  0  0  0  0  0
    5.7795    0.9812    0.9640 C   0  0  0  0  0  0  0  0  0  0  0  0
    6.2941   -0.6664   -0.7266 C   0  0  0  0  0  0  0  0  0  0  0  0
    7.0547    1.5277    0.8195 C   0  0  0  0  0  0  0  0  0  0  0  0
    7.5692   -0.1198   -0.8711 C   0  0  0  0  0  0  0  0  0  0  0  0
    7.9495    0.9773   -0.0980 C   0  0  0  0  0  0  0  0  0  0  0  0
    4.0818    2.5889    1.3988 C   0  0  0  0  0  0  0  0  0  0  0  0
   10.0579    0.8983   -1.1956 C   0  0  0  0  0  0  0  0  0  0  0  0
   -3.6688   -1.0021   -0.5247 H   0  0  0  0  0  0  0  0  0  0  0  0
   -0.2935    0.1153    0.9541 H   0  0  0  0  0  0  0  0  0  0  0  0
   -2.7727   -0.0203    1.5651 H   0  0  0  0  0  0  0  0  0  0  0  0
   -2.1821    1.3726    0.6777 H   0  0  0  0  0  0  0  0  0  0  0  0
   -2.5508    1.4907   -1.8965 H   0  0  0  0  0  0  0  0  0  0  0  0
   -3.5563    0.2641   -2.6651 H   0  0  0  0  0  0  0  0  0  0  0  0
   -1.8602   -1.4753   -2.2265 H   0  0  0  0  0  0  0  0  0  0  0  0
   -1.1384   -0.1254   -3.0931 H   0  0  0  0  0  0  0  0  0  0  0  0
    0.2885   -3.3224    1.3199 H   0  0  0  0  0  0  0  0  0  0  0  0
    3.2236    0.5175   -1.2261 H   0  0  0  0  0  0  0  0  0  0  0  0
    2.4403   -3.0700    2.1036 H   0  0  0  0  0  0  0  0  0  0  0  0
    4.6677   -2.0962    1.8667 H   0  0  0  0  0  0  0  0  0  0  0  0
   -5.8900   -1.4304    2.0064 H   0  0  0  0  0  0  0  0  0  0  0  0
   -6.3757   -2.8640    1.1664 H   0  0  0  0  0  0  0  0  0  0  0  0
    6.0142   -1.5217   -1.3375 H   0  0  0  0  0  0  0  0  0  0  0  0
   -8.2023    3.4556    0.5733 H   0  0  0  0  0  0  0  0  0  0  0  0
   -9.7158    2.6521    0.8178 H   0  0  0  0  0  0  0  0  0  0  0  0
    7.3529    2.3824    1.4216 H   0  0  0  0  0  0  0  0  0  0  0  0
    8.2137   -0.5963   -1.6018 H   0  0  0  0  0  0  0  0  0  0  0  0
    3.1695    2.5934    2.0016 H   0  0  0  0  0  0  0  0  0  0  0  0
    3.8086    2.4668    0.3463 H   0  0  0  0  0  0  0  0  0  0  0  0
    4.5939    3.5468    1.5305 H   0  0  0  0  0  0  0  0  0  0  0  0
    9.6589    0.9850   -2.2120 H   0  0  0  0  0  0  0  0  0  0  0  0
   10.2861   -0.1385   -0.9262 H   0  0  0  0  0  0  0  0  0  0  0  0
   11.0039    1.4492   -1.1758 H   0  0  0  0  0  0  0  0  0  0  0  0
  1 19  2  0  0  0  0
  2 20  2  0  0  0  0
  3 28  2  0  0  0  0
  4 30  2  0  0  0  0
  5 32  1  0  0  0  0
  5 37  1  0  0  0  0
  6 36  1  0  0  0  0
  6 38  1  0  0  0  0
  7 15  1  0  0  0  0
  7 18  1  0  0  0  0
  7 20  1  0  0  0  0
  8 10  1  0  0  0  0
  8 14  1  0  0  0  0
  8 22  1  0  0  0  0
  9 19  1  0  0  0  0
  9 23  1  0  0  0  0
  9 47  1  0  0  0  0
 10 11  2  0  0  0  0
 11 24  1  0  0  0  0
 12 28  1  0  0  0  0
 12 51  1  0  0  0  0
 12 52  1  0  0  0  0
 13 30  1  0  0  0  0
 13 54  1  0  0  0  0
 13 55  1  0  0  0  0
 14 16  1  0  0  0  0
 14 17  1  0  0  0  0
 14 39  1  0  0  0  0
 15 16  1  0  0  0  0
 15 19  1  0  0  0  0
 15 40  1  0  0  0  0
 16 41  1  0  0  0  0
 16 42  1  0  0  0  0
 17 18  1  0  0  0  0
 17 43  1  0  0  0  0
 17 44  1  0  0  0  0
 18 45  1  0  0  0  0
 18 46  1  0  0  0  0
 20 21  1  0  0  0  0
 21 23  2  0  0  0  0
 21 25  1  0  0  0  0
 22 24  2  0  0  0  0
 22 28  1  0  0  0  0
 23 26  1  0  0  0  0
 24 30  1  0  0  0  0
 25 27  2  0  0  0  0
 25 48  1  0  0  0  0
 26 29  2  0  0  0  0
 26 49  1  0  0  0  0
 27 29  1  0  0  0  0
 27 31  1  0  0  0  0
 29 50  1  0  0  0  0
 31 32  2  0  0  0  0
 31 33  1  0  0  0  0
 32 34  1  0  0  0  0
 33 35  2  0  0  0  0
 33 53  1  0  0  0  0
 34 36  2  0  0  0  0
 34 56  1  0  0  0  0
 35 36  1  0  0  0  0
 35 57  1  0  0  0  0
 37 58  1  0  0  0  0
 37 59  1  0  0  0  0
 37 60  1  0  0  0  0
 38 61  1  0  0  0  0
 38 62  1  0  0  0  0
 38 63  1  0  0  0  0
M  END
> <PUBCHEM_COMPOUND_CID>
11911512

> <PUBCHEM_CONFORMER_RMSD>
1

> <PUBCHEM_CONFORMER_DIVERSEORDER>
1
20
25
3
32
22
27
17
13
18
12
21
15
23
8
26
10
28
16
30
14
24
5
19
31
11
2
9
33
7
29
6
4

> <PUBCHEM_MMFF94_PARTIAL_CHARGES>
45
1 -0.57
10 -0.42
11 -0.23
12 -0.8
13 -0.8
14 0.26
15 0.36
18 0.3
19 0.57
2 -0.57
20 0.54
21 0.09
22 -0.24
23 0.12
24 0.14
25 -0.15
26 -0.15
28 0.71
29 -0.15
3 -0.57
30 0.72
32 0.08
33 -0.15
34 -0.15
35 -0.15
36 0.08
37 0.28
38 0.28
4 -0.57
47 0.37
48 0.15
49 0.15
5 -0.36
50 0.15
51 0.37
52 0.37
53 0.15
54 0.37
55 0.37
56 0.15
57 0.15
6 -0.36
7 -0.66
8 0.31
9 -0.55

> <PUBCHEM_EFFECTIVE_ROTOR_COUNT>
7

> <PUBCHEM_PHARMACOPHORE_FEATURES>
14
1 1 acceptor
1 12 donor
1 13 donor
1 2 acceptor
1 3 acceptor
1 4 acceptor
1 5 acceptor
1 6 acceptor
1 9 donor
5 8 10 11 22 24 rings
6 21 23 25 26 27 29 rings
6 31 32 33 34 35 36 rings
6 7 14 15 16 17 18 rings
7 7 9 15 19 20 21 23 rings

> <PUBCHEM_HEAVY_ATOM_COUNT>
38

> <PUBCHEM_ATOM_DEF_STEREO_COUNT>
2

> <PUBCHEM_ATOM_UDEF_STEREO_COUNT>
0

> <PUBCHEM_BOND_DEF_STEREO_COUNT>
0

> <PUBCHEM_BOND_UDEF_STEREO_COUNT>
0

> <PUBCHEM_ISOTOPIC_ATOM_COUNT>
0

> <PUBCHEM_COMPONENT_COUNT>
1

> <PUBCHEM_CACTVS_TAUTO_COUNT>
12

> <PUBCHEM_CONFORMER_ID>
00B5C15800000001

> <PUBCHEM_MMFF94_ENERGY>
142.9328

> <PUBCHEM_FEATURE_SELFOVERLAP>
71.076

> <PUBCHEM_SHAPE_FINGERPRINT>
10 15 18410573980867033359
10162869 55 17531248383692451583
10165383 225 18186802483559842570
10369192 42 18342454837696357023
106641 1 17167866365347142325
10670039 82 16128661825125998712
11181472 205 17631178481007930403
11828532 37 12534764111021455925
11991303 11 16701727337183835631
12539765 74 18271810085962016654
12741549 16 13190340175626464967
13540713 5 16879934068532097607
13782708 43 12829205560166193371
14294032 229 17894622660897634462
14394314 77 18334858286713078109
14849402 71 18334296478435045565
14856354 85 17846206830721666599
15183329 4 12031786963908227525
15347590 135 16877659028713709192
15706992 2 18411710880180223048
1577012 14 18409161087399332931
16989713 51 17059478777858017487
16992610 120 18260279555794369974
18335252 114 17132111334318952648
18603816 31 12180137509672388025
18608769 82 18187364354743366530
20505436 4 18271800211811253550
20511986 3 18041551431326870387
21033648 29 18267010830303507368
21792961 116 15410900664742308926
21792965 169 13398343633188728587
21792965 78 13398088470189839780
22149856 69 17313669222172440004
22224240 67 17603584141049875978
23576562 1 16700871939287955729
24771293 8 18040715870054080182
249057 3 16845570942215018196
3991529 128 16371019520891954588
4073 2 18187088326133847723
4093350 32 18201439147715213422
444769 64 11743842495308645087
504579 68 12823291283057377945
5080951 261 15864077598709707307
5385378 56 18041274375555464362
5758199 1 18259985959496783395
59682541 35 17095248016158142289
6126387 218 11169905091471873663
9689198 14 18202001032083669668
9953998 17 18187366524255563565
9962374 69 16009038336348272927

> <PUBCHEM_SHAPE_MULTIPOLES>
711.94
28.65
2.46
1.56
2.1
0.08
-0.56
17.74
0.59
-1.61
1.16
0.88
-0.1
-0.06

> <PUBCHEM_SHAPE_SELFOVERLAP>
1566.411

> <PUBCHEM_SHAPE_VOLUME>
379.2

> <PUBCHEM_COORDINATE_TYPE>
2
5
10

$$$$
