75536598
  -OEChem-12032416303D

 43 45  0     1  0  0  0  0  0999 V2000
    6.7184   -0.6792    0.8899 S   0  0  0  0  0  0  0  0  0  0  0  0
    0.6879    0.9927   -0.0599 O   0  0  0  0  0  0  0  0  0  0  0  0
   -0.4776   -2.4042   -0.1496 O   0  0  0  0  0  0  0  0  0  0  0  0
    4.1233   -1.8646    0.1402 O   0  0  0  0  0  0  0  0  0  0  0  0
   -2.7399   -0.2233   -0.1086 N   0  0  0  0  0  0  0  0  0  0  0  0
    3.2141   -0.0400   -0.9675 N   0  0  0  0  0  0  0  0  0  0  0  0
   -1.3492   -0.1709    0.3117 C   0  0  1  0  0  0  0  0  0  0  0  0
   -0.4275   -1.0408   -0.5228 C   0  0  1  0  0  0  0  0  0  0  0  0
    0.9261   -0.4166   -0.2120 C   0  0  1  0  0  0  0  0  0  0  0  0
   -0.7241    1.2010    0.1188 C   0  0  0  0  0  0  0  0  0  0  0  0
    1.9584   -0.6481   -1.3010 C   0  0  0  0  0  0  0  0  0  0  0  0
   -3.6175    0.3450    0.9076 C   0  0  0  0  0  0  0  0  0  0  0  0
   -5.0614    0.3143    0.4822 C   0  0  0  0  0  0  0  0  0  0  0  0
    4.2111   -0.7078   -0.2627 C   0  0  0  0  0  0  0  0  0  0  0  0
   -5.6057    1.3913   -0.2173 C   0  0  0  0  0  0  0  0  0  0  0  0
   -5.8548   -0.7914    0.7879 C   0  0  0  0  0  0  0  0  0  0  0  0
    5.4434    0.0699    0.0265 C   0  0  0  0  0  0  0  0  0  0  0  0
   -6.9436    1.3627   -0.6112 C   0  0  0  0  0  0  0  0  0  0  0  0
   -7.1926   -0.8202    0.3940 C   0  0  0  0  0  0  0  0  0  0  0  0
   -7.7371    0.2570   -0.3055 C   0  0  0  0  0  0  0  0  0  0  0  0
    5.7413    1.3726   -0.3083 C   0  0  0  0  0  0  0  0  0  0  0  0
    7.0333    1.7606    0.1499 C   0  0  0  0  0  0  0  0  0  0  0  0
    7.6737    0.7400    0.8175 C   0  0  0  0  0  0  0  0  0  0  0  0
   -1.2576   -0.4874    1.3605 H   0  0  0  0  0  0  0  0  0  0  0  0
   -0.6657   -0.9576   -1.5906 H   0  0  0  0  0  0  0  0  0  0  0  0
    1.3139   -0.7874    0.7460 H   0  0  0  0  0  0  0  0  0  0  0  0
   -1.0926    1.7039   -0.7828 H   0  0  0  0  0  0  0  0  0  0  0  0
   -0.8868    1.8638    0.9740 H   0  0  0  0  0  0  0  0  0  0  0  0
    1.6351   -0.1886   -2.2416 H   0  0  0  0  0  0  0  0  0  0  0  0
    2.1070   -1.7198   -1.4714 H   0  0  0  0  0  0  0  0  0  0  0  0
   -3.0033   -1.1965   -0.2664 H   0  0  0  0  0  0  0  0  0  0  0  0
   -3.3407    1.3850    1.1224 H   0  0  0  0  0  0  0  0  0  0  0  0
   -3.5158   -0.2000    1.8555 H   0  0  0  0  0  0  0  0  0  0  0  0
   -0.2670   -2.4700    0.7972 H   0  0  0  0  0  0  0  0  0  0  0  0
    3.3509    0.9223   -1.2571 H   0  0  0  0  0  0  0  0  0  0  0  0
   -4.9975    2.2578   -0.4631 H   0  0  0  0  0  0  0  0  0  0  0  0
   -5.4420   -1.6375    1.3309 H   0  0  0  0  0  0  0  0  0  0  0  0
   -7.3674    2.2011   -1.1563 H   0  0  0  0  0  0  0  0  0  0  0  0
   -7.8103   -1.6813    0.6316 H   0  0  0  0  0  0  0  0  0  0  0  0
   -8.7787    0.2345   -0.6123 H   0  0  0  0  0  0  0  0  0  0  0  0
    5.0835    2.0360   -0.8540 H   0  0  0  0  0  0  0  0  0  0  0  0
    7.4710    2.7386   -0.0023 H   0  0  0  0  0  0  0  0  0  0  0  0
    8.6568    0.7599    1.2662 H   0  0  0  0  0  0  0  0  0  0  0  0
  1 17  1  0  0  0  0
  1 23  1  0  0  0  0
  2  9  1  0  0  0  0
  2 10  1  0  0  0  0
  3  8  1  0  0  0  0
  3 34  1  0  0  0  0
  4 14  2  0  0  0  0
  5  7  1  0  0  0  0
  5 12  1  0  0  0  0
  5 31  1  0  0  0  0
  6 11  1  0  0  0  0
  6 14  1  0  0  0  0
  6 35  1  0  0  0  0
  7  8  1  0  0  0  0
  7 10  1  0  0  0  0
  7 24  1  0  0  0  0
  8  9  1  0  0  0  0
  8 25  1  0  0  0  0
  9 11  1  0  0  0  0
  9 26  1  0  0  0  0
 10 27  1  0  0  0  0
 10 28  1  0  0  0  0
 11 29  1  0  0  0  0
 11 30  1  0  0  0  0
 12 13  1  0  0  0  0
 12 32  1  0  0  0  0
 12 33  1  0  0  0  0
 13 15  2  0  0  0  0
 13 16  1  0  0  0  0
 14 17  1  0  0  0  0
 15 18  1  0  0  0  0
 15 36  1  0  0  0  0
 16 19  2  0  0  0  0
 16 37  1  0  0  0  0
 17 21  2  0  0  0  0
 18 20  2  0  0  0  0
 18 38  1  0  0  0  0
 19 20  1  0  0  0  0
 19 39  1  0  0  0  0
 20 40  1  0  0  0  0
 21 22  1  0  0  0  0
 21 41  1  0  0  0  0
 22 23  2  0  0  0  0
 22 42  1  0  0  0  0
 23 43  1  0  0  0  0
M  END
> <PUBCHEM_COMPOUND_CID>
75536598

> <PUBCHEM_CONFORMER_RMSD>
1

> <PUBCHEM_CONFORMER_DIVERSEORDER>
1
49
26
108
111
55
46
65
28
22
39
35
100
33
4
73
61
48
8
66
56
110
18
83
44
54
68
98
103
99
43
71
63
19
40
88
114
84
72
42
32
112
93
45
85
16
20
70
106
21
60
5
67
105
97
10
34
51
107
86
101
116
96
52
57
53
91
24
77
94
62
109
75
47
36
27
38
89
92
104
29
115
11
78
59
30
69
76
25
81
74
23
13
50
64
7
14
113
58
15
95
82
3
102
79
41
117
12
6
90
2
87
37
9
80
17
31

> <PUBCHEM_MMFF94_PARTIAL_CHARGES>
34
1 -0.08
10 0.28
11 0.3
12 0.41
13 -0.14
14 0.71
15 -0.15
16 -0.15
17 -0.05
18 -0.15
19 -0.15
2 -0.56
20 -0.15
21 -0.15
22 -0.15
23 -0.11
3 -0.68
31 0.36
34 0.4
35 0.37
36 0.15
37 0.15
38 0.15
39 0.15
4 -0.57
40 0.15
41 0.15
42 0.15
43 0.15
5 -0.9
6 -0.73
7 0.27
8 0.28
9 0.28

> <PUBCHEM_EFFECTIVE_ROTOR_COUNT>
8

> <PUBCHEM_PHARMACOPHORE_FEATURES>
10
1 2 acceptor
1 3 acceptor
1 3 donor
1 4 acceptor
1 5 cation
1 5 donor
1 6 donor
5 1 17 21 22 23 rings
5 2 7 8 9 10 rings
6 13 15 16 18 19 20 rings

> <PUBCHEM_HEAVY_ATOM_COUNT>
23

> <PUBCHEM_ATOM_DEF_STEREO_COUNT>
3

> <PUBCHEM_ATOM_UDEF_STEREO_COUNT>
0

> <PUBCHEM_BOND_DEF_STEREO_COUNT>
0

> <PUBCHEM_BOND_UDEF_STEREO_COUNT>
0

> <PUBCHEM_ISOTOPIC_ATOM_COUNT>
0

> <PUBCHEM_COMPONENT_COUNT>
1

> <PUBCHEM_CACTVS_TAUTO_COUNT>
2

> <PUBCHEM_CONFORMER_ID>
048098D600000001

> <PUBCHEM_MMFF94_ENERGY>
43.2468

> <PUBCHEM_FEATURE_SELFOVERLAP>
50.747

> <PUBCHEM_SHAPE_FINGERPRINT>
10 15 18407760352344899386
106641 1 18341332274799663883
10835480 77 18338515240843458085
11315181 36 18131915954197115897
11638347 137 18113054913968970882
11719270 70 18410857646541380854
125118 31 18261114058522217028
12592606 108 10953747716075914489
13533116 47 17531806849494378994
13885169 127 17603583011267755333
13899415 154 16702304559556083160
13914758 101 16732981998875450853
14123256 10 17060338521923402856
14251764 18 18187364350115862606
14251764 46 18411136939405127512
14429380 56 17988633125407459224
14856354 85 12463565193522320633
15131766 46 17098918341297676116
15183329 4 13840265883601670801
15849732 13 18408041822768167333
16090146 7 13901635198326213078
17093844 174 17821447959478671665
18006028 8 14129058123069710638
20157964 124 18201722825888600062
20554085 129 17917418827229602138
21130935 74 18335705984076013155
21150785 3 13830132801989279920
21365058 27 15267345124148752965
21521721 280 17917715707836843099
21792934 111 18337943511892403376
220451 1 14333410021740661429
221357 26 10879996852941425890
22224240 67 17846777416620192838
23035841 295 8358257038509968397
23081809 10 16343710872281500651
246663 6 11097852982492349704
24771293 8 18202291294258227456
28498 318 12324233971152086896
3009799 131 18334014982325980433
34797466 226 14477243773542127752
4073 2 17749959963006858442
4325135 7 17275103929111578316
4340502 62 17530964679253310962
5207 217 17203890764588672647
5758199 1 16343990204164411415
59682541 35 18412543245058089488
636775 72 18338516327866530701
6394761 36 13262395562050298541

> <PUBCHEM_SHAPE_MULTIPOLES>
449.61
25.31
1.63
0.92
2.97
0.16
-0.02
-6.77
3.94
-0.76
-0.07
-0.24
0.06
0.56

> <PUBCHEM_SHAPE_SELFOVERLAP>
936.801

> <PUBCHEM_SHAPE_VOLUME>
255.8

> <PUBCHEM_COORDINATE_TYPE>
2
5
10

$$$$
