11884036
  -OEChem-12032416373D

 61 65  0     1  0  0  0  0  0999 V2000
   -1.1100   -2.2450   -1.3969 O   0  0  0  0  0  0  0  0  0  0  0  0
   -2.1900   -3.9403    0.9190 O   0  0  0  0  0  0  0  0  0  0  0  0
    1.1469   -2.9721    0.0468 O   0  0  0  0  0  0  0  0  0  0  0  0
   -5.9180   -1.7546    0.3998 O   0  0  0  0  0  0  0  0  0  0  0  0
    1.9443   -1.2407    1.3102 O   0  0  0  0  0  0  0  0  0  0  0  0
    8.0886    0.4747   -0.0532 O   0  0  0  0  0  0  0  0  0  0  0  0
   -3.9771   -1.1920   -0.7238 N   0  0  0  0  0  0  0  0  0  0  0  0
   -5.5902    0.4171   -0.4290 N   0  0  0  0  0  0  0  0  0  0  0  0
    3.2612   -2.2793   -0.3229 N   0  0  0  0  0  0  0  0  0  0  0  0
   -8.4657    5.5812   -0.6142 N   0  0  0  0  0  0  0  0  0  0  0  0
   -2.4182   -2.5627    0.5552 C   0  0  1  0  0  0  0  0  0  0  0  0
   -1.1047   -2.0254    0.0236 C   0  0  1  0  0  0  0  0  0  0  0  0
   -3.3482   -2.4871   -0.6332 C   0  0  2  0  0  0  0  0  0  0  0  0
   -0.0889   -2.8981    0.7209 C   0  0  1  0  0  0  0  0  0  0  0  0
   -2.4025   -2.7250   -1.7978 C   0  0  0  0  0  0  0  0  0  0  0  0
   -0.7939   -4.2350    0.7656 C   0  0  0  0  0  0  0  0  0  0  0  0
   -5.2418   -0.9151   -0.1896 C   0  0  0  0  0  0  0  0  0  0  0  0
    2.1210   -2.0732    0.4293 C   0  0  0  0  0  0  0  0  0  0  0  0
   -6.7790    1.0845   -0.0522 C   0  0  0  0  0  0  0  0  0  0  0  0
    4.4877   -1.5800   -0.2538 C   0  0  0  0  0  0  0  0  0  0  0  0
   -6.9586    2.4285   -0.3793 C   0  0  0  0  0  0  0  0  0  0  0  0
   -7.7721    0.3981    0.6466 C   0  0  0  0  0  0  0  0  0  0  0  0
    5.5390   -1.9308   -1.1007 C   0  0  0  0  0  0  0  0  0  0  0  0
    4.6462   -0.5386    0.6604 C   0  0  0  0  0  0  0  0  0  0  0  0
   -8.1312    3.0860   -0.0076 C   0  0  0  0  0  0  0  0  0  0  0  0
   -8.9448    1.0556    1.0183 C   0  0  0  0  0  0  0  0  0  0  0  0
    6.7490   -1.2401   -1.0333 C   0  0  0  0  0  0  0  0  0  0  0  0
    5.8562    0.1520    0.7279 C   0  0  0  0  0  0  0  0  0  0  0  0
   -9.1243    2.3997    0.6911 C   0  0  0  0  0  0  0  0  0  0  0  0
    6.9076   -0.1987   -0.1190 C   0  0  0  0  0  0  0  0  0  0  0  0
   -8.3158    4.4629   -0.3423 C   0  0  0  0  0  0  0  0  0  0  0  0
    8.0384    1.8568    0.0177 C   0  0  0  0  0  0  0  0  0  0  0  0
    7.1820    2.5676   -0.8231 C   0  0  0  0  0  0  0  0  0  0  0  0
    8.8444    2.5381    0.9297 C   0  0  0  0  0  0  0  0  0  0  0  0
    7.1314    3.9597   -0.7517 C   0  0  0  0  0  0  0  0  0  0  0  0
    8.7937    3.9302    1.0010 C   0  0  0  0  0  0  0  0  0  0  0  0
    7.9372    4.6411    0.1604 C   0  0  0  0  0  0  0  0  0  0  0  0
   -2.7720   -2.0376    1.4481 H   0  0  0  0  0  0  0  0  0  0  0  0
   -0.9566   -0.9551    0.1940 H   0  0  0  0  0  0  0  0  0  0  0  0
   -4.1281   -3.2559   -0.6102 H   0  0  0  0  0  0  0  0  0  0  0  0
    0.0316   -2.5591    1.7592 H   0  0  0  0  0  0  0  0  0  0  0  0
   -2.2986   -3.7959   -2.0045 H   0  0  0  0  0  0  0  0  0  0  0  0
   -2.7048   -2.2240   -2.7227 H   0  0  0  0  0  0  0  0  0  0  0  0
   -0.4558   -4.8563    1.6006 H   0  0  0  0  0  0  0  0  0  0  0  0
   -0.6529   -4.8109   -0.1559 H   0  0  0  0  0  0  0  0  0  0  0  0
   -3.4520   -0.4276   -1.1376 H   0  0  0  0  0  0  0  0  0  0  0  0
   -4.9133    0.9818   -0.9360 H   0  0  0  0  0  0  0  0  0  0  0  0
    3.2162   -3.0255   -1.0126 H   0  0  0  0  0  0  0  0  0  0  0  0
   -6.1826    2.9623   -0.9246 H   0  0  0  0  0  0  0  0  0  0  0  0
   -7.7066   -0.6411    0.9358 H   0  0  0  0  0  0  0  0  0  0  0  0
    5.4285   -2.7401   -1.8180 H   0  0  0  0  0  0  0  0  0  0  0  0
    3.8794   -0.2148    1.3505 H   0  0  0  0  0  0  0  0  0  0  0  0
   -9.7188    0.5222    1.5625 H   0  0  0  0  0  0  0  0  0  0  0  0
    7.5644   -1.5175   -1.6957 H   0  0  0  0  0  0  0  0  0  0  0  0
    5.9604    0.9436    1.4655 H   0  0  0  0  0  0  0  0  0  0  0  0
  -10.0439    2.8984    0.9878 H   0  0  0  0  0  0  0  0  0  0  0  0
    6.5597    2.0640   -1.5581 H   0  0  0  0  0  0  0  0  0  0  0  0
    9.5131    1.9894    1.5871 H   0  0  0  0  0  0  0  0  0  0  0  0
    6.4682    4.5137   -1.4096 H   0  0  0  0  0  0  0  0  0  0  0  0
    9.4213    4.4607    1.7112 H   0  0  0  0  0  0  0  0  0  0  0  0
    7.8988    5.7251    0.2152 H   0  0  0  0  0  0  0  0  0  0  0  0
  1 12  1  0  0  0  0
  1 15  1  0  0  0  0
  2 11  1  0  0  0  0
  2 16  1  0  0  0  0
  3 14  1  0  0  0  0
  3 18  1  0  0  0  0
  4 17  2  0  0  0  0
  5 18  2  0  0  0  0
  6 30  1  0  0  0  0
  6 32  1  0  0  0  0
  7 13  1  0  0  0  0
  7 17  1  0  0  0  0
  7 46  1  0  0  0  0
  8 17  1  0  0  0  0
  8 19  1  0  0  0  0
  8 47  1  0  0  0  0
  9 18  1  0  0  0  0
  9 20  1  0  0  0  0
  9 48  1  0  0  0  0
 10 31  3  0  0  0  0
 11 12  1  0  0  0  0
 11 13  1  0  0  0  0
 11 38  1  0  0  0  0
 12 14  1  0  0  0  0
 12 39  1  0  0  0  0
 13 15  1  0  0  0  0
 13 40  1  0  0  0  0
 14 16  1  0  0  0  0
 14 41  1  0  0  0  0
 15 42  1  0  0  0  0
 15 43  1  0  0  0  0
 16 44  1  0  0  0  0
 16 45  1  0  0  0  0
 19 21  1  0  0  0  0
 19 22  2  0  0  0  0
 20 23  2  0  0  0  0
 20 24  1  0  0  0  0
 21 25  2  0  0  0  0
 21 49  1  0  0  0  0
 22 26  1  0  0  0  0
 22 50  1  0  0  0  0
 23 27  1  0  0  0  0
 23 51  1  0  0  0  0
 24 28  2  0  0  0  0
 24 52  1  0  0  0  0
 25 29  1  0  0  0  0
 25 31  1  0  0  0  0
 26 29  2  0  0  0  0
 26 53  1  0  0  0  0
 27 30  2  0  0  0  0
 27 54  1  0  0  0  0
 28 30  1  0  0  0  0
 28 55  1  0  0  0  0
 29 56  1  0  0  0  0
 32 33  2  0  0  0  0
 32 34  1  0  0  0  0
 33 35  1  0  0  0  0
 33 57  1  0  0  0  0
 34 36  2  0  0  0  0
 34 58  1  0  0  0  0
 35 37  2  0  0  0  0
 35 59  1  0  0  0  0
 36 37  1  0  0  0  0
 36 60  1  0  0  0  0
 37 61  1  0  0  0  0
M  END
> <PUBCHEM_COMPOUND_CID>
11884036

> <PUBCHEM_CONFORMER_RMSD>
1.4

> <PUBCHEM_CONFORMER_DIVERSEORDER>
1
31
80
54
101
79
44
70
55
6
88
15
91
57
29
2
98
24
104
63
89
48
42
68
30
97
38
94
92
75
23
13
87
64
74
72
61
16
56
3
20
86
33
51
90
11
58
26
67
39
18
65
53
71
35
60
9
47
17
100
12
41
52
45
59
93
40
107
22
76
5
106
32
103
62
36
99
21
105
37
4
96
83
46
50
25
77
84
8
49
78
73
7
81
10
34
102
66
27
28
19
43
95
82
69
14
85

> <PUBCHEM_MMFF94_PARTIAL_CHARGES>
53
1 -0.56
10 -0.56
11 0.28
12 0.28
13 0.3
14 0.28
15 0.28
16 0.28
17 0.69
18 0.78
19 0.12
2 -0.56
20 0.12
21 -0.15
22 -0.15
23 -0.15
24 -0.15
25 0.07
26 -0.15
27 -0.15
28 -0.15
29 -0.15
3 -0.43
30 0.08
31 0.48
32 0.08
33 -0.15
34 -0.15
35 -0.15
36 -0.15
37 -0.15
4 -0.57
46 0.37
47 0.37
48 0.37
49 0.15
5 -0.57
50 0.15
51 0.15
52 0.15
53 0.15
54 0.15
55 0.15
56 0.15
57 0.15
58 0.15
59 0.15
6 -0.17
60 0.15
61 0.15
7 -0.73
8 -0.55
9 -0.55

> <PUBCHEM_EFFECTIVE_ROTOR_COUNT>
11.2

> <PUBCHEM_PHARMACOPHORE_FEATURES>
14
1 1 acceptor
1 10 acceptor
1 2 acceptor
1 4 acceptor
1 5 acceptor
1 6 acceptor
1 7 donor
1 8 donor
1 9 donor
5 1 11 12 13 15 rings
5 2 11 12 14 16 rings
6 19 21 22 25 26 29 rings
6 20 23 24 27 28 30 rings
6 32 33 34 35 36 37 rings

> <PUBCHEM_HEAVY_ATOM_COUNT>
37

> <PUBCHEM_ATOM_DEF_STEREO_COUNT>
4

> <PUBCHEM_ATOM_UDEF_STEREO_COUNT>
0

> <PUBCHEM_BOND_DEF_STEREO_COUNT>
0

> <PUBCHEM_BOND_UDEF_STEREO_COUNT>
0

> <PUBCHEM_ISOTOPIC_ATOM_COUNT>
0

> <PUBCHEM_COMPONENT_COUNT>
1

> <PUBCHEM_CACTVS_TAUTO_COUNT>
6

> <PUBCHEM_CONFORMER_ID>
00B5560400000001

> <PUBCHEM_MMFF94_ENERGY>
116.8173

> <PUBCHEM_FEATURE_SELFOVERLAP>
71.819

> <PUBCHEM_SHAPE_FINGERPRINT>
11421887 103 18410282623224517500
11578821 258 18412825785087209237
11621639 179 18131626781726563280
11621639 254 18270955877998490567
12124843 1 17917709093486980615
12539747 164 9871481928372238351
12539765 74 18201442445443462814
12655364 74 18339633457254658717
12895837 130 18270960257936665455
13782708 43 9942990849259833042
14201967 126 18410573959815391857
14394314 77 18335419096981521661
14664723 55 18201728309944320657
14904525 67 18339644546416578512
15145344 64 18411989035401402809
15152005 77 8070022247359081329
15198563 99 14979967938602438507
15604295 49 18340486759269715377
16126227 98 18408885140108777271
16728433 281 18059857238792681753
16993089 31 9943536197661348370
16993427 108 11241974789292488423
19315958 150 18342462525772205878
2026 5 9295280639353386013
21095123 293 18410855447644472449
23569943 247 9365979249962061044
24771293 8 18334856138754436727
353859 123 18042118778188808677
3711267 37 18342466919566188249
3918712 181 18410291372024653864
406291 66 8646769997518277225
4366758 26 18335425706968182940
44880568 143 18339647862379640806
4516262 110 18336255744738788967
5718773 13 10591751074678463155
5776283 40 18343299288607477953
5937810 71 18342737433970585767
6201320 82 18340782541088918304
6289498 60 18408601444180528689
636775 72 18409729603735709075
6698420 124 18260267456107268634
9689198 14 18340210692058140223

> <PUBCHEM_SHAPE_MULTIPOLES>
706.3
37.69
7.28
1.12
7.63
6.5
0.13
61.55
-2.45
2.88
0.2
-0.27
-0.35
1.61

> <PUBCHEM_SHAPE_SELFOVERLAP>
1542.14

> <PUBCHEM_SHAPE_VOLUME>
379.7

> <PUBCHEM_COORDINATE_TYPE>
2
5
10

$$$$
