26744120
  -OEChem-12032416353D

 50 53  0     1  0  0  0  0  0999 V2000
   -3.1238    3.6348   -1.5819 F   0  0  0  0  0  0  0  0  0  0  0  0
   -2.4119    1.5801   -1.3641 F   0  0  0  0  0  0  0  0  0  0  0  0
   -4.1562    2.2873   -0.2055 F   0  0  0  0  0  0  0  0  0  0  0  0
    6.4432   -0.5470   -0.0354 O   0  0  0  0  0  0  0  0  0  0  0  0
    0.9954    0.6494   -1.9899 O   0  0  0  0  0  0  0  0  0  0  0  0
   -2.0771    3.0717    0.3371 O   0  0  0  0  0  0  0  0  0  0  0  0
    3.1105    0.4293    0.8079 N   0  0  1  0  0  0  0  0  0  0  0  0
    1.2872   -1.3528   -1.0295 N   0  0  0  0  0  0  0  0  0  0  0  0
   -0.1104   -0.1258   -2.3617 N   0  0  0  0  0  0  0  0  0  0  0  0
    3.0426    0.4655   -0.6671 C   0  0  1  0  0  0  0  0  0  0  0  0
    4.3072   -0.2768   -1.1378 C   0  0  0  0  0  0  0  0  0  0  0  0
    5.0439   -0.6516    0.1421 C   0  0  2  0  0  0  0  0  0  0  0  0
    4.5282    0.3525    1.1553 C   0  0  0  0  0  0  0  0  0  0  0  0
    2.4514    1.5641    1.4412 C   0  0  0  0  0  0  0  0  0  0  0  0
    1.7681   -0.1483   -1.2072 C   0  0  0  0  0  0  0  0  0  0  0  0
    0.9572    1.3869    1.4936 C   0  0  0  0  0  0  0  0  0  0  0  0
    0.1341   -1.2919   -1.7566 C   0  0  0  0  0  0  0  0  0  0  0  0
    0.1218    2.3232    0.8844 C   0  0  0  0  0  0  0  0  0  0  0  0
    0.4083    0.2857    2.1508 C   0  0  0  0  0  0  0  0  0  0  0  0
   -0.7819   -2.4324   -1.8677 C   0  0  0  0  0  0  0  0  0  0  0  0
   -1.2623    2.1584    0.9324 C   0  0  0  0  0  0  0  0  0  0  0  0
   -0.9760    0.1209    2.1987 C   0  0  0  0  0  0  0  0  0  0  0  0
   -1.8113    1.0574    1.5895 C   0  0  0  0  0  0  0  0  0  0  0  0
   -1.6745   -2.6563   -0.6510 C   0  0  0  0  0  0  0  0  0  0  0  0
   -1.1681   -3.3048    0.4754 C   0  0  0  0  0  0  0  0  0  0  0  0
   -2.9967   -2.2126   -0.6647 C   0  0  0  0  0  0  0  0  0  0  0  0
   -1.9840   -3.5096    1.5881 C   0  0  0  0  0  0  0  0  0  0  0  0
   -3.8127   -2.4174    0.4479 C   0  0  0  0  0  0  0  0  0  0  0  0
   -2.9459    2.6262   -0.6984 C   0  0  0  0  0  0  0  0  0  0  0  0
   -3.3063   -3.0659    1.5743 C   0  0  0  0  0  0  0  0  0  0  0  0
    3.1183    1.4991   -1.0336 H   0  0  0  0  0  0  0  0  0  0  0  0
    4.0932   -1.1741   -1.7296 H   0  0  0  0  0  0  0  0  0  0  0  0
    4.9226    0.3824   -1.7629 H   0  0  0  0  0  0  0  0  0  0  0  0
    4.7952   -1.6754    0.4474 H   0  0  0  0  0  0  0  0  0  0  0  0
    4.6858   -0.0004    2.1799 H   0  0  0  0  0  0  0  0  0  0  0  0
    5.0415    1.3171    1.0457 H   0  0  0  0  0  0  0  0  0  0  0  0
    2.7285    2.5133    0.9642 H   0  0  0  0  0  0  0  0  0  0  0  0
    2.7828    1.6525    2.4855 H   0  0  0  0  0  0  0  0  0  0  0  0
    6.6939   -1.1601   -0.7473 H   0  0  0  0  0  0  0  0  0  0  0  0
    0.5415    3.1828    0.3678 H   0  0  0  0  0  0  0  0  0  0  0  0
    1.0455   -0.4486    2.6365 H   0  0  0  0  0  0  0  0  0  0  0  0
   -0.2021   -3.3491   -2.0401 H   0  0  0  0  0  0  0  0  0  0  0  0
   -1.4136   -2.3284   -2.7600 H   0  0  0  0  0  0  0  0  0  0  0  0
   -1.4030   -0.7274    2.7237 H   0  0  0  0  0  0  0  0  0  0  0  0
   -2.8879    0.9212    1.6422 H   0  0  0  0  0  0  0  0  0  0  0  0
   -0.1395   -3.6545    0.4982 H   0  0  0  0  0  0  0  0  0  0  0  0
   -3.4022   -1.7026   -1.5344 H   0  0  0  0  0  0  0  0  0  0  0  0
   -1.5893   -4.0132    2.4656 H   0  0  0  0  0  0  0  0  0  0  0  0
   -4.8416   -2.0701    0.4381 H   0  0  0  0  0  0  0  0  0  0  0  0
   -3.9411   -3.2240    2.4413 H   0  0  0  0  0  0  0  0  0  0  0  0
  1 29  1  0  0  0  0
  2 29  1  0  0  0  0
  3 29  1  0  0  0  0
  4 12  1  0  0  0  0
  4 39  1  0  0  0  0
  5  9  1  0  0  0  0
  5 15  1  0  0  0  0
  6 21  1  0  0  0  0
  6 29  1  0  0  0  0
  7 10  1  0  0  0  0
  7 13  1  0  0  0  0
  7 14  1  0  0  0  0
  8 15  2  0  0  0  0
  8 17  1  0  0  0  0
  9 17  2  0  0  0  0
 10 11  1  0  0  0  0
 10 15  1  0  0  0  0
 10 31  1  0  0  0  0
 11 12  1  0  0  0  0
 11 32  1  0  0  0  0
 11 33  1  0  0  0  0
 12 13  1  0  0  0  0
 12 34  1  0  0  0  0
 13 35  1  0  0  0  0
 13 36  1  0  0  0  0
 14 16  1  0  0  0  0
 14 37  1  0  0  0  0
 14 38  1  0  0  0  0
 16 18  2  0  0  0  0
 16 19  1  0  0  0  0
 17 20  1  0  0  0  0
 18 21  1  0  0  0  0
 18 40  1  0  0  0  0
 19 22  2  0  0  0  0
 19 41  1  0  0  0  0
 20 24  1  0  0  0  0
 20 42  1  0  0  0  0
 20 43  1  0  0  0  0
 21 23  2  0  0  0  0
 22 23  1  0  0  0  0
 22 44  1  0  0  0  0
 23 45  1  0  0  0  0
 24 25  2  0  0  0  0
 24 26  1  0  0  0  0
 25 27  1  0  0  0  0
 25 46  1  0  0  0  0
 26 28  2  0  0  0  0
 26 47  1  0  0  0  0
 27 30  2  0  0  0  0
 27 48  1  0  0  0  0
 28 30  1  0  0  0  0
 28 49  1  0  0  0  0
 30 50  1  0  0  0  0
M  END
> <PUBCHEM_COMPOUND_CID>
26744120

> <PUBCHEM_CONFORMER_RMSD>
1

> <PUBCHEM_CONFORMER_DIVERSEORDER>
1
106
144
44
38
145
46
148
4
98
140
201
175
16
199
55
99
170
188
101
110
12
184
156
7
132
111
121
21
190
50
81
161
6
122
75
125
51
127
8
196
152
10
13
53
174
9
165
181
192
67
123
155
163
65
178
23
167
154
141
157
149
39
182
60
160
186
54
180
131
139
88
80
173
11
102
89
19
90
97
189
183
191
151
68
113
66
137
61
105
77
124
2
93
108
96
47
176
197
166
143
147
5
79
100
32
146
14
172
136
126
133
3
112
82
193
198
59
153
57
42
169
200
41
24
194
164
177
40
162
104
72
185
27
134
103
135
71
85
187
195
142
114
26
95
76
29
202
171
168
52
49
62
83
138
92
74
130
17
129
158
107
64
28
84
109
73
78
117
18
159
120
128
33
70
116
150
36
45
91
58
37
20
115
118
30
94
25
35
119
43
179
86
48
34
15
31
56
87
69
63
22

> <PUBCHEM_MMFF94_PARTIAL_CHARGES>
39
1 -0.34
10 0.45
12 0.28
13 0.27
14 0.41
15 0.3
16 -0.14
17 0.34
18 -0.15
19 -0.15
2 -0.34
20 0.32
21 0.08
22 -0.15
23 -0.15
24 -0.14
25 -0.15
26 -0.15
27 -0.15
28 -0.15
29 1.3
3 -0.34
30 -0.15
39 0.4
4 -0.68
40 0.15
41 0.15
44 0.15
45 0.15
46 0.15
47 0.15
48 0.15
49 0.15
5 -0.02
50 0.15
6 -0.36
7 -0.81
8 -0.57
9 -0.41

> <PUBCHEM_EFFECTIVE_ROTOR_COUNT>
8

> <PUBCHEM_PHARMACOPHORE_FEATURES>
9
1 4 acceptor
1 4 donor
1 6 acceptor
1 7 cation
3 8 9 17 cation
5 5 8 9 15 17 rings
5 7 10 11 12 13 rings
6 16 18 19 21 22 23 rings
6 24 25 26 27 28 30 rings

> <PUBCHEM_HEAVY_ATOM_COUNT>
30

> <PUBCHEM_ATOM_DEF_STEREO_COUNT>
2

> <PUBCHEM_ATOM_UDEF_STEREO_COUNT>
0

> <PUBCHEM_BOND_DEF_STEREO_COUNT>
0

> <PUBCHEM_BOND_UDEF_STEREO_COUNT>
0

> <PUBCHEM_ISOTOPIC_ATOM_COUNT>
0

> <PUBCHEM_COMPONENT_COUNT>
1

> <PUBCHEM_CACTVS_TAUTO_COUNT>
1

> <PUBCHEM_CONFORMER_ID>
0198153800000001

> <PUBCHEM_MMFF94_ENERGY>
70.417

> <PUBCHEM_FEATURE_SELFOVERLAP>
45.672

> <PUBCHEM_SHAPE_FINGERPRINT>
10688039 33 18266458904550303323
107951 10 18266448828926090845
11244481 83 17108192837509526219
11370993 70 18193276282668419533
11387372 6 17836627645303707650
11421498 54 17467650611879459404
11828532 37 17754738553250143595
12156800 1 17981850173877488891
12422481 6 17629793233585526627
12597179 24 18269275651698566857
12633257 1 17344645948072616650
12788726 201 18117009959903784542
13402501 40 18202001032363185901
13583140 156 18272649035430539130
14790565 3 16547762981945710384
15721738 202 15503219050515103627
17492 54 17416103002576955909
20567600 347 18056468448912993181
20587220 17 14997666717782853557
20600515 1 17699595797830740867
22182313 1 17417548938298800310
23419403 2 17489016184185604057
24893992 56 18262800809283222427
35225 105 17903875055761616231
4058900 60 17907018370189918940
4340502 62 17415588461695352209
4409770 3 18273211993272632286
460360 51 18198919028378204734
513532 50 16016057300953486421
6669772 16 18194682557998335539
7064713 232 15983447207106516130

> <PUBCHEM_SHAPE_MULTIPOLES>
563.01
8.13
4.32
2.3
10.28
1.34
-0.15
-3.23
0.77
-6.39
-0.2
-0.55
-0.03
1.99

> <PUBCHEM_SHAPE_SELFOVERLAP>
1219.332

> <PUBCHEM_SHAPE_VOLUME>
310.9

> <PUBCHEM_COORDINATE_TYPE>
2
5
10

$$$$
