45361606
  -OEChem-12032416353D

 65 68  0     1  0  0  0  0  0999 V2000
    1.5593   -1.9846   -0.6256 O   0  0  0  0  0  0  0  0  0  0  0  0
    6.0677   -0.0228    1.3608 O   0  0  0  0  0  0  0  0  0  0  0  0
   -4.3498    1.3176   -1.7716 O   0  0  0  0  0  0  0  0  0  0  0  0
   -3.4003    0.1117   -0.0339 N   0  0  0  0  0  0  0  0  0  0  0  0
    5.9950   -0.8130   -0.8171 N   0  0  0  0  0  0  0  0  0  0  0  0
   -5.8152   -0.8647    0.5676 N   0  0  0  0  0  0  0  0  0  0  0  0
    0.6026    1.3638    0.9390 C   0  0  1  0  0  0  0  0  0  0  0  0
    0.4549    0.0790    0.0579 C   0  0  2  0  0  0  0  0  0  0  0  0
   -0.9998   -0.5050    0.1603 C   0  0  1  0  0  0  0  0  0  0  0  0
    1.6027   -0.9329    0.3398 C   0  0  2  0  0  0  0  0  0  0  0  0
    2.0075    1.9759    0.7276 C   0  0  0  0  0  0  0  0  0  0  0  0
    3.0042   -0.2885    0.2286 C   0  0  1  0  0  0  0  0  0  0  0  0
   -0.4401    2.4105    0.4829 C   0  0  0  0  0  0  0  0  0  0  0  0
   -2.0439    0.5793   -0.2284 C   0  0  2  0  0  0  0  0  0  0  0  0
    3.1341    1.0001    1.0407 C   0  0  0  0  0  0  0  0  0  0  0  0
   -1.8700    1.8917    0.5354 C   0  0  0  0  0  0  0  0  0  0  0  0
    0.4079    1.0743    2.4490 C   0  0  0  0  0  0  0  0  0  0  0  0
    4.1137   -1.2654    0.6369 C   0  0  1  0  0  0  0  0  0  0  0  0
   -1.2236   -1.7561   -0.7058 C   0  0  0  0  0  0  0  0  0  0  0  0
    5.4888   -0.6300    0.4622 C   0  0  0  0  0  0  0  0  0  0  0  0
    3.9140   -1.7124    2.0811 C   0  0  0  0  0  0  0  0  0  0  0  0
    7.2721   -0.2988   -1.2218 C   0  0  0  0  0  0  0  0  0  0  0  0
    7.5762   -0.0209   -2.6646 C   0  0  0  0  0  0  0  0  0  0  0  0
    7.4237    1.1162   -1.6974 C   0  0  0  0  0  0  0  0  0  0  0  0
   -4.4492    0.5290   -0.8352 C   0  0  0  0  0  0  0  0  0  0  0  0
   -5.7847   -0.0223   -0.4893 C   0  0  0  0  0  0  0  0  0  0  0  0
   -6.9000    0.3333   -1.2304 C   0  0  0  0  0  0  0  0  0  0  0  0
   -8.1258   -0.2104   -0.8629 C   0  0  0  0  0  0  0  0  0  0  0  0
   -7.0242   -1.3735    0.8951 C   0  0  0  0  0  0  0  0  0  0  0  0
   -8.1977   -1.0809    0.2190 C   0  0  0  0  0  0  0  0  0  0  0  0
    0.5730    0.3857   -0.9939 H   0  0  0  0  0  0  0  0  0  0  0  0
   -1.1856   -0.8142    1.1967 H   0  0  0  0  0  0  0  0  0  0  0  0
    1.4215   -1.3819    1.3180 H   0  0  0  0  0  0  0  0  0  0  0  0
    2.1127    2.3071   -0.3145 H   0  0  0  0  0  0  0  0  0  0  0  0
    2.1281    2.8741    1.3468 H   0  0  0  0  0  0  0  0  0  0  0  0
    3.1710   -0.0278   -0.8272 H   0  0  0  0  0  0  0  0  0  0  0  0
   -0.3650    3.3155    1.0992 H   0  0  0  0  0  0  0  0  0  0  0  0
   -0.2229    2.7226   -0.5475 H   0  0  0  0  0  0  0  0  0  0  0  0
   -1.9182    0.7983   -1.2979 H   0  0  0  0  0  0  0  0  0  0  0  0
    4.0735    1.5118    0.8016 H   0  0  0  0  0  0  0  0  0  0  0  0
    3.1466    0.8270    2.1184 H   0  0  0  0  0  0  0  0  0  0  0  0
   -2.1877    1.7676    1.5779 H   0  0  0  0  0  0  0  0  0  0  0  0
   -2.5382    2.6561    0.1178 H   0  0  0  0  0  0  0  0  0  0  0  0
    1.1066    0.3215    2.8244 H   0  0  0  0  0  0  0  0  0  0  0  0
    0.5635    1.9853    3.0388 H   0  0  0  0  0  0  0  0  0  0  0  0
   -0.5951    0.7103    2.6856 H   0  0  0  0  0  0  0  0  0  0  0  0
    4.0721   -2.1614    0.0040 H   0  0  0  0  0  0  0  0  0  0  0  0
   -0.6887   -2.6188   -0.2990 H   0  0  0  0  0  0  0  0  0  0  0  0
   -2.2772   -2.0526   -0.7319 H   0  0  0  0  0  0  0  0  0  0  0  0
   -0.9014   -1.5875   -1.7385 H   0  0  0  0  0  0  0  0  0  0  0  0
   -3.5915   -0.4994    0.7553 H   0  0  0  0  0  0  0  0  0  0  0  0
    1.6681   -1.5898   -1.5075 H   0  0  0  0  0  0  0  0  0  0  0  0
    4.7432   -2.3730    2.3669 H   0  0  0  0  0  0  0  0  0  0  0  0
    3.0070   -2.3047    2.2229 H   0  0  0  0  0  0  0  0  0  0  0  0
    3.9264   -0.9022    2.8133 H   0  0  0  0  0  0  0  0  0  0  0  0
    8.0864   -0.7103   -0.6332 H   0  0  0  0  0  0  0  0  0  0  0  0
    5.4528   -1.3244   -1.5082 H   0  0  0  0  0  0  0  0  0  0  0  0
    6.7913   -0.1667   -3.3966 H   0  0  0  0  0  0  0  0  0  0  0  0
    8.5726   -0.2476   -3.0237 H   0  0  0  0  0  0  0  0  0  0  0  0
    8.3169    1.6538   -1.4042 H   0  0  0  0  0  0  0  0  0  0  0  0
    6.5359    1.7313   -1.7798 H   0  0  0  0  0  0  0  0  0  0  0  0
   -6.8450    1.0122   -2.0745 H   0  0  0  0  0  0  0  0  0  0  0  0
   -9.0236    0.0435   -1.4184 H   0  0  0  0  0  0  0  0  0  0  0  0
   -7.0264   -2.0469    1.7458 H   0  0  0  0  0  0  0  0  0  0  0  0
   -9.1424   -1.5167    0.5232 H   0  0  0  0  0  0  0  0  0  0  0  0
  1 10  1  0  0  0  0
  1 52  1  0  0  0  0
  2 20  2  0  0  0  0
  3 25  2  0  0  0  0
  4 14  1  0  0  0  0
  4 25  1  0  0  0  0
  4 51  1  0  0  0  0
  5 20  1  0  0  0  0
  5 22  1  0  0  0  0
  5 57  1  0  0  0  0
  6 26  1  0  0  0  0
  6 29  2  0  0  0  0
  7  8  1  0  0  0  0
  7 11  1  0  0  0  0
  7 13  1  0  0  0  0
  7 17  1  0  0  0  0
  8  9  1  0  0  0  0
  8 10  1  0  0  0  0
  8 31  1  0  0  0  0
  9 14  1  0  0  0  0
  9 19  1  0  0  0  0
  9 32  1  0  0  0  0
 10 12  1  0  0  0  0
 10 33  1  0  0  0  0
 11 15  1  0  0  0  0
 11 34  1  0  0  0  0
 11 35  1  0  0  0  0
 12 15  1  0  0  0  0
 12 18  1  0  0  0  0
 12 36  1  0  0  0  0
 13 16  1  0  0  0  0
 13 37  1  0  0  0  0
 13 38  1  0  0  0  0
 14 16  1  0  0  0  0
 14 39  1  0  0  0  0
 15 40  1  0  0  0  0
 15 41  1  0  0  0  0
 16 42  1  0  0  0  0
 16 43  1  0  0  0  0
 17 44  1  0  0  0  0
 17 45  1  0  0  0  0
 17 46  1  0  0  0  0
 18 20  1  0  0  0  0
 18 21  1  0  0  0  0
 18 47  1  0  0  0  0
 19 48  1  0  0  0  0
 19 49  1  0  0  0  0
 19 50  1  0  0  0  0
 21 53  1  0  0  0  0
 21 54  1  0  0  0  0
 21 55  1  0  0  0  0
 22 23  1  0  0  0  0
 22 24  1  0  0  0  0
 22 56  1  0  0  0  0
 23 24  1  0  0  0  0
 23 58  1  0  0  0  0
 23 59  1  0  0  0  0
 24 60  1  0  0  0  0
 24 61  1  0  0  0  0
 25 26  1  0  0  0  0
 26 27  2  0  0  0  0
 27 28  1  0  0  0  0
 27 62  1  0  0  0  0
 28 30  2  0  0  0  0
 28 63  1  0  0  0  0
 29 30  1  0  0  0  0
 29 64  1  0  0  0  0
 30 65  1  0  0  0  0
M  END
> <PUBCHEM_COMPOUND_CID>
45361606

> <PUBCHEM_CONFORMER_RMSD>
1

> <PUBCHEM_CONFORMER_DIVERSEORDER>
1
17
40
36
54
59
51
20
42
62
27
32
47
49
57
41
53
35
37
16
61
56
33
55
9
48
13
30
39
10
24
50
46
34
23
58
43
29
15
21
11
52
22
25
5
26
38
4
7
19
31
44
60
18
12
28
8
14
6
3
45
2

> <PUBCHEM_MMFF94_PARTIAL_CHARGES>
31
1 -0.68
10 0.28
14 0.3
18 0.06
2 -0.57
20 0.57
22 0.05
23 -0.2
24 -0.2
25 0.54
26 0.4
27 -0.15
28 -0.15
29 0.16
3 -0.57
30 -0.15
4 -0.73
5 -0.58
51 0.37
52 0.4
56 0.1
57 0.37
58 0.1
59 0.1
6 -0.62
60 0.1
61 0.1
62 0.15
63 0.15
64 0.15
65 0.15

> <PUBCHEM_EFFECTIVE_ROTOR_COUNT>
9.2

> <PUBCHEM_PHARMACOPHORE_FEATURES>
11
1 1 acceptor
1 1 donor
1 2 acceptor
1 21 hydrophobe
1 3 acceptor
1 4 donor
1 5 donor
1 6 acceptor
6 6 26 27 28 29 30 rings
6 7 8 10 11 12 15 rings
6 7 8 9 13 14 16 rings

> <PUBCHEM_HEAVY_ATOM_COUNT>
30

> <PUBCHEM_ATOM_DEF_STEREO_COUNT>
6

> <PUBCHEM_ATOM_UDEF_STEREO_COUNT>
1

> <PUBCHEM_BOND_DEF_STEREO_COUNT>
0

> <PUBCHEM_BOND_UDEF_STEREO_COUNT>
0

> <PUBCHEM_ISOTOPIC_ATOM_COUNT>
0

> <PUBCHEM_COMPONENT_COUNT>
1

> <PUBCHEM_CACTVS_TAUTO_COUNT>
4

> <PUBCHEM_CONFORMER_ID>
02B429C600000001

> <PUBCHEM_MMFF94_ENERGY>
87.2875

> <PUBCHEM_FEATURE_SELFOVERLAP>
55.836

> <PUBCHEM_SHAPE_FINGERPRINT>
10076449 9 18343869926156426873
10591671 39 18409733941509961156
10595046 47 17386001728456035324
11315181 36 17603587418605528773
11331351 85 16272209686656257321
11638347 137 14692569936113289247
11646440 116 17775559845234053571
11963148 33 18340194246254447799
12166972 35 18113335314924542453
12373685 5 15502371262145420760
13165053 68 16880214461361645859
13383668 254 15719688567630253821
13617811 41 18343868810425117028
13673619 4 17917709093439904249
13685833 64 18342733023018060889
13782708 43 18187633692601603611
14347424 109 12967121719022980778
14849402 71 16701162244347838185
14856354 85 18202565108020149367
15131766 46 16589446383272971582
15183329 4 18413389830267255989
15301273 46 16487256551714522177
15840311 113 15625931071908110627
16994733 274 16225761904519814316
18681886 176 17022901289981433037
20105231 36 18131074839732558967
20554085 129 13190338006746879980
21049683 271 18261395576274631341
21150785 3 17458064867360013533
21267235 1 18131071528090662017
21344244 181 17060344011720166382
21623969 137 18343579642961544855
21781051 124 18337961189355483235
21792961 116 18408892806767922890
23522609 53 18192452787294093976
23559900 14 17917422181725283944
23569943 247 16557916597876046734
23576562 1 18265331888368657077
2747138 104 18131069346363132371
3004659 81 18411695491317591921
3178227 256 18343018904773947451
335352 9 18273212027843191943
4073 2 16515689931410156195
4098825 35 17530960263763011277
4258327 124 17023484030801490806
439807 62 18040708131367050963
445580 167 16877942762958781735
44880568 143 16951120656239610751
465052 167 18411129225728494107
484989 97 18338803441543931475
5265222 85 17968381246389024115
5470011 282 17894914014140882950
5758199 1 14345792747341210601
58260988 647 15554180177564576934
6004065 56 15357988888032257582

> <PUBCHEM_SHAPE_MULTIPOLES>
584.83
23.51
1.9
1.82
12.95
0.57
0.19
-7.61
10.83
-0.26
-0.43
-2.86
0.02
0.45

> <PUBCHEM_SHAPE_SELFOVERLAP>
1225.91

> <PUBCHEM_SHAPE_VOLUME>
326.3

> <PUBCHEM_COORDINATE_TYPE>
2
5
10

$$$$
