11879569
  -OEChem-12032416353D

 61 65  0     1  0  0  0  0  0999 V2000
   -9.3564    2.9064    0.5827 F   0  0  0  0  0  0  0  0  0  0  0  0
   -7.4038    3.8387    0.4340 F   0  0  0  0  0  0  0  0  0  0  0  0
   -8.3412    2.9965   -1.3382 F   0  0  0  0  0  0  0  0  0  0  0  0
    0.2816   -3.4991    0.2080 O   0  0  0  0  0  0  0  0  0  0  0  0
    0.5131   -1.5057   -2.2136 O   0  0  0  0  0  0  0  0  0  0  0  0
    4.7361   -0.6286   -0.1834 O   0  0  0  0  0  0  0  0  0  0  0  0
   -3.9130   -2.5132    0.1896 O   0  0  0  0  0  0  0  0  0  0  0  0
    2.6536   -1.2974    0.7384 N   0  0  0  0  0  0  0  0  0  0  0  0
   -2.3862   -1.3980   -1.1410 N   0  0  0  0  0  0  0  0  0  0  0  0
    2.0213   -1.1847    1.9148 N   0  0  0  0  0  0  0  0  0  0  0  0
    4.0181   -0.1982    2.0161 N   0  0  0  0  0  0  0  0  0  0  0  0
    2.8609   -0.5120    2.6923 N   0  0  0  0  0  0  0  0  0  0  0  0
   -4.3476   -0.3401   -0.5847 N   0  0  0  0  0  0  0  0  0  0  0  0
    7.4486    3.3631   -0.5482 N   0  0  0  0  0  0  0  0  0  0  0  0
    0.7038   -1.3768   -0.7928 C   0  0  1  0  0  0  0  0  0  0  0  0
   -0.3402   -2.2466   -0.1200 C   0  0  1  0  0  0  0  0  0  0  0  0
    2.0323   -1.9904   -0.3932 C   0  0  2  0  0  0  0  0  0  0  0  0
   -1.3983   -2.4490   -1.1812 C   0  0  2  0  0  0  0  0  0  0  0  0
    1.6726   -3.4500   -0.1378 C   0  0  0  0  0  0  0  0  0  0  0  0
   -0.5870   -2.3920   -2.4622 C   0  0  0  0  0  0  0  0  0  0  0  0
    3.8686   -0.6940    0.8094 C   0  0  0  0  0  0  0  0  0  0  0  0
   -3.5954   -1.5096   -0.4442 C   0  0  0  0  0  0  0  0  0  0  0  0
   -5.6205   -0.0558   -0.0374 C   0  0  0  0  0  0  0  0  0  0  0  0
    5.9664    0.0025   -0.0607 C   0  0  0  0  0  0  0  0  0  0  0  0
    6.0884    1.3584   -0.3644 C   0  0  0  0  0  0  0  0  0  0  0  0
   -6.2278    1.1753   -0.2847 C   0  0  0  0  0  0  0  0  0  0  0  0
   -6.2686   -1.0074    0.7502 C   0  0  0  0  0  0  0  0  0  0  0  0
    7.0808   -0.7196    0.3663 C   0  0  0  0  0  0  0  0  0  0  0  0
    7.3249    1.9921   -0.2412 C   0  0  0  0  0  0  0  0  0  0  0  0
   -7.4831    1.4548    0.2557 C   0  0  0  0  0  0  0  0  0  0  0  0
    8.3172   -0.0859    0.4896 C   0  0  0  0  0  0  0  0  0  0  0  0
   -7.5239   -0.7280    1.2904 C   0  0  0  0  0  0  0  0  0  0  0  0
    8.4393    1.2700    0.1860 C   0  0  0  0  0  0  0  0  0  0  0  0
   -8.1310    0.5032    1.0431 C   0  0  0  0  0  0  0  0  0  0  0  0
   -8.1322    2.7711   -0.0083 C   0  0  0  0  0  0  0  0  0  0  0  0
    8.7291    4.0306   -0.4234 C   0  0  0  0  0  0  0  0  0  0  0  0
    6.2999    4.1192   -1.0062 C   0  0  0  0  0  0  0  0  0  0  0  0
    0.6004   -0.3147   -0.5481 H   0  0  0  0  0  0  0  0  0  0  0  0
   -0.7187   -1.8157    0.8125 H   0  0  0  0  0  0  0  0  0  0  0  0
    2.7633   -1.9395   -1.2090 H   0  0  0  0  0  0  0  0  0  0  0  0
   -1.9085   -3.4141   -1.0925 H   0  0  0  0  0  0  0  0  0  0  0  0
    2.2606   -3.9145    0.6595 H   0  0  0  0  0  0  0  0  0  0  0  0
    1.7991   -4.0446   -1.0491 H   0  0  0  0  0  0  0  0  0  0  0  0
   -1.1522   -2.0356   -3.3288 H   0  0  0  0  0  0  0  0  0  0  0  0
   -0.1660   -3.3741   -2.7043 H   0  0  0  0  0  0  0  0  0  0  0  0
   -2.1665   -0.5113   -1.5847 H   0  0  0  0  0  0  0  0  0  0  0  0
   -3.9382    0.4010   -1.1479 H   0  0  0  0  0  0  0  0  0  0  0  0
    5.1959    1.8820   -0.6940 H   0  0  0  0  0  0  0  0  0  0  0  0
   -5.7255    1.9199   -0.8982 H   0  0  0  0  0  0  0  0  0  0  0  0
   -5.8639   -1.9813    0.9865 H   0  0  0  0  0  0  0  0  0  0  0  0
    6.9926   -1.7763    0.6036 H   0  0  0  0  0  0  0  0  0  0  0  0
    9.1845   -0.6490    0.8220 H   0  0  0  0  0  0  0  0  0  0  0  0
   -8.0294   -1.4682    1.9039 H   0  0  0  0  0  0  0  0  0  0  0  0
    9.4223    1.7165    0.2977 H   0  0  0  0  0  0  0  0  0  0  0  0
   -9.1089    0.7023    1.4728 H   0  0  0  0  0  0  0  0  0  0  0  0
    9.0953    3.9953    0.6088 H   0  0  0  0  0  0  0  0  0  0  0  0
    9.4739    3.5865   -1.0931 H   0  0  0  0  0  0  0  0  0  0  0  0
    8.6610    5.0907   -0.6924 H   0  0  0  0  0  0  0  0  0  0  0  0
    5.9055    3.7114   -1.9436 H   0  0  0  0  0  0  0  0  0  0  0  0
    5.5079    4.1334   -0.2491 H   0  0  0  0  0  0  0  0  0  0  0  0
    6.5574    5.1654   -1.2059 H   0  0  0  0  0  0  0  0  0  0  0  0
  1 35  1  0  0  0  0
  2 35  1  0  0  0  0
  3 35  1  0  0  0  0
  4 16  1  0  0  0  0
  4 19  1  0  0  0  0
  5 15  1  0  0  0  0
  5 20  1  0  0  0  0
  6 21  1  0  0  0  0
  6 24  1  0  0  0  0
  7 22  2  0  0  0  0
  8 10  1  0  0  0  0
  8 17  1  0  0  0  0
  8 21  1  0  0  0  0
  9 18  1  0  0  0  0
  9 22  1  0  0  0  0
  9 46  1  0  0  0  0
 10 12  2  0  0  0  0
 11 12  1  0  0  0  0
 11 21  2  0  0  0  0
 13 22  1  0  0  0  0
 13 23  1  0  0  0  0
 13 47  1  0  0  0  0
 14 29  1  0  0  0  0
 14 36  1  0  0  0  0
 14 37  1  0  0  0  0
 15 16  1  0  0  0  0
 15 17  1  0  0  0  0
 15 38  1  0  0  0  0
 16 18  1  0  0  0  0
 16 39  1  0  0  0  0
 17 19  1  0  0  0  0
 17 40  1  0  0  0  0
 18 20  1  0  0  0  0
 18 41  1  0  0  0  0
 19 42  1  0  0  0  0
 19 43  1  0  0  0  0
 20 44  1  0  0  0  0
 20 45  1  0  0  0  0
 23 26  1  0  0  0  0
 23 27  2  0  0  0  0
 24 25  1  0  0  0  0
 24 28  2  0  0  0  0
 25 29  2  0  0  0  0
 25 48  1  0  0  0  0
 26 30  2  0  0  0  0
 26 49  1  0  0  0  0
 27 32  1  0  0  0  0
 27 50  1  0  0  0  0
 28 31  1  0  0  0  0
 28 51  1  0  0  0  0
 29 33  1  0  0  0  0
 30 34  1  0  0  0  0
 30 35  1  0  0  0  0
 31 33  2  0  0  0  0
 31 52  1  0  0  0  0
 32 34  2  0  0  0  0
 32 53  1  0  0  0  0
 33 54  1  0  0  0  0
 34 55  1  0  0  0  0
 36 56  1  0  0  0  0
 36 57  1  0  0  0  0
 36 58  1  0  0  0  0
 37 59  1  0  0  0  0
 37 60  1  0  0  0  0
 37 61  1  0  0  0  0
M  END
> <PUBCHEM_COMPOUND_CID>
11879569

> <PUBCHEM_CONFORMER_RMSD>
1.6

> <PUBCHEM_CONFORMER_DIVERSEORDER>
1
88
91
152
117
21
95
10
102
53
101
62
72
111
127
134
124
9
145
109
57
11
47
118
104
40
138
4
73
148
97
23
17
76
56
69
112
122
96
154
35
54
44
106
115
126
31
137
142
139
26
130
107
63
153
136
20
28
149
113
51
89
49
99
27
12
70
121
33
131
71
158
67
92
30
116
155
55
74
146
90
135
87
125
129
5
82
84
110
14
65
46
34
140
25
133
66
15
98
43
41
114
85
42
80
103
108
50
18
2
13
37
60
75
39
16
48
81
77
36
100
93
79
150
141
59
156
128
19
83
147
123
105
157
22
58
38
143
32
132
3
78
7
52
61
119
64
68
29
144
6
94
86
151
24
45
8
120

> <PUBCHEM_MMFF94_PARTIAL_CHARGES>
46
1 -0.34
10 -0.42
11 -0.34
13 -0.55
14 -0.84
15 0.28
16 0.28
17 0.26
18 0.3
19 0.28
2 -0.34
20 0.28
21 0.25
22 0.69
23 0.12
24 0.08
25 -0.15
26 -0.15
27 -0.15
28 -0.15
29 0.1
3 -0.34
30 -0.14
31 -0.15
32 -0.15
33 -0.15
34 -0.15
35 1.16
36 0.37
37 0.37
4 -0.56
46 0.37
47 0.37
48 0.15
49 0.15
5 -0.56
50 0.15
51 0.15
52 0.15
53 0.15
54 0.15
55 0.15
6 -0.15
7 -0.57
8 0.31
9 -0.73

> <PUBCHEM_EFFECTIVE_ROTOR_COUNT>
10.2

> <PUBCHEM_PHARMACOPHORE_FEATURES>
12
1 13 donor
1 14 cation
1 4 acceptor
1 5 acceptor
1 7 acceptor
1 9 donor
3 8 11 21 cation
5 4 15 16 17 19 rings
5 5 15 16 18 20 rings
5 8 10 11 12 21 rings
6 23 26 27 30 32 34 rings
6 24 25 28 29 31 33 rings

> <PUBCHEM_HEAVY_ATOM_COUNT>
37

> <PUBCHEM_ATOM_DEF_STEREO_COUNT>
4

> <PUBCHEM_ATOM_UDEF_STEREO_COUNT>
0

> <PUBCHEM_BOND_DEF_STEREO_COUNT>
0

> <PUBCHEM_BOND_UDEF_STEREO_COUNT>
0

> <PUBCHEM_ISOTOPIC_ATOM_COUNT>
0

> <PUBCHEM_COMPONENT_COUNT>
1

> <PUBCHEM_CACTVS_TAUTO_COUNT>
3

> <PUBCHEM_CONFORMER_ID>
00B5449100000001

> <PUBCHEM_MMFF94_ENERGY>
106.3429

> <PUBCHEM_FEATURE_SELFOVERLAP>
61.641

> <PUBCHEM_SHAPE_FINGERPRINT>
10 15 18334013878941573555
10190108 129 17167859743267136396
10625338 131 18408880737682981288
10625338 86 18409452475582134075
10883706 17 9871456639050353045
11374522 79 9727630640224155149
11399510 152 15575531597615935260
11621639 179 18059570330651466432
11621639 336 18269273457277124064
12013929 112 12679189259499260401
12013929 27 10879995761143695648
12013929 29 18267024041402214732
12120059 9 12751238091561343894
12218070 45 16371578132048413515
12539765 74 18272657852883230838
12758862 65 13190347859238106028
131241 285 18337096926916047301
14201967 126 18410012173571462396
14394314 77 18335420235543721572
14664723 55 18272377442567363104
15183329 4 16056605378451545058
15198563 99 15123246420057289090
15350500 55 18341046320910392079
15840311 113 18410297978159109190
16993427 108 7853581188328189854
19302320 297 18334574651488877212
19303781 99 10809633649055095067
2026 5 9367344834576881829
20691028 202 18339075012278233748
21095123 293 18410577318521339748
21585482 111 18337952295026930357
22149856 69 15358255966442297414
23569914 152 17987541255834096814
23569943 247 8430306958201494549
2747138 104 14779541267021115998
3383291 50 12468647101695381401
3711267 37 18342184361951978185
3918712 181 18412826863218848621
406291 66 9007063465224306196
4169191 19 18412260611205541213
4366758 26 18411426106759144321
437795 150 13829551182372615493
54039377 194 8214135266349383771
5718773 13 9079122154510328550
5911458 16 18410858797756035932
6695519 79 16661187252725810882
6698420 124 18187082901853734490
9689198 14 18408889555161129730

> <PUBCHEM_SHAPE_MULTIPOLES>
681.28
33.1
4.8
1.57
15.74
3.94
-0.11
43.16
-4.27
-0.46
1.53
-0.12
-0.72
-1.94

> <PUBCHEM_SHAPE_SELFOVERLAP>
1479.579

> <PUBCHEM_SHAPE_VOLUME>
375.4

> <PUBCHEM_COORDINATE_TYPE>
2
5
10

$$$$
