45784112
  -OEChem-12032416403D

 67 69  0     1  0  0  0  0  0999 V2000
   -3.2702   -0.5222   -0.7004 O   0  0  0  0  0  0  0  0  0  0  0  0
    4.0563   -0.9526    0.6163 N   0  0  0  0  0  0  0  0  0  0  0  0
   -1.9042    1.2369   -0.9095 N   0  0  0  0  0  0  0  0  0  0  0  0
   -3.0217    1.6453   -0.2056 N   0  0  0  0  0  0  0  0  0  0  0  0
    0.1824    5.4847   -0.1275 N   0  0  0  0  0  0  0  0  0  0  0  0
    1.3021   -1.9012    0.8978 C   0  0  1  0  0  0  0  0  0  0  0  0
    2.3265   -2.5614   -0.0541 C   0  0  1  0  0  0  0  0  0  0  0  0
    0.2647   -1.0996    0.0991 C   0  0  0  0  0  0  0  0  0  0  0  0
   -0.4834   -1.9453   -0.9536 C   0  0  2  0  0  0  0  0  0  0  0  0
    0.6246   -2.9420    1.7995 C   0  0  0  0  0  0  0  0  0  0  0  0
    0.4188   -2.9392   -1.6694 C   0  0  0  0  0  0  0  0  0  0  0  0
    1.6752   -3.1917   -1.2587 C   0  0  0  0  0  0  0  0  0  0  0  0
    3.3903   -1.5627   -0.5214 C   0  0  0  0  0  0  0  0  0  0  0  0
   -1.2092   -0.9977   -1.9169 C   0  0  0  0  0  0  0  0  0  0  0  0
    1.6720   -3.7513    2.5578 C   0  0  0  0  0  0  0  0  0  0  0  0
   -0.3380   -2.2615    2.7672 C   0  0  0  0  0  0  0  0  0  0  0  0
   -0.1625   -3.6900   -2.8359 C   0  0  0  0  0  0  0  0  0  0  0  0
   -2.0925   -0.0342   -1.1771 C   0  0  0  0  0  0  0  0  0  0  0  0
    4.6982    0.3008    0.2383 C   0  0  0  0  0  0  0  0  0  0  0  0
   -3.7914    0.5866   -0.1075 C   0  0  0  0  0  0  0  0  0  0  0  0
   -5.1009    0.4390    0.5398 C   0  0  0  0  0  0  0  0  0  0  0  0
    3.7107    1.4344    0.1583 C   0  0  0  0  0  0  0  0  0  0  0  0
   -5.5917    1.7805    1.1881 C   0  0  0  0  0  0  0  0  0  0  0  0
   -5.0742   -0.6321    1.6857 C   0  0  0  0  0  0  0  0  0  0  0  0
   -6.2896   -0.0081   -0.3915 C   0  0  0  0  0  0  0  0  0  0  0  0
    3.5505    2.1369   -1.0361 C   0  0  0  0  0  0  0  0  0  0  0  0
    2.9561    1.7824    1.2788 C   0  0  0  0  0  0  0  0  0  0  0  0
    2.6355    3.1870   -1.1102 C   0  0  0  0  0  0  0  0  0  0  0  0
    2.0412    2.8326    1.2046 C   0  0  0  0  0  0  0  0  0  0  0  0
    1.8808    3.5350    0.0101 C   0  0  0  0  0  0  0  0  0  0  0  0
    0.9436    4.6108   -0.0659 C   0  0  0  0  0  0  0  0  0  0  0  0
    1.8089   -1.1946    1.5661 H   0  0  0  0  0  0  0  0  0  0  0  0
    2.8802   -3.3553    0.4536 H   0  0  0  0  0  0  0  0  0  0  0  0
   -0.4349   -0.5955    0.7728 H   0  0  0  0  0  0  0  0  0  0  0  0
    0.7944   -0.2824   -0.4106 H   0  0  0  0  0  0  0  0  0  0  0  0
   -1.2449   -2.5370   -0.4257 H   0  0  0  0  0  0  0  0  0  0  0  0
    0.0402   -3.6553    1.2061 H   0  0  0  0  0  0  0  0  0  0  0  0
    2.2809   -3.9120   -1.8046 H   0  0  0  0  0  0  0  0  0  0  0  0
    2.9128   -0.8113   -1.1626 H   0  0  0  0  0  0  0  0  0  0  0  0
    4.1354   -2.0684   -1.1501 H   0  0  0  0  0  0  0  0  0  0  0  0
   -1.8379   -1.5578   -2.6192 H   0  0  0  0  0  0  0  0  0  0  0  0
   -0.4880   -0.4293   -2.5175 H   0  0  0  0  0  0  0  0  0  0  0  0
    1.2110   -4.2950    3.3908 H   0  0  0  0  0  0  0  0  0  0  0  0
    2.1373   -4.5181    1.9315 H   0  0  0  0  0  0  0  0  0  0  0  0
    2.4551   -3.1126    2.9803 H   0  0  0  0  0  0  0  0  0  0  0  0
    0.1433   -1.4377    3.3053 H   0  0  0  0  0  0  0  0  0  0  0  0
   -0.7024   -2.9746    3.5156 H   0  0  0  0  0  0  0  0  0  0  0  0
   -1.2274   -1.8755    2.2604 H   0  0  0  0  0  0  0  0  0  0  0  0
   -1.1237   -4.1357   -2.5599 H   0  0  0  0  0  0  0  0  0  0  0  0
    0.4901   -4.5044   -3.1689 H   0  0  0  0  0  0  0  0  0  0  0  0
   -0.3146   -3.0223   -3.6894 H   0  0  0  0  0  0  0  0  0  0  0  0
    4.7522   -1.6017    0.9826 H   0  0  0  0  0  0  0  0  0  0  0  0
    5.4335    0.5635    1.0097 H   0  0  0  0  0  0  0  0  0  0  0  0
    5.2708    0.1889   -0.6911 H   0  0  0  0  0  0  0  0  0  0  0  0
   -5.7012    2.5630    0.4283 H   0  0  0  0  0  0  0  0  0  0  0  0
   -4.8703    2.1383    1.9321 H   0  0  0  0  0  0  0  0  0  0  0  0
   -6.5576    1.6572    1.6908 H   0  0  0  0  0  0  0  0  0  0  0  0
   -4.3154   -0.3751    2.4342 H   0  0  0  0  0  0  0  0  0  0  0  0
   -4.8244   -1.6235    1.2904 H   0  0  0  0  0  0  0  0  0  0  0  0
   -6.0414   -0.7034    2.1957 H   0  0  0  0  0  0  0  0  0  0  0  0
   -7.2334   -0.0873    0.1591 H   0  0  0  0  0  0  0  0  0  0  0  0
   -6.4256    0.7115   -1.2069 H   0  0  0  0  0  0  0  0  0  0  0  0
   -6.0760   -0.9818   -0.8472 H   0  0  0  0  0  0  0  0  0  0  0  0
    4.1307    1.8757   -1.9170 H   0  0  0  0  0  0  0  0  0  0  0  0
    3.0731    1.2478    2.2178 H   0  0  0  0  0  0  0  0  0  0  0  0
    2.5214    3.7247   -2.0485 H   0  0  0  0  0  0  0  0  0  0  0  0
    1.4604    3.0921    2.0865 H   0  0  0  0  0  0  0  0  0  0  0  0
  1 18  1  0  0  0  0
  1 20  1  0  0  0  0
  2 13  1  0  0  0  0
  2 19  1  0  0  0  0
  2 52  1  0  0  0  0
  3  4  1  0  0  0  0
  3 18  2  0  0  0  0
  4 20  2  0  0  0  0
  5 31  3  0  0  0  0
  6  7  1  0  0  0  0
  6  8  1  0  0  0  0
  6 10  1  0  0  0  0
  6 32  1  0  0  0  0
  7 12  1  0  0  0  0
  7 13  1  0  0  0  0
  7 33  1  0  0  0  0
  8  9  1  0  0  0  0
  8 34  1  0  0  0  0
  8 35  1  0  0  0  0
  9 11  1  0  0  0  0
  9 14  1  0  0  0  0
  9 36  1  0  0  0  0
 10 15  1  0  0  0  0
 10 16  1  0  0  0  0
 10 37  1  0  0  0  0
 11 12  2  0  0  0  0
 11 17  1  0  0  0  0
 12 38  1  0  0  0  0
 13 39  1  0  0  0  0
 13 40  1  0  0  0  0
 14 18  1  0  0  0  0
 14 41  1  0  0  0  0
 14 42  1  0  0  0  0
 15 43  1  0  0  0  0
 15 44  1  0  0  0  0
 15 45  1  0  0  0  0
 16 46  1  0  0  0  0
 16 47  1  0  0  0  0
 16 48  1  0  0  0  0
 17 49  1  0  0  0  0
 17 50  1  0  0  0  0
 17 51  1  0  0  0  0
 19 22  1  0  0  0  0
 19 53  1  0  0  0  0
 19 54  1  0  0  0  0
 20 21  1  0  0  0  0
 21 23  1  0  0  0  0
 21 24  1  0  0  0  0
 21 25  1  0  0  0  0
 22 26  2  0  0  0  0
 22 27  1  0  0  0  0
 23 55  1  0  0  0  0
 23 56  1  0  0  0  0
 23 57  1  0  0  0  0
 24 58  1  0  0  0  0
 24 59  1  0  0  0  0
 24 60  1  0  0  0  0
 25 61  1  0  0  0  0
 25 62  1  0  0  0  0
 25 63  1  0  0  0  0
 26 28  1  0  0  0  0
 26 64  1  0  0  0  0
 27 29  2  0  0  0  0
 27 65  1  0  0  0  0
 28 30  2  0  0  0  0
 28 66  1  0  0  0  0
 29 30  1  0  0  0  0
 29 67  1  0  0  0  0
 30 31  1  0  0  0  0
M  END
> <PUBCHEM_COMPOUND_CID>
45784112

> <PUBCHEM_CONFORMER_RMSD>
1

> <PUBCHEM_CONFORMER_DIVERSEORDER>
36
85
111
43
123
68
165
140
73
83
127
17
153
97
98
96
28
178
175
124
199
186
211
57
158
100
157
22
213
146
87
54
58
12
84
201
35
171
155
8
193
77
188
29
33
105
49
207
202
210
128
113
99
27
6
88
172
212
89
133
79
40
50
205
110
204
159
70
53
136
129
170
180
103
198
80
7
174
150
206
21
72
59
190
115
208
60
187
92
14
106
114
161
125
152
182
151
55
62
168
42
95
75
91
71
61
149
63
163
23
148
93
16
25
121
120
117
156
135
134
26
215
101
74
24
164
67
118
31
143
39
9
166
200
214
162
141
102
184
78
192
196
66
197
130
191
116
94
131
65
145
112
86
76
64
185
47
119
154
2
48
51
69
13
181
195
104
1
122
107
169
126
4
44
209
108
11
142
138
15
82
81
10
194
32
147
109
20
183
41
30
173
52
189
3
179
46
5
45
38
139
167
132
19
37
160
90
137
56
144
176
177
18
34
203

> <PUBCHEM_MMFF94_PARTIAL_CHARGES>
29
1 -0.28
11 -0.28
12 -0.29
13 0.27
14 0.18
17 0.14
18 0.3
19 0.41
2 -0.9
20 0.3
21 0.18
22 -0.14
26 -0.15
27 -0.15
28 -0.15
29 -0.15
3 -0.34
30 0.07
31 0.48
38 0.15
4 -0.34
5 -0.56
52 0.36
64 0.15
65 0.15
66 0.15
67 0.15
7 0.14
9 0.14

> <PUBCHEM_EFFECTIVE_ROTOR_COUNT>
8.8

> <PUBCHEM_PHARMACOPHORE_FEATURES>
8
1 2 cation
1 2 donor
1 5 acceptor
3 10 15 16 hydrophobe
4 21 23 24 25 hydrophobe
5 1 3 4 18 20 rings
6 22 26 27 28 29 30 rings
6 6 7 8 9 11 12 rings

> <PUBCHEM_HEAVY_ATOM_COUNT>
31

> <PUBCHEM_ATOM_DEF_STEREO_COUNT>
3

> <PUBCHEM_ATOM_UDEF_STEREO_COUNT>
0

> <PUBCHEM_BOND_DEF_STEREO_COUNT>
0

> <PUBCHEM_BOND_UDEF_STEREO_COUNT>
0

> <PUBCHEM_ISOTOPIC_ATOM_COUNT>
0

> <PUBCHEM_COMPONENT_COUNT>
1

> <PUBCHEM_CACTVS_TAUTO_COUNT>
1

> <PUBCHEM_CONFORMER_ID>
02BA9C3000000024

> <PUBCHEM_MMFF94_ENERGY>
60.8275

> <PUBCHEM_FEATURE_SELFOVERLAP>
40.596

> <PUBCHEM_SHAPE_FINGERPRINT>
10439779 11 17839161250421138312
11059048 146 17762625387845321028
11421498 54 17901107417454486314
12156800 1 16738934939606386270
12925494 130 18341613660484823529
13583140 156 17751624482225660383
13965767 371 17841396321115354362
14955137 171 18270405979658961974
151778 21 18265337389805498852
15475509 84 17540809499755897131
16114785 44 17260472990248009609
20465049 17 18339942505498773116
21716022 299 14763249738369812590
21860390 5 18339655450858423570
23558518 356 17834658767189222066
3493558 16 17413887426965597993
35225 105 17691998236986043008
373842 8 18125727777685892057
392239 28 18187089451214377331
394071 54 18270128890529389889
5309563 4 18338231570526782685

> <PUBCHEM_SHAPE_MULTIPOLES>
612.17
9.7
6.37
2.23
15.19
4.44
-0.42
5.03
-2.08
-5.33
0.26
0.19
-2.86
-0.79

> <PUBCHEM_SHAPE_SELFOVERLAP>
1273.222

> <PUBCHEM_SHAPE_VOLUME>
347.8

> <PUBCHEM_COORDINATE_TYPE>
2
5
10

$$$$
