45784145
  -OEChem-12032416353D

 61 64  0     1  0  0  0  0  0999 V2000
   -1.8874    0.1931    0.8904 O   0  0  0  0  0  0  0  0  0  0  0  0
    2.6881   -1.5056   -2.3189 O   0  0  0  0  0  0  0  0  0  0  0  0
    3.3517    0.0881   -0.7679 N   0  0  0  0  0  0  0  0  0  0  0  0
   -2.4470    1.7297    2.4171 N   0  0  0  0  0  0  0  0  0  0  0  0
   -3.6102    1.1414    1.9569 N   0  0  0  0  0  0  0  0  0  0  0  0
    3.4196   -1.8433    1.1065 N   0  0  0  0  0  0  0  0  0  0  0  0
   -5.5283   -2.4119   -1.2857 N   0  0  0  0  0  0  0  0  0  0  0  0
    0.8888    1.7548   -1.2149 C   0  0  1  0  0  0  0  0  0  0  0  0
    2.3467    2.2757   -1.1589 C   0  0  1  0  0  0  0  0  0  0  0  0
   -0.0271    2.6301   -0.3458 C   0  0  0  0  0  0  0  0  0  0  0  0
    0.4236    2.6621    1.1268 C   0  0  2  0  0  0  0  0  0  0  0  0
    0.3552    1.7111   -2.6501 C   0  0  0  0  0  0  0  0  0  0  0  0
    1.9136    2.9067    1.2545 C   0  0  0  0  0  0  0  0  0  0  0  0
    2.7555    2.7418    0.2187 C   0  0  0  0  0  0  0  0  0  0  0  0
    3.3338    1.2113   -1.6517 C   0  0  0  0  0  0  0  0  0  0  0  0
    0.0135    1.3790    1.8580 C   0  0  0  0  0  0  0  0  0  0  0  0
   -0.7698    0.6877   -2.7686 C   0  0  0  0  0  0  0  0  0  0  0  0
   -0.1234    3.0934   -3.0821 C   0  0  0  0  0  0  0  0  0  0  0  0
    2.4085    3.3897    2.5894 C   0  0  0  0  0  0  0  0  0  0  0  0
   -1.4673    1.1454    1.7676 C   0  0  0  0  0  0  0  0  0  0  0  0
    3.0224   -1.2039   -1.1763 C   0  0  0  0  0  0  0  0  0  0  0  0
   -3.2357    0.2514    1.0679 C   0  0  0  0  0  0  0  0  0  0  0  0
    3.0646   -2.2580   -0.1303 C   0  0  0  0  0  0  0  0  0  0  0  0
   -4.0129   -0.6522    0.2704 C   0  0  0  0  0  0  0  0  0  0  0  0
    2.7519   -3.5698   -0.4484 C   0  0  0  0  0  0  0  0  0  0  0  0
   -5.3989   -0.6667    0.3823 C   0  0  0  0  0  0  0  0  0  0  0  0
   -3.3838   -1.5166   -0.6188 C   0  0  0  0  0  0  0  0  0  0  0  0
    2.8073   -4.5170    0.5680 C   0  0  0  0  0  0  0  0  0  0  0  0
    3.4626   -2.7921    2.0687 C   0  0  0  0  0  0  0  0  0  0  0  0
    3.1686   -4.1289    1.8534 C   0  0  0  0  0  0  0  0  0  0  0  0
   -6.1044   -1.5572   -0.4108 C   0  0  0  0  0  0  0  0  0  0  0  0
   -4.1796   -2.3691   -1.3672 C   0  0  0  0  0  0  0  0  0  0  0  0
    0.8604    0.7370   -0.8071 H   0  0  0  0  0  0  0  0  0  0  0  0
    2.4507    3.1461   -1.8189 H   0  0  0  0  0  0  0  0  0  0  0  0
   -1.0771    2.3406   -0.4396 H   0  0  0  0  0  0  0  0  0  0  0  0
    0.0223    3.6747   -0.6828 H   0  0  0  0  0  0  0  0  0  0  0  0
   -0.1010    3.5083    1.5937 H   0  0  0  0  0  0  0  0  0  0  0  0
    1.1432    1.3939   -3.3408 H   0  0  0  0  0  0  0  0  0  0  0  0
    3.8091    2.9775    0.3554 H   0  0  0  0  0  0  0  0  0  0  0  0
    3.1163    0.8950   -2.6754 H   0  0  0  0  0  0  0  0  0  0  0  0
    4.3525    1.6177   -1.6609 H   0  0  0  0  0  0  0  0  0  0  0  0
    0.5488    0.5058    1.4656 H   0  0  0  0  0  0  0  0  0  0  0  0
    0.2714    1.4462    2.9218 H   0  0  0  0  0  0  0  0  0  0  0  0
   -0.4242   -0.3105   -2.4788 H   0  0  0  0  0  0  0  0  0  0  0  0
   -1.1222    0.6251   -3.8041 H   0  0  0  0  0  0  0  0  0  0  0  0
   -1.6313    0.9434   -2.1443 H   0  0  0  0  0  0  0  0  0  0  0  0
   -1.0632    3.3927   -2.6062 H   0  0  0  0  0  0  0  0  0  0  0  0
   -0.3266    3.0826   -4.1602 H   0  0  0  0  0  0  0  0  0  0  0  0
    0.6281    3.8713   -2.9180 H   0  0  0  0  0  0  0  0  0  0  0  0
    2.2522    2.6284    3.3594 H   0  0  0  0  0  0  0  0  0  0  0  0
    3.4781    3.6248    2.5719 H   0  0  0  0  0  0  0  0  0  0  0  0
    1.8769    4.3000    2.8851 H   0  0  0  0  0  0  0  0  0  0  0  0
    3.6554    0.2305    0.1913 H   0  0  0  0  0  0  0  0  0  0  0  0
    2.4700   -3.8736   -1.4508 H   0  0  0  0  0  0  0  0  0  0  0  0
   -5.9313   -0.0098    1.0626 H   0  0  0  0  0  0  0  0  0  0  0  0
   -2.3073   -1.5511   -0.7493 H   0  0  0  0  0  0  0  0  0  0  0  0
    2.5694   -5.5557    0.3591 H   0  0  0  0  0  0  0  0  0  0  0  0
    3.7495   -2.4380    3.0533 H   0  0  0  0  0  0  0  0  0  0  0  0
    3.2184   -4.8500    2.6612 H   0  0  0  0  0  0  0  0  0  0  0  0
   -7.1871   -1.6078   -0.3613 H   0  0  0  0  0  0  0  0  0  0  0  0
   -3.7379   -3.0628   -2.0751 H   0  0  0  0  0  0  0  0  0  0  0  0
  1 20  1  0  0  0  0
  1 22  1  0  0  0  0
  2 21  2  0  0  0  0
  3 15  1  0  0  0  0
  3 21  1  0  0  0  0
  3 53  1  0  0  0  0
  4  5  1  0  0  0  0
  4 20  2  0  0  0  0
  5 22  2  0  0  0  0
  6 23  1  0  0  0  0
  6 29  2  0  0  0  0
  7 31  2  0  0  0  0
  7 32  1  0  0  0  0
  8  9  1  0  0  0  0
  8 10  1  0  0  0  0
  8 12  1  0  0  0  0
  8 33  1  0  0  0  0
  9 14  1  0  0  0  0
  9 15  1  0  0  0  0
  9 34  1  0  0  0  0
 10 11  1  0  0  0  0
 10 35  1  0  0  0  0
 10 36  1  0  0  0  0
 11 13  1  0  0  0  0
 11 16  1  0  0  0  0
 11 37  1  0  0  0  0
 12 17  1  0  0  0  0
 12 18  1  0  0  0  0
 12 38  1  0  0  0  0
 13 14  2  0  0  0  0
 13 19  1  0  0  0  0
 14 39  1  0  0  0  0
 15 40  1  0  0  0  0
 15 41  1  0  0  0  0
 16 20  1  0  0  0  0
 16 42  1  0  0  0  0
 16 43  1  0  0  0  0
 17 44  1  0  0  0  0
 17 45  1  0  0  0  0
 17 46  1  0  0  0  0
 18 47  1  0  0  0  0
 18 48  1  0  0  0  0
 18 49  1  0  0  0  0
 19 50  1  0  0  0  0
 19 51  1  0  0  0  0
 19 52  1  0  0  0  0
 21 23  1  0  0  0  0
 22 24  1  0  0  0  0
 23 25  2  0  0  0  0
 24 26  2  0  0  0  0
 24 27  1  0  0  0  0
 25 28  1  0  0  0  0
 25 54  1  0  0  0  0
 26 31  1  0  0  0  0
 26 55  1  0  0  0  0
 27 32  2  0  0  0  0
 27 56  1  0  0  0  0
 28 30  2  0  0  0  0
 28 57  1  0  0  0  0
 29 30  1  0  0  0  0
 29 58  1  0  0  0  0
 30 59  1  0  0  0  0
 31 60  1  0  0  0  0
 32 61  1  0  0  0  0
M  END
> <PUBCHEM_COMPOUND_CID>
45784145

> <PUBCHEM_CONFORMER_RMSD>
1

> <PUBCHEM_CONFORMER_DIVERSEORDER>
1
144
18
17
61
36
158
154
34
33
138
83
76
57
59
84
106
67
121
147
29
141
8
130
162
53
150
122
109
94
58
115
27
153
75
35
155
90
31
112
118
125
160
127
152
168
139
60
86
164
72
64
56
161
92
38
129
126
62
10
50
110
25
51
165
143
43
41
68
4
97
166
66
142
70
117
63
91
136
124
87
88
156
44
137
15
95
132
157
140
148
47
111
39
48
116
108
3
104
55
159
80
14
99
163
40
81
167
28
135
134
105
89
42
19
69
123
107
11
79
114
100
77
131
52
78
6
96
102
22
23
93
26
113
74
9
120
20
65
145
46
16
128
54
151
146
30
12
71
24
149
37
98
2
7
101
45
133
82
13
103
119
32
21
49
85
5
73

> <PUBCHEM_MMFF94_PARTIAL_CHARGES>
37
1 -0.28
11 0.14
13 -0.28
14 -0.29
15 0.3
16 0.18
19 0.14
2 -0.57
20 0.3
21 0.54
22 0.43
23 0.4
24 0.05
25 -0.15
26 -0.15
27 -0.15
28 -0.15
29 0.16
3 -0.73
30 -0.15
31 0.16
32 0.16
39 0.15
4 -0.34
5 -0.34
53 0.37
54 0.15
55 0.15
56 0.15
57 0.15
58 0.15
59 0.15
6 -0.62
60 0.15
61 0.15
7 -0.62
9 0.14

> <PUBCHEM_EFFECTIVE_ROTOR_COUNT>
8.8

> <PUBCHEM_PHARMACOPHORE_FEATURES>
9
1 2 acceptor
1 3 donor
1 6 acceptor
1 7 acceptor
3 12 17 18 hydrophobe
5 1 4 5 20 22 rings
6 6 23 25 28 29 30 rings
6 7 24 26 27 31 32 rings
6 8 9 10 11 13 14 rings

> <PUBCHEM_HEAVY_ATOM_COUNT>
32

> <PUBCHEM_ATOM_DEF_STEREO_COUNT>
3

> <PUBCHEM_ATOM_UDEF_STEREO_COUNT>
0

> <PUBCHEM_BOND_DEF_STEREO_COUNT>
0

> <PUBCHEM_BOND_UDEF_STEREO_COUNT>
0

> <PUBCHEM_ISOTOPIC_ATOM_COUNT>
0

> <PUBCHEM_COMPONENT_COUNT>
1

> <PUBCHEM_CACTVS_TAUTO_COUNT>
2

> <PUBCHEM_CONFORMER_ID>
02BA9C5100000001

> <PUBCHEM_MMFF94_ENERGY>
65.6057

> <PUBCHEM_FEATURE_SELFOVERLAP>
45.672

> <PUBCHEM_SHAPE_FINGERPRINT>
11552529 35 17691405209957221690
11578080 2 18336537235967258876
12156800 1 16229666180331595054
12977781 61 17901907960460895240
13383668 262 17760343876218437331
13583140 156 18059851792242342333
13911987 19 15872586710063909742
14028597 1 15978013519446893100
14251757 17 15068920632512506951
14674994 50 17468188947269545812
14705955 166 15549952374228401218
17138139 8 17842003470091629830
17809404 112 17830433004833449834
18681886 176 16271382905494110804
19315092 285 17769337790611064991
20775530 9 17826529777114527362
21703447 108 18060133293067731729
25222932 49 17198821101589387791
46194498 28 16519093061516030761
474144 1 18413387661399014111
484985 159 17399795995417553494
5081480 168 17168151087931077909
59025328 239 18187079538107812277
66674814 147 18260837041694919514

> <PUBCHEM_SHAPE_MULTIPOLES>
621.9
9.8
5.73
3.03
15.71
3.95
-0.57
9.59
0.16
-7.07
1.22
-0.66
-2.14
-1.98

> <PUBCHEM_SHAPE_SELFOVERLAP>
1331.475

> <PUBCHEM_SHAPE_VOLUME>
340.6

> <PUBCHEM_COORDINATE_TYPE>
2
5
10

$$$$
