40777017
  -OEChem-12032416173D

 64 67  0     1  0  0  0  0  0999 V2000
   -4.3570    0.8789   -1.5996 O   0  0  0  0  0  0  0  0  0  0  0  0
   -9.2535   -2.6118    0.9047 O   0  0  0  0  0  0  0  0  0  0  0  0
   -9.0481   -0.8373   -0.4977 O   0  0  0  0  0  0  0  0  0  0  0  0
   -0.2223    2.7351   -0.9995 N   0  0  2  0  0  0  0  0  0  0  0  0
   -2.5143   -0.2318   -0.7262 N   0  0  0  0  0  0  0  0  0  0  0  0
    2.2991   -0.0561    1.5842 N   0  0  0  0  0  0  0  0  0  0  0  0
    4.1913   -1.3933    0.9213 N   0  0  0  0  0  0  0  0  0  0  0  0
    0.5276    2.1939    1.4352 C   0  0  2  0  0  0  0  0  0  0  0  0
    1.7189    2.0328    0.4507 C   0  0  2  0  0  0  0  0  0  0  0  0
   -1.1705    1.7738   -0.3774 C   0  0  2  0  0  0  0  0  0  0  0  0
   -0.6335    1.2828    0.9842 C   0  0  0  0  0  0  0  0  0  0  0  0
    0.0369    3.6518    1.3055 C   0  0  0  0  0  0  0  0  0  0  0  0
    1.1511    2.1724   -0.9907 C   0  0  0  0  0  0  0  0  0  0  0  0
   -0.2220    3.9692   -0.1778 C   0  0  0  0  0  0  0  0  0  0  0  0
   -1.5143    0.6091   -1.3084 C   0  0  0  0  0  0  0  0  0  0  0  0
    2.6164    0.8129    0.6021 C   0  0  0  0  0  0  0  0  0  0  0  0
    3.6906    0.6498   -0.2487 C   0  0  0  0  0  0  0  0  0  0  0  0
    5.6510   -0.7482   -0.9212 C   0  0  0  0  0  0  0  0  0  0  0  0
    4.4505   -0.4831   -0.0404 C   0  0  0  0  0  0  0  0  0  0  0  0
    6.9655   -0.8117   -0.1230 C   0  0  0  0  0  0  0  0  0  0  0  0
    5.5816   -2.0684   -1.7165 C   0  0  0  0  0  0  0  0  0  0  0  0
    7.7956   -1.8732   -0.8288 C   0  0  0  0  0  0  0  0  0  0  0  0
    6.7589   -2.9068   -1.2318 C   0  0  0  0  0  0  0  0  0  0  0  0
    3.1168   -1.1213    1.6862 C   0  0  0  0  0  0  0  0  0  0  0  0
   -3.8797   -0.0267   -0.9212 C   0  0  0  0  0  0  0  0  0  0  0  0
   -4.7241   -1.0422   -0.1698 C   0  0  0  0  0  0  0  0  0  0  0  0
    2.7966   -2.1066    2.7587 C   0  0  0  0  0  0  0  0  0  0  0  0
   -6.2278   -0.8507   -0.3583 C   0  0  0  0  0  0  0  0  0  0  0  0
   -7.0479   -1.8949    0.4018 C   0  0  0  0  0  0  0  0  0  0  0  0
   -8.5334   -1.6982    0.2023 C   0  0  0  0  0  0  0  0  0  0  0  0
    0.8167    1.9785    2.4693 H   0  0  0  0  0  0  0  0  0  0  0  0
    2.3874    2.8888    0.6322 H   0  0  0  0  0  0  0  0  0  0  0  0
   -2.1138    2.3100   -0.1947 H   0  0  0  0  0  0  0  0  0  0  0  0
   -0.2918    0.2430    0.9344 H   0  0  0  0  0  0  0  0  0  0  0  0
   -1.4392    1.3190    1.7280 H   0  0  0  0  0  0  0  0  0  0  0  0
    0.7843    4.3447    1.7093 H   0  0  0  0  0  0  0  0  0  0  0  0
   -0.8819    3.7893    1.8884 H   0  0  0  0  0  0  0  0  0  0  0  0
    1.8071    2.8331   -1.5732 H   0  0  0  0  0  0  0  0  0  0  0  0
    1.1650    1.2178   -1.5292 H   0  0  0  0  0  0  0  0  0  0  0  0
   -1.1807    4.4914   -0.2852 H   0  0  0  0  0  0  0  0  0  0  0  0
    0.5363    4.6669   -0.5554 H   0  0  0  0  0  0  0  0  0  0  0  0
   -0.6461   -0.0275   -1.5063 H   0  0  0  0  0  0  0  0  0  0  0  0
   -1.8779    0.9867   -2.2712 H   0  0  0  0  0  0  0  0  0  0  0  0
    3.9254    1.3680   -1.0244 H   0  0  0  0  0  0  0  0  0  0  0  0
    5.7397    0.0668   -1.6530 H   0  0  0  0  0  0  0  0  0  0  0  0
   -2.2099   -1.0046   -0.1410 H   0  0  0  0  0  0  0  0  0  0  0  0
    6.8005   -1.1126    0.9188 H   0  0  0  0  0  0  0  0  0  0  0  0
    7.4758    0.1570   -0.1026 H   0  0  0  0  0  0  0  0  0  0  0  0
    5.7071   -1.8521   -2.7849 H   0  0  0  0  0  0  0  0  0  0  0  0
    4.6331   -2.6037   -1.6042 H   0  0  0  0  0  0  0  0  0  0  0  0
    8.5720   -2.2913   -0.1820 H   0  0  0  0  0  0  0  0  0  0  0  0
    8.2782   -1.4498   -1.7176 H   0  0  0  0  0  0  0  0  0  0  0  0
    7.1270   -3.5895   -2.0029 H   0  0  0  0  0  0  0  0  0  0  0  0
    6.4610   -3.5029   -0.3610 H   0  0  0  0  0  0  0  0  0  0  0  0
    3.3182   -1.8316    3.6802 H   0  0  0  0  0  0  0  0  0  0  0  0
    1.7205   -2.1285    2.9576 H   0  0  0  0  0  0  0  0  0  0  0  0
    3.1079   -3.1143    2.4663 H   0  0  0  0  0  0  0  0  0  0  0  0
   -4.4331   -2.0425   -0.5126 H   0  0  0  0  0  0  0  0  0  0  0  0
   -4.4728   -0.9686    0.8952 H   0  0  0  0  0  0  0  0  0  0  0  0
   -6.5136    0.1557   -0.0264 H   0  0  0  0  0  0  0  0  0  0  0  0
   -6.4710   -0.8981   -1.4277 H   0  0  0  0  0  0  0  0  0  0  0  0
   -6.7867   -2.8992    0.0509 H   0  0  0  0  0  0  0  0  0  0  0  0
   -6.8343   -1.8230    1.4739 H   0  0  0  0  0  0  0  0  0  0  0  0
  -10.2189   -2.4909    0.7789 H   0  0  0  0  0  0  0  0  0  0  0  0
  1 25  2  0  0  0  0
  2 30  1  0  0  0  0
  2 64  1  0  0  0  0
  3 30  2  0  0  0  0
  4 10  1  0  0  0  0
  4 13  1  0  0  0  0
  4 14  1  0  0  0  0
  5 15  1  0  0  0  0
  5 25  1  0  0  0  0
  5 46  1  0  0  0  0
  6 16  2  0  0  0  0
  6 24  1  0  0  0  0
  7 19  1  0  0  0  0
  7 24  2  0  0  0  0
  8  9  1  0  0  0  0
  8 11  1  0  0  0  0
  8 12  1  0  0  0  0
  8 31  1  0  0  0  0
  9 13  1  0  0  0  0
  9 16  1  0  0  0  0
  9 32  1  0  0  0  0
 10 11  1  0  0  0  0
 10 15  1  0  0  0  0
 10 33  1  0  0  0  0
 11 34  1  0  0  0  0
 11 35  1  0  0  0  0
 12 14  1  0  0  0  0
 12 36  1  0  0  0  0
 12 37  1  0  0  0  0
 13 38  1  0  0  0  0
 13 39  1  0  0  0  0
 14 40  1  0  0  0  0
 14 41  1  0  0  0  0
 15 42  1  0  0  0  0
 15 43  1  0  0  0  0
 16 17  1  0  0  0  0
 17 19  2  0  0  0  0
 17 44  1  0  0  0  0
 18 19  1  0  0  0  0
 18 20  1  0  0  0  0
 18 21  1  0  0  0  0
 18 45  1  0  0  0  0
 20 22  1  0  0  0  0
 20 47  1  0  0  0  0
 20 48  1  0  0  0  0
 21 23  1  0  0  0  0
 21 49  1  0  0  0  0
 21 50  1  0  0  0  0
 22 23  1  0  0  0  0
 22 51  1  0  0  0  0
 22 52  1  0  0  0  0
 23 53  1  0  0  0  0
 23 54  1  0  0  0  0
 24 27  1  0  0  0  0
 25 26  1  0  0  0  0
 26 28  1  0  0  0  0
 26 58  1  0  0  0  0
 26 59  1  0  0  0  0
 27 55  1  0  0  0  0
 27 56  1  0  0  0  0
 27 57  1  0  0  0  0
 28 29  1  0  0  0  0
 28 60  1  0  0  0  0
 28 61  1  0  0  0  0
 29 30  1  0  0  0  0
 29 62  1  0  0  0  0
 29 63  1  0  0  0  0
M  END
> <PUBCHEM_COMPOUND_CID>
40777017

> <PUBCHEM_CONFORMER_RMSD>
1.2

> <PUBCHEM_CONFORMER_DIVERSEORDER>
1
67
64
24
77
83
50
103
34
37
81
43
27
87
26
28
73
104
44
76
110
82
2
66
30
15
97
45
85
90
105
21
69
8
14
32
54
19
106
94
79
63
71
107
49
31
65
52
95
99
61
35
3
75
57
60
25
33
47
53
20
59
86
96
17
41
91
18
55
108
102
39
9
13
36
11
16
89
84
56
68
100
6
40
23
62
78
38
46
10
42
48
5
92
29
70
12
98
7
88
101
51
93
72
4
109
58
74
22
80

> <PUBCHEM_MMFF94_PARTIAL_CHARGES>
25
1 -0.57
10 0.27
13 0.27
14 0.27
15 0.3
16 0.17
17 -0.15
18 0.14
19 0.17
2 -0.65
24 0.48
25 0.57
26 0.06
27 0.14
29 0.06
3 -0.57
30 0.66
4 -0.81
44 0.15
46 0.37
5 -0.73
6 -0.62
64 0.5
7 -0.62
9 0.14

> <PUBCHEM_EFFECTIVE_ROTOR_COUNT>
11.2

> <PUBCHEM_PHARMACOPHORE_FEATURES>
11
1 1 acceptor
1 2 acceptor
1 3 acceptor
1 4 cation
1 5 donor
1 6 acceptor
3 2 3 30 anion
3 6 7 24 cation
5 18 20 21 22 23 rings
6 6 7 16 17 19 24 rings
8 4 8 9 10 11 12 13 14 rings

> <PUBCHEM_HEAVY_ATOM_COUNT>
30

> <PUBCHEM_ATOM_DEF_STEREO_COUNT>
3

> <PUBCHEM_ATOM_UDEF_STEREO_COUNT>
0

> <PUBCHEM_BOND_DEF_STEREO_COUNT>
0

> <PUBCHEM_BOND_UDEF_STEREO_COUNT>
0

> <PUBCHEM_ISOTOPIC_ATOM_COUNT>
0

> <PUBCHEM_COMPONENT_COUNT>
1

> <PUBCHEM_CACTVS_TAUTO_COUNT>
2

> <PUBCHEM_CONFORMER_ID>
026E353900000001

> <PUBCHEM_MMFF94_ENERGY>
63.4237

> <PUBCHEM_FEATURE_SELFOVERLAP>
55.879

> <PUBCHEM_SHAPE_FINGERPRINT>
11135609 201 9439407887475460347
117089 54 18269847440442236071
11761917 87 18337687403420194411
11828532 37 18262813984908309135
12592606 108 18271524282470362343
12633257 1 14189275068515660884
12788726 201 18265325119315581672
13103583 49 14836106763935471652
13150687 139 12252178541888790768
13533116 47 18264485269195623833
13631057 29 18335702690152029736
13673619 4 18260544546201256085
13690498 29 18186512199214785917
14040221 126 18190186676829207802
14251764 30 18272367568416320886
14347424 109 17346878991927183449
14931854 50 17821725005284180307
14950920 106 14476090394318221156
15350500 185 8214140733537160375
16120349 189 8574419937851120314
17134984 74 17749103405052480474
19301679 30 18060147500507770925
20567600 254 8070027774406600932
208703 8 18343022190307611577
21033648 29 11167939173466744232
21344244 181 18410578388205982810
21365058 113 18113620127391756797
21403212 168 10303819774210525164
21585481 104 15286188472800301247
21716022 299 18262532492920613188
22393880 68 18191016799923444468
22899556 105 18115590331990914570
23559900 14 17915723303164408688
25269216 80 18200892677698675508
255183 451 18335421309427658469
2838139 119 12251909196279284838
404807 78 17168718542889137867
4112364 45 13182730463987002283
437815 12 18411422821355946211
46194498 28 17096078216499637805
54039377 194 18343025467584144334
57527295 17 17459184097114749553
57527585 21 15576711292151594212
70251023 43 18413392021249515248
7970288 3 18272930514359897614

> <PUBCHEM_SHAPE_MULTIPOLES>
579.85
23.23
3.92
1.74
40.15
2.9
-0.77
-31.97
4.27
-0.03
-0.36
-1.54
-0.51
1.95

> <PUBCHEM_SHAPE_SELFOVERLAP>
1215.066

> <PUBCHEM_SHAPE_VOLUME>
322.9

> <PUBCHEM_COORDINATE_TYPE>
2
5
10

$$$$
