7050208
  -OEChem-12032416123D

 60 62  0     1  0  0  0  0  0999 V2000
    6.6119    1.8257    1.4819 Cl  0  0  0  0  0  0  0  0  0  0  0  0
    7.2002    0.9964   -1.3037 F   0  0  0  0  0  0  0  0  0  0  0  0
   -2.0313   -2.4782    2.1444 O   0  0  0  0  0  0  0  0  0  0  0  0
    0.7392   -4.3823   -0.8897 O   0  0  0  0  0  0  0  0  0  0  0  0
   -2.0082   -4.5814   -1.6106 O   0  0  0  0  0  0  0  0  0  0  0  0
   -3.6702   -0.5391    2.1776 O   0  0  0  0  0  0  0  0  0  0  0  0
    2.4562   -1.4925    2.0312 O   0  0  0  0  0  0  0  0  0  0  0  0
   -5.6097   -0.2310   -1.2868 O   0  0  0  0  0  0  0  0  0  0  0  0
    1.4379    4.4270    0.3127 O   0  0  0  0  0  0  0  0  0  0  0  0
    1.5939   -1.7113   -0.1099 N   0  0  0  0  0  0  0  0  0  0  0  0
   -3.2049    0.1272   -0.0037 N   0  0  0  0  0  0  0  0  0  0  0  0
   -6.5233    1.3289    0.1305 N   0  0  0  0  0  0  0  0  0  0  0  0
   -2.0701   -1.7766    0.9072 C   0  0  1  0  0  0  0  0  0  0  0  0
    0.3341   -2.3072    0.2780 C   0  0  1  0  0  0  0  0  0  0  0  0
   -0.6906   -1.2062    0.5715 C   0  0  0  0  0  0  0  0  0  0  0  0
   -0.1618   -3.2747   -0.8049 C   0  0  2  0  0  0  0  0  0  0  0  0
   -2.5606   -2.7216   -0.1878 C   0  0  0  0  0  0  0  0  0  0  0  0
   -1.5511   -3.8317   -0.4847 C   0  0  1  0  0  0  0  0  0  0  0  0
   -3.0623   -0.6706    1.1185 C   0  0  0  0  0  0  0  0  0  0  0  0
   -4.1158    1.2472   -0.0669 C   0  0  1  0  0  0  0  0  0  0  0  0
    2.5591   -1.3508    0.8155 C   0  0  0  0  0  0  0  0  0  0  0  0
   -3.6397    2.3269   -1.0455 C   0  0  0  0  0  0  0  0  0  0  0  0
    3.7867   -0.7264    0.2588 C   0  0  0  0  0  0  0  0  0  0  0  0
   -5.4688    0.7005   -0.4980 C   0  0  0  0  0  0  0  0  0  0  0  0
   -2.2857    2.8869   -0.6835 C   0  0  0  0  0  0  0  0  0  0  0  0
    4.5366    0.1549    1.0378 C   0  0  0  0  0  0  0  0  0  0  0  0
    4.1904   -1.0230   -1.0431 C   0  0  0  0  0  0  0  0  0  0  0  0
   -2.1916    3.9933    0.1607 C   0  0  0  0  0  0  0  0  0  0  0  0
   -1.1284    2.2980   -1.1929 C   0  0  0  0  0  0  0  0  0  0  0  0
    5.6902    0.7394    0.5152 C   0  0  0  0  0  0  0  0  0  0  0  0
    5.3439   -0.4382   -1.5657 C   0  0  0  0  0  0  0  0  0  0  0  0
    6.0939    0.4429   -0.7867 C   0  0  0  0  0  0  0  0  0  0  0  0
   -0.9402    4.5106    0.4955 C   0  0  0  0  0  0  0  0  0  0  0  0
    0.1230    2.8154   -0.8584 C   0  0  0  0  0  0  0  0  0  0  0  0
    0.2171    3.9218   -0.0142 C   0  0  0  0  0  0  0  0  0  0  0  0
    0.5160   -2.8741    1.2007 H   0  0  0  0  0  0  0  0  0  0  0  0
   -0.3300   -0.5949    1.4100 H   0  0  0  0  0  0  0  0  0  0  0  0
   -0.7320   -0.5383   -0.2962 H   0  0  0  0  0  0  0  0  0  0  0  0
   -0.1638   -2.7949   -1.7912 H   0  0  0  0  0  0  0  0  0  0  0  0
   -3.5144   -3.1844    0.1006 H   0  0  0  0  0  0  0  0  0  0  0  0
   -2.7733   -2.1919   -1.1248 H   0  0  0  0  0  0  0  0  0  0  0  0
   -1.4925   -4.5298    0.3593 H   0  0  0  0  0  0  0  0  0  0  0  0
    1.7012   -1.4598   -1.0870 H   0  0  0  0  0  0  0  0  0  0  0  0
   -2.8918   -2.9108    2.2801 H   0  0  0  0  0  0  0  0  0  0  0  0
    0.7708   -4.8129   -0.0183 H   0  0  0  0  0  0  0  0  0  0  0  0
   -2.8848   -4.9388   -1.3880 H   0  0  0  0  0  0  0  0  0  0  0  0
   -2.7237   -0.1193   -0.8621 H   0  0  0  0  0  0  0  0  0  0  0  0
   -4.1989    1.6683    0.9431 H   0  0  0  0  0  0  0  0  0  0  0  0
   -4.3731    3.1430   -1.0891 H   0  0  0  0  0  0  0  0  0  0  0  0
   -3.5997    1.9239   -2.0671 H   0  0  0  0  0  0  0  0  0  0  0  0
    4.2234    0.3930    2.0519 H   0  0  0  0  0  0  0  0  0  0  0  0
    3.6534   -1.7269   -1.6719 H   0  0  0  0  0  0  0  0  0  0  0  0
   -7.4809    1.0496   -0.0556 H   0  0  0  0  0  0  0  0  0  0  0  0
   -6.3921    2.0947    0.7835 H   0  0  0  0  0  0  0  0  0  0  0  0
   -3.0861    4.4591    0.5655 H   0  0  0  0  0  0  0  0  0  0  0  0
   -1.1863    1.4412   -1.8587 H   0  0  0  0  0  0  0  0  0  0  0  0
    5.6626   -0.6738   -2.5769 H   0  0  0  0  0  0  0  0  0  0  0  0
   -0.8731    5.3722    1.1542 H   0  0  0  0  0  0  0  0  0  0  0  0
    1.0168    2.3474   -1.2623 H   0  0  0  0  0  0  0  0  0  0  0  0
    2.1257    3.8965   -0.1250 H   0  0  0  0  0  0  0  0  0  0  0  0
  1 30  1  0  0  0  0
  2 32  1  0  0  0  0
  3 13  1  0  0  0  0
  3 44  1  0  0  0  0
  4 16  1  0  0  0  0
  4 45  1  0  0  0  0
  5 18  1  0  0  0  0
  5 46  1  0  0  0  0
  6 19  2  0  0  0  0
  7 21  2  0  0  0  0
  8 24  2  0  0  0  0
  9 35  1  0  0  0  0
  9 60  1  0  0  0  0
 10 14  1  0  0  0  0
 10 21  1  0  0  0  0
 10 43  1  0  0  0  0
 11 19  1  0  0  0  0
 11 20  1  0  0  0  0
 11 47  1  0  0  0  0
 12 24  1  0  0  0  0
 12 53  1  0  0  0  0
 12 54  1  0  0  0  0
 13 15  1  0  0  0  0
 13 17  1  0  0  0  0
 13 19  1  0  0  0  0
 14 15  1  0  0  0  0
 14 16  1  0  0  0  0
 14 36  1  0  0  0  0
 15 37  1  0  0  0  0
 15 38  1  0  0  0  0
 16 18  1  0  0  0  0
 16 39  1  0  0  0  0
 17 18  1  0  0  0  0
 17 40  1  0  0  0  0
 17 41  1  0  0  0  0
 18 42  1  0  0  0  0
 20 22  1  0  0  0  0
 20 24  1  0  0  0  0
 20 48  1  0  0  0  0
 21 23  1  0  0  0  0
 22 25  1  0  0  0  0
 22 49  1  0  0  0  0
 22 50  1  0  0  0  0
 23 26  2  0  0  0  0
 23 27  1  0  0  0  0
 25 28  2  0  0  0  0
 25 29  1  0  0  0  0
 26 30  1  0  0  0  0
 26 51  1  0  0  0  0
 27 31  2  0  0  0  0
 27 52  1  0  0  0  0
 28 33  1  0  0  0  0
 28 55  1  0  0  0  0
 29 34  2  0  0  0  0
 29 56  1  0  0  0  0
 30 32  2  0  0  0  0
 31 32  1  0  0  0  0
 31 57  1  0  0  0  0
 33 35  2  0  0  0  0
 33 58  1  0  0  0  0
 34 35  1  0  0  0  0
 34 59  1  0  0  0  0
M  END
> <PUBCHEM_COMPOUND_CID>
7050208

> <PUBCHEM_CONFORMER_RMSD>
1.2

> <PUBCHEM_CONFORMER_DIVERSEORDER>
1
65
83
125
77
73
160
134
177
98
147
185
184
120
25
26
36
7
145
159
34
11
142
167
29
101
161
169
49
79
24
131
128
82
102
60
68
109
66
116
112
151
129
76
42
86
28
105
87
19
133
63
12
187
144
114
95
54
21
178
40
164
96
108
75
48
27
154
51
174
43
162
149
17
15
30
163
103
90
188
47
166
45
94
78
121
182
190
113
173
138
84
175
4
124
97
156
181
14
152
132
99
32
117
67
16
10
165
22
69
50
57
74
35
191
71
59
150
123
148
158
179
183
2
139
41
44
70
141
33
8
6
100
176
72
126
93
172
104
107
170
62
53
39
118
52
119
180
61
143
46
130
80
168
137
111
146
171
13
31
153
106
3
38
122
115
189
140
5
186
64
91
37
9
127
81
110
18
23
55
89
157
136
135
58
20
155
85
92
88
56

> <PUBCHEM_MMFF94_PARTIAL_CHARGES>
48
1 -0.18
10 -0.73
11 -0.73
12 -0.8
13 0.34
14 0.3
16 0.28
18 0.28
19 0.57
2 -0.19
20 0.36
21 0.54
22 0.14
23 0.09
24 0.57
25 -0.14
26 -0.15
27 -0.15
28 -0.15
29 -0.15
3 -0.68
30 0.18
31 -0.15
32 0.19
33 -0.15
34 -0.15
35 0.08
4 -0.68
43 0.37
44 0.4
45 0.4
46 0.4
47 0.37
5 -0.68
51 0.15
52 0.15
53 0.37
54 0.37
55 0.15
56 0.15
57 0.15
58 0.15
59 0.15
6 -0.57
60 0.45
7 -0.57
8 -0.57
9 -0.53

> <PUBCHEM_EFFECTIVE_ROTOR_COUNT>
10.2

> <PUBCHEM_PHARMACOPHORE_FEATURES>
16
1 10 donor
1 11 donor
1 12 donor
1 3 acceptor
1 3 donor
1 4 acceptor
1 4 donor
1 5 acceptor
1 5 donor
1 6 acceptor
1 7 acceptor
1 8 acceptor
1 9 donor
6 13 14 15 16 17 18 rings
6 23 26 27 30 31 32 rings
6 25 28 29 33 34 35 rings

> <PUBCHEM_HEAVY_ATOM_COUNT>
35

> <PUBCHEM_ATOM_DEF_STEREO_COUNT>
5

> <PUBCHEM_ATOM_UDEF_STEREO_COUNT>
0

> <PUBCHEM_BOND_DEF_STEREO_COUNT>
0

> <PUBCHEM_BOND_UDEF_STEREO_COUNT>
0

> <PUBCHEM_ISOTOPIC_ATOM_COUNT>
0

> <PUBCHEM_COMPONENT_COUNT>
1

> <PUBCHEM_CACTVS_TAUTO_COUNT>
16

> <PUBCHEM_CONFORMER_ID>
006B93E000000001

> <PUBCHEM_MMFF94_ENERGY>
85.8533

> <PUBCHEM_FEATURE_SELFOVERLAP>
81.228

> <PUBCHEM_SHAPE_FINGERPRINT>
10006869 2 18189607255078957090
10670039 82 18190752946901604748
10675989 125 17107329196537795869
10864689 126 18339358553345710660
11014199 57 17834676376555700838
11513181 2 18126004866840981119
12788726 201 18335417902953973144
13402501 40 18410008819016510905
1361 2 18341040857590737343
13911987 19 18336532829883668879
14114211 80 18200322000544985785
14251764 38 17904199230913053187
14394314 77 18337678499473415473
14840074 17 18335426737944287293
15001296 14 18114464577938743556
15297060 5 18127135160974289704
15575132 122 18262797355068583285
15876981 60 18189622816141239918
15927050 60 18123188176023242237
15968369 153 18270115863202984532
19319366 153 17676760994463660706
19611394 137 18115322188677015683
20101258 96 18046075022951559043
20764821 26 18264479770983571588
3383291 50 18410572911979371905
437795 96 18269828873899618712
44249763 50 18200301251943126578
5171179 24 18053943137108352824
57527585 21 18123731085986029037
6004065 56 18411692198063970245
6036956 94 18186812382405445677
6287921 2 17544762222519845709
6608658 132 18336818758151004575

> <PUBCHEM_SHAPE_MULTIPOLES>
658.85
13.7
6.36
1.55
15.51
1.01
0.37
5.48
-1.12
-4.02
-1.07
0.53
-0.62
0.91

> <PUBCHEM_SHAPE_SELFOVERLAP>
1397.974

> <PUBCHEM_SHAPE_VOLUME>
368.2

> <PUBCHEM_COORDINATE_TYPE>
2
5
10

$$$$
