28960083
  -OEChem-12032416203D

 66 69  0     1  0  0  0  0  0999 V2000
    3.9118   -4.1255    0.6812 F   0  0  0  0  0  0  0  0  0  0  0  0
   -6.1953    3.9419    1.2021 O   0  0  0  0  0  0  0  0  0  0  0  0
   -2.5369   -3.4064    0.9976 O   0  0  0  0  0  0  0  0  0  0  0  0
   -7.1109    1.9451    0.6061 O   0  0  0  0  0  0  0  0  0  0  0  0
   -3.3340   -1.6966   -0.3379 N   0  0  0  0  0  0  0  0  0  0  0  0
    0.2901    1.8103   -0.6606 N   0  0  0  0  0  0  0  0  0  0  0  0
    3.1119    1.8467   -0.2181 N   0  0  0  0  0  0  0  0  0  0  0  0
   -1.2390   -2.6841   -0.7844 N   0  0  0  0  0  0  0  0  0  0  0  0
    4.9943    3.1185    0.4471 N   0  0  0  0  0  0  0  0  0  0  0  0
   -3.3250    0.6850   -1.0267 C   0  0  2  0  0  0  0  0  0  0  0  0
   -4.5957    0.9022   -0.1630 C   0  0  1  0  0  0  0  0  0  0  0  0
   -3.2607   -0.7813   -1.4867 C   0  0  0  0  0  0  0  0  0  0  0  0
   -4.6956   -0.1281    0.9768 C   0  0  0  0  0  0  0  0  0  0  0  0
   -2.0199    1.0860   -0.3298 C   0  0  0  0  0  0  0  0  0  0  0  0
   -4.5567   -1.5575    0.4544 C   0  0  0  0  0  0  0  0  0  0  0  0
   -0.9488    1.4489   -1.3487 C   0  0  0  0  0  0  0  0  0  0  0  0
   -4.7133    2.3244    0.3841 C   0  0  0  0  0  0  0  0  0  0  0  0
    1.1728    2.5699   -1.5543 C   0  0  0  0  0  0  0  0  0  0  0  0
    0.9815    0.6078   -0.1794 C   0  0  0  0  0  0  0  0  0  0  0  0
    2.4493    3.0032   -0.8291 C   0  0  0  0  0  0  0  0  0  0  0  0
    2.2507    0.9762    0.5922 C   0  0  0  0  0  0  0  0  0  0  0  0
   -2.3748   -2.6659    0.0244 C   0  0  0  0  0  0  0  0  0  0  0  0
   -6.1360    2.6716    0.7260 C   0  0  0  0  0  0  0  0  0  0  0  0
    4.4700    1.9186    0.1110 C   0  0  0  0  0  0  0  0  0  0  0  0
    0.0770   -3.0523   -0.4100 C   0  0  0  0  0  0  0  0  0  0  0  0
    5.1958    0.7391    0.0691 C   0  0  0  0  0  0  0  0  0  0  0  0
    6.5468    0.7947    0.3935 C   0  0  0  0  0  0  0  0  0  0  0  0
    1.1064   -3.0138   -1.3505 C   0  0  0  0  0  0  0  0  0  0  0  0
    0.3430   -3.4533    0.8992 C   0  0  0  0  0  0  0  0  0  0  0  0
    6.3103    3.1333    0.7560 C   0  0  0  0  0  0  0  0  0  0  0  0
    7.1223    2.0107    0.7447 C   0  0  0  0  0  0  0  0  0  0  0  0
    2.4019   -3.3762   -0.9817 C   0  0  0  0  0  0  0  0  0  0  0  0
    1.6385   -3.8159    1.2679 C   0  0  0  0  0  0  0  0  0  0  0  0
    2.6679   -3.7773    0.3275 C   0  0  0  0  0  0  0  0  0  0  0  0
   -3.4438    1.3099   -1.9228 H   0  0  0  0  0  0  0  0  0  0  0  0
   -5.4483    0.7187   -0.8338 H   0  0  0  0  0  0  0  0  0  0  0  0
   -4.1244   -1.0082   -2.1247 H   0  0  0  0  0  0  0  0  0  0  0  0
   -2.3805   -0.9399   -2.1066 H   0  0  0  0  0  0  0  0  0  0  0  0
   -5.6496   -0.0360    1.5070 H   0  0  0  0  0  0  0  0  0  0  0  0
   -3.9036    0.0604    1.7131 H   0  0  0  0  0  0  0  0  0  0  0  0
   -1.7005    0.2885    0.3467 H   0  0  0  0  0  0  0  0  0  0  0  0
   -2.1735    1.9670    0.3026 H   0  0  0  0  0  0  0  0  0  0  0  0
   -4.5659   -2.2576    1.2952 H   0  0  0  0  0  0  0  0  0  0  0  0
   -5.4028   -1.8144   -0.1939 H   0  0  0  0  0  0  0  0  0  0  0  0
   -1.3173    2.3105   -1.9212 H   0  0  0  0  0  0  0  0  0  0  0  0
   -0.7781    0.6421   -2.0713 H   0  0  0  0  0  0  0  0  0  0  0  0
   -4.1061    2.4534    1.2868 H   0  0  0  0  0  0  0  0  0  0  0  0
   -4.3830    3.0424   -0.3759 H   0  0  0  0  0  0  0  0  0  0  0  0
    0.6639    3.4737   -1.9108 H   0  0  0  0  0  0  0  0  0  0  0  0
    1.4356    1.9723   -2.4378 H   0  0  0  0  0  0  0  0  0  0  0  0
    1.2487   -0.0420   -1.0225 H   0  0  0  0  0  0  0  0  0  0  0  0
    0.3539    0.0237    0.4996 H   0  0  0  0  0  0  0  0  0  0  0  0
    3.1143    3.4842   -1.5572 H   0  0  0  0  0  0  0  0  0  0  0  0
    2.2124    3.7434   -0.0542 H   0  0  0  0  0  0  0  0  0  0  0  0
    1.9882    1.4964    1.5226 H   0  0  0  0  0  0  0  0  0  0  0  0
    2.7551    0.0458    0.8770 H   0  0  0  0  0  0  0  0  0  0  0  0
   -1.3291   -2.3951   -1.7514 H   0  0  0  0  0  0  0  0  0  0  0  0
   -7.1117    4.2021    1.4362 H   0  0  0  0  0  0  0  0  0  0  0  0
    4.7543   -0.2082   -0.2227 H   0  0  0  0  0  0  0  0  0  0  0  0
    7.1511   -0.1072    0.3685 H   0  0  0  0  0  0  0  0  0  0  0  0
    0.9131   -2.7014   -2.3735 H   0  0  0  0  0  0  0  0  0  0  0  0
   -0.4038   -3.4775    1.6825 H   0  0  0  0  0  0  0  0  0  0  0  0
    6.7109    4.1058    1.0226 H   0  0  0  0  0  0  0  0  0  0  0  0
    8.1735    2.0778    1.0004 H   0  0  0  0  0  0  0  0  0  0  0  0
    3.2040   -3.3450   -1.7132 H   0  0  0  0  0  0  0  0  0  0  0  0
    1.8484   -4.1221    2.2886 H   0  0  0  0  0  0  0  0  0  0  0  0
  1 34  1  0  0  0  0
  2 23  1  0  0  0  0
  2 58  1  0  0  0  0
  3 22  2  0  0  0  0
  4 23  2  0  0  0  0
  5 12  1  0  0  0  0
  5 15  1  0  0  0  0
  5 22  1  0  0  0  0
  6 16  1  0  0  0  0
  6 18  1  0  0  0  0
  6 19  1  0  0  0  0
  7 20  1  0  0  0  0
  7 21  1  0  0  0  0
  7 24  1  0  0  0  0
  8 22  1  0  0  0  0
  8 25  1  0  0  0  0
  8 57  1  0  0  0  0
  9 24  1  0  0  0  0
  9 30  2  0  0  0  0
 10 11  1  0  0  0  0
 10 12  1  0  0  0  0
 10 14  1  0  0  0  0
 10 35  1  0  0  0  0
 11 13  1  0  0  0  0
 11 17  1  0  0  0  0
 11 36  1  0  0  0  0
 12 37  1  0  0  0  0
 12 38  1  0  0  0  0
 13 15  1  0  0  0  0
 13 39  1  0  0  0  0
 13 40  1  0  0  0  0
 14 16  1  0  0  0  0
 14 41  1  0  0  0  0
 14 42  1  0  0  0  0
 15 43  1  0  0  0  0
 15 44  1  0  0  0  0
 16 45  1  0  0  0  0
 16 46  1  0  0  0  0
 17 23  1  0  0  0  0
 17 47  1  0  0  0  0
 17 48  1  0  0  0  0
 18 20  1  0  0  0  0
 18 49  1  0  0  0  0
 18 50  1  0  0  0  0
 19 21  1  0  0  0  0
 19 51  1  0  0  0  0
 19 52  1  0  0  0  0
 20 53  1  0  0  0  0
 20 54  1  0  0  0  0
 21 55  1  0  0  0  0
 21 56  1  0  0  0  0
 24 26  2  0  0  0  0
 25 28  2  0  0  0  0
 25 29  1  0  0  0  0
 26 27  1  0  0  0  0
 26 59  1  0  0  0  0
 27 31  2  0  0  0  0
 27 60  1  0  0  0  0
 28 32  1  0  0  0  0
 28 61  1  0  0  0  0
 29 33  2  0  0  0  0
 29 62  1  0  0  0  0
 30 31  1  0  0  0  0
 30 63  1  0  0  0  0
 31 64  1  0  0  0  0
 32 34  2  0  0  0  0
 32 65  1  0  0  0  0
 33 34  1  0  0  0  0
 33 66  1  0  0  0  0
M  END
> <PUBCHEM_COMPOUND_CID>
28960083

> <PUBCHEM_CONFORMER_RMSD>
1.2

> <PUBCHEM_CONFORMER_DIVERSEORDER>
1
42
35
9
26
44
11
34
31
18
20
33
16
17
32
23
39
45
4
8
27
38
6
37
22
25
41
10
5
46
13
29
19
36
28
15
30
43
7
21
2
24
14
12
3
40

> <PUBCHEM_MMFF94_PARTIAL_CHARGES>
40
1 -0.19
12 0.3
15 0.3
16 0.27
17 0.06
18 0.27
19 0.27
2 -0.65
20 0.37
21 0.37
22 0.69
23 0.66
24 0.41
25 0.12
26 -0.15
27 -0.15
28 -0.15
29 -0.15
3 -0.57
30 0.16
31 -0.15
32 -0.15
33 -0.15
34 0.19
4 -0.57
5 -0.66
57 0.37
58 0.5
59 0.15
6 -0.81
60 0.15
61 0.15
62 0.15
63 0.15
64 0.15
65 0.15
66 0.15
7 -0.84
8 -0.55
9 -0.62

> <PUBCHEM_EFFECTIVE_ROTOR_COUNT>
11.4

> <PUBCHEM_PHARMACOPHORE_FEATURES>
12
1 2 acceptor
1 3 acceptor
1 4 acceptor
1 6 cation
1 7 cation
1 8 donor
1 9 acceptor
3 2 4 23 anion
6 25 28 29 32 33 34 rings
6 5 10 11 12 13 15 rings
6 6 7 18 19 20 21 rings
6 9 24 26 27 30 31 rings

> <PUBCHEM_HEAVY_ATOM_COUNT>
34

> <PUBCHEM_ATOM_DEF_STEREO_COUNT>
2

> <PUBCHEM_ATOM_UDEF_STEREO_COUNT>
0

> <PUBCHEM_BOND_DEF_STEREO_COUNT>
0

> <PUBCHEM_BOND_UDEF_STEREO_COUNT>
0

> <PUBCHEM_ISOTOPIC_ATOM_COUNT>
0

> <PUBCHEM_COMPONENT_COUNT>
1

> <PUBCHEM_CACTVS_TAUTO_COUNT>
2

> <PUBCHEM_CONFORMER_ID>
01B9E55300000001

> <PUBCHEM_MMFF94_ENERGY>
94.7371

> <PUBCHEM_FEATURE_SELFOVERLAP>
60.956

> <PUBCHEM_SHAPE_FINGERPRINT>
11135926 11 18410001122672370180
11513181 2 18202001044763837990
12422481 6 18335699460062472578
12925494 130 18409170991630658915
13140716 1 17760938733477807319
14725015 67 17908141332376015483
14790565 3 18265613372088217252
15274700 242 17607494069276314912
15400415 2 18337666533741514436
15420108 30 18271799129437089127
15439362 3 18337387124601563241
15444296 121 17970914599332583836
15927050 60 18412824694270849031
16112460 7 18125165939563627865
16719943 64 18191297398478815818
20642791 35 18269000777875886183
20771845 165 17896863380065318885
229767 44 18118962740178981070
338550 245 18116993489400283516
3411729 13 18342459192697969759
4073 2 18339361972039237008
4112364 45 17626408735749512097
5265222 85 18120948453847406428
59520647 208 18340763764040344586

> <PUBCHEM_SHAPE_MULTIPOLES>
649.92
15.82
6.5
1.25
3.08
5.02
0.21
-18.57
-6.19
2.06
-1.11
-0.39
0.08
-0.77

> <PUBCHEM_SHAPE_SELFOVERLAP>
1369.282

> <PUBCHEM_SHAPE_VOLUME>
363.2

> <PUBCHEM_COORDINATE_TYPE>
2
5
10

$$$$
