45784275
  -OEChem-12032416283D

 39 41  0     1  0  0  0  0  0999 V2000
    5.8850    0.9742   -0.0512 F   0  0  0  0  0  0  0  0  0  0  0  0
    5.5998   -1.1118    0.4919 F   0  0  0  0  0  0  0  0  0  0  0  0
    5.3787   -0.4923   -1.5747 F   0  0  0  0  0  0  0  0  0  0  0  0
   -4.4645   -0.2992   -0.0806 N   0  0  1  0  0  0  0  0  0  0  0  0
    0.2256   -1.2791   -0.1224 N   0  0  0  0  0  0  0  0  0  0  0  0
   -0.4146    0.7400    0.5507 N   0  0  0  0  0  0  0  0  0  0  0  0
   -2.2411   -0.9768    0.2302 C   0  0  2  0  0  0  0  0  0  0  0  0
   -3.1538   -0.1966   -0.7255 C   0  0  0  0  0  0  0  0  0  0  0  0
   -2.9532   -0.9074    1.5923 C   0  0  0  0  0  0  0  0  0  0  0  0
   -4.2038   -0.0749    1.3413 C   0  0  0  0  0  0  0  0  0  0  0  0
   -5.4264    0.6485   -0.6238 C   0  0  0  0  0  0  0  0  0  0  0  0
   -0.8176   -0.4694    0.2312 C   0  0  0  0  0  0  0  0  0  0  0  0
   -6.7513    0.5465    0.1266 C   0  0  0  0  0  0  0  0  0  0  0  0
   -5.6181    0.3799   -2.1131 C   0  0  0  0  0  0  0  0  0  0  0  0
    1.3786   -0.5432   -0.0250 C   0  0  0  0  0  0  0  0  0  0  0  0
    0.9525    0.7132    0.3970 C   0  0  0  0  0  0  0  0  0  0  0  0
    2.7167   -0.8588   -0.2623 C   0  0  0  0  0  0  0  0  0  0  0  0
    1.9043    1.7269    0.5994 C   0  0  0  0  0  0  0  0  0  0  0  0
    3.6505    0.1619   -0.0559 C   0  0  0  0  0  0  0  0  0  0  0  0
    3.2536    1.4325    0.3674 C   0  0  0  0  0  0  0  0  0  0  0  0
    5.0991   -0.1140   -0.2933 C   0  0  0  0  0  0  0  0  0  0  0  0
   -2.2342   -2.0316   -0.0815 H   0  0  0  0  0  0  0  0  0  0  0  0
   -3.1347   -0.6595   -1.7180 H   0  0  0  0  0  0  0  0  0  0  0  0
   -2.8287    0.8479   -0.8224 H   0  0  0  0  0  0  0  0  0  0  0  0
   -3.2313   -1.9205    1.9092 H   0  0  0  0  0  0  0  0  0  0  0  0
   -2.3357   -0.4699    2.3840 H   0  0  0  0  0  0  0  0  0  0  0  0
   -3.9961    0.9807    1.5591 H   0  0  0  0  0  0  0  0  0  0  0  0
   -5.0181   -0.4176    1.9871 H   0  0  0  0  0  0  0  0  0  0  0  0
   -5.0619    1.6792   -0.5142 H   0  0  0  0  0  0  0  0  0  0  0  0
   -7.5136    1.1685   -0.3566 H   0  0  0  0  0  0  0  0  0  0  0  0
   -6.6713    0.8989    1.1600 H   0  0  0  0  0  0  0  0  0  0  0  0
   -7.1291   -0.4823    0.1401 H   0  0  0  0  0  0  0  0  0  0  0  0
   -6.4266    1.0030   -2.5126 H   0  0  0  0  0  0  0  0  0  0  0  0
   -4.7245    0.6196   -2.6985 H   0  0  0  0  0  0  0  0  0  0  0  0
   -5.8872   -0.6653   -2.3043 H   0  0  0  0  0  0  0  0  0  0  0  0
    0.1625   -2.2479   -0.4061 H   0  0  0  0  0  0  0  0  0  0  0  0
    3.0142   -1.8489   -0.5907 H   0  0  0  0  0  0  0  0  0  0  0  0
    1.6056    2.7172    0.9280 H   0  0  0  0  0  0  0  0  0  0  0  0
    3.9856    2.2209    0.5256 H   0  0  0  0  0  0  0  0  0  0  0  0
  1 21  1  0  0  0  0
  2 21  1  0  0  0  0
  3 21  1  0  0  0  0
  4  8  1  0  0  0  0
  4 10  1  0  0  0  0
  4 11  1  0  0  0  0
  5 12  1  0  0  0  0
  5 15  1  0  0  0  0
  5 36  1  0  0  0  0
  6 12  2  0  0  0  0
  6 16  1  0  0  0  0
  7  8  1  0  0  0  0
  7  9  1  0  0  0  0
  7 12  1  0  0  0  0
  7 22  1  0  0  0  0
  8 23  1  0  0  0  0
  8 24  1  0  0  0  0
  9 10  1  0  0  0  0
  9 25  1  0  0  0  0
  9 26  1  0  0  0  0
 10 27  1  0  0  0  0
 10 28  1  0  0  0  0
 11 13  1  0  0  0  0
 11 14  1  0  0  0  0
 11 29  1  0  0  0  0
 13 30  1  0  0  0  0
 13 31  1  0  0  0  0
 13 32  1  0  0  0  0
 14 33  1  0  0  0  0
 14 34  1  0  0  0  0
 14 35  1  0  0  0  0
 15 16  2  0  0  0  0
 15 17  1  0  0  0  0
 16 18  1  0  0  0  0
 17 19  2  0  0  0  0
 17 37  1  0  0  0  0
 18 20  2  0  0  0  0
 18 38  1  0  0  0  0
 19 20  1  0  0  0  0
 19 21  1  0  0  0  0
 20 39  1  0  0  0  0
M  END
> <PUBCHEM_COMPOUND_CID>
45784275

> <PUBCHEM_CONFORMER_RMSD>
0.6

> <PUBCHEM_CONFORMER_DIVERSEORDER>
1
14
16
6
17
13
11
18
10
15
3
9
12
8
2
4
7
5

> <PUBCHEM_MMFF94_PARTIAL_CHARGES>
22
1 -0.34
10 0.27
11 0.27
12 0.01
15 -0.15
16 0.23
17 -0.15
18 -0.15
19 -0.14
2 -0.34
20 -0.15
21 1.16
3 -0.34
36 0.27
37 0.15
38 0.15
39 0.15
4 -0.81
5 0.03
6 -0.57
7 0.18
8 0.27

> <PUBCHEM_EFFECTIVE_ROTOR_COUNT>
4

> <PUBCHEM_PHARMACOPHORE_FEATURES>
7
1 4 cation
1 5 donor
3 11 13 14 hydrophobe
3 5 6 12 cation
5 4 7 8 9 10 rings
5 5 6 12 15 16 rings
6 15 16 17 18 19 20 rings

> <PUBCHEM_HEAVY_ATOM_COUNT>
21

> <PUBCHEM_ATOM_DEF_STEREO_COUNT>
1

> <PUBCHEM_ATOM_UDEF_STEREO_COUNT>
0

> <PUBCHEM_BOND_DEF_STEREO_COUNT>
0

> <PUBCHEM_BOND_UDEF_STEREO_COUNT>
0

> <PUBCHEM_ISOTOPIC_ATOM_COUNT>
0

> <PUBCHEM_COMPONENT_COUNT>
1

> <PUBCHEM_CACTVS_TAUTO_COUNT>
2

> <PUBCHEM_CONFORMER_ID>
02BA9CD300000001

> <PUBCHEM_MMFF94_ENERGY>
29.0167

> <PUBCHEM_FEATURE_SELFOVERLAP>
35.629

> <PUBCHEM_SHAPE_FINGERPRINT>
10354089 29 12973604430351687550
106641 1 14345804851181620917
11089746 13 18060697295034451745
11315181 36 15841552994090252451
11471102 20 18272371996759471104
11545043 162 17676776469383406017
11796584 16 17603587426647383506
12166972 35 18341331201770347073
12236239 1 16917349238355091013
12403259 415 18261395606570724969
12616971 3 17131563829136155521
12670543 26 18412263900216384772
12916748 109 14996281396886366838
13288520 33 14477241570566555595
13533116 47 18260824844457446914
13668630 136 17275386512548197191
13760787 19 16950279624201955218
13862211 1 18202283576692106502
14251718 22 14189574139266293291
14251752 14 17603580794869185336
14848160 23 13398631649559003117
15048467 5 16950285113354613110
15099037 51 18343301478607924039
15183329 4 18412545388035818521
15242439 84 18333450954092778555
15716309 27 9655575210596179001
15788980 27 18334859441293915467
17349148 13 16845578629499641587
17834072 33 16343983623868124073
17834072 8 18412265042630264493
17844677 252 17386016116659968869
18222031 100 17775289352921117896
18681886 176 16415468380911742859
18927931 339 13901906731081465005
19784866 170 16805319977400601019
200 152 17489588965477304129
20281389 69 17167859759967191589
20612939 158 18272373113393361552
20645477 56 17530682113576102059
20645477 70 18341331097968523375
20681677 155 15936411156247329721
21033648 29 18115017618922162313
21054139 6 16630517449552379175
21150785 3 16128656392525391224
21236236 1 18341897333862154505
21503847 285 16515968158938091964
21641784 216 18262536800920348020
21709351 56 18336824299085876559
22079108 93 12035453860724704972
221357 26 18343295951449685925
2215653 11 18343305864186245254
22224240 67 11963394050990372841
23035841 295 14129055911156180944
23402539 116 15698001825604539697
23402655 69 18272366477895177341
23536379 177 16515404062650051090
23559900 14 18271521004471097953
23569914 2 16447808428089228476
29717793 49 17060344019534367236
3009799 131 18273210898171951408
3014965 18 18261105223821740858
335352 9 18342177778278205638
34797466 226 16515696541312232542
3545911 37 18113900459959140379
4072396 5 18340477899121572418
4325135 7 12895065241412357570
5104073 3 18200877404193805146
5283156 175 16272210782668735511
542803 24 15647053780608575242
59682541 35 8862648097520132940
59755656 215 18410858724324652831
59755656 520 18186518818002566435
633830 44 17604987186025873354
67856867 119 15840976888462132433
7471813 234 16917347060654302633
90127 26 17604434118855919593
9971528 1 17918270978536633864

> <PUBCHEM_SHAPE_MULTIPOLES>
395.41
15.57
1.26
1.24
2.7
0.07
-0.02
-3.73
-2.29
0.74
0.04
0.01
-0.26
1.41

> <PUBCHEM_SHAPE_SELFOVERLAP>
853.095

> <PUBCHEM_SHAPE_VOLUME>
223.2

> <PUBCHEM_COORDINATE_TYPE>
2
5
10

$$$$
