71693102
  -OEChem-12032416413D

 59 61  0     1  0  0  0  0  0999 V2000
    4.0602   -0.0717    1.5426 O   0  0  0  0  0  0  0  0  0  0  0  0
    4.7866    4.8215    0.4762 O   0  0  0  0  0  0  0  0  0  0  0  0
    4.1106    3.9275   -1.4991 O   0  0  0  0  0  0  0  0  0  0  0  0
    3.3271   -1.0255   -0.4482 N   0  0  0  0  0  0  0  0  0  0  0  0
   -2.4254    0.9290    0.4657 N   0  0  0  0  0  0  0  0  0  0  0  0
   -3.4217    0.3147   -1.4292 N   0  0  0  0  0  0  0  0  0  0  0  0
   -5.6485    1.0955   -0.8587 N   0  0  0  0  0  0  0  0  0  0  0  0
    0.7624   -2.0110    0.7744 C   0  0  1  0  0  0  0  0  0  0  0  0
    1.7123   -2.8268   -0.1377 C   0  0  1  0  0  0  0  0  0  0  0  0
   -0.6937   -2.1707    0.3115 C   0  0  0  0  0  0  0  0  0  0  0  0
   -0.8967   -1.7073   -1.1434 C   0  0  2  0  0  0  0  0  0  0  0  0
    0.8883   -2.4268    2.2433 C   0  0  0  0  0  0  0  0  0  0  0  0
    0.1709   -2.2613   -2.0650 C   0  0  0  0  0  0  0  0  0  0  0  0
    1.3246   -2.7696   -1.5967 C   0  0  0  0  0  0  0  0  0  0  0  0
    3.1653   -2.3652    0.0230 C   0  0  0  0  0  0  0  0  0  0  0  0
   -0.9592   -0.1785   -1.2325 C   0  0  0  0  0  0  0  0  0  0  0  0
    0.4507   -1.2873    3.1583 C   0  0  0  0  0  0  0  0  0  0  0  0
    0.0663   -3.6831    2.5130 C   0  0  0  0  0  0  0  0  0  0  0  0
   -0.1373   -2.2593   -3.5364 C   0  0  0  0  0  0  0  0  0  0  0  0
   -2.2870    0.3447   -0.7646 C   0  0  0  0  0  0  0  0  0  0  0  0
    3.7662    0.0286    0.3545 C   0  0  0  0  0  0  0  0  0  0  0  0
   -3.7356    1.2994    0.6020 C   0  0  0  0  0  0  0  0  0  0  0  0
   -4.3326    0.9056   -0.5901 C   0  0  0  0  0  0  0  0  0  0  0  0
    3.8410    1.3371   -0.4117 C   0  0  0  0  0  0  0  0  0  0  0  0
   -4.4552    1.9236    1.6150 C   0  0  0  0  0  0  0  0  0  0  0  0
    4.3199    2.4953    0.4574 C   0  0  0  0  0  0  0  0  0  0  0  0
   -5.8079    2.1252    1.3537 C   0  0  0  0  0  0  0  0  0  0  0  0
   -6.3347    1.7038    0.1374 C   0  0  0  0  0  0  0  0  0  0  0  0
    4.3832    3.7926   -0.3144 C   0  0  0  0  0  0  0  0  0  0  0  0
    1.0265   -0.9499    0.6978 H   0  0  0  0  0  0  0  0  0  0  0  0
    1.6741   -3.8858    0.1471 H   0  0  0  0  0  0  0  0  0  0  0  0
   -1.3872   -1.6479    0.9773 H   0  0  0  0  0  0  0  0  0  0  0  0
   -0.9880   -3.2284    0.3264 H   0  0  0  0  0  0  0  0  0  0  0  0
   -1.8598   -2.1238   -1.4728 H   0  0  0  0  0  0  0  0  0  0  0  0
    1.9322   -2.6457    2.4902 H   0  0  0  0  0  0  0  0  0  0  0  0
    2.0351   -3.1968   -2.3018 H   0  0  0  0  0  0  0  0  0  0  0  0
    3.8302   -2.9929   -0.5827 H   0  0  0  0  0  0  0  0  0  0  0  0
    3.5107   -2.4521    1.0566 H   0  0  0  0  0  0  0  0  0  0  0  0
   -0.8454    0.1579   -2.2703 H   0  0  0  0  0  0  0  0  0  0  0  0
   -0.1439    0.2990   -0.6774 H   0  0  0  0  0  0  0  0  0  0  0  0
    0.5729   -1.5723    4.2091 H   0  0  0  0  0  0  0  0  0  0  0  0
    1.0596   -0.3928    2.9880 H   0  0  0  0  0  0  0  0  0  0  0  0
   -0.5991   -1.0153    3.0116 H   0  0  0  0  0  0  0  0  0  0  0  0
    0.2842   -4.4905    1.8077 H   0  0  0  0  0  0  0  0  0  0  0  0
    0.3147   -4.0680    3.5099 H   0  0  0  0  0  0  0  0  0  0  0  0
   -1.0127   -3.4966    2.5273 H   0  0  0  0  0  0  0  0  0  0  0  0
   -1.0830   -2.7771   -3.7271 H   0  0  0  0  0  0  0  0  0  0  0  0
    0.6375   -2.7694   -4.1190 H   0  0  0  0  0  0  0  0  0  0  0  0
   -0.2157   -1.2385   -3.9207 H   0  0  0  0  0  0  0  0  0  0  0  0
    3.1651   -0.8432   -1.4347 H   0  0  0  0  0  0  0  0  0  0  0  0
   -1.6934    1.0607    1.1513 H   0  0  0  0  0  0  0  0  0  0  0  0
    4.5186    1.1994   -1.2632 H   0  0  0  0  0  0  0  0  0  0  0  0
    2.8447    1.5552   -0.8157 H   0  0  0  0  0  0  0  0  0  0  0  0
   -3.9970    2.2331    2.5462 H   0  0  0  0  0  0  0  0  0  0  0  0
    5.3208    2.2801    0.8483 H   0  0  0  0  0  0  0  0  0  0  0  0
    3.6363    2.6331    1.3030 H   0  0  0  0  0  0  0  0  0  0  0  0
   -6.4432    2.6055    2.0908 H   0  0  0  0  0  0  0  0  0  0  0  0
   -7.3895    1.8573   -0.0746 H   0  0  0  0  0  0  0  0  0  0  0  0
    4.8294    5.6674   -0.0187 H   0  0  0  0  0  0  0  0  0  0  0  0
  1 21  2  0  0  0  0
  2 29  1  0  0  0  0
  2 59  1  0  0  0  0
  3 29  2  0  0  0  0
  4 15  1  0  0  0  0
  4 21  1  0  0  0  0
  4 50  1  0  0  0  0
  5 20  1  0  0  0  0
  5 22  1  0  0  0  0
  5 51  1  0  0  0  0
  6 20  2  0  0  0  0
  6 23  1  0  0  0  0
  7 23  1  0  0  0  0
  7 28  2  0  0  0  0
  8  9  1  0  0  0  0
  8 10  1  0  0  0  0
  8 12  1  0  0  0  0
  8 30  1  0  0  0  0
  9 14  1  0  0  0  0
  9 15  1  0  0  0  0
  9 31  1  0  0  0  0
 10 11  1  0  0  0  0
 10 32  1  0  0  0  0
 10 33  1  0  0  0  0
 11 13  1  0  0  0  0
 11 16  1  0  0  0  0
 11 34  1  0  0  0  0
 12 17  1  0  0  0  0
 12 18  1  0  0  0  0
 12 35  1  0  0  0  0
 13 14  2  0  0  0  0
 13 19  1  0  0  0  0
 14 36  1  0  0  0  0
 15 37  1  0  0  0  0
 15 38  1  0  0  0  0
 16 20  1  0  0  0  0
 16 39  1  0  0  0  0
 16 40  1  0  0  0  0
 17 41  1  0  0  0  0
 17 42  1  0  0  0  0
 17 43  1  0  0  0  0
 18 44  1  0  0  0  0
 18 45  1  0  0  0  0
 18 46  1  0  0  0  0
 19 47  1  0  0  0  0
 19 48  1  0  0  0  0
 19 49  1  0  0  0  0
 21 24  1  0  0  0  0
 22 23  2  0  0  0  0
 22 25  1  0  0  0  0
 24 26  1  0  0  0  0
 24 52  1  0  0  0  0
 24 53  1  0  0  0  0
 25 27  2  0  0  0  0
 25 54  1  0  0  0  0
 26 29  1  0  0  0  0
 26 55  1  0  0  0  0
 26 56  1  0  0  0  0
 27 28  1  0  0  0  0
 27 57  1  0  0  0  0
 28 58  1  0  0  0  0
M  END
> <PUBCHEM_COMPOUND_CID>
71693102

> <PUBCHEM_CONFORMER_RMSD>
1

> <PUBCHEM_CONFORMER_DIVERSEORDER>
1
103
42
91
51
83
39
3
76
53
23
47
29
90
67
31
77
82
81
60
66
26
105
59
57
50
88
55
46
54
65
93
86
32
41
56
15
75
100
71
7
21
43
73
12
98
33
80
18
85
101
92
97
70
62
45
95
96
24
79
89
61
30
84
19
49
69
68
78
6
52
8
36
38
2
104
28
48
63
10
11
27
72
44
37
9
58
16
74
40
87
35
34
99
5
4
102
14
94
17
64
22
13
20
25

> <PUBCHEM_MMFF94_PARTIAL_CHARGES>
31
1 -0.57
11 0.14
13 -0.28
14 -0.29
15 0.3
16 0.18
19 0.14
2 -0.65
20 0.01
21 0.57
22 -0.15
23 0.48
24 0.06
25 -0.15
26 0.06
27 -0.15
28 0.16
29 0.66
3 -0.57
36 0.15
4 -0.73
5 0.03
50 0.37
51 0.27
54 0.15
57 0.15
58 0.15
59 0.5
6 -0.57
7 -0.57
9 0.14

> <PUBCHEM_EFFECTIVE_ROTOR_COUNT>
9.8

> <PUBCHEM_PHARMACOPHORE_FEATURES>
12
1 1 acceptor
1 2 acceptor
1 3 acceptor
1 4 donor
1 5 donor
1 7 acceptor
3 12 17 18 hydrophobe
3 2 3 29 anion
3 5 6 20 cation
5 5 6 20 22 23 rings
6 7 22 23 25 27 28 rings
6 8 9 10 11 13 14 rings

> <PUBCHEM_HEAVY_ATOM_COUNT>
29

> <PUBCHEM_ATOM_DEF_STEREO_COUNT>
3

> <PUBCHEM_ATOM_UDEF_STEREO_COUNT>
0

> <PUBCHEM_BOND_DEF_STEREO_COUNT>
0

> <PUBCHEM_BOND_UDEF_STEREO_COUNT>
0

> <PUBCHEM_ISOTOPIC_ATOM_COUNT>
0

> <PUBCHEM_COMPONENT_COUNT>
1

> <PUBCHEM_CACTVS_TAUTO_COUNT>
10

> <PUBCHEM_CONFORMER_ID>
0445F32E00000001

> <PUBCHEM_MMFF94_ENERGY>
48.7287

> <PUBCHEM_FEATURE_SELFOVERLAP>
61.082

> <PUBCHEM_SHAPE_FINGERPRINT>
10937287 8 18270397329868829020
11112241 14 18259989288566157449
11479125 193 18342465888552829521
12104220 4 16903878885360160833
12788726 201 17766545129797438286
13583140 156 17680412373985141279
13761468 95 17265855014194687012
14251764 75 18342744069205175080
14849402 71 18338238163775880958
15142526 21 18334858333255598563
19438510 23 18266453390403386352
21285901 2 12391223860432098546
21475661 188 18334575733187483522
21716022 299 15409222672543701406
23559900 14 16841909370968493231
245318 6 18339932600782546676
25222932 49 12832355690902046777
3411729 13 18411704253620769765
392239 28 17968094175280696171
469060 322 14925333351825485002
474 4 18341048540659521454
56616090 13 18410009974631394590
57527585 21 17834387205092158710
6036956 94 17111280270039317468
7288768 16 17970340628033891640

> <PUBCHEM_SHAPE_MULTIPOLES>
559.27
11.76
5.37
2.67
13.14
4.42
-0.14
16.82
-1.38
-8.7
-0.21
0
-2.74
-1.44

> <PUBCHEM_SHAPE_SELFOVERLAP>
1172.825

> <PUBCHEM_SHAPE_VOLUME>
312.7

> <PUBCHEM_COORDINATE_TYPE>
2
5
10

$$$$
