11885135
  -OEChem-12032416413D

 55 59  0     1  0  0  0  0  0999 V2000
    3.0552   -1.5824   -0.5391 S   0  0  0  0  0  0  0  0  0  0  0  0
    3.0545   -1.9371   -1.9426 O   0  0  0  0  0  0  0  0  0  0  0  0
    2.5024   -2.4775    0.4555 O   0  0  0  0  0  0  0  0  0  0  0  0
   -2.2981    1.0613   -1.7902 O   0  0  0  0  0  0  0  0  0  0  0  0
   -7.9091   -1.2006   -0.1603 O   0  0  0  0  0  0  0  0  0  0  0  0
    2.3468   -0.0362   -0.3519 N   0  0  2  0  0  0  0  0  0  0  0  0
   -0.4607    1.4124   -0.3974 N   0  0  0  0  0  0  0  0  0  0  0  0
    1.8051    2.2177   -1.2795 C   0  0  1  0  0  0  0  0  0  0  0  0
    1.5145    1.7862    1.1206 C   0  0  2  0  0  0  0  0  0  0  0  0
    1.9671    2.8315    0.1048 C   0  0  0  0  0  0  0  0  0  0  0  0
    2.6726    0.9557   -1.4162 C   0  0  0  0  0  0  0  0  0  0  0  0
    2.4209    0.5459    1.0217 C   0  0  0  0  0  0  0  0  0  0  0  0
    0.3182    1.9361   -1.5282 C   0  0  0  0  0  0  0  0  0  0  0  0
    0.0644    1.3994    0.8968 C   0  0  0  0  0  0  0  0  0  0  0  0
   -0.7050    1.0262    1.9318 C   0  0  0  0  0  0  0  0  0  0  0  0
   -1.7892    1.0293   -0.6683 C   0  0  0  0  0  0  0  0  0  0  0  0
   -2.6159    0.5812    0.5069 C   0  0  0  0  0  0  0  0  0  0  0  0
   -2.0624    0.6059    1.7286 C   0  0  0  0  0  0  0  0  0  0  0  0
    4.7197   -1.2183   -0.0761 C   0  0  0  0  0  0  0  0  0  0  0  0
   -4.0024    0.1149    0.3316 C   0  0  0  0  0  0  0  0  0  0  0  0
    5.0954   -1.3384    1.2516 C   0  0  0  0  0  0  0  0  0  0  0  0
    5.6213   -0.8175   -1.0482 C   0  0  0  0  0  0  0  0  0  0  0  0
   -5.0595    1.0223    0.4067 C   0  0  0  0  0  0  0  0  0  0  0  0
   -4.2595   -1.2354    0.0909 C   0  0  0  0  0  0  0  0  0  0  0  0
    6.4101   -1.0494    1.6178 C   0  0  0  0  0  0  0  0  0  0  0  0
    6.9360   -0.5286   -0.6821 C   0  0  0  0  0  0  0  0  0  0  0  0
    7.3302   -0.6445    0.6509 C   0  0  0  0  0  0  0  0  0  0  0  0
   -6.3721    0.5803    0.2414 C   0  0  0  0  0  0  0  0  0  0  0  0
   -5.5721   -1.6773   -0.0746 C   0  0  0  0  0  0  0  0  0  0  0  0
   -6.6284   -0.7696    0.0007 C   0  0  0  0  0  0  0  0  0  0  0  0
   -8.0999   -2.5936   -0.4035 C   0  0  0  0  0  0  0  0  0  0  0  0
    2.1473    2.9338   -2.0372 H   0  0  0  0  0  0  0  0  0  0  0  0
    1.6290    2.2169    2.1240 H   0  0  0  0  0  0  0  0  0  0  0  0
    1.3693    3.7472    0.1945 H   0  0  0  0  0  0  0  0  0  0  0  0
    3.0127    3.1123    0.2806 H   0  0  0  0  0  0  0  0  0  0  0  0
    2.5030    0.5146   -2.4041 H   0  0  0  0  0  0  0  0  0  0  0  0
    3.7267    1.2438   -1.3453 H   0  0  0  0  0  0  0  0  0  0  0  0
    3.4474    0.8505    1.2503 H   0  0  0  0  0  0  0  0  0  0  0  0
    2.1057   -0.1994    1.7606 H   0  0  0  0  0  0  0  0  0  0  0  0
   -0.1728    2.8768   -1.8135 H   0  0  0  0  0  0  0  0  0  0  0  0
    0.1915    1.2598   -2.3829 H   0  0  0  0  0  0  0  0  0  0  0  0
   -0.3200    1.0003    2.9459 H   0  0  0  0  0  0  0  0  0  0  0  0
   -2.6144    0.2919    2.6097 H   0  0  0  0  0  0  0  0  0  0  0  0
    4.3950   -1.6502    2.0203 H   0  0  0  0  0  0  0  0  0  0  0  0
    5.3343   -0.7177   -2.0905 H   0  0  0  0  0  0  0  0  0  0  0  0
   -4.8758    2.0778    0.5928 H   0  0  0  0  0  0  0  0  0  0  0  0
   -3.4458   -1.9542    0.0289 H   0  0  0  0  0  0  0  0  0  0  0  0
    6.7171   -1.1388    2.6557 H   0  0  0  0  0  0  0  0  0  0  0  0
    7.6524   -0.2123   -1.4345 H   0  0  0  0  0  0  0  0  0  0  0  0
    8.3537   -0.4189    0.9360 H   0  0  0  0  0  0  0  0  0  0  0  0
   -7.1909    1.2921    0.3009 H   0  0  0  0  0  0  0  0  0  0  0  0
   -5.6998   -2.7385   -0.2587 H   0  0  0  0  0  0  0  0  0  0  0  0
   -7.6372   -2.9045   -1.3463 H   0  0  0  0  0  0  0  0  0  0  0  0
   -9.1774   -2.7591   -0.5066 H   0  0  0  0  0  0  0  0  0  0  0  0
   -7.7630   -3.1999    0.4441 H   0  0  0  0  0  0  0  0  0  0  0  0
  1  2  2  0  0  0  0
  1  3  2  0  0  0  0
  1  6  1  0  0  0  0
  1 19  1  0  0  0  0
  4 16  2  0  0  0  0
  5 30  1  0  0  0  0
  5 31  1  0  0  0  0
  6 11  1  0  0  0  0
  6 12  1  0  0  0  0
  7 13  1  0  0  0  0
  7 14  1  0  0  0  0
  7 16  1  0  0  0  0
  8 10  1  0  0  0  0
  8 11  1  0  0  0  0
  8 13  1  0  0  0  0
  8 32  1  0  0  0  0
  9 10  1  0  0  0  0
  9 12  1  0  0  0  0
  9 14  1  0  0  0  0
  9 33  1  0  0  0  0
 10 34  1  0  0  0  0
 10 35  1  0  0  0  0
 11 36  1  0  0  0  0
 11 37  1  0  0  0  0
 12 38  1  0  0  0  0
 12 39  1  0  0  0  0
 13 40  1  0  0  0  0
 13 41  1  0  0  0  0
 14 15  2  0  0  0  0
 15 18  1  0  0  0  0
 15 42  1  0  0  0  0
 16 17  1  0  0  0  0
 17 18  2  0  0  0  0
 17 20  1  0  0  0  0
 18 43  1  0  0  0  0
 19 21  2  0  0  0  0
 19 22  1  0  0  0  0
 20 23  2  0  0  0  0
 20 24  1  0  0  0  0
 21 25  1  0  0  0  0
 21 44  1  0  0  0  0
 22 26  2  0  0  0  0
 22 45  1  0  0  0  0
 23 28  1  0  0  0  0
 23 46  1  0  0  0  0
 24 29  2  0  0  0  0
 24 47  1  0  0  0  0
 25 27  2  0  0  0  0
 25 48  1  0  0  0  0
 26 27  1  0  0  0  0
 26 49  1  0  0  0  0
 27 50  1  0  0  0  0
 28 30  2  0  0  0  0
 28 51  1  0  0  0  0
 29 30  1  0  0  0  0
 29 52  1  0  0  0  0
 31 53  1  0  0  0  0
 31 54  1  0  0  0  0
 31 55  1  0  0  0  0
M  END
> <PUBCHEM_COMPOUND_CID>
11885135

> <PUBCHEM_CONFORMER_RMSD>
0.8

> <PUBCHEM_CONFORMER_DIVERSEORDER>
1
5
6
7
4
9
8
3
2

> <PUBCHEM_MMFF94_PARTIAL_CHARGES>
40
1 1.45
11 0.36
12 0.36
13 0.3
14 -0.03
15 -0.15
16 0.62
17 -0.01
18 -0.15
19 -0.01
2 -0.65
20 0.03
21 -0.15
22 -0.15
23 -0.15
24 -0.15
25 -0.15
26 -0.15
27 -0.15
28 -0.15
29 -0.15
3 -0.65
30 0.08
31 0.28
4 -0.57
42 0.15
43 0.15
44 0.15
45 0.15
46 0.15
47 0.15
48 0.15
49 0.15
5 -0.36
50 0.15
51 0.15
52 0.15
6 -0.85
7 -0.47
9 0.14

> <PUBCHEM_EFFECTIVE_ROTOR_COUNT>
5

> <PUBCHEM_PHARMACOPHORE_FEATURES>
9
1 2 acceptor
1 3 acceptor
1 4 acceptor
1 5 acceptor
6 19 21 22 25 26 27 rings
6 20 23 24 28 29 30 rings
6 6 8 9 10 11 12 rings
6 7 14 15 16 17 18 rings
6 7 8 9 10 13 14 rings

> <PUBCHEM_HEAVY_ATOM_COUNT>
31

> <PUBCHEM_ATOM_DEF_STEREO_COUNT>
2

> <PUBCHEM_ATOM_UDEF_STEREO_COUNT>
0

> <PUBCHEM_BOND_DEF_STEREO_COUNT>
0

> <PUBCHEM_BOND_UDEF_STEREO_COUNT>
0

> <PUBCHEM_ISOTOPIC_ATOM_COUNT>
0

> <PUBCHEM_COMPONENT_COUNT>
1

> <PUBCHEM_CACTVS_TAUTO_COUNT>
1

> <PUBCHEM_CONFORMER_ID>
00B55A4F00000001

> <PUBCHEM_MMFF94_ENERGY>
86.3465

> <PUBCHEM_FEATURE_SELFOVERLAP>
47.276

> <PUBCHEM_SHAPE_FINGERPRINT>
10 15 15052013476513476336
10165383 225 12103841263796098456
10670039 82 14851596657882707423
10883706 17 18191308380752981091
11135609 99 18130224964351479311
11828532 37 14418720089415277473
12107698 1 17749108876598131644
12516196 113 18272652316474550672
12522641 33 17824267214614445756
12596602 18 16773801342386921794
12633257 1 13686005475913787339
13533116 47 18342460400306544193
13540713 4 16227757647427245409
13540713 5 15121794076993044753
13673619 4 18408884049171337809
13685833 64 18411981364419746641
13782708 43 18334011700880951425
14068700 675 18409730651381045600
14251751 18 18411981347492967991
14341114 176 15697996311045795296
14347332 77 18041276582530396405
1454969 45 18335147488509371630
15183329 4 17821447954540002803
15357212 105 13756634916813515770
15510800 12 18341625840605918739
15728490 51 17846493760206225726
15849732 13 17703789210582205398
18335252 114 12324233988247878347
19958102 18 15213301859869038362
20028762 73 18342460339887605542
2026 5 18411980257004928311
20567600 247 18334012783360675899
20567600 70 18342176682687187074
21344244 78 17704352182195820608
21641784 216 15068889859936540759
21792934 111 15482405179384211785
23522609 53 17970940810806647284
23559900 14 16588316032699048925
23569943 247 17895186646180800251
23576562 1 14491047115996265319
249057 3 18408885119034841361
25222932 49 18336822009652659926
2747138 104 17846780698402280370
2838139 119 8286192829842648586
3004659 81 18409729577817933107
3009799 131 16298392353454515392
3383291 50 18131634513169563903
4066623 53 16153708730425006948
4098825 35 17530963562092341909
4149490 64 18264490766326378307
437795 51 17774998029822054376
439807 62 17821446859328928791
4461854 278 17203333350727557119
463206 1 18338236076079085267
59682541 35 17988915683511870962
59755656 520 10591751065624318200
6004065 56 18408605885413699200
613672 6 17968959499727431858
6438161 24 18408600388151011243
6669772 16 17531813592819983768
9962374 69 18340200916754493303

> <PUBCHEM_SHAPE_MULTIPOLES>
608.38
20.09
2.57
1.58
16.02
0.03
-0.01
-16.18
-0.54
0.34
0.42
-1.39
0.33
-0.78

> <PUBCHEM_SHAPE_SELFOVERLAP>
1324.787

> <PUBCHEM_SHAPE_VOLUME>
331.4

> <PUBCHEM_COORDINATE_TYPE>
2
5
10

$$$$
