45361691
  -OEChem-12032416413D

 74 77  0     1  0  0  0  0  0999 V2000
    2.5565   -0.8230    0.3318 O   0  0  0  0  0  0  0  0  0  0  0  0
   -4.5641   -2.1252    0.5769 O   0  0  0  0  0  0  0  0  0  0  0  0
    1.9974   -3.4524    0.8894 O   0  0  0  0  0  0  0  0  0  0  0  0
   -4.6618    1.4669   -1.7892 O   0  0  0  0  0  0  0  0  0  0  0  0
    3.1888    1.0247   -0.8581 O   0  0  0  0  0  0  0  0  0  0  0  0
   -6.1506    1.8157   -0.0572 N   0  0  0  0  0  0  0  0  0  0  0  0
    4.7077   -0.2067    0.4290 N   0  0  0  0  0  0  0  0  0  0  0  0
   -1.7816   -0.6829    0.3537 C   0  0  2  0  0  0  0  0  0  0  0  0
   -1.0509   -1.7357   -0.5665 C   0  0  1  0  0  0  0  0  0  0  0  0
    0.4688   -2.0151   -0.2533 C   0  0  1  0  0  0  0  0  0  0  0  0
   -3.1637   -0.3403   -0.3426 C   0  0  1  0  0  0  0  0  0  0  0  0
   -0.9111    0.6008    0.4188 C   0  0  0  0  0  0  0  0  0  0  0  0
   -1.9151   -3.0031   -0.7480 C   0  0  0  0  0  0  0  0  0  0  0  0
    1.2175   -0.6532   -0.1328 C   0  0  1  0  0  0  0  0  0  0  0  0
   -4.0335   -1.5862   -0.6297 C   0  0  1  0  0  0  0  0  0  0  0  0
    0.5406    0.3407    0.8047 C   0  0  0  0  0  0  0  0  0  0  0  0
   -3.2650   -2.6678   -1.3835 C   0  0  0  0  0  0  0  0  0  0  0  0
   -2.0112   -1.1795    1.8020 C   0  0  0  0  0  0  0  0  0  0  0  0
    0.7039   -2.8981    0.9892 C   0  0  0  0  0  0  0  0  0  0  0  0
   -4.0034    0.7275    0.3772 C   0  0  0  0  0  0  0  0  0  0  0  0
    1.1004   -2.7893   -1.4466 C   0  0  0  0  0  0  0  0  0  0  0  0
   -4.9599    1.3658   -0.5978 C   0  0  0  0  0  0  0  0  0  0  0  0
    3.4723    0.0982   -0.1087 C   0  0  0  0  0  0  0  0  0  0  0  0
   -7.1759    2.4606   -0.8643 C   0  0  0  0  0  0  0  0  0  0  0  0
   -6.5649    1.7232    1.3394 C   0  0  0  0  0  0  0  0  0  0  0  0
   -8.4042    2.4885    0.0321 C   0  0  0  0  0  0  0  0  0  0  0  0
   -7.8028    2.6045    1.4270 C   0  0  0  0  0  0  0  0  0  0  0  0
    5.9311    0.4760    0.2412 C   0  0  0  0  0  0  0  0  0  0  0  0
    7.0889    0.0186    0.8706 C   0  0  0  0  0  0  0  0  0  0  0  0
    5.9805    1.6071   -0.5734 C   0  0  0  0  0  0  0  0  0  0  0  0
    8.2959    0.6923    0.6854 C   0  0  0  0  0  0  0  0  0  0  0  0
    7.1877    2.2809   -0.7587 C   0  0  0  0  0  0  0  0  0  0  0  0
    8.3454    1.8235   -0.1294 C   0  0  0  0  0  0  0  0  0  0  0  0
    9.6364    2.5430   -0.3288 C   0  0  0  0  0  0  0  0  0  0  0  0
   -1.0277   -1.2642   -1.5638 H   0  0  0  0  0  0  0  0  0  0  0  0
   -2.8813    0.0564   -1.3289 H   0  0  0  0  0  0  0  0  0  0  0  0
   -1.3220    1.3140    1.1422 H   0  0  0  0  0  0  0  0  0  0  0  0
   -0.9241    1.1052   -0.5564 H   0  0  0  0  0  0  0  0  0  0  0  0
   -2.0754   -3.5176    0.2041 H   0  0  0  0  0  0  0  0  0  0  0  0
   -1.4157   -3.7223   -1.4046 H   0  0  0  0  0  0  0  0  0  0  0  0
    1.2273   -0.2127   -1.1405 H   0  0  0  0  0  0  0  0  0  0  0  0
   -4.8959   -1.2965   -1.2418 H   0  0  0  0  0  0  0  0  0  0  0  0
    0.6194    0.0035    1.8441 H   0  0  0  0  0  0  0  0  0  0  0  0
    1.0804    1.2959    0.7867 H   0  0  0  0  0  0  0  0  0  0  0  0
   -3.0939   -2.3311   -2.4138 H   0  0  0  0  0  0  0  0  0  0  0  0
   -3.8621   -3.5857   -1.4405 H   0  0  0  0  0  0  0  0  0  0  0  0
   -2.4936   -2.1572    1.8485 H   0  0  0  0  0  0  0  0  0  0  0  0
   -2.6362   -0.4792    2.3661 H   0  0  0  0  0  0  0  0  0  0  0  0
   -1.0848   -1.2652    2.3701 H   0  0  0  0  0  0  0  0  0  0  0  0
    0.6502   -2.3374    1.9232 H   0  0  0  0  0  0  0  0  0  0  0  0
   -0.0048   -3.7286    1.0398 H   0  0  0  0  0  0  0  0  0  0  0  0
   -4.5221    0.2844    1.2296 H   0  0  0  0  0  0  0  0  0  0  0  0
   -3.3877    1.5456    0.7603 H   0  0  0  0  0  0  0  0  0  0  0  0
    0.7751   -3.8347   -1.4797 H   0  0  0  0  0  0  0  0  0  0  0  0
    0.8200   -2.3281   -2.4010 H   0  0  0  0  0  0  0  0  0  0  0  0
    2.1963   -2.7849   -1.4180 H   0  0  0  0  0  0  0  0  0  0  0  0
   -5.1283   -2.8809    0.3406 H   0  0  0  0  0  0  0  0  0  0  0  0
    2.1345   -4.0106    1.6736 H   0  0  0  0  0  0  0  0  0  0  0  0
   -7.3372    1.9155   -1.7990 H   0  0  0  0  0  0  0  0  0  0  0  0
   -6.8264    3.4719   -1.1001 H   0  0  0  0  0  0  0  0  0  0  0  0
   -5.7680    2.0558    2.0106 H   0  0  0  0  0  0  0  0  0  0  0  0
   -6.8071    0.6759    1.5506 H   0  0  0  0  0  0  0  0  0  0  0  0
   -8.9555    1.5446   -0.0558 H   0  0  0  0  0  0  0  0  0  0  0  0
   -9.0852    3.3086   -0.2107 H   0  0  0  0  0  0  0  0  0  0  0  0
   -7.5107    3.6442    1.6184 H   0  0  0  0  0  0  0  0  0  0  0  0
   -8.4893    2.2898    2.2176 H   0  0  0  0  0  0  0  0  0  0  0  0
    4.7453   -1.0226    1.0352 H   0  0  0  0  0  0  0  0  0  0  0  0
    7.0640   -0.8619    1.5076 H   0  0  0  0  0  0  0  0  0  0  0  0
    5.1264    2.0190   -1.0927 H   0  0  0  0  0  0  0  0  0  0  0  0
    9.1916    0.3251    1.1794 H   0  0  0  0  0  0  0  0  0  0  0  0
    7.2152    3.1601   -1.3973 H   0  0  0  0  0  0  0  0  0  0  0  0
   10.1657    2.1319   -1.1941 H   0  0  0  0  0  0  0  0  0  0  0  0
    9.4708    3.6130   -0.4942 H   0  0  0  0  0  0  0  0  0  0  0  0
   10.2803    2.4513    0.5525 H   0  0  0  0  0  0  0  0  0  0  0  0
  1 14  1  0  0  0  0
  1 23  1  0  0  0  0
  2 15  1  0  0  0  0
  2 57  1  0  0  0  0
  3 19  1  0  0  0  0
  3 58  1  0  0  0  0
  4 22  2  0  0  0  0
  5 23  2  0  0  0  0
  6 22  1  0  0  0  0
  6 24  1  0  0  0  0
  6 25  1  0  0  0  0
  7 23  1  0  0  0  0
  7 28  1  0  0  0  0
  7 67  1  0  0  0  0
  8  9  1  0  0  0  0
  8 11  1  0  0  0  0
  8 12  1  0  0  0  0
  8 18  1  0  0  0  0
  9 10  1  0  0  0  0
  9 13  1  0  0  0  0
  9 35  1  0  0  0  0
 10 14  1  0  0  0  0
 10 19  1  0  0  0  0
 10 21  1  0  0  0  0
 11 15  1  0  0  0  0
 11 20  1  0  0  0  0
 11 36  1  0  0  0  0
 12 16  1  0  0  0  0
 12 37  1  0  0  0  0
 12 38  1  0  0  0  0
 13 17  1  0  0  0  0
 13 39  1  0  0  0  0
 13 40  1  0  0  0  0
 14 16  1  0  0  0  0
 14 41  1  0  0  0  0
 15 17  1  0  0  0  0
 15 42  1  0  0  0  0
 16 43  1  0  0  0  0
 16 44  1  0  0  0  0
 17 45  1  0  0  0  0
 17 46  1  0  0  0  0
 18 47  1  0  0  0  0
 18 48  1  0  0  0  0
 18 49  1  0  0  0  0
 19 50  1  0  0  0  0
 19 51  1  0  0  0  0
 20 22  1  0  0  0  0
 20 52  1  0  0  0  0
 20 53  1  0  0  0  0
 21 54  1  0  0  0  0
 21 55  1  0  0  0  0
 21 56  1  0  0  0  0
 24 26  1  0  0  0  0
 24 59  1  0  0  0  0
 24 60  1  0  0  0  0
 25 27  1  0  0  0  0
 25 61  1  0  0  0  0
 25 62  1  0  0  0  0
 26 27  1  0  0  0  0
 26 63  1  0  0  0  0
 26 64  1  0  0  0  0
 27 65  1  0  0  0  0
 27 66  1  0  0  0  0
 28 29  2  0  0  0  0
 28 30  1  0  0  0  0
 29 31  1  0  0  0  0
 29 68  1  0  0  0  0
 30 32  2  0  0  0  0
 30 69  1  0  0  0  0
 31 33  2  0  0  0  0
 31 70  1  0  0  0  0
 32 33  1  0  0  0  0
 32 71  1  0  0  0  0
 33 34  1  0  0  0  0
 34 72  1  0  0  0  0
 34 73  1  0  0  0  0
 34 74  1  0  0  0  0
M  END
> <PUBCHEM_COMPOUND_CID>
45361691

> <PUBCHEM_CONFORMER_RMSD>
1

> <PUBCHEM_CONFORMER_DIVERSEORDER>
1
118
26
94
88
51
34
107
104
57
123
109
98
65
71
62
85
92
42
113
115
16
38
106
110
53
100
54
105
99
79
80
68
67
103
33
66
102
72
122
75
56
30
89
86
23
91
21
108
117
39
52
60
11
120
43
70
77
74
116
93
5
41
31
84
124
121
63
76
13
44
87
97
73
82
20
28
112
96
3
90
27
114
111
12
95
32
59
61
78
19
48
45
29
58
119
14
81
9
7
36
46
24
64
69
8
47
101
50
55
18
83
37
17
35
125
22
49
40
10
25
4
15
2
6

> <PUBCHEM_MMFF94_PARTIAL_CHARGES>
29
1 -0.43
14 0.28
15 0.28
19 0.28
2 -0.68
20 0.06
22 0.57
23 0.78
24 0.3
25 0.3
28 0.12
29 -0.15
3 -0.68
30 -0.15
31 -0.15
32 -0.15
33 -0.14
34 0.14
4 -0.57
5 -0.57
57 0.4
58 0.4
6 -0.66
67 0.37
68 0.15
69 0.15
7 -0.55
70 0.15
71 0.15

> <PUBCHEM_EFFECTIVE_ROTOR_COUNT>
10.6

> <PUBCHEM_PHARMACOPHORE_FEATURES>
11
1 2 acceptor
1 2 donor
1 3 acceptor
1 3 donor
1 4 acceptor
1 5 acceptor
1 7 donor
5 6 24 25 26 27 rings
6 28 29 30 31 32 33 rings
6 8 9 10 12 14 16 rings
6 8 9 11 13 15 17 rings

> <PUBCHEM_HEAVY_ATOM_COUNT>
34

> <PUBCHEM_ATOM_DEF_STEREO_COUNT>
5

> <PUBCHEM_ATOM_UDEF_STEREO_COUNT>
1

> <PUBCHEM_BOND_DEF_STEREO_COUNT>
0

> <PUBCHEM_BOND_UDEF_STEREO_COUNT>
0

> <PUBCHEM_ISOTOPIC_ATOM_COUNT>
0

> <PUBCHEM_COMPONENT_COUNT>
1

> <PUBCHEM_CACTVS_TAUTO_COUNT>
2

> <PUBCHEM_CONFORMER_ID>
02B42A1B00000001

> <PUBCHEM_MMFF94_ENERGY>
116.7583

> <PUBCHEM_FEATURE_SELFOVERLAP>
55.837

> <PUBCHEM_SHAPE_FINGERPRINT>
10 15 17894633630365485625
10165383 225 18341610392003758613
10190206 1 18270386275272187511
10411042 1 17691684910902202455
10906281 52 18131070377593580923
10930396 42 16950284001929267909
11135926 11 18335411344570339863
11200772 48 16845283960821300429
11475781 23 18202292407387454452
11578821 258 18269835497098755832
1200032 147 18409730625410360019
12236239 1 18261669364050542546
12539765 74 18342464751288056118
12760667 363 9079106770702196565
12895837 130 18410857693933227109
13150687 139 18059583451633637318
13248334 5 17980201885815748143
13726171 33 18342745096387869275
14040222 383 18341608261267015371
14294032 229 18130786806905270103
14340393 91 14261353518408032505
14394314 77 18334574676974175588
15183329 4 18042673070552400014
15439362 3 18340207393359947710
15604295 49 18268987773564954232
1577012 14 18334571365759358610
15840311 113 18335423405070855910
16126227 98 18341614798418430881
16989713 51 17559104600365112631
16992727 255 18412546530919632240
17980427 23 17968098658973242111
19302320 297 18040442100623992004
20105231 36 12179836179673797600
20505436 4 18409162199416515939
20554085 129 17988349404658205938
21033648 29 18337942502670196944
21033650 10 15769499729959666547
21298829 104 18410855455997127820
21307412 95 12463276013284863997
21756936 100 17967250919013854139
23559900 14 17774435105321821688
23576562 1 16486109838697389449
249057 25 17532097270133703742
255183 451 10447918469132066282
3411729 13 18336264548830901610
3633792 109 18343588413543141626
4169191 19 18409726223770728141
4516262 110 18262228937732297591
504843 32 18342457079590924023
5470011 282 12967118441841582320
5776283 40 18059852849162851033
6327066 14 18413107255683803342
9953998 17 16226052189323885329
9980921 7 18259979384656312429

> <PUBCHEM_SHAPE_MULTIPOLES>
660.4
26.37
3.86
1.28
29.35
1.61
-0.06
-34.67
-0.6
-3.3
0.43
-1.14
0.16
-1.67

> <PUBCHEM_SHAPE_SELFOVERLAP>
1389.139

> <PUBCHEM_SHAPE_VOLUME>
368.7

> <PUBCHEM_COORDINATE_TYPE>
2
5
10

$$$$
