51137765
  -OEChem-12032416223D

 49 52  0     1  0  0  0  0  0999 V2000
   -5.5136   -0.8376   -0.9822 F   0  0  0  0  0  0  0  0  0  0  0  0
   -1.8045    0.9246   -0.3234 O   0  0  0  0  0  0  0  0  0  0  0  0
    1.8050    1.4853    2.7531 O   0  0  0  0  0  0  0  0  0  0  0  0
    2.6964   -2.8544   -0.4510 O   0  0  0  0  0  0  0  0  0  0  0  0
    5.2207   -1.9813   -1.2219 O   0  0  0  0  0  0  0  0  0  0  0  0
    0.8955    2.2713    0.7660 N   0  0  0  0  0  0  0  0  0  0  0  0
   -2.9791    2.3066   -1.6332 N   0  0  0  0  0  0  0  0  0  0  0  0
   -3.7670    1.2039   -1.3603 N   0  0  0  0  0  0  0  0  0  0  0  0
   -0.6011    2.9721   -0.9464 C   0  0  1  0  0  0  0  0  0  0  0  0
   -0.6601    3.9616    0.2277 C   0  0  0  0  0  0  0  0  0  0  0  0
    0.7301    2.2522   -0.6884 C   0  0  0  0  0  0  0  0  0  0  0  0
   -0.0455    3.1899    1.3876 C   0  0  0  0  0  0  0  0  0  0  0  0
   -1.8435    2.1005   -1.0078 C   0  0  0  0  0  0  0  0  0  0  0  0
    1.7512    1.4881    1.5249 C   0  0  0  0  0  0  0  0  0  0  0  0
    2.6562    0.5777    0.8063 C   0  0  0  0  0  0  0  0  0  0  0  0
   -3.0413    0.4243   -0.5933 C   0  0  0  0  0  0  0  0  0  0  0  0
    2.2482   -0.7233    0.5123 C   0  0  0  0  0  0  0  0  0  0  0  0
    3.9226    1.0158    0.4189 C   0  0  0  0  0  0  0  0  0  0  0  0
   -3.3448   -0.8487   -0.0067 C   0  0  0  0  0  0  0  0  0  0  0  0
    3.1064   -1.5862   -0.1692 C   0  0  0  0  0  0  0  0  0  0  0  0
    4.7809    0.1530   -0.2626 C   0  0  0  0  0  0  0  0  0  0  0  0
    4.3727   -1.1481   -0.5567 C   0  0  0  0  0  0  0  0  0  0  0  0
   -4.5878   -1.4430   -0.2240 C   0  0  0  0  0  0  0  0  0  0  0  0
   -2.3928   -1.4920    0.7841 C   0  0  0  0  0  0  0  0  0  0  0  0
   -4.8788   -2.6808    0.3495 C   0  0  0  0  0  0  0  0  0  0  0  0
   -2.6837   -2.7298    1.3578 C   0  0  0  0  0  0  0  0  0  0  0  0
   -3.9266   -3.3242    1.1404 C   0  0  0  0  0  0  0  0  0  0  0  0
    1.3876   -3.2229   -0.0200 C   0  0  0  0  0  0  0  0  0  0  0  0
    6.4966   -1.4547   -1.5816 C   0  0  0  0  0  0  0  0  0  0  0  0
   -0.5521    3.5113   -1.9002 H   0  0  0  0  0  0  0  0  0  0  0  0
   -0.0305    4.8307   -0.0013 H   0  0  0  0  0  0  0  0  0  0  0  0
   -1.6662    4.3251    0.4587 H   0  0  0  0  0  0  0  0  0  0  0  0
    1.5684    2.8180   -1.1108 H   0  0  0  0  0  0  0  0  0  0  0  0
    0.7594    1.2320   -1.0808 H   0  0  0  0  0  0  0  0  0  0  0  0
   -0.7949    2.5950    1.9215 H   0  0  0  0  0  0  0  0  0  0  0  0
    0.4665    3.8351    2.1078 H   0  0  0  0  0  0  0  0  0  0  0  0
    1.2527   -1.0051    0.8392 H   0  0  0  0  0  0  0  0  0  0  0  0
    4.2491    2.0281    0.6433 H   0  0  0  0  0  0  0  0  0  0  0  0
    5.7486    0.5617   -0.5321 H   0  0  0  0  0  0  0  0  0  0  0  0
   -1.4136   -1.0612    0.9773 H   0  0  0  0  0  0  0  0  0  0  0  0
   -5.8465   -3.1436    0.1801 H   0  0  0  0  0  0  0  0  0  0  0  0
   -1.9422   -3.2311    1.9730 H   0  0  0  0  0  0  0  0  0  0  0  0
   -4.1532   -4.2881    1.5868 H   0  0  0  0  0  0  0  0  0  0  0  0
    1.2982   -3.1958    1.0713 H   0  0  0  0  0  0  0  0  0  0  0  0
    0.6161   -2.6250   -0.5171 H   0  0  0  0  0  0  0  0  0  0  0  0
    1.2286   -4.2624   -0.3254 H   0  0  0  0  0  0  0  0  0  0  0  0
    6.4051   -0.6202   -2.2853 H   0  0  0  0  0  0  0  0  0  0  0  0
    7.0888   -1.1926   -0.6982 H   0  0  0  0  0  0  0  0  0  0  0  0
    7.0386   -2.2511   -2.1023 H   0  0  0  0  0  0  0  0  0  0  0  0
  1 23  1  0  0  0  0
  2 13  1  0  0  0  0
  2 16  1  0  0  0  0
  3 14  2  0  0  0  0
  4 20  1  0  0  0  0
  4 28  1  0  0  0  0
  5 22  1  0  0  0  0
  5 29  1  0  0  0  0
  6 11  1  0  0  0  0
  6 12  1  0  0  0  0
  6 14  1  0  0  0  0
  7  8  1  0  0  0  0
  7 13  2  0  0  0  0
  8 16  2  0  0  0  0
  9 10  1  0  0  0  0
  9 11  1  0  0  0  0
  9 13  1  0  0  0  0
  9 30  1  0  0  0  0
 10 12  1  0  0  0  0
 10 31  1  0  0  0  0
 10 32  1  0  0  0  0
 11 33  1  0  0  0  0
 11 34  1  0  0  0  0
 12 35  1  0  0  0  0
 12 36  1  0  0  0  0
 14 15  1  0  0  0  0
 15 17  2  0  0  0  0
 15 18  1  0  0  0  0
 16 19  1  0  0  0  0
 17 20  1  0  0  0  0
 17 37  1  0  0  0  0
 18 21  2  0  0  0  0
 18 38  1  0  0  0  0
 19 23  1  0  0  0  0
 19 24  2  0  0  0  0
 20 22  2  0  0  0  0
 21 22  1  0  0  0  0
 21 39  1  0  0  0  0
 23 25  2  0  0  0  0
 24 26  1  0  0  0  0
 24 40  1  0  0  0  0
 25 27  1  0  0  0  0
 25 41  1  0  0  0  0
 26 27  2  0  0  0  0
 26 42  1  0  0  0  0
 27 43  1  0  0  0  0
 28 44  1  0  0  0  0
 28 45  1  0  0  0  0
 28 46  1  0  0  0  0
 29 47  1  0  0  0  0
 29 48  1  0  0  0  0
 29 49  1  0  0  0  0
M  END
> <PUBCHEM_COMPOUND_CID>
51137765

> <PUBCHEM_CONFORMER_RMSD>
1.2

> <PUBCHEM_CONFORMER_DIVERSEORDER>
1
20
21
62
33
55
106
41
88
53
11
31
89
95
105
71
81
78
107
101
49
98
28
108
19
50
64
74
99
72
110
66
80
44
6
94
47
23
76
42
39
32
93
104
79
10
75
45
35
57
3
63
40
22
54
13
90
36
103
51
86
2
37
91
46
26
58
56
27
43
14
17
60
65
82
111
16
87
52
92
48
109
34
7
100
70
30
73
5
9
38
68
102
97
25
85
59
4
29
83
24
15
8
67
12
61
69
77
18
84
96

> <PUBCHEM_MMFF94_PARTIAL_CHARGES>
35
1 -0.19
11 0.3
12 0.3
13 0.3
14 0.54
15 0.09
16 0.43
17 -0.15
18 -0.15
19 0.05
2 -0.28
20 0.08
21 -0.15
22 0.08
23 0.19
24 -0.15
25 -0.15
26 -0.15
27 -0.15
28 0.28
29 0.28
3 -0.57
37 0.15
38 0.15
39 0.15
4 -0.36
40 0.15
41 0.15
42 0.15
43 0.15
5 -0.36
6 -0.66
7 -0.34
8 -0.34
9 0.18

> <PUBCHEM_EFFECTIVE_ROTOR_COUNT>
7

> <PUBCHEM_PHARMACOPHORE_FEATURES>
7
1 3 acceptor
1 4 acceptor
1 5 acceptor
5 2 7 8 13 16 rings
5 6 9 10 11 12 rings
6 15 17 18 20 21 22 rings
6 19 23 24 25 26 27 rings

> <PUBCHEM_HEAVY_ATOM_COUNT>
29

> <PUBCHEM_ATOM_DEF_STEREO_COUNT>
1

> <PUBCHEM_ATOM_UDEF_STEREO_COUNT>
0

> <PUBCHEM_BOND_DEF_STEREO_COUNT>
0

> <PUBCHEM_BOND_UDEF_STEREO_COUNT>
0

> <PUBCHEM_ISOTOPIC_ATOM_COUNT>
0

> <PUBCHEM_COMPONENT_COUNT>
1

> <PUBCHEM_CACTVS_TAUTO_COUNT>
1

> <PUBCHEM_CONFORMER_ID>
030C4CE500000001

> <PUBCHEM_MMFF94_ENERGY>
88.7442

> <PUBCHEM_FEATURE_SELFOVERLAP>
35.528

> <PUBCHEM_SHAPE_FINGERPRINT>
10366900 7 18269543958062883686
10577160 103 17897180203108022204
107951 10 17836647426983796597
11513181 2 17760650669393692903
12788726 201 18188207598441610339
13135754 10 17201387095039750008
13383661 66 17916326994977198758
13402501 40 18410009970178548459
13533116 47 18126566967308333299
13631057 29 18339928108931784070
13911882 115 18340481283355283120
14251757 5 18261116231564015903
14363568 33 17903657497950166696
14866123 147 18268150856083915001
14931854 50 18191861219661616015
14950920 106 13182147684443336924
15420108 30 16682023272771043409
17909252 39 18265343983107818672
17974551 9 17775569711133083761
1979834 28 17688591984839779723
20775530 9 18410292527623979595
221357 26 18412825780765699374
23536364 44 18056213388455021998
23559900 14 18189611812661529517
255183 313 17261565879301135464
329604 57 18409736162319458286
3493558 16 15868600061269270382
3737641 26 18272377451346876902
4280585 95 18114454600813695004
437815 12 18343864429057301841
445580 102 18199751341141638158
46194498 28 17898572231123503297
463206 1 18339921640278954815
484989 97 18341901775818025110
508706 21 18334005112638905271
5309563 4 18412544353339415295
6287921 2 17836367420933009939
6823239 73 18335976566545578032
9980921 177 18050321269462666387

> <PUBCHEM_SHAPE_MULTIPOLES>
551.11
11.49
4.91
1.56
4.02
1.14
0.48
-10.76
-4.07
-2.11
0.4
0.38
0.62
3.23

> <PUBCHEM_SHAPE_SELFOVERLAP>
1204.541

> <PUBCHEM_SHAPE_VOLUME>
302.9

> <PUBCHEM_COORDINATE_TYPE>
2
5
10

$$$$
