25312713
  -OEChem-12032416193D

 64 68  0     1  0  0  0  0  0999 V2000
   -0.9547   -2.9484   -0.4448 S   0  0  0  0  0  0  0  0  0  0  0  0
   -3.3706    1.3498   -3.1856 O   0  0  0  0  0  0  0  0  0  0  0  0
    5.3044    3.9716   -0.4675 O   0  0  0  0  0  0  0  0  0  0  0  0
    1.7783   -3.3755   -1.9399 O   0  0  0  0  0  0  0  0  0  0  0  0
    6.2976    1.9242   -0.5199 O   0  0  0  0  0  0  0  0  0  0  0  0
   -0.9748    1.1638    1.2217 N   0  0  2  0  0  0  0  0  0  0  0  0
   -3.3996    1.3359   -0.8442 N   0  0  0  0  0  0  0  0  0  0  0  0
    2.7092   -2.0000   -0.2921 N   0  0  0  0  0  0  0  0  0  0  0  0
   -2.3341    3.1729    0.5879 C   0  0  1  0  0  0  0  0  0  0  0  0
   -3.4303    1.2698    1.6727 C   0  0  2  0  0  0  0  0  0  0  0  0
   -3.4035    2.7944    1.6045 C   0  0  0  0  0  0  0  0  0  0  0  0
   -0.9633    2.6195    1.0319 C   0  0  0  0  0  0  0  0  0  0  0  0
   -2.0503    0.7490    2.1350 C   0  0  0  0  0  0  0  0  0  0  0  0
    2.6884    0.1228    0.9996 C   0  0  1  0  0  0  0  0  0  0  0  0
   -2.7586    2.6566   -0.7936 C   0  0  0  0  0  0  0  0  0  0  0  0
    3.8751    0.6163    0.1331 C   0  0  1  0  0  0  0  0  0  0  0  0
    0.3235    0.6863    1.6914 C   0  0  0  0  0  0  0  0  0  0  0  0
    1.3212    0.6422    0.5369 C   0  0  0  0  0  0  0  0  0  0  0  0
   -3.7971    0.6774    0.3246 C   0  0  0  0  0  0  0  0  0  0  0  0
    2.6844   -1.4159    1.0563 C   0  0  0  0  0  0  0  0  0  0  0  0
    3.8848   -0.0581   -1.2494 C   0  0  0  0  0  0  0  0  0  0  0  0
    3.8351   -1.5783   -1.1233 C   0  0  0  0  0  0  0  0  0  0  0  0
    3.9237    2.1373   -0.0091 C   0  0  0  0  0  0  0  0  0  0  0  0
   -4.4798   -0.4781    0.2502 C   0  0  0  0  0  0  0  0  0  0  0  0
   -3.6791    0.8143   -2.1210 C   0  0  0  0  0  0  0  0  0  0  0  0
    1.7643   -2.8887   -0.8105 C   0  0  0  0  0  0  0  0  0  0  0  0
   -4.7932   -1.0655   -1.0218 C   0  0  0  0  0  0  0  0  0  0  0  0
   -4.4167   -0.4795   -2.1612 C   0  0  0  0  0  0  0  0  0  0  0  0
    5.3055    2.6183   -0.3561 C   0  0  0  0  0  0  0  0  0  0  0  0
    0.6478   -3.2894    0.0529 C   0  0  0  0  0  0  0  0  0  0  0  0
    0.6852   -3.9330    1.2703 C   0  0  0  0  0  0  0  0  0  0  0  0
   -0.6192   -4.1494    1.8013 C   0  0  0  0  0  0  0  0  0  0  0  0
   -1.6036   -3.6627    0.9697 C   0  0  0  0  0  0  0  0  0  0  0  0
   -2.2487    4.2656    0.5363 H   0  0  0  0  0  0  0  0  0  0  0  0
   -4.1781    0.9750    2.4207 H   0  0  0  0  0  0  0  0  0  0  0  0
   -4.3819    3.1931    1.3088 H   0  0  0  0  0  0  0  0  0  0  0  0
   -3.1662    3.2188    2.5877 H   0  0  0  0  0  0  0  0  0  0  0  0
   -0.2325    2.9097    0.2700 H   0  0  0  0  0  0  0  0  0  0  0  0
   -0.6698    3.1231    1.9632 H   0  0  0  0  0  0  0  0  0  0  0  0
   -1.8503    1.1149    3.1513 H   0  0  0  0  0  0  0  0  0  0  0  0
   -2.0846   -0.3468    2.1904 H   0  0  0  0  0  0  0  0  0  0  0  0
    2.8672    0.4919    2.0191 H   0  0  0  0  0  0  0  0  0  0  0  0
   -3.4915    3.3565   -1.2178 H   0  0  0  0  0  0  0  0  0  0  0  0
   -1.9069    2.6578   -1.4856 H   0  0  0  0  0  0  0  0  0  0  0  0
    4.7859    0.2892    0.6564 H   0  0  0  0  0  0  0  0  0  0  0  0
    0.7008    1.2993    2.5200 H   0  0  0  0  0  0  0  0  0  0  0  0
    0.2129   -0.3317    2.0829 H   0  0  0  0  0  0  0  0  0  0  0  0
    0.9247    0.0356   -0.2859 H   0  0  0  0  0  0  0  0  0  0  0  0
    1.4338    1.6512    0.1364 H   0  0  0  0  0  0  0  0  0  0  0  0
    3.5892   -1.7694    1.5664 H   0  0  0  0  0  0  0  0  0  0  0  0
    1.8413   -1.7584    1.6510 H   0  0  0  0  0  0  0  0  0  0  0  0
    4.7782    0.2215   -1.8177 H   0  0  0  0  0  0  0  0  0  0  0  0
    3.0187    0.2813   -1.8319 H   0  0  0  0  0  0  0  0  0  0  0  0
    3.7738   -2.0294   -2.1188 H   0  0  0  0  0  0  0  0  0  0  0  0
    4.7503   -1.9534   -0.6502 H   0  0  0  0  0  0  0  0  0  0  0  0
    3.2396    2.4854   -0.7907 H   0  0  0  0  0  0  0  0  0  0  0  0
    3.6506    2.6078    0.9429 H   0  0  0  0  0  0  0  0  0  0  0  0
   -4.7927   -1.0130    1.1407 H   0  0  0  0  0  0  0  0  0  0  0  0
   -5.3345   -2.0049   -1.0325 H   0  0  0  0  0  0  0  0  0  0  0  0
   -4.6417   -0.9138   -3.1280 H   0  0  0  0  0  0  0  0  0  0  0  0
    6.1928    4.3205   -0.6941 H   0  0  0  0  0  0  0  0  0  0  0  0
    1.5997   -4.2451    1.7591 H   0  0  0  0  0  0  0  0  0  0  0  0
   -0.8250   -4.6382    2.7446 H   0  0  0  0  0  0  0  0  0  0  0  0
   -2.6729   -3.6913    1.1252 H   0  0  0  0  0  0  0  0  0  0  0  0
  1 30  1  0  0  0  0
  1 33  1  0  0  0  0
  2 25  2  0  0  0  0
  3 29  1  0  0  0  0
  3 61  1  0  0  0  0
  4 26  2  0  0  0  0
  5 29  2  0  0  0  0
  6 12  1  0  0  0  0
  6 13  1  0  0  0  0
  6 17  1  0  0  0  0
  7 15  1  0  0  0  0
  7 19  1  0  0  0  0
  7 25  1  0  0  0  0
  8 20  1  0  0  0  0
  8 22  1  0  0  0  0
  8 26  1  0  0  0  0
  9 11  1  0  0  0  0
  9 12  1  0  0  0  0
  9 15  1  0  0  0  0
  9 34  1  0  0  0  0
 10 11  1  0  0  0  0
 10 13  1  0  0  0  0
 10 19  1  0  0  0  0
 10 35  1  0  0  0  0
 11 36  1  0  0  0  0
 11 37  1  0  0  0  0
 12 38  1  0  0  0  0
 12 39  1  0  0  0  0
 13 40  1  0  0  0  0
 13 41  1  0  0  0  0
 14 16  1  0  0  0  0
 14 18  1  0  0  0  0
 14 20  1  0  0  0  0
 14 42  1  0  0  0  0
 15 43  1  0  0  0  0
 15 44  1  0  0  0  0
 16 21  1  0  0  0  0
 16 23  1  0  0  0  0
 16 45  1  0  0  0  0
 17 18  1  0  0  0  0
 17 46  1  0  0  0  0
 17 47  1  0  0  0  0
 18 48  1  0  0  0  0
 18 49  1  0  0  0  0
 19 24  2  0  0  0  0
 20 50  1  0  0  0  0
 20 51  1  0  0  0  0
 21 22  1  0  0  0  0
 21 52  1  0  0  0  0
 21 53  1  0  0  0  0
 22 54  1  0  0  0  0
 22 55  1  0  0  0  0
 23 29  1  0  0  0  0
 23 56  1  0  0  0  0
 23 57  1  0  0  0  0
 24 27  1  0  0  0  0
 24 58  1  0  0  0  0
 25 28  1  0  0  0  0
 26 30  1  0  0  0  0
 27 28  2  0  0  0  0
 27 59  1  0  0  0  0
 28 60  1  0  0  0  0
 30 31  2  0  0  0  0
 31 32  1  0  0  0  0
 31 62  1  0  0  0  0
 32 33  2  0  0  0  0
 32 63  1  0  0  0  0
 33 64  1  0  0  0  0
M  END
> <PUBCHEM_COMPOUND_CID>
25312713

> <PUBCHEM_CONFORMER_RMSD>
1

> <PUBCHEM_CONFORMER_DIVERSEORDER>
1
161
24
43
140
81
113
133
38
30
98
151
63
93
142
68
16
122
11
110
106
45
102
27
82
159
160
70
128
141
112
78
158
90
46
52
148
139
134
118
5
123
135
96
13
48
29
152
62
154
14
149
36
146
125
75
41
164
163
157
72
71
80
69
42
115
64
22
92
44
79
18
144
132
94
138
32
127
121
104
101
150
57
86
40
3
2
77
100
35
56
109
47
156
85
51
145
76
116
89
31
99
67
131
162
126
87
59
108
21
74
34
73
120
119
65
103
39
19
60
143
50
147
58
107
114
25
33
105
8
124
6
20
15
9
84
66
37
28
26
49
129
153
88
7
95
155
17
130
91
10
83
53
12
97
117
4
54
55
23
136
137
111
61

> <PUBCHEM_MMFF94_PARTIAL_CHARGES>
34
1 -0.08
10 0.14
12 0.27
13 0.27
15 0.3
17 0.27
19 -0.03
2 -0.57
20 0.3
22 0.3
23 0.06
24 -0.15
25 0.62
26 0.71
27 -0.15
28 -0.14
29 0.66
3 -0.65
30 -0.05
31 -0.15
32 -0.15
33 -0.11
4 -0.57
5 -0.57
58 0.15
59 0.15
6 -0.81
60 0.15
61 0.5
62 0.15
63 0.15
64 0.15
7 -0.47
8 -0.66

> <PUBCHEM_EFFECTIVE_ROTOR_COUNT>
9.2

> <PUBCHEM_PHARMACOPHORE_FEATURES>
11
1 2 acceptor
1 3 acceptor
1 4 acceptor
1 5 acceptor
1 6 cation
3 3 5 29 anion
5 1 30 31 32 33 rings
6 6 9 10 11 12 13 rings
6 7 19 24 25 27 28 rings
6 7 9 10 11 15 19 rings
6 8 14 16 20 21 22 rings

> <PUBCHEM_HEAVY_ATOM_COUNT>
33

> <PUBCHEM_ATOM_DEF_STEREO_COUNT>
4

> <PUBCHEM_ATOM_UDEF_STEREO_COUNT>
0

> <PUBCHEM_BOND_DEF_STEREO_COUNT>
0

> <PUBCHEM_BOND_UDEF_STEREO_COUNT>
0

> <PUBCHEM_ISOTOPIC_ATOM_COUNT>
0

> <PUBCHEM_COMPONENT_COUNT>
1

> <PUBCHEM_CACTVS_TAUTO_COUNT>
3

> <PUBCHEM_CONFORMER_ID>
01823DC900000001

> <PUBCHEM_MMFF94_ENERGY>
70.7541

> <PUBCHEM_FEATURE_SELFOVERLAP>
57.433

> <PUBCHEM_SHAPE_FINGERPRINT>
10032420 55 18130494305929800593
10928967 22 16702007678167893013
11135609 187 18341045311377436545
12156800 1 17547625690533695607
12788726 201 18272082846386026496
13224815 77 17702368555960595963
13911987 19 18335413616951248749
13947920 24 18264202698047236593
14117953 113 16181009247686791487
14251757 5 18119806073702136330
14931854 50 18271513304101197119
15537594 2 17561366197035595925
16992787 43 18409447004200136503
17138139 8 17915435380723660671
17909252 39 17418084395439319534
18603816 31 13467644696691333276
20764821 26 18266181634531185731
22393880 68 18126286328980008486
23516275 137 16771021806977794351
235170 7 18040431053956731965
238 59 18267591199784951354
4173938 77 17692260638161282973
4409770 3 18126009514501957930
463206 1 17840584799459827739
469060 322 17677637353182870475
50150288 127 17202226056997887353

> <PUBCHEM_SHAPE_MULTIPOLES>
644.55
10.77
5.65
2.17
6.96
3.39
0.75
-9.01
4.61
2.64
-1.17
-2.37
0.1
-0.48

> <PUBCHEM_SHAPE_SELFOVERLAP>
1368.333

> <PUBCHEM_SHAPE_VOLUME>
359.2

> <PUBCHEM_COORDINATE_TYPE>
2
5
10

$$$$
