40780206
  -OEChem-12032416333D

 73 78  0     1  0  0  0  0  0999 V2000
   -7.9675    3.4065    0.6417 S   0  0  0  0  0  0  0  0  0  0  0  0
    4.5697    2.2242   -2.8879 O   0  0  0  0  0  0  0  0  0  0  0  0
   -4.1273   -2.4559   -0.0931 O   0  0  0  0  0  0  0  0  0  0  0  0
    0.2098   -3.7347   -0.5757 N   0  0  2  0  0  0  0  0  0  0  0  0
    3.6623   -0.7461    1.0558 N   0  0  2  0  0  0  0  0  0  0  0  0
    4.6295    1.8142   -0.5833 N   0  0  0  0  0  0  0  0  0  0  0  0
   -2.3542   -1.4376    0.9833 N   0  0  0  0  0  0  0  0  0  0  0  0
   -4.2835   -0.2472    0.6865 N   0  0  0  0  0  0  0  0  0  0  0  0
    1.6598   -1.6075   -0.9491 C   0  0  2  0  0  0  0  0  0  0  0  0
    2.3300   -2.5608    0.0664 C   0  0  2  0  0  0  0  0  0  0  0  0
    0.2513   -1.2379   -0.4485 C   0  0  0  0  0  0  0  0  0  0  0  0
   -0.6174   -2.5135   -0.3801 C   0  0  2  0  0  0  0  0  0  0  0  0
    1.3625   -3.7301    0.3573 C   0  0  0  0  0  0  0  0  0  0  0  0
    1.4852   -2.3999   -2.2587 C   0  0  0  0  0  0  0  0  0  0  0  0
    2.7674   -1.8643    1.3439 C   0  0  0  0  0  0  0  0  0  0  0  0
    0.7372   -3.7118   -1.9618 C   0  0  0  0  0  0  0  0  0  0  0  0
    6.0057   -0.0684    0.4766 C   0  0  2  0  0  0  0  0  0  0  0  0
    4.6460    1.3907    1.8988 C   0  0  1  0  0  0  0  0  0  0  0  0
    5.0134   -1.2222    0.7343 C   0  0  0  0  0  0  0  0  0  0  0  0
    3.6814    0.2136    2.1699 C   0  0  0  0  0  0  0  0  0  0  0  0
    6.0591    0.8537    1.6878 C   0  0  0  0  0  0  0  0  0  0  0  0
   -1.4452   -2.5692    0.9059 C   0  0  0  0  0  0  0  0  0  0  0  0
    5.6371    0.7603   -0.7615 C   0  0  0  0  0  0  0  0  0  0  0  0
    4.1868    2.1862    0.6909 C   0  0  0  0  0  0  0  0  0  0  0  0
    3.3477    3.2260    0.8376 C   0  0  0  0  0  0  0  0  0  0  0  0
    4.2074    2.4916   -1.7421 C   0  0  0  0  0  0  0  0  0  0  0  0
    2.8763    3.9565   -0.3049 C   0  0  0  0  0  0  0  0  0  0  0  0
    3.2594    3.6230   -1.5401 C   0  0  0  0  0  0  0  0  0  0  0  0
   -3.6484   -1.4727    0.4671 C   0  0  0  0  0  0  0  0  0  0  0  0
   -5.5969    0.1279    0.3190 C   0  0  0  0  0  0  0  0  0  0  0  0
   -6.0690    1.4054    0.6205 C   0  0  0  0  0  0  0  0  0  0  0  0
   -6.4203   -0.7812   -0.3453 C   0  0  0  0  0  0  0  0  0  0  0  0
   -7.3645    1.7739    0.2575 C   0  0  0  0  0  0  0  0  0  0  0  0
   -7.7158   -0.4128   -0.7081 C   0  0  0  0  0  0  0  0  0  0  0  0
   -8.1880    0.8648   -0.4070 C   0  0  0  0  0  0  0  0  0  0  0  0
   -6.7872    4.4554   -0.2534 C   0  0  0  0  0  0  0  0  0  0  0  0
    2.2530   -0.7076   -1.1400 H   0  0  0  0  0  0  0  0  0  0  0  0
    3.2133   -2.9987   -0.4173 H   0  0  0  0  0  0  0  0  0  0  0  0
    0.3159   -0.7278    0.5181 H   0  0  0  0  0  0  0  0  0  0  0  0
   -0.2076   -0.5258   -1.1463 H   0  0  0  0  0  0  0  0  0  0  0  0
   -1.3398   -2.4715   -1.2087 H   0  0  0  0  0  0  0  0  0  0  0  0
    1.9043   -4.6801    0.2584 H   0  0  0  0  0  0  0  0  0  0  0  0
    1.0103   -3.7199    1.3949 H   0  0  0  0  0  0  0  0  0  0  0  0
    2.4621   -2.6205   -2.7046 H   0  0  0  0  0  0  0  0  0  0  0  0
    0.9233   -1.8018   -2.9863 H   0  0  0  0  0  0  0  0  0  0  0  0
    3.2389   -2.5816    2.0293 H   0  0  0  0  0  0  0  0  0  0  0  0
    1.8754   -1.5024    1.8704 H   0  0  0  0  0  0  0  0  0  0  0  0
   -0.0845   -3.8428   -2.6768 H   0  0  0  0  0  0  0  0  0  0  0  0
    1.4022   -4.5704   -2.1200 H   0  0  0  0  0  0  0  0  0  0  0  0
    6.9949   -0.5136    0.3115 H   0  0  0  0  0  0  0  0  0  0  0  0
    4.6564    2.0388    2.7850 H   0  0  0  0  0  0  0  0  0  0  0  0
    4.9993   -1.8508   -0.1625 H   0  0  0  0  0  0  0  0  0  0  0  0
    5.4051   -1.8417    1.5527 H   0  0  0  0  0  0  0  0  0  0  0  0
    3.9792   -0.2879    3.1009 H   0  0  0  0  0  0  0  0  0  0  0  0
    2.6709    0.6119    2.3295 H   0  0  0  0  0  0  0  0  0  0  0  0
    6.7714    1.6721    1.5245 H   0  0  0  0  0  0  0  0  0  0  0  0
    6.3976    0.3040    2.5745 H   0  0  0  0  0  0  0  0  0  0  0  0
   -0.8182   -2.5247    1.8019 H   0  0  0  0  0  0  0  0  0  0  0  0
   -2.0305   -3.4949    0.9464 H   0  0  0  0  0  0  0  0  0  0  0  0
    6.5402    1.2732   -1.1200 H   0  0  0  0  0  0  0  0  0  0  0  0
    5.3167    0.1069   -1.5828 H   0  0  0  0  0  0  0  0  0  0  0  0
   -2.0255   -0.5868    1.4291 H   0  0  0  0  0  0  0  0  0  0  0  0
    2.9839    3.5307    1.8132 H   0  0  0  0  0  0  0  0  0  0  0  0
    2.1916    4.7807   -0.1391 H   0  0  0  0  0  0  0  0  0  0  0  0
    2.9084    4.1622   -2.4118 H   0  0  0  0  0  0  0  0  0  0  0  0
   -3.7432    0.4674    1.1676 H   0  0  0  0  0  0  0  0  0  0  0  0
   -5.4217    2.1048    1.1454 H   0  0  0  0  0  0  0  0  0  0  0  0
   -6.1279   -1.7865   -0.6131 H   0  0  0  0  0  0  0  0  0  0  0  0
   -8.3579   -1.1199   -1.2255 H   0  0  0  0  0  0  0  0  0  0  0  0
   -9.2004    1.1338   -0.6982 H   0  0  0  0  0  0  0  0  0  0  0  0
   -7.1050    5.4985   -0.1752 H   0  0  0  0  0  0  0  0  0  0  0  0
   -6.7570    4.1776   -1.3105 H   0  0  0  0  0  0  0  0  0  0  0  0
   -5.7859    4.3656    0.1753 H   0  0  0  0  0  0  0  0  0  0  0  0
  1 33  1  0  0  0  0
  1 36  1  0  0  0  0
  2 26  2  0  0  0  0
  3 29  2  0  0  0  0
  4 12  1  0  0  0  0
  4 13  1  0  0  0  0
  4 16  1  0  0  0  0
  5 15  1  0  0  0  0
  5 19  1  0  0  0  0
  5 20  1  0  0  0  0
  6 23  1  0  0  0  0
  6 24  1  0  0  0  0
  6 26  1  0  0  0  0
  7 22  1  0  0  0  0
  7 29  1  0  0  0  0
  7 62  1  0  0  0  0
  8 29  1  0  0  0  0
  8 30  1  0  0  0  0
  8 66  1  0  0  0  0
  9 10  1  0  0  0  0
  9 11  1  0  0  0  0
  9 14  1  0  0  0  0
  9 37  1  0  0  0  0
 10 13  1  0  0  0  0
 10 15  1  0  0  0  0
 10 38  1  0  0  0  0
 11 12  1  0  0  0  0
 11 39  1  0  0  0  0
 11 40  1  0  0  0  0
 12 22  1  0  0  0  0
 12 41  1  0  0  0  0
 13 42  1  0  0  0  0
 13 43  1  0  0  0  0
 14 16  1  0  0  0  0
 14 44  1  0  0  0  0
 14 45  1  0  0  0  0
 15 46  1  0  0  0  0
 15 47  1  0  0  0  0
 16 48  1  0  0  0  0
 16 49  1  0  0  0  0
 17 19  1  0  0  0  0
 17 21  1  0  0  0  0
 17 23  1  0  0  0  0
 17 50  1  0  0  0  0
 18 20  1  0  0  0  0
 18 21  1  0  0  0  0
 18 24  1  0  0  0  0
 18 51  1  0  0  0  0
 19 52  1  0  0  0  0
 19 53  1  0  0  0  0
 20 54  1  0  0  0  0
 20 55  1  0  0  0  0
 21 56  1  0  0  0  0
 21 57  1  0  0  0  0
 22 58  1  0  0  0  0
 22 59  1  0  0  0  0
 23 60  1  0  0  0  0
 23 61  1  0  0  0  0
 24 25  2  0  0  0  0
 25 27  1  0  0  0  0
 25 63  1  0  0  0  0
 26 28  1  0  0  0  0
 27 28  2  0  0  0  0
 27 64  1  0  0  0  0
 28 65  1  0  0  0  0
 30 31  2  0  0  0  0
 30 32  1  0  0  0  0
 31 33  1  0  0  0  0
 31 67  1  0  0  0  0
 32 34  2  0  0  0  0
 32 68  1  0  0  0  0
 33 35  2  0  0  0  0
 34 35  1  0  0  0  0
 34 69  1  0  0  0  0
 35 70  1  0  0  0  0
 36 71  1  0  0  0  0
 36 72  1  0  0  0  0
 36 73  1  0  0  0  0
M  END
> <PUBCHEM_COMPOUND_CID>
40780206

> <PUBCHEM_CONFORMER_RMSD>
1.2

> <PUBCHEM_CONFORMER_DIVERSEORDER>
1
11
31
33
17
51
133
143
41
54
119
85
94
49
68
95
122
36
44
71
14
69
90
127
136
100
139
98
115
124
134
34
43
108
26
64
135
56
72
81
58
70
118
32
12
67
137
146
48
21
130
35
76
104
83
27
141
125
37
23
7
92
55
65
38
105
47
8
114
91
5
129
128
78
96
59
107
52
116
3
29
13
46
42
103
102
61
60
111
77
106
86
50
10
57
123
53
138
22
87
117
79
4
40
63
62
84
20
39
140
82
66
126
6
80
16
88
110
89
120
74
45
132
24
101
99
30
18
142
131
19
145
25
73
112
2
28
97
75
15
113
121
144
93
109
9

> <PUBCHEM_MMFF94_PARTIAL_CHARGES>
39
1 -0.33
12 0.27
13 0.27
15 0.27
16 0.27
18 0.14
19 0.27
2 -0.57
20 0.27
22 0.3
23 0.3
24 -0.03
25 -0.15
26 0.62
27 -0.15
28 -0.14
29 0.69
3 -0.57
30 0.12
31 -0.15
32 -0.15
33 0.1
34 -0.15
35 -0.15
36 0.23
4 -0.81
5 -0.81
6 -0.47
62 0.37
63 0.15
64 0.15
65 0.15
66 0.37
67 0.15
68 0.15
69 0.15
7 -0.73
70 0.15
8 -0.55

> <PUBCHEM_EFFECTIVE_ROTOR_COUNT>
10.2

> <PUBCHEM_PHARMACOPHORE_FEATURES>
12
1 2 acceptor
1 3 acceptor
1 36 hydrophobe
1 4 cation
1 5 cation
1 7 donor
1 8 donor
6 30 31 32 33 34 35 rings
6 5 17 18 19 20 21 rings
6 6 17 18 21 23 24 rings
6 6 24 25 26 27 28 rings
8 4 9 10 11 12 13 14 16 rings

> <PUBCHEM_HEAVY_ATOM_COUNT>
36

> <PUBCHEM_ATOM_DEF_STEREO_COUNT>
5

> <PUBCHEM_ATOM_UDEF_STEREO_COUNT>
0

> <PUBCHEM_BOND_DEF_STEREO_COUNT>
0

> <PUBCHEM_BOND_UDEF_STEREO_COUNT>
0

> <PUBCHEM_ISOTOPIC_ATOM_COUNT>
0

> <PUBCHEM_COMPONENT_COUNT>
1

> <PUBCHEM_CACTVS_TAUTO_COUNT>
9

> <PUBCHEM_CONFORMER_ID>
026E41AE00000001

> <PUBCHEM_MMFF94_ENERGY>
94.5558

> <PUBCHEM_FEATURE_SELFOVERLAP>
62.503

> <PUBCHEM_SHAPE_FINGERPRINT>
10673678 19 18202280303795346875
10674148 151 17898022463575136700
10763959 59 18411139147588439266
10811444 77 18410856555830547977
11505856 67 17689722278187741446
11828532 37 16845005848329384018
12047536 79 14635139166450289615
12422481 6 17676481791624506149
12758862 65 12107793995313388612
12925494 130 18263924500225713555
12975358 362 18267885912616194889
13512321 179 18188221930731717724
14117953 113 18411702075998153492
14268113 111 17609209053781850301
15082195 135 18129955485561252599
15979999 66 17769388123365182862
20691028 202 18410290311879628131
20715895 44 18412544318626054426
22122407 14 18189057645309651699
2748736 6 18409448111695050397
2838139 119 18270958063345273427
5109719 28 18337685169851908579

> <PUBCHEM_SHAPE_MULTIPOLES>
708.07
22.4
5.85
1.84
49.69
1.81
0.65
21.13
-2.42
0.01
1.85
-3.35
0.29
-1.24

> <PUBCHEM_SHAPE_SELFOVERLAP>
1511.36

> <PUBCHEM_SHAPE_VOLUME>
394.9

> <PUBCHEM_COORDINATE_TYPE>
2
5
10

$$$$
