75536912
  -OEChem-12032416323D

 42 44  0     1  0  0  0  0  0999 V2000
    0.5131    3.3877   -1.2511 O   0  0  0  0  0  0  0  0  0  0  0  0
   -1.6878    1.3336    0.8637 O   0  0  0  0  0  0  0  0  0  0  0  0
    2.3014   -1.4956   -0.7444 O   0  0  0  0  0  0  0  0  0  0  0  0
    1.9209    1.2866    0.1232 N   0  0  1  0  0  0  0  0  0  0  0  0
    0.7073    1.3359    0.9379 C   0  0  0  0  0  0  0  0  0  0  0  0
   -0.5303    1.5810    0.0647 C   0  0  2  0  0  0  0  0  0  0  0  0
    2.5346    2.5942   -0.1339 C   0  0  0  0  0  0  0  0  0  0  0  0
   -0.6459    2.9805   -0.5339 C   0  0  0  0  0  0  0  0  0  0  0  0
    2.9115    0.3720    0.6924 C   0  0  0  0  0  0  0  0  0  0  0  0
    1.5798    3.7587   -0.3862 C   0  0  0  0  0  0  0  0  0  0  0  0
    2.5036   -1.0680    0.5297 C   0  0  0  0  0  0  0  0  0  0  0  0
    2.2802   -2.0897    1.4233 C   0  0  0  0  0  0  0  0  0  0  0  0
   -2.4963    0.3044    0.4664 C   0  0  0  0  0  0  0  0  0  0  0  0
    1.9452   -2.8043   -0.6633 C   0  0  0  0  0  0  0  0  0  0  0  0
    1.9176   -3.2173    0.6486 C   0  0  0  0  0  0  0  0  0  0  0  0
   -1.9884   -0.9926    0.3918 C   0  0  0  0  0  0  0  0  0  0  0  0
   -3.8285    0.5520    0.1358 C   0  0  0  0  0  0  0  0  0  0  0  0
    1.6733   -3.4845   -1.9377 C   0  0  0  0  0  0  0  0  0  0  0  0
   -2.8130   -2.0422   -0.0134 C   0  0  0  0  0  0  0  0  0  0  0  0
   -4.6530   -0.4975   -0.2694 C   0  0  0  0  0  0  0  0  0  0  0  0
   -4.1454   -1.7947   -0.3440 C   0  0  0  0  0  0  0  0  0  0  0  0
    0.5447    0.3917    1.4712 H   0  0  0  0  0  0  0  0  0  0  0  0
    0.7806    2.0832    1.7395 H   0  0  0  0  0  0  0  0  0  0  0  0
   -0.4818    0.8787   -0.7815 H   0  0  0  0  0  0  0  0  0  0  0  0
    3.1666    2.4817   -1.0242 H   0  0  0  0  0  0  0  0  0  0  0  0
    3.1984    2.8868    0.6906 H   0  0  0  0  0  0  0  0  0  0  0  0
   -1.4844    2.9899   -1.2408 H   0  0  0  0  0  0  0  0  0  0  0  0
   -0.9091    3.7226    0.2310 H   0  0  0  0  0  0  0  0  0  0  0  0
    3.1019    0.5965    1.7498 H   0  0  0  0  0  0  0  0  0  0  0  0
    3.8710    0.4778    0.1682 H   0  0  0  0  0  0  0  0  0  0  0  0
    1.2049    4.1795    0.5550 H   0  0  0  0  0  0  0  0  0  0  0  0
    2.1345    4.5617   -0.8846 H   0  0  0  0  0  0  0  0  0  0  0  0
    2.3660   -2.0309    2.4988 H   0  0  0  0  0  0  0  0  0  0  0  0
    1.6671   -4.2063    1.0048 H   0  0  0  0  0  0  0  0  0  0  0  0
   -0.9573   -1.2082    0.6535 H   0  0  0  0  0  0  0  0  0  0  0  0
   -4.2291    1.5604    0.1916 H   0  0  0  0  0  0  0  0  0  0  0  0
    0.8363   -3.0068   -2.4563 H   0  0  0  0  0  0  0  0  0  0  0  0
    2.5510   -3.4448   -2.5902 H   0  0  0  0  0  0  0  0  0  0  0  0
    1.4171   -4.5364   -1.7774 H   0  0  0  0  0  0  0  0  0  0  0  0
   -2.4178   -3.0524   -0.0698 H   0  0  0  0  0  0  0  0  0  0  0  0
   -5.6904   -0.3048   -0.5269 H   0  0  0  0  0  0  0  0  0  0  0  0
   -4.7875   -2.6119   -0.6593 H   0  0  0  0  0  0  0  0  0  0  0  0
  1  8  1  0  0  0  0
  1 10  1  0  0  0  0
  2  6  1  0  0  0  0
  2 13  1  0  0  0  0
  3 11  1  0  0  0  0
  3 14  1  0  0  0  0
  4  5  1  0  0  0  0
  4  7  1  0  0  0  0
  4  9  1  0  0  0  0
  5  6  1  0  0  0  0
  5 22  1  0  0  0  0
  5 23  1  0  0  0  0
  6  8  1  0  0  0  0
  6 24  1  0  0  0  0
  7 10  1  0  0  0  0
  7 25  1  0  0  0  0
  7 26  1  0  0  0  0
  8 27  1  0  0  0  0
  8 28  1  0  0  0  0
  9 11  1  0  0  0  0
  9 29  1  0  0  0  0
  9 30  1  0  0  0  0
 10 31  1  0  0  0  0
 10 32  1  0  0  0  0
 11 12  2  0  0  0  0
 12 15  1  0  0  0  0
 12 33  1  0  0  0  0
 13 16  2  0  0  0  0
 13 17  1  0  0  0  0
 14 15  2  0  0  0  0
 14 18  1  0  0  0  0
 15 34  1  0  0  0  0
 16 19  1  0  0  0  0
 16 35  1  0  0  0  0
 17 20  2  0  0  0  0
 17 36  1  0  0  0  0
 18 37  1  0  0  0  0
 18 38  1  0  0  0  0
 18 39  1  0  0  0  0
 19 21  2  0  0  0  0
 19 40  1  0  0  0  0
 20 21  1  0  0  0  0
 20 41  1  0  0  0  0
 21 42  1  0  0  0  0
M  END
> <PUBCHEM_COMPOUND_CID>
75536912

> <PUBCHEM_CONFORMER_RMSD>
0.8

> <PUBCHEM_CONFORMER_DIVERSEORDER>
7
182
189
120
192
157
148
81
54
37
199
190
105
31
143
218
129
12
29
194
34
106
169
92
224
193
211
63
134
30
205
24
195
58
188
118
158
1
196
67
56
139
49
22
113
171
75
132
73
149
59
74
117
183
41
109
9
176
121
127
108
38
4
128
215
91
174
55
11
138
217
146
115
68
170
20
45
76
98
101
142
172
8
221
85
94
114
160
159
186
112
13
177
152
200
208
164
23
222
104
27
61
15
214
79
162
137
2
131
78
6
150
72
124
166
107
14
116
184
47
178
57
123
83
36
42
165
126
66
180
136
82
100
173
201
26
212
141
130
48
122
156
168
207
175
43
39
17
90
77
50
187
95
52
119
44
202
213
87
35
3
155
151
179
154
86
163
16
62
5
88
19
167
153
223
33
225
18
28
25
181
70
93
10
60
111
125
99
51
226
96
71
110
80
185
40
219
140
21
203
144
65
135
216
145
206
53
210
32
89
69
191
204
103
220
84
97
133
161
46
197
147
64
102
209
198

> <PUBCHEM_MMFF94_PARTIAL_CHARGES>
28
1 -0.56
10 0.28
11 -0.04
12 -0.15
13 0.08
14 -0.04
15 -0.15
16 -0.15
17 -0.15
18 0.18
19 -0.15
2 -0.36
20 -0.15
21 -0.15
3 -0.28
33 0.15
34 0.15
35 0.15
36 0.15
4 -0.81
40 0.15
41 0.15
42 0.15
5 0.27
6 0.28
7 0.27
8 0.28
9 0.45

> <PUBCHEM_EFFECTIVE_ROTOR_COUNT>
5.4

> <PUBCHEM_PHARMACOPHORE_FEATURES>
7
1 1 acceptor
1 2 acceptor
1 3 acceptor
1 4 cation
5 3 11 12 14 15 rings
6 13 16 17 19 20 21 rings
7 1 4 5 6 7 8 10 rings

> <PUBCHEM_HEAVY_ATOM_COUNT>
21

> <PUBCHEM_ATOM_DEF_STEREO_COUNT>
1

> <PUBCHEM_ATOM_UDEF_STEREO_COUNT>
0

> <PUBCHEM_BOND_DEF_STEREO_COUNT>
0

> <PUBCHEM_BOND_UDEF_STEREO_COUNT>
0

> <PUBCHEM_ISOTOPIC_ATOM_COUNT>
0

> <PUBCHEM_COMPONENT_COUNT>
1

> <PUBCHEM_CACTVS_TAUTO_COUNT>
1

> <PUBCHEM_CONFORMER_ID>
04809A1000000007

> <PUBCHEM_MMFF94_ENERGY>
56.7457

> <PUBCHEM_FEATURE_SELFOVERLAP>
35.522

> <PUBCHEM_SHAPE_FINGERPRINT>
10616163 171 18122344854999529083
11370993 70 17903633334712338893
116883 192 18265890255360032933
12553582 1 18265060145291901291
12712778 12 16465016412203538542
13083527 12 18116411731426565408
13642711 20 17470985014519934741
138480 1 18409164394196739530
14178342 30 18341322310824125944
14251757 17 17898264170726563933
14251757 5 17476381404172127982
17138139 8 16907199900059857863
17492 54 18117016548932139180
17818456 19 17844822382463105977
18681886 176 17977941611894178192
20645477 70 18336541741808899579
21285901 2 18115291324893813685
21315764 371 16270773776421380679
21421861 104 18268731514013060769
2255824 54 18265054806626680553
23184049 29 18121214281872576978
23559900 14 18413101775669712233
238 59 18191314985594264395
26353 1 17823148842787948828
3060560 45 18191587664905538788
314173 41 18408610232047352539
4280585 95 18338801096518142006
5262128 65 18339931415492625787
6443956 14 18407758148979587157
70634741 139 16544419886956749294
7364860 26 18337954609523543089
81228 2 18122911927905004355
8272917 22 18337676446393463173
9709674 26 18336265734262701683

> <PUBCHEM_SHAPE_MULTIPOLES>
409.58
6.66
5.19
1.17
8.08
0.99
0.24
-2.82
-0.18
-4.33
1.89
-0.71
-0.67
-0.12

> <PUBCHEM_SHAPE_SELFOVERLAP>
863.474

> <PUBCHEM_SHAPE_VOLUME>
229.4

> <PUBCHEM_COORDINATE_TYPE>
2
5
10

$$$$
