44716273
  -OEChem-12032416153D

 66 69  0     1  0  0  0  0  0999 V2000
    2.8773   -1.2734   -1.3709 O   0  0  0  0  0  0  0  0  0  0  0  0
    3.5292    2.4196   -0.5408 N   0  0  2  0  0  0  0  0  0  0  0  0
   -0.2662    1.9216   -0.6750 N   0  0  0  0  0  0  0  0  0  0  0  0
    4.4697   -2.3687   -0.0795 N   0  0  0  0  0  0  0  0  0  0  0  0
   -0.7833    2.9036    0.0811 N   0  0  0  0  0  0  0  0  0  0  0  0
   -2.0275    2.5523    0.3869 N   0  0  0  0  0  0  0  0  0  0  0  0
    3.5767    0.5101    1.2266 C   0  0  2  0  0  0  0  0  0  0  0  0
    4.2993    0.0902   -0.0678 C   0  0  2  0  0  0  0  0  0  0  0  0
    2.1516    2.1480   -0.0503 C   0  0  2  0  0  0  0  0  0  0  0  0
    2.1300    0.9187    0.8845 C   0  0  0  0  0  0  0  0  0  0  0  0
    4.2960    1.7667    1.7491 C   0  0  0  0  0  0  0  0  0  0  0  0
    4.1180    1.1907   -1.1283 C   0  0  0  0  0  0  0  0  0  0  0  0
    4.3577    2.8176    0.6249 C   0  0  0  0  0  0  0  0  0  0  0  0
    1.1419    2.0128   -1.1920 C   0  0  0  0  0  0  0  0  0  0  0  0
    3.8138   -1.2382   -0.5682 C   0  0  0  0  0  0  0  0  0  0  0  0
    5.5751   -2.2808    0.8711 C   0  0  0  0  0  0  0  0  0  0  0  0
   -1.1623    0.9167   -0.8739 C   0  0  0  0  0  0  0  0  0  0  0  0
    4.0995   -3.7196   -0.4822 C   0  0  0  0  0  0  0  0  0  0  0  0
   -2.2751    1.3378   -0.1903 C   0  0  0  0  0  0  0  0  0  0  0  0
    6.8597   -2.1832    0.1174 C   0  0  0  0  0  0  0  0  0  0  0  0
   -3.5085    0.6257   -0.0899 C   0  0  0  0  0  0  0  0  0  0  0  0
   -7.2073   -1.5083    0.2139 C   0  0  0  0  0  0  0  0  0  0  0  0
   -3.5148   -0.7686   -0.1317 C   0  0  0  0  0  0  0  0  0  0  0  0
   -4.7074    1.3247    0.0506 C   0  0  0  0  0  0  0  0  0  0  0  0
   -5.9188   -0.7648    0.1075 C   0  0  0  0  0  0  0  0  0  0  0  0
    7.8662   -3.0556    0.2433 C   0  0  0  0  0  0  0  0  0  0  0  0
   -4.7199   -1.4639   -0.0330 C   0  0  0  0  0  0  0  0  0  0  0  0
   -5.9125    0.6294    0.1493 C   0  0  0  0  0  0  0  0  0  0  0  0
   -7.2119   -2.4575    1.4522 C   0  0  0  0  0  0  0  0  0  0  0  0
   -7.4610   -2.3849   -1.0516 C   0  0  0  0  0  0  0  0  0  0  0  0
   -8.4854   -0.6185    0.3668 C   0  0  0  0  0  0  0  0  0  0  0  0
    3.5722   -0.2815    1.9823 H   0  0  0  0  0  0  0  0  0  0  0  0
    5.3746    0.0606    0.1214 H   0  0  0  0  0  0  0  0  0  0  0  0
    1.8442    3.0233    0.5399 H   0  0  0  0  0  0  0  0  0  0  0  0
    1.5965    0.0707    0.4422 H   0  0  0  0  0  0  0  0  0  0  0  0
    1.5963    1.1761    1.8083 H   0  0  0  0  0  0  0  0  0  0  0  0
    3.7598    2.1726    2.6153 H   0  0  0  0  0  0  0  0  0  0  0  0
    5.3101    1.5162    2.0818 H   0  0  0  0  0  0  0  0  0  0  0  0
    3.5355    0.8804   -2.0014 H   0  0  0  0  0  0  0  0  0  0  0  0
    5.1013    1.4463   -1.5472 H   0  0  0  0  0  0  0  0  0  0  0  0
    5.3970    2.9692    0.3064 H   0  0  0  0  0  0  0  0  0  0  0  0
    4.0243    3.7909    1.0057 H   0  0  0  0  0  0  0  0  0  0  0  0
    1.1445    2.8919   -1.8467 H   0  0  0  0  0  0  0  0  0  0  0  0
    1.2956    1.1156   -1.8001 H   0  0  0  0  0  0  0  0  0  0  0  0
   -0.9316    0.0389   -1.4617 H   0  0  0  0  0  0  0  0  0  0  0  0
    5.5500   -3.1710    1.5118 H   0  0  0  0  0  0  0  0  0  0  0  0
    5.4742   -1.4297    1.5464 H   0  0  0  0  0  0  0  0  0  0  0  0
    3.7745   -4.2771    0.4010 H   0  0  0  0  0  0  0  0  0  0  0  0
    3.2823   -3.7002   -1.2080 H   0  0  0  0  0  0  0  0  0  0  0  0
    4.9642   -4.2125   -0.9350 H   0  0  0  0  0  0  0  0  0  0  0  0
    6.9948   -1.3520   -0.5696 H   0  0  0  0  0  0  0  0  0  0  0  0
   -2.5973   -1.3437   -0.2290 H   0  0  0  0  0  0  0  0  0  0  0  0
   -4.7259    2.4116    0.0820 H   0  0  0  0  0  0  0  0  0  0  0  0
    8.7782   -2.9288   -0.3297 H   0  0  0  0  0  0  0  0  0  0  0  0
    7.8000   -3.9055    0.9135 H   0  0  0  0  0  0  0  0  0  0  0  0
   -4.6959   -2.5493   -0.0658 H   0  0  0  0  0  0  0  0  0  0  0  0
   -6.8143    1.2219    0.2564 H   0  0  0  0  0  0  0  0  0  0  0  0
   -7.0442   -1.8922    2.3766 H   0  0  0  0  0  0  0  0  0  0  0  0
   -6.4293   -3.2212    1.3854 H   0  0  0  0  0  0  0  0  0  0  0  0
   -8.1690   -2.9832    1.5481 H   0  0  0  0  0  0  0  0  0  0  0  0
   -7.4753   -1.7666   -1.9569 H   0  0  0  0  0  0  0  0  0  0  0  0
   -8.4213   -2.9097   -0.9872 H   0  0  0  0  0  0  0  0  0  0  0  0
   -6.6850   -3.1468   -1.1840 H   0  0  0  0  0  0  0  0  0  0  0  0
   -9.3896   -1.2352    0.4384 H   0  0  0  0  0  0  0  0  0  0  0  0
   -8.4427   -0.0066    1.2754 H   0  0  0  0  0  0  0  0  0  0  0  0
   -8.6182    0.0454   -0.4955 H   0  0  0  0  0  0  0  0  0  0  0  0
  1 15  2  0  0  0  0
  2  9  1  0  0  0  0
  2 12  1  0  0  0  0
  2 13  1  0  0  0  0
  3  5  1  0  0  0  0
  3 14  1  0  0  0  0
  3 17  1  0  0  0  0
  4 15  1  0  0  0  0
  4 16  1  0  0  0  0
  4 18  1  0  0  0  0
  5  6  2  0  0  0  0
  6 19  1  0  0  0  0
  7  8  1  0  0  0  0
  7 10  1  0  0  0  0
  7 11  1  0  0  0  0
  7 32  1  0  0  0  0
  8 12  1  0  0  0  0
  8 15  1  0  0  0  0
  8 33  1  0  0  0  0
  9 10  1  0  0  0  0
  9 14  1  0  0  0  0
  9 34  1  0  0  0  0
 10 35  1  0  0  0  0
 10 36  1  0  0  0  0
 11 13  1  0  0  0  0
 11 37  1  0  0  0  0
 11 38  1  0  0  0  0
 12 39  1  0  0  0  0
 12 40  1  0  0  0  0
 13 41  1  0  0  0  0
 13 42  1  0  0  0  0
 14 43  1  0  0  0  0
 14 44  1  0  0  0  0
 16 20  1  0  0  0  0
 16 46  1  0  0  0  0
 16 47  1  0  0  0  0
 17 19  2  0  0  0  0
 17 45  1  0  0  0  0
 18 48  1  0  0  0  0
 18 49  1  0  0  0  0
 18 50  1  0  0  0  0
 19 21  1  0  0  0  0
 20 26  2  0  0  0  0
 20 51  1  0  0  0  0
 21 23  2  0  0  0  0
 21 24  1  0  0  0  0
 22 25  1  0  0  0  0
 22 29  1  0  0  0  0
 22 30  1  0  0  0  0
 22 31  1  0  0  0  0
 23 27  1  0  0  0  0
 23 52  1  0  0  0  0
 24 28  2  0  0  0  0
 24 53  1  0  0  0  0
 25 27  2  0  0  0  0
 25 28  1  0  0  0  0
 26 54  1  0  0  0  0
 26 55  1  0  0  0  0
 27 56  1  0  0  0  0
 28 57  1  0  0  0  0
 29 58  1  0  0  0  0
 29 59  1  0  0  0  0
 29 60  1  0  0  0  0
 30 61  1  0  0  0  0
 30 62  1  0  0  0  0
 30 63  1  0  0  0  0
 31 64  1  0  0  0  0
 31 65  1  0  0  0  0
 31 66  1  0  0  0  0
M  END
> <PUBCHEM_COMPOUND_CID>
44716273

> <PUBCHEM_CONFORMER_RMSD>
1

> <PUBCHEM_CONFORMER_DIVERSEORDER>
2
21
15
55
128
99
70
141
64
109
19
60
49
76
52
130
26
56
101
22
45
5
85
143
9
136
92
87
34
35
114
37
66
106
127
18
122
16
44
7
46
105
118
65
31
84
95
145
8
146
67
63
103
51
53
58
91
50
79
102
1
108
125
129
23
43
82
54
86
96
14
144
107
90
48
110
119
121
40
142
71
20
74
29
30
111
38
117
4
132
147
69
24
25
126
116
77
120
10
78
59
62
6
3
41
27
139
134
47
12
72
104
98
88
89
75
57
137
32
28
115
93
80
113
138
123
124
100
83
112
68
81
36
61
39
17
131
73
42
97
94
135
33
11
133
140
13

> <PUBCHEM_MMFF94_PARTIAL_CHARGES>
33
1 -0.57
12 0.27
13 0.27
14 0.26
15 0.57
16 0.44
17 -0.3
18 0.3
19 0.17
2 -0.81
20 -0.29
21 0.05
22 0.14
23 -0.15
24 -0.15
25 -0.14
26 -0.3
27 -0.15
28 -0.15
3 0.31
4 -0.66
45 0.15
5 -0.42
51 0.15
52 0.15
53 0.15
54 0.15
55 0.15
56 0.15
57 0.15
6 -0.23
8 0.06
9 0.27

> <PUBCHEM_EFFECTIVE_ROTOR_COUNT>
9.2

> <PUBCHEM_PHARMACOPHORE_FEATURES>
7
1 1 acceptor
1 2 cation
1 26 hydrophobe
4 22 29 30 31 hydrophobe
5 3 5 6 17 19 rings
6 21 23 24 25 27 28 rings
8 2 7 8 9 10 11 12 13 rings

> <PUBCHEM_HEAVY_ATOM_COUNT>
31

> <PUBCHEM_ATOM_DEF_STEREO_COUNT>
2

> <PUBCHEM_ATOM_UDEF_STEREO_COUNT>
1

> <PUBCHEM_BOND_DEF_STEREO_COUNT>
0

> <PUBCHEM_BOND_UDEF_STEREO_COUNT>
0

> <PUBCHEM_ISOTOPIC_ATOM_COUNT>
0

> <PUBCHEM_COMPONENT_COUNT>
1

> <PUBCHEM_CACTVS_TAUTO_COUNT>
1

> <PUBCHEM_CONFORMER_ID>
02AA50F100000002

> <PUBCHEM_MMFF94_ENERGY>
89.1335

> <PUBCHEM_FEATURE_SELFOVERLAP>
35.522

> <PUBCHEM_SHAPE_FINGERPRINT>
10864689 126 18040431084449466411
11135609 12 18410001118846712600
11135609 99 18411136931158591446
11443803 9 17824830173453395588
117089 54 18338524036229923258
11828532 37 17894923969785892043
11963148 33 18266737081361980711
11991303 11 13045944651293964057
12107183 9 18126012559475976873
12623949 98 18343310240683950446
13008946 119 17770484646634640008
13533116 47 18341051899593108633
1361 2 18409730703004899707
1361 4 18190465050970320515
1361 87 17458644318604518003
13782708 43 18411416176703863951
13989917 61 18337113470386350083
14211702 104 18115877459386614659
14251740 57 18409448085260458772
14556957 393 13551458256078836887
14565420 104 17772459338867434448
14725015 67 18336543832999608514
15183329 4 17095514137465474893
15347591 1 18410855430217521428
15352257 5 18410576197677059879
15475509 35 18272647948434632568
15510800 12 18040722493141648699
16990366 60 18263072224992494882
16992610 120 18049165773005517708
17492 89 18410854326468435340
1813 80 17749108911285275085
19301679 30 18412266129958837777
19315092 285 18202566159474779768
1979834 28 17489874816915004614
19841028 212 18334857233944710323
20028762 73 18412825755064785758
20165401 70 18339922718769686559
20721686 56 18335140925388491035
20771845 171 17968103054091355716
20982279 24 17531824575552878115
21033648 29 14117526407053831609
21033650 10 16299510461563365684
21049683 118 12895069592009085565
21049683 271 18410294684737110460
21130935 74 18340771554830990123
21792934 111 18342732997570179249
23522609 53 18121535446495585284
23559900 14 18266449919431422680
25269216 80 15864075356546711431
255183 451 18335987489417785484
3004659 81 18113901610620589893
3383291 50 18115589391709432491
3472631 163 8502654809537685417
3504750 166 18342173359295103413
3886686 26 17409097893784321817
439807 62 18334298647524944031
4461854 278 17917990568997351430
474113 269 18343007914379788351
4756326 101 14129928993364159998
50009960 94 18189315906125907554
5104073 3 18131354085679174337
54039377 194 18411140195729394662
5718773 13 18335701615682432718
6201460 15 16884960701077783618
6441014 3 17689996734998388746
9555976 147 17560810871070891665
9831232 110 18337111159455944655

> <PUBCHEM_SHAPE_MULTIPOLES>
607.19
23.61
4.11
1.15
26.32
1.33
0.14
22.67
3.61
-5.66
0.02
-0.47
-0.06
0.7

> <PUBCHEM_SHAPE_SELFOVERLAP>
1287.301

> <PUBCHEM_SHAPE_VOLUME>
338.4

> <PUBCHEM_COORDINATE_TYPE>
2
5
10

$$$$
