71693828
  -OEChem-12032416233D

 45 47  0     1  0  0  0  0  0999 V2000
   -2.2018   -2.3300   -1.5590 O   0  0  0  0  0  0  0  0  0  0  0  0
   -2.3859   -3.7596    0.8080 O   0  0  0  0  0  0  0  0  0  0  0  0
    1.0574   -1.1679   -0.4777 N   0  0  0  0  0  0  0  0  0  0  0  0
   -0.3894   -1.0319   -0.6593 C   0  0  2  0  0  0  0  0  0  0  0  0
   -1.0131   -0.3593    0.6026 C   0  0  2  0  0  0  0  0  0  0  0  0
   -1.0399   -2.4223   -0.7360 C   0  0  1  0  0  0  0  0  0  0  0  0
   -1.9790   -1.4007    1.2003 C   0  0  0  0  0  0  0  0  0  0  0  0
   -1.4240   -2.7295    0.7082 C   0  0  1  0  0  0  0  0  0  0  0  0
    3.2353   -0.0384   -0.5476 C   0  0  0  0  0  0  0  0  0  0  0  0
    1.7350    0.0933   -0.7424 C   0  0  0  0  0  0  0  0  0  0  0  0
    3.6279   -0.3802    0.8862 C   0  0  0  0  0  0  0  0  0  0  0  0
    3.9900    1.2652   -0.7895 C   0  0  0  0  0  0  0  0  0  0  0  0
    5.1093   -0.0245    0.9565 C   0  0  0  0  0  0  0  0  0  0  0  0
    5.3399    1.0434   -0.1141 C   0  0  0  0  0  0  0  0  0  0  0  0
   -1.6709    0.9762    0.3291 C   0  0  0  0  0  0  0  0  0  0  0  0
   -2.2634    1.2216   -0.9097 C   0  0  0  0  0  0  0  0  0  0  0  0
   -1.6846    1.9617    1.3160 C   0  0  0  0  0  0  0  0  0  0  0  0
   -2.8693    2.4525   -1.1615 C   0  0  0  0  0  0  0  0  0  0  0  0
   -2.2906    3.1925    1.0644 C   0  0  0  0  0  0  0  0  0  0  0  0
   -2.8830    3.4380   -0.1744 C   0  0  0  0  0  0  0  0  0  0  0  0
   -0.5561   -0.5072   -1.6032 H   0  0  0  0  0  0  0  0  0  0  0  0
   -0.2218   -0.1896    1.3479 H   0  0  0  0  0  0  0  0  0  0  0  0
   -0.4028   -3.2040   -1.1627 H   0  0  0  0  0  0  0  0  0  0  0  0
   -2.0096   -1.3530    2.2944 H   0  0  0  0  0  0  0  0  0  0  0  0
   -3.0105   -1.2565    0.8535 H   0  0  0  0  0  0  0  0  0  0  0  0
   -0.5378   -3.0139    1.2882 H   0  0  0  0  0  0  0  0  0  0  0  0
    3.6325   -0.8080   -1.2245 H   0  0  0  0  0  0  0  0  0  0  0  0
    1.3560    0.8836   -0.0839 H   0  0  0  0  0  0  0  0  0  0  0  0
    1.5436    0.4143   -1.7743 H   0  0  0  0  0  0  0  0  0  0  0  0
    1.4196   -1.8762   -1.1160 H   0  0  0  0  0  0  0  0  0  0  0  0
    3.0671    0.2322    1.6034 H   0  0  0  0  0  0  0  0  0  0  0  0
    3.4540   -1.4320    1.1338 H   0  0  0  0  0  0  0  0  0  0  0  0
    3.4749    2.1098   -0.3152 H   0  0  0  0  0  0  0  0  0  0  0  0
    4.0973    1.4937   -1.8544 H   0  0  0  0  0  0  0  0  0  0  0  0
    5.7237   -0.9058    0.7385 H   0  0  0  0  0  0  0  0  0  0  0  0
    5.3876    0.3308    1.9538 H   0  0  0  0  0  0  0  0  0  0  0  0
    5.7269    1.9732    0.3150 H   0  0  0  0  0  0  0  0  0  0  0  0
    6.0774    0.6859   -0.8419 H   0  0  0  0  0  0  0  0  0  0  0  0
   -1.9043   -2.1236   -2.4615 H   0  0  0  0  0  0  0  0  0  0  0  0
   -2.6425   -3.8304    1.7432 H   0  0  0  0  0  0  0  0  0  0  0  0
   -2.3256    0.4716   -1.6902 H   0  0  0  0  0  0  0  0  0  0  0  0
   -1.2286    1.7825    2.2860 H   0  0  0  0  0  0  0  0  0  0  0  0
   -3.3414    2.6399   -2.1216 H   0  0  0  0  0  0  0  0  0  0  0  0
   -2.3023    3.9595    1.8332 H   0  0  0  0  0  0  0  0  0  0  0  0
   -3.3574    4.3953   -0.3694 H   0  0  0  0  0  0  0  0  0  0  0  0
  1  6  1  0  0  0  0
  1 39  1  0  0  0  0
  2  8  1  0  0  0  0
  2 40  1  0  0  0  0
  3  4  1  0  0  0  0
  3 10  1  0  0  0  0
  3 30  1  0  0  0  0
  4  5  1  0  0  0  0
  4  6  1  0  0  0  0
  4 21  1  0  0  0  0
  5  7  1  0  0  0  0
  5 15  1  0  0  0  0
  5 22  1  0  0  0  0
  6  8  1  0  0  0  0
  6 23  1  0  0  0  0
  7  8  1  0  0  0  0
  7 24  1  0  0  0  0
  7 25  1  0  0  0  0
  8 26  1  0  0  0  0
  9 10  1  0  0  0  0
  9 11  1  0  0  0  0
  9 12  1  0  0  0  0
  9 27  1  0  0  0  0
 10 28  1  0  0  0  0
 10 29  1  0  0  0  0
 11 13  1  0  0  0  0
 11 31  1  0  0  0  0
 11 32  1  0  0  0  0
 12 14  1  0  0  0  0
 12 33  1  0  0  0  0
 12 34  1  0  0  0  0
 13 14  1  0  0  0  0
 13 35  1  0  0  0  0
 13 36  1  0  0  0  0
 14 37  1  0  0  0  0
 14 38  1  0  0  0  0
 15 16  2  0  0  0  0
 15 17  1  0  0  0  0
 16 18  1  0  0  0  0
 16 41  1  0  0  0  0
 17 19  2  0  0  0  0
 17 42  1  0  0  0  0
 18 20  2  0  0  0  0
 18 43  1  0  0  0  0
 19 20  1  0  0  0  0
 19 44  1  0  0  0  0
 20 45  1  0  0  0  0
M  END
> <PUBCHEM_COMPOUND_CID>
71693828

> <PUBCHEM_CONFORMER_RMSD>
0.8

> <PUBCHEM_CONFORMER_DIVERSEORDER>
2
29
10
24
28
27
6
34
17
16
23
14
3
13
7
5
22
26
18
4
33
11
20
19
31
25
1
8
15
9
21
30
12
32

> <PUBCHEM_MMFF94_PARTIAL_CHARGES>
22
1 -0.68
10 0.27
15 -0.14
16 -0.15
17 -0.15
18 -0.15
19 -0.15
2 -0.68
20 -0.15
3 -0.9
30 0.36
39 0.4
4 0.27
40 0.4
41 0.15
42 0.15
43 0.15
44 0.15
45 0.15
5 0.14
6 0.28
8 0.28

> <PUBCHEM_EFFECTIVE_ROTOR_COUNT>
6

> <PUBCHEM_PHARMACOPHORE_FEATURES>
9
1 1 acceptor
1 1 donor
1 2 acceptor
1 2 donor
1 3 cation
1 3 donor
5 4 5 6 7 8 rings
5 9 11 12 13 14 rings
6 15 16 17 18 19 20 rings

> <PUBCHEM_HEAVY_ATOM_COUNT>
20

> <PUBCHEM_ATOM_DEF_STEREO_COUNT>
4

> <PUBCHEM_ATOM_UDEF_STEREO_COUNT>
0

> <PUBCHEM_BOND_DEF_STEREO_COUNT>
0

> <PUBCHEM_BOND_UDEF_STEREO_COUNT>
0

> <PUBCHEM_ISOTOPIC_ATOM_COUNT>
0

> <PUBCHEM_COMPONENT_COUNT>
1

> <PUBCHEM_CACTVS_TAUTO_COUNT>
1

> <PUBCHEM_CONFORMER_ID>
0445F60400000002

> <PUBCHEM_MMFF94_ENERGY>
51.4437

> <PUBCHEM_FEATURE_SELFOVERLAP>
45.68

> <PUBCHEM_SHAPE_FINGERPRINT>
10291535 26 18340757230445235660
10670039 82 17976556219439418132
11036077 51 18334008367955305066
11045515 52 17980189009339530663
11357001 24 18336552714917798947
11582403 64 16083590550455342869
12107183 9 18045490921164523482
121448 382 18341603768652238437
12643181 29 18194691363715812870
12788726 201 18337654404342349043
13004483 165 18192996147600374083
13140716 1 18195536019549824283
13583140 156 17385450894885437768
13955234 65 17399527723713552145
14142880 1 18334292029170420797
14178342 30 18334296474799214274
17093844 174 18342168961380233906
173720 79 18188196607641125801
1741750 31 18340207384468565920
19765921 60 18055066554492255305
20510252 161 18412269445056229987
20600515 1 17697341837680186503
21304303 282 18121186875865609719
21401589 2 18270965639409127864
21524375 3 18195242213643034773
21650355 55 18194128648745616571
21731228 192 18191594042562396201
22182937 141 18341058449360472632
22907989 373 18339927124709436380
22956985 138 16461919758489713786
2306618 200 17917715742106930210
23419403 2 16484695931236650379
23557571 272 18271814557322943828
23558518 356 18338514127851173823
23598288 3 18411138082357227470
283562 15 18263360455245899330
394222 165 17834948677613473843
474 4 17907013980696074937
5104073 3 18261943121203118520
633830 44 17769659702414800773
7097593 13 18114457860862489634
7615 1 17822581620001060868
81228 2 18266760106559750311
84936 182 17695341482384269464
90316 7 18194979649386437499
9981440 41 18059278878048754858

> <PUBCHEM_SHAPE_MULTIPOLES>
394.87
8.24
4.16
1.33
15.14
1.22
-0.02
-5.11
-0.52
-6.24
-0.38
-0.49
0.02
-0.13

> <PUBCHEM_SHAPE_SELFOVERLAP>
828.031

> <PUBCHEM_SHAPE_VOLUME>
225.4

> <PUBCHEM_COORDINATE_TYPE>
2
5
10

$$$$
