75536603
  -OEChem-12032416343D

 46 48  0     1  0  0  0  0  0999 V2000
    7.8445    0.7569   -0.6902 S   0  0  0  0  0  0  0  0  0  0  0  0
    1.7842   -0.9766   -0.1144 O   0  0  0  0  0  0  0  0  0  0  0  0
    0.6329    2.3886    0.3906 O   0  0  0  0  0  0  0  0  0  0  0  0
    5.2370    1.8548    0.1448 O   0  0  0  0  0  0  0  0  0  0  0  0
   -8.7281    0.8397   -0.1014 O   0  0  0  0  0  0  0  0  0  0  0  0
   -8.5916   -1.0889    1.0939 O   0  0  0  0  0  0  0  0  0  0  0  0
   -1.6380    0.2500    0.0096 N   0  0  0  0  0  0  0  0  0  0  0  0
    4.2917   -0.0916    0.9817 N   0  0  0  0  0  0  0  0  0  0  0  0
   -0.2373    0.2418   -0.3801 C   0  0  1  0  0  0  0  0  0  0  0  0
    0.6671    0.9878    0.5833 C   0  0  1  0  0  0  0  0  0  0  0  0
    2.0252    0.3987    0.2265 C   0  0  1  0  0  0  0  0  0  0  0  0
    0.3762   -1.1485   -0.3531 C   0  0  0  0  0  0  0  0  0  0  0  0
    3.0308    0.4777    1.3613 C   0  0  0  0  0  0  0  0  0  0  0  0
   -2.4924   -0.1737   -1.0934 C   0  0  0  0  0  0  0  0  0  0  0  0
   -3.9463   -0.1873   -0.7029 C   0  0  0  0  0  0  0  0  0  0  0  0
    5.3092    0.6546    0.3949 C   0  0  0  0  0  0  0  0  0  0  0  0
   -4.4459   -1.2218    0.0884 C   0  0  0  0  0  0  0  0  0  0  0  0
   -4.7938    0.8341   -1.1322 C   0  0  0  0  0  0  0  0  0  0  0  0
    6.5447   -0.0885    0.0365 C   0  0  0  0  0  0  0  0  0  0  0  0
   -5.7927   -1.2348    0.4503 C   0  0  0  0  0  0  0  0  0  0  0  0
   -6.1408    0.8209   -0.7703 C   0  0  0  0  0  0  0  0  0  0  0  0
   -6.6403   -0.2134    0.0211 C   0  0  0  0  0  0  0  0  0  0  0  0
    6.8279   -1.4261    0.2051 C   0  0  0  0  0  0  0  0  0  0  0  0
   -8.0446   -0.2261    0.3989 C   0  0  0  0  0  0  0  0  0  0  0  0
    8.1292   -1.7612   -0.2683 C   0  0  0  0  0  0  0  0  0  0  0  0
    8.7910   -0.6672   -0.7808 C   0  0  0  0  0  0  0  0  0  0  0  0
   -0.1176    0.6920   -1.3757 H   0  0  0  0  0  0  0  0  0  0  0  0
    0.4017    0.7676    1.6249 H   0  0  0  0  0  0  0  0  0  0  0  0
    2.4387    0.8885   -0.6650 H   0  0  0  0  0  0  0  0  0  0  0  0
   -0.0173   -1.7619    0.4658 H   0  0  0  0  0  0  0  0  0  0  0  0
    0.2318   -1.6925   -1.2914 H   0  0  0  0  0  0  0  0  0  0  0  0
    2.6818   -0.0982    2.2255 H   0  0  0  0  0  0  0  0  0  0  0  0
    3.1801    1.5167    1.6740 H   0  0  0  0  0  0  0  0  0  0  0  0
   -1.9011    1.1963    0.2861 H   0  0  0  0  0  0  0  0  0  0  0  0
   -2.2236   -1.1832   -1.4299 H   0  0  0  0  0  0  0  0  0  0  0  0
   -2.3548    0.4867   -1.9595 H   0  0  0  0  0  0  0  0  0  0  0  0
    0.8677    2.5759   -0.5340 H   0  0  0  0  0  0  0  0  0  0  0  0
    4.4165   -1.0846    1.1463 H   0  0  0  0  0  0  0  0  0  0  0  0
   -3.7952   -2.0232    0.4284 H   0  0  0  0  0  0  0  0  0  0  0  0
   -4.4173    1.6472   -1.7472 H   0  0  0  0  0  0  0  0  0  0  0  0
   -6.1624   -2.0496    1.0673 H   0  0  0  0  0  0  0  0  0  0  0  0
   -6.7649    1.6359   -1.1259 H   0  0  0  0  0  0  0  0  0  0  0  0
    6.1534   -2.1499    0.6431 H   0  0  0  0  0  0  0  0  0  0  0  0
    8.5583   -2.7542   -0.2348 H   0  0  0  0  0  0  0  0  0  0  0  0
    9.7850   -0.6361   -1.2042 H   0  0  0  0  0  0  0  0  0  0  0  0
   -9.6737    0.8217    0.1592 H   0  0  0  0  0  0  0  0  0  0  0  0
  1 19  1  0  0  0  0
  1 26  1  0  0  0  0
  2 11  1  0  0  0  0
  2 12  1  0  0  0  0
  3 10  1  0  0  0  0
  3 37  1  0  0  0  0
  4 16  2  0  0  0  0
  5 24  1  0  0  0  0
  5 46  1  0  0  0  0
  6 24  2  0  0  0  0
  7  9  1  0  0  0  0
  7 14  1  0  0  0  0
  7 34  1  0  0  0  0
  8 13  1  0  0  0  0
  8 16  1  0  0  0  0
  8 38  1  0  0  0  0
  9 10  1  0  0  0  0
  9 12  1  0  0  0  0
  9 27  1  0  0  0  0
 10 11  1  0  0  0  0
 10 28  1  0  0  0  0
 11 13  1  0  0  0  0
 11 29  1  0  0  0  0
 12 30  1  0  0  0  0
 12 31  1  0  0  0  0
 13 32  1  0  0  0  0
 13 33  1  0  0  0  0
 14 15  1  0  0  0  0
 14 35  1  0  0  0  0
 14 36  1  0  0  0  0
 15 17  2  0  0  0  0
 15 18  1  0  0  0  0
 16 19  1  0  0  0  0
 17 20  1  0  0  0  0
 17 39  1  0  0  0  0
 18 21  2  0  0  0  0
 18 40  1  0  0  0  0
 19 23  2  0  0  0  0
 20 22  2  0  0  0  0
 20 41  1  0  0  0  0
 21 22  1  0  0  0  0
 21 42  1  0  0  0  0
 22 24  1  0  0  0  0
 23 25  1  0  0  0  0
 23 43  1  0  0  0  0
 25 26  2  0  0  0  0
 25 44  1  0  0  0  0
 26 45  1  0  0  0  0
M  END
> <PUBCHEM_COMPOUND_CID>
75536603

> <PUBCHEM_CONFORMER_RMSD>
1

> <PUBCHEM_CONFORMER_DIVERSEORDER>
1
61
74
73
34
68
21
77
63
14
35
75
30
49
24
76
7
5
52
32
4
53
16
51
71
60
69
27
8
33
54
62
42
20
28
48
67
40
57
39
64
50
41
25
47
59
38
58
26
45
55
43
29
46
72
11
44
10
13
22
18
23
3
12
37
31
65
19
66
9
6
17
70
56
36
15
2

> <PUBCHEM_MMFF94_PARTIAL_CHARGES>
37
1 -0.08
10 0.28
11 0.28
12 0.28
13 0.3
14 0.41
15 -0.14
16 0.71
17 -0.15
18 -0.15
19 -0.05
2 -0.56
20 -0.15
21 -0.15
22 0.09
23 -0.15
24 0.63
25 -0.15
26 -0.11
3 -0.68
34 0.36
37 0.4
38 0.37
39 0.15
4 -0.57
40 0.15
41 0.15
42 0.15
43 0.15
44 0.15
45 0.15
46 0.5
5 -0.65
6 -0.57
7 -0.9
8 -0.73
9 0.27

> <PUBCHEM_EFFECTIVE_ROTOR_COUNT>
9

> <PUBCHEM_PHARMACOPHORE_FEATURES>
13
1 2 acceptor
1 3 acceptor
1 3 donor
1 4 acceptor
1 5 acceptor
1 6 acceptor
1 7 cation
1 7 donor
1 8 donor
3 5 6 24 anion
5 1 19 23 25 26 rings
5 2 9 10 11 12 rings
6 15 17 18 20 21 22 rings

> <PUBCHEM_HEAVY_ATOM_COUNT>
26

> <PUBCHEM_ATOM_DEF_STEREO_COUNT>
3

> <PUBCHEM_ATOM_UDEF_STEREO_COUNT>
0

> <PUBCHEM_BOND_DEF_STEREO_COUNT>
0

> <PUBCHEM_BOND_UDEF_STEREO_COUNT>
0

> <PUBCHEM_ISOTOPIC_ATOM_COUNT>
0

> <PUBCHEM_COMPONENT_COUNT>
1

> <PUBCHEM_CACTVS_TAUTO_COUNT>
2

> <PUBCHEM_CONFORMER_ID>
048098DB00000001

> <PUBCHEM_MMFF94_ENERGY>
54.5139

> <PUBCHEM_FEATURE_SELFOVERLAP>
66.03

> <PUBCHEM_SHAPE_FINGERPRINT>
10162869 55 11674886618750107162
10299344 5 17530963579398434283
11135926 11 17703782601039319007
11315181 36 11241969270802338335
12592606 108 18272647982842045015
12838862 33 8142086420758930437
14123256 10 14634868648040144774
14216079 64 17846500306047556406
14251764 46 18412826884498012622
14344974 52 16443355308356386582
14347424 109 15410886389014614354
14933364 13 18260545632426918724
15131766 46 12821285864227823482
15183329 4 16056883546070640822
15840311 113 18187085104396653260
15849732 13 18113899373200695614
18335252 98 17894630340631448986
18365409 1 15792026618040947562
20105231 36 18335423469247750691
21095086 128 16950279590412006722
21150785 3 13262397764967750755
21267235 1 18411699885148354392
21403212 168 13254797928255194868
21792934 111 17846489336411179392
21792961 116 18340763750200309781
22224240 67 11963390743654447888
23035841 295 17917708011170903174
232437 2 18412826898348453943
246663 6 18409731755192427930
249057 3 15864077597665383294
28498 318 17775567520562027206
3178227 256 18202281420639525658
328311 84 18409729556258804262
34797466 226 16950565485068203622
4325135 7 15647053767755523398
437795 160 12391498790026206965
439807 62 18341332219999206526
45270241 37 18335989736197007668
5283156 175 18202566168581691292
5381727 24 15985100835004868455
5758199 1 15647051551473225600
59682541 35 12973890316186244173
6394761 36 17346598577548769014
67123 10 17748829622478000862

> <PUBCHEM_SHAPE_MULTIPOLES>
499.61
30.97
1.53
0.99
1.07
0.16
-0.01
-6.42
1.3
-1.26
-0.09
0.14
0.06
1.11

> <PUBCHEM_SHAPE_SELFOVERLAP>
1048.629

> <PUBCHEM_SHAPE_VOLUME>
282.1

> <PUBCHEM_COORDINATE_TYPE>
2
5
10

$$$$
