45360660
  -OEChem-12032416293D

 64 67  0     1  0  0  0  0  0999 V2000
   -0.1290   -2.0866    2.6713 O   0  0  0  0  0  0  0  0  0  0  0  0
   -3.7414    3.3036   -0.2847 O   0  0  0  0  0  0  0  0  0  0  0  0
   -4.9151   -3.4667    0.1527 O   0  0  0  0  0  0  0  0  0  0  0  0
   -0.1525    1.0083    0.7363 N   0  0  1  0  0  0  0  0  0  0  0  0
   -0.7636    0.0090    3.2861 N   0  0  0  0  0  0  0  0  0  0  0  0
    3.3491    0.3270    0.0961 N   0  0  0  0  0  0  0  0  0  0  0  0
   -2.4368    2.0488   -1.7381 N   0  0  0  0  0  0  0  0  0  0  0  0
   -0.1536   -0.4491    0.9163 C   0  0  1  0  0  0  0  0  0  0  0  0
    1.9052    0.3835   -0.0658 C   0  0  1  0  0  0  0  0  0  0  0  0
   -1.1246    1.7162    1.5619 C   0  0  1  0  0  0  0  0  0  0  0  0
    1.2031   -0.9069    0.3582 C   0  0  0  0  0  0  0  0  0  0  0  0
    1.2392    1.4490    0.7940 C   0  0  0  0  0  0  0  0  0  0  0  0
   -0.8950    1.4258    3.0368 C   0  0  0  0  0  0  0  0  0  0  0  0
   -0.3232   -0.9073    2.3619 C   0  0  0  0  0  0  0  0  0  0  0  0
   -1.1447    3.2219    1.2954 C   0  0  0  0  0  0  0  0  0  0  0  0
   -1.3316    3.5164   -0.1866 C   0  0  0  0  0  0  0  0  0  0  0  0
    3.9712   -0.3981   -1.0046 C   0  0  0  0  0  0  0  0  0  0  0  0
   -2.6430    2.9663   -0.7182 C   0  0  0  0  0  0  0  0  0  0  0  0
    5.4664   -0.4799   -0.8482 C   0  0  0  0  0  0  0  0  0  0  0  0
    6.2794    0.5162   -1.3887 C   0  0  0  0  0  0  0  0  0  0  0  0
    6.0385   -1.5516   -0.1628 C   0  0  0  0  0  0  0  0  0  0  0  0
   -3.5284    1.3825   -2.4079 C   0  0  0  0  0  0  0  0  0  0  0  0
    7.6648    0.4408   -1.2440 C   0  0  0  0  0  0  0  0  0  0  0  0
    7.4238   -1.6271   -0.0180 C   0  0  0  0  0  0  0  0  0  0  0  0
    8.2369   -0.6309   -0.5587 C   0  0  0  0  0  0  0  0  0  0  0  0
   -3.8986    0.0911   -1.7283 C   0  0  0  0  0  0  0  0  0  0  0  0
   -3.0991   -1.0397   -1.8959 C   0  0  0  0  0  0  0  0  0  0  0  0
   -5.0399    0.0261   -0.9290 C   0  0  0  0  0  0  0  0  0  0  0  0
   -3.4410   -2.2353   -1.2643 C   0  0  0  0  0  0  0  0  0  0  0  0
   -5.3817   -1.1696   -0.2974 C   0  0  0  0  0  0  0  0  0  0  0  0
   -4.5824   -2.3004   -0.4650 C   0  0  0  0  0  0  0  0  0  0  0  0
   -4.0525   -4.5831   -0.0607 C   0  0  0  0  0  0  0  0  0  0  0  0
   -0.9751   -0.8897    0.3416 H   0  0  0  0  0  0  0  0  0  0  0  0
    1.6513    0.6040   -1.1138 H   0  0  0  0  0  0  0  0  0  0  0  0
   -2.1158    1.3167    1.3050 H   0  0  0  0  0  0  0  0  0  0  0  0
    1.0752   -1.5713   -0.5042 H   0  0  0  0  0  0  0  0  0  0  0  0
    1.7933   -1.4467    1.1088 H   0  0  0  0  0  0  0  0  0  0  0  0
    1.6361    1.4353    1.8165 H   0  0  0  0  0  0  0  0  0  0  0  0
    1.3986    2.4455    0.3715 H   0  0  0  0  0  0  0  0  0  0  0  0
    0.0131    1.9061    3.4174 H   0  0  0  0  0  0  0  0  0  0  0  0
   -1.7358    1.7846    3.6403 H   0  0  0  0  0  0  0  0  0  0  0  0
   -1.9650    3.6758    1.8662 H   0  0  0  0  0  0  0  0  0  0  0  0
   -0.2216    3.6990    1.6463 H   0  0  0  0  0  0  0  0  0  0  0  0
   -0.8930   -0.3133    4.2402 H   0  0  0  0  0  0  0  0  0  0  0  0
    3.7200    1.2774    0.1160 H   0  0  0  0  0  0  0  0  0  0  0  0
   -1.3699    4.6036   -0.3308 H   0  0  0  0  0  0  0  0  0  0  0  0
   -0.4825    3.1708   -0.7837 H   0  0  0  0  0  0  0  0  0  0  0  0
    3.5719   -1.4182   -1.0720 H   0  0  0  0  0  0  0  0  0  0  0  0
    3.7421    0.0833   -1.9646 H   0  0  0  0  0  0  0  0  0  0  0  0
   -1.4917    1.8048   -2.0188 H   0  0  0  0  0  0  0  0  0  0  0  0
    5.8457    1.3572   -1.9234 H   0  0  0  0  0  0  0  0  0  0  0  0
    5.4158   -2.3331    0.2645 H   0  0  0  0  0  0  0  0  0  0  0  0
   -4.3909    2.0573   -2.4592 H   0  0  0  0  0  0  0  0  0  0  0  0
   -3.2147    1.1848   -3.4392 H   0  0  0  0  0  0  0  0  0  0  0  0
    8.2979    1.2166   -1.6644 H   0  0  0  0  0  0  0  0  0  0  0  0
    7.8694   -2.4612    0.5161 H   0  0  0  0  0  0  0  0  0  0  0  0
    9.3155   -0.6896   -0.4457 H   0  0  0  0  0  0  0  0  0  0  0  0
   -2.2062   -0.9989   -2.5144 H   0  0  0  0  0  0  0  0  0  0  0  0
   -5.6705    0.8998   -0.7881 H   0  0  0  0  0  0  0  0  0  0  0  0
   -2.7750   -3.0740   -1.4360 H   0  0  0  0  0  0  0  0  0  0  0  0
   -6.2714   -1.2140    0.3248 H   0  0  0  0  0  0  0  0  0  0  0  0
   -4.4671   -5.4246    0.5040 H   0  0  0  0  0  0  0  0  0  0  0  0
   -3.0481   -4.3968    0.3347 H   0  0  0  0  0  0  0  0  0  0  0  0
   -4.0350   -4.8827   -1.1141 H   0  0  0  0  0  0  0  0  0  0  0  0
  1 14  2  0  0  0  0
  2 18  2  0  0  0  0
  3 31  1  0  0  0  0
  3 32  1  0  0  0  0
  4  8  1  0  0  0  0
  4 10  1  0  0  0  0
  4 12  1  0  0  0  0
  5 13  1  0  0  0  0
  5 14  1  0  0  0  0
  5 44  1  0  0  0  0
  6  9  1  0  0  0  0
  6 17  1  0  0  0  0
  6 45  1  0  0  0  0
  7 18  1  0  0  0  0
  7 22  1  0  0  0  0
  7 50  1  0  0  0  0
  8 11  1  0  0  0  0
  8 14  1  0  0  0  0
  8 33  1  0  0  0  0
  9 11  1  0  0  0  0
  9 12  1  0  0  0  0
  9 34  1  0  0  0  0
 10 13  1  0  0  0  0
 10 15  1  0  0  0  0
 10 35  1  0  0  0  0
 11 36  1  0  0  0  0
 11 37  1  0  0  0  0
 12 38  1  0  0  0  0
 12 39  1  0  0  0  0
 13 40  1  0  0  0  0
 13 41  1  0  0  0  0
 15 16  1  0  0  0  0
 15 42  1  0  0  0  0
 15 43  1  0  0  0  0
 16 18  1  0  0  0  0
 16 46  1  0  0  0  0
 16 47  1  0  0  0  0
 17 19  1  0  0  0  0
 17 48  1  0  0  0  0
 17 49  1  0  0  0  0
 19 20  2  0  0  0  0
 19 21  1  0  0  0  0
 20 23  1  0  0  0  0
 20 51  1  0  0  0  0
 21 24  2  0  0  0  0
 21 52  1  0  0  0  0
 22 26  1  0  0  0  0
 22 53  1  0  0  0  0
 22 54  1  0  0  0  0
 23 25  2  0  0  0  0
 23 55  1  0  0  0  0
 24 25  1  0  0  0  0
 24 56  1  0  0  0  0
 25 57  1  0  0  0  0
 26 27  2  0  0  0  0
 26 28  1  0  0  0  0
 27 29  1  0  0  0  0
 27 58  1  0  0  0  0
 28 30  2  0  0  0  0
 28 59  1  0  0  0  0
 29 31  2  0  0  0  0
 29 60  1  0  0  0  0
 30 31  1  0  0  0  0
 30 61  1  0  0  0  0
 32 62  1  0  0  0  0
 32 63  1  0  0  0  0
 32 64  1  0  0  0  0
M  END
> <PUBCHEM_COMPOUND_CID>
45360660

> <PUBCHEM_CONFORMER_RMSD>
1

> <PUBCHEM_CONFORMER_DIVERSEORDER>
1
45
90
35
87
139
63
21
53
111
161
135
172
117
40
156
76
127
52
80
67
77
95
169
66
38
11
93
147
102
130
71
159
30
105
99
42
55
151
162
41
140
126
143
13
34
83
167
85
68
81
123
47
116
132
78
48
110
114
74
108
29
113
36
118
154
129
124
92
56
166
62
70
8
128
44
106
115
51
26
86
157
73
43
152
31
121
149
46
133
131
75
134
22
69
60
50
97
136
119
54
173
138
142
112
168
165
49
7
57
164
101
125
104
28
163
141
37
146
145
25
155
15
89
100
158
137
32
98
122
61
88
160
58
64
10
24
12
96
170
82
17
148
107
5
109
174
33
84
150
39
79
153
120
171
6
19
14
18
103
16
4
23
144
20
59
72
27
91
3
94
9
2
65

> <PUBCHEM_MMFF94_PARTIAL_CHARGES>
42
1 -0.57
10 0.27
12 0.27
13 0.3
14 0.57
16 0.06
17 0.41
18 0.57
19 -0.14
2 -0.57
20 -0.15
21 -0.15
22 0.44
23 -0.15
24 -0.15
25 -0.15
26 -0.14
27 -0.15
28 -0.15
29 -0.15
3 -0.36
30 -0.15
31 0.08
32 0.28
4 -0.81
44 0.37
45 0.36
5 -0.73
50 0.37
51 0.15
52 0.15
55 0.15
56 0.15
57 0.15
58 0.15
59 0.15
6 -0.9
60 0.15
61 0.15
7 -0.73
8 0.33
9 0.27

> <PUBCHEM_EFFECTIVE_ROTOR_COUNT>
11.2

> <PUBCHEM_PHARMACOPHORE_FEATURES>
12
1 1 acceptor
1 2 acceptor
1 3 acceptor
1 4 cation
1 5 donor
1 6 cation
1 6 donor
1 7 donor
5 4 8 9 11 12 rings
6 19 20 21 23 24 25 rings
6 26 27 28 29 30 31 rings
6 4 5 8 10 13 14 rings

> <PUBCHEM_HEAVY_ATOM_COUNT>
32

> <PUBCHEM_ATOM_DEF_STEREO_COUNT>
3

> <PUBCHEM_ATOM_UDEF_STEREO_COUNT>
0

> <PUBCHEM_BOND_DEF_STEREO_COUNT>
0

> <PUBCHEM_BOND_UDEF_STEREO_COUNT>
0

> <PUBCHEM_ISOTOPIC_ATOM_COUNT>
0

> <PUBCHEM_COMPONENT_COUNT>
1

> <PUBCHEM_CACTVS_TAUTO_COUNT>
6

> <PUBCHEM_CONFORMER_ID>
02B4261400000001

> <PUBCHEM_MMFF94_ENERGY>
78.0084

> <PUBCHEM_FEATURE_SELFOVERLAP>
61.085

> <PUBCHEM_SHAPE_FINGERPRINT>
105312 117 16009037124998819992
10554248 39 17168435862070751238
10577160 103 17896886663183282500
10577160 183 16226037874424202160
10674148 151 18059849533400235193
10764073 3 11021903125729496737
11488393 25 16986561369315221416
12373685 5 17530958091495860314
12422481 6 9943806712203590848
12988421 55 12180125302969228717
13941219 33 13830137165639331348
14251764 30 18269273633212033847
14932701 244 18410017619419844220
15183329 4 16877937248827655438
15338160 23 9439393632225953266
15513586 35 11893348549840088630
17686467 74 18060696205278686888
17980427 26 15794816955308875617
20101258 96 14692281803694631680
20505436 4 17242161363254700877
2838139 119 16370725899020087700
4015057 19 18187091672066481420
4366758 6 10951783945738698651
4938544 92 8718819886564341348
5080951 261 17988924427474493666
6086070 43 15357699738745775268
6287921 2 17475502259316477687
70634741 139 18344144804807026604
77296 10 18268990891536410566

> <PUBCHEM_SHAPE_MULTIPOLES>
621.01
17.28
4.12
2.51
41.47
0.54
-1.75
10.9
10.25
-8.04
-0.34
-1.75
-0.6
0.2

> <PUBCHEM_SHAPE_SELFOVERLAP>
1315.01

> <PUBCHEM_SHAPE_VOLUME>
346.8

> <PUBCHEM_COORDINATE_TYPE>
2
5
10

$$$$
