51137969
  -OEChem-12032416233D

 46 48  0     1  0  0  0  0  0999 V2000
   -2.2763    2.3407   -1.0411 O   0  0  0  0  0  0  0  0  0  0  0  0
   -0.5585   -0.1498   -0.4650 N   0  0  0  0  0  0  0  0  0  0  0  0
    4.0592    1.8839   -0.2544 N   0  0  0  0  0  0  0  0  0  0  0  0
   -2.8100    1.3416    0.9928 N   0  0  0  0  0  0  0  0  0  0  0  0
    0.2813   -1.1396    0.2228 C   0  0  1  0  0  0  0  0  0  0  0  0
   -0.0388   -2.4738   -0.4750 C   0  0  0  0  0  0  0  0  0  0  0  0
    1.7831   -0.8379    0.2526 C   0  0  0  0  0  0  0  0  0  0  0  0
   -0.5748    1.1684    0.1529 C   0  0  1  0  0  0  0  0  0  0  0  0
    2.3700    0.4328   -0.0138 C   0  0  0  0  0  0  0  0  0  0  0  0
    0.4124    2.1174   -0.5238 C   0  0  0  0  0  0  0  0  0  0  0  0
    1.8421    1.7276   -0.3497 C   0  0  0  0  0  0  0  0  0  0  0  0
   -1.3831   -3.0674   -0.0430 C   0  0  0  0  0  0  0  0  0  0  0  0
    3.7601    0.5794    0.0604 C   0  0  0  0  0  0  0  0  0  0  0  0
    2.6743   -1.8677    0.6482 C   0  0  0  0  0  0  0  0  0  0  0  0
    2.9145    2.5839   -0.4967 C   0  0  0  0  0  0  0  0  0  0  0  0
   -1.9675    1.6812   -0.0521 C   0  0  0  0  0  0  0  0  0  0  0  0
   -1.5886   -4.4132   -0.7424 C   0  0  0  0  0  0  0  0  0  0  0  0
   -2.5614   -2.1413   -0.3477 C   0  0  0  0  0  0  0  0  0  0  0  0
    4.6253   -0.4598    0.4067 C   0  0  0  0  0  0  0  0  0  0  0  0
    4.0548   -1.6884    0.7134 C   0  0  0  0  0  0  0  0  0  0  0  0
   -4.1995    1.7349    1.0478 C   0  0  0  0  0  0  0  0  0  0  0  0
   -5.0561    0.7334    0.4135 C   0  0  0  0  0  0  0  0  0  0  0  0
   -5.7627   -0.0863   -0.1065 C   0  0  0  0  0  0  0  0  0  0  0  0
   -0.0369   -1.2104    1.2720 H   0  0  0  0  0  0  0  0  0  0  0  0
    0.7160   -3.2371   -0.2653 H   0  0  0  0  0  0  0  0  0  0  0  0
   -0.0064   -2.3534   -1.5681 H   0  0  0  0  0  0  0  0  0  0  0  0
   -0.3689    1.1195    1.2306 H   0  0  0  0  0  0  0  0  0  0  0  0
    0.2107    2.1926   -1.6017 H   0  0  0  0  0  0  0  0  0  0  0  0
    0.2694    3.1290   -0.1190 H   0  0  0  0  0  0  0  0  0  0  0  0
   -0.3161   -0.0905   -1.4533 H   0  0  0  0  0  0  0  0  0  0  0  0
   -1.3628   -3.2554    1.0381 H   0  0  0  0  0  0  0  0  0  0  0  0
    2.2954   -2.8411    0.9511 H   0  0  0  0  0  0  0  0  0  0  0  0
    2.9567    3.6345   -0.7491 H   0  0  0  0  0  0  0  0  0  0  0  0
    4.9925    2.2708   -0.2838 H   0  0  0  0  0  0  0  0  0  0  0  0
   -0.7714   -5.1045   -0.5101 H   0  0  0  0  0  0  0  0  0  0  0  0
   -2.5217   -4.8840   -0.4149 H   0  0  0  0  0  0  0  0  0  0  0  0
   -1.6340   -4.2936   -1.8304 H   0  0  0  0  0  0  0  0  0  0  0  0
   -2.5288   -1.7517   -1.3702 H   0  0  0  0  0  0  0  0  0  0  0  0
   -2.6142   -1.3200    0.3680 H   0  0  0  0  0  0  0  0  0  0  0  0
   -3.5077   -2.6850   -0.2411 H   0  0  0  0  0  0  0  0  0  0  0  0
    5.6986   -0.3119    0.4584 H   0  0  0  0  0  0  0  0  0  0  0  0
    4.6908   -2.5153    1.0180 H   0  0  0  0  0  0  0  0  0  0  0  0
   -2.4549    0.7699    1.7539 H   0  0  0  0  0  0  0  0  0  0  0  0
   -4.4612    1.8531    2.1039 H   0  0  0  0  0  0  0  0  0  0  0  0
   -4.3170    2.7064    0.5567 H   0  0  0  0  0  0  0  0  0  0  0  0
   -6.3877   -0.8146   -0.5681 H   0  0  0  0  0  0  0  0  0  0  0  0
  1 16  2  0  0  0  0
  2  5  1  0  0  0  0
  2  8  1  0  0  0  0
  2 30  1  0  0  0  0
  3 13  1  0  0  0  0
  3 15  1  0  0  0  0
  3 34  1  0  0  0  0
  4 16  1  0  0  0  0
  4 21  1  0  0  0  0
  4 43  1  0  0  0  0
  5  6  1  0  0  0  0
  5  7  1  0  0  0  0
  5 24  1  0  0  0  0
  6 12  1  0  0  0  0
  6 25  1  0  0  0  0
  6 26  1  0  0  0  0
  7  9  2  0  0  0  0
  7 14  1  0  0  0  0
  8 10  1  0  0  0  0
  8 16  1  0  0  0  0
  8 27  1  0  0  0  0
  9 11  1  0  0  0  0
  9 13  1  0  0  0  0
 10 11  1  0  0  0  0
 10 28  1  0  0  0  0
 10 29  1  0  0  0  0
 11 15  2  0  0  0  0
 12 17  1  0  0  0  0
 12 18  1  0  0  0  0
 12 31  1  0  0  0  0
 13 19  2  0  0  0  0
 14 20  2  0  0  0  0
 14 32  1  0  0  0  0
 15 33  1  0  0  0  0
 17 35  1  0  0  0  0
 17 36  1  0  0  0  0
 17 37  1  0  0  0  0
 18 38  1  0  0  0  0
 18 39  1  0  0  0  0
 18 40  1  0  0  0  0
 19 20  1  0  0  0  0
 19 41  1  0  0  0  0
 20 42  1  0  0  0  0
 21 22  1  0  0  0  0
 21 44  1  0  0  0  0
 21 45  1  0  0  0  0
 22 23  3  0  0  0  0
 23 46  1  0  0  0  0
M  END
> <PUBCHEM_COMPOUND_CID>
51137969

> <PUBCHEM_CONFORMER_RMSD>
0.8

> <PUBCHEM_CONFORMER_DIVERSEORDER>
1
10
11
19
27
4
16
30
15
14
20
32
8
2
25
31
22
13
6
29
12
3
23
21
35
26
7
33
9
5
34
36
18
28
37
24
17

> <PUBCHEM_MMFF94_PARTIAL_CHARGES>
26
1 -0.57
10 0.18
11 -0.18
13 -0.15
14 -0.15
15 -0.3
16 0.57
19 -0.15
2 -0.9
20 -0.15
21 0.5
22 -0.2
23 -0.18
3 0.03
30 0.36
32 0.15
33 0.15
34 0.27
4 -0.73
41 0.15
42 0.15
43 0.37
46 0.18
5 0.41
7 -0.14
8 0.33

> <PUBCHEM_EFFECTIVE_ROTOR_COUNT>
5.8

> <PUBCHEM_PHARMACOPHORE_FEATURES>
11
1 1 acceptor
1 2 cation
1 2 donor
1 23 hydrophobe
1 3 cation
1 3 donor
1 4 donor
3 12 17 18 hydrophobe
5 3 9 11 13 15 rings
6 7 9 13 14 19 20 rings
7 2 5 7 8 9 10 11 rings

> <PUBCHEM_HEAVY_ATOM_COUNT>
23

> <PUBCHEM_ATOM_DEF_STEREO_COUNT>
2

> <PUBCHEM_ATOM_UDEF_STEREO_COUNT>
0

> <PUBCHEM_BOND_DEF_STEREO_COUNT>
0

> <PUBCHEM_BOND_UDEF_STEREO_COUNT>
0

> <PUBCHEM_ISOTOPIC_ATOM_COUNT>
0

> <PUBCHEM_COMPONENT_COUNT>
1

> <PUBCHEM_CACTVS_TAUTO_COUNT>
2

> <PUBCHEM_CONFORMER_ID>
030C4DB100000001

> <PUBCHEM_MMFF94_ENERGY>
46.4048

> <PUBCHEM_FEATURE_SELFOVERLAP>
55.951

> <PUBCHEM_SHAPE_FINGERPRINT>
104564 63 18124882510318781390
10616163 171 18267588090355053862
10967382 1 18192988215259742062
1100329 8 18411134757683125626
11513181 2 18131357418642595703
11578080 2 17559100202270277594
12788726 201 18059011825682851247
13140716 1 18410287047699169752
13583140 156 17023733516334051897
138480 1 17547015130841573687
14178342 30 18195232546157442120
14787075 74 17989483013952184249
14790565 3 18411704279342938357
15196674 1 18409730707404978595
16728300 4 17101414988253614930
16945 1 18335973174296958292
17138139 8 17771592859437811111
19319366 153 17749681684266888338
19591789 44 17978511923552991070
20028762 73 18200869583158877855
20261772 1 18409451366604949656
20739085 24 17905626410265569112
21033648 29 18055328285594341392
21197605 99 18337124453271490395
21267235 1 18336270033566798986
21421861 104 18041543815796149194
23558518 356 18120097444531546468
25147074 1 18188204433662376068
2748010 2 17615394875954084356
283562 15 17761491796031352416
335352 9 18410292514981644998
338550 245 18261678167804922221
350125 39 18409165532727024232
465052 167 18113911411440118721
474229 33 18411417272479953523
6034566 193 16665449122829872100
6438718 38 17988921223260222463
7064713 232 18272087141548683281
7164475 11 18267581506339065582
7832392 63 18410574007348987202

> <PUBCHEM_SHAPE_MULTIPOLES>
452.52
9.43
4.17
0.86
5.64
3.61
0.04
-2.73
1.75
1.39
-0.95
0.23
-0.07
-1.44

> <PUBCHEM_SHAPE_SELFOVERLAP>
961.857

> <PUBCHEM_SHAPE_VOLUME>
251.5

> <PUBCHEM_COORDINATE_TYPE>
2
5
10

$$$$
