25390144
  -OEChem-12032416173D

 51 54  0     1  0  0  0  0  0999 V2000
   -7.3429   -0.8905   -0.8322 F   0  0  0  0  0  0  0  0  0  0  0  0
   -5.2312   -1.4529   -0.8276 F   0  0  0  0  0  0  0  0  0  0  0  0
   -6.3593   -1.3311    1.0689 F   0  0  0  0  0  0  0  0  0  0  0  0
    3.2314   -0.1652   -0.4968 O   0  0  0  0  0  0  0  0  0  0  0  0
    5.9578    0.1647   -1.8068 O   0  0  0  0  0  0  0  0  0  0  0  0
    6.1091    1.7811    0.4142 O   0  0  0  0  0  0  0  0  0  0  0  0
    1.5226   -1.6198    1.4940 O   0  0  0  0  0  0  0  0  0  0  0  0
    1.3988    3.0416   -0.2221 O   0  0  0  0  0  0  0  0  0  0  0  0
   -5.8484    0.6035   -0.0393 O   0  0  0  0  0  0  0  0  0  0  0  0
    2.8231   -2.9323    0.0741 N   0  0  0  0  0  0  0  0  0  0  0  0
    0.4676    1.2804    0.8014 N   0  0  0  0  0  0  0  0  0  0  0  0
    0.0343    3.0857   -0.5353 N   0  0  0  0  0  0  0  0  0  0  0  0
    0.4566   -3.3752    0.3466 C   0  0  0  0  0  0  0  0  0  0  0  0
    4.2727   -1.1417   -0.7272 C   0  0  1  0  0  0  0  0  0  0  0  0
   -0.7704   -2.6968   -0.1878 C   0  0  0  0  0  0  0  0  0  0  0  0
    0.0825   -3.5310   -1.0982 C   0  0  0  0  0  0  0  0  0  0  0  0
    5.5970   -0.4073   -0.5502 C   0  0  2  0  0  0  0  0  0  0  0  0
    5.2247    0.6811    0.4353 C   0  0  2  0  0  0  0  0  0  0  0  0
    3.8325    1.0595   -0.0407 C   0  0  2  0  0  0  0  0  0  0  0  0
    4.0799   -2.2730    0.2734 C   0  0  0  0  0  0  0  0  0  0  0  0
    1.6469   -2.5481    0.7037 C   0  0  0  0  0  0  0  0  0  0  0  0
    2.9716    1.6779    1.0463 C   0  0  0  0  0  0  0  0  0  0  0  0
    1.5686    1.9490    0.5673 C   0  0  0  0  0  0  0  0  0  0  0  0
   -0.4466    2.0155    0.1045 C   0  0  0  0  0  0  0  0  0  0  0  0
   -1.8337    1.6524    0.0663 C   0  0  0  0  0  0  0  0  0  0  0  0
   -2.6554    2.1402   -0.9500 C   0  0  0  0  0  0  0  0  0  0  0  0
   -2.3613    0.8122    1.0467 C   0  0  0  0  0  0  0  0  0  0  0  0
   -4.0045    1.7880   -0.9856 C   0  0  0  0  0  0  0  0  0  0  0  0
   -3.7104    0.4599    1.0112 C   0  0  0  0  0  0  0  0  0  0  0  0
   -4.5321    0.9479   -0.0050 C   0  0  0  0  0  0  0  0  0  0  0  0
   -6.1815   -0.7758   -0.1487 C   0  0  0  0  0  0  0  0  0  0  0  0
    0.2896   -4.2273    0.9978 H   0  0  0  0  0  0  0  0  0  0  0  0
    4.1442   -1.5164   -1.7495 H   0  0  0  0  0  0  0  0  0  0  0  0
   -0.7528   -1.6238   -0.3327 H   0  0  0  0  0  0  0  0  0  0  0  0
   -1.7351   -3.0933    0.1041 H   0  0  0  0  0  0  0  0  0  0  0  0
   -0.3079   -4.4899   -1.4168 H   0  0  0  0  0  0  0  0  0  0  0  0
    0.6587   -3.0110   -1.8539 H   0  0  0  0  0  0  0  0  0  0  0  0
    6.4286   -1.0332   -0.2144 H   0  0  0  0  0  0  0  0  0  0  0  0
    5.1912    0.2735    1.4527 H   0  0  0  0  0  0  0  0  0  0  0  0
    3.8855    1.7426   -0.8989 H   0  0  0  0  0  0  0  0  0  0  0  0
    4.1075   -1.8977    1.3023 H   0  0  0  0  0  0  0  0  0  0  0  0
    4.8664   -3.0258    0.1584 H   0  0  0  0  0  0  0  0  0  0  0  0
    2.8980    0.9962    1.9028 H   0  0  0  0  0  0  0  0  0  0  0  0
    3.4180    2.6115    1.4068 H   0  0  0  0  0  0  0  0  0  0  0  0
    2.8020   -3.7223   -0.5642 H   0  0  0  0  0  0  0  0  0  0  0  0
    6.1514   -0.5689   -2.4152 H   0  0  0  0  0  0  0  0  0  0  0  0
    6.9987    1.4436    0.6147 H   0  0  0  0  0  0  0  0  0  0  0  0
   -2.2743    2.7915   -1.7327 H   0  0  0  0  0  0  0  0  0  0  0  0
   -1.7450    0.4213    1.8527 H   0  0  0  0  0  0  0  0  0  0  0  0
   -4.6397    2.1694   -1.7805 H   0  0  0  0  0  0  0  0  0  0  0  0
   -4.1100   -0.1895    1.7852 H   0  0  0  0  0  0  0  0  0  0  0  0
  1 31  1  0  0  0  0
  2 31  1  0  0  0  0
  3 31  1  0  0  0  0
  4 14  1  0  0  0  0
  4 19  1  0  0  0  0
  5 17  1  0  0  0  0
  5 46  1  0  0  0  0
  6 18  1  0  0  0  0
  6 47  1  0  0  0  0
  7 21  2  0  0  0  0
  8 12  1  0  0  0  0
  8 23  1  0  0  0  0
  9 30  1  0  0  0  0
  9 31  1  0  0  0  0
 10 20  1  0  0  0  0
 10 21  1  0  0  0  0
 10 45  1  0  0  0  0
 11 23  2  0  0  0  0
 11 24  1  0  0  0  0
 12 24  2  0  0  0  0
 13 15  1  0  0  0  0
 13 16  1  0  0  0  0
 13 21  1  0  0  0  0
 13 32  1  0  0  0  0
 14 17  1  0  0  0  0
 14 20  1  0  0  0  0
 14 33  1  0  0  0  0
 15 16  1  0  0  0  0
 15 34  1  0  0  0  0
 15 35  1  0  0  0  0
 16 36  1  0  0  0  0
 16 37  1  0  0  0  0
 17 18  1  0  0  0  0
 17 38  1  0  0  0  0
 18 19  1  0  0  0  0
 18 39  1  0  0  0  0
 19 22  1  0  0  0  0
 19 40  1  0  0  0  0
 20 41  1  0  0  0  0
 20 42  1  0  0  0  0
 22 23  1  0  0  0  0
 22 43  1  0  0  0  0
 22 44  1  0  0  0  0
 24 25  1  0  0  0  0
 25 26  2  0  0  0  0
 25 27  1  0  0  0  0
 26 28  1  0  0  0  0
 26 48  1  0  0  0  0
 27 29  2  0  0  0  0
 27 49  1  0  0  0  0
 28 30  2  0  0  0  0
 28 50  1  0  0  0  0
 29 30  1  0  0  0  0
 29 51  1  0  0  0  0
M  END
> <PUBCHEM_COMPOUND_CID>
25390144

> <PUBCHEM_CONFORMER_RMSD>
1

> <PUBCHEM_CONFORMER_DIVERSEORDER>
1
82
78
91
92
31
24
17
98
64
7
50
16
83
85
43
21
57
44
58
54
80
4
101
33
95
13
88
75
63
94
61
68
15
27
22
41
14
46
100
34
39
35
81
29
53
60
87
99
67
32
97
89
2
59
66
51
86
40
76
73
20
47
52
18
30
71
65
28
62
49
3
77
45
56
96
5
93
25
84
6
69
8
42
36
12
55
90
74
70
26
79
48
37
72
19
23
10
9
38
11

> <PUBCHEM_MMFF94_PARTIAL_CHARGES>
43
1 -0.34
10 -0.73
11 -0.57
12 -0.41
13 -0.1
14 0.28
15 -0.2
16 -0.2
17 0.28
18 0.28
19 0.28
2 -0.34
20 0.3
21 0.63
22 0.18
23 0.3
24 0.46
25 0.05
26 -0.15
27 -0.15
28 -0.15
29 -0.15
3 -0.34
30 0.08
31 1.3
32 0.1
34 0.1
35 0.1
36 0.1
37 0.1
4 -0.56
45 0.37
46 0.4
47 0.4
48 0.15
49 0.15
5 -0.68
50 0.15
51 0.15
6 -0.68
7 -0.57
8 -0.02
9 -0.36

> <PUBCHEM_EFFECTIVE_ROTOR_COUNT>
10.6

> <PUBCHEM_PHARMACOPHORE_FEATURES>
12
1 10 donor
1 4 acceptor
1 5 acceptor
1 5 donor
1 6 acceptor
1 6 donor
1 7 acceptor
1 9 acceptor
3 11 12 24 cation
5 4 14 17 18 19 rings
5 8 11 12 23 24 rings
6 25 26 27 28 29 30 rings

> <PUBCHEM_HEAVY_ATOM_COUNT>
31

> <PUBCHEM_ATOM_DEF_STEREO_COUNT>
4

> <PUBCHEM_ATOM_UDEF_STEREO_COUNT>
0

> <PUBCHEM_BOND_DEF_STEREO_COUNT>
0

> <PUBCHEM_BOND_UDEF_STEREO_COUNT>
0

> <PUBCHEM_ISOTOPIC_ATOM_COUNT>
0

> <PUBCHEM_COMPONENT_COUNT>
1

> <PUBCHEM_CACTVS_TAUTO_COUNT>
6

> <PUBCHEM_CONFORMER_ID>
01836C4000000001

> <PUBCHEM_MMFF94_ENERGY>
70.6488

> <PUBCHEM_FEATURE_SELFOVERLAP>
60.909

> <PUBCHEM_SHAPE_FINGERPRINT>
10316853 100 18410011074158716810
11136131 41 18188483550713449042
12596602 18 17561368374283452265
12838862 33 18339061788000121952
13383661 66 17845389755726556782
13402501 40 18409452492108089579
13533116 47 17988361576158179385
1361 2 18409729581764831745
13617811 41 18260548952342343053
14394314 77 18341336609018349121
14840074 17 18413108360234580127
15001296 14 18266728263767130963
15721738 202 18272938202715010419
16114785 44 15759612152140205928
17492 54 18335151868875067978
19319366 153 17894907430367858482
20028762 73 18130787879945233895
21133410 62 18189314863076479135
21197605 99 18342176704183453838
21344244 181 17918004854079117982
23516275 137 17416994814045061575
23559900 14 18408595968930753265
25222932 49 18342171163580222822
338550 245 18264489653512928469
4280585 95 16751840539338281698
439807 62 18261392209394057195
445580 102 18122904218238390558
46194498 28 17822009851805223429
463206 1 18339641247971216299
484989 97 18337963303080928882
5309563 4 18411418367527997285
59755656 215 18333728027176423155
6669772 16 18268707384739637428

> <PUBCHEM_SHAPE_MULTIPOLES>
565.99
15.11
4.15
1.12
11.84
2.28
-0.05
1.01
-2.45
-1.33
-0.27
-0.15
0.06
0.36

> <PUBCHEM_SHAPE_SELFOVERLAP>
1214.637

> <PUBCHEM_SHAPE_VOLUME>
315.2

> <PUBCHEM_COORDINATE_TYPE>
2
5
10

$$$$
