75367689
  -OEChem-12032416383D

 45 47  0     1  0  0  0  0  0999 V2000
   -6.0786    0.6806    0.5995 S   0  0  0  0  0  0  0  0  0  0  0  0
    0.9475   -3.4502   -0.6045 O   0  0  0  0  0  0  0  0  0  0  0  0
   -0.5421   -0.2091   -1.2459 O   0  0  0  0  0  0  0  0  0  0  0  0
    4.7516   -1.2184    1.3588 O   0  0  0  0  0  0  0  0  0  0  0  0
   -6.6050   -0.5702    1.1286 O   0  0  0  0  0  0  0  0  0  0  0  0
   -6.0867    1.8768    1.4294 O   0  0  0  0  0  0  0  0  0  0  0  0
    2.4988   -1.0753    0.7285 N   0  0  0  0  0  0  0  0  0  0  0  0
    3.4371    1.7693    0.9006 N   0  0  0  0  0  0  0  0  0  0  0  0
    5.3483    2.1761   -1.1114 N   0  0  0  0  0  0  0  0  0  0  0  0
    0.2483   -1.1160   -0.4760 C   0  0  2  0  0  0  0  0  0  0  0  0
    1.4247   -0.3109    0.0833 C   0  0  0  0  0  0  0  0  0  0  0  0
    0.6841   -2.2769   -1.3677 C   0  0  0  0  0  0  0  0  0  0  0  0
    2.1928   -2.4154    1.2318 C   0  0  0  0  0  0  0  0  0  0  0  0
    2.1838   -3.4363    0.1013 C   0  0  0  0  0  0  0  0  0  0  0  0
    3.8147   -0.6001    0.8546 C   0  0  0  0  0  0  0  0  0  0  0  0
   -1.8250   -0.0028   -0.8193 C   0  0  0  0  0  0  0  0  0  0  0  0
    4.1216    0.7474    0.3494 C   0  0  0  0  0  0  0  0  0  0  0  0
   -2.2430    1.2788   -0.4607 C   0  0  0  0  0  0  0  0  0  0  0  0
   -2.7153   -1.0738   -0.7425 C   0  0  0  0  0  0  0  0  0  0  0  0
   -4.4417    0.4182    0.0512 C   0  0  0  0  0  0  0  0  0  0  0  0
   -3.5514    1.4893   -0.0256 C   0  0  0  0  0  0  0  0  0  0  0  0
   -4.0237   -0.8633   -0.3073 C   0  0  0  0  0  0  0  0  0  0  0  0
    5.0602    0.9472   -0.6390 C   0  0  0  0  0  0  0  0  0  0  0  0
   -6.9902    1.0389   -0.8851 C   0  0  0  0  0  0  0  0  0  0  0  0
    3.7252    2.9982    0.4281 C   0  0  0  0  0  0  0  0  0  0  0  0
    4.6638    3.1980   -0.5602 C   0  0  0  0  0  0  0  0  0  0  0  0
   -0.3234   -1.5137    0.3739 H   0  0  0  0  0  0  0  0  0  0  0  0
    1.8508    0.2944   -0.7254 H   0  0  0  0  0  0  0  0  0  0  0  0
    1.0472    0.4027    0.8266 H   0  0  0  0  0  0  0  0  0  0  0  0
   -0.1262   -2.5330   -2.0594 H   0  0  0  0  0  0  0  0  0  0  0  0
    1.5465   -2.0179   -1.9942 H   0  0  0  0  0  0  0  0  0  0  0  0
    1.2401   -2.3821    1.7704 H   0  0  0  0  0  0  0  0  0  0  0  0
    2.9640   -2.7041    1.9544 H   0  0  0  0  0  0  0  0  0  0  0  0
    3.0138   -3.2897   -0.5999 H   0  0  0  0  0  0  0  0  0  0  0  0
    2.2954   -4.4365    0.5332 H   0  0  0  0  0  0  0  0  0  0  0  0
   -1.5536    2.1166   -0.5194 H   0  0  0  0  0  0  0  0  0  0  0  0
   -2.4085   -2.0762   -1.0277 H   0  0  0  0  0  0  0  0  0  0  0  0
   -3.8569    2.4968    0.2422 H   0  0  0  0  0  0  0  0  0  0  0  0
   -4.7027   -1.7102   -0.2625 H   0  0  0  0  0  0  0  0  0  0  0  0
    5.6131    0.1312   -1.0895 H   0  0  0  0  0  0  0  0  0  0  0  0
   -8.0312    1.2191   -0.6083 H   0  0  0  0  0  0  0  0  0  0  0  0
   -6.5700    1.9311   -1.3531 H   0  0  0  0  0  0  0  0  0  0  0  0
   -6.9267    0.1810   -1.5571 H   0  0  0  0  0  0  0  0  0  0  0  0
    3.1753    3.8196    0.8703 H   0  0  0  0  0  0  0  0  0  0  0  0
    4.8945    4.1858   -0.9394 H   0  0  0  0  0  0  0  0  0  0  0  0
  1  5  2  0  0  0  0
  1  6  2  0  0  0  0
  1 20  1  0  0  0  0
  1 24  1  0  0  0  0
  2 12  1  0  0  0  0
  2 14  1  0  0  0  0
  3 10  1  0  0  0  0
  3 16  1  0  0  0  0
  4 15  2  0  0  0  0
  7 11  1  0  0  0  0
  7 13  1  0  0  0  0
  7 15  1  0  0  0  0
  8 17  2  0  0  0  0
  8 25  1  0  0  0  0
  9 23  2  0  0  0  0
  9 26  1  0  0  0  0
 10 11  1  0  0  0  0
 10 12  1  0  0  0  0
 10 27  1  0  0  0  0
 11 28  1  0  0  0  0
 11 29  1  0  0  0  0
 12 30  1  0  0  0  0
 12 31  1  0  0  0  0
 13 14  1  0  0  0  0
 13 32  1  0  0  0  0
 13 33  1  0  0  0  0
 14 34  1  0  0  0  0
 14 35  1  0  0  0  0
 15 17  1  0  0  0  0
 16 18  2  0  0  0  0
 16 19  1  0  0  0  0
 17 23  1  0  0  0  0
 18 21  1  0  0  0  0
 18 36  1  0  0  0  0
 19 22  2  0  0  0  0
 19 37  1  0  0  0  0
 20 21  2  0  0  0  0
 20 22  1  0  0  0  0
 21 38  1  0  0  0  0
 22 39  1  0  0  0  0
 23 40  1  0  0  0  0
 24 41  1  0  0  0  0
 24 42  1  0  0  0  0
 24 43  1  0  0  0  0
 25 26  2  0  0  0  0
 25 44  1  0  0  0  0
 26 45  1  0  0  0  0
M  END
> <PUBCHEM_COMPOUND_CID>
75367689

> <PUBCHEM_CONFORMER_RMSD>
1

> <PUBCHEM_CONFORMER_DIVERSEORDER>
1
131
130
73
57
100
78
101
151
146
36
137
52
148
54
155
125
129
72
90
157
75
71
69
147
156
132
165
127
33
86
14
47
25
44
87
134
64
62
28
161
149
145
9
114
144
109
119
85
102
82
153
99
37
164
95
66
140
79
94
135
150
19
141
124
63
70
40
98
22
128
108
53
93
105
20
60
8
27
55
122
117
65
103
51
97
162
26
92
136
81
120
24
163
17
133
158
111
107
2
29
45
126
5
3
113
139
16
74
59
89
15
7
154
10
32
46
116
142
118
4
110
48
106
35
159
112
49
167
38
42
43
68
160
13
30
115
23
80
91
152
138
58
104
67
83
84
88
143
11
34
41
12
76
6
77
123
39
18
50
96
31
56
121
61
21
166

> <PUBCHEM_MMFF94_PARTIAL_CHARGES>
33
1 1.2
10 0.28
11 0.3
12 0.28
13 0.3
14 0.28
15 0.54
16 0.08
17 0.4
18 -0.15
19 -0.15
2 -0.56
20 -0.01
21 -0.15
22 -0.15
23 0.16
24 0.11
25 0.16
26 0.16
3 -0.36
36 0.15
37 0.15
38 0.15
39 0.15
4 -0.57
40 0.15
44 0.15
45 0.15
5 -0.65
6 -0.65
7 -0.66
8 -0.62
9 -0.62

> <PUBCHEM_EFFECTIVE_ROTOR_COUNT>
6.4

> <PUBCHEM_PHARMACOPHORE_FEATURES>
10
1 2 acceptor
1 3 acceptor
1 4 acceptor
1 5 acceptor
1 6 acceptor
1 8 acceptor
1 9 acceptor
6 16 18 19 20 21 22 rings
6 8 9 17 23 25 26 rings
7 2 7 10 11 12 13 14 rings

> <PUBCHEM_HEAVY_ATOM_COUNT>
26

> <PUBCHEM_ATOM_DEF_STEREO_COUNT>
1

> <PUBCHEM_ATOM_UDEF_STEREO_COUNT>
0

> <PUBCHEM_BOND_DEF_STEREO_COUNT>
0

> <PUBCHEM_BOND_UDEF_STEREO_COUNT>
0

> <PUBCHEM_ISOTOPIC_ATOM_COUNT>
0

> <PUBCHEM_COMPONENT_COUNT>
1

> <PUBCHEM_CACTVS_TAUTO_COUNT>
1

> <PUBCHEM_CONFORMER_ID>
047E050900000001

> <PUBCHEM_MMFF94_ENERGY>
80.517

> <PUBCHEM_FEATURE_SELFOVERLAP>
50.774

> <PUBCHEM_SHAPE_FINGERPRINT>
10165383 225 17822297912094965532
10378564 45 10735878340143950187
10670039 82 16486706774515638193
10674148 151 18202293524485594340
10835480 77 18262511495505425797
10904742 90 18335705000797423620
12596602 18 18113056035050192425
12616971 3 18340474617196631558
12788726 201 17203053972153134089
12925494 130 18194954159130880825
13583140 156 17679279911009723391
13955234 65 18335701585829074274
14251764 75 18265054820023564724
14341114 328 18410290315778911179
14347332 77 8358260337419430607
1454969 45 18270114755739700111
146900 427 18408603677515516417
14790565 3 18269274723806581597
14840074 17 18261391191302582253
14849402 71 18259983795608836552
14955137 171 18264194834980755746
151778 21 18410284822774111412
15183329 4 8070027787945526555
15475509 35 15792556480135577888
16126227 98 18121503724483938596
17349148 13 12613032760587443613
17857418 61 7997971267259305137
18222031 100 11891332019918658930
18785283 64 18337951182540820790
20465049 17 18339934744793464926
20626108 58 11241963772416089134
21250096 35 8862950489377847860
21365058 113 17912379623547380806
21756936 100 18198615739172127436
21859007 373 17169538616166610733
23559900 14 18127686033142018815
23569914 152 9797197677390253305
23845131 108 18260826050736712506
2637199 183 18412263969663790150
3178227 256 18260543386729079826
38570 142 18335996358562096988
397830 11 17968107447388712217
437795 163 18195518411070972407
5104073 3 18187356679441779890
633830 44 18272646887593619534

> <PUBCHEM_SHAPE_MULTIPOLES>
494.63
16.06
3.58
1.22
19.25
0.88
0.07
-10.95
2.72
-5.51
-0.17
0.04
0.15
-1.34

> <PUBCHEM_SHAPE_SELFOVERLAP>
1036.96

> <PUBCHEM_SHAPE_VOLUME>
279.3

> <PUBCHEM_COORDINATE_TYPE>
2
5
10

$$$$
