71693885
  -OEChem-12032416403D

 49 51  0     1  0  0  0  0  0999 V2000
   -0.5742    3.7501   -1.1169 O   0  0  0  0  0  0  0  0  0  0  0  0
    2.1593    3.8083   -0.8638 O   0  0  0  0  0  0  0  0  0  0  0  0
   -0.2844   -0.8469   -1.3795 O   0  0  0  0  0  0  0  0  0  0  0  0
    4.9204   -2.7509   -0.4951 O   0  0  0  0  0  0  0  0  0  0  0  0
   -5.8405   -0.1805    0.5312 O   0  0  0  0  0  0  0  0  0  0  0  0
   -0.9157    0.8853    0.0278 N   0  0  0  0  0  0  0  0  0  0  0  0
    1.3256    1.3788    0.9595 C   0  0  2  0  0  0  0  0  0  0  0  0
    0.2759    1.6792   -0.1342 C   0  0  2  0  0  0  0  0  0  0  0  0
   -0.0042    3.1710    0.0417 C   0  0  1  0  0  0  0  0  0  0  0  0
    2.0055    2.7358    1.2767 C   0  0  0  0  0  0  0  0  0  0  0  0
    1.3763    3.7511    0.3246 C   0  0  1  0  0  0  0  0  0  0  0  0
    2.2867    0.2753    0.5709 C   0  0  0  0  0  0  0  0  0  0  0  0
    3.0857    0.4138   -0.5642 C   0  0  0  0  0  0  0  0  0  0  0  0
    2.3731   -0.8800    1.3479 C   0  0  0  0  0  0  0  0  0  0  0  0
   -1.0981   -0.3299   -0.6186 C   0  0  0  0  0  0  0  0  0  0  0  0
    3.9709   -0.6030   -0.9222 C   0  0  0  0  0  0  0  0  0  0  0  0
    3.2581   -1.8970    0.9897 C   0  0  0  0  0  0  0  0  0  0  0  0
    4.0571   -1.7584   -0.1454 C   0  0  0  0  0  0  0  0  0  0  0  0
   -2.3930   -1.0134   -0.3674 C   0  0  0  0  0  0  0  0  0  0  0  0
   -3.5224   -0.2667   -0.0317 C   0  0  0  0  0  0  0  0  0  0  0  0
   -2.4794   -2.4021   -0.4674 C   0  0  0  0  0  0  0  0  0  0  0  0
   -4.7382   -0.9086    0.2040 C   0  0  0  0  0  0  0  0  0  0  0  0
   -3.6950   -3.0440   -0.2314 C   0  0  0  0  0  0  0  0  0  0  0  0
   -4.8246   -2.2973    0.1041 C   0  0  0  0  0  0  0  0  0  0  0  0
    4.9570   -3.9048    0.3435 C   0  0  0  0  0  0  0  0  0  0  0  0
   -5.6818    1.2351    0.6161 C   0  0  0  0  0  0  0  0  0  0  0  0
    0.8023    1.0678    1.8758 H   0  0  0  0  0  0  0  0  0  0  0  0
    0.6587    1.4981   -1.1461 H   0  0  0  0  0  0  0  0  0  0  0  0
   -0.6775    3.3463    0.8903 H   0  0  0  0  0  0  0  0  0  0  0  0
    1.7599    3.0116    2.3100 H   0  0  0  0  0  0  0  0  0  0  0  0
    3.0969    2.7006    1.1941 H   0  0  0  0  0  0  0  0  0  0  0  0
    1.3254    4.7603    0.7438 H   0  0  0  0  0  0  0  0  0  0  0  0
   -1.5854    1.1982    0.7228 H   0  0  0  0  0  0  0  0  0  0  0  0
   -0.6350    4.7085   -0.9644 H   0  0  0  0  0  0  0  0  0  0  0  0
    3.0375    4.1466   -0.6190 H   0  0  0  0  0  0  0  0  0  0  0  0
    3.0393    1.3044   -1.1829 H   0  0  0  0  0  0  0  0  0  0  0  0
    1.7563   -1.0026    2.2342 H   0  0  0  0  0  0  0  0  0  0  0  0
    4.5912   -0.4894   -1.8070 H   0  0  0  0  0  0  0  0  0  0  0  0
    3.2739   -2.7672    1.6370 H   0  0  0  0  0  0  0  0  0  0  0  0
   -3.4364    0.8124   -0.0008 H   0  0  0  0  0  0  0  0  0  0  0  0
   -1.6093   -3.0011   -0.7231 H   0  0  0  0  0  0  0  0  0  0  0  0
   -3.7622   -4.1253   -0.3080 H   0  0  0  0  0  0  0  0  0  0  0  0
   -5.7688   -2.8031    0.2867 H   0  0  0  0  0  0  0  0  0  0  0  0
    5.6966   -4.5906   -0.0825 H   0  0  0  0  0  0  0  0  0  0  0  0
    3.9966   -4.4315    0.3454 H   0  0  0  0  0  0  0  0  0  0  0  0
    5.2964   -3.6566    1.3549 H   0  0  0  0  0  0  0  0  0  0  0  0
   -6.6549    1.6517    0.8966 H   0  0  0  0  0  0  0  0  0  0  0  0
   -5.4181    1.6697   -0.3541 H   0  0  0  0  0  0  0  0  0  0  0  0
   -4.9765    1.5161    1.4056 H   0  0  0  0  0  0  0  0  0  0  0  0
  1  9  1  0  0  0  0
  1 34  1  0  0  0  0
  2 11  1  0  0  0  0
  2 35  1  0  0  0  0
  3 15  2  0  0  0  0
  4 18  1  0  0  0  0
  4 25  1  0  0  0  0
  5 22  1  0  0  0  0
  5 26  1  0  0  0  0
  6  8  1  0  0  0  0
  6 15  1  0  0  0  0
  6 33  1  0  0  0  0
  7  8  1  0  0  0  0
  7 10  1  0  0  0  0
  7 12  1  0  0  0  0
  7 27  1  0  0  0  0
  8  9  1  0  0  0  0
  8 28  1  0  0  0  0
  9 11  1  0  0  0  0
  9 29  1  0  0  0  0
 10 11  1  0  0  0  0
 10 30  1  0  0  0  0
 10 31  1  0  0  0  0
 11 32  1  0  0  0  0
 12 13  2  0  0  0  0
 12 14  1  0  0  0  0
 13 16  1  0  0  0  0
 13 36  1  0  0  0  0
 14 17  2  0  0  0  0
 14 37  1  0  0  0  0
 15 19  1  0  0  0  0
 16 18  2  0  0  0  0
 16 38  1  0  0  0  0
 17 18  1  0  0  0  0
 17 39  1  0  0  0  0
 19 20  2  0  0  0  0
 19 21  1  0  0  0  0
 20 22  1  0  0  0  0
 20 40  1  0  0  0  0
 21 23  2  0  0  0  0
 21 41  1  0  0  0  0
 22 24  2  0  0  0  0
 23 24  1  0  0  0  0
 23 42  1  0  0  0  0
 24 43  1  0  0  0  0
 25 44  1  0  0  0  0
 25 45  1  0  0  0  0
 25 46  1  0  0  0  0
 26 47  1  0  0  0  0
 26 48  1  0  0  0  0
 26 49  1  0  0  0  0
M  END
> <PUBCHEM_COMPOUND_CID>
71693885

> <PUBCHEM_CONFORMER_RMSD>
0.8

> <PUBCHEM_CONFORMER_DIVERSEORDER>
3
44
16
32
49
40
48
17
19
36
43
55
8
54
18
2
46
51
27
52
9
26
30
42
37
22
56
50
39
45
1
14
34
41
35
38
21
6
33
29
25
47
28
13
20
15
53
31
12
5
11
7
24
23
4
10

> <PUBCHEM_MMFF94_PARTIAL_CHARGES>
36
1 -0.68
11 0.28
12 -0.14
13 -0.15
14 -0.15
15 0.54
16 -0.15
17 -0.15
18 0.08
19 0.09
2 -0.68
20 -0.15
21 -0.15
22 0.08
23 -0.15
24 -0.15
25 0.28
26 0.28
3 -0.57
33 0.37
34 0.4
35 0.4
36 0.15
37 0.15
38 0.15
39 0.15
4 -0.36
40 0.15
41 0.15
42 0.15
43 0.15
5 -0.36
6 -0.73
7 0.14
8 0.3
9 0.28

> <PUBCHEM_EFFECTIVE_ROTOR_COUNT>
7

> <PUBCHEM_PHARMACOPHORE_FEATURES>
11
1 1 acceptor
1 1 donor
1 2 acceptor
1 2 donor
1 3 acceptor
1 4 acceptor
1 5 acceptor
1 6 donor
5 7 8 9 10 11 rings
6 12 13 14 16 17 18 rings
6 19 20 21 22 23 24 rings

> <PUBCHEM_HEAVY_ATOM_COUNT>
26

> <PUBCHEM_ATOM_DEF_STEREO_COUNT>
4

> <PUBCHEM_ATOM_UDEF_STEREO_COUNT>
0

> <PUBCHEM_BOND_DEF_STEREO_COUNT>
0

> <PUBCHEM_BOND_UDEF_STEREO_COUNT>
0

> <PUBCHEM_ISOTOPIC_ATOM_COUNT>
0

> <PUBCHEM_COMPONENT_COUNT>
1

> <PUBCHEM_CACTVS_TAUTO_COUNT>
2

> <PUBCHEM_CONFORMER_ID>
0445F63D00000003

> <PUBCHEM_MMFF94_ENERGY>
94.719

> <PUBCHEM_FEATURE_SELFOVERLAP>
55.834

> <PUBCHEM_SHAPE_FINGERPRINT>
10759866 29 18125166176182851089
11135609 187 18050294958007985628
11186622 174 18412257359888664631
11405975 8 18341897450226632971
12107183 9 18342464699494896531
12553582 1 18337658737795350714
12633257 1 18343029882889444033
12788726 201 18044937870398868234
13533116 47 18124592235719413847
13692114 37 17188116333437602970
138480 1 18411133679904907378
13911852 28 18340200808747698031
14178342 30 17479717760299216752
14420673 8 18339084779002872483
14790565 3 17689717879867137772
14863182 85 18049716623238551760
14866123 147 18052821347500484923
15042514 8 18051975822979688016
15664445 248 18266470965393652876
16992752 21 18340216177121722318
17349148 13 17775570866605418199
17492 89 18267866280025161603
17818456 19 18060429023346443385
17868525 174 18413669119248219785
1813 80 18410569587342446970
19784866 135 18268706117544625538
20832881 197 18335423439404227107
21033648 29 16199874964332871451
21065198 57 18268993249299375731
21421861 104 18262226819997416456
22950370 63 18409452474712234743
23559900 14 18342169012207892811
3004659 81 18187649064147442862
3117164 225 18412267246776695195
314173 41 18410575089206407798
3421961 26 18341327889922741778
437815 12 17988082188440180366
4409770 3 17902505991728270109
44880168 125 17345749656300569598
463206 1 18334012778750048802
5104073 3 18200321056153743787
563151 74 16557028312797052576
7097593 13 18196363943495212143
9709674 26 18047750687710415475

> <PUBCHEM_SHAPE_MULTIPOLES>
500.74
11.23
5.13
1.06
9.74
2.47
-0.05
-10.35
-1.2
-4.17
0.3
-0.57
0.22
-0.38

> <PUBCHEM_SHAPE_SELFOVERLAP>
1072.028

> <PUBCHEM_SHAPE_VOLUME>
278

> <PUBCHEM_COORDINATE_TYPE>
2
5
10

$$$$
