56775233
  -OEChem-12032416293D

 38 41  0     1  0  0  0  0  0999 V2000
   -0.9802   -2.5848   -0.3934 O   0  0  0  0  0  0  0  0  0  0  0  0
   -3.5121   -0.7189   -2.0575 O   0  0  0  0  0  0  0  0  0  0  0  0
    3.4300   -1.6298    1.2485 O   0  0  0  0  0  0  0  0  0  0  0  0
    2.6966    0.8585   -1.0626 O   0  0  0  0  0  0  0  0  0  0  0  0
   -2.0943   -0.0381   -0.3429 N   0  0  0  0  0  0  0  0  0  0  0  0
    1.3050   -0.9301    0.6246 N   0  0  0  0  0  0  0  0  0  0  0  0
    3.4428    1.9323   -1.5329 N   0  0  0  0  0  0  0  0  0  0  0  0
   -3.6407    1.6700    0.4325 C   0  0  0  0  0  0  0  0  0  0  0  0
   -0.9909   -0.3709    0.5494 C   0  0  1  0  0  0  0  0  0  0  0  0
   -3.4115    2.0914    1.8544 C   0  0  0  0  0  0  0  0  0  0  0  0
   -3.9000    3.0891    0.8454 C   0  0  0  0  0  0  0  0  0  0  0  0
   -2.4669    1.3666   -0.4353 C   0  0  0  0  0  0  0  0  0  0  0  0
   -0.8517   -1.8651    0.8302 C   0  0  2  0  0  0  0  0  0  0  0  0
    0.3786   -0.0110   -0.0338 C   0  0  0  0  0  0  0  0  0  0  0  0
    0.5856   -1.9932    1.3180 C   0  0  0  0  0  0  0  0  0  0  0  0
   -2.6734   -0.9767   -1.1927 C   0  0  0  0  0  0  0  0  0  0  0  0
   -2.2700   -2.4185   -0.9374 C   0  0  0  0  0  0  0  0  0  0  0  0
    2.6867   -0.8314    0.6818 C   0  0  0  0  0  0  0  0  0  0  0  0
    3.3133    0.3257    0.0231 C   0  0  0  0  0  0  0  0  0  0  0  0
    4.4614    1.0235    0.2900 C   0  0  0  0  0  0  0  0  0  0  0  0
    4.4918    2.0114   -0.7094 C   0  0  0  0  0  0  0  0  0  0  0  0
   -4.5049    1.0548    0.2124 H   0  0  0  0  0  0  0  0  0  0  0  0
   -1.1355    0.1537    1.5024 H   0  0  0  0  0  0  0  0  0  0  0  0
   -2.3961    2.2020    2.2140 H   0  0  0  0  0  0  0  0  0  0  0  0
   -4.1143    1.7433    2.6014 H   0  0  0  0  0  0  0  0  0  0  0  0
   -4.9310    3.4135    0.9162 H   0  0  0  0  0  0  0  0  0  0  0  0
   -3.2099    3.8591    0.5232 H   0  0  0  0  0  0  0  0  0  0  0  0
   -1.5999    1.9925   -0.1945 H   0  0  0  0  0  0  0  0  0  0  0  0
   -2.7399    1.5891   -1.4734 H   0  0  0  0  0  0  0  0  0  0  0  0
   -1.5717   -2.2497    1.5609 H   0  0  0  0  0  0  0  0  0  0  0  0
    0.6353    1.0307    0.1803 H   0  0  0  0  0  0  0  0  0  0  0  0
    0.4238   -0.1897   -1.1141 H   0  0  0  0  0  0  0  0  0  0  0  0
    0.6664   -1.7923    2.3918 H   0  0  0  0  0  0  0  0  0  0  0  0
    1.0457   -2.9600    1.0914 H   0  0  0  0  0  0  0  0  0  0  0  0
   -3.0153   -2.8783   -0.2782 H   0  0  0  0  0  0  0  0  0  0  0  0
   -2.2933   -2.9508   -1.8938 H   0  0  0  0  0  0  0  0  0  0  0  0
    5.1705    0.8476    1.0852 H   0  0  0  0  0  0  0  0  0  0  0  0
    5.2291    2.7833   -0.8739 H   0  0  0  0  0  0  0  0  0  0  0  0
  1 13  1  0  0  0  0
  1 17  1  0  0  0  0
  2 16  2  0  0  0  0
  3 18  2  0  0  0  0
  4  7  1  0  0  0  0
  4 19  1  0  0  0  0
  5  9  1  0  0  0  0
  5 12  1  0  0  0  0
  5 16  1  0  0  0  0
  6 14  1  0  0  0  0
  6 15  1  0  0  0  0
  6 18  1  0  0  0  0
  7 21  2  0  0  0  0
  8 10  1  0  0  0  0
  8 11  1  0  0  0  0
  8 12  1  0  0  0  0
  8 22  1  0  0  0  0
  9 13  1  0  0  0  0
  9 14  1  0  0  0  0
  9 23  1  0  0  0  0
 10 11  1  0  0  0  0
 10 24  1  0  0  0  0
 10 25  1  0  0  0  0
 11 26  1  0  0  0  0
 11 27  1  0  0  0  0
 12 28  1  0  0  0  0
 12 29  1  0  0  0  0
 13 15  1  0  0  0  0
 13 30  1  0  0  0  0
 14 31  1  0  0  0  0
 14 32  1  0  0  0  0
 15 33  1  0  0  0  0
 15 34  1  0  0  0  0
 16 17  1  0  0  0  0
 17 35  1  0  0  0  0
 17 36  1  0  0  0  0
 18 19  1  0  0  0  0
 19 20  2  0  0  0  0
 20 21  1  0  0  0  0
 20 37  1  0  0  0  0
 21 38  1  0  0  0  0
M  END
> <PUBCHEM_COMPOUND_CID>
56775233

> <PUBCHEM_CONFORMER_RMSD>
0.8

> <PUBCHEM_CONFORMER_DIVERSEORDER>
1
42
33
13
25
15
50
23
10
38
43
47
5
41
22
24
12
52
29
34
36
35
8
46
20
44
39
32
45
9
16
51
27
40
30
31
21
6
17
37
28
11
7
26
49
14
19
18
4
48
3
2

> <PUBCHEM_MMFF94_PARTIAL_CHARGES>
28
1 -0.56
10 -0.2
11 -0.2
12 0.4
13 0.28
14 0.3
15 0.3
16 0.57
17 0.34
18 0.71
19 0.05
2 -0.57
20 -0.15
21 0.14
22 0.1
24 0.1
25 0.1
26 0.1
27 0.1
3 -0.57
37 0.15
38 0.15
4 -0.02
5 -0.66
6 -0.66
7 -0.41
8 -0.19
9 0.3

> <PUBCHEM_EFFECTIVE_ROTOR_COUNT>
5.8

> <PUBCHEM_PHARMACOPHORE_FEATURES>
7
1 1 acceptor
1 2 acceptor
1 3 acceptor
1 7 acceptor
5 4 7 19 20 21 rings
5 6 9 13 14 15 rings
6 1 5 9 13 16 17 rings

> <PUBCHEM_HEAVY_ATOM_COUNT>
21

> <PUBCHEM_ATOM_DEF_STEREO_COUNT>
2

> <PUBCHEM_ATOM_UDEF_STEREO_COUNT>
0

> <PUBCHEM_BOND_DEF_STEREO_COUNT>
0

> <PUBCHEM_BOND_UDEF_STEREO_COUNT>
0

> <PUBCHEM_ISOTOPIC_ATOM_COUNT>
0

> <PUBCHEM_COMPONENT_COUNT>
1

> <PUBCHEM_CACTVS_TAUTO_COUNT>
2

> <PUBCHEM_CONFORMER_ID>
0362524100000001

> <PUBCHEM_MMFF94_ENERGY>
50.1839

> <PUBCHEM_FEATURE_SELFOVERLAP>
35.724

> <PUBCHEM_SHAPE_FINGERPRINT>
11640471 11 18409730625436616193
12173636 292 18342735238931249591
12403259 118 18118398445869550857
12788726 201 18271800285284217303
13583140 156 15357687604798434640
13828863 39 16228903299651072028
14123250 116 18337676415859550953
14123260 362 18411141346099874905
14142880 1 18261395580922474141
14251757 17 13685717374172258837
14739800 52 18056173969303156712
14955137 171 17758406175303657810
15342168 16 18261682476010918029
15534591 1 18341618100931530155
15842332 3 18337657646773495826
1741750 31 18412268337017899744
17980427 23 18269531898533292194
18186145 218 18186518774540884990
18219364 16 17095518500239501141
18785283 64 17909280087415341563
20626108 58 13120014321303090817
21524375 3 18338796698296986067
21618674 53 18411705365695117641
21756936 100 18335718164492046232
21864079 5 18335424521530198560
22182937 141 18261122918807100952
22620623 9 16988831809608366925
22849341 161 17899973834093543314
235170 7 16845016835230423172
23557571 272 17632289116548340000
23558518 356 18407760347924072442
23559900 14 18263067947136138554
312425 83 17916885598402221260
38570 142 18117024155245568612
394222 165 18120660132507560683
474 4 18187644674078345656
49207404 50 17532678791604717121
5048184 11 18410578353160182161
5104073 3 18041275556744941008
53777708 50 18408035230384310034
6034566 193 17242471626832759788
633830 44 18336550417263367142
7615 1 18336813247855474890
9981440 41 17680415952024883706

> <PUBCHEM_SHAPE_MULTIPOLES>
393.75
8.72
3.19
1.51
5.08
0.35
-0.16
7
-0.68
-2.2
0.33
-0.63
-0.04
-2.96

> <PUBCHEM_SHAPE_SELFOVERLAP>
845.017

> <PUBCHEM_SHAPE_VOLUME>
217.1

> <PUBCHEM_COORDINATE_TYPE>
2
5
10

$$$$
