11885924
  -OEChem-12032416113D

 53 57  0     1  0  0  0  0  0999 V2000
    5.1998    1.3941    1.1850 S   0  0  0  0  0  0  0  0  0  0  0  0
    0.5385   -5.9431    0.2957 F   0  0  0  0  0  0  0  0  0  0  0  0
    0.7333    2.2576    1.8588 O   0  0  0  0  0  0  0  0  0  0  0  0
   -3.3472   -1.0051    1.8355 O   0  0  0  0  0  0  0  0  0  0  0  0
    3.0871   -0.1585   -1.6232 O   0  0  0  0  0  0  0  0  0  0  0  0
   -3.6571    0.5505    0.1509 N   0  0  0  0  0  0  0  0  0  0  0  0
   -1.0015    2.3132    0.2944 N   0  0  0  0  0  0  0  0  0  0  0  0
   -2.8572   -1.6128   -0.3476 N   0  0  0  0  0  0  0  0  0  0  0  0
    2.5815    1.4251    0.0039 N   0  0  0  0  0  0  0  0  0  0  0  0
   -3.4092    2.9171    0.9170 C   0  0  1  0  0  0  0  0  0  0  0  0
   -2.8627    2.3256   -1.4047 C   0  0  2  0  0  0  0  0  0  0  0  0
   -3.5191    3.3882   -0.5276 C   0  0  0  0  0  0  0  0  0  0  0  0
   -4.1262    1.5683    1.0958 C   0  0  0  0  0  0  0  0  0  0  0  0
   -1.9283    2.8395    1.3051 C   0  0  0  0  0  0  0  0  0  0  0  0
   -3.6155    0.9863   -1.2569 C   0  0  0  0  0  0  0  0  0  0  0  0
   -1.4035    2.1344   -1.0331 C   0  0  0  0  0  0  0  0  0  0  0  0
   -0.5100    1.7630   -1.9654 C   0  0  0  0  0  0  0  0  0  0  0  0
    0.3293    2.0979    0.7062 C   0  0  0  0  0  0  0  0  0  0  0  0
   -3.2814   -0.7214    0.6366 C   0  0  0  0  0  0  0  0  0  0  0  0
    1.2876    1.6596   -0.3575 C   0  0  0  0  0  0  0  0  0  0  0  0
    0.8615    1.5203   -1.6173 C   0  0  0  0  0  0  0  0  0  0  0  0
   -1.9893   -2.7203   -0.1830 C   0  0  0  0  0  0  0  0  0  0  0  0
    3.4086    0.5251   -0.6542 C   0  0  0  0  0  0  0  0  0  0  0  0
   -1.7417   -3.5714   -1.2565 C   0  0  0  0  0  0  0  0  0  0  0  0
   -1.3885   -2.9512    1.0514 C   0  0  0  0  0  0  0  0  0  0  0  0
    4.7952    0.4218   -0.1296 C   0  0  0  0  0  0  0  0  0  0  0  0
   -0.8869   -4.6617   -1.0944 C   0  0  0  0  0  0  0  0  0  0  0  0
   -0.5337   -4.0414    1.2136 C   0  0  0  0  0  0  0  0  0  0  0  0
   -0.2829   -4.8968    0.1407 C   0  0  0  0  0  0  0  0  0  0  0  0
    5.7741   -0.3702   -0.5919 C   0  0  0  0  0  0  0  0  0  0  0  0
    6.9592   -0.1829    0.1765 C   0  0  0  0  0  0  0  0  0  0  0  0
    6.7860    0.7492    1.1758 C   0  0  0  0  0  0  0  0  0  0  0  0
   -3.9000    3.6425    1.5777 H   0  0  0  0  0  0  0  0  0  0  0  0
   -2.9386    2.6511   -2.4504 H   0  0  0  0  0  0  0  0  0  0  0  0
   -3.0255    4.3597   -0.6563 H   0  0  0  0  0  0  0  0  0  0  0  0
   -4.5708    3.5220   -0.8087 H   0  0  0  0  0  0  0  0  0  0  0  0
   -4.0206    1.2231    2.1294 H   0  0  0  0  0  0  0  0  0  0  0  0
   -5.2004    1.6935    0.9109 H   0  0  0  0  0  0  0  0  0  0  0  0
   -1.8027    2.2621    2.2298 H   0  0  0  0  0  0  0  0  0  0  0  0
   -1.5717    3.8535    1.5323 H   0  0  0  0  0  0  0  0  0  0  0  0
   -3.1545    0.2463   -1.9127 H   0  0  0  0  0  0  0  0  0  0  0  0
   -4.6565    1.1013   -1.5827 H   0  0  0  0  0  0  0  0  0  0  0  0
   -0.7995    1.6096   -2.9999 H   0  0  0  0  0  0  0  0  0  0  0  0
    1.5024    1.2661   -2.4527 H   0  0  0  0  0  0  0  0  0  0  0  0
   -3.2236   -1.5022   -1.2866 H   0  0  0  0  0  0  0  0  0  0  0  0
    2.8836    1.7899    0.9037 H   0  0  0  0  0  0  0  0  0  0  0  0
   -2.2058   -3.3989   -2.2241 H   0  0  0  0  0  0  0  0  0  0  0  0
   -1.5137   -2.3046    1.9109 H   0  0  0  0  0  0  0  0  0  0  0  0
   -0.6911   -5.3276   -1.9297 H   0  0  0  0  0  0  0  0  0  0  0  0
   -0.0562   -4.2208    2.1725 H   0  0  0  0  0  0  0  0  0  0  0  0
    5.6896   -1.0556   -1.4252 H   0  0  0  0  0  0  0  0  0  0  0  0
    7.8915   -0.7053    0.0050 H   0  0  0  0  0  0  0  0  0  0  0  0
    7.5151    1.0823    1.9009 H   0  0  0  0  0  0  0  0  0  0  0  0
  1 26  1  0  0  0  0
  1 32  1  0  0  0  0
  2 29  1  0  0  0  0
  3 18  2  0  0  0  0
  4 19  2  0  0  0  0
  5 23  2  0  0  0  0
  6 13  1  0  0  0  0
  6 15  1  0  0  0  0
  6 19  1  0  0  0  0
  7 14  1  0  0  0  0
  7 16  1  0  0  0  0
  7 18  1  0  0  0  0
  8 19  1  0  0  0  0
  8 22  1  0  0  0  0
  8 45  1  0  0  0  0
  9 20  1  0  0  0  0
  9 23  1  0  0  0  0
  9 46  1  0  0  0  0
 10 12  1  0  0  0  0
 10 13  1  0  0  0  0
 10 14  1  0  0  0  0
 10 33  1  0  0  0  0
 11 12  1  0  0  0  0
 11 15  1  0  0  0  0
 11 16  1  0  0  0  0
 11 34  1  0  0  0  0
 12 35  1  0  0  0  0
 12 36  1  0  0  0  0
 13 37  1  0  0  0  0
 13 38  1  0  0  0  0
 14 39  1  0  0  0  0
 14 40  1  0  0  0  0
 15 41  1  0  0  0  0
 15 42  1  0  0  0  0
 16 17  2  0  0  0  0
 17 21  1  0  0  0  0
 17 43  1  0  0  0  0
 18 20  1  0  0  0  0
 20 21  2  0  0  0  0
 21 44  1  0  0  0  0
 22 24  2  0  0  0  0
 22 25  1  0  0  0  0
 23 26  1  0  0  0  0
 24 27  1  0  0  0  0
 24 47  1  0  0  0  0
 25 28  2  0  0  0  0
 25 48  1  0  0  0  0
 26 30  2  0  0  0  0
 27 29  2  0  0  0  0
 27 49  1  0  0  0  0
 28 29  1  0  0  0  0
 28 50  1  0  0  0  0
 30 31  1  0  0  0  0
 30 51  1  0  0  0  0
 31 32  2  0  0  0  0
 31 52  1  0  0  0  0
 32 53  1  0  0  0  0
M  END
> <PUBCHEM_COMPOUND_CID>
11885924

> <PUBCHEM_CONFORMER_RMSD>
1

> <PUBCHEM_CONFORMER_DIVERSEORDER>
1
14
19
16
8
5
20
10
17
12
13
4
11
15
18
9
6
3
21
2
7
22

> <PUBCHEM_MMFF94_PARTIAL_CHARGES>
41
1 -0.08
11 0.14
13 0.3
14 0.3
15 0.3
16 -0.03
17 -0.15
18 0.62
19 0.69
2 -0.19
20 0.12
21 -0.15
22 0.12
23 0.71
24 -0.15
25 -0.15
26 -0.05
27 -0.15
28 -0.15
29 0.19
3 -0.57
30 -0.15
31 -0.15
32 -0.11
4 -0.57
43 0.15
44 0.15
45 0.37
46 0.37
47 0.15
48 0.15
49 0.15
5 -0.57
50 0.15
51 0.15
52 0.15
53 0.15
6 -0.66
7 -0.47
8 -0.55
9 -0.54

> <PUBCHEM_EFFECTIVE_ROTOR_COUNT>
7

> <PUBCHEM_PHARMACOPHORE_FEATURES>
10
1 3 acceptor
1 4 acceptor
1 5 acceptor
1 8 donor
1 9 donor
5 1 26 30 31 32 rings
6 22 24 25 27 28 29 rings
6 6 10 11 12 13 15 rings
6 7 10 11 12 14 16 rings
6 7 16 17 18 20 21 rings

> <PUBCHEM_HEAVY_ATOM_COUNT>
32

> <PUBCHEM_ATOM_DEF_STEREO_COUNT>
2

> <PUBCHEM_ATOM_UDEF_STEREO_COUNT>
0

> <PUBCHEM_BOND_DEF_STEREO_COUNT>
0

> <PUBCHEM_BOND_UDEF_STEREO_COUNT>
0

> <PUBCHEM_ISOTOPIC_ATOM_COUNT>
0

> <PUBCHEM_COMPONENT_COUNT>
1

> <PUBCHEM_CACTVS_TAUTO_COUNT>
4

> <PUBCHEM_CONFORMER_ID>
00B55D6400000001

> <PUBCHEM_MMFF94_ENERGY>
89.0629

> <PUBCHEM_FEATURE_SELFOVERLAP>
52.316

> <PUBCHEM_SHAPE_FINGERPRINT>
10483366 6 18267000926078047735
11014199 57 17760368086516016018
11513181 2 18271523087768334574
11524674 6 18339637854350999148
12712778 12 18338231678322341218
12717326 68 17190074542430123354
14020679 6 17846226526835134929
14028597 1 17702115673145983449
14114207 22 17823961360727915191
14251757 5 18336826502372652226
14659021 117 18195794392013676250
14725015 67 18340766065493858123
14844126 61 18337670939739163418
14856354 85 16950291706345729424
15320294 125 17967809453635997378
15927050 60 18268988679664767021
15961568 22 17042597614005185046
16120349 306 18336263427458789634
16719943 64 18410013225911412986
16993438 75 18129651015498405694
17627616 140 18265327309443460323
19611394 137 18129373960634061920
19958102 18 18336261254838359966
20578428 11 16161263269204676365
20609170 109 16464384717698742010
20764821 26 18194954154787992614
20771845 165 17391910358316613597
20775530 9 17546742898222936655
21133410 52 15894179267598170828
229767 44 18335988631362270594
23516275 137 17902253130308950562
238918 7 18341626896903902566
3383291 50 18339360872385398939
3882209 13 17478588562100922174
4073 2 18342733028046393864
445580 42 18262240048359258466
5080951 261 17896856881895512208
5085150 59 18336253579235962043
5265222 85 18335999604792969076

> <PUBCHEM_SHAPE_MULTIPOLES>
617.59
11.38
6.72
1.68
25.78
12.65
0.08
-5.56
-2.27
-6.24
-0.29
-0.46
-0.47
0.42

> <PUBCHEM_SHAPE_SELFOVERLAP>
1348.524

> <PUBCHEM_SHAPE_VOLUME>
336.7

> <PUBCHEM_COORDINATE_TYPE>
2
5
10

$$$$
