75367037
  -OEChem-12032416413D

 60 63  0     1  0  0  0  0  0999 V2000
    1.3917   -2.3301   -1.7172 F   0  0  0  0  0  0  0  0  0  0  0  0
    3.1075    0.9623   -0.7809 O   0  0  0  0  0  0  0  0  0  0  0  0
    5.9350    1.7309   -1.1019 O   0  0  0  0  0  0  0  0  0  0  0  0
   -1.2830    0.3287   -1.0424 O   0  0  0  0  0  0  0  0  0  0  0  0
    1.2512   -0.9611    2.0099 O   0  0  0  0  0  0  0  0  0  0  0  0
   -4.1290    0.8407    0.0401 N   0  0  0  0  0  0  0  0  0  0  0  0
    2.7490   -1.6024    0.3577 N   0  0  0  0  0  0  0  0  0  0  0  0
   -6.8283    1.8963    0.0349 N   0  0  0  0  0  0  0  0  0  0  0  0
   -0.0900    0.9321   -1.4212 N   0  0  0  0  0  0  0  0  0  0  0  0
    2.6241    1.9435    0.1397 C   0  0  1  0  0  0  0  0  0  0  0  0
    4.2369    0.2047   -0.3276 C   0  0  1  0  0  0  0  0  0  0  0  0
    5.3989    1.1216    0.0757 C   0  0  2  0  0  0  0  0  0  0  0  0
    3.7213    2.9512    0.4790 C   0  0  0  0  0  0  0  0  0  0  0  0
    4.9582    2.2384    1.0181 C   0  0  0  0  0  0  0  0  0  0  0  0
    1.4336    2.6364   -0.5120 C   0  0  0  0  0  0  0  0  0  0  0  0
    3.8370   -0.7719    0.7764 C   0  0  0  0  0  0  0  0  0  0  0  0
    0.1889    1.7933   -0.4387 C   0  0  0  0  0  0  0  0  0  0  0  0
   -2.9381    0.3098    0.7003 C   0  0  0  0  0  0  0  0  0  0  0  0
   -4.4121    2.2082    0.4947 C   0  0  0  0  0  0  0  0  0  0  0  0
   -5.2875   -0.0313    0.2727 C   0  0  0  0  0  0  0  0  0  0  0  0
   -1.6855    0.8402    0.1489 C   0  0  0  0  0  0  0  0  0  0  0  0
   -0.7828    1.7773    0.5768 C   0  0  0  0  0  0  0  0  0  0  0  0
   -5.6657    2.7583   -0.1899 C   0  0  0  0  0  0  0  0  0  0  0  0
   -6.5358    0.5322   -0.4109 C   0  0  0  0  0  0  0  0  0  0  0  0
    1.5224   -1.6322    1.0177 C   0  0  0  0  0  0  0  0  0  0  0  0
    0.5043   -2.5675    0.4737 C   0  0  0  0  0  0  0  0  0  0  0  0
    0.4900   -2.8738   -0.8869 C   0  0  0  0  0  0  0  0  0  0  0  0
   -0.4387   -3.1398    1.3274 C   0  0  0  0  0  0  0  0  0  0  0  0
   -0.4672   -3.7525   -1.3940 C   0  0  0  0  0  0  0  0  0  0  0  0
   -1.3962   -4.0185    0.8204 C   0  0  0  0  0  0  0  0  0  0  0  0
   -1.4104   -4.3248   -0.5404 C   0  0  0  0  0  0  0  0  0  0  0  0
    2.2959    1.4501    1.0617 H   0  0  0  0  0  0  0  0  0  0  0  0
    4.5497   -0.3809   -1.2018 H   0  0  0  0  0  0  0  0  0  0  0  0
    6.2067    0.5358    0.5282 H   0  0  0  0  0  0  0  0  0  0  0  0
    3.3625    3.6791    1.2155 H   0  0  0  0  0  0  0  0  0  0  0  0
    4.0017    3.5106   -0.4226 H   0  0  0  0  0  0  0  0  0  0  0  0
    5.7624    2.9718    1.1489 H   0  0  0  0  0  0  0  0  0  0  0  0
    4.7339    1.8225    2.0073 H   0  0  0  0  0  0  0  0  0  0  0  0
    1.6492    2.8729   -1.5619 H   0  0  0  0  0  0  0  0  0  0  0  0
    1.2223    3.5859   -0.0037 H   0  0  0  0  0  0  0  0  0  0  0  0
    3.5724   -0.2536    1.7024 H   0  0  0  0  0  0  0  0  0  0  0  0
    4.6773   -1.4361    1.0073 H   0  0  0  0  0  0  0  0  0  0  0  0
    6.6985    2.2694   -0.8326 H   0  0  0  0  0  0  0  0  0  0  0  0
   -2.9005   -0.7805    0.5666 H   0  0  0  0  0  0  0  0  0  0  0  0
   -2.9793    0.4696    1.7859 H   0  0  0  0  0  0  0  0  0  0  0  0
   -4.5478    2.2396    1.5844 H   0  0  0  0  0  0  0  0  0  0  0  0
   -3.5787    2.8765    0.2499 H   0  0  0  0  0  0  0  0  0  0  0  0
   -5.0931   -1.0291   -0.1392 H   0  0  0  0  0  0  0  0  0  0  0  0
   -5.4761   -0.1506    1.3482 H   0  0  0  0  0  0  0  0  0  0  0  0
    2.9155   -2.2294   -0.4235 H   0  0  0  0  0  0  0  0  0  0  0  0
   -0.8221    2.3590    1.4859 H   0  0  0  0  0  0  0  0  0  0  0  0
   -5.8847    3.7552    0.2082 H   0  0  0  0  0  0  0  0  0  0  0  0
   -5.4897    2.8755   -1.2669 H   0  0  0  0  0  0  0  0  0  0  0  0
   -6.4126    0.5135   -1.5013 H   0  0  0  0  0  0  0  0  0  0  0  0
   -7.3939   -0.1069   -0.1754 H   0  0  0  0  0  0  0  0  0  0  0  0
   -7.6275    2.2601   -0.4828 H   0  0  0  0  0  0  0  0  0  0  0  0
   -0.4414   -2.9159    2.3909 H   0  0  0  0  0  0  0  0  0  0  0  0
   -0.4782   -3.9906   -2.4535 H   0  0  0  0  0  0  0  0  0  0  0  0
   -2.1304   -4.4642    1.4850 H   0  0  0  0  0  0  0  0  0  0  0  0
   -2.1560   -5.0087   -0.9352 H   0  0  0  0  0  0  0  0  0  0  0  0
  1 27  1  0  0  0  0
  2 10  1  0  0  0  0
  2 11  1  0  0  0  0
  3 12  1  0  0  0  0
  3 43  1  0  0  0  0
  4  9  1  0  0  0  0
  4 21  1  0  0  0  0
  5 25  2  0  0  0  0
  6 18  1  0  0  0  0
  6 19  1  0  0  0  0
  6 20  1  0  0  0  0
  7 16  1  0  0  0  0
  7 25  1  0  0  0  0
  7 50  1  0  0  0  0
  8 23  1  0  0  0  0
  8 24  1  0  0  0  0
  8 56  1  0  0  0  0
  9 17  2  0  0  0  0
 10 13  1  0  0  0  0
 10 15  1  0  0  0  0
 10 32  1  0  0  0  0
 11 12  1  0  0  0  0
 11 16  1  0  0  0  0
 11 33  1  0  0  0  0
 12 14  1  0  0  0  0
 12 34  1  0  0  0  0
 13 14  1  0  0  0  0
 13 35  1  0  0  0  0
 13 36  1  0  0  0  0
 14 37  1  0  0  0  0
 14 38  1  0  0  0  0
 15 17  1  0  0  0  0
 15 39  1  0  0  0  0
 15 40  1  0  0  0  0
 16 41  1  0  0  0  0
 16 42  1  0  0  0  0
 17 22  1  0  0  0  0
 18 21  1  0  0  0  0
 18 44  1  0  0  0  0
 18 45  1  0  0  0  0
 19 23  1  0  0  0  0
 19 46  1  0  0  0  0
 19 47  1  0  0  0  0
 20 24  1  0  0  0  0
 20 48  1  0  0  0  0
 20 49  1  0  0  0  0
 21 22  2  0  0  0  0
 22 51  1  0  0  0  0
 23 52  1  0  0  0  0
 23 53  1  0  0  0  0
 24 54  1  0  0  0  0
 24 55  1  0  0  0  0
 25 26  1  0  0  0  0
 26 27  1  0  0  0  0
 26 28  2  0  0  0  0
 27 29  2  0  0  0  0
 28 30  1  0  0  0  0
 28 57  1  0  0  0  0
 29 31  1  0  0  0  0
 29 58  1  0  0  0  0
 30 31  2  0  0  0  0
 30 59  1  0  0  0  0
 31 60  1  0  0  0  0
M  END
> <PUBCHEM_COMPOUND_CID>
75367037

> <PUBCHEM_CONFORMER_RMSD>
1.2

> <PUBCHEM_CONFORMER_DIVERSEORDER>
1
110
105
206
171
49
93
66
42
40
53
201
180
188
159
164
11
137
178
138
127
136
162
112
41
197
27
150
142
72
160
21
187
121
84
208
134
139
80
193
120
131
33
122
108
115
52
202
68
75
141
133
123
114
61
90
103
116
168
78
152
76
144
135
107
210
9
85
23
102
54
31
158
163
189
173
204
10
73
77
186
89
20
165
79
81
198
119
154
125
12
65
62
129
194
63
169
47
16
8
182
209
176
153
172
45
207
2
32
71
50
98
100
149
82
192
24
170
199
179
148
130
166
132
25
195
161
184
58
43
5
94
95
55
118
190
92
97
59
126
36
17
196
146
183
91
29
83
34
140
147
70
104
3
86
67
74
155
69
181
57
14
39
191
30
96
113
145
174
175
101
87
143
157
111
167
128
88
151
64
7
44
48
109
19
156
106
38
205
15
26
117
124
185
56
200
99
6
203
28
37
177
18
22
46
60
35
4
13
51

> <PUBCHEM_MMFF94_PARTIAL_CHARGES>
37
1 -0.19
10 0.28
11 0.28
12 0.28
15 0.18
16 0.3
17 0.11
18 0.45
19 0.27
2 -0.56
20 0.27
21 -0.04
22 -0.15
23 0.27
24 0.27
25 0.54
26 0.09
27 0.19
28 -0.15
29 -0.15
3 -0.68
30 -0.15
31 -0.15
4 -0.02
43 0.4
5 -0.57
50 0.37
51 0.15
56 0.36
57 0.15
58 0.15
59 0.15
6 -0.81
60 0.15
7 -0.73
8 -0.9
9 -0.41

> <PUBCHEM_EFFECTIVE_ROTOR_COUNT>
10.4

> <PUBCHEM_PHARMACOPHORE_FEATURES>
13
1 2 acceptor
1 3 acceptor
1 3 donor
1 5 acceptor
1 6 cation
1 7 donor
1 8 cation
1 8 donor
1 9 acceptor
5 4 9 17 21 22 rings
6 2 10 11 12 13 14 rings
6 26 27 28 29 30 31 rings
6 6 8 19 20 23 24 rings

> <PUBCHEM_HEAVY_ATOM_COUNT>
31

> <PUBCHEM_ATOM_DEF_STEREO_COUNT>
3

> <PUBCHEM_ATOM_UDEF_STEREO_COUNT>
0

> <PUBCHEM_BOND_DEF_STEREO_COUNT>
0

> <PUBCHEM_BOND_UDEF_STEREO_COUNT>
0

> <PUBCHEM_ISOTOPIC_ATOM_COUNT>
0

> <PUBCHEM_COMPONENT_COUNT>
1

> <PUBCHEM_CACTVS_TAUTO_COUNT>
2

> <PUBCHEM_CONFORMER_ID>
047E027D00000001

> <PUBCHEM_MMFF94_ENERGY>
51.3231

> <PUBCHEM_FEATURE_SELFOVERLAP>
65.976

> <PUBCHEM_SHAPE_FINGERPRINT>
1100329 8 18409441497208167722
11112662 9 18341891870389200687
11421498 54 17773879705662665001
11513181 2 18201439202959458207
11578080 2 17558254682645750586
12156800 1 17975446751111533958
12422481 6 17833586691602174011
12788726 201 17326342519633163260
1361 2 18409448055506930801
13692114 37 18199454614588326967
14117953 113 18194958543837880758
14725015 67 18192426360607507474
14790565 3 18410854343811523145
14840074 17 18186236234227675493
15664445 248 17981049604932113079
15927050 60 18339922713904688670
15968369 153 17838051872920900719
16728300 4 17028506385390853714
17138139 8 17843657071904466223
18365409 1 18267301109715833279
20028762 73 18200028413681866150
20197701 30 18411699906918401617
21197605 99 18337958999571132267
23558518 356 17830172768032141964
23559900 14 17908983206501040783
338550 245 18044098083827368789
3411729 13 18334296422879662209
38695281 34 18410573977041655601
394071 54 18195535784007482049
4340502 62 18410576197276269693
469060 322 16372115806002921030
653340 110 17908415102238873896

> <PUBCHEM_SHAPE_MULTIPOLES>
587.29
12.52
5.34
1.25
10.37
5.74
-0.02
-13.96
0.01
1.25
-0.3
-0.55
0.7
-0.08

> <PUBCHEM_SHAPE_SELFOVERLAP>
1241.181

> <PUBCHEM_SHAPE_VOLUME>
327.8

> <PUBCHEM_COORDINATE_TYPE>
2
5
10

$$$$
