51137914
  -OEChem-12032416223D

 46 49  0     1  0  0  0  0  0999 V2000
   -2.4248    1.6979   -0.0034 S   0  0  0  0  0  0  0  0  0  0  0  0
   -3.3329    2.2128   -1.0112 O   0  0  0  0  0  0  0  0  0  0  0  0
   -2.8551    1.5152    1.3701 O   0  0  0  0  0  0  0  0  0  0  0  0
   -0.9933    2.6039   -0.0253 N   0  0  1  0  0  0  0  0  0  0  0  0
    2.9222    0.5142    0.9552 N   0  0  0  0  0  0  0  0  0  0  0  0
    1.8510    0.3654   -0.9866 N   0  0  0  0  0  0  0  0  0  0  0  0
    1.3849    2.4360    0.3804 C   0  0  2  0  0  0  0  0  0  0  0  0
    0.0073    2.4008    1.0631 C   0  0  0  0  0  0  0  0  0  0  0  0
    1.1119    3.2253   -0.9018 C   0  0  0  0  0  0  0  0  0  0  0  0
   -0.2817    2.7745   -1.3150 C   0  0  0  0  0  0  0  0  0  0  0  0
    2.0406    1.0975    0.0882 C   0  0  0  0  0  0  0  0  0  0  0  0
   -1.7999    0.1401   -0.5853 C   0  0  0  0  0  0  0  0  0  0  0  0
    3.3285   -0.6735    0.4031 C   0  0  0  0  0  0  0  0  0  0  0  0
    2.6460   -0.7434   -0.8083 C   0  0  0  0  0  0  0  0  0  0  0  0
    3.3521    1.0499    2.2272 C   0  0  0  0  0  0  0  0  0  0  0  0
   -2.7761   -0.9218   -0.1827 C   0  0  0  0  0  0  0  0  0  0  0  0
    4.2077   -1.6624    0.8458 C   0  0  0  0  0  0  0  0  0  0  0  0
    2.8402   -1.8590   -1.6403 C   0  0  0  0  0  0  0  0  0  0  0  0
   -3.9951   -1.0382   -0.8506 C   0  0  0  0  0  0  0  0  0  0  0  0
   -2.4663   -1.7945    0.8604 C   0  0  0  0  0  0  0  0  0  0  0  0
    4.3888   -2.7657    0.0053 C   0  0  0  0  0  0  0  0  0  0  0  0
    3.7182   -2.8643   -1.2160 C   0  0  0  0  0  0  0  0  0  0  0  0
   -4.9044   -2.0274   -0.4754 C   0  0  0  0  0  0  0  0  0  0  0  0
   -3.3754   -2.7835    1.2356 C   0  0  0  0  0  0  0  0  0  0  0  0
   -4.5945   -2.8999    0.5676 C   0  0  0  0  0  0  0  0  0  0  0  0
    2.0781    3.0214    0.9970 H   0  0  0  0  0  0  0  0  0  0  0  0
   -0.0945    3.2365    1.7644 H   0  0  0  0  0  0  0  0  0  0  0  0
   -0.1504    1.4663    1.6092 H   0  0  0  0  0  0  0  0  0  0  0  0
    1.0907    4.2984   -0.6712 H   0  0  0  0  0  0  0  0  0  0  0  0
    1.8511    3.0696   -1.6939 H   0  0  0  0  0  0  0  0  0  0  0  0
   -0.7753    3.5341   -1.9275 H   0  0  0  0  0  0  0  0  0  0  0  0
   -0.2256    1.8424   -1.8805 H   0  0  0  0  0  0  0  0  0  0  0  0
   -0.8275   -0.0517   -0.1264 H   0  0  0  0  0  0  0  0  0  0  0  0
   -1.6838    0.1706   -1.6720 H   0  0  0  0  0  0  0  0  0  0  0  0
    3.8504    0.2767    2.8149 H   0  0  0  0  0  0  0  0  0  0  0  0
    2.4754    1.3989    2.7788 H   0  0  0  0  0  0  0  0  0  0  0  0
    4.0427    1.8746    2.0343 H   0  0  0  0  0  0  0  0  0  0  0  0
    4.7337   -1.5925    1.7908 H   0  0  0  0  0  0  0  0  0  0  0  0
    2.3236   -1.9449   -2.5909 H   0  0  0  0  0  0  0  0  0  0  0  0
   -4.2475   -0.3715   -1.6706 H   0  0  0  0  0  0  0  0  0  0  0  0
   -1.5213   -1.7144    1.3911 H   0  0  0  0  0  0  0  0  0  0  0  0
    5.0651   -3.5610    0.3089 H   0  0  0  0  0  0  0  0  0  0  0  0
    3.8797   -3.7341   -1.8477 H   0  0  0  0  0  0  0  0  0  0  0  0
   -5.8528   -2.1193   -0.9966 H   0  0  0  0  0  0  0  0  0  0  0  0
   -3.1345   -3.4628    2.0480 H   0  0  0  0  0  0  0  0  0  0  0  0
   -5.3022   -3.6703    0.8597 H   0  0  0  0  0  0  0  0  0  0  0  0
  1  2  2  0  0  0  0
  1  3  2  0  0  0  0
  1  4  1  0  0  0  0
  1 12  1  0  0  0  0
  4  8  1  0  0  0  0
  4 10  1  0  0  0  0
  5 11  1  0  0  0  0
  5 13  1  0  0  0  0
  5 15  1  0  0  0  0
  6 11  2  0  0  0  0
  6 14  1  0  0  0  0
  7  8  1  0  0  0  0
  7  9  1  0  0  0  0
  7 11  1  0  0  0  0
  7 26  1  0  0  0  0
  8 27  1  0  0  0  0
  8 28  1  0  0  0  0
  9 10  1  0  0  0  0
  9 29  1  0  0  0  0
  9 30  1  0  0  0  0
 10 31  1  0  0  0  0
 10 32  1  0  0  0  0
 12 16  1  0  0  0  0
 12 33  1  0  0  0  0
 12 34  1  0  0  0  0
 13 14  1  0  0  0  0
 13 17  2  0  0  0  0
 14 18  2  0  0  0  0
 15 35  1  0  0  0  0
 15 36  1  0  0  0  0
 15 37  1  0  0  0  0
 16 19  2  0  0  0  0
 16 20  1  0  0  0  0
 17 21  1  0  0  0  0
 17 38  1  0  0  0  0
 18 22  1  0  0  0  0
 18 39  1  0  0  0  0
 19 23  1  0  0  0  0
 19 40  1  0  0  0  0
 20 24  2  0  0  0  0
 20 41  1  0  0  0  0
 21 22  2  0  0  0  0
 21 42  1  0  0  0  0
 22 43  1  0  0  0  0
 23 25  2  0  0  0  0
 23 44  1  0  0  0  0
 24 25  1  0  0  0  0
 24 45  1  0  0  0  0
 25 46  1  0  0  0  0
M  END
> <PUBCHEM_COMPOUND_CID>
51137914

> <PUBCHEM_CONFORMER_RMSD>
0.8

> <PUBCHEM_CONFORMER_DIVERSEORDER>
1
30
64
43
67
63
80
14
83
45
15
86
65
52
59
70
31
18
22
56
81
61
68
50
69
19
29
55
13
36
11
60
57
38
24
72
20
66
17
47
82
40
34
42
73
78
33
28
41
48
16
23
84
32
51
74
26
49
21
8
75
6
25
53
39
7
4
46
85
77
3
35
62
54
9
37
5
27
44
2
79
58
10
12
76
71

> <PUBCHEM_MMFF94_PARTIAL_CHARGES>
33
1 1.33
10 0.36
11 0.01
12 0.25
13 -0.15
14 0.23
15 0.26
16 -0.14
17 -0.15
18 -0.15
19 -0.15
2 -0.65
20 -0.15
21 -0.15
22 -0.15
23 -0.15
24 -0.15
25 -0.15
3 -0.65
38 0.15
39 0.15
4 -0.85
40 0.15
41 0.15
42 0.15
43 0.15
44 0.15
45 0.15
46 0.15
5 0.05
6 -0.57
7 0.18
8 0.36

> <PUBCHEM_EFFECTIVE_ROTOR_COUNT>
5

> <PUBCHEM_PHARMACOPHORE_FEATURES>
7
1 2 acceptor
1 3 acceptor
3 5 6 11 cation
5 4 7 8 9 10 rings
5 5 6 11 13 14 rings
6 13 14 17 18 21 22 rings
6 16 19 20 23 24 25 rings

> <PUBCHEM_HEAVY_ATOM_COUNT>
25

> <PUBCHEM_ATOM_DEF_STEREO_COUNT>
1

> <PUBCHEM_ATOM_UDEF_STEREO_COUNT>
0

> <PUBCHEM_BOND_DEF_STEREO_COUNT>
0

> <PUBCHEM_BOND_UDEF_STEREO_COUNT>
0

> <PUBCHEM_ISOTOPIC_ATOM_COUNT>
0

> <PUBCHEM_COMPONENT_COUNT>
1

> <PUBCHEM_CACTVS_TAUTO_COUNT>
1

> <PUBCHEM_CONFORMER_ID>
030C4D7A00000001

> <PUBCHEM_MMFF94_ENERGY>
52.2141

> <PUBCHEM_FEATURE_SELFOVERLAP>
35.646

> <PUBCHEM_SHAPE_FINGERPRINT>
10615611 76 13325697792373412282
11135609 12 18335707147552759664
12363563 72 18408610270280155863
12422481 6 18199211567511799635
12633257 1 17915745262735431600
12990986 174 18336828581026235206
13140716 1 18270684168821842248
13533116 47 18125448755361834699
13631057 29 18338522937562080558
14114206 34 17168433657549501160
14251757 5 18119546340166818062
14848160 33 18265613363166168223
14863182 85 17977107091095080196
14866123 147 18266460902458877171
15352361 1 18410291415000674319
15422964 175 18411412951236406180
15664445 248 17462577426769835805
19315092 285 16771525534096552095
19611394 137 17840008656581203234
1979834 28 18053945335930817523
20775530 9 18411705395601957671
21279426 13 18335409168039837647
21285901 2 17753592840431259167
21315759 227 18115859866588951899
21421861 104 18194981848736623673
21781051 124 17823995450595506225
23466295 7 18124048840092513354
23559900 14 18262796397306304127
23572383 38 18339905078842512391
345986 75 17702401717846239683
392239 28 17057498595564624480
4280585 95 18188484675851630084
463206 1 18117558431427538307
5309563 4 18051139382473283343
563151 74 17059471024450127984
56633871 153 18197510532307414883
9709674 26 18409725196946035711

> <PUBCHEM_SHAPE_MULTIPOLES>
491.66
9.63
4.56
1.52
3.53
0.63
-0.26
-10.09
-0.75
0.27
0.45
-0.81
0.08
1.63

> <PUBCHEM_SHAPE_SELFOVERLAP>
1056.988

> <PUBCHEM_SHAPE_VOLUME>
273.6

> <PUBCHEM_COORDINATE_TYPE>
2
5
10

$$$$
