40780407
  -OEChem-12032416353D

 55 58  0     1  0  0  0  0  0999 V2000
   -8.3995   -1.9720   -0.9087 Cl  0  0  0  0  0  0  0  0  0  0  0  0
    8.3594    1.0665   -0.2535 O   0  0  0  0  0  0  0  0  0  0  0  0
   -3.4511    0.6196    0.1854 N   0  0  0  0  0  0  0  0  0  0  0  0
    3.1679   -0.8314    0.1998 N   0  0  0  0  0  0  0  0  0  0  0  0
    2.9464   -2.0493    0.7231 N   0  0  0  0  0  0  0  0  0  0  0  0
   -0.4836   -0.7914   -0.0911 C   0  0  2  0  0  0  0  0  0  0  0  0
   -1.0189    0.4411    0.6628 C   0  0  0  0  0  0  0  0  0  0  0  0
   -2.1186    1.0440   -0.2275 C   0  0  1  0  0  0  0  0  0  0  0  0
    0.9937   -1.0272    0.1231 C   0  0  0  0  0  0  0  0  0  0  0  0
   -0.8715   -0.4892   -1.5090 C   0  0  0  0  0  0  0  0  0  0  0  0
   -1.7656    0.5028   -1.5777 C   0  0  0  0  0  0  0  0  0  0  0  0
    2.0310   -0.1777   -0.1753 C   0  0  0  0  0  0  0  0  0  0  0  0
    1.6165   -2.1632    0.6738 C   0  0  0  0  0  0  0  0  0  0  0  0
   -4.4797    1.4319   -0.4518 C   0  0  0  0  0  0  0  0  0  0  0  0
    2.0320    1.1733   -0.7724 C   0  0  0  0  0  0  0  0  0  0  0  0
    0.9759   -3.3932    1.1721 C   0  0  0  0  0  0  0  0  0  0  0  0
    4.4741   -0.3542    0.0859 C   0  0  0  0  0  0  0  0  0  0  0  0
   -5.8647    1.0004   -0.0486 C   0  0  0  0  0  0  0  0  0  0  0  0
    4.8471    0.8199    0.7404 C   0  0  0  0  0  0  0  0  0  0  0  0
    5.4066   -1.0505   -0.6831 C   0  0  0  0  0  0  0  0  0  0  0  0
   -6.4248   -0.1517   -0.6003 C   0  0  0  0  0  0  0  0  0  0  0  0
   -6.5874    1.7526    0.8777 C   0  0  0  0  0  0  0  0  0  0  0  0
    6.1527    1.2975    0.6263 C   0  0  0  0  0  0  0  0  0  0  0  0
    6.7122   -0.5728   -0.7974 C   0  0  0  0  0  0  0  0  0  0  0  0
    7.0852    0.6011   -0.1427 C   0  0  0  0  0  0  0  0  0  0  0  0
   -7.7077   -0.5518   -0.2260 C   0  0  0  0  0  0  0  0  0  0  0  0
   -7.8703    1.3527    1.2519 C   0  0  0  0  0  0  0  0  0  0  0  0
   -8.4303    0.2004    0.7002 C   0  0  0  0  0  0  0  0  0  0  0  0
    8.6731    2.2718    0.4428 C   0  0  0  0  0  0  0  0  0  0  0  0
   -1.0423   -1.6819    0.2251 H   0  0  0  0  0  0  0  0  0  0  0  0
   -1.3791    0.1648    1.6618 H   0  0  0  0  0  0  0  0  0  0  0  0
   -0.2413    1.1965    0.8325 H   0  0  0  0  0  0  0  0  0  0  0  0
   -2.0244    2.1364   -0.2011 H   0  0  0  0  0  0  0  0  0  0  0  0
   -0.5058   -1.0335   -2.3685 H   0  0  0  0  0  0  0  0  0  0  0  0
   -2.1952    0.8587   -2.5038 H   0  0  0  0  0  0  0  0  0  0  0  0
   -3.5359    0.7130    1.1978 H   0  0  0  0  0  0  0  0  0  0  0  0
   -4.4161    1.3683   -1.5454 H   0  0  0  0  0  0  0  0  0  0  0  0
   -4.3411    2.4909   -0.1975 H   0  0  0  0  0  0  0  0  0  0  0  0
    2.1185    1.9387    0.0054 H   0  0  0  0  0  0  0  0  0  0  0  0
    2.8571    1.3030   -1.4805 H   0  0  0  0  0  0  0  0  0  0  0  0
    1.1174    1.3805   -1.3320 H   0  0  0  0  0  0  0  0  0  0  0  0
    0.4199   -3.8887    0.3696 H   0  0  0  0  0  0  0  0  0  0  0  0
    1.7098   -4.1077    1.5598 H   0  0  0  0  0  0  0  0  0  0  0  0
    0.2768   -3.1613    1.9822 H   0  0  0  0  0  0  0  0  0  0  0  0
    4.1397    1.3692    1.3569 H   0  0  0  0  0  0  0  0  0  0  0  0
    5.1320   -1.9648   -1.2038 H   0  0  0  0  0  0  0  0  0  0  0  0
   -5.8596   -0.7363   -1.3228 H   0  0  0  0  0  0  0  0  0  0  0  0
   -6.1628    2.6512    1.3174 H   0  0  0  0  0  0  0  0  0  0  0  0
    6.3759    2.2130    1.1634 H   0  0  0  0  0  0  0  0  0  0  0  0
    7.4341   -1.1189   -1.3986 H   0  0  0  0  0  0  0  0  0  0  0  0
   -8.4328    1.9381    1.9733 H   0  0  0  0  0  0  0  0  0  0  0  0
   -9.4310   -0.0991    1.0011 H   0  0  0  0  0  0  0  0  0  0  0  0
    9.7263    2.4954    0.2436 H   0  0  0  0  0  0  0  0  0  0  0  0
    8.5721    2.1484    1.5264 H   0  0  0  0  0  0  0  0  0  0  0  0
    8.0897    3.1183    0.0651 H   0  0  0  0  0  0  0  0  0  0  0  0
  1 26  1  0  0  0  0
  2 25  1  0  0  0  0
  2 29  1  0  0  0  0
  3  8  1  0  0  0  0
  3 14  1  0  0  0  0
  3 36  1  0  0  0  0
  4  5  1  0  0  0  0
  4 12  1  0  0  0  0
  4 17  1  0  0  0  0
  5 13  2  0  0  0  0
  6  7  1  0  0  0  0
  6  9  1  0  0  0  0
  6 10  1  0  0  0  0
  6 30  1  0  0  0  0
  7  8  1  0  0  0  0
  7 31  1  0  0  0  0
  7 32  1  0  0  0  0
  8 11  1  0  0  0  0
  8 33  1  0  0  0  0
  9 12  2  0  0  0  0
  9 13  1  0  0  0  0
 10 11  2  0  0  0  0
 10 34  1  0  0  0  0
 11 35  1  0  0  0  0
 12 15  1  0  0  0  0
 13 16  1  0  0  0  0
 14 18  1  0  0  0  0
 14 37  1  0  0  0  0
 14 38  1  0  0  0  0
 15 39  1  0  0  0  0
 15 40  1  0  0  0  0
 15 41  1  0  0  0  0
 16 42  1  0  0  0  0
 16 43  1  0  0  0  0
 16 44  1  0  0  0  0
 17 19  2  0  0  0  0
 17 20  1  0  0  0  0
 18 21  2  0  0  0  0
 18 22  1  0  0  0  0
 19 23  1  0  0  0  0
 19 45  1  0  0  0  0
 20 24  2  0  0  0  0
 20 46  1  0  0  0  0
 21 26  1  0  0  0  0
 21 47  1  0  0  0  0
 22 27  2  0  0  0  0
 22 48  1  0  0  0  0
 23 25  2  0  0  0  0
 23 49  1  0  0  0  0
 24 25  1  0  0  0  0
 24 50  1  0  0  0  0
 26 28  2  0  0  0  0
 27 28  1  0  0  0  0
 27 51  1  0  0  0  0
 28 52  1  0  0  0  0
 29 53  1  0  0  0  0
 29 54  1  0  0  0  0
 29 55  1  0  0  0  0
M  END
> <PUBCHEM_COMPOUND_CID>
40780407

> <PUBCHEM_CONFORMER_RMSD>
1

> <PUBCHEM_CONFORMER_DIVERSEORDER>
1
55
85
47
20
45
100
84
19
64
88
41
57
112
110
14
74
66
59
119
122
17
108
81
49
130
50
28
132
22
117
131
125
38
113
62
29
69
123
82
12
75
37
44
98
24
118
121
51
34
67
56
70
2
93
102
87
31
101
52
114
115
83
21
54
8
26
128
65
116
107
89
46
18
13
42
90
95
58
60
71
97
96
7
35
80
91
4
61
127
109
10
79
77
106
68
92
120
86
72
105
33
48
53
36
99
43
40
23
129
11
32
5
73
104
78
76
27
103
15
63
126
9
30
39
111
25
16
124
3
6
94

> <PUBCHEM_MMFF94_PARTIAL_CHARGES>
39
1 -0.18
10 -0.29
11 -0.29
12 -0.33
13 0.11
14 0.41
15 0.18
16 0.18
17 -0.02
18 -0.14
19 -0.15
2 -0.36
20 -0.15
21 -0.15
22 -0.15
23 -0.15
24 -0.15
25 0.08
26 0.18
27 -0.15
28 -0.15
29 0.28
3 -0.9
34 0.15
35 0.15
36 0.36
4 0.59
45 0.15
46 0.15
47 0.15
48 0.15
49 0.15
5 -0.71
50 0.15
51 0.15
52 0.15
6 0.32
8 0.41
9 -0.18

> <PUBCHEM_EFFECTIVE_ROTOR_COUNT>
6.6

> <PUBCHEM_PHARMACOPHORE_FEATURES>
8
1 2 acceptor
1 3 cation
1 3 donor
1 5 acceptor
5 4 5 9 12 13 rings
5 6 7 8 10 11 rings
6 17 19 20 23 24 25 rings
6 18 21 22 26 27 28 rings

> <PUBCHEM_HEAVY_ATOM_COUNT>
29

> <PUBCHEM_ATOM_DEF_STEREO_COUNT>
2

> <PUBCHEM_ATOM_UDEF_STEREO_COUNT>
0

> <PUBCHEM_BOND_DEF_STEREO_COUNT>
0

> <PUBCHEM_BOND_UDEF_STEREO_COUNT>
0

> <PUBCHEM_ISOTOPIC_ATOM_COUNT>
0

> <PUBCHEM_COMPONENT_COUNT>
1

> <PUBCHEM_CACTVS_TAUTO_COUNT>
1

> <PUBCHEM_CONFORMER_ID>
026E427700000001

> <PUBCHEM_MMFF94_ENERGY>
86.9595

> <PUBCHEM_FEATURE_SELFOVERLAP>
40.597

> <PUBCHEM_SHAPE_FINGERPRINT>
10 15 17822009818093772328
10162869 55 17895192242686534543
10165383 225 18333169475601815728
10209105 3 10231498293345842172
10299344 5 18272932713720210519
106641 1 17312823792652873228
10670039 82 14836129819361985107
10674148 151 12823295693635597198
10883706 142 18343014494285411970
11315181 36 18343582929165362305
11408170 108 11747204732910134616
11724838 91 18259984881243383077
11828422 8 11885093498038241146
12013929 94 17988360481658774759
12236239 1 18130505249606060645
12596602 18 18202282464511582299
12730499 353 18260830341614554842
13914758 101 8430316848861719751
14251764 18 17749111084369492413
14394314 77 18337393743763455521
14671636 106 18271804683763355767
14849402 71 18412263968952640577
14856354 85 16702013198261268549
14933364 13 17989205928199960641
15064981 194 18058177313653360680
15183329 4 11383830451029357909
15188451 53 11530480022039324668
15728490 51 18411135866586885511
15840311 113 18411705400788670396
15849732 13 18131914857799118957
16126227 98 18410011065610973564
16992610 120 18335151916784217222
18335252 98 18131353020226357575
18365409 1 18336267962971550494
18603816 31 12396588476665024505
18608769 82 18408321107316805371
20105231 36 15626224628411462695
20505436 4 18202277000902433398
21033648 29 18337944710467691752
21095123 145 16702300192133531725
21130935 74 17604708842244008323
21521721 280 18410012130884247554
21792961 116 13326583929877715884
22224240 67 18113056034533298666
23516275 137 17844549737871356631
24771293 8 18259706688012518589
28498 318 10231756677981718528
3146122 72 15410035418923667128
3552219 110 17846226535836571681
3663271 9 18341613664810529995
395649 100 18261673783424807835
4093350 32 17775004562245609366
4258327 124 17896054276882496372
4325135 7 18407760331455547629
4340502 62 18261394420891089411
5381727 24 18334852815072254482
54076057 127 18342461396243779726
5758199 1 18408886230671514595
59682541 35 18040722480509986425
6081469 158 11386362651713959054
6394761 36 12103845657373555913
67123 10 18272652363413209685
9663363 56 17240482508416259333
9689198 14 17918276445839811349

> <PUBCHEM_SHAPE_MULTIPOLES>
577.86
28.55
2.31
1.13
13.42
1.3
-0.12
-10.4
1.79
-0.72
0.75
0.69
0.13
-1.08

> <PUBCHEM_SHAPE_SELFOVERLAP>
1241.129

> <PUBCHEM_SHAPE_VOLUME>
322.4

> <PUBCHEM_COORDINATE_TYPE>
2
5
10

$$$$
