11883287
  -OEChem-12032416373D

 48 50  0     1  0  0  0  0  0999 V2000
    1.2382   -2.9652   -0.0381 S   0  0  0  0  0  0  0  0  0  0  0  0
   -2.9864   -0.9120   -0.7439 O   0  0  0  0  0  0  0  0  0  0  0  0
   -0.8767    1.3249   -0.8305 O   0  0  0  0  0  0  0  0  0  0  0  0
   -4.3930    1.4033   -0.1489 O   0  0  0  0  0  0  0  0  0  0  0  0
    1.4021   -3.4319   -1.4016 O   0  0  0  0  0  0  0  0  0  0  0  0
    1.4052   -3.8829    1.0725 O   0  0  0  0  0  0  0  0  0  0  0  0
   -7.0523    1.4048   -0.5275 O   0  0  0  0  0  0  0  0  0  0  0  0
    5.3813    2.3758   -1.3324 O   0  0  0  0  0  0  0  0  0  0  0  0
   -0.2630   -2.1874    0.1167 N   0  0  0  0  0  0  0  0  0  0  0  0
   -7.4661    0.4388    1.5198 N   0  0  0  0  0  0  0  0  0  0  0  0
    5.0300    1.5107    0.8326 N   0  0  0  0  0  0  0  0  0  0  0  0
   -0.9954    0.1471   -0.0055 C   0  0  1  0  0  0  0  0  0  0  0  0
   -2.4720   -0.0436    0.2793 C   0  0  1  0  0  0  0  0  0  0  0  0
   -0.6163   -1.0777   -0.8003 C   0  0  2  0  0  0  0  0  0  0  0  0
   -3.0156    1.3588    0.1479 C   0  0  1  0  0  0  0  0  0  0  0  0
   -1.8988   -1.4107   -1.5376 C   0  0  0  0  0  0  0  0  0  0  0  0
   -2.1733    1.9228   -0.9739 C   0  0  0  0  0  0  0  0  0  0  0  0
   -5.1843    0.8709    0.9106 C   0  0  0  0  0  0  0  0  0  0  0  0
    2.3688   -1.6313    0.2212 C   0  0  0  0  0  0  0  0  0  0  0  0
   -6.6456    0.9452    0.5356 C   0  0  0  0  0  0  0  0  0  0  0  0
    2.7991   -0.8894   -0.8651 C   0  0  0  0  0  0  0  0  0  0  0  0
    2.8024   -1.3537    1.5057 C   0  0  0  0  0  0  0  0  0  0  0  0
    3.6911    0.1633   -0.6602 C   0  0  0  0  0  0  0  0  0  0  0  0
    3.6944   -0.3011    1.7107 C   0  0  0  0  0  0  0  0  0  0  0  0
    4.1387    0.4574    0.6277 C   0  0  0  0  0  0  0  0  0  0  0  0
    5.5811    2.3761   -0.1221 C   0  0  0  0  0  0  0  0  0  0  0  0
    6.5065    3.3871    0.5074 C   0  0  0  0  0  0  0  0  0  0  0  0
   -0.3963    0.3116    0.8957 H   0  0  0  0  0  0  0  0  0  0  0  0
   -2.6669   -0.5127    1.2482 H   0  0  0  0  0  0  0  0  0  0  0  0
    0.1731   -0.8961   -1.5310 H   0  0  0  0  0  0  0  0  0  0  0  0
   -2.8055    1.9281    1.0635 H   0  0  0  0  0  0  0  0  0  0  0  0
   -2.0419   -2.4812   -1.7144 H   0  0  0  0  0  0  0  0  0  0  0  0
   -1.9416   -0.8939   -2.5026 H   0  0  0  0  0  0  0  0  0  0  0  0
   -2.0834    3.0119   -0.9196 H   0  0  0  0  0  0  0  0  0  0  0  0
   -2.5729    1.6703   -1.9625 H   0  0  0  0  0  0  0  0  0  0  0  0
   -0.8229   -2.2976    0.9705 H   0  0  0  0  0  0  0  0  0  0  0  0
   -5.0240    1.4538    1.8247 H   0  0  0  0  0  0  0  0  0  0  0  0
   -4.9423   -0.1813    1.0919 H   0  0  0  0  0  0  0  0  0  0  0  0
    2.4701   -1.1065   -1.8765 H   0  0  0  0  0  0  0  0  0  0  0  0
    2.4620   -1.9266    2.3628 H   0  0  0  0  0  0  0  0  0  0  0  0
    3.9915    0.7034   -1.5471 H   0  0  0  0  0  0  0  0  0  0  0  0
    4.0333   -0.0817    2.7201 H   0  0  0  0  0  0  0  0  0  0  0  0
   -7.1025    0.0648    2.3905 H   0  0  0  0  0  0  0  0  0  0  0  0
   -8.4739    0.4248    1.4030 H   0  0  0  0  0  0  0  0  0  0  0  0
    5.3091    1.6615    1.7998 H   0  0  0  0  0  0  0  0  0  0  0  0
    7.3147    2.8727    1.0351 H   0  0  0  0  0  0  0  0  0  0  0  0
    6.9397    4.0259   -0.2672 H   0  0  0  0  0  0  0  0  0  0  0  0
    5.9483    4.0103    1.2116 H   0  0  0  0  0  0  0  0  0  0  0  0
  1  5  2  0  0  0  0
  1  6  2  0  0  0  0
  1  9  1  0  0  0  0
  1 19  1  0  0  0  0
  2 13  1  0  0  0  0
  2 16  1  0  0  0  0
  3 12  1  0  0  0  0
  3 17  1  0  0  0  0
  4 15  1  0  0  0  0
  4 18  1  0  0  0  0
  7 20  2  0  0  0  0
  8 26  2  0  0  0  0
  9 14  1  0  0  0  0
  9 36  1  0  0  0  0
 10 20  1  0  0  0  0
 10 43  1  0  0  0  0
 10 44  1  0  0  0  0
 11 25  1  0  0  0  0
 11 26  1  0  0  0  0
 11 45  1  0  0  0  0
 12 13  1  0  0  0  0
 12 14  1  0  0  0  0
 12 28  1  0  0  0  0
 13 15  1  0  0  0  0
 13 29  1  0  0  0  0
 14 16  1  0  0  0  0
 14 30  1  0  0  0  0
 15 17  1  0  0  0  0
 15 31  1  0  0  0  0
 16 32  1  0  0  0  0
 16 33  1  0  0  0  0
 17 34  1  0  0  0  0
 17 35  1  0  0  0  0
 18 20  1  0  0  0  0
 18 37  1  0  0  0  0
 18 38  1  0  0  0  0
 19 21  2  0  0  0  0
 19 22  1  0  0  0  0
 21 23  1  0  0  0  0
 21 39  1  0  0  0  0
 22 24  2  0  0  0  0
 22 40  1  0  0  0  0
 23 25  2  0  0  0  0
 23 41  1  0  0  0  0
 24 25  1  0  0  0  0
 24 42  1  0  0  0  0
 26 27  1  0  0  0  0
 27 46  1  0  0  0  0
 27 47  1  0  0  0  0
 27 48  1  0  0  0  0
M  END
> <PUBCHEM_COMPOUND_CID>
11883287

> <PUBCHEM_CONFORMER_RMSD>
1

> <PUBCHEM_CONFORMER_DIVERSEORDER>
1
15
40
27
51
3
11
16
12
39
47
29
19
25
28
33
34
13
30
38
4
24
14
20
6
43
49
18
26
17
48
7
37
5
36
21
8
35
9
44
42
31
41
2
23
45
50
46
10
22
32

> <PUBCHEM_MMFF94_PARTIAL_CHARGES>
35
1 1.45
10 -0.8
11 -0.55
12 0.28
13 0.28
14 0.36
15 0.28
16 0.28
17 0.28
18 0.34
19 -0.01
2 -0.56
20 0.57
21 -0.15
22 -0.15
23 -0.15
24 -0.15
25 0.12
26 0.57
27 0.06
3 -0.56
36 0.42
39 0.15
4 -0.56
40 0.15
41 0.15
42 0.15
43 0.37
44 0.37
45 0.37
5 -0.65
6 -0.65
7 -0.57
8 -0.57
9 -0.91

> <PUBCHEM_EFFECTIVE_ROTOR_COUNT>
9.2

> <PUBCHEM_PHARMACOPHORE_FEATURES>
13
1 10 donor
1 11 donor
1 2 acceptor
1 3 acceptor
1 4 acceptor
1 5 acceptor
1 6 acceptor
1 7 acceptor
1 8 acceptor
1 9 donor
5 2 12 13 14 16 rings
5 3 12 13 15 17 rings
6 19 21 22 23 24 25 rings

> <PUBCHEM_HEAVY_ATOM_COUNT>
27

> <PUBCHEM_ATOM_DEF_STEREO_COUNT>
4

> <PUBCHEM_ATOM_UDEF_STEREO_COUNT>
0

> <PUBCHEM_BOND_DEF_STEREO_COUNT>
0

> <PUBCHEM_BOND_UDEF_STEREO_COUNT>
0

> <PUBCHEM_ISOTOPIC_ATOM_COUNT>
0

> <PUBCHEM_COMPONENT_COUNT>
1

> <PUBCHEM_CACTVS_TAUTO_COUNT>
4

> <PUBCHEM_CONFORMER_ID>
00B5531700000001

> <PUBCHEM_MMFF94_ENERGY>
63.9627

> <PUBCHEM_FEATURE_SELFOVERLAP>
66.718

> <PUBCHEM_SHAPE_FINGERPRINT>
10693767 8 7852990712515340361
10794284 68 17843403140695820151
10904742 90 18410855490815815064
11135609 201 18339635737206714824
11720765 8 17345763967747686350
12788726 201 17831844017707933218
13955234 65 18263927635721151330
14114211 68 18341909484571839880
14251764 75 18336827610537667272
14565420 104 18334294262410840618
14840074 17 18334011722155769917
14849402 71 18265052436517214802
15188451 53 12107778627345448904
15342168 16 18412259527966271926
15475509 8 14261356847419156307
16992610 120 18115322202194842436
17349148 13 12252192810134046775
19319366 153 18412820261753693322
21315764 119 12895352196730895257
21365058 113 17482849874085906310
21756936 100 18267578199646394004
22149856 69 18191329117176066969
23559900 14 17755023004032080311
23845131 108 18261393377087845682
270888 7 18340766044018943760
3246875 12 18338519745926255731
3472631 163 18201438107779012364
4340502 62 17458065954192409643
474 4 18409161091599257202
5252454 2 18272357681596582784
59682541 52 16200165274621663540
7808743 9 18267860756722819720
8988823 20 14924242520506072527

> <PUBCHEM_SHAPE_MULTIPOLES>
503.47
16.03
3.73
1.37
15.19
1.75
0.11
-17.45
4.26
-5.28
-0.25
-0.22
0.3
-0.64

> <PUBCHEM_SHAPE_SELFOVERLAP>
1052.368

> <PUBCHEM_SHAPE_VOLUME>
285.9

> <PUBCHEM_COORDINATE_TYPE>
2
5
10

$$$$
