26742985
  -OEChem-12032416183D

 56 58  0     1  0  0  0  0  0999 V2000
    3.5451    0.5325   -1.9497 O   0  0  0  0  0  0  0  0  0  0  0  0
    6.8634   -1.2143    1.2750 O   0  0  0  0  0  0  0  0  0  0  0  0
   -4.0816   -1.3246   -1.3087 O   0  0  0  0  0  0  0  0  0  0  0  0
   -0.3266    2.8712    0.8287 N   0  0  0  0  0  0  0  0  0  0  0  0
    4.5269   -0.5962   -0.1741 N   0  0  0  0  0  0  0  0  0  0  0  0
   -2.7287   -1.1664   -1.5835 N   0  0  0  0  0  0  0  0  0  0  0  0
    1.1511    0.9546   -0.8594 C   0  0  1  0  0  0  0  0  0  0  0  0
   -0.3087    0.7164   -0.4051 C   0  0  2  0  0  0  0  0  0  0  0  0
    1.4394    2.4653   -0.8501 C   0  0  0  0  0  0  0  0  0  0  0  0
   -0.6177    1.4398    0.9164 C   0  0  0  0  0  0  0  0  0  0  0  0
    2.1941    0.1952   -0.0308 C   0  0  0  0  0  0  0  0  0  0  0  0
   -0.6702   -0.7661   -0.3033 C   0  0  0  0  0  0  0  0  0  0  0  0
    1.0702    3.1214    0.4796 C   0  0  0  0  0  0  0  0  0  0  0  0
    3.4775    0.0622   -0.8113 C   0  0  0  0  0  0  0  0  0  0  0  0
   -2.1542   -0.9747   -0.3926 C   0  0  0  0  0  0  0  0  0  0  0  0
    5.8089   -0.7646   -0.8583 C   0  0  0  0  0  0  0  0  0  0  0  0
    4.4427   -1.2761    1.1230 C   0  0  0  0  0  0  0  0  0  0  0  0
   -3.0857   -1.0013    0.6598 C   0  0  0  0  0  0  0  0  0  0  0  0
    6.9593   -0.4324    0.0813 C   0  0  0  0  0  0  0  0  0  0  0  0
    5.6529   -0.9277    1.9805 C   0  0  0  0  0  0  0  0  0  0  0  0
   -4.2817   -1.2243    0.0303 C   0  0  0  0  0  0  0  0  0  0  0  0
   -5.6653   -1.3685    0.4987 C   0  0  0  0  0  0  0  0  0  0  0  0
   -6.5185   -0.1014    0.2652 C   0  0  0  0  0  0  0  0  0  0  0  0
   -7.9440   -0.2467    0.7975 C   0  0  0  0  0  0  0  0  0  0  0  0
   -8.7486    1.0268    0.5911 C   0  0  0  0  0  0  0  0  0  0  0  0
    1.2005    0.6106   -1.9019 H   0  0  0  0  0  0  0  0  0  0  0  0
   -0.9469    1.1721   -1.1787 H   0  0  0  0  0  0  0  0  0  0  0  0
    0.8551    2.9386   -1.6511 H   0  0  0  0  0  0  0  0  0  0  0  0
    2.4897    2.6773   -1.0764 H   0  0  0  0  0  0  0  0  0  0  0  0
   -1.6783    1.3441    1.1661 H   0  0  0  0  0  0  0  0  0  0  0  0
   -0.0544    0.9950    1.7462 H   0  0  0  0  0  0  0  0  0  0  0  0
    1.8545   -0.8237    0.1763 H   0  0  0  0  0  0  0  0  0  0  0  0
    2.3928    0.6923    0.9224 H   0  0  0  0  0  0  0  0  0  0  0  0
   -0.1945   -1.3275   -1.1182 H   0  0  0  0  0  0  0  0  0  0  0  0
   -0.3063   -1.2014    0.6354 H   0  0  0  0  0  0  0  0  0  0  0  0
    1.7304    2.7843    1.2863 H   0  0  0  0  0  0  0  0  0  0  0  0
    1.2167    4.2037    0.3904 H   0  0  0  0  0  0  0  0  0  0  0  0
   -0.5350    3.3134    1.7234 H   0  0  0  0  0  0  0  0  0  0  0  0
    5.8618   -1.8158   -1.1649 H   0  0  0  0  0  0  0  0  0  0  0  0
    5.8600   -0.1451   -1.7586 H   0  0  0  0  0  0  0  0  0  0  0  0
    3.5250   -1.0377    1.6622 H   0  0  0  0  0  0  0  0  0  0  0  0
    4.4340   -2.3506    0.9049 H   0  0  0  0  0  0  0  0  0  0  0  0
   -2.9157   -0.8799    1.7194 H   0  0  0  0  0  0  0  0  0  0  0  0
    7.9155   -0.6649   -0.3975 H   0  0  0  0  0  0  0  0  0  0  0  0
    6.9657    0.6317    0.3458 H   0  0  0  0  0  0  0  0  0  0  0  0
    5.6453    0.1300    2.2698 H   0  0  0  0  0  0  0  0  0  0  0  0
    5.6486   -1.5259    2.8969 H   0  0  0  0  0  0  0  0  0  0  0  0
   -5.6647   -1.6068    1.5695 H   0  0  0  0  0  0  0  0  0  0  0  0
   -6.1368   -2.2194   -0.0082 H   0  0  0  0  0  0  0  0  0  0  0  0
   -6.0326    0.7545    0.7515 H   0  0  0  0  0  0  0  0  0  0  0  0
   -6.5487    0.1248   -0.8085 H   0  0  0  0  0  0  0  0  0  0  0  0
   -8.4458   -1.0790    0.2906 H   0  0  0  0  0  0  0  0  0  0  0  0
   -7.9181   -0.4859    1.8669 H   0  0  0  0  0  0  0  0  0  0  0  0
   -8.2889    1.8709    1.1150 H   0  0  0  0  0  0  0  0  0  0  0  0
   -9.7647    0.8998    0.9776 H   0  0  0  0  0  0  0  0  0  0  0  0
   -8.8184    1.2785   -0.4719 H   0  0  0  0  0  0  0  0  0  0  0  0
  1 14  2  0  0  0  0
  2 19  1  0  0  0  0
  2 20  1  0  0  0  0
  3  6  1  0  0  0  0
  3 21  1  0  0  0  0
  4 10  1  0  0  0  0
  4 13  1  0  0  0  0
  4 38  1  0  0  0  0
  5 14  1  0  0  0  0
  5 16  1  0  0  0  0
  5 17  1  0  0  0  0
  6 15  2  0  0  0  0
  7  8  1  0  0  0  0
  7  9  1  0  0  0  0
  7 11  1  0  0  0  0
  7 26  1  0  0  0  0
  8 10  1  0  0  0  0
  8 12  1  0  0  0  0
  8 27  1  0  0  0  0
  9 13  1  0  0  0  0
  9 28  1  0  0  0  0
  9 29  1  0  0  0  0
 10 30  1  0  0  0  0
 10 31  1  0  0  0  0
 11 14  1  0  0  0  0
 11 32  1  0  0  0  0
 11 33  1  0  0  0  0
 12 15  1  0  0  0  0
 12 34  1  0  0  0  0
 12 35  1  0  0  0  0
 13 36  1  0  0  0  0
 13 37  1  0  0  0  0
 15 18  1  0  0  0  0
 16 19  1  0  0  0  0
 16 39  1  0  0  0  0
 16 40  1  0  0  0  0
 17 20  1  0  0  0  0
 17 41  1  0  0  0  0
 17 42  1  0  0  0  0
 18 21  2  0  0  0  0
 18 43  1  0  0  0  0
 19 44  1  0  0  0  0
 19 45  1  0  0  0  0
 20 46  1  0  0  0  0
 20 47  1  0  0  0  0
 21 22  1  0  0  0  0
 22 23  1  0  0  0  0
 22 48  1  0  0  0  0
 22 49  1  0  0  0  0
 23 24  1  0  0  0  0
 23 50  1  0  0  0  0
 23 51  1  0  0  0  0
 24 25  1  0  0  0  0
 24 52  1  0  0  0  0
 24 53  1  0  0  0  0
 25 54  1  0  0  0  0
 25 55  1  0  0  0  0
 25 56  1  0  0  0  0
M  END
> <PUBCHEM_COMPOUND_CID>
26742985

> <PUBCHEM_CONFORMER_RMSD>
1.4

> <PUBCHEM_CONFORMER_DIVERSEORDER>
1
11
39
19
62
31
15
24
12
22
60
23
13
45
9
6
14
61
55
42
57
46
53
43
25
49
51
4
28
44
48
59
18
27
56
30
26
50
34
21
3
2
8
58
47
32
40
5
52
37
33
54
41
38
7
36
20
17
29
10
16
35

> <PUBCHEM_MMFF94_PARTIAL_CHARGES>
21
1 -0.57
10 0.27
11 0.06
12 0.18
13 0.27
14 0.57
15 0.11
16 0.3
17 0.3
18 -0.15
19 0.28
2 -0.56
20 0.28
21 -0.04
22 0.18
3 -0.02
38 0.36
4 -0.9
43 0.15
5 -0.66
6 -0.41

> <PUBCHEM_EFFECTIVE_ROTOR_COUNT>
10.4

> <PUBCHEM_PHARMACOPHORE_FEATURES>
9
1 1 acceptor
1 2 acceptor
1 25 hydrophobe
1 4 cation
1 4 donor
1 6 acceptor
5 3 6 15 18 21 rings
6 2 5 16 17 19 20 rings
6 4 7 8 9 10 13 rings

> <PUBCHEM_HEAVY_ATOM_COUNT>
25

> <PUBCHEM_ATOM_DEF_STEREO_COUNT>
2

> <PUBCHEM_ATOM_UDEF_STEREO_COUNT>
0

> <PUBCHEM_BOND_DEF_STEREO_COUNT>
0

> <PUBCHEM_BOND_UDEF_STEREO_COUNT>
0

> <PUBCHEM_ISOTOPIC_ATOM_COUNT>
0

> <PUBCHEM_COMPONENT_COUNT>
1

> <PUBCHEM_CACTVS_TAUTO_COUNT>
1

> <PUBCHEM_CONFORMER_ID>
019810C900000001

> <PUBCHEM_MMFF94_ENERGY>
30.2279

> <PUBCHEM_FEATURE_SELFOVERLAP>
45.671

> <PUBCHEM_SHAPE_FINGERPRINT>
10299344 5 17458065967336189731
10674148 151 16153423943886260301
10753850 27 17967809440755798706
11265709 11 18412260649406423244
12107183 9 18342177778510365939
12166972 35 17894347792007561388
12516196 113 18412542133004593518
12592606 108 18409728487260853563
13673619 4 17240479213100021543
13685833 64 17530963587898970802
13782708 43 17822857618900360987
14123256 10 8430596107777710659
14251752 14 18113334189742915261
14251764 18 18333452049589163295
14257110 125 9007061257610667640
14429380 56 13614231568934957419
15131766 46 15050014638238009170
15142383 8 18409167701659245541
15183329 4 17603859001402411047
15301273 46 17203335507301298412
15461852 350 15841548613666612005
15849732 13 17775847913328532503
17980427 23 14907608060481499921
19301679 30 18265333911140419386
19841028 212 17604143728060256066
20105231 36 13623534550435695089
20157964 124 13398638242296866462
20567600 234 14907898301385838931
20832881 197 18335985350033208177
21095086 128 16515689966355417667
21150785 3 9655575214928219123
21344244 181 14562531760494665432
21403212 168 12967129402645210730
21781051 124 11818996279193029681
21792934 111 18272083894390195376
21859007 373 17917709059781629945
22224240 67 15267342915955086014
23559900 14 17677331765357088645
23845131 108 17052478993944798040
25147074 1 18338253621253020204
2838139 119 18343585149689971029
3004659 81 18259991483193855030
335352 9 18342461461131746717
3411729 13 17914610799302689080
4098825 35 16950562177257648732
4325135 7 10519985955180757371
5104073 3 17986401207598391115
5207 217 8790884077793166615
57527293 21 17488439993802855798
58260988 647 16226323707985564146
6081469 158 17275111596171364654
6371380 46 18335417985344179435
8863177 126 17897735494238196475

> <PUBCHEM_SHAPE_MULTIPOLES>
481.94
21.03
2.29
1.4
21.02
2.22
0.02
-8.11
-6.29
-0.37
-0.4
-1.36
-0.18
-1.56

> <PUBCHEM_SHAPE_SELFOVERLAP>
981.904

> <PUBCHEM_SHAPE_VOLUME>
277.6

> <PUBCHEM_COORDINATE_TYPE>
2
5
10

$$$$
