45784357
  -OEChem-12032416223D

 46 49  0     1  0  0  0  0  0999 V2000
    6.3501   -1.0234   -0.9272 O   0  0  0  0  0  0  0  0  0  0  0  0
   -1.1662    0.3711    0.2836 O   0  0  0  0  0  0  0  0  0  0  0  0
   -4.1823   -2.7441    0.0120 O   0  0  0  0  0  0  0  0  0  0  0  0
   -1.9739   -2.3218    0.5059 O   0  0  0  0  0  0  0  0  0  0  0  0
    2.8433    0.7950    0.4946 N   0  0  1  0  0  0  0  0  0  0  0  0
   -1.5931    2.5500   -0.1713 N   0  0  0  0  0  0  0  0  0  0  0  0
    3.7248   -0.2375   -0.0450 C   0  0  0  0  0  0  0  0  0  0  0  0
    0.7511    1.8536    0.5381 C   0  0  2  0  0  0  0  0  0  0  0  0
    1.6951    1.0596   -0.3751 C   0  0  0  0  0  0  0  0  0  0  0  0
    2.2617    0.4141    1.7817 C   0  0  0  0  0  0  0  0  0  0  0  0
    1.1458    1.4345    1.9650 C   0  0  0  0  0  0  0  0  0  0  0  0
    4.3067    0.2084   -1.3895 C   0  0  0  0  0  0  0  0  0  0  0  0
    4.8570   -0.5625    0.9343 C   0  0  0  0  0  0  0  0  0  0  0  0
   -0.7072    1.6509    0.1972 C   0  0  0  0  0  0  0  0  0  0  0  0
    5.3204   -0.8131   -1.8934 C   0  0  0  0  0  0  0  0  0  0  0  0
    5.8402   -1.5413    0.3016 C   0  0  0  0  0  0  0  0  0  0  0  0
   -2.4813    0.4778   -0.0683 C   0  0  0  0  0  0  0  0  0  0  0  0
   -2.7387    1.8122   -0.3458 C   0  0  0  0  0  0  0  0  0  0  0  0
   -3.4212   -0.5426   -0.1454 C   0  0  0  0  0  0  0  0  0  0  0  0
   -4.0329    2.1861   -0.7347 C   0  0  0  0  0  0  0  0  0  0  0  0
   -4.7073   -0.1528   -0.5346 C   0  0  0  0  0  0  0  0  0  0  0  0
   -5.0096    1.1835   -0.8241 C   0  0  0  0  0  0  0  0  0  0  0  0
   -3.0958   -1.9218    0.1570 C   0  0  0  0  0  0  0  0  0  0  0  0
   -3.9866   -4.1360    0.2837 C   0  0  0  0  0  0  0  0  0  0  0  0
    3.1535   -1.1626   -0.2128 H   0  0  0  0  0  0  0  0  0  0  0  0
    0.9686    2.9254    0.4300 H   0  0  0  0  0  0  0  0  0  0  0  0
    1.2291    0.1299   -0.7270 H   0  0  0  0  0  0  0  0  0  0  0  0
    1.9622    1.6639   -1.2486 H   0  0  0  0  0  0  0  0  0  0  0  0
    1.8381   -0.5982    1.7572 H   0  0  0  0  0  0  0  0  0  0  0  0
    2.9721    0.4832    2.6112 H   0  0  0  0  0  0  0  0  0  0  0  0
    1.5224    2.3103    2.5084 H   0  0  0  0  0  0  0  0  0  0  0  0
    0.3147    1.0177    2.5438 H   0  0  0  0  0  0  0  0  0  0  0  0
    3.5304    0.3276   -2.1526 H   0  0  0  0  0  0  0  0  0  0  0  0
    4.8098    1.1768   -1.2688 H   0  0  0  0  0  0  0  0  0  0  0  0
    4.4814   -1.0062    1.8623 H   0  0  0  0  0  0  0  0  0  0  0  0
    5.3929    0.3597    1.1949 H   0  0  0  0  0  0  0  0  0  0  0  0
    5.7938   -0.4466   -2.8098 H   0  0  0  0  0  0  0  0  0  0  0  0
    4.8401   -1.7702   -2.1289 H   0  0  0  0  0  0  0  0  0  0  0  0
    5.3728   -2.5164    0.1205 H   0  0  0  0  0  0  0  0  0  0  0  0
    6.6897   -1.7017    0.9731 H   0  0  0  0  0  0  0  0  0  0  0  0
   -4.2783    3.2184   -0.9612 H   0  0  0  0  0  0  0  0  0  0  0  0
   -5.5153   -0.8753   -0.6254 H   0  0  0  0  0  0  0  0  0  0  0  0
   -6.0201    1.4504   -1.1238 H   0  0  0  0  0  0  0  0  0  0  0  0
   -3.2406   -4.5519   -0.3998 H   0  0  0  0  0  0  0  0  0  0  0  0
   -3.6789   -4.2770    1.3240 H   0  0  0  0  0  0  0  0  0  0  0  0
   -4.9374   -4.6512    0.1241 H   0  0  0  0  0  0  0  0  0  0  0  0
  1 15  1  0  0  0  0
  1 16  1  0  0  0  0
  2 14  1  0  0  0  0
  2 17  1  0  0  0  0
  3 23  1  0  0  0  0
  3 24  1  0  0  0  0
  4 23  2  0  0  0  0
  5  7  1  0  0  0  0
  5  9  1  0  0  0  0
  5 10  1  0  0  0  0
  6 14  2  0  0  0  0
  6 18  1  0  0  0  0
  7 12  1  0  0  0  0
  7 13  1  0  0  0  0
  7 25  1  0  0  0  0
  8  9  1  0  0  0  0
  8 11  1  0  0  0  0
  8 14  1  0  0  0  0
  8 26  1  0  0  0  0
  9 27  1  0  0  0  0
  9 28  1  0  0  0  0
 10 11  1  0  0  0  0
 10 29  1  0  0  0  0
 10 30  1  0  0  0  0
 11 31  1  0  0  0  0
 11 32  1  0  0  0  0
 12 15  1  0  0  0  0
 12 33  1  0  0  0  0
 12 34  1  0  0  0  0
 13 16  1  0  0  0  0
 13 35  1  0  0  0  0
 13 36  1  0  0  0  0
 15 37  1  0  0  0  0
 15 38  1  0  0  0  0
 16 39  1  0  0  0  0
 16 40  1  0  0  0  0
 17 18  1  0  0  0  0
 17 19  2  0  0  0  0
 18 20  2  0  0  0  0
 19 21  1  0  0  0  0
 19 23  1  0  0  0  0
 20 22  1  0  0  0  0
 20 41  1  0  0  0  0
 21 22  2  0  0  0  0
 21 42  1  0  0  0  0
 22 43  1  0  0  0  0
 24 44  1  0  0  0  0
 24 45  1  0  0  0  0
 24 46  1  0  0  0  0
M  END
> <PUBCHEM_COMPOUND_CID>
45784357

> <PUBCHEM_CONFORMER_RMSD>
0.8

> <PUBCHEM_CONFORMER_DIVERSEORDER>
1
62
43
14
53
24
7
67
29
58
31
10
12
49
5
57
63
45
30
48
37
54
9
56
65
60
27
11
64
15
22
40
6
23
50
61
21
33
13
28
4
51
32
52
46
55
16
35
42
39
8
44
34
47
3
41
59
20
26
2
18
66
38
36
17
19
25

> <PUBCHEM_MMFF94_PARTIAL_CHARGES>
24
1 -0.56
10 0.27
14 0.3
15 0.28
16 0.28
17 0.14
18 0.23
19 0.09
2 -0.28
20 -0.15
21 -0.15
22 -0.15
23 0.63
24 0.28
3 -0.43
4 -0.57
41 0.15
42 0.15
43 0.15
5 -0.81
6 -0.57
7 0.27
8 0.18
9 0.27

> <PUBCHEM_EFFECTIVE_ROTOR_COUNT>
6.2

> <PUBCHEM_PHARMACOPHORE_FEATURES>
7
1 1 acceptor
1 4 acceptor
1 5 cation
5 2 6 14 17 18 rings
5 5 8 9 10 11 rings
6 1 7 12 13 15 16 rings
6 17 18 19 20 21 22 rings

> <PUBCHEM_HEAVY_ATOM_COUNT>
24

> <PUBCHEM_ATOM_DEF_STEREO_COUNT>
1

> <PUBCHEM_ATOM_UDEF_STEREO_COUNT>
0

> <PUBCHEM_BOND_DEF_STEREO_COUNT>
0

> <PUBCHEM_BOND_UDEF_STEREO_COUNT>
0

> <PUBCHEM_ISOTOPIC_ATOM_COUNT>
0

> <PUBCHEM_COMPONENT_COUNT>
1

> <PUBCHEM_CACTVS_TAUTO_COUNT>
1

> <PUBCHEM_CONFORMER_ID>
02BA9D2500000001

> <PUBCHEM_MMFF94_ENERGY>
47.8509

> <PUBCHEM_FEATURE_SELFOVERLAP>
35.641

> <PUBCHEM_SHAPE_FINGERPRINT>
10803635 8 18260825938908897853
11135609 99 18197208163027530582
11796584 16 18411981326245127694
12236239 1 17386007221920024220
12555020 224 18337095814270765685
12616971 3 16588016892922438800
12643181 29 18410851028117973538
13257819 101 12324247170156397410
13402501 40 18202563951640270630
13544592 145 18343292670052344065
13544653 18 17060619967352528080
13690498 29 18260834855635596175
13785724 45 17757563224312511267
13941206 138 17822292336278492819
14251751 18 18412262857014332154
14251757 5 18334017189696239667
14289585 56 16371564774810411534
14386348 63 17846213332979878708
14617045 38 18410014295447719627
14866123 147 18410577314833027771
14910302 57 18335127705004348204
15042514 8 18335699507871277243
15183329 4 18187928335430838852
15250474 111 18115017512065133210
15510800 12 17845946117669683590
15537594 2 18040998423373452955
15880784 105 16415182503714847397
16120349 21 18339654425374330427
17492 89 18192428795537439907
17870717 6 18411985728264898461
193927 3 17775013375392003708
19958102 18 18190452758050856574
20403669 9 18202283593618612430
20693207 138 18341323457353598456
21065201 7 18338221747994183641
21267235 1 18407760344377645417
21307412 95 18341609317992695671
21315764 119 18190744124696049892
21623969 137 17131828751604215318
21781051 124 18114188562429344915
22849339 104 18408326583870009279
23379529 103 18267027347688054307
23559900 14 18340477949959910608
25122255 55 17988651736022518630
3004659 81 18261392213936905428
3117164 225 11166850592789316732
3298306 158 18272084955162890462
44062 13 18410855481914605071
474144 1 17606099715800550322
484985 159 18200889408875304131
508706 21 18413105082742302743
5104073 3 18201719591124131472
559249 180 18189047612202627297
56633871 153 18052545666899971531
574716 61 17240490246707429284
58902169 19 17531257123950964510
59755656 215 18340199705320313519
59755656 520 18270966722669385377
633830 44 16153432714431057264
6437827 68 18338233752538896182
6823239 73 18341884221410753240
7918774 8 17417545652574835868
7970288 3 18121216738652918971
8863177 126 18271525415418412762
9709674 26 18269543009286833873
9862886 166 18413389822299696574

> <PUBCHEM_SHAPE_MULTIPOLES>
460.47
13.84
3.24
1.34
13.02
3.12
-0.11
7.02
4.6
-5.63
-0.35
1.86
-0.22
1.44

> <PUBCHEM_SHAPE_SELFOVERLAP>
995.859

> <PUBCHEM_SHAPE_VOLUME>
254.1

> <PUBCHEM_COORDINATE_TYPE>
2
5
10

$$$$
