11942509
  -OEChem-12032416153D

 59 61  0     1  0  0  0  0  0999 V2000
    2.5605   -0.2024    1.5793 O   0  0  0  0  0  0  0  0  0  0  0  0
    3.2442   -4.0591    0.8558 O   0  0  0  0  0  0  0  0  0  0  0  0
    0.9362    2.7814   -1.1441 N   0  0  2  0  0  0  0  0  0  0  0  0
   -1.6006   -0.0321   -1.0748 N   0  0  0  0  0  0  0  0  0  0  0  0
    4.2631    0.2519    0.0581 N   0  0  0  0  0  0  0  0  0  0  0  0
   -1.4416   -1.0547   -0.2292 N   0  0  0  0  0  0  0  0  0  0  0  0
   -2.6513   -1.5528    0.0025 N   0  0  0  0  0  0  0  0  0  0  0  0
    3.0499   -2.3026   -0.6609 N   0  0  0  0  0  0  0  0  0  0  0  0
    1.3760    2.2508    1.3653 C   0  0  2  0  0  0  0  0  0  0  0  0
   -0.1473    1.9127   -0.6117 C   0  0  2  0  0  0  0  0  0  0  0  0
    2.6106    1.9273    0.5022 C   0  0  2  0  0  0  0  0  0  0  0  0
    0.1670    1.4576    0.8303 C   0  0  0  0  0  0  0  0  0  0  0  0
    1.0701    3.7455    1.1603 C   0  0  0  0  0  0  0  0  0  0  0  0
    2.2537    2.1179   -0.9827 C   0  0  0  0  0  0  0  0  0  0  0  0
    0.9487    4.0340   -0.3477 C   0  0  0  0  0  0  0  0  0  0  0  0
   -0.4468    0.7257   -1.5300 C   0  0  0  0  0  0  0  0  0  0  0  0
    3.1183    0.5443    0.7795 C   0  0  0  0  0  0  0  0  0  0  0  0
   -2.8958    0.1640   -1.4139 C   0  0  0  0  0  0  0  0  0  0  0  0
    4.9629   -1.0080    0.1624 C   0  0  0  0  0  0  0  0  0  0  0  0
   -3.5531   -0.8176   -0.7156 C   0  0  0  0  0  0  0  0  0  0  0  0
    4.4512   -2.0324   -0.8363 C   0  0  0  0  0  0  0  0  0  0  0  0
   -4.9896   -1.1194   -0.6735 C   0  0  0  0  0  0  0  0  0  0  0  0
   -5.7419   -0.3615    0.4416 C   0  0  0  0  0  0  0  0  0  0  0  0
   -7.2257   -0.7250    0.4937 C   0  0  0  0  0  0  0  0  0  0  0  0
    2.5620   -3.2981    0.1746 C   0  0  0  0  0  0  0  0  0  0  0  0
   -7.9383    0.0021    1.6229 C   0  0  0  0  0  0  0  0  0  0  0  0
    1.0577   -3.3494    0.1921 C   0  0  0  0  0  0  0  0  0  0  0  0
    1.5431    2.0344    2.4260 H   0  0  0  0  0  0  0  0  0  0  0  0
   -1.0665    2.5167   -0.5798 H   0  0  0  0  0  0  0  0  0  0  0  0
    3.4172    2.6233    0.7737 H   0  0  0  0  0  0  0  0  0  0  0  0
   -0.7046    1.6495    1.4690 H   0  0  0  0  0  0  0  0  0  0  0  0
    0.3683    0.3862    0.8889 H   0  0  0  0  0  0  0  0  0  0  0  0
    0.1370    4.0110    1.6716 H   0  0  0  0  0  0  0  0  0  0  0  0
    1.8663    4.3616    1.5942 H   0  0  0  0  0  0  0  0  0  0  0  0
    2.2717    1.1769   -1.5439 H   0  0  0  0  0  0  0  0  0  0  0  0
    3.0205    2.7424   -1.4603 H   0  0  0  0  0  0  0  0  0  0  0  0
    1.7766    4.6744   -0.6778 H   0  0  0  0  0  0  0  0  0  0  0  0
    0.0365    4.6109   -0.5446 H   0  0  0  0  0  0  0  0  0  0  0  0
    0.3895    0.0206   -1.5957 H   0  0  0  0  0  0  0  0  0  0  0  0
   -0.6705    1.0679   -2.5477 H   0  0  0  0  0  0  0  0  0  0  0  0
    4.6469    0.9494   -0.5729 H   0  0  0  0  0  0  0  0  0  0  0  0
   -3.2282    0.9427   -2.0858 H   0  0  0  0  0  0  0  0  0  0  0  0
    4.8563   -1.3850    1.1859 H   0  0  0  0  0  0  0  0  0  0  0  0
    6.0238   -0.8066   -0.0172 H   0  0  0  0  0  0  0  0  0  0  0  0
    5.0149   -2.9659   -0.7354 H   0  0  0  0  0  0  0  0  0  0  0  0
    4.5791   -1.6646   -1.8601 H   0  0  0  0  0  0  0  0  0  0  0  0
   -5.1265   -2.1984   -0.5286 H   0  0  0  0  0  0  0  0  0  0  0  0
   -5.4460   -0.8789   -1.6418 H   0  0  0  0  0  0  0  0  0  0  0  0
   -5.2756   -0.5871    1.4093 H   0  0  0  0  0  0  0  0  0  0  0  0
   -5.6328    0.7194    0.2856 H   0  0  0  0  0  0  0  0  0  0  0  0
    2.3920   -1.7142   -1.1641 H   0  0  0  0  0  0  0  0  0  0  0  0
   -7.3386   -1.8061    0.6352 H   0  0  0  0  0  0  0  0  0  0  0  0
   -7.7034   -0.4706   -0.4595 H   0  0  0  0  0  0  0  0  0  0  0  0
   -7.8694    1.0872    1.4956 H   0  0  0  0  0  0  0  0  0  0  0  0
   -7.5039   -0.2586    2.5933 H   0  0  0  0  0  0  0  0  0  0  0  0
   -8.9979   -0.2714    1.6406 H   0  0  0  0  0  0  0  0  0  0  0  0
    0.6453   -3.0925   -0.7874 H   0  0  0  0  0  0  0  0  0  0  0  0
    0.6868   -2.6478    0.9434 H   0  0  0  0  0  0  0  0  0  0  0  0
    0.7313   -4.3612    0.4483 H   0  0  0  0  0  0  0  0  0  0  0  0
  1 17  2  0  0  0  0
  2 25  2  0  0  0  0
  3 10  1  0  0  0  0
  3 14  1  0  0  0  0
  3 15  1  0  0  0  0
  4  6  1  0  0  0  0
  4 16  1  0  0  0  0
  4 18  1  0  0  0  0
  5 17  1  0  0  0  0
  5 19  1  0  0  0  0
  5 41  1  0  0  0  0
  6  7  2  0  0  0  0
  7 20  1  0  0  0  0
  8 21  1  0  0  0  0
  8 25  1  0  0  0  0
  8 51  1  0  0  0  0
  9 11  1  0  0  0  0
  9 12  1  0  0  0  0
  9 13  1  0  0  0  0
  9 28  1  0  0  0  0
 10 12  1  0  0  0  0
 10 16  1  0  0  0  0
 10 29  1  0  0  0  0
 11 14  1  0  0  0  0
 11 17  1  0  0  0  0
 11 30  1  0  0  0  0
 12 31  1  0  0  0  0
 12 32  1  0  0  0  0
 13 15  1  0  0  0  0
 13 33  1  0  0  0  0
 13 34  1  0  0  0  0
 14 35  1  0  0  0  0
 14 36  1  0  0  0  0
 15 37  1  0  0  0  0
 15 38  1  0  0  0  0
 16 39  1  0  0  0  0
 16 40  1  0  0  0  0
 18 20  2  0  0  0  0
 18 42  1  0  0  0  0
 19 21  1  0  0  0  0
 19 43  1  0  0  0  0
 19 44  1  0  0  0  0
 20 22  1  0  0  0  0
 21 45  1  0  0  0  0
 21 46  1  0  0  0  0
 22 23  1  0  0  0  0
 22 47  1  0  0  0  0
 22 48  1  0  0  0  0
 23 24  1  0  0  0  0
 23 49  1  0  0  0  0
 23 50  1  0  0  0  0
 24 26  1  0  0  0  0
 24 52  1  0  0  0  0
 24 53  1  0  0  0  0
 25 27  1  0  0  0  0
 26 54  1  0  0  0  0
 26 55  1  0  0  0  0
 26 56  1  0  0  0  0
 27 57  1  0  0  0  0
 27 58  1  0  0  0  0
 27 59  1  0  0  0  0
M  END
> <PUBCHEM_COMPOUND_CID>
11942509

> <PUBCHEM_CONFORMER_RMSD>
1

> <PUBCHEM_CONFORMER_DIVERSEORDER>
1
72
167
203
133
102
292
189
12
158
20
253
308
37
269
317
302
175
205
200
78
272
261
285
303
122
177
222
201
125
48
306
32
147
65
240
154
234
227
231
46
247
199
239
15
213
237
88
148
155
331
238
176
60
194
289
66
23
202
5
217
39
286
277
258
162
255
179
304
242
11
151
332
233
198
144
185
152
7
260
186
63
267
196
100
250
184
206
90
76
173
105
104
170
214
127
110
251
59
312
169
291
287
140
159
157
283
228
271
188
82
219
241
74
143
298
248
51
160
128
273
85
145
129
40
153
324
263
31
243
114
103
215
320
174
229
225
235
211
168
301
295
313
91
208
296
89
4
290
166
3
135
276
124
309
178
137
93
22
132
280
98
284
310
172
79
297
265
270
95
92
94
305
50
142
24
28
282
118
121
2
97
252
207
311
329
325
84
34
64
259
278
224
171
318
58
117
275
230
14
111
87
212
244
19
288
57
190
164
183
86
49
300
42
75
249
245
8
294
116
25
126
191
193
113
156
161
38
119
163
106
54
70
56
109
279
315
232
257
55
182
16
27
10
322
43
83
80
101
30
17
281
134
112
220
18
268
71
216
197
266
141
314
236
99
146
293
204
150
221
13
81
327
299
330
6
77
187
131
138
254
181
195
246
321
69
192
9
35
26
165
223
120
108
44
307
262
67
316
73
29
264
61
45
130
136
47
226
149
323
41
328
36
218
210
68
180
33
53
52
107
256
209
62
123
96
319
274
326
139
21
115

> <PUBCHEM_MMFF94_PARTIAL_CHARGES>
24
1 -0.57
10 0.27
11 0.06
14 0.27
15 0.27
16 0.26
17 0.57
18 -0.3
19 0.3
2 -0.57
20 0.05
21 0.3
22 0.18
25 0.57
27 0.06
3 -0.81
4 0.31
41 0.37
42 0.15
5 -0.73
51 0.37
6 -0.42
7 -0.23
8 -0.73

> <PUBCHEM_EFFECTIVE_ROTOR_COUNT>
12.2

> <PUBCHEM_PHARMACOPHORE_FEATURES>
8
1 1 acceptor
1 2 acceptor
1 26 hydrophobe
1 3 cation
1 5 donor
1 8 donor
5 4 6 7 18 20 rings
8 3 9 10 11 12 13 14 15 rings

> <PUBCHEM_HEAVY_ATOM_COUNT>
27

> <PUBCHEM_ATOM_DEF_STEREO_COUNT>
3

> <PUBCHEM_ATOM_UDEF_STEREO_COUNT>
0

> <PUBCHEM_BOND_DEF_STEREO_COUNT>
0

> <PUBCHEM_BOND_UDEF_STEREO_COUNT>
0

> <PUBCHEM_ISOTOPIC_ATOM_COUNT>
0

> <PUBCHEM_COMPONENT_COUNT>
1

> <PUBCHEM_CACTVS_TAUTO_COUNT>
4

> <PUBCHEM_CONFORMER_ID>
00B63A6D00000001

> <PUBCHEM_MMFF94_ENERGY>
35.5044

> <PUBCHEM_FEATURE_SELFOVERLAP>
40.597

> <PUBCHEM_SHAPE_FINGERPRINT>
10316853 100 18187369878246142739
10692045 39 18341060674939353171
10816530 23 17615968150682312393
114674 6 18336535105921371274
12107183 9 18202005421967462099
12553582 1 18267562698619039790
12778500 126 17918000451605361211
13402501 40 18334570265768286934
13533116 47 18342459279135379137
13631057 29 18268146449742920318
13785724 45 18200042720239015503
14863182 85 18264198279307078468
17818456 19 17775570819281715369
20578428 11 14997145720948737959
20775530 9 18268416950403014982
20812841 46 18340775862973228051
21421861 104 18343018912862682765
22033318 11 17985013443809825297
23466295 7 17691403010601565382
23559900 14 18262790891147720317
345986 75 17987793008255159587
3737641 26 18269551646508316206
394071 54 18201165373509525039
46194498 28 17748825254164283396
463206 1 18341040921709844150
5309563 4 18340196419390971694
6443956 14 18412260657721973316
70251023 43 18126859205088758334
8509985 295 17560805472012507641

> <PUBCHEM_SHAPE_MULTIPOLES>
514.02
13.18
4.77
1.39
31.95
0.01
-0.04
-7.49
-4.32
-6.91
-0.61
0.53
0.48
-0.11

> <PUBCHEM_SHAPE_SELFOVERLAP>
1055.04

> <PUBCHEM_SHAPE_VOLUME>
293.3

> <PUBCHEM_COORDINATE_TYPE>
2
5
10

$$$$
