11885206
  -OEChem-12032416213D

 54 58  0     1  0  0  0  0  0999 V2000
   -7.1952    0.4865    0.8095 S   0  0  0  0  0  0  0  0  0  0  0  0
    1.4696    5.2010   -1.0972 F   0  0  0  0  0  0  0  0  0  0  0  0
   -1.1808   -2.3135    1.3378 O   0  0  0  0  0  0  0  0  0  0  0  0
    2.9711    0.3901    2.5684 O   0  0  0  0  0  0  0  0  0  0  0  0
    3.4272   -0.6406    0.5181 N   0  0  0  0  0  0  0  0  0  0  0  0
    0.6672   -2.0614   -0.0626 N   0  0  0  0  0  0  0  0  0  0  0  0
    2.9549   -3.0813    0.4782 C   0  0  1  0  0  0  0  0  0  0  0  0
    2.6604   -1.7452   -1.5689 C   0  0  2  0  0  0  0  0  0  0  0  0
    3.1521   -3.0893   -1.0340 C   0  0  0  0  0  0  0  0  0  0  0  0
    3.7575   -1.9333    1.1176 C   0  0  0  0  0  0  0  0  0  0  0  0
    1.4543   -2.9749    0.7790 C   0  0  0  0  0  0  0  0  0  0  0  0
    3.4973   -0.6057   -0.9520 C   0  0  0  0  0  0  0  0  0  0  0  0
    1.1948   -1.5308   -1.2425 C   0  0  0  0  0  0  0  0  0  0  0  0
    0.4199   -0.7992   -2.0591 C   0  0  0  0  0  0  0  0  0  0  0  0
   -0.6685   -1.8365    0.3237 C   0  0  0  0  0  0  0  0  0  0  0  0
    3.0304    0.4170    1.3401 C   0  0  0  0  0  0  0  0  0  0  0  0
   -1.4982   -0.9734   -0.5880 C   0  0  0  0  0  0  0  0  0  0  0  0
   -0.9452   -0.5142   -1.7204 C   0  0  0  0  0  0  0  0  0  0  0  0
    2.6211    1.6716    0.6998 C   0  0  0  0  0  0  0  0  0  0  0  0
   -2.8858   -0.6181   -0.2468 C   0  0  0  0  0  0  0  0  0  0  0  0
    1.2869    1.8699    0.3540 C   0  0  0  0  0  0  0  0  0  0  0  0
    3.5685    2.6594    0.4419 C   0  0  0  0  0  0  0  0  0  0  0  0
   -3.9389   -1.4273   -0.6743 C   0  0  0  0  0  0  0  0  0  0  0  0
   -3.1489    0.5284    0.5038 C   0  0  0  0  0  0  0  0  0  0  0  0
    0.8973    3.0635   -0.2536 C   0  0  0  0  0  0  0  0  0  0  0  0
    3.1789    3.8531   -0.1655 C   0  0  0  0  0  0  0  0  0  0  0  0
   -5.2535   -1.0905   -0.3518 C   0  0  0  0  0  0  0  0  0  0  0  0
   -4.4635    0.8650    0.8265 C   0  0  0  0  0  0  0  0  0  0  0  0
    1.8434    4.0551   -0.5134 C   0  0  0  0  0  0  0  0  0  0  0  0
   -5.5158    0.0556    0.3987 C   0  0  0  0  0  0  0  0  0  0  0  0
   -7.3584    2.1191    0.0329 C   0  0  0  0  0  0  0  0  0  0  0  0
    3.3264   -4.0222    0.9025 H   0  0  0  0  0  0  0  0  0  0  0  0
    2.8059   -1.7343   -2.6568 H   0  0  0  0  0  0  0  0  0  0  0  0
    2.5967   -3.9174   -1.4919 H   0  0  0  0  0  0  0  0  0  0  0  0
    4.2105   -3.2363   -1.2812 H   0  0  0  0  0  0  0  0  0  0  0  0
    3.5917   -1.9132    2.1999 H   0  0  0  0  0  0  0  0  0  0  0  0
    4.8307   -2.0935    0.9580 H   0  0  0  0  0  0  0  0  0  0  0  0
    0.9984   -3.9653    0.6446 H   0  0  0  0  0  0  0  0  0  0  0  0
    1.2924   -2.7088    1.8312 H   0  0  0  0  0  0  0  0  0  0  0  0
    4.5536   -0.7275   -1.2216 H   0  0  0  0  0  0  0  0  0  0  0  0
    3.1790    0.3605   -1.3510 H   0  0  0  0  0  0  0  0  0  0  0  0
    0.8097   -0.3635   -2.9731 H   0  0  0  0  0  0  0  0  0  0  0  0
   -1.4994    0.1158   -2.4100 H   0  0  0  0  0  0  0  0  0  0  0  0
    0.5401    1.1123    0.5694 H   0  0  0  0  0  0  0  0  0  0  0  0
    4.6116    2.5113    0.7088 H   0  0  0  0  0  0  0  0  0  0  0  0
   -3.7504   -2.3244   -1.2592 H   0  0  0  0  0  0  0  0  0  0  0  0
   -2.3390    1.1682    0.8462 H   0  0  0  0  0  0  0  0  0  0  0  0
   -0.1433    3.2218   -0.5210 H   0  0  0  0  0  0  0  0  0  0  0  0
    3.9152    4.6251   -0.3682 H   0  0  0  0  0  0  0  0  0  0  0  0
   -6.0606   -1.7335   -0.6942 H   0  0  0  0  0  0  0  0  0  0  0  0
   -4.6432    1.7590    1.4183 H   0  0  0  0  0  0  0  0  0  0  0  0
   -7.1120    2.0606   -1.0308 H   0  0  0  0  0  0  0  0  0  0  0  0
   -6.7034    2.8466    0.5189 H   0  0  0  0  0  0  0  0  0  0  0  0
   -8.3916    2.4615    0.1340 H   0  0  0  0  0  0  0  0  0  0  0  0
  1 30  1  0  0  0  0
  1 31  1  0  0  0  0
  2 29  1  0  0  0  0
  3 15  2  0  0  0  0
  4 16  2  0  0  0  0
  5 10  1  0  0  0  0
  5 12  1  0  0  0  0
  5 16  1  0  0  0  0
  6 11  1  0  0  0  0
  6 13  1  0  0  0  0
  6 15  1  0  0  0  0
  7  9  1  0  0  0  0
  7 10  1  0  0  0  0
  7 11  1  0  0  0  0
  7 32  1  0  0  0  0
  8  9  1  0  0  0  0
  8 12  1  0  0  0  0
  8 13  1  0  0  0  0
  8 33  1  0  0  0  0
  9 34  1  0  0  0  0
  9 35  1  0  0  0  0
 10 36  1  0  0  0  0
 10 37  1  0  0  0  0
 11 38  1  0  0  0  0
 11 39  1  0  0  0  0
 12 40  1  0  0  0  0
 12 41  1  0  0  0  0
 13 14  2  0  0  0  0
 14 18  1  0  0  0  0
 14 42  1  0  0  0  0
 15 17  1  0  0  0  0
 16 19  1  0  0  0  0
 17 18  2  0  0  0  0
 17 20  1  0  0  0  0
 18 43  1  0  0  0  0
 19 21  2  0  0  0  0
 19 22  1  0  0  0  0
 20 23  2  0  0  0  0
 20 24  1  0  0  0  0
 21 25  1  0  0  0  0
 21 44  1  0  0  0  0
 22 26  2  0  0  0  0
 22 45  1  0  0  0  0
 23 27  1  0  0  0  0
 23 46  1  0  0  0  0
 24 28  2  0  0  0  0
 24 47  1  0  0  0  0
 25 29  2  0  0  0  0
 25 48  1  0  0  0  0
 26 29  1  0  0  0  0
 26 49  1  0  0  0  0
 27 30  2  0  0  0  0
 27 50  1  0  0  0  0
 28 30  1  0  0  0  0
 28 51  1  0  0  0  0
 31 52  1  0  0  0  0
 31 53  1  0  0  0  0
 31 54  1  0  0  0  0
M  END
> <PUBCHEM_COMPOUND_CID>
11885206

> <PUBCHEM_CONFORMER_RMSD>
0.8

> <PUBCHEM_CONFORMER_DIVERSEORDER>
1
8
10
3
7
4
6
2
9
5

> <PUBCHEM_MMFF94_PARTIAL_CHARGES>
39
1 -0.33
10 0.3
11 0.3
12 0.3
13 -0.03
14 -0.15
15 0.62
16 0.54
17 -0.01
18 -0.15
19 0.09
2 -0.19
20 0.03
21 -0.15
22 -0.15
23 -0.15
24 -0.15
25 -0.15
26 -0.15
27 -0.15
28 -0.15
29 0.19
3 -0.57
30 0.1
31 0.23
4 -0.57
42 0.15
43 0.15
44 0.15
45 0.15
46 0.15
47 0.15
48 0.15
49 0.15
5 -0.66
50 0.15
51 0.15
6 -0.47
8 0.14

> <PUBCHEM_EFFECTIVE_ROTOR_COUNT>
5

> <PUBCHEM_PHARMACOPHORE_FEATURES>
8
1 3 acceptor
1 31 hydrophobe
1 4 acceptor
6 19 21 22 25 26 29 rings
6 20 23 24 27 28 30 rings
6 5 7 8 9 10 12 rings
6 6 13 14 15 17 18 rings
6 6 7 8 9 11 13 rings

> <PUBCHEM_HEAVY_ATOM_COUNT>
31

> <PUBCHEM_ATOM_DEF_STEREO_COUNT>
2

> <PUBCHEM_ATOM_UDEF_STEREO_COUNT>
0

> <PUBCHEM_BOND_DEF_STEREO_COUNT>
0

> <PUBCHEM_BOND_UDEF_STEREO_COUNT>
0

> <PUBCHEM_ISOTOPIC_ATOM_COUNT>
0

> <PUBCHEM_COMPONENT_COUNT>
1

> <PUBCHEM_CACTVS_TAUTO_COUNT>
1

> <PUBCHEM_CONFORMER_ID>
00B55A9600000001

> <PUBCHEM_MMFF94_ENERGY>
90.2298

> <PUBCHEM_FEATURE_SELFOVERLAP>
42.191

> <PUBCHEM_SHAPE_FINGERPRINT>
10165383 225 18041289845964094926
10483366 6 18338816601898609892
10937287 8 17762054745774036876
11421498 54 18044383717029293298
11456790 92 17823986624152409345
11578080 2 18192734429821619027
12156800 1 14473908834705883184
12422481 6 17841398528870943674
12633257 1 18042664256572744106
12788726 201 17831597383368335926
13150687 139 11095300003078413738
133893 2 18057071114196788578
13583140 156 18189881064045667751
13878862 14 18336250268370305981
13944108 23 18408892836258285564
13965767 371 17630579328997067826
14251764 38 18266179620507950203
14790565 3 17833553770461798861
14849402 71 18408609188185410348
15420108 30 18058433478387757430
15439362 3 18196096766792515700
15475509 84 17469596317795140051
18785283 64 18335701701497070832
20739085 24 18410565215477514560
21033648 29 17458333140271985871
21475661 188 18338801216259722319
21859007 373 17823687583165997253
21860390 5 18342459252959575678
22149856 69 16630260152023230403
23559900 14 18201447956239632303
3411729 13 18341897432482410717
345986 75 17679574537229146162
373842 8 18339641132303355961
397830 11 18189631583013256379
4409770 3 17043460739559585702
474 4 18340199812309419207
5104073 3 18338531802638116131
513532 50 16988849392941018252
53794403 172 18264214767380462309
9896288 288 17398115336202146496
9981440 41 17979356687732279035

> <PUBCHEM_SHAPE_MULTIPOLES>
612.84
12.33
5.01
1.55
30.11
5.71
-0.01
2.99
-2.81
-6.75
0.86
-1.11
-0.4
-0.29

> <PUBCHEM_SHAPE_SELFOVERLAP>
1337.368

> <PUBCHEM_SHAPE_VOLUME>
338.9

> <PUBCHEM_COORDINATE_TYPE>
2
5
10

$$$$
