28991387
  -OEChem-12032416173D

 63 67  0     1  0  0  0  0  0999 V2000
   -2.8148   -3.5330   -3.0429 F   0  0  0  0  0  0  0  0  0  0  0  0
   -3.8551   -5.2336   -1.1716 F   0  0  0  0  0  0  0  0  0  0  0  0
    1.8674   -2.6640    2.1938 O   0  0  0  0  0  0  0  0  0  0  0  0
    0.5783   -0.8088    2.6765 O   0  0  0  0  0  0  0  0  0  0  0  0
   -5.5265    4.7829    0.5819 O   0  0  0  0  0  0  0  0  0  0  0  0
    0.0852   -0.3258    0.0291 N   0  0  2  0  0  0  0  0  0  0  0  0
   -2.3336    3.1877   -0.3086 N   0  0  0  0  0  0  0  0  0  0  0  0
    2.9176    2.1394   -0.0598 N   0  0  0  0  0  0  0  0  0  0  0  0
    0.6851    0.9849    0.4276 C   0  0  2  0  0  0  0  0  0  0  0  0
   -1.3327   -0.4397    0.4551 C   0  0  1  0  0  0  0  0  0  0  0  0
   -0.1157    2.1528   -0.1693 C   0  0  0  0  0  0  0  0  0  0  0  0
   -1.5722    2.0925    0.2898 C   0  0  2  0  0  0  0  0  0  0  0  0
   -2.1736    0.7401   -0.0898 C   0  0  0  0  0  0  0  0  0  0  0  0
    0.9411   -1.4886    0.3917 C   0  0  1  0  0  0  0  0  0  0  0  0
    2.1239    1.0285    0.0077 C   0  0  0  0  0  0  0  0  0  0  0  0
    2.3274   -1.4449   -0.3005 C   0  0  0  0  0  0  0  0  0  0  0  0
    2.8943   -0.0687   -0.3098 C   0  0  0  0  0  0  0  0  0  0  0  0
   -2.0137   -1.7337    0.0163 C   0  0  0  0  0  0  0  0  0  0  0  0
    4.2025    0.3934   -0.6184 C   0  0  0  0  0  0  0  0  0  0  0  0
    4.1895    1.7822   -0.4547 C   0  0  0  0  0  0  0  0  0  0  0  0
    1.0895   -1.5881    1.8837 C   0  0  0  0  0  0  0  0  0  0  0  0
   -3.5398    3.4564    0.4588 C   0  0  0  0  0  0  0  0  0  0  0  0
   -2.1052   -2.0483   -1.3396 C   0  0  0  0  0  0  0  0  0  0  0  0
   -2.5440   -2.6015    0.9708 C   0  0  0  0  0  0  0  0  0  0  0  0
    5.4016   -0.2306   -1.0173 C   0  0  0  0  0  0  0  0  0  0  0  0
    5.3205    2.5773   -0.6725 C   0  0  0  0  0  0  0  0  0  0  0  0
   -4.3522    4.5662   -0.1894 C   0  0  0  0  0  0  0  0  0  0  0  0
    6.5391    0.5536   -1.2402 C   0  0  0  0  0  0  0  0  0  0  0  0
   -2.7270   -3.2308   -1.7409 C   0  0  0  0  0  0  0  0  0  0  0  0
   -3.1660   -3.7838    0.5696 C   0  0  0  0  0  0  0  0  0  0  0  0
    6.4970    1.9357   -1.0700 C   0  0  0  0  0  0  0  0  0  0  0  0
   -3.2575   -4.0986   -0.7863 C   0  0  0  0  0  0  0  0  0  0  0  0
    2.0917   -2.8785    3.5909 C   0  0  0  0  0  0  0  0  0  0  0  0
   -6.3222    5.8273    0.0381 C   0  0  0  0  0  0  0  0  0  0  0  0
    0.6643    1.1189    1.5147 H   0  0  0  0  0  0  0  0  0  0  0  0
   -1.4004   -0.3754    1.5473 H   0  0  0  0  0  0  0  0  0  0  0  0
    0.3229    3.1096    0.1435 H   0  0  0  0  0  0  0  0  0  0  0  0
   -0.0574    2.1278   -1.2670 H   0  0  0  0  0  0  0  0  0  0  0  0
   -1.5713    2.1950    1.3840 H   0  0  0  0  0  0  0  0  0  0  0  0
   -2.2549    0.6850   -1.1842 H   0  0  0  0  0  0  0  0  0  0  0  0
   -3.1962    0.6490    0.2976 H   0  0  0  0  0  0  0  0  0  0  0  0
    0.4646   -2.4196    0.0636 H   0  0  0  0  0  0  0  0  0  0  0  0
    2.2039   -1.7595   -1.3455 H   0  0  0  0  0  0  0  0  0  0  0  0
    3.0425   -2.1369    0.1569 H   0  0  0  0  0  0  0  0  0  0  0  0
   -1.7639    4.0335   -0.3316 H   0  0  0  0  0  0  0  0  0  0  0  0
    2.6240    3.0846    0.1448 H   0  0  0  0  0  0  0  0  0  0  0  0
   -3.2934    3.7508    1.4870 H   0  0  0  0  0  0  0  0  0  0  0  0
   -4.1802    2.5707    0.5352 H   0  0  0  0  0  0  0  0  0  0  0  0
   -1.6898   -1.3919   -2.0991 H   0  0  0  0  0  0  0  0  0  0  0  0
   -2.4792   -2.3709    2.0308 H   0  0  0  0  0  0  0  0  0  0  0  0
    5.4500   -1.3073   -1.1531 H   0  0  0  0  0  0  0  0  0  0  0  0
    5.2898    3.6535   -0.5388 H   0  0  0  0  0  0  0  0  0  0  0  0
   -4.6354    4.2834   -1.2106 H   0  0  0  0  0  0  0  0  0  0  0  0
   -3.7659    5.4924   -0.2299 H   0  0  0  0  0  0  0  0  0  0  0  0
    7.4658    0.0771   -1.5489 H   0  0  0  0  0  0  0  0  0  0  0  0
   -3.5788   -4.4598    1.3126 H   0  0  0  0  0  0  0  0  0  0  0  0
    7.3926    2.5255   -1.2478 H   0  0  0  0  0  0  0  0  0  0  0  0
    2.7236   -3.7635    3.7018 H   0  0  0  0  0  0  0  0  0  0  0  0
    1.1418   -3.0581    4.1034 H   0  0  0  0  0  0  0  0  0  0  0  0
    2.6104   -2.0194    4.0269 H   0  0  0  0  0  0  0  0  0  0  0  0
   -7.2088    5.9472    0.6665 H   0  0  0  0  0  0  0  0  0  0  0  0
   -6.6450    5.5752   -0.9766 H   0  0  0  0  0  0  0  0  0  0  0  0
   -5.7672    6.7704    0.0342 H   0  0  0  0  0  0  0  0  0  0  0  0
  1 29  1  0  0  0  0
  2 32  1  0  0  0  0
  3 21  1  0  0  0  0
  3 33  1  0  0  0  0
  4 21  2  0  0  0  0
  5 27  1  0  0  0  0
  5 34  1  0  0  0  0
  6  9  1  0  0  0  0
  6 10  1  0  0  0  0
  6 14  1  0  0  0  0
  7 12  1  0  0  0  0
  7 22  1  0  0  0  0
  7 45  1  0  0  0  0
  8 15  1  0  0  0  0
  8 20  1  0  0  0  0
  8 46  1  0  0  0  0
  9 11  1  0  0  0  0
  9 15  1  0  0  0  0
  9 35  1  0  0  0  0
 10 13  1  0  0  0  0
 10 18  1  0  0  0  0
 10 36  1  0  0  0  0
 11 12  1  0  0  0  0
 11 37  1  0  0  0  0
 11 38  1  0  0  0  0
 12 13  1  0  0  0  0
 12 39  1  0  0  0  0
 13 40  1  0  0  0  0
 13 41  1  0  0  0  0
 14 16  1  0  0  0  0
 14 21  1  0  0  0  0
 14 42  1  0  0  0  0
 15 17  2  0  0  0  0
 16 17  1  0  0  0  0
 16 43  1  0  0  0  0
 16 44  1  0  0  0  0
 17 19  1  0  0  0  0
 18 23  2  0  0  0  0
 18 24  1  0  0  0  0
 19 20  1  0  0  0  0
 19 25  2  0  0  0  0
 20 26  2  0  0  0  0
 22 27  1  0  0  0  0
 22 47  1  0  0  0  0
 22 48  1  0  0  0  0
 23 29  1  0  0  0  0
 23 49  1  0  0  0  0
 24 30  2  0  0  0  0
 24 50  1  0  0  0  0
 25 28  1  0  0  0  0
 25 51  1  0  0  0  0
 26 31  1  0  0  0  0
 26 52  1  0  0  0  0
 27 53  1  0  0  0  0
 27 54  1  0  0  0  0
 28 31  2  0  0  0  0
 28 55  1  0  0  0  0
 29 32  2  0  0  0  0
 30 32  1  0  0  0  0
 30 56  1  0  0  0  0
 31 57  1  0  0  0  0
 33 58  1  0  0  0  0
 33 59  1  0  0  0  0
 33 60  1  0  0  0  0
 34 61  1  0  0  0  0
 34 62  1  0  0  0  0
 34 63  1  0  0  0  0
M  END
> <PUBCHEM_COMPOUND_CID>
28991387

> <PUBCHEM_CONFORMER_RMSD>
1

> <PUBCHEM_CONFORMER_DIVERSEORDER>
1
8
11
15
5
24
16
31
9
18
28
17
27
13
23
25
10
19
22
14
4
26
7
2
29
20
12
21
3
6
30

> <PUBCHEM_MMFF94_PARTIAL_CHARGES>
40
1 -0.19
10 0.41
12 0.27
14 0.33
15 -0.33
16 0.18
17 -0.18
18 -0.14
2 -0.19
20 -0.15
21 0.66
22 0.27
23 -0.15
24 -0.15
25 -0.15
26 -0.15
27 0.28
28 -0.15
29 0.19
3 -0.43
30 -0.15
31 -0.15
32 0.19
33 0.28
34 0.28
4 -0.57
45 0.36
46 0.27
49 0.15
5 -0.56
50 0.15
51 0.15
52 0.15
55 0.15
56 0.15
57 0.15
6 -0.81
7 -0.9
8 0.03
9 0.45

> <PUBCHEM_EFFECTIVE_ROTOR_COUNT>
8.2

> <PUBCHEM_PHARMACOPHORE_FEATURES>
12
1 4 acceptor
1 5 acceptor
1 6 cation
1 7 cation
1 7 donor
1 8 cation
1 8 donor
5 8 15 17 19 20 rings
6 18 23 24 29 30 32 rings
6 19 20 25 26 28 31 rings
6 6 9 10 11 12 13 rings
6 6 9 14 15 16 17 rings

> <PUBCHEM_HEAVY_ATOM_COUNT>
34

> <PUBCHEM_ATOM_DEF_STEREO_COUNT>
4

> <PUBCHEM_ATOM_UDEF_STEREO_COUNT>
0

> <PUBCHEM_BOND_DEF_STEREO_COUNT>
0

> <PUBCHEM_BOND_UDEF_STEREO_COUNT>
0

> <PUBCHEM_ISOTOPIC_ATOM_COUNT>
0

> <PUBCHEM_COMPONENT_COUNT>
1

> <PUBCHEM_CACTVS_TAUTO_COUNT>
1

> <PUBCHEM_CONFORMER_ID>
01BA5F9B00000001

> <PUBCHEM_MMFF94_ENERGY>
71.9237

> <PUBCHEM_FEATURE_SELFOVERLAP>
61.091

> <PUBCHEM_SHAPE_FINGERPRINT>
10006869 2 18261394400091116491
10190206 1 18408881858495515285
11386260 185 17550645040359782159
11445158 3 17537988169988396317
11991303 11 18336272262465545845
12293681 160 17753036486899303578
12633257 1 13468465077725005359
12788726 201 18339908390747672255
133893 2 16589404455158863930
13540713 5 18260256435536840594
13911987 19 17608656351176193446
140371 6 17612601424703822316
14347332 77 18340770468009117822
14400156 266 17972564785992519690
14400156 350 17614275572643209965
14790565 3 18194122919786848645
15131766 46 15216435660712127244
15198563 99 18269837691472512565
15276724 80 18341060678537890647
15361156 5 18120117193144790220
15439362 3 18125163728056579044
15444296 8 18057889245785619037
15484559 13 17834967364726100071
15629462 23 18262525930078345410
15927050 60 18336832995872300841
16087824 20 18411423943434309899
16090146 7 17842280259380528426
16114785 44 18115325469435696912
19301676 85 17622466947571976654
20505436 4 18115596928701185936
23536364 44 18118108389115497263
23558518 356 18188218692616331600
23559900 14 17610908172886746988
283562 15 18116993484424905448
3388396 114 17470473070960882676
38695281 34 18194691362523367701
4461854 278 18268451100589831881
57527295 17 18334022696878723254
6898599 12 18411146843832672396
9658208 31 18272359845981207521

> <PUBCHEM_SHAPE_MULTIPOLES>
652.61
12.45
7.6
2
8.91
2.98
1.17
15.22
-4.83
-18.84
-0.79
0.43
-3.24
-4.27

> <PUBCHEM_SHAPE_SELFOVERLAP>
1419.629

> <PUBCHEM_SHAPE_VOLUME>
357.3

> <PUBCHEM_COORDINATE_TYPE>
2
5
10

$$$$
