7687186
  -OEChem-12032416153D

 49 53  0     1  0  0  0  0  0999 V2000
   -3.0771    1.0932   -2.9894 O   0  0  0  0  0  0  0  0  0  0  0  0
   -0.4103    3.7921    0.3491 O   0  0  0  0  0  0  0  0  0  0  0  0
   -1.0002    1.8100    1.4397 N   0  0  0  0  0  0  0  0  0  0  0  0
   -2.4534    0.2600   -0.8911 N   0  0  0  0  0  0  0  0  0  0  0  0
    1.8982   -3.1517    1.0469 N   0  0  0  0  0  0  0  0  0  0  0  0
    0.0597   -4.7048    0.9255 N   0  0  0  0  0  0  0  0  0  0  0  0
    6.0241    0.2631   -1.0312 N   0  0  0  0  0  0  0  0  0  0  0  0
   -3.4106    1.2484    1.2756 C   0  0  1  0  0  0  0  0  0  0  0  0
   -1.7468   -0.5610    1.3763 C   0  0  2  0  0  0  0  0  0  0  0  0
   -3.1328   -0.1304    1.8549 C   0  0  0  0  0  0  0  0  0  0  0  0
   -2.3549    2.2595    1.7533 C   0  0  0  0  0  0  0  0  0  0  0  0
   -3.4460    1.1351   -0.2494 C   0  0  0  0  0  0  0  0  0  0  0  0
   -0.6891    0.4436    1.8840 C   0  0  0  0  0  0  0  0  0  0  0  0
   -1.6826   -0.6614   -0.1520 C   0  0  0  0  0  0  0  0  0  0  0  0
   -0.8997   -1.5643   -0.8019 C   0  0  0  0  0  0  0  0  0  0  0  0
   -2.4173    0.3189   -2.2956 C   0  0  0  0  0  0  0  0  0  0  0  0
   -0.1467    2.6490    0.7193 C   0  0  0  0  0  0  0  0  0  0  0  0
   -0.8355   -1.5274   -2.2519 C   0  0  0  0  0  0  0  0  0  0  0  0
   -1.5237   -0.6448   -2.9752 C   0  0  0  0  0  0  0  0  0  0  0  0
   -0.1299   -2.5329   -0.0692 C   0  0  0  0  0  0  0  0  0  0  0  0
    1.1766    2.1372    0.3438 C   0  0  0  0  0  0  0  0  0  0  0  0
    1.1481   -2.2671    0.3578 C   0  0  0  0  0  0  0  0  0  0  0  0
   -0.6341   -3.7724    0.2401 C   0  0  0  0  0  0  0  0  0  0  0  0
    1.3437    1.4723   -0.8685 C   0  0  0  0  0  0  0  0  0  0  0  0
    2.2587    2.3187    1.2012 C   0  0  0  0  0  0  0  0  0  0  0  0
    2.6011    0.9855   -1.2255 C   0  0  0  0  0  0  0  0  0  0  0  0
    3.5162    1.8319    0.8442 C   0  0  0  0  0  0  0  0  0  0  0  0
    3.6873    1.1653   -0.3692 C   0  0  0  0  0  0  0  0  0  0  0  0
    1.3009   -4.3334    1.2927 C   0  0  0  0  0  0  0  0  0  0  0  0
    4.9761    0.6677   -0.7342 C   0  0  0  0  0  0  0  0  0  0  0  0
   -4.3895    1.6028    1.6211 H   0  0  0  0  0  0  0  0  0  0  0  0
   -1.5437   -1.5328    1.8393 H   0  0  0  0  0  0  0  0  0  0  0  0
   -3.8963   -0.8491    1.5319 H   0  0  0  0  0  0  0  0  0  0  0  0
   -3.1659   -0.0978    2.9508 H   0  0  0  0  0  0  0  0  0  0  0  0
   -2.5489    3.2446    1.3159 H   0  0  0  0  0  0  0  0  0  0  0  0
   -2.4104    2.3733    2.8428 H   0  0  0  0  0  0  0  0  0  0  0  0
   -4.4248    0.7329   -0.5455 H   0  0  0  0  0  0  0  0  0  0  0  0
   -3.3823    2.1313   -0.7057 H   0  0  0  0  0  0  0  0  0  0  0  0
   -0.6926    0.4621    2.9812 H   0  0  0  0  0  0  0  0  0  0  0  0
    0.3150    0.1454    1.5826 H   0  0  0  0  0  0  0  0  0  0  0  0
   -0.1879   -2.2402   -2.7544 H   0  0  0  0  0  0  0  0  0  0  0  0
   -1.4625   -0.6219   -4.0567 H   0  0  0  0  0  0  0  0  0  0  0  0
    1.6406   -1.3237    0.1620 H   0  0  0  0  0  0  0  0  0  0  0  0
   -1.6344   -4.0768   -0.0527 H   0  0  0  0  0  0  0  0  0  0  0  0
    0.5078    1.3401   -1.5483 H   0  0  0  0  0  0  0  0  0  0  0  0
    2.1352    2.8359    2.1490 H   0  0  0  0  0  0  0  0  0  0  0  0
    2.7185    0.4697   -2.1755 H   0  0  0  0  0  0  0  0  0  0  0  0
    4.3532    1.9795    1.5224 H   0  0  0  0  0  0  0  0  0  0  0  0
    1.8808   -5.0629    1.8447 H   0  0  0  0  0  0  0  0  0  0  0  0
  1 16  2  0  0  0  0
  2 17  2  0  0  0  0
  3 11  1  0  0  0  0
  3 13  1  0  0  0  0
  3 17  1  0  0  0  0
  4 12  1  0  0  0  0
  4 14  1  0  0  0  0
  4 16  1  0  0  0  0
  5 22  2  0  0  0  0
  5 29  1  0  0  0  0
  6 23  1  0  0  0  0
  6 29  2  0  0  0  0
  7 30  3  0  0  0  0
  8 10  1  0  0  0  0
  8 11  1  0  0  0  0
  8 12  1  0  0  0  0
  8 31  1  0  0  0  0
  9 10  1  0  0  0  0
  9 13  1  0  0  0  0
  9 14  1  0  0  0  0
  9 32  1  0  0  0  0
 10 33  1  0  0  0  0
 10 34  1  0  0  0  0
 11 35  1  0  0  0  0
 11 36  1  0  0  0  0
 12 37  1  0  0  0  0
 12 38  1  0  0  0  0
 13 39  1  0  0  0  0
 13 40  1  0  0  0  0
 14 15  2  0  0  0  0
 15 18  1  0  0  0  0
 15 20  1  0  0  0  0
 16 19  1  0  0  0  0
 17 21  1  0  0  0  0
 18 19  2  0  0  0  0
 18 41  1  0  0  0  0
 19 42  1  0  0  0  0
 20 22  1  0  0  0  0
 20 23  2  0  0  0  0
 21 24  2  0  0  0  0
 21 25  1  0  0  0  0
 22 43  1  0  0  0  0
 23 44  1  0  0  0  0
 24 26  1  0  0  0  0
 24 45  1  0  0  0  0
 25 27  2  0  0  0  0
 25 46  1  0  0  0  0
 26 28  2  0  0  0  0
 26 47  1  0  0  0  0
 27 28  1  0  0  0  0
 27 48  1  0  0  0  0
 28 30  1  0  0  0  0
 29 49  1  0  0  0  0
M  END
> <PUBCHEM_COMPOUND_CID>
7687186

> <PUBCHEM_CONFORMER_RMSD>
0.8

> <PUBCHEM_CONFORMER_DIVERSEORDER>
1
2

> <PUBCHEM_MMFF94_PARTIAL_CHARGES>
37
1 -0.57
11 0.3
12 0.3
13 0.3
14 -0.03
15 -0.03
16 0.62
17 0.54
18 -0.15
19 -0.14
2 -0.57
20 0.03
21 0.09
22 0.16
23 0.16
24 -0.15
25 -0.15
26 -0.15
27 -0.15
28 0.07
29 0.47
3 -0.66
30 0.48
4 -0.47
41 0.15
42 0.15
43 0.15
44 0.15
45 0.15
46 0.15
47 0.15
48 0.15
49 0.15
5 -0.62
6 -0.62
7 -0.56
9 0.14

> <PUBCHEM_EFFECTIVE_ROTOR_COUNT>
4

> <PUBCHEM_PHARMACOPHORE_FEATURES>
10
1 1 acceptor
1 2 acceptor
1 5 acceptor
1 7 acceptor
3 5 6 29 cation
6 21 24 25 26 27 28 rings
6 3 8 9 10 11 13 rings
6 4 14 15 16 18 19 rings
6 4 8 9 10 12 14 rings
6 5 6 20 22 23 29 rings

> <PUBCHEM_HEAVY_ATOM_COUNT>
30

> <PUBCHEM_ATOM_DEF_STEREO_COUNT>
2

> <PUBCHEM_ATOM_UDEF_STEREO_COUNT>
0

> <PUBCHEM_BOND_DEF_STEREO_COUNT>
0

> <PUBCHEM_BOND_UDEF_STEREO_COUNT>
0

> <PUBCHEM_ISOTOPIC_ATOM_COUNT>
0

> <PUBCHEM_COMPONENT_COUNT>
1

> <PUBCHEM_CACTVS_TAUTO_COUNT>
1

> <PUBCHEM_CONFORMER_ID>
00754C1200000001

> <PUBCHEM_MMFF94_ENERGY>
88.7426

> <PUBCHEM_FEATURE_SELFOVERLAP>
52.332

> <PUBCHEM_SHAPE_FINGERPRINT>
10165383 225 18187937195716223118
10764073 3 17911831229290892035
11285246 1 17837746165469707598
11578080 2 17388552514334772317
12035759 4 17774708802023302581
12156800 1 11805125081130512664
12539773 59 17631740335285729635
133893 2 18193542381720206471
15274700 242 18334016073854446104
17974551 9 16761434362226481723
17980427 23 17265245476340103145
20775530 9 16966044693026491418
20905425 154 17765183603436535793
21330990 113 17900810858737163655
23419403 2 17534348834140509207
35225 105 17831333792039028343
392239 28 18124062214863604907
404807 14 14253249941707569260
513532 50 15978569799859858949
57527306 92 17632028502233021881
57527585 103 17905878528950576066

> <PUBCHEM_SHAPE_MULTIPOLES>
580.74
6.51
4.92
2.44
9.31
5.65
1.65
-3.41
1.5
0.43
-2.76
-2.12
-0.03
-0.55

> <PUBCHEM_SHAPE_SELFOVERLAP>
1292.499

> <PUBCHEM_SHAPE_VOLUME>
299.4

> <PUBCHEM_COORDINATE_TYPE>
2
5
10

$$$$
