40777919
  -OEChem-12032416173D

 49 51  0     1  0  0  0  0  0999 V2000
   -2.4141   -0.2601   -0.9016 O   0  0  0  0  0  0  0  0  0  0  0  0
   -4.7303   -0.9696    0.9385 O   0  0  0  0  0  0  0  0  0  0  0  0
   -4.3194    1.7073    1.4220 O   0  0  0  0  0  0  0  0  0  0  0  0
   -0.6421   -2.8075   -1.1559 O   0  0  0  0  0  0  0  0  0  0  0  0
   -0.0520    0.9713   -2.2761 O   0  0  0  0  0  0  0  0  0  0  0  0
    1.0663   -2.4506    0.3748 N   0  0  0  0  0  0  0  0  0  0  0  0
   -1.0499    2.2089   -0.5862 N   0  0  0  0  0  0  0  0  0  0  0  0
    2.0444   -3.2837   -0.2640 C   0  0  0  0  0  0  0  0  0  0  0  0
    3.1795   -3.8832    0.5127 C   0  0  0  0  0  0  0  0  0  0  0  0
    2.0856   -4.7632   -0.0170 C   0  0  0  0  0  0  0  0  0  0  0  0
   -2.4615   -1.1759    0.2165 C   0  0  2  0  0  0  0  0  0  0  0  0
   -3.4002   -0.5519    1.2433 C   0  0  1  0  0  0  0  0  0  0  0  0
   -3.2364    0.9274    0.9622 C   0  0  1  0  0  0  0  0  0  0  0  0
   -3.1279    0.9392   -0.5534 C   0  0  1  0  0  0  0  0  0  0  0  0
   -1.0410   -1.3508    0.7361 C   0  0  0  0  0  0  0  0  0  0  0  0
   -0.2142   -2.2800   -0.1326 C   0  0  0  0  0  0  0  0  0  0  0  0
   -2.3884    2.1497   -1.0946 C   0  0  0  0  0  0  0  0  0  0  0  0
    0.0287    1.6056   -1.2274 C   0  0  0  0  0  0  0  0  0  0  0  0
    1.3484    1.7363   -0.5579 C   0  0  0  0  0  0  0  0  0  0  0  0
    2.3315    0.7671   -0.7579 C   0  0  0  0  0  0  0  0  0  0  0  0
    1.6042    2.8284    0.2713 C   0  0  0  0  0  0  0  0  0  0  0  0
    3.5701    0.8898   -0.1284 C   0  0  0  0  0  0  0  0  0  0  0  0
    2.8427    2.9512    0.9008 C   0  0  0  0  0  0  0  0  0  0  0  0
    3.8257    1.9819    0.7010 C   0  0  0  0  0  0  0  0  0  0  0  0
    5.1503    2.1126    1.3740 C   0  0  0  0  0  0  0  0  0  0  0  0
    2.2798   -2.9452   -1.2684 H   0  0  0  0  0  0  0  0  0  0  0  0
    3.2187   -3.7183    1.5824 H   0  0  0  0  0  0  0  0  0  0  0  0
    4.1482   -3.9365    0.0311 H   0  0  0  0  0  0  0  0  0  0  0  0
    2.3172   -5.4082   -0.8557 H   0  0  0  0  0  0  0  0  0  0  0  0
    1.3912   -5.1877    0.6977 H   0  0  0  0  0  0  0  0  0  0  0  0
   -2.8615   -2.1258   -0.1563 H   0  0  0  0  0  0  0  0  0  0  0  0
   -3.1950   -0.8226    2.2829 H   0  0  0  0  0  0  0  0  0  0  0  0
   -2.3204    1.2848    1.4448 H   0  0  0  0  0  0  0  0  0  0  0  0
   -4.1202    0.8930   -1.0194 H   0  0  0  0  0  0  0  0  0  0  0  0
   -0.5176   -0.3921    0.8048 H   0  0  0  0  0  0  0  0  0  0  0  0
   -1.0673   -1.7972    1.7379 H   0  0  0  0  0  0  0  0  0  0  0  0
    1.3409   -1.9650    1.2246 H   0  0  0  0  0  0  0  0  0  0  0  0
   -2.8963    3.0773   -0.8119 H   0  0  0  0  0  0  0  0  0  0  0  0
   -2.3431    2.0995   -2.1881 H   0  0  0  0  0  0  0  0  0  0  0  0
   -4.7794   -1.9267    1.1035 H   0  0  0  0  0  0  0  0  0  0  0  0
   -4.4061    1.5515    2.3778 H   0  0  0  0  0  0  0  0  0  0  0  0
   -0.9211    2.6755    0.3050 H   0  0  0  0  0  0  0  0  0  0  0  0
    2.1509   -0.0911   -1.3995 H   0  0  0  0  0  0  0  0  0  0  0  0
    0.8789    3.6210    0.4289 H   0  0  0  0  0  0  0  0  0  0  0  0
    4.3279    0.1282   -0.2925 H   0  0  0  0  0  0  0  0  0  0  0  0
    3.0334    3.8107    1.5380 H   0  0  0  0  0  0  0  0  0  0  0  0
    5.8446    2.6646    0.7327 H   0  0  0  0  0  0  0  0  0  0  0  0
    5.0583    2.6417    2.3287 H   0  0  0  0  0  0  0  0  0  0  0  0
    5.5805    1.1294    1.5930 H   0  0  0  0  0  0  0  0  0  0  0  0
  1 11  1  0  0  0  0
  1 14  1  0  0  0  0
  2 12  1  0  0  0  0
  2 40  1  0  0  0  0
  3 13  1  0  0  0  0
  3 41  1  0  0  0  0
  4 16  2  0  0  0  0
  5 18  2  0  0  0  0
  6  8  1  0  0  0  0
  6 16  1  0  0  0  0
  6 37  1  0  0  0  0
  7 17  1  0  0  0  0
  7 18  1  0  0  0  0
  7 42  1  0  0  0  0
  8  9  1  0  0  0  0
  8 10  1  0  0  0  0
  8 26  1  0  0  0  0
  9 10  1  0  0  0  0
  9 27  1  0  0  0  0
  9 28  1  0  0  0  0
 10 29  1  0  0  0  0
 10 30  1  0  0  0  0
 11 12  1  0  0  0  0
 11 15  1  0  0  0  0
 11 31  1  0  0  0  0
 12 13  1  0  0  0  0
 12 32  1  0  0  0  0
 13 14  1  0  0  0  0
 13 33  1  0  0  0  0
 14 17  1  0  0  0  0
 14 34  1  0  0  0  0
 15 16  1  0  0  0  0
 15 35  1  0  0  0  0
 15 36  1  0  0  0  0
 17 38  1  0  0  0  0
 17 39  1  0  0  0  0
 18 19  1  0  0  0  0
 19 20  2  0  0  0  0
 19 21  1  0  0  0  0
 20 22  1  0  0  0  0
 20 43  1  0  0  0  0
 21 23  2  0  0  0  0
 21 44  1  0  0  0  0
 22 24  2  0  0  0  0
 22 45  1  0  0  0  0
 23 24  1  0  0  0  0
 23 46  1  0  0  0  0
 24 25  1  0  0  0  0
 25 47  1  0  0  0  0
 25 48  1  0  0  0  0
 25 49  1  0  0  0  0
M  END
> <PUBCHEM_COMPOUND_CID>
40777919

> <PUBCHEM_CONFORMER_RMSD>
1

> <PUBCHEM_CONFORMER_DIVERSEORDER>
2
31
75
140
23
124
32
152
84
28
87
138
92
4
88
119
63
134
126
113
77
139
94
59
150
53
132
64
151
81
110
51
71
39
58
37
60
115
109
112
102
99
78
145
67
15
118
12
100
146
122
95
22
97
14
57
123
49
83
104
42
127
48
29
79
117
125
21
6
141
65
62
101
70
46
130
34
143
116
54
85
82
103
3
27
98
16
69
40
107
86
43
18
24
47
76
121
91
105
61
148
13
96
68
147
35
108
73
111
36
80
120
114
144
142
136
8
137
17
74
131
26
50
7
93
25
128
38
33
44
133
1
89
90
5
55
135
129
149
30
10
19
153
9
20
11
45
72
41
66
56
106
52

> <PUBCHEM_MMFF94_PARTIAL_CHARGES>
38
1 -0.56
10 -0.2
11 0.28
12 0.28
13 0.28
14 0.28
15 0.06
16 0.57
17 0.3
18 0.54
19 0.09
2 -0.68
20 -0.15
21 -0.15
22 -0.15
23 -0.15
24 -0.14
25 0.14
26 0.1
27 0.1
28 0.1
29 0.1
3 -0.68
30 0.1
37 0.37
4 -0.57
40 0.4
41 0.4
42 0.37
43 0.15
44 0.15
45 0.15
46 0.15
5 -0.57
6 -0.58
7 -0.73
8 0.05
9 -0.2

> <PUBCHEM_EFFECTIVE_ROTOR_COUNT>
9.6

> <PUBCHEM_PHARMACOPHORE_FEATURES>
11
1 1 acceptor
1 2 acceptor
1 2 donor
1 3 acceptor
1 3 donor
1 4 acceptor
1 5 acceptor
1 6 donor
1 7 donor
5 1 11 12 13 14 rings
6 19 20 21 22 23 24 rings

> <PUBCHEM_HEAVY_ATOM_COUNT>
25

> <PUBCHEM_ATOM_DEF_STEREO_COUNT>
4

> <PUBCHEM_ATOM_UDEF_STEREO_COUNT>
0

> <PUBCHEM_BOND_DEF_STEREO_COUNT>
0

> <PUBCHEM_BOND_UDEF_STEREO_COUNT>
0

> <PUBCHEM_ISOTOPIC_ATOM_COUNT>
0

> <PUBCHEM_COMPONENT_COUNT>
1

> <PUBCHEM_CACTVS_TAUTO_COUNT>
10

> <PUBCHEM_CONFORMER_ID>
026E38BF00000002

> <PUBCHEM_MMFF94_ENERGY>
60.4744

> <PUBCHEM_FEATURE_SELFOVERLAP>
55.836

> <PUBCHEM_SHAPE_FINGERPRINT>
1100329 8 17402333672517798600
11370993 70 18198341947512400128
11552529 35 17403168696123183400
12293681 160 16459933387253877853
12422481 6 18116408403132671546
12633257 1 18126002912884308872
12788726 201 17259635162050527646
13004483 165 17119998285135127918
13140716 1 18121786302638678257
138480 1 18194965136945132218
14081887 123 17333360706822622944
14251757 5 17903938973902901788
14363568 33 18268722619120628562
15420108 30 18272081730075012806
19930381 70 18411136926567783147
20028762 73 17982176926463140151
20905425 154 18263095322429475863
22182313 1 17895192135254433789
23419403 2 17971185937511009311
23559900 14 18260832540606194860
3027735 51 18050819381212614935
465052 167 16879924182286969761
5265222 85 18263094365575142964
539174 4 18125752039501512105
57091435 65 18337953394395808626
58807428 26 18267026235380812170
69474 34 17905337230190869313
79837 15 18121220046014886858

> <PUBCHEM_SHAPE_MULTIPOLES>
475.18
7.96
5.49
1.38
0.49
6.98
-0.21
-3.71
4.02
-6.04
0.16
0.47
-0.62
0.94

> <PUBCHEM_SHAPE_SELFOVERLAP>
995.169

> <PUBCHEM_SHAPE_VOLUME>
268.6

> <PUBCHEM_COORDINATE_TYPE>
2
5
10

$$$$
