45783368
  -OEChem-12032416343D

 39 41  0     1  0  0  0  0  0999 V2000
    2.6244    1.9972   -0.0571 O   0  0  0  0  0  0  0  0  0  0  0  0
   -3.6824    0.4970   -0.0140 O   0  0  0  0  0  0  0  0  0  0  0  0
   -7.2659   -0.1098    0.0082 O   0  0  0  0  0  0  0  0  0  0  0  0
    5.2247    0.0469    1.1670 N   0  0  0  0  0  0  0  0  0  0  0  0
    2.3220   -0.2216   -0.0141 N   0  0  0  0  0  0  0  0  0  0  0  0
    1.2387    1.7931   -0.0497 N   0  0  0  0  0  0  0  0  0  0  0  0
   -2.5828   -1.5461    0.0204 N   0  0  0  0  0  0  0  0  0  0  0  0
    4.6971    0.7078   -0.0375 C   0  0  1  0  0  0  0  0  0  0  0  0
    5.2909   -0.0696   -1.2220 C   0  0  0  0  0  0  0  0  0  0  0  0
    6.1864   -1.1252   -0.5898 C   0  0  0  0  0  0  0  0  0  0  0  0
    6.4949   -0.5584    0.7796 C   0  0  0  0  0  0  0  0  0  0  0  0
    3.1870    0.7606   -0.0354 C   0  0  0  0  0  0  0  0  0  0  0  0
    1.1403    0.4606   -0.0239 C   0  0  0  0  0  0  0  0  0  0  0  0
   -0.1224   -0.2197   -0.0089 C   0  0  0  0  0  0  0  0  0  0  0  0
   -1.3076    0.5074   -0.0194 C   0  0  0  0  0  0  0  0  0  0  0  0
   -0.1661   -1.6093    0.0164 C   0  0  0  0  0  0  0  0  0  0  0  0
   -2.5007   -0.1969   -0.0040 C   0  0  0  0  0  0  0  0  0  0  0  0
   -1.4102   -2.2190    0.0300 C   0  0  0  0  0  0  0  0  0  0  0  0
   -4.8776   -0.2745    0.0026 C   0  0  0  0  0  0  0  0  0  0  0  0
   -6.0707    0.6615    0.0122 C   0  0  0  0  0  0  0  0  0  0  0  0
   -8.4200    0.7182    0.0392 C   0  0  0  0  0  0  0  0  0  0  0  0
    5.0815    1.7357   -0.0614 H   0  0  0  0  0  0  0  0  0  0  0  0
    4.5398   -0.5329   -1.8707 H   0  0  0  0  0  0  0  0  0  0  0  0
    5.8967    0.6051   -1.8390 H   0  0  0  0  0  0  0  0  0  0  0  0
    7.0884   -1.3102   -1.1805 H   0  0  0  0  0  0  0  0  0  0  0  0
    5.6387   -2.0713   -0.4979 H   0  0  0  0  0  0  0  0  0  0  0  0
    7.2784    0.2061    0.7269 H   0  0  0  0  0  0  0  0  0  0  0  0
    6.8122   -1.3298    1.4872 H   0  0  0  0  0  0  0  0  0  0  0  0
    4.5884   -0.7051    1.4374 H   0  0  0  0  0  0  0  0  0  0  0  0
   -1.3285    1.5926   -0.0389 H   0  0  0  0  0  0  0  0  0  0  0  0
    0.7283   -2.2237    0.0255 H   0  0  0  0  0  0  0  0  0  0  0  0
   -1.4991   -3.3002    0.0496 H   0  0  0  0  0  0  0  0  0  0  0  0
   -4.9143   -0.9128    0.8949 H   0  0  0  0  0  0  0  0  0  0  0  0
   -4.9307   -0.9201   -0.8835 H   0  0  0  0  0  0  0  0  0  0  0  0
   -6.0356    1.3013    0.9024 H   0  0  0  0  0  0  0  0  0  0  0  0
   -6.0413    1.3148   -0.8682 H   0  0  0  0  0  0  0  0  0  0  0  0
   -8.4347    1.3218    0.9519 H   0  0  0  0  0  0  0  0  0  0  0  0
   -8.4512    1.3661   -0.8421 H   0  0  0  0  0  0  0  0  0  0  0  0
   -9.3048    0.0761    0.0316 H   0  0  0  0  0  0  0  0  0  0  0  0
  1  6  1  0  0  0  0
  1 12  1  0  0  0  0
  2 17  1  0  0  0  0
  2 19  1  0  0  0  0
  3 20  1  0  0  0  0
  3 21  1  0  0  0  0
  4  8  1  0  0  0  0
  4 11  1  0  0  0  0
  4 29  1  0  0  0  0
  5 12  2  0  0  0  0
  5 13  1  0  0  0  0
  6 13  2  0  0  0  0
  7 17  2  0  0  0  0
  7 18  1  0  0  0  0
  8  9  1  0  0  0  0
  8 12  1  0  0  0  0
  8 22  1  0  0  0  0
  9 10  1  0  0  0  0
  9 23  1  0  0  0  0
  9 24  1  0  0  0  0
 10 11  1  0  0  0  0
 10 25  1  0  0  0  0
 10 26  1  0  0  0  0
 11 27  1  0  0  0  0
 11 28  1  0  0  0  0
 13 14  1  0  0  0  0
 14 15  2  0  0  0  0
 14 16  1  0  0  0  0
 15 17  1  0  0  0  0
 15 30  1  0  0  0  0
 16 18  2  0  0  0  0
 16 31  1  0  0  0  0
 18 32  1  0  0  0  0
 19 20  1  0  0  0  0
 19 33  1  0  0  0  0
 19 34  1  0  0  0  0
 20 35  1  0  0  0  0
 20 36  1  0  0  0  0
 21 37  1  0  0  0  0
 21 38  1  0  0  0  0
 21 39  1  0  0  0  0
M  END
> <PUBCHEM_COMPOUND_CID>
45783368

> <PUBCHEM_CONFORMER_RMSD>
0.8

> <PUBCHEM_CONFORMER_DIVERSEORDER>
2
30
47
110
40
72
27
36
52
103
8
104
77
28
80
78
45
85
74
42
94
102
90
62
48
6
61
37
71
88
106
98
89
92
97
18
12
13
70
25
50
65
41
99
32
76
64
60
49
108
20
93
26
56
58
5
83
17
55
16
53
59
15
63
84
82
95
54
22
87
46
35
69
11
73
19
4
75
66
91
109
3
7
43
44
23
51
68
86
9
67
39
107
31
29
14
34
10
33
96
105
101
21
38
24
81
79
57
1
100

> <PUBCHEM_MMFF94_PARTIAL_CHARGES>
23
1 -0.02
11 0.27
12 0.3
13 0.46
14 0.05
15 -0.15
16 -0.15
17 0.39
18 0.16
19 0.28
2 -0.36
20 0.28
21 0.28
29 0.36
3 -0.56
30 0.15
31 0.15
32 0.15
4 -0.9
5 -0.57
6 -0.41
7 -0.62
8 0.45

> <PUBCHEM_EFFECTIVE_ROTOR_COUNT>
7

> <PUBCHEM_PHARMACOPHORE_FEATURES>
7
1 3 acceptor
1 4 cation
1 4 donor
3 5 6 13 cation
5 1 5 6 12 13 rings
5 4 8 9 10 11 rings
6 7 14 15 16 17 18 rings

> <PUBCHEM_HEAVY_ATOM_COUNT>
21

> <PUBCHEM_ATOM_DEF_STEREO_COUNT>
1

> <PUBCHEM_ATOM_UDEF_STEREO_COUNT>
0

> <PUBCHEM_BOND_DEF_STEREO_COUNT>
0

> <PUBCHEM_BOND_UDEF_STEREO_COUNT>
0

> <PUBCHEM_ISOTOPIC_ATOM_COUNT>
0

> <PUBCHEM_COMPONENT_COUNT>
1

> <PUBCHEM_CACTVS_TAUTO_COUNT>
1

> <PUBCHEM_CONFORMER_ID>
02BA994800000002

> <PUBCHEM_MMFF94_ENERGY>
40.2109

> <PUBCHEM_FEATURE_SELFOVERLAP>
35.522

> <PUBCHEM_SHAPE_FINGERPRINT>
10050765 1 18121781891707232783
106641 1 12685100297807114197
11638347 137 14405190539038183660
11646440 116 18060144249571183417
12236239 1 17748829643541322150
13533116 47 13542475228778289652
13899415 154 12612756813017716462
13914758 101 16486703476033242107
13968360 50 16056604223014997245
14170010 4 18201440263720498542
14216079 64 18271247111072150190
14251764 18 18409165553816732476
14251764 46 18410856555344828779
15099037 51 18410293627087939598
15183329 4 18341620308207110140
15196674 1 18338236097606285814
15531645 54 18411139147023579414
17834072 8 18411140242598968654
18335252 114 18411129243568071181
19141452 34 18343016731393830110
20157964 124 15698281118822201228
20281389 69 18113334219655056293
21095086 128 14996282513540908409
21267235 1 18408046199366371192
21285901 2 18339934701585258164
21403212 168 18410288090912239203
2215653 11 18131078125756489102
23035841 295 14129057023642478793
23218964 4 18407759239763727452
23402539 116 18130783486499190189
23536379 177 16128660734547040103
23559900 14 18271805787437828520
28498 318 18409729526025254254
3004659 81 18260553329799415702
3009799 131 16128655254110845939
328311 84 18335427872121517739
335352 9 18410857676362961460
347723 3 17418094317366848939
3545911 37 18409167710354551575
4072396 5 18272083890685798622
5104073 3 18267306611072508794
5385378 56 18338520725189783979
559249 180 18413103991482992535
59755656 215 18410295778761202871
59755656 520 18040711498637702667
8988823 20 16559029390227489674

> <PUBCHEM_SHAPE_MULTIPOLES>
394.64
19.72
1.58
0.77
20.97
0.33
-0.01
-1.8
0.28
-0.22
-0.02
-1.02
0.04
0.08

> <PUBCHEM_SHAPE_SELFOVERLAP>
833.632

> <PUBCHEM_SHAPE_VOLUME>
222.6

> <PUBCHEM_COORDINATE_TYPE>
2
5
10

$$$$
