45784432
  -OEChem-12032416313D

 71 74  0     1  0  0  0  0  0999 V2000
   -8.4663    2.1491   -0.0603 S   0  0  0  0  0  0  0  0  0  0  0  0
    8.7158    3.0104    0.6014 F   0  0  0  0  0  0  0  0  0  0  0  0
   -1.5195   -1.5833    1.9534 O   0  0  0  0  0  0  0  0  0  0  0  0
   -6.1585   -1.5607   -0.5920 O   0  0  0  0  0  0  0  0  0  0  0  0
    4.3489    1.3710   -0.0183 O   0  0  0  0  0  0  0  0  0  0  0  0
    3.3408   -0.6940   -0.2667 N   0  0  0  0  0  0  0  0  0  0  0  0
   -5.9632   -0.5262    1.4748 N   0  0  0  0  0  0  0  0  0  0  0  0
    5.6142   -0.6061    0.0083 N   0  0  0  0  0  0  0  0  0  0  0  0
   -0.7426   -0.4583   -1.6113 C   0  0  1  0  0  0  0  0  0  0  0  0
   -0.5113   -0.6967   -0.0819 C   0  0  2  0  0  0  0  0  0  0  0  0
    0.9507   -1.2032    0.1900 C   0  0  1  0  0  0  0  0  0  0  0  0
   -1.6452   -1.5681    0.5306 C   0  0  2  0  0  0  0  0  0  0  0  0
   -2.1495    0.1458   -1.8322 C   0  0  0  0  0  0  0  0  0  0  0  0
    0.2954    0.5664   -2.1245 C   0  0  0  0  0  0  0  0  0  0  0  0
   -3.0552   -1.0151    0.2175 C   0  0  1  0  0  0  0  0  0  0  0  0
    1.9853   -0.2020   -0.3967 C   0  0  2  0  0  0  0  0  0  0  0  0
   -3.2651   -0.7242   -1.2684 C   0  0  0  0  0  0  0  0  0  0  0  0
    1.7336    0.1415   -1.8646 C   0  0  0  0  0  0  0  0  0  0  0  0
   -0.6250   -1.7624   -2.4402 C   0  0  0  0  0  0  0  0  0  0  0  0
   -4.1590   -1.9557    0.7164 C   0  0  2  0  0  0  0  0  0  0  0  0
    1.2563   -1.4312    1.6800 C   0  0  0  0  0  0  0  0  0  0  0  0
   -4.0200   -3.3239    0.0580 C   0  0  0  0  0  0  0  0  0  0  0  0
   -5.5285   -1.3426    0.4407 C   0  0  0  0  0  0  0  0  0  0  0  0
    4.4407    0.1475   -0.0837 C   0  0  0  0  0  0  0  0  0  0  0  0
   -7.2300    0.1671    1.4431 C   0  0  0  0  0  0  0  0  0  0  0  0
    6.9352   -0.1361    0.1943 C   0  0  0  0  0  0  0  0  0  0  0  0
   -7.1189    1.5105    0.7819 C   0  0  0  0  0  0  0  0  0  0  0  0
    7.1789    1.2326    0.3092 C   0  0  0  0  0  0  0  0  0  0  0  0
    7.9945   -1.0412    0.2622 C   0  0  0  0  0  0  0  0  0  0  0  0
   -6.0355    2.3606    0.7444 C   0  0  0  0  0  0  0  0  0  0  0  0
    8.4817    1.6962    0.4921 C   0  0  0  0  0  0  0  0  0  0  0  0
    9.2974   -0.5776    0.4449 C   0  0  0  0  0  0  0  0  0  0  0  0
   -6.3155    3.5521    0.0150 C   0  0  0  0  0  0  0  0  0  0  0  0
   -7.6019    3.5671   -0.4775 C   0  0  0  0  0  0  0  0  0  0  0  0
    9.5410    0.7910    0.5601 C   0  0  0  0  0  0  0  0  0  0  0  0
   -0.5786    0.2831    0.4178 H   0  0  0  0  0  0  0  0  0  0  0  0
    1.0865   -2.1749   -0.3015 H   0  0  0  0  0  0  0  0  0  0  0  0
   -1.5073   -2.5929    0.1807 H   0  0  0  0  0  0  0  0  0  0  0  0
   -2.2050    1.1349   -1.3574 H   0  0  0  0  0  0  0  0  0  0  0  0
   -2.3288    0.3107   -2.9025 H   0  0  0  0  0  0  0  0  0  0  0  0
    0.1616    0.7368   -3.2004 H   0  0  0  0  0  0  0  0  0  0  0  0
    0.1278    1.5365   -1.6375 H   0  0  0  0  0  0  0  0  0  0  0  0
   -3.1684   -0.0624    0.7562 H   0  0  0  0  0  0  0  0  0  0  0  0
    1.9151    0.7308    0.1796 H   0  0  0  0  0  0  0  0  0  0  0  0
   -3.3355   -1.6282   -1.8762 H   0  0  0  0  0  0  0  0  0  0  0  0
   -4.2004   -0.1750   -1.4257 H   0  0  0  0  0  0  0  0  0  0  0  0
    2.4034    0.9534   -2.1762 H   0  0  0  0  0  0  0  0  0  0  0  0
    1.9957   -0.7112   -2.5028 H   0  0  0  0  0  0  0  0  0  0  0  0
    0.3726   -2.2066   -2.3936 H   0  0  0  0  0  0  0  0  0  0  0  0
   -0.8374   -1.5668   -3.4979 H   0  0  0  0  0  0  0  0  0  0  0  0
   -1.3235   -2.5348   -2.1067 H   0  0  0  0  0  0  0  0  0  0  0  0
   -4.0645   -2.0992    1.8005 H   0  0  0  0  0  0  0  0  0  0  0  0
    2.3173   -1.6382    1.8530 H   0  0  0  0  0  0  0  0  0  0  0  0
    0.9878   -0.5552    2.2795 H   0  0  0  0  0  0  0  0  0  0  0  0
    0.7230   -2.3057    2.0631 H   0  0  0  0  0  0  0  0  0  0  0  0
    3.5071   -1.6877   -0.3933 H   0  0  0  0  0  0  0  0  0  0  0  0
   -1.5896   -0.6675    2.2726 H   0  0  0  0  0  0  0  0  0  0  0  0
   -3.1153   -3.8538    0.3657 H   0  0  0  0  0  0  0  0  0  0  0  0
   -4.8565   -3.9587    0.3784 H   0  0  0  0  0  0  0  0  0  0  0  0
   -4.0698   -3.3105   -1.0327 H   0  0  0  0  0  0  0  0  0  0  0  0
   -5.3644   -0.3817    2.2826 H   0  0  0  0  0  0  0  0  0  0  0  0
    5.5155   -1.6155   -0.0654 H   0  0  0  0  0  0  0  0  0  0  0  0
   -7.5550    0.2962    2.4812 H   0  0  0  0  0  0  0  0  0  0  0  0
   -7.9617   -0.4684    0.9316 H   0  0  0  0  0  0  0  0  0  0  0  0
    6.4131    1.9938    0.2667 H   0  0  0  0  0  0  0  0  0  0  0  0
    7.8185   -2.1102    0.1740 H   0  0  0  0  0  0  0  0  0  0  0  0
   -5.0841    2.1495    1.2160 H   0  0  0  0  0  0  0  0  0  0  0  0
   10.1222   -1.2822    0.4977 H   0  0  0  0  0  0  0  0  0  0  0  0
   -5.6093    4.3573   -0.1404 H   0  0  0  0  0  0  0  0  0  0  0  0
   -8.0755    4.3430   -1.0622 H   0  0  0  0  0  0  0  0  0  0  0  0
   10.5552    1.1522    0.7022 H   0  0  0  0  0  0  0  0  0  0  0  0
  1 27  1  0  0  0  0
  1 34  1  0  0  0  0
  2 31  1  0  0  0  0
  3 12  1  0  0  0  0
  3 57  1  0  0  0  0
  4 23  2  0  0  0  0
  5 24  2  0  0  0  0
  6 16  1  0  0  0  0
  6 24  1  0  0  0  0
  6 56  1  0  0  0  0
  7 23  1  0  0  0  0
  7 25  1  0  0  0  0
  7 61  1  0  0  0  0
  8 24  1  0  0  0  0
  8 26  1  0  0  0  0
  8 62  1  0  0  0  0
  9 10  1  0  0  0  0
  9 13  1  0  0  0  0
  9 14  1  0  0  0  0
  9 19  1  0  0  0  0
 10 11  1  0  0  0  0
 10 12  1  0  0  0  0
 10 36  1  0  0  0  0
 11 16  1  0  0  0  0
 11 21  1  0  0  0  0
 11 37  1  0  0  0  0
 12 15  1  0  0  0  0
 12 38  1  0  0  0  0
 13 17  1  0  0  0  0
 13 39  1  0  0  0  0
 13 40  1  0  0  0  0
 14 18  1  0  0  0  0
 14 41  1  0  0  0  0
 14 42  1  0  0  0  0
 15 17  1  0  0  0  0
 15 20  1  0  0  0  0
 15 43  1  0  0  0  0
 16 18  1  0  0  0  0
 16 44  1  0  0  0  0
 17 45  1  0  0  0  0
 17 46  1  0  0  0  0
 18 47  1  0  0  0  0
 18 48  1  0  0  0  0
 19 49  1  0  0  0  0
 19 50  1  0  0  0  0
 19 51  1  0  0  0  0
 20 22  1  0  0  0  0
 20 23  1  0  0  0  0
 20 52  1  0  0  0  0
 21 53  1  0  0  0  0
 21 54  1  0  0  0  0
 21 55  1  0  0  0  0
 22 58  1  0  0  0  0
 22 59  1  0  0  0  0
 22 60  1  0  0  0  0
 25 27  1  0  0  0  0
 25 63  1  0  0  0  0
 25 64  1  0  0  0  0
 26 28  2  0  0  0  0
 26 29  1  0  0  0  0
 27 30  2  0  0  0  0
 28 31  1  0  0  0  0
 28 65  1  0  0  0  0
 29 32  2  0  0  0  0
 29 66  1  0  0  0  0
 30 33  1  0  0  0  0
 30 67  1  0  0  0  0
 31 35  2  0  0  0  0
 32 35  1  0  0  0  0
 32 68  1  0  0  0  0
 33 34  2  0  0  0  0
 33 69  1  0  0  0  0
 34 70  1  0  0  0  0
 35 71  1  0  0  0  0
M  END
> <PUBCHEM_COMPOUND_CID>
45784432

> <PUBCHEM_CONFORMER_RMSD>
1.4

> <PUBCHEM_CONFORMER_DIVERSEORDER>
1
74
87
104
30
70
57
67
107
28
38
41
81
97
59
15
103
80
23
68
40
17
31
56
45
53
102
109
96
29
13
58
106
26
69
51
99
25
93
88
63
42
73
21
60
44
85
71
101
27
36
47
32
98
108
100
86
84
65
66
75
5
105
39
89
76
8
95
94
46
72
43
12
24
19
79
78
52
22
33
35
55
90
77
82
48
7
37
61
54
10
62
91
64
92
3
49
83
34
18
16
2
50
9
14
20
11
4
6

> <PUBCHEM_MMFF94_PARTIAL_CHARGES>
35
1 -0.08
12 0.28
16 0.3
2 -0.19
20 0.06
23 0.57
24 0.69
25 0.48
26 0.12
27 -0.14
28 -0.15
29 -0.15
3 -0.68
30 -0.15
31 0.19
32 -0.15
33 -0.15
34 -0.11
35 -0.15
4 -0.57
5 -0.57
56 0.37
57 0.4
6 -0.73
61 0.37
62 0.37
65 0.15
66 0.15
67 0.15
68 0.15
69 0.15
7 -0.73
70 0.15
71 0.15
8 -0.55

> <PUBCHEM_EFFECTIVE_ROTOR_COUNT>
10.6

> <PUBCHEM_PHARMACOPHORE_FEATURES>
12
1 22 hydrophobe
1 3 acceptor
1 3 donor
1 4 acceptor
1 5 acceptor
1 6 donor
1 7 donor
1 8 donor
5 1 27 30 33 34 rings
6 26 28 29 31 32 35 rings
6 9 10 11 14 16 18 rings
6 9 10 12 13 15 17 rings

> <PUBCHEM_HEAVY_ATOM_COUNT>
35

> <PUBCHEM_ATOM_DEF_STEREO_COUNT>
6

> <PUBCHEM_ATOM_UDEF_STEREO_COUNT>
1

> <PUBCHEM_BOND_DEF_STEREO_COUNT>
0

> <PUBCHEM_BOND_UDEF_STEREO_COUNT>
0

> <PUBCHEM_ISOTOPIC_ATOM_COUNT>
0

> <PUBCHEM_COMPONENT_COUNT>
1

> <PUBCHEM_CACTVS_TAUTO_COUNT>
6

> <PUBCHEM_CONFORMER_ID>
02BA9D7000000001

> <PUBCHEM_MMFF94_ENERGY>
92.4975

> <PUBCHEM_FEATURE_SELFOVERLAP>
60.964

> <PUBCHEM_SHAPE_FINGERPRINT>
10076449 9 12251909191435691205
10554248 39 16128385822027404285
11135609 99 8934706799970788241
11135926 11 16588015835949794339
11181472 205 17917158195828691002
11456790 92 17894638075588318504
11578821 258 17917995009782467464
12539747 363 16877664565121902588
12664476 115 17989489628629004001
13947947 19 14045734954695240186
14150023 24 17917710184604398846
14415361 349 12607407697881820908
17324776 126 13410218419833020865
18603816 31 13695884631704932169
19315958 150 18341337695122880747
19841028 212 10665763605049762192
20721686 146 18341612552134893197
20982279 24 13335013834247308984
21026386 80 17632583717282581412
21133410 32 15912745290558934455
21267235 1 16225766341611362302
21756936 100 18410572865209466111
21772524 286 18337675204901352636
21781055 127 17677348125736929886
21792961 116 13406783446269411475
21927370 108 14057001594215477239
22149856 69 18333450946611035548
23522609 53 17096962180871810325
23576562 1 15625641929966714769
24771293 8 18113900472401281582
249057 3 15123509246486303570
3178227 256 15430043157944690146
335352 9 14333407865593446314
3383291 50 16370724876707049658
4169191 19 17561089072902753139
4339292 15 12324247204674190281
437795 83 16988566741481275657
44280117 145 18265052629221251434
44802255 64 17632576050871732583
45377200 153 9655569712658901532
54039377 194 10951755392959995717
58083652 198 16153427294108055421
6201320 215 18271243811777800065
636775 72 18411419505979407969
9953998 17 18113337509715607613
999808 66 13479136791770685713

> <PUBCHEM_SHAPE_MULTIPOLES>
684.31
30.89
3.15
1.65
45.72
1.84
-0.71
23.97
10.68
-6.44
0.34
-1.12
-0.51
0.73

> <PUBCHEM_SHAPE_SELFOVERLAP>
1431.458

> <PUBCHEM_SHAPE_VOLUME>
390

> <PUBCHEM_COORDINATE_TYPE>
2
5
10

$$$$
