51137389
  -OEChem-12032416253D

 53 56  0     1  0  0  0  0  0999 V2000
    2.7580   -0.0177    0.2250 O   0  0  0  0  0  0  0  0  0  0  0  0
    0.5287   -2.7621    0.5082 N   0  0  2  0  0  0  0  0  0  0  0  0
    4.2449   -0.5576   -1.3569 N   0  0  0  0  0  0  0  0  0  0  0  0
    4.4175    0.7785   -1.0467 N   0  0  0  0  0  0  0  0  0  0  0  0
   -4.7936    0.6663   -0.3728 N   0  0  0  0  0  0  0  0  0  0  0  0
    2.6450   -2.3565   -0.4934 C   0  0  1  0  0  0  0  0  0  0  0  0
    2.7999   -2.9802    0.9016 C   0  0  0  0  0  0  0  0  0  0  0  0
    1.1328   -2.4016   -0.7783 C   0  0  0  0  0  0  0  0  0  0  0  0
    1.4724   -3.6778    1.1460 C   0  0  0  0  0  0  0  0  0  0  0  0
   -0.7981   -3.3404    0.3603 C   0  0  0  0  0  0  0  0  0  0  0  0
    3.2667   -0.9810   -0.5910 C   0  0  0  0  0  0  0  0  0  0  0  0
   -1.8522   -2.2829    0.1668 C   0  0  0  0  0  0  0  0  0  0  0  0
   -2.2953   -1.5323    1.2558 C   0  0  0  0  0  0  0  0  0  0  0  0
   -2.3862   -2.0543   -1.1014 C   0  0  0  0  0  0  0  0  0  0  0  0
    3.5288    1.0500   -0.1196 C   0  0  0  0  0  0  0  0  0  0  0  0
    3.2624    2.3134    0.5794 C   0  0  0  0  0  0  0  0  0  0  0  0
   -3.2725   -0.5531    1.0767 C   0  0  0  0  0  0  0  0  0  0  0  0
   -3.3633   -1.0751   -1.2805 C   0  0  0  0  0  0  0  0  0  0  0  0
   -3.8064   -0.3246   -0.1915 C   0  0  0  0  0  0  0  0  0  0  0  0
    1.8300    2.8216    0.4550 C   0  0  0  0  0  0  0  0  0  0  0  0
   -5.3493    0.9168   -1.6879 C   0  0  0  0  0  0  0  0  0  0  0  0
   -5.2598    1.4523    0.7521 C   0  0  0  0  0  0  0  0  0  0  0  0
    1.4257    3.4926   -0.6992 C   0  0  0  0  0  0  0  0  0  0  0  0
    0.9243    2.6156    1.4954 C   0  0  0  0  0  0  0  0  0  0  0  0
    0.1155    3.9577   -0.8129 C   0  0  0  0  0  0  0  0  0  0  0  0
   -0.3859    3.0806    1.3819 C   0  0  0  0  0  0  0  0  0  0  0  0
   -0.7903    3.7516    0.2277 C   0  0  0  0  0  0  0  0  0  0  0  0
    3.1536   -2.9990   -1.2246 H   0  0  0  0  0  0  0  0  0  0  0  0
    2.9717   -2.2181    1.6722 H   0  0  0  0  0  0  0  0  0  0  0  0
    3.6394   -3.6825    0.9396 H   0  0  0  0  0  0  0  0  0  0  0  0
    0.7443   -1.4478   -1.1513 H   0  0  0  0  0  0  0  0  0  0  0  0
    0.9431   -3.1691   -1.5403 H   0  0  0  0  0  0  0  0  0  0  0  0
    1.2749   -3.7993    2.2157 H   0  0  0  0  0  0  0  0  0  0  0  0
    1.4678   -4.6660    0.6686 H   0  0  0  0  0  0  0  0  0  0  0  0
   -0.8381   -4.0895   -0.4420 H   0  0  0  0  0  0  0  0  0  0  0  0
   -1.0688   -3.8892    1.2737 H   0  0  0  0  0  0  0  0  0  0  0  0
   -1.8861   -1.7010    2.2486 H   0  0  0  0  0  0  0  0  0  0  0  0
   -2.0479   -2.6313   -1.9580 H   0  0  0  0  0  0  0  0  0  0  0  0
    3.5152    2.1974    1.6410 H   0  0  0  0  0  0  0  0  0  0  0  0
    3.9378    3.0935    0.2050 H   0  0  0  0  0  0  0  0  0  0  0  0
   -3.5826    0.0045    1.9549 H   0  0  0  0  0  0  0  0  0  0  0  0
   -3.7466   -0.9351   -2.2863 H   0  0  0  0  0  0  0  0  0  0  0  0
    2.1227    3.6584   -1.5163 H   0  0  0  0  0  0  0  0  0  0  0  0
    1.2257    2.0917    2.3985 H   0  0  0  0  0  0  0  0  0  0  0  0
   -5.8526    0.0266   -2.0812 H   0  0  0  0  0  0  0  0  0  0  0  0
   -6.1006    1.7141   -1.6648 H   0  0  0  0  0  0  0  0  0  0  0  0
   -4.5733    1.2409   -2.3903 H   0  0  0  0  0  0  0  0  0  0  0  0
   -4.4422    2.0320    1.1953 H   0  0  0  0  0  0  0  0  0  0  0  0
   -6.0263    2.1752    0.4511 H   0  0  0  0  0  0  0  0  0  0  0  0
   -5.7166    0.8158    1.5181 H   0  0  0  0  0  0  0  0  0  0  0  0
   -0.1997    4.4795   -1.7117 H   0  0  0  0  0  0  0  0  0  0  0  0
   -1.0921    2.9181    2.1909 H   0  0  0  0  0  0  0  0  0  0  0  0
   -1.8111    4.1119    0.1389 H   0  0  0  0  0  0  0  0  0  0  0  0
  1 11  1  0  0  0  0
  1 15  1  0  0  0  0
  2  8  1  0  0  0  0
  2  9  1  0  0  0  0
  2 10  1  0  0  0  0
  3  4  1  0  0  0  0
  3 11  2  0  0  0  0
  4 15  2  0  0  0  0
  5 19  1  0  0  0  0
  5 21  1  0  0  0  0
  5 22  1  0  0  0  0
  6  7  1  0  0  0  0
  6  8  1  0  0  0  0
  6 11  1  0  0  0  0
  6 28  1  0  0  0  0
  7  9  1  0  0  0  0
  7 29  1  0  0  0  0
  7 30  1  0  0  0  0
  8 31  1  0  0  0  0
  8 32  1  0  0  0  0
  9 33  1  0  0  0  0
  9 34  1  0  0  0  0
 10 12  1  0  0  0  0
 10 35  1  0  0  0  0
 10 36  1  0  0  0  0
 12 13  2  0  0  0  0
 12 14  1  0  0  0  0
 13 17  1  0  0  0  0
 13 37  1  0  0  0  0
 14 18  2  0  0  0  0
 14 38  1  0  0  0  0
 15 16  1  0  0  0  0
 16 20  1  0  0  0  0
 16 39  1  0  0  0  0
 16 40  1  0  0  0  0
 17 19  2  0  0  0  0
 17 41  1  0  0  0  0
 18 19  1  0  0  0  0
 18 42  1  0  0  0  0
 20 23  2  0  0  0  0
 20 24  1  0  0  0  0
 21 45  1  0  0  0  0
 21 46  1  0  0  0  0
 21 47  1  0  0  0  0
 22 48  1  0  0  0  0
 22 49  1  0  0  0  0
 22 50  1  0  0  0  0
 23 25  1  0  0  0  0
 23 43  1  0  0  0  0
 24 26  2  0  0  0  0
 24 44  1  0  0  0  0
 25 27  2  0  0  0  0
 25 51  1  0  0  0  0
 26 27  1  0  0  0  0
 26 52  1  0  0  0  0
 27 53  1  0  0  0  0
M  END
> <PUBCHEM_COMPOUND_CID>
51137389

> <PUBCHEM_CONFORMER_RMSD>
1

> <PUBCHEM_CONFORMER_DIVERSEORDER>
5
67
65
4
105
85
97
39
55
19
95
31
107
74
87
26
48
89
64
18
68
109
59
66
14
101
34
110
90
99
73
72
104
103
2
20
82
23
62
51
111
98
106
13
80
45
71
108
70
15
76
6
93
84
58
10
30
63
88
81
29
38
3
78
77
102
43
56
22
86
12
44
75
61
79
40
24
52
60
69
91
9
36
112
96
35
32
7
83
27
50
57
46
37
49
11
28
1
33
94
47
100
92
8
41
25
21
42
16
17
53
54

> <PUBCHEM_MMFF94_PARTIAL_CHARGES>
35
1 -0.28
10 0.41
11 0.3
12 -0.14
13 -0.15
14 -0.15
15 0.3
16 0.32
17 -0.15
18 -0.15
19 0.1
2 -0.81
20 -0.14
21 0.37
22 0.37
23 -0.15
24 -0.15
25 -0.15
26 -0.15
27 -0.15
3 -0.34
37 0.15
38 0.15
4 -0.34
41 0.15
42 0.15
43 0.15
44 0.15
5 -0.84
51 0.15
52 0.15
53 0.15
6 0.18
8 0.27
9 0.27

> <PUBCHEM_EFFECTIVE_ROTOR_COUNT>
7

> <PUBCHEM_PHARMACOPHORE_FEATURES>
6
1 2 cation
1 5 cation
5 1 3 4 11 15 rings
5 2 6 7 8 9 rings
6 12 13 14 17 18 19 rings
6 20 23 24 25 26 27 rings

> <PUBCHEM_HEAVY_ATOM_COUNT>
27

> <PUBCHEM_ATOM_DEF_STEREO_COUNT>
1

> <PUBCHEM_ATOM_UDEF_STEREO_COUNT>
0

> <PUBCHEM_BOND_DEF_STEREO_COUNT>
0

> <PUBCHEM_BOND_UDEF_STEREO_COUNT>
0

> <PUBCHEM_ISOTOPIC_ATOM_COUNT>
0

> <PUBCHEM_COMPONENT_COUNT>
1

> <PUBCHEM_CACTVS_TAUTO_COUNT>
1

> <PUBCHEM_CONFORMER_ID>
030C4B6D00000005

> <PUBCHEM_MMFF94_ENERGY>
71.174

> <PUBCHEM_FEATURE_SELFOVERLAP>
30.449

> <PUBCHEM_SHAPE_FINGERPRINT>
10439779 11 18124011671650872938
10675989 125 18410570686733541497
11059048 146 17760663854953886589
11513181 2 17486786181515426045
12038231 1 18411421721522714281
12156800 1 16451182498630350904
12422481 6 17909246312183111656
12539773 59 17488478527584706395
12769317 202 18408315588379184935
12788726 201 18196375809993965800
12925494 130 18409452480040768129
13122387 1 17257658815727029736
13402501 40 18409164441341361021
13773456 30 17260725869580973941
14428016 6 18264749057412328253
14466204 15 18121771988383216554
14931854 50 18339646633274695796
151778 21 17831878110740889425
15210252 30 18261117391543192468
15322687 12 18410006663375009737
15475509 84 17828759543440249698
17093844 170 18412538847323373168
17921350 177 17608053741188942132
19930381 70 18265893751737627715
20567600 299 18129941320410742752
20621476 13 18339077206594876940
20764821 26 18337103574612278021
21133410 90 16911406210271487121
21344244 78 17684058328668217187
21585483 110 18193555563576906989
21860390 5 18272373087628703350
22749437 52 17693091177318916592
23536364 44 17259105138023461628
238 59 17623273284092998206
25265897 201 17558862634860616511
3014063 31 18339643326128849565
3298306 158 18337386149569711837
35225 105 17475246699275600420
354706 35 17546424031556541565
437795 70 17627258691974489718
45266715 3 17912894431518439397
463206 1 18342745125803748137
508706 21 18048029958851561703
54672768 99 17977099381628517388
550186 83 17895177935808216808
6433294 58 18267582407897322572
7226269 152 18336831996200202438

> <PUBCHEM_SHAPE_MULTIPOLES>
529.85
9.08
6.1
1.41
7.47
2.03
0.03
1.05
2.65
-2.92
-1.11
0.49
0.11
-0.07

> <PUBCHEM_SHAPE_SELFOVERLAP>
1135.801

> <PUBCHEM_SHAPE_VOLUME>
296.2

> <PUBCHEM_COORDINATE_TYPE>
2
5
10

$$$$
