75367756
  -OEChem-12032416403D

 32 33  0     1  0  0  0  0  0999 V2000
   -1.0725   -1.5241   -1.3217 F   0  0  0  0  0  0  0  0  0  0  0  0
    2.9476    1.6824   -0.7665 O   0  0  0  0  0  0  0  0  0  0  0  0
    4.1934   -1.5522    0.2040 O   0  0  0  0  0  0  0  0  0  0  0  0
    0.7511   -0.1432    0.4858 N   0  0  2  0  0  0  0  0  0  0  0  0
    1.9232   -0.9863    0.7454 C   0  0  0  0  0  0  0  0  0  0  0  0
    3.3014   -0.4443    0.3346 C   0  0  2  0  0  0  0  0  0  0  0  0
    0.9827    1.2889    0.6797 C   0  0  0  0  0  0  0  0  0  0  0  0
   -0.3902   -0.6127    1.2723 C   0  0  0  0  0  0  0  0  0  0  0  0
    3.3082    0.3220   -0.9813 C   0  0  0  0  0  0  0  0  0  0  0  0
    1.5540    1.9027   -0.5992 C   0  0  0  0  0  0  0  0  0  0  0  0
   -1.7011   -0.2896    0.6060 C   0  0  0  0  0  0  0  0  0  0  0  0
   -1.9729   -0.7712   -0.6745 C   0  0  0  0  0  0  0  0  0  0  0  0
   -2.6447    0.4928    1.2717 C   0  0  0  0  0  0  0  0  0  0  0  0
   -3.1882   -0.4706   -1.2893 C   0  0  0  0  0  0  0  0  0  0  0  0
   -3.8601    0.7936    0.6568 C   0  0  0  0  0  0  0  0  0  0  0  0
   -4.1320    0.3119   -0.6237 C   0  0  0  0  0  0  0  0  0  0  0  0
    1.7609   -1.9496    0.2427 H   0  0  0  0  0  0  0  0  0  0  0  0
    1.9892   -1.2275    1.8165 H   0  0  0  0  0  0  0  0  0  0  0  0
    3.6913    0.2019    1.1307 H   0  0  0  0  0  0  0  0  0  0  0  0
    1.6262    1.4813    1.5466 H   0  0  0  0  0  0  0  0  0  0  0  0
    0.0356    1.8087    0.8681 H   0  0  0  0  0  0  0  0  0  0  0  0
   -0.3494   -0.2255    2.2993 H   0  0  0  0  0  0  0  0  0  0  0  0
   -0.3699   -1.7079    1.3691 H   0  0  0  0  0  0  0  0  0  0  0  0
    4.3236    0.3299   -1.3942 H   0  0  0  0  0  0  0  0  0  0  0  0
    2.6715   -0.1429   -1.7439 H   0  0  0  0  0  0  0  0  0  0  0  0
    1.0119    1.5682   -1.4927 H   0  0  0  0  0  0  0  0  0  0  0  0
    1.4224    2.9894   -0.5469 H   0  0  0  0  0  0  0  0  0  0  0  0
    4.2117   -2.0153    1.0591 H   0  0  0  0  0  0  0  0  0  0  0  0
   -2.4464    0.8757    2.2692 H   0  0  0  0  0  0  0  0  0  0  0  0
   -3.3995   -0.8457   -2.2863 H   0  0  0  0  0  0  0  0  0  0  0  0
   -4.5948    1.4030    1.1749 H   0  0  0  0  0  0  0  0  0  0  0  0
   -5.0782    0.5461   -1.1025 H   0  0  0  0  0  0  0  0  0  0  0  0
  1 12  1  0  0  0  0
  2  9  1  0  0  0  0
  2 10  1  0  0  0  0
  3  6  1  0  0  0  0
  3 28  1  0  0  0  0
  4  5  1  0  0  0  0
  4  7  1  0  0  0  0
  4  8  1  0  0  0  0
  5  6  1  0  0  0  0
  5 17  1  0  0  0  0
  5 18  1  0  0  0  0
  6  9  1  0  0  0  0
  6 19  1  0  0  0  0
  7 10  1  0  0  0  0
  7 20  1  0  0  0  0
  7 21  1  0  0  0  0
  8 11  1  0  0  0  0
  8 22  1  0  0  0  0
  8 23  1  0  0  0  0
  9 24  1  0  0  0  0
  9 25  1  0  0  0  0
 10 26  1  0  0  0  0
 10 27  1  0  0  0  0
 11 12  1  0  0  0  0
 11 13  2  0  0  0  0
 12 14  2  0  0  0  0
 13 15  1  0  0  0  0
 13 29  1  0  0  0  0
 14 16  1  0  0  0  0
 14 30  1  0  0  0  0
 15 16  2  0  0  0  0
 15 31  1  0  0  0  0
 16 32  1  0  0  0  0
M  END
> <PUBCHEM_COMPOUND_CID>
75367756

> <PUBCHEM_CONFORMER_RMSD>
0.6

> <PUBCHEM_CONFORMER_DIVERSEORDER>
2
57
53
43
58
11
21
48
56
61
16
36
63
44
15
38
35
28
32
59
54
50
12
41
25
51
60
40
3
14
4
17
55
37
34
46
62
49
8
9
22
42
24
1
18
10
26
45
52
47
30
33
5
31
20
6
7
13
27
39
23
29
19

> <PUBCHEM_MMFF94_PARTIAL_CHARGES>
21
1 -0.19
10 0.28
11 -0.14
12 0.19
13 -0.15
14 -0.15
15 -0.15
16 -0.15
2 -0.56
28 0.4
29 0.15
3 -0.68
30 0.15
31 0.15
32 0.15
4 -0.81
5 0.27
6 0.28
7 0.27
8 0.41
9 0.28

> <PUBCHEM_EFFECTIVE_ROTOR_COUNT>
3.4

> <PUBCHEM_PHARMACOPHORE_FEATURES>
6
1 2 acceptor
1 3 acceptor
1 3 donor
1 4 cation
6 11 12 13 14 15 16 rings
7 2 4 5 6 7 9 10 rings

> <PUBCHEM_HEAVY_ATOM_COUNT>
16

> <PUBCHEM_ATOM_DEF_STEREO_COUNT>
1

> <PUBCHEM_ATOM_UDEF_STEREO_COUNT>
0

> <PUBCHEM_BOND_DEF_STEREO_COUNT>
0

> <PUBCHEM_BOND_UDEF_STEREO_COUNT>
0

> <PUBCHEM_ISOTOPIC_ATOM_COUNT>
0

> <PUBCHEM_COMPONENT_COUNT>
1

> <PUBCHEM_CACTVS_TAUTO_COUNT>
1

> <PUBCHEM_CONFORMER_ID>
047E054C00000002

> <PUBCHEM_MMFF94_ENERGY>
43.7758

> <PUBCHEM_FEATURE_SELFOVERLAP>
30.446

> <PUBCHEM_SHAPE_FINGERPRINT>
10062212 137 18131630067481993863
104564 63 18116992178639231628
10465860 71 17346046657119103040
10498660 4 14779537994107941135
11031198 65 17967533488500421058
11471102 20 18113338604847878608
11578080 2 18056168350953462688
12592029 89 18272663315986243147
12670545 47 15864068810462677263
13134695 92 18334853909856268204
13693222 15 11167946852720238529
13764800 53 15502365721584711181
14115302 16 17846775234802972191
14289901 80 9295297126983327199
14993402 34 18201720643364432567
15207287 21 14261342561788229935
15219456 202 17240485831333322880
15653759 3 15936411143230604121
15775835 57 18410577322657830765
16945 1 18187359909103873931
17834072 14 13686301253305654025
18186145 218 17749108889572437674
19422 9 18411419539906103199
20645476 183 18272370922886103471
20645477 70 18260554407214078442
21486144 27 17458625661208138594
23175994 123 17749955440627587962
232386 152 17346308323643100658
23402539 116 16343411809561347937
23557571 272 14979949277359263507
23598291 2 18412257354754940367
25 1 17967253100324503354
3082319 5 18272651293976785501
57812782 119 14836402527730130009
74978 22 18129660932018430033
77492 1 18272373070216367673
9882013 296 9295288339406425196
9971528 1 18410849937591438690
9981440 41 17548682441245852216

> <PUBCHEM_SHAPE_MULTIPOLES>
305.28
7.65
1.54
1.31
0.01
0.4
-0.08
0.01
-1.17
1.29
-0.18
-0.7
-0.11
-0.82

> <PUBCHEM_SHAPE_SELFOVERLAP>
632.057

> <PUBCHEM_SHAPE_VOLUME>
173.6

> <PUBCHEM_COORDINATE_TYPE>
2
5
10

$$$$
