26744196
  -OEChem-12032416143D

 46 48  0     1  0  0  0  0  0999 V2000
   -5.4565    0.4710   -0.8146 O   0  0  0  0  0  0  0  0  0  0  0  0
   -0.4175   -0.9425    1.9314 O   0  0  0  0  0  0  0  0  0  0  0  0
    4.3386    1.1412    0.0496 O   0  0  0  0  0  0  0  0  0  0  0  0
   -1.9926    1.2171   -0.3500 N   0  0  1  0  0  0  0  0  0  0  0  0
   -0.6016   -1.5971   -0.2027 N   0  0  0  0  0  0  0  0  0  0  0  0
    0.5729   -1.9133    1.7350 N   0  0  0  0  0  0  0  0  0  0  0  0
   -2.1940    0.1879    0.6901 C   0  0  1  0  0  0  0  0  0  0  0  0
   -3.5494   -0.4580    0.3476 C   0  0  0  0  0  0  0  0  0  0  0  0
   -4.0532    0.3048   -0.8713 C   0  0  2  0  0  0  0  0  0  0  0  0
   -3.3249    1.6325   -0.7848 C   0  0  0  0  0  0  0  0  0  0  0  0
   -1.1882    2.3437    0.1048 C   0  0  0  0  0  0  0  0  0  0  0  0
   -1.0628   -0.8173    0.7423 C   0  0  0  0  0  0  0  0  0  0  0  0
    0.2831    2.0240    0.0905 C   0  0  0  0  0  0  0  0  0  0  0  0
    0.4007   -2.2504    0.4534 C   0  0  0  0  0  0  0  0  0  0  0  0
    1.2389   -3.2589   -0.2044 C   0  0  0  0  0  0  0  0  0  0  0  0
    1.0271    2.1078    1.2674 C   0  0  0  0  0  0  0  0  0  0  0  0
    0.9021    1.6435   -1.1003 C   0  0  0  0  0  0  0  0  0  0  0  0
    2.3899    1.8115    1.2536 C   0  0  0  0  0  0  0  0  0  0  0  0
    2.2649    1.3473   -1.1142 C   0  0  0  0  0  0  0  0  0  0  0  0
    0.4410   -4.4928   -0.6973 C   0  0  0  0  0  0  0  0  0  0  0  0
    2.0655   -2.6925   -1.3869 C   0  0  0  0  0  0  0  0  0  0  0  0
    3.0089    1.4313    0.0628 C   0  0  0  0  0  0  0  0  0  0  0  0
    4.9073    0.7592   -1.2021 C   0  0  0  0  0  0  0  0  0  0  0  0
   -2.2978    0.6529    1.6807 H   0  0  0  0  0  0  0  0  0  0  0  0
   -3.4798   -1.5287    0.1237 H   0  0  0  0  0  0  0  0  0  0  0  0
   -4.2444   -0.3494    1.1898 H   0  0  0  0  0  0  0  0  0  0  0  0
   -3.7902   -0.2239   -1.7958 H   0  0  0  0  0  0  0  0  0  0  0  0
   -3.3054    2.1389   -1.7555 H   0  0  0  0  0  0  0  0  0  0  0  0
   -3.8141    2.3003   -0.0633 H   0  0  0  0  0  0  0  0  0  0  0  0
   -1.5128    2.7036    1.0900 H   0  0  0  0  0  0  0  0  0  0  0  0
   -1.3199    3.1955   -0.5773 H   0  0  0  0  0  0  0  0  0  0  0  0
   -5.8552   -0.4158   -0.7973 H   0  0  0  0  0  0  0  0  0  0  0  0
    1.9671   -3.6359    0.5274 H   0  0  0  0  0  0  0  0  0  0  0  0
    0.5576    2.4005    2.2027 H   0  0  0  0  0  0  0  0  0  0  0  0
    0.3357    1.5779   -2.0257 H   0  0  0  0  0  0  0  0  0  0  0  0
    2.9640    1.8774    2.1738 H   0  0  0  0  0  0  0  0  0  0  0  0
    2.6817    1.0580   -2.0728 H   0  0  0  0  0  0  0  0  0  0  0  0
   -0.2841   -4.2111   -1.4689 H   0  0  0  0  0  0  0  0  0  0  0  0
   -0.1117   -4.9495    0.1309 H   0  0  0  0  0  0  0  0  0  0  0  0
    1.1132   -5.2486   -1.1166 H   0  0  0  0  0  0  0  0  0  0  0  0
    1.4124   -2.3141   -2.1810 H   0  0  0  0  0  0  0  0  0  0  0  0
    2.7154   -3.4638   -1.8129 H   0  0  0  0  0  0  0  0  0  0  0  0
    2.6968   -1.8648   -1.0485 H   0  0  0  0  0  0  0  0  0  0  0  0
    5.9709    0.5660   -1.0279 H   0  0  0  0  0  0  0  0  0  0  0  0
    4.8460    1.5703   -1.9358 H   0  0  0  0  0  0  0  0  0  0  0  0
    4.4710   -0.1724   -1.5768 H   0  0  0  0  0  0  0  0  0  0  0  0
  1  9  1  0  0  0  0
  1 32  1  0  0  0  0
  2  6  1  0  0  0  0
  2 12  1  0  0  0  0
  3 22  1  0  0  0  0
  3 23  1  0  0  0  0
  4  7  1  0  0  0  0
  4 10  1  0  0  0  0
  4 11  1  0  0  0  0
  5 12  2  0  0  0  0
  5 14  1  0  0  0  0
  6 14  2  0  0  0  0
  7  8  1  0  0  0  0
  7 12  1  0  0  0  0
  7 24  1  0  0  0  0
  8  9  1  0  0  0  0
  8 25  1  0  0  0  0
  8 26  1  0  0  0  0
  9 10  1  0  0  0  0
  9 27  1  0  0  0  0
 10 28  1  0  0  0  0
 10 29  1  0  0  0  0
 11 13  1  0  0  0  0
 11 30  1  0  0  0  0
 11 31  1  0  0  0  0
 13 16  2  0  0  0  0
 13 17  1  0  0  0  0
 14 15  1  0  0  0  0
 15 20  1  0  0  0  0
 15 21  1  0  0  0  0
 15 33  1  0  0  0  0
 16 18  1  0  0  0  0
 16 34  1  0  0  0  0
 17 19  2  0  0  0  0
 17 35  1  0  0  0  0
 18 22  2  0  0  0  0
 18 36  1  0  0  0  0
 19 22  1  0  0  0  0
 19 37  1  0  0  0  0
 20 38  1  0  0  0  0
 20 39  1  0  0  0  0
 20 40  1  0  0  0  0
 21 41  1  0  0  0  0
 21 42  1  0  0  0  0
 21 43  1  0  0  0  0
 23 44  1  0  0  0  0
 23 45  1  0  0  0  0
 23 46  1  0  0  0  0
M  END
> <PUBCHEM_COMPOUND_CID>
26744196

> <PUBCHEM_CONFORMER_RMSD>
0.8

> <PUBCHEM_CONFORMER_DIVERSEORDER>
1
44
51
42
9
31
59
62
58
27
34
7
32
57
56
69
20
54
60
45
67
43
52
21
16
53
46
24
76
28
18
65
33
39
75
2
71
49
11
10
37
64
66
35
17
72
19
3
36
8
22
77
63
13
50
41
73
23
30
38
74
15
55
47
26
48
5
25
14
68
12
4
6
29
40
70
61

> <PUBCHEM_MMFF94_PARTIAL_CHARGES>
25
1 -0.68
10 0.27
11 0.41
12 0.3
13 -0.14
14 0.34
15 0.18
16 -0.15
17 -0.15
18 -0.15
19 -0.15
2 -0.02
22 0.08
23 0.28
3 -0.36
32 0.4
34 0.15
35 0.15
36 0.15
37 0.15
4 -0.81
5 -0.57
6 -0.41
7 0.45
9 0.28

> <PUBCHEM_EFFECTIVE_ROTOR_COUNT>
6

> <PUBCHEM_PHARMACOPHORE_FEATURES>
9
1 1 acceptor
1 1 donor
1 3 acceptor
1 4 cation
3 15 20 21 hydrophobe
3 5 6 14 cation
5 2 5 6 12 14 rings
5 4 7 8 9 10 rings
6 13 16 17 18 19 22 rings

> <PUBCHEM_HEAVY_ATOM_COUNT>
23

> <PUBCHEM_ATOM_DEF_STEREO_COUNT>
2

> <PUBCHEM_ATOM_UDEF_STEREO_COUNT>
0

> <PUBCHEM_BOND_DEF_STEREO_COUNT>
0

> <PUBCHEM_BOND_UDEF_STEREO_COUNT>
0

> <PUBCHEM_ISOTOPIC_ATOM_COUNT>
0

> <PUBCHEM_COMPONENT_COUNT>
1

> <PUBCHEM_CACTVS_TAUTO_COUNT>
1

> <PUBCHEM_CONFORMER_ID>
0198158400000001

> <PUBCHEM_MMFF94_ENERGY>
49.6489

> <PUBCHEM_FEATURE_SELFOVERLAP>
45.671

> <PUBCHEM_SHAPE_FINGERPRINT>
107951 10 17603876645296913850
11370993 70 18335704970410723836
12035759 4 17982419858703516959
12156800 1 16339716488498772926
12788726 201 17326036855448003858
13257819 101 16516224302556004077
133893 2 17971198032044267857
15403338 16 17025134260405877162
16752209 62 17972312082146526331
19591789 44 18122906696925370915
19930381 70 18197220252283809070
20028762 73 17840029873228748839
20567600 347 18333726927343152331
20600515 1 16966292636607745665
20602899 9 18270970140771892824
20645476 183 17023744661800909912
20691752 17 17169558398126663469
20905425 154 18266737978603340021
22182313 1 18113628872187088355
22713019 99 18341895229011369289
23419403 2 17467118130133781937
23559900 14 17980184306487445595
23566358 2 18191013509487846621
266924 87 18338518517154743572
3084891 8 18336826390223681765
4280585 95 17543057992661704594
463206 1 18272929440317172327
465052 167 17171822554945953395
469060 322 13930444623409467014
5265222 85 18264501753164334532
57527585 103 16961594514028691546
59755656 215 18409728465637759261
6138700 20 18335420119805716626
7364860 26 18340478963967201123
81228 2 17184184488298748883
84936 31 17914869007707716843
90525 40 17968097572336271193

> <PUBCHEM_SHAPE_MULTIPOLES>
440.78
7.03
4.27
1.42
2.68
5.42
0.3
-3.66
-2.95
-2.37
-0.46
-0.38
0.08
0.73

> <PUBCHEM_SHAPE_SELFOVERLAP>
929.208

> <PUBCHEM_SHAPE_VOLUME>
252

> <PUBCHEM_COORDINATE_TYPE>
2
5
10

$$$$
