7673958
  -OEChem-12032416233D

 66 69  0     1  0  0  0  0  0999 V2000
    0.6285   -0.6274   -2.0764 O   0  0  0  0  0  0  0  0  0  0  0  0
    2.8425   -4.0119   -0.3574 O   0  0  0  0  0  0  0  0  0  0  0  0
    2.6945    2.6198    0.3873 O   0  0  0  0  0  0  0  0  0  0  0  0
   -3.8401   -2.4176   -1.9357 O   0  0  0  0  0  0  0  0  0  0  0  0
    5.7156    1.0815    1.8762 O   0  0  0  0  0  0  0  0  0  0  0  0
   -6.1410    1.6486    2.2465 O   0  0  0  0  0  0  0  0  0  0  0  0
    0.9586   -2.6228   -0.2711 N   0  0  0  0  0  0  0  0  0  0  0  0
   -1.8988   -2.1702   -0.6618 N   0  0  0  0  0  0  0  0  0  0  0  0
    0.6710    0.9393   -0.3553 N   0  0  0  0  0  0  0  0  0  0  0  0
    1.6733    4.3939   -0.6263 N   0  0  0  0  0  0  0  0  0  0  0  0
    0.3252   -1.3730    0.1737 C   0  0  2  0  0  0  0  0  0  0  0  0
   -1.1732   -1.5276    0.4449 C   0  0  0  0  0  0  0  0  0  0  0  0
    0.0729   -3.6685   -0.7858 C   0  0  0  0  0  0  0  0  0  0  0  0
   -1.1447   -3.1019   -1.4984 C   0  0  0  0  0  0  0  0  0  0  0  0
    0.9132    2.1088   -1.1595 C   0  0  1  0  0  0  0  0  0  0  0  0
    0.5492   -0.3332   -0.8866 C   0  0  0  0  0  0  0  0  0  0  0  0
   -0.3979    2.7360   -1.6132 C   0  0  0  0  0  0  0  0  0  0  0  0
   -0.1169    4.0588   -2.3072 C   0  0  0  0  0  0  0  0  0  0  0  0
    2.3162   -2.9289   -0.1061 C   0  0  0  0  0  0  0  0  0  0  0  0
    0.5560    5.0004   -1.3264 C   0  0  0  0  0  0  0  0  0  0  0  0
    1.8161    3.0462   -0.3652 C   0  0  0  0  0  0  0  0  0  0  0  0
   -3.2356   -1.9156   -0.9887 C   0  0  0  0  0  0  0  0  0  0  0  0
    3.2035   -1.8804    0.4116 C   0  0  0  0  0  0  0  0  0  0  0  0
   -3.9953   -0.9826   -0.1411 C   0  0  0  0  0  0  0  0  0  0  0  0
    3.8465   -1.0121   -0.4706 C   0  0  0  0  0  0  0  0  0  0  0  0
    3.4043   -1.7529    1.7861 C   0  0  0  0  0  0  0  0  0  0  0  0
   -4.0084    0.3795   -0.4415 C   0  0  0  0  0  0  0  0  0  0  0  0
   -4.7028   -1.4604    0.9620 C   0  0  0  0  0  0  0  0  0  0  0  0
    4.6900   -0.0162    0.0217 C   0  0  0  0  0  0  0  0  0  0  0  0
    4.2479   -0.7572    2.2784 C   0  0  0  0  0  0  0  0  0  0  0  0
   -4.7289    1.2639    0.3611 C   0  0  0  0  0  0  0  0  0  0  0  0
   -5.4232   -0.5760    1.7647 C   0  0  0  0  0  0  0  0  0  0  0  0
    4.8907    0.1111    1.3961 C   0  0  0  0  0  0  0  0  0  0  0  0
   -5.4363    0.7861    1.4644 C   0  0  0  0  0  0  0  0  0  0  0  0
    6.3406    1.9348    0.9187 C   0  0  0  0  0  0  0  0  0  0  0  0
   -6.1131    3.0275    1.8809 C   0  0  0  0  0  0  0  0  0  0  0  0
    0.8077   -1.0513    1.1022 H   0  0  0  0  0  0  0  0  0  0  0  0
   -1.3227   -2.1766    1.3168 H   0  0  0  0  0  0  0  0  0  0  0  0
   -1.6173   -0.5580    0.6851 H   0  0  0  0  0  0  0  0  0  0  0  0
    0.6309   -4.3291   -1.4582 H   0  0  0  0  0  0  0  0  0  0  0  0
   -0.2371   -4.2699    0.0777 H   0  0  0  0  0  0  0  0  0  0  0  0
   -0.8605   -2.5704   -2.4123 H   0  0  0  0  0  0  0  0  0  0  0  0
   -1.8070   -3.9193   -1.8064 H   0  0  0  0  0  0  0  0  0  0  0  0
    1.4875    1.8077   -2.0455 H   0  0  0  0  0  0  0  0  0  0  0  0
   -0.9247    2.0594   -2.2966 H   0  0  0  0  0  0  0  0  0  0  0  0
   -1.0646    2.8993   -0.7563 H   0  0  0  0  0  0  0  0  0  0  0  0
    0.5591    1.0684    0.6465 H   0  0  0  0  0  0  0  0  0  0  0  0
    0.5327    3.8918   -3.1751 H   0  0  0  0  0  0  0  0  0  0  0  0
   -1.0473    4.5035   -2.6763 H   0  0  0  0  0  0  0  0  0  0  0  0
    0.9283    5.8936   -1.8378 H   0  0  0  0  0  0  0  0  0  0  0  0
   -0.1557    5.3255   -0.5594 H   0  0  0  0  0  0  0  0  0  0  0  0
    2.3088    5.0238   -0.1461 H   0  0  0  0  0  0  0  0  0  0  0  0
    3.6971   -1.1035   -1.5434 H   0  0  0  0  0  0  0  0  0  0  0  0
    2.9083   -2.4243    2.4823 H   0  0  0  0  0  0  0  0  0  0  0  0
   -3.4586    0.7613   -1.2982 H   0  0  0  0  0  0  0  0  0  0  0  0
   -4.6988   -2.5197    1.2050 H   0  0  0  0  0  0  0  0  0  0  0  0
    5.1564    0.6244   -0.7189 H   0  0  0  0  0  0  0  0  0  0  0  0
    4.4005   -0.6628    3.3501 H   0  0  0  0  0  0  0  0  0  0  0  0
   -4.6953    2.3085    0.0711 H   0  0  0  0  0  0  0  0  0  0  0  0
   -5.9726   -0.9541    2.6226 H   0  0  0  0  0  0  0  0  0  0  0  0
    7.0127    1.3751    0.2594 H   0  0  0  0  0  0  0  0  0  0  0  0
    5.6044    2.5213    0.3590 H   0  0  0  0  0  0  0  0  0  0  0  0
    6.9590    2.6466    1.4754 H   0  0  0  0  0  0  0  0  0  0  0  0
   -5.1007    3.4405    1.9458 H   0  0  0  0  0  0  0  0  0  0  0  0
   -6.5665    3.1924    0.8975 H   0  0  0  0  0  0  0  0  0  0  0  0
   -6.7259    3.5677    2.6099 H   0  0  0  0  0  0  0  0  0  0  0  0
  1 16  2  0  0  0  0
  2 19  2  0  0  0  0
  3 21  2  0  0  0  0
  4 22  2  0  0  0  0
  5 33  1  0  0  0  0
  5 35  1  0  0  0  0
  6 34  1  0  0  0  0
  6 36  1  0  0  0  0
  7 11  1  0  0  0  0
  7 13  1  0  0  0  0
  7 19  1  0  0  0  0
  8 12  1  0  0  0  0
  8 14  1  0  0  0  0
  8 22  1  0  0  0  0
  9 15  1  0  0  0  0
  9 16  1  0  0  0  0
  9 47  1  0  0  0  0
 10 20  1  0  0  0  0
 10 21  1  0  0  0  0
 10 52  1  0  0  0  0
 11 12  1  0  0  0  0
 11 16  1  0  0  0  0
 11 37  1  0  0  0  0
 12 38  1  0  0  0  0
 12 39  1  0  0  0  0
 13 14  1  0  0  0  0
 13 40  1  0  0  0  0
 13 41  1  0  0  0  0
 14 42  1  0  0  0  0
 14 43  1  0  0  0  0
 15 17  1  0  0  0  0
 15 21  1  0  0  0  0
 15 44  1  0  0  0  0
 17 18  1  0  0  0  0
 17 45  1  0  0  0  0
 17 46  1  0  0  0  0
 18 20  1  0  0  0  0
 18 48  1  0  0  0  0
 18 49  1  0  0  0  0
 19 23  1  0  0  0  0
 20 50  1  0  0  0  0
 20 51  1  0  0  0  0
 22 24  1  0  0  0  0
 23 25  2  0  0  0  0
 23 26  1  0  0  0  0
 24 27  2  0  0  0  0
 24 28  1  0  0  0  0
 25 29  1  0  0  0  0
 25 53  1  0  0  0  0
 26 30  2  0  0  0  0
 26 54  1  0  0  0  0
 27 31  1  0  0  0  0
 27 55  1  0  0  0  0
 28 32  2  0  0  0  0
 28 56  1  0  0  0  0
 29 33  2  0  0  0  0
 29 57  1  0  0  0  0
 30 33  1  0  0  0  0
 30 58  1  0  0  0  0
 31 34  2  0  0  0  0
 31 59  1  0  0  0  0
 32 34  1  0  0  0  0
 32 60  1  0  0  0  0
 35 61  1  0  0  0  0
 35 62  1  0  0  0  0
 35 63  1  0  0  0  0
 36 64  1  0  0  0  0
 36 65  1  0  0  0  0
 36 66  1  0  0  0  0
M  END
> <PUBCHEM_COMPOUND_CID>
7673958

> <PUBCHEM_CONFORMER_RMSD>
1.2

> <PUBCHEM_CONFORMER_DIVERSEORDER>
2
21
78
9
40
43
25
32
18
28
53
59
58
80
56
71
46
38
65
70
10
68
76
77
51
64
67
35
5
62
45
36
12
31
72
15
37
29
34
48
39
27
66
52
81
50
19
13
23
60
22
49
42
75
20
17
57
3
11
33
74
61
55
30
54
7
79
14
4
1
16
73
8
41
44
24
82
63
69
26
47
6

> <PUBCHEM_MMFF94_PARTIAL_CHARGES>
44
1 -0.57
10 -0.73
11 0.36
12 0.3
13 0.3
14 0.3
15 0.36
16 0.57
19 0.54
2 -0.57
20 0.3
21 0.57
22 0.54
23 0.09
24 0.09
25 -0.15
26 -0.15
27 -0.15
28 -0.15
29 -0.15
3 -0.57
30 -0.15
31 -0.15
32 -0.15
33 0.08
34 0.08
35 0.28
36 0.28
4 -0.57
47 0.37
5 -0.36
52 0.37
53 0.15
54 0.15
55 0.15
56 0.15
57 0.15
58 0.15
59 0.15
6 -0.36
60 0.15
7 -0.66
8 -0.66
9 -0.73

> <PUBCHEM_EFFECTIVE_ROTOR_COUNT>
11.2

> <PUBCHEM_PHARMACOPHORE_FEATURES>
12
1 1 acceptor
1 10 donor
1 2 acceptor
1 3 acceptor
1 4 acceptor
1 5 acceptor
1 6 acceptor
1 9 donor
6 10 15 17 18 20 21 rings
6 23 25 26 29 30 33 rings
6 24 27 28 31 32 34 rings
6 7 8 11 12 13 14 rings

> <PUBCHEM_HEAVY_ATOM_COUNT>
36

> <PUBCHEM_ATOM_DEF_STEREO_COUNT>
2

> <PUBCHEM_ATOM_UDEF_STEREO_COUNT>
0

> <PUBCHEM_BOND_DEF_STEREO_COUNT>
0

> <PUBCHEM_BOND_UDEF_STEREO_COUNT>
0

> <PUBCHEM_ISOTOPIC_ATOM_COUNT>
0

> <PUBCHEM_COMPONENT_COUNT>
1

> <PUBCHEM_CACTVS_TAUTO_COUNT>
4

> <PUBCHEM_CONFORMER_ID>
0075186600000002

> <PUBCHEM_MMFF94_ENERGY>
120.1446

> <PUBCHEM_FEATURE_SELFOVERLAP>
60.901

> <PUBCHEM_SHAPE_FINGERPRINT>
10439779 11 18339652135819326681
10674148 151 18200602518715284108
10838868 217 18194681459009602857
10906281 52 18261962954976994834
11059048 146 17542798950061700652
11513181 2 17703792517818378486
12422481 6 18337395916283242649
12788726 201 18041840585156616486
13782708 43 14201386184610625642
14020679 6 17822856510429267562
14784336 7 17262422415790231847
14790565 3 18270396234636350730
14840074 17 18408039632677717872
14950920 106 17896335765023521667
14955137 171 18335435546648216862
15081414 286 18410578344712458126
15420108 30 18272929427463944831
15475509 8 18270980011150045222
15840311 113 17988088777478980683
1601671 61 18411419505673296650
16067689 134 18265910214369314564
16112460 7 18193276523239854968
17980427 23 18272646896083184255
20642791 268 18341894112467221471
20739085 24 18261957448217115268
20764821 26 18118657011569657172
21033648 29 18060413608081512547
23559900 14 16630249100112691862
24771293 8 18270394040330536160
437795 96 18190734237845579077
5047190 48 18338789023122096676
56638632 10 18269261516798217492
57307002 182 18266473156127563347
6371009 1 18341890840472184087
9777508 108 17471006982460189556
9982175 49 18190461752003316788

> <PUBCHEM_SHAPE_MULTIPOLES>
685.72
13.05
5.91
2.1
7.2
4.87
-0.39
3.2
-11.38
-1.51
3.18
0.86
0.7
-1.96

> <PUBCHEM_SHAPE_SELFOVERLAP>
1467.278

> <PUBCHEM_SHAPE_VOLUME>
374.7

> <PUBCHEM_COORDINATE_TYPE>
2
5
10

$$$$
