26742474
  -OEChem-12032416293D

 64 67  0     1  0  0  0  0  0999 V2000
   -6.2021    1.2895    1.6230 O   0  0  0  0  0  0  0  0  0  0  0  0
   -7.7986    2.4044   -0.2360 O   0  0  0  0  0  0  0  0  0  0  0  0
   -2.5129   -1.4354    1.9967 N   0  0  2  0  0  0  0  0  0  0  0  0
   -4.3526    1.3132    0.2103 N   0  0  0  0  0  0  0  0  0  0  0  0
   -0.0471   -1.1047   -1.8285 N   0  0  0  0  0  0  0  0  0  0  0  0
    2.1036   -0.0596   -2.1281 N   0  0  0  0  0  0  0  0  0  0  0  0
    7.4469    1.3676    0.9631 N   0  0  0  0  0  0  0  0  0  0  0  0
   -2.0865   -2.4759   -0.3525 C   0  0  2  0  0  0  0  0  0  0  0  0
   -0.7437   -2.0630    0.3113 C   0  0  2  0  0  0  0  0  0  0  0  0
   -3.3943   -0.7908    0.9878 C   0  0  2  0  0  0  0  0  0  0  0  0
   -3.0130   -1.2446   -0.4378 C   0  0  0  0  0  0  0  0  0  0  0  0
   -2.7616   -3.4864    0.5996 C   0  0  0  0  0  0  0  0  0  0  0  0
   -1.0901   -1.2738    1.6062 C   0  0  0  0  0  0  0  0  0  0  0  0
   -2.8262   -2.8844    2.0142 C   0  0  0  0  0  0  0  0  0  0  0  0
   -3.4091    0.7339    1.1160 C   0  0  0  0  0  0  0  0  0  0  0  0
    0.2896   -1.3439   -0.5441 C   0  0  0  0  0  0  0  0  0  0  0  0
    1.4975   -0.9768    0.0131 C   0  0  0  0  0  0  0  0  0  0  0  0
    2.3745   -0.3311   -0.8346 C   0  0  0  0  0  0  0  0  0  0  0  0
   -5.6869    1.5474    0.5385 C   0  0  0  0  0  0  0  0  0  0  0  0
    0.8929   -0.4683   -2.5531 C   0  0  0  0  0  0  0  0  0  0  0  0
    3.6718    0.1037   -0.3747 C   0  0  0  0  0  0  0  0  0  0  0  0
   -6.4569    2.1691   -0.6070 C   0  0  0  0  0  0  0  0  0  0  0  0
    0.5579   -0.1877   -3.9789 C   0  0  0  0  0  0  0  0  0  0  0  0
    3.7698    1.0151    0.6766 C   0  0  0  0  0  0  0  0  0  0  0  0
    4.8275   -0.3882   -0.9815 C   0  0  0  0  0  0  0  0  0  0  0  0
    5.0235    1.4349    1.1211 C   0  0  0  0  0  0  0  0  0  0  0  0
    6.0812    0.0316   -0.5370 C   0  0  0  0  0  0  0  0  0  0  0  0
    6.1792    0.9431    0.5142 C   0  0  0  0  0  0  0  0  0  0  0  0
   -8.5482    2.9901   -1.2965 C   0  0  0  0  0  0  0  0  0  0  0  0
    7.5599    2.3146    2.0546 C   0  0  0  0  0  0  0  0  0  0  0  0
    8.6538    0.8566    0.3441 C   0  0  0  0  0  0  0  0  0  0  0  0
   -1.9363   -2.9234   -1.3406 H   0  0  0  0  0  0  0  0  0  0  0  0
   -0.2471   -2.9988    0.6117 H   0  0  0  0  0  0  0  0  0  0  0  0
   -4.4237   -1.1257    1.1845 H   0  0  0  0  0  0  0  0  0  0  0  0
   -2.5170   -0.4449   -0.9990 H   0  0  0  0  0  0  0  0  0  0  0  0
   -3.9228   -1.5070   -0.9920 H   0  0  0  0  0  0  0  0  0  0  0  0
   -2.1990   -4.4271    0.6208 H   0  0  0  0  0  0  0  0  0  0  0  0
   -3.7714   -3.7197    0.2406 H   0  0  0  0  0  0  0  0  0  0  0  0
   -0.4555   -1.6337    2.4272 H   0  0  0  0  0  0  0  0  0  0  0  0
   -0.8492   -0.2087    1.5118 H   0  0  0  0  0  0  0  0  0  0  0  0
   -3.8226   -3.0473    2.4433 H   0  0  0  0  0  0  0  0  0  0  0  0
   -2.1299   -3.4072    2.6822 H   0  0  0  0  0  0  0  0  0  0  0  0
   -2.4356    1.1755    0.8806 H   0  0  0  0  0  0  0  0  0  0  0  0
   -3.6710    1.0260    2.1396 H   0  0  0  0  0  0  0  0  0  0  0  0
   -4.0270    1.5610   -0.7198 H   0  0  0  0  0  0  0  0  0  0  0  0
    1.7427   -1.1937    1.0461 H   0  0  0  0  0  0  0  0  0  0  0  0
   -5.9725    3.1146   -0.8774 H   0  0  0  0  0  0  0  0  0  0  0  0
   -6.4197    1.4829   -1.4610 H   0  0  0  0  0  0  0  0  0  0  0  0
    0.9216   -1.0032   -4.6109 H   0  0  0  0  0  0  0  0  0  0  0  0
   -0.5243   -0.0951   -4.1141 H   0  0  0  0  0  0  0  0  0  0  0  0
    1.0221    0.7468   -4.3092 H   0  0  0  0  0  0  0  0  0  0  0  0
    2.8807    1.4143    1.1594 H   0  0  0  0  0  0  0  0  0  0  0  0
    4.7706   -1.1022   -1.7999 H   0  0  0  0  0  0  0  0  0  0  0  0
    5.0468    2.1457    1.9411 H   0  0  0  0  0  0  0  0  0  0  0  0
    6.9498   -0.3804   -1.0411 H   0  0  0  0  0  0  0  0  0  0  0  0
   -9.5724    3.1460   -0.9478 H   0  0  0  0  0  0  0  0  0  0  0  0
   -8.5703    2.3220   -2.1628 H   0  0  0  0  0  0  0  0  0  0  0  0
   -8.1215    3.9582   -1.5763 H   0  0  0  0  0  0  0  0  0  0  0  0
    7.1215    1.9124    2.9747 H   0  0  0  0  0  0  0  0  0  0  0  0
    7.0791    3.2668    1.8041 H   0  0  0  0  0  0  0  0  0  0  0  0
    8.6063    2.5456    2.2834 H   0  0  0  0  0  0  0  0  0  0  0  0
    8.7269   -0.2309    0.4572 H   0  0  0  0  0  0  0  0  0  0  0  0
    9.5545    1.2783    0.8041 H   0  0  0  0  0  0  0  0  0  0  0  0
    8.6955    1.1193   -0.7188 H   0  0  0  0  0  0  0  0  0  0  0  0
  1 19  2  0  0  0  0
  2 22  1  0  0  0  0
  2 29  1  0  0  0  0
  3 10  1  0  0  0  0
  3 13  1  0  0  0  0
  3 14  1  0  0  0  0
  4 15  1  0  0  0  0
  4 19  1  0  0  0  0
  4 45  1  0  0  0  0
  5 16  2  0  0  0  0
  5 20  1  0  0  0  0
  6 18  1  0  0  0  0
  6 20  2  0  0  0  0
  7 28  1  0  0  0  0
  7 30  1  0  0  0  0
  7 31  1  0  0  0  0
  8  9  1  0  0  0  0
  8 11  1  0  0  0  0
  8 12  1  0  0  0  0
  8 32  1  0  0  0  0
  9 13  1  0  0  0  0
  9 16  1  0  0  0  0
  9 33  1  0  0  0  0
 10 11  1  0  0  0  0
 10 15  1  0  0  0  0
 10 34  1  0  0  0  0
 11 35  1  0  0  0  0
 11 36  1  0  0  0  0
 12 14  1  0  0  0  0
 12 37  1  0  0  0  0
 12 38  1  0  0  0  0
 13 39  1  0  0  0  0
 13 40  1  0  0  0  0
 14 41  1  0  0  0  0
 14 42  1  0  0  0  0
 15 43  1  0  0  0  0
 15 44  1  0  0  0  0
 16 17  1  0  0  0  0
 17 18  2  0  0  0  0
 17 46  1  0  0  0  0
 18 21  1  0  0  0  0
 19 22  1  0  0  0  0
 20 23  1  0  0  0  0
 21 24  2  0  0  0  0
 21 25  1  0  0  0  0
 22 47  1  0  0  0  0
 22 48  1  0  0  0  0
 23 49  1  0  0  0  0
 23 50  1  0  0  0  0
 23 51  1  0  0  0  0
 24 26  1  0  0  0  0
 24 52  1  0  0  0  0
 25 27  2  0  0  0  0
 25 53  1  0  0  0  0
 26 28  2  0  0  0  0
 26 54  1  0  0  0  0
 27 28  1  0  0  0  0
 27 55  1  0  0  0  0
 29 56  1  0  0  0  0
 29 57  1  0  0  0  0
 29 58  1  0  0  0  0
 30 59  1  0  0  0  0
 30 60  1  0  0  0  0
 30 61  1  0  0  0  0
 31 62  1  0  0  0  0
 31 63  1  0  0  0  0
 31 64  1  0  0  0  0
M  END
> <PUBCHEM_COMPOUND_CID>
26742474

> <PUBCHEM_CONFORMER_RMSD>
1

> <PUBCHEM_CONFORMER_DIVERSEORDER>
1
5
41
45
15
16
8
35
33
32
19
18
26
39
46
47
37
38
11
6
28
2
40
3
30
42
27
36
44
24
9
13
48
20
14
31
34
4
10
43
22
12
21
7
29
23
17
25

> <PUBCHEM_MMFF94_PARTIAL_CHARGES>
33
1 -0.57
10 0.27
13 0.27
14 0.27
15 0.3
16 0.17
17 -0.15
18 0.31
19 0.57
2 -0.56
20 0.48
22 0.34
23 0.14
24 -0.15
25 -0.15
26 -0.15
27 -0.15
28 0.1
29 0.28
3 -0.81
30 0.37
31 0.37
4 -0.73
45 0.37
46 0.15
5 -0.62
52 0.15
53 0.15
54 0.15
55 0.15
6 -0.62
7 -0.84
9 0.14

> <PUBCHEM_EFFECTIVE_ROTOR_COUNT>
9.2

> <PUBCHEM_PHARMACOPHORE_FEATURES>
10
1 1 acceptor
1 2 acceptor
1 3 cation
1 4 donor
1 5 acceptor
1 7 cation
3 5 6 20 cation
6 21 24 25 26 27 28 rings
6 5 6 16 17 18 20 rings
8 3 8 9 10 11 12 13 14 rings

> <PUBCHEM_HEAVY_ATOM_COUNT>
31

> <PUBCHEM_ATOM_DEF_STEREO_COUNT>
3

> <PUBCHEM_ATOM_UDEF_STEREO_COUNT>
0

> <PUBCHEM_BOND_DEF_STEREO_COUNT>
0

> <PUBCHEM_BOND_UDEF_STEREO_COUNT>
0

> <PUBCHEM_ISOTOPIC_ATOM_COUNT>
0

> <PUBCHEM_COMPONENT_COUNT>
1

> <PUBCHEM_CACTVS_TAUTO_COUNT>
2

> <PUBCHEM_CONFORMER_ID>
01980ECA00000001

> <PUBCHEM_MMFF94_ENERGY>
101.0105

> <PUBCHEM_FEATURE_SELFOVERLAP>
50.753

> <PUBCHEM_SHAPE_FINGERPRINT>
10554248 39 15841286887181916228
11374522 101 18261959652300749012
12633257 1 15792028800026497811
12760667 363 15502921039724469970
12838862 33 18114170909818781677
13103583 49 16371015147354821066
13540713 5 16734977745776942159
13583140 156 17988086702841575454
13631057 29 11959732655288367263
13673619 4 11025800903044665399
13911987 19 15985109625806020514
14767858 380 14836404722447894911
14950920 106 15503524675797299241
15238133 3 17822871830482185791
15350500 185 18335413540063941189
15669420 48 17275382119487859797
15684973 49 18043265723572121886
17492 54 15769773537813150351
17980427 23 17968947512088528718
18643901 69 9367351444319820089
19246450 95 16081360818442080165
20554085 129 18261392201036426297
20567600 254 18334860468598136289
21033648 144 17274836773982983338
21033648 29 18409458007067877418
21304303 282 18409164446607733591
21344244 181 10735862985182544108
21403212 168 16877941616803705011
21585482 111 18129094701808404112
23522609 53 16154861052897158342
2838139 119 17988365862677503969
312425 54 18113896087841046426
3552219 110 14273741729542039070
393628 179 18410284784125778281
4366758 6 18187080616809274037
4938544 92 18338517546834493106
504843 32 16845012432846819054
5104073 3 17096657689260369692
5372103 7 18060134306901675797
54039377 194 13117996678927122800
58083652 198 15502651676275602630
6009941 240 18409167740598593416
6058803 2 16301511809175855391
6086070 43 16916776423215407578
636775 8 9799690424373683136
6697151 62 17413895149391169342
999808 66 12179841710325071377

> <PUBCHEM_SHAPE_MULTIPOLES>
601.32
22.11
3.17
2.47
7.29
0.6
2.07
-26.55
-6.69
-6.98
-0.99
0.56
0.16
3.68

> <PUBCHEM_SHAPE_SELFOVERLAP>
1277.083

> <PUBCHEM_SHAPE_VOLUME>
331.9

> <PUBCHEM_COORDINATE_TYPE>
2
5
10

$$$$
