38029432
  -OEChem-12032416143D

 65 66  0     1  0  0  0  0  0999 V2000
   -1.1797    2.6959    2.3455 O   0  0  0  0  0  0  0  0  0  0  0  0
    1.9588   -1.9277   -2.2969 O   0  0  0  0  0  0  0  0  0  0  0  0
    1.9687   -5.9195    0.8133 O   0  0  0  0  0  0  0  0  0  0  0  0
    3.2680   -4.3932    1.8810 O   0  0  0  0  0  0  0  0  0  0  0  0
    3.2501   -0.3177   -1.2239 N   0  0  0  0  0  0  0  0  0  0  0  0
   -0.8854    0.4039    2.5925 N   0  0  0  0  0  0  0  0  0  0  0  0
   -5.9850   -1.3544   -2.6773 N   0  0  0  0  0  0  0  0  0  0  0  0
    1.0174    1.6968   -1.1999 C   0  0  1  0  0  0  0  0  0  0  0  0
    2.4876    1.9672   -1.6064 C   0  0  1  0  0  0  0  0  0  0  0  0
    0.5191    2.7840   -0.2356 C   0  0  0  0  0  0  0  0  0  0  0  0
    1.3726    2.8634    1.0442 C   0  0  2  0  0  0  0  0  0  0  0  0
    0.0942    1.6229   -2.4201 C   0  0  0  0  0  0  0  0  0  0  0  0
    2.8555    2.8631    0.7329 C   0  0  0  0  0  0  0  0  0  0  0  0
    3.3342    2.4720   -0.4615 C   0  0  0  0  0  0  0  0  0  0  0  0
    3.1351    0.7139   -2.2065 C   0  0  0  0  0  0  0  0  0  0  0  0
    1.0159    1.7340    2.0170 C   0  0  0  0  0  0  0  0  0  0  0  0
   -1.1477    0.7976   -2.0987 C   0  0  0  0  0  0  0  0  0  0  0  0
   -0.2921    3.0249   -2.8805 C   0  0  0  0  0  0  0  0  0  0  0  0
    3.7739    3.3664    1.8115 C   0  0  0  0  0  0  0  0  0  0  0  0
   -0.4631    1.6988    2.3296 C   0  0  0  0  0  0  0  0  0  0  0  0
    2.6478   -1.5712   -1.3450 C   0  0  0  0  0  0  0  0  0  0  0  0
    2.9395   -2.4625   -0.1512 C   0  0  0  0  0  0  0  0  0  0  0  0
   -2.2520    0.0716    2.9237 C   0  0  0  0  0  0  0  0  0  0  0  0
    2.2854   -3.8347   -0.2744 C   0  0  0  0  0  0  0  0  0  0  0  0
   -3.0666   -0.2397    1.7015 C   0  0  0  0  0  0  0  0  0  0  0  0
    2.5771   -4.7093    0.9225 C   0  0  0  0  0  0  0  0  0  0  0  0
   -4.1990    0.5196    1.4063 C   0  0  0  0  0  0  0  0  0  0  0  0
   -2.6911   -1.2879    0.8615 C   0  0  0  0  0  0  0  0  0  0  0  0
   -4.9558    0.2304    0.2709 C   0  0  0  0  0  0  0  0  0  0  0  0
   -3.4479   -1.5770   -0.2740 C   0  0  0  0  0  0  0  0  0  0  0  0
   -4.5802   -0.8178   -0.5695 C   0  0  0  0  0  0  0  0  0  0  0  0
   -5.3555   -1.1139   -1.7325 C   0  0  0  0  0  0  0  0  0  0  0  0
    0.9664    0.7365   -0.6720 H   0  0  0  0  0  0  0  0  0  0  0  0
    2.5174    2.7488   -2.3759 H   0  0  0  0  0  0  0  0  0  0  0  0
   -0.5421    2.6550   -0.0107 H   0  0  0  0  0  0  0  0  0  0  0  0
    0.6082    3.7739   -0.7032 H   0  0  0  0  0  0  0  0  0  0  0  0
    1.1254    3.8211    1.5236 H   0  0  0  0  0  0  0  0  0  0  0  0
    0.5994    1.1207   -3.2514 H   0  0  0  0  0  0  0  0  0  0  0  0
    4.4049    2.5375   -0.6455 H   0  0  0  0  0  0  0  0  0  0  0  0
    4.1538    0.9399   -2.5443 H   0  0  0  0  0  0  0  0  0  0  0  0
    2.5899    0.3504   -3.0816 H   0  0  0  0  0  0  0  0  0  0  0  0
    1.5354    1.8711    2.9733 H   0  0  0  0  0  0  0  0  0  0  0  0
    1.3425    0.7672    1.6149 H   0  0  0  0  0  0  0  0  0  0  0  0
   -1.7449    1.2407   -1.2961 H   0  0  0  0  0  0  0  0  0  0  0  0
   -0.8724   -0.2187   -1.7977 H   0  0  0  0  0  0  0  0  0  0  0  0
   -1.7922    0.7153   -2.9808 H   0  0  0  0  0  0  0  0  0  0  0  0
   -1.0064    3.5167   -2.2118 H   0  0  0  0  0  0  0  0  0  0  0  0
   -0.7940    2.9578   -3.8538 H   0  0  0  0  0  0  0  0  0  0  0  0
    0.5748    3.6763   -3.0251 H   0  0  0  0  0  0  0  0  0  0  0  0
    3.4843    4.3774    2.1159 H   0  0  0  0  0  0  0  0  0  0  0  0
    4.8166    3.4089    1.4788 H   0  0  0  0  0  0  0  0  0  0  0  0
    3.7351    2.7134    2.6884 H   0  0  0  0  0  0  0  0  0  0  0  0
    3.8471   -0.1471   -0.4197 H   0  0  0  0  0  0  0  0  0  0  0  0
   -0.2162   -0.3593    2.5521 H   0  0  0  0  0  0  0  0  0  0  0  0
    4.0271   -2.5700   -0.0590 H   0  0  0  0  0  0  0  0  0  0  0  0
    2.5810   -1.9535    0.7521 H   0  0  0  0  0  0  0  0  0  0  0  0
   -2.6890    0.9018    3.4902 H   0  0  0  0  0  0  0  0  0  0  0  0
   -2.2322   -0.8024    3.5842 H   0  0  0  0  0  0  0  0  0  0  0  0
    2.6551   -4.3459   -1.1704 H   0  0  0  0  0  0  0  0  0  0  0  0
    1.1985   -3.7221   -0.3591 H   0  0  0  0  0  0  0  0  0  0  0  0
   -4.5030    1.3399    2.0509 H   0  0  0  0  0  0  0  0  0  0  0  0
   -1.8128   -1.8894    1.0807 H   0  0  0  0  0  0  0  0  0  0  0  0
   -5.8355    0.8315    0.0537 H   0  0  0  0  0  0  0  0  0  0  0  0
   -3.1420   -2.3969   -0.9194 H   0  0  0  0  0  0  0  0  0  0  0  0
    2.1535   -6.4926    1.5878 H   0  0  0  0  0  0  0  0  0  0  0  0
  1 20  2  0  0  0  0
  2 21  2  0  0  0  0
  3 26  1  0  0  0  0
  3 65  1  0  0  0  0
  4 26  2  0  0  0  0
  5 15  1  0  0  0  0
  5 21  1  0  0  0  0
  5 53  1  0  0  0  0
  6 20  1  0  0  0  0
  6 23  1  0  0  0  0
  6 54  1  0  0  0  0
  7 32  3  0  0  0  0
  8  9  1  0  0  0  0
  8 10  1  0  0  0  0
  8 12  1  0  0  0  0
  8 33  1  0  0  0  0
  9 14  1  0  0  0  0
  9 15  1  0  0  0  0
  9 34  1  0  0  0  0
 10 11  1  0  0  0  0
 10 35  1  0  0  0  0
 10 36  1  0  0  0  0
 11 13  1  0  0  0  0
 11 16  1  0  0  0  0
 11 37  1  0  0  0  0
 12 17  1  0  0  0  0
 12 18  1  0  0  0  0
 12 38  1  0  0  0  0
 13 14  2  0  0  0  0
 13 19  1  0  0  0  0
 14 39  1  0  0  0  0
 15 40  1  0  0  0  0
 15 41  1  0  0  0  0
 16 20  1  0  0  0  0
 16 42  1  0  0  0  0
 16 43  1  0  0  0  0
 17 44  1  0  0  0  0
 17 45  1  0  0  0  0
 17 46  1  0  0  0  0
 18 47  1  0  0  0  0
 18 48  1  0  0  0  0
 18 49  1  0  0  0  0
 19 50  1  0  0  0  0
 19 51  1  0  0  0  0
 19 52  1  0  0  0  0
 21 22  1  0  0  0  0
 22 24  1  0  0  0  0
 22 55  1  0  0  0  0
 22 56  1  0  0  0  0
 23 25  1  0  0  0  0
 23 57  1  0  0  0  0
 23 58  1  0  0  0  0
 24 26  1  0  0  0  0
 24 59  1  0  0  0  0
 24 60  1  0  0  0  0
 25 27  2  0  0  0  0
 25 28  1  0  0  0  0
 27 29  1  0  0  0  0
 27 61  1  0  0  0  0
 28 30  2  0  0  0  0
 28 62  1  0  0  0  0
 29 31  2  0  0  0  0
 29 63  1  0  0  0  0
 30 31  1  0  0  0  0
 30 64  1  0  0  0  0
 31 32  1  0  0  0  0
M  END
> <PUBCHEM_COMPOUND_CID>
38029432

> <PUBCHEM_CONFORMER_RMSD>
1.2

> <PUBCHEM_CONFORMER_DIVERSEORDER>
1
27
77
48
89
64
38
99
80
53
31
9
10
71
92
56
94
72
78
76
46
21
88
75
33
61
37
66
30
51
81
26
17
102
54
58
16
91
42
103
25
13
105
62
106
68
59
52
19
18
97
20
67
93
84
74
104
79
85
23
11
41
86
60
87
43
7
107
36
35
96
100
73
83
57
47
32
95
101
90
45
3
63
55
49
98
2
65
8
50
6
69
12
82
34
28
39
14
40
22
70
5
15
4
24
29
44

> <PUBCHEM_MMFF94_PARTIAL_CHARGES>
35
1 -0.57
11 0.14
13 -0.28
14 -0.29
15 0.3
16 0.06
19 0.14
2 -0.57
20 0.57
21 0.57
22 0.06
23 0.44
24 0.06
25 -0.14
26 0.66
27 -0.15
28 -0.15
29 -0.15
3 -0.65
30 -0.15
31 0.07
32 0.48
39 0.15
4 -0.57
5 -0.73
53 0.37
54 0.37
6 -0.73
61 0.15
62 0.15
63 0.15
64 0.15
65 0.5
7 -0.56
9 0.14

> <PUBCHEM_EFFECTIVE_ROTOR_COUNT>
12.8

> <PUBCHEM_PHARMACOPHORE_FEATURES>
11
1 1 acceptor
1 2 acceptor
1 3 acceptor
1 4 acceptor
1 5 donor
1 6 donor
1 7 acceptor
3 12 17 18 hydrophobe
3 3 4 26 anion
6 25 27 28 29 30 31 rings
6 8 9 10 11 13 14 rings

> <PUBCHEM_HEAVY_ATOM_COUNT>
32

> <PUBCHEM_ATOM_DEF_STEREO_COUNT>
3

> <PUBCHEM_ATOM_UDEF_STEREO_COUNT>
0

> <PUBCHEM_BOND_DEF_STEREO_COUNT>
0

> <PUBCHEM_BOND_UDEF_STEREO_COUNT>
0

> <PUBCHEM_ISOTOPIC_ATOM_COUNT>
0

> <PUBCHEM_COMPONENT_COUNT>
1

> <PUBCHEM_CACTVS_TAUTO_COUNT>
4

> <PUBCHEM_CONFORMER_ID>
0244487800000001

> <PUBCHEM_MMFF94_ENERGY>
54.7058

> <PUBCHEM_FEATURE_SELFOVERLAP>
55.88

> <PUBCHEM_SHAPE_FINGERPRINT>
12156800 1 17101120340215918187
13383668 262 17766247128430741967
14251757 17 17023485078667801135
14674994 50 17325205126657398694
17921350 177 16880203470423927436
19315092 285 18201140131775340511
20775530 9 18047201756382522498
35225 105 16761427773324084268
4573279 79 18047158927264183370
5081480 168 17750230318893007467
513532 50 17896299437878888567
550186 7 14281663989027850949

> <PUBCHEM_SHAPE_MULTIPOLES>
620.12
9.19
6.12
3.41
13.66
11.11
-0.13
1.64
-2.73
-9.39
2.28
1.1
-1.65
-0.84

> <PUBCHEM_SHAPE_SELFOVERLAP>
1273.817

> <PUBCHEM_SHAPE_VOLUME>
352.2

> <PUBCHEM_COORDINATE_TYPE>
2
5
10

$$$$
