45783907
  -OEChem-12032416353D

 71 75  0     1  0  0  0  0  0999 V2000
    4.5689    0.1912    0.7402 O   0  0  0  0  0  0  0  0  0  0  0  0
   -2.8073   -0.6484    0.7223 N   0  0  0  0  0  0  0  0  0  0  0  0
   -5.2272    0.8235    0.3518 N   0  0  0  0  0  0  0  0  0  0  0  0
    4.3201   -1.2422   -0.9592 N   0  0  0  0  0  0  0  0  0  0  0  0
    5.2573   -0.2967   -1.3316 N   0  0  0  0  0  0  0  0  0  0  0  0
   -7.4549    0.8712   -0.3478 N   0  0  0  0  0  0  0  0  0  0  0  0
   -6.2778    2.9033    0.1932 N   0  0  0  0  0  0  0  0  0  0  0  0
   -0.4563   -1.6843   -0.6896 C   0  0  1  0  0  0  0  0  0  0  0  0
   -1.1820   -2.4755    0.4235 C   0  0  2  0  0  0  0  0  0  0  0  0
    0.8874   -1.1461   -0.1782 C   0  0  0  0  0  0  0  0  0  0  0  0
    1.8229   -2.2494    0.3609 C   0  0  2  0  0  0  0  0  0  0  0  0
   -0.2682   -2.5379   -1.9511 C   0  0  0  0  0  0  0  0  0  0  0  0
   -1.8816   -1.5423    1.4170 C   0  0  0  0  0  0  0  0  0  0  0  0
   -0.2566   -3.3971    1.1763 C   0  0  0  0  0  0  0  0  0  0  0  0
    1.0867   -3.3203    1.1518 C   0  0  0  0  0  0  0  0  0  0  0  0
    2.9511   -1.5867    1.1613 C   0  0  0  0  0  0  0  0  0  0  0  0
   -1.6087   -3.0919   -2.4233 C   0  0  0  0  0  0  0  0  0  0  0  0
    0.3973   -1.7196   -3.0528 C   0  0  0  0  0  0  0  0  0  0  0  0
   -3.0876    0.5387    1.5388 C   0  0  0  0  0  0  0  0  0  0  0  0
   -4.0604   -1.3467    0.4097 C   0  0  0  0  0  0  0  0  0  0  0  0
    1.9177   -4.3463    1.8723 C   0  0  0  0  0  0  0  0  0  0  0  0
   -4.0114    1.5098    0.7995 C   0  0  0  0  0  0  0  0  0  0  0  0
   -5.0156   -0.4387   -0.3681 C   0  0  0  0  0  0  0  0  0  0  0  0
    3.9461   -0.9182    0.2565 C   0  0  0  0  0  0  0  0  0  0  0  0
   -6.3736    1.5674    0.0517 C   0  0  0  0  0  0  0  0  0  0  0  0
    5.3705    0.5193   -0.3098 C   0  0  0  0  0  0  0  0  0  0  0  0
    6.1931    1.6805   -0.1322 C   0  0  0  0  0  0  0  0  0  0  0  0
   -8.5418    1.6195   -0.6291 C   0  0  0  0  0  0  0  0  0  0  0  0
   -7.4009    3.5893   -0.1046 C   0  0  0  0  0  0  0  0  0  0  0  0
   -8.5735    2.9951   -0.5247 C   0  0  0  0  0  0  0  0  0  0  0  0
    5.8655    2.6253    0.8403 C   0  0  0  0  0  0  0  0  0  0  0  0
    7.3208    1.8653   -0.9320 C   0  0  0  0  0  0  0  0  0  0  0  0
    6.6657    3.7548    1.0130 C   0  0  0  0  0  0  0  0  0  0  0  0
    8.1210    2.9946   -0.7593 C   0  0  0  0  0  0  0  0  0  0  0  0
    7.7933    3.9395    0.2132 C   0  0  0  0  0  0  0  0  0  0  0  0
   -1.0568   -0.8157   -0.9876 H   0  0  0  0  0  0  0  0  0  0  0  0
   -1.9548   -3.1228    0.0077 H   0  0  0  0  0  0  0  0  0  0  0  0
    1.3972   -0.5471   -0.9395 H   0  0  0  0  0  0  0  0  0  0  0  0
    0.6742   -0.4307    0.6282 H   0  0  0  0  0  0  0  0  0  0  0  0
    2.2601   -2.7730   -0.5010 H   0  0  0  0  0  0  0  0  0  0  0  0
    0.3784   -3.4003   -1.7495 H   0  0  0  0  0  0  0  0  0  0  0  0
   -1.1146   -0.9538    1.9387 H   0  0  0  0  0  0  0  0  0  0  0  0
   -2.3952   -2.1151    2.2021 H   0  0  0  0  0  0  0  0  0  0  0  0
   -0.7354   -4.1820    1.7582 H   0  0  0  0  0  0  0  0  0  0  0  0
    2.5526   -0.8656    1.8852 H   0  0  0  0  0  0  0  0  0  0  0  0
    3.5258   -2.3210    1.7355 H   0  0  0  0  0  0  0  0  0  0  0  0
   -1.5299   -3.4666   -3.4507 H   0  0  0  0  0  0  0  0  0  0  0  0
   -1.9403   -3.9469   -1.8272 H   0  0  0  0  0  0  0  0  0  0  0  0
   -2.3921   -2.3266   -2.4171 H   0  0  0  0  0  0  0  0  0  0  0  0
   -0.1228   -0.7708   -3.2227 H   0  0  0  0  0  0  0  0  0  0  0  0
    0.3932   -2.2712   -3.9999 H   0  0  0  0  0  0  0  0  0  0  0  0
    1.4473   -1.5078   -2.8312 H   0  0  0  0  0  0  0  0  0  0  0  0
   -2.1550    1.0690    1.7673 H   0  0  0  0  0  0  0  0  0  0  0  0
   -3.5439    0.2509    2.4957 H   0  0  0  0  0  0  0  0  0  0  0  0
   -4.5538   -1.6887    1.3298 H   0  0  0  0  0  0  0  0  0  0  0  0
   -3.8802   -2.2319   -0.2085 H   0  0  0  0  0  0  0  0  0  0  0  0
    2.7087   -4.7266    1.2176 H   0  0  0  0  0  0  0  0  0  0  0  0
    1.3195   -5.2083    2.1879 H   0  0  0  0  0  0  0  0  0  0  0  0
    2.3726   -3.9193    2.7710 H   0  0  0  0  0  0  0  0  0  0  0  0
   -4.2490    2.3263    1.4923 H   0  0  0  0  0  0  0  0  0  0  0  0
   -3.4944    1.9439   -0.0658 H   0  0  0  0  0  0  0  0  0  0  0  0
   -4.6097   -0.2248   -1.3652 H   0  0  0  0  0  0  0  0  0  0  0  0
   -5.9503   -0.9946   -0.5061 H   0  0  0  0  0  0  0  0  0  0  0  0
   -9.4160    1.0640   -0.9516 H   0  0  0  0  0  0  0  0  0  0  0  0
   -7.3298    4.6659    0.0074 H   0  0  0  0  0  0  0  0  0  0  0  0
   -9.4597    3.5702   -0.7570 H   0  0  0  0  0  0  0  0  0  0  0  0
    4.9896    2.5152    1.4750 H   0  0  0  0  0  0  0  0  0  0  0  0
    7.5952    1.1404   -1.6947 H   0  0  0  0  0  0  0  0  0  0  0  0
    6.4099    4.4915    1.7690 H   0  0  0  0  0  0  0  0  0  0  0  0
    8.9993    3.1386   -1.3818 H   0  0  0  0  0  0  0  0  0  0  0  0
    8.4161    4.8191    0.3474 H   0  0  0  0  0  0  0  0  0  0  0  0
  1 24  1  0  0  0  0
  1 26  1  0  0  0  0
  2 13  1  0  0  0  0
  2 19  1  0  0  0  0
  2 20  1  0  0  0  0
  3 22  1  0  0  0  0
  3 23  1  0  0  0  0
  3 25  1  0  0  0  0
  4  5  1  0  0  0  0
  4 24  2  0  0  0  0
  5 26  2  0  0  0  0
  6 25  2  0  0  0  0
  6 28  1  0  0  0  0
  7 25  1  0  0  0  0
  7 29  2  0  0  0  0
  8  9  1  0  0  0  0
  8 10  1  0  0  0  0
  8 12  1  0  0  0  0
  8 36  1  0  0  0  0
  9 13  1  0  0  0  0
  9 14  1  0  0  0  0
  9 37  1  0  0  0  0
 10 11  1  0  0  0  0
 10 38  1  0  0  0  0
 10 39  1  0  0  0  0
 11 15  1  0  0  0  0
 11 16  1  0  0  0  0
 11 40  1  0  0  0  0
 12 17  1  0  0  0  0
 12 18  1  0  0  0  0
 12 41  1  0  0  0  0
 13 42  1  0  0  0  0
 13 43  1  0  0  0  0
 14 15  2  0  0  0  0
 14 44  1  0  0  0  0
 15 21  1  0  0  0  0
 16 24  1  0  0  0  0
 16 45  1  0  0  0  0
 16 46  1  0  0  0  0
 17 47  1  0  0  0  0
 17 48  1  0  0  0  0
 17 49  1  0  0  0  0
 18 50  1  0  0  0  0
 18 51  1  0  0  0  0
 18 52  1  0  0  0  0
 19 22  1  0  0  0  0
 19 53  1  0  0  0  0
 19 54  1  0  0  0  0
 20 23  1  0  0  0  0
 20 55  1  0  0  0  0
 20 56  1  0  0  0  0
 21 57  1  0  0  0  0
 21 58  1  0  0  0  0
 21 59  1  0  0  0  0
 22 60  1  0  0  0  0
 22 61  1  0  0  0  0
 23 62  1  0  0  0  0
 23 63  1  0  0  0  0
 26 27  1  0  0  0  0
 27 31  2  0  0  0  0
 27 32  1  0  0  0  0
 28 30  2  0  0  0  0
 28 64  1  0  0  0  0
 29 30  1  0  0  0  0
 29 65  1  0  0  0  0
 30 66  1  0  0  0  0
 31 33  1  0  0  0  0
 31 67  1  0  0  0  0
 32 34  2  0  0  0  0
 32 68  1  0  0  0  0
 33 35  2  0  0  0  0
 33 69  1  0  0  0  0
 34 35  1  0  0  0  0
 34 70  1  0  0  0  0
 35 71  1  0  0  0  0
M  END
> <PUBCHEM_COMPOUND_CID>
45783907

> <PUBCHEM_CONFORMER_RMSD>
1.2

> <PUBCHEM_CONFORMER_DIVERSEORDER>
29
155
108
35
154
68
9
46
77
109
159
149
103
114
83
113
148
67
13
88
39
95
157
61
99
50
133
153
144
156
80
150
7
135
151
72
86
12
51
126
49
38
117
138
69
96
47
91
158
127
106
53
25
152
84
63
14
142
120
90
82
44
28
60
48
125
33
110
140
43
116
145
101
41
31
146
134
136
141
40
147
27
36
76
34
11
94
73
79
26
71
75
70
59
128
21
81
66
119
74
98
22
137
139
17
92
1
107
56
5
102
100
112
132
15
30
130
45
23
58
111
18
6
24
78
143
85
65
64
2
93
32
37
123
87
10
122
55
20
129
131
105
42
124
4
62
121
97
118
8
89
54
19
52
16
3
115
104
57

> <PUBCHEM_MMFF94_PARTIAL_CHARGES>
39
1 -0.28
11 0.14
13 0.27
14 -0.29
15 -0.28
16 0.18
19 0.27
2 -0.81
20 0.27
21 0.14
22 0.37
23 0.37
24 0.3
25 0.72
26 0.43
27 0.05
28 0.16
29 0.16
3 -0.84
30 -0.15
31 -0.15
32 -0.15
33 -0.15
34 -0.15
35 -0.15
4 -0.34
44 0.15
5 -0.34
6 -0.62
64 0.15
65 0.15
66 0.15
67 0.15
68 0.15
69 0.15
7 -0.62
70 0.15
71 0.15
9 0.14

> <PUBCHEM_EFFECTIVE_ROTOR_COUNT>
9

> <PUBCHEM_PHARMACOPHORE_FEATURES>
9
1 2 cation
1 7 acceptor
3 12 17 18 hydrophobe
4 3 6 7 25 cation
5 1 4 5 24 26 rings
6 2 3 19 20 22 23 rings
6 27 31 32 33 34 35 rings
6 6 7 25 28 29 30 rings
6 8 9 10 11 14 15 rings

> <PUBCHEM_HEAVY_ATOM_COUNT>
35

> <PUBCHEM_ATOM_DEF_STEREO_COUNT>
3

> <PUBCHEM_ATOM_UDEF_STEREO_COUNT>
0

> <PUBCHEM_BOND_DEF_STEREO_COUNT>
0

> <PUBCHEM_BOND_UDEF_STEREO_COUNT>
0

> <PUBCHEM_ISOTOPIC_ATOM_COUNT>
0

> <PUBCHEM_COMPONENT_COUNT>
1

> <PUBCHEM_CACTVS_TAUTO_COUNT>
1

> <PUBCHEM_CONFORMER_ID>
02BA9B630000001D

> <PUBCHEM_MMFF94_ENERGY>
87.2995

> <PUBCHEM_FEATURE_SELFOVERLAP>
45.673

> <PUBCHEM_SHAPE_FINGERPRINT>
10006869 2 18336541612922957410
10280341 67 18271515516368648400
10533779 1 18409721894164736304
11135609 127 18118395139298282525
11421887 103 18260820540342008788
12124843 1 18059579122096002068
12522641 24 18117278060680045486
12522641 68 18271809068355623278
12988421 55 17532918601958647130
13248334 5 18119526544768812658
13726171 33 18201447961251803515
13782708 43 11023814073128251299
13911987 19 17561370582165511475
14114211 68 16773514370369180263
14359421 15 12823305575881170493
14565420 104 18187362104196529570
14904525 67 17979925136036312228
14930077 153 17845367932902143607
14931854 50 17989211451554518192
15082195 135 17631729349292408995
15131766 46 18410562994815431087
15198563 99 17768519844234181103
15347591 1 18408885143882304578
15510800 12 10087641502959927028
15684393 108 11527940180054543088
15803439 3 17060623317121077838
15840311 113 18188774942415646343
19053607 189 18410281523928285040
19301679 30 11602815766079356664
19304671 126 18272097067555649260
2026 5 10519716574083938149
20691028 202 18261957470293396724
20771845 171 17702379551283284647
20982279 24 13038609822500310205
21033648 29 17748831816774077819
21298829 104 18334014999215985229
21344244 181 12751222710719019357
21424621 283 18335703896932572362
22899556 105 12103300278248050676
23522609 53 17701264621350189833
23569914 152 17985287200994003278
23569914 2 16913384546288417240
27425 322 18412546505118505254
3504750 166 7853853876487387827
3918712 181 18410570699882148840
392239 28 14273733018921022626
393628 194 18188492500586263956
406291 66 10087646996191586372
4112364 45 17822562829155079530
44249763 50 17416395679677102864
44802255 64 17559405849724402494
44880168 125 7853565765433381073
5372103 7 18341896277395060661
54583773 228 18410005551959603725
5718773 13 9799696995478083608
58260988 647 10807927189570402223
6327066 14 18413671326681730494
6698420 124 18187643661452871434
6712543 237 15068620500060674593
7288768 16 18041560364416397778
9849439 229 18334852823124015346

> <PUBCHEM_SHAPE_MULTIPOLES>
684.53
25.42
5.83
1.8
8.29
0.76
1.05
46.03
2.79
-2.82
-1.01
-0.45
-1.89
-0.03

> <PUBCHEM_SHAPE_SELFOVERLAP>
1461.455

> <PUBCHEM_SHAPE_VOLUME>
376.8

> <PUBCHEM_COORDINATE_TYPE>
2
5
10

$$$$
