56775241
  -OEChem-12032416213D

 41 44  0     1  0  0  0  0  0999 V2000
   -0.9087    2.4063    0.6615 O   0  0  0  0  0  0  0  0  0  0  0  0
   -4.6621   -0.4450    1.4274 O   0  0  0  0  0  0  0  0  0  0  0  0
    1.8462    2.4001   -1.5898 O   0  0  0  0  0  0  0  0  0  0  0  0
   -2.4946   -0.1357    0.6757 N   0  0  0  0  0  0  0  0  0  0  0  0
    0.8842    0.6052   -0.4643 N   0  0  0  0  0  0  0  0  0  0  0  0
    5.1879   -0.2097    0.0611 N   0  0  0  0  0  0  0  0  0  0  0  0
   -0.1589    0.1308    0.4364 C   0  0  1  0  0  0  0  0  0  0  0  0
   -4.1101   -1.4429   -0.6233 C   0  0  0  0  0  0  0  0  0  0  0  0
   -0.6880    1.2006    1.3889 C   0  0  2  0  0  0  0  0  0  0  0  0
   -1.4241   -0.3210   -0.2984 C   0  0  0  0  0  0  0  0  0  0  0  0
   -2.0379    0.6427    1.8215 C   0  0  0  0  0  0  0  0  0  0  0  0
   -4.5499   -0.7516   -1.8803 C   0  0  0  0  0  0  0  0  0  0  0  0
   -5.5370   -1.5459   -1.0764 C   0  0  0  0  0  0  0  0  0  0  0  0
   -3.7879   -0.6231    0.5839 C   0  0  0  0  0  0  0  0  0  0  0  0
    1.0716    1.9570   -0.7402 C   0  0  0  0  0  0  0  0  0  0  0  0
    0.3054    2.9138    0.1563 C   0  0  0  0  0  0  0  0  0  0  0  0
    1.6289   -0.4059   -1.2020 C   0  0  0  0  0  0  0  0  0  0  0  0
    2.9085   -0.7777   -0.5101 C   0  0  0  0  0  0  0  0  0  0  0  0
    3.0273   -1.9793    0.1794 C   0  0  0  0  0  0  0  0  0  0  0  0
    4.0080    0.0649   -0.5391 C   0  0  0  0  0  0  0  0  0  0  0  0
    4.2252   -2.2971    0.8098 C   0  0  0  0  0  0  0  0  0  0  0  0
    5.2660   -1.3867    0.7217 C   0  0  0  0  0  0  0  0  0  0  0  0
    0.2392   -0.7030    1.0294 H   0  0  0  0  0  0  0  0  0  0  0  0
   -3.5191   -2.3474   -0.7324 H   0  0  0  0  0  0  0  0  0  0  0  0
   -0.0311    1.4006    2.2425 H   0  0  0  0  0  0  0  0  0  0  0  0
   -1.3684   -1.3648   -0.6207 H   0  0  0  0  0  0  0  0  0  0  0  0
   -1.6504    0.3022   -1.1712 H   0  0  0  0  0  0  0  0  0  0  0  0
   -1.9368   -0.0505    2.6635 H   0  0  0  0  0  0  0  0  0  0  0  0
   -2.7771    1.4115    2.0668 H   0  0  0  0  0  0  0  0  0  0  0  0
   -4.2176   -1.1648   -2.8247 H   0  0  0  0  0  0  0  0  0  0  0  0
   -4.6461    0.3273   -1.8726 H   0  0  0  0  0  0  0  0  0  0  0  0
   -6.3070   -0.9957   -0.5500 H   0  0  0  0  0  0  0  0  0  0  0  0
   -5.8697   -2.4937   -1.4827 H   0  0  0  0  0  0  0  0  0  0  0  0
    0.9576    3.2153    0.9841 H   0  0  0  0  0  0  0  0  0  0  0  0
    0.0687    3.8089   -0.4281 H   0  0  0  0  0  0  0  0  0  0  0  0
    1.8699   -0.0224   -2.2014 H   0  0  0  0  0  0  0  0  0  0  0  0
    0.9955   -1.2863   -1.3613 H   0  0  0  0  0  0  0  0  0  0  0  0
    2.1942   -2.6745    0.2338 H   0  0  0  0  0  0  0  0  0  0  0  0
    3.9887    1.0114   -1.0678 H   0  0  0  0  0  0  0  0  0  0  0  0
    4.3404   -3.2278    1.3532 H   0  0  0  0  0  0  0  0  0  0  0  0
    6.2209   -1.5874    1.1961 H   0  0  0  0  0  0  0  0  0  0  0  0
  1  9  1  0  0  0  0
  1 16  1  0  0  0  0
  2 14  2  0  0  0  0
  3 15  2  0  0  0  0
  4 10  1  0  0  0  0
  4 11  1  0  0  0  0
  4 14  1  0  0  0  0
  5  7  1  0  0  0  0
  5 15  1  0  0  0  0
  5 17  1  0  0  0  0
  6 20  1  0  0  0  0
  6 22  2  0  0  0  0
  7  9  1  0  0  0  0
  7 10  1  0  0  0  0
  7 23  1  0  0  0  0
  8 12  1  0  0  0  0
  8 13  1  0  0  0  0
  8 14  1  0  0  0  0
  8 24  1  0  0  0  0
  9 11  1  0  0  0  0
  9 25  1  0  0  0  0
 10 26  1  0  0  0  0
 10 27  1  0  0  0  0
 11 28  1  0  0  0  0
 11 29  1  0  0  0  0
 12 13  1  0  0  0  0
 12 30  1  0  0  0  0
 12 31  1  0  0  0  0
 13 32  1  0  0  0  0
 13 33  1  0  0  0  0
 15 16  1  0  0  0  0
 16 34  1  0  0  0  0
 16 35  1  0  0  0  0
 17 18  1  0  0  0  0
 17 36  1  0  0  0  0
 17 37  1  0  0  0  0
 18 19  1  0  0  0  0
 18 20  2  0  0  0  0
 19 21  2  0  0  0  0
 19 38  1  0  0  0  0
 20 39  1  0  0  0  0
 21 22  1  0  0  0  0
 21 40  1  0  0  0  0
 22 41  1  0  0  0  0
M  END
> <PUBCHEM_COMPOUND_CID>
56775241

> <PUBCHEM_CONFORMER_RMSD>
0.8

> <PUBCHEM_CONFORMER_DIVERSEORDER>
1
29
43
61
79
34
36
40
44
17
64
55
33
60
42
19
25
32
46
9
15
72
48
12
78
24
2
81
8
76
20
82
37
47
49
22
41
31
68
58
23
56
69
6
45
71
35
63
52
30
5
73
57
50
21
10
83
27
66
11
4
75
59
53
80
18
7
54
26
3
39
51
74
13
65
38
70
16
14
77
28
62
67

> <PUBCHEM_MMFF94_PARTIAL_CHARGES>
31
1 -0.56
10 0.3
11 0.3
12 -0.2
13 -0.2
14 0.63
15 0.57
16 0.34
17 0.44
18 -0.14
19 -0.15
2 -0.57
20 0.16
21 -0.15
22 0.16
24 0.1
3 -0.57
30 0.1
31 0.1
32 0.1
33 0.1
38 0.15
39 0.15
4 -0.66
40 0.15
41 0.15
5 -0.66
6 -0.62
7 0.3
8 -0.1
9 0.28

> <PUBCHEM_EFFECTIVE_ROTOR_COUNT>
5.8

> <PUBCHEM_PHARMACOPHORE_FEATURES>
7
1 1 acceptor
1 2 acceptor
1 3 acceptor
1 6 acceptor
5 4 7 9 10 11 rings
6 1 5 7 9 15 16 rings
6 6 18 19 20 21 22 rings

> <PUBCHEM_HEAVY_ATOM_COUNT>
22

> <PUBCHEM_ATOM_DEF_STEREO_COUNT>
2

> <PUBCHEM_ATOM_UDEF_STEREO_COUNT>
0

> <PUBCHEM_BOND_DEF_STEREO_COUNT>
0

> <PUBCHEM_BOND_UDEF_STEREO_COUNT>
0

> <PUBCHEM_ISOTOPIC_ATOM_COUNT>
0

> <PUBCHEM_COMPONENT_COUNT>
1

> <PUBCHEM_CACTVS_TAUTO_COUNT>
2

> <PUBCHEM_CONFORMER_ID>
0362524900000001

> <PUBCHEM_MMFF94_ENERGY>
58.2558

> <PUBCHEM_FEATURE_SELFOVERLAP>
35.724

> <PUBCHEM_SHAPE_FINGERPRINT>
10062212 137 18201449077578842027
10366900 7 18335431149545496858
10447042 23 18260264140602907990
11045515 52 18187643578804026916
11045977 3 14908180845825555075
11265709 11 18410859841168961488
11552529 35 17983859974080199018
11578080 2 18059277817171228121
11823591 26 9655571894559848558
12553582 1 18338537269023811462
13004483 165 18337656526108680798
13083527 12 18342736334311628604
13134695 92 18335706091138829253
13177829 73 11891323249484826734
13544653 18 18409449167708359438
13583140 156 14620517744527060237
13782708 43 17241626060042759523
14178342 30 16844749546656914699
14251757 17 16950830427935219879
14429115 67 18341332176253254078
14787075 74 17846778542075606962
14863182 85 17275117153363440886
15183329 4 14924216097682592410
15415430 10 18272931617812648515
15534591 1 7925620103468951153
17349148 13 18272940439696612503
17980427 23 17418095438242913665
1813 80 18343871008540816453
18186145 218 17168144589703704905
18222031 100 18342461435066693214
200 152 18187649076562307250
20626108 58 18059854012829299307
20645477 70 17822865284952091232
21250096 35 18409728460783927690
22112679 90 17986137199726256369
23402539 116 18342455911301023679
23419403 2 17843653695353731145
23557571 272 15841566183998089251
23559900 14 18041566957032499184
25147074 1 18271825535302063601
3009799 131 18114172030018553933
314194 84 18408889546349746690
339767 52 17846492639109102391
4098825 35 18260824934846484221
439807 62 18194958772484868087
46194498 28 16806178803097724287
5161694 15 16443070520894481319
5283173 99 17823405016223016860
56616090 89 17846492643250777059
59444896 2 15334294554072268784
59682541 52 18115009910110007271
633830 44 9079107856822377466
6442390 28 15913323607272617078
7471813 234 18412261748390653892
76465 3 18413103952827669651

> <PUBCHEM_SHAPE_MULTIPOLES>
420.2
11.21
2.56
1.51
1.62
1.49
-0.01
-9.24
0.7
-1.1
0.14
1.16
0.19
-1.88

> <PUBCHEM_SHAPE_SELFOVERLAP>
901.642

> <PUBCHEM_SHAPE_VOLUME>
230.1

> <PUBCHEM_COORDINATE_TYPE>
2
5
10

$$$$
