28960500
  -OEChem-12032416293D

 57 60  0     1  0  0  0  0  0999 V2000
   -2.4285   -1.4343   -1.6241 O   0  0  0  0  0  0  0  0  0  0  0  0
   -4.2616   -2.1316   -0.3867 O   0  0  0  0  0  0  0  0  0  0  0  0
   -2.7792   -2.3222    2.0664 O   0  0  0  0  0  0  0  0  0  0  0  0
    0.3199    4.5580   -1.1961 O   0  0  0  0  0  0  0  0  0  0  0  0
    6.1345   -0.2176   -0.6170 O   0  0  0  0  0  0  0  0  0  0  0  0
   -1.9916    0.7293    0.2398 N   0  0  0  0  0  0  0  0  0  0  0  0
    0.0586   -1.9841   -0.2105 N   0  0  0  0  0  0  0  0  0  0  0  0
   -0.5902    5.8077    0.5080 N   0  0  0  0  0  0  0  0  0  0  0  0
   -2.7962   -0.4530    0.5508 C   0  0  2  0  0  0  0  0  0  0  0  0
   -1.9266   -1.5494    1.2087 C   0  0  2  0  0  0  0  0  0  0  0  0
   -1.2509   -2.5055    0.1955 C   0  0  1  0  0  0  0  0  0  0  0  0
   -3.4591   -0.9902   -0.7313 C   0  0  1  0  0  0  0  0  0  0  0  0
   -2.1014   -2.7167   -1.0781 C   0  0  1  0  0  0  0  0  0  0  0  0
   -3.4918   -3.2656   -0.8138 C   0  0  0  0  0  0  0  0  0  0  0  0
   -2.6679    1.5613   -0.7650 C   0  0  0  0  0  0  0  0  0  0  0  0
   -1.7111    1.4960    1.4616 C   0  0  0  0  0  0  0  0  0  0  0  0
   -1.8139    2.7732   -1.1418 C   0  0  0  0  0  0  0  0  0  0  0  0
   -0.8250    2.7063    1.1621 C   0  0  0  0  0  0  0  0  0  0  0  0
   -1.4492    3.5986    0.0906 C   0  0  0  0  0  0  0  0  0  0  0  0
    1.0437   -2.2120    0.8325 C   0  0  0  0  0  0  0  0  0  0  0  0
   -0.4884    4.6855   -0.2797 C   0  0  0  0  0  0  0  0  0  0  0  0
    2.3997   -1.6825    0.4484 C   0  0  0  0  0  0  0  0  0  0  0  0
    3.1916   -2.3854   -0.4598 C   0  0  0  0  0  0  0  0  0  0  0  0
    2.8633   -0.4876    0.9988 C   0  0  0  0  0  0  0  0  0  0  0  0
    4.4468   -1.8934   -0.8175 C   0  0  0  0  0  0  0  0  0  0  0  0
    4.1184    0.0044    0.6413 C   0  0  0  0  0  0  0  0  0  0  0  0
    4.9103   -0.6985   -0.2668 C   0  0  0  0  0  0  0  0  0  0  0  0
    6.5460    1.0094   -0.0161 C   0  0  0  0  0  0  0  0  0  0  0  0
   -3.6125   -0.1885    1.2390 H   0  0  0  0  0  0  0  0  0  0  0  0
   -1.2022   -1.1192    1.9002 H   0  0  0  0  0  0  0  0  0  0  0  0
   -1.1208   -3.4987    0.6464 H   0  0  0  0  0  0  0  0  0  0  0  0
   -4.1445   -0.3013   -1.2303 H   0  0  0  0  0  0  0  0  0  0  0  0
   -1.5643   -3.3209   -1.8173 H   0  0  0  0  0  0  0  0  0  0  0  0
   -3.9494   -3.6325   -1.7389 H   0  0  0  0  0  0  0  0  0  0  0  0
   -3.5242   -4.0597   -0.0631 H   0  0  0  0  0  0  0  0  0  0  0  0
   -2.7911    1.0524   -1.7250 H   0  0  0  0  0  0  0  0  0  0  0  0
   -3.6522    1.8975   -0.4134 H   0  0  0  0  0  0  0  0  0  0  0  0
   -2.6443    1.8392    1.9283 H   0  0  0  0  0  0  0  0  0  0  0  0
   -1.1844    0.8951    2.2085 H   0  0  0  0  0  0  0  0  0  0  0  0
   -0.9083    2.4210   -1.6547 H   0  0  0  0  0  0  0  0  0  0  0  0
   -2.3552    3.3975   -1.8637 H   0  0  0  0  0  0  0  0  0  0  0  0
   -0.6664    3.2791    2.0842 H   0  0  0  0  0  0  0  0  0  0  0  0
    0.1671    2.3622    0.8391 H   0  0  0  0  0  0  0  0  0  0  0  0
   -2.3679    4.0499    0.4887 H   0  0  0  0  0  0  0  0  0  0  0  0
   -0.0179   -0.9871   -0.4121 H   0  0  0  0  0  0  0  0  0  0  0  0
   -2.2212   -2.9730    2.5256 H   0  0  0  0  0  0  0  0  0  0  0  0
    1.1487   -3.2878    1.0276 H   0  0  0  0  0  0  0  0  0  0  0  0
    0.7554   -1.7619    1.7883 H   0  0  0  0  0  0  0  0  0  0  0  0
   -1.2591    5.8819    1.2677 H   0  0  0  0  0  0  0  0  0  0  0  0
    0.0134    6.6087    0.3544 H   0  0  0  0  0  0  0  0  0  0  0  0
    2.8413   -3.3174   -0.8956 H   0  0  0  0  0  0  0  0  0  0  0  0
    2.2543    0.0720    1.7042 H   0  0  0  0  0  0  0  0  0  0  0  0
    5.0590   -2.4452   -1.5256 H   0  0  0  0  0  0  0  0  0  0  0  0
    4.4158    0.9385    1.1054 H   0  0  0  0  0  0  0  0  0  0  0  0
    7.5421    1.2424   -0.4066 H   0  0  0  0  0  0  0  0  0  0  0  0
    6.6433    0.9127    1.0705 H   0  0  0  0  0  0  0  0  0  0  0  0
    5.8889    1.8378   -0.3021 H   0  0  0  0  0  0  0  0  0  0  0  0
  1 12  1  0  0  0  0
  1 13  1  0  0  0  0
  2 12  1  0  0  0  0
  2 14  1  0  0  0  0
  3 10  1  0  0  0  0
  3 46  1  0  0  0  0
  4 21  2  0  0  0  0
  5 27  1  0  0  0  0
  5 28  1  0  0  0  0
  6  9  1  0  0  0  0
  6 15  1  0  0  0  0
  6 16  1  0  0  0  0
  7 11  1  0  0  0  0
  7 20  1  0  0  0  0
  7 45  1  0  0  0  0
  8 21  1  0  0  0  0
  8 49  1  0  0  0  0
  8 50  1  0  0  0  0
  9 10  1  0  0  0  0
  9 12  1  0  0  0  0
  9 29  1  0  0  0  0
 10 11  1  0  0  0  0
 10 30  1  0  0  0  0
 11 13  1  0  0  0  0
 11 31  1  0  0  0  0
 12 32  1  0  0  0  0
 13 14  1  0  0  0  0
 13 33  1  0  0  0  0
 14 34  1  0  0  0  0
 14 35  1  0  0  0  0
 15 17  1  0  0  0  0
 15 36  1  0  0  0  0
 15 37  1  0  0  0  0
 16 18  1  0  0  0  0
 16 38  1  0  0  0  0
 16 39  1  0  0  0  0
 17 19  1  0  0  0  0
 17 40  1  0  0  0  0
 17 41  1  0  0  0  0
 18 19  1  0  0  0  0
 18 42  1  0  0  0  0
 18 43  1  0  0  0  0
 19 21  1  0  0  0  0
 19 44  1  0  0  0  0
 20 22  1  0  0  0  0
 20 47  1  0  0  0  0
 20 48  1  0  0  0  0
 22 23  2  0  0  0  0
 22 24  1  0  0  0  0
 23 25  1  0  0  0  0
 23 51  1  0  0  0  0
 24 26  2  0  0  0  0
 24 52  1  0  0  0  0
 25 27  2  0  0  0  0
 25 53  1  0  0  0  0
 26 27  1  0  0  0  0
 26 54  1  0  0  0  0
 28 55  1  0  0  0  0
 28 56  1  0  0  0  0
 28 57  1  0  0  0  0
M  END
> <PUBCHEM_COMPOUND_CID>
28960500

> <PUBCHEM_CONFORMER_RMSD>
1

> <PUBCHEM_CONFORMER_DIVERSEORDER>
1
38
51
56
55
36
24
42
19
8
30
46
35
4
12
23
44
3
10
15
45
53
17
14
31
26
13
11
25
32
54
27
41
16
28
43
6
18
5
20
40
7
50
34
29
47
21
9
22
48
49
37
39
2
52
33

> <PUBCHEM_MMFF94_PARTIAL_CHARGES>
34
1 -0.56
10 0.28
11 0.27
12 0.56
13 0.28
14 0.28
15 0.27
16 0.27
19 0.06
2 -0.56
20 0.41
21 0.57
22 -0.14
23 -0.15
24 -0.15
25 -0.15
26 -0.15
27 0.08
28 0.28
3 -0.68
4 -0.57
45 0.36
46 0.4
49 0.37
5 -0.36
50 0.37
51 0.15
52 0.15
53 0.15
54 0.15
6 -0.81
7 -0.9
8 -0.8
9 0.27

> <PUBCHEM_EFFECTIVE_ROTOR_COUNT>
8.4

> <PUBCHEM_PHARMACOPHORE_FEATURES>
13
1 1 acceptor
1 2 acceptor
1 3 acceptor
1 3 donor
1 4 acceptor
1 5 acceptor
1 6 cation
1 7 cation
1 7 donor
1 8 donor
6 22 23 24 25 26 27 rings
6 6 15 16 17 18 19 rings
8 1 2 9 10 11 12 13 14 rings

> <PUBCHEM_HEAVY_ATOM_COUNT>
28

> <PUBCHEM_ATOM_DEF_STEREO_COUNT>
5

> <PUBCHEM_ATOM_UDEF_STEREO_COUNT>
0

> <PUBCHEM_BOND_DEF_STEREO_COUNT>
0

> <PUBCHEM_BOND_UDEF_STEREO_COUNT>
0

> <PUBCHEM_ISOTOPIC_ATOM_COUNT>
0

> <PUBCHEM_COMPONENT_COUNT>
1

> <PUBCHEM_CACTVS_TAUTO_COUNT>
2

> <PUBCHEM_CONFORMER_ID>
01B9E6F400000001

> <PUBCHEM_MMFF94_ENERGY>
84.965

> <PUBCHEM_FEATURE_SELFOVERLAP>
66.022

> <PUBCHEM_SHAPE_FINGERPRINT>
10006869 2 17973723568099830715
100830 39 18410009915483066776
10087517 78 18411416246420463800
10498660 4 18337945701866729674
10670039 82 18337124431970045108
10871710 139 18409451349435590755
10937287 8 17690273811758854405
11045515 52 18339071705101019167
11059048 146 17620759384433168536
11477941 20 18271519897102667828
12100795 323 17614002889654029532
12107183 9 17613988596314475346
12522641 126 17550093110881394671
12788726 201 18262226729749731913
13761468 95 17841175276507540784
138480 1 15529677203465493197
13944108 23 15814540892894990092
14363568 33 17759540149806545464
151778 21 17114102162558076336
15463212 79 18116712902964832096
15961568 22 18195798794867078488
167882 2 17762047049593302911
16994733 274 15719937031408582727
17492 54 18193815091201306053
17627616 140 17400081263193154588
19930381 70 17761202615635223999
20642791 239 18262783151943810539
21033650 10 18191892058355352758
21344244 246 17475501150687882359
21641784 216 18338816601581845068
22907989 373 18194104245004678149
22956985 138 16889502173515454482
23559900 14 18051399966623142505
26353 1 17768771529200817927
463206 1 18263369259860102292
469060 322 18337408105031567011
474 4 16538756268069277945
497634 4 17274832375741748434
5048184 11 17834113048592117704
5364581 5 11026667383365930790
6371009 1 17399489261542606381

> <PUBCHEM_SHAPE_MULTIPOLES>
531.94
9.88
6.53
1.34
20.29
10.47
0.22
-3.77
-1.77
-5.64
-0.86
-0.8
-0.21
-0.11

> <PUBCHEM_SHAPE_SELFOVERLAP>
1132.135

> <PUBCHEM_SHAPE_VOLUME>
293

> <PUBCHEM_COORDINATE_TYPE>
2
5
10

$$$$
