45360392
  -OEChem-12032416183D

 72 75  0     1  0  0  0  0  0999 V2000
    2.2946    0.4098   -1.6553 F   0  0  0  0  0  0  0  0  0  0  0  0
    3.1018    2.4071   -1.9499 F   0  0  0  0  0  0  0  0  0  0  0  0
    1.6614    1.5918   -3.3599 F   0  0  0  0  0  0  0  0  0  0  0  0
   -4.9576   -2.7943    2.0885 O   0  0  0  0  0  0  0  0  0  0  0  0
   -3.8967    2.9516    1.0325 O   0  0  0  0  0  0  0  0  0  0  0  0
    7.5426    1.1983    2.1416 O   0  0  0  0  0  0  0  0  0  0  0  0
   -3.0783   -2.7260   -1.8805 O   0  0  0  0  0  0  0  0  0  0  0  0
    3.1251   -2.6057   -0.6394 O   0  0  0  0  0  0  0  0  0  0  0  0
   -4.9621    1.1027    0.1435 N   0  0  0  0  0  0  0  0  0  0  0  0
   -3.0979   -1.5414    0.1119 N   0  0  0  0  0  0  0  0  0  0  0  0
    5.8531   -0.8522    1.1206 N   0  0  0  0  0  0  0  0  0  0  0  0
   -2.7024    1.5515   -0.3851 N   0  0  0  0  0  0  0  0  0  0  0  0
   -4.5368   -1.3795    0.1928 C   0  0  1  0  0  0  0  0  0  0  0  0
   -4.9624   -1.4219    1.6719 C   0  0  1  0  0  0  0  0  0  0  0  0
   -6.3558   -0.8651    1.9798 C   0  0  0  0  0  0  0  0  0  0  0  0
   -4.9886   -0.1558   -0.6142 C   0  0  0  0  0  0  0  0  0  0  0  0
   -6.3778    0.6568    2.1397 C   0  0  0  0  0  0  0  0  0  0  0  0
   -6.2082    1.4313    0.8384 C   0  0  0  0  0  0  0  0  0  0  0  0
   -3.8411    1.9504    0.3144 C   0  0  0  0  0  0  0  0  0  0  0  0
   -2.4897   -2.2103   -0.9337 C   0  0  0  0  0  0  0  0  0  0  0  0
    5.3916    0.5385    1.2332 C   0  0  0  0  0  0  0  0  0  0  0  0
    7.3086   -0.8851    0.9212 C   0  0  0  0  0  0  0  0  0  0  0  0
   -1.0098   -2.3130   -0.8562 C   0  0  0  0  0  0  0  0  0  0  0  0
    5.1643   -1.5408    0.0311 C   0  0  0  0  0  0  0  0  0  0  0  0
    6.1330    1.2401    2.3676 C   0  0  0  0  0  0  0  0  0  0  0  0
    8.0042   -0.1508    2.0636 C   0  0  0  0  0  0  0  0  0  0  0  0
    3.7647   -1.9544    0.4572 C   0  0  0  0  0  0  0  0  0  0  0  0
   -1.4339    2.1842   -0.4180 C   0  0  0  0  0  0  0  0  0  0  0  0
   -0.2570   -2.4328   -2.0244 C   0  0  0  0  0  0  0  0  0  0  0  0
   -0.3731   -2.2914    0.3847 C   0  0  0  0  0  0  0  0  0  0  0  0
    1.7691   -2.5101   -0.7108 C   0  0  0  0  0  0  0  0  0  0  0  0
    1.1325   -2.5314   -1.9517 C   0  0  0  0  0  0  0  0  0  0  0  0
    1.0164   -2.3901    0.4575 C   0  0  0  0  0  0  0  0  0  0  0  0
   -0.4016    1.6385   -1.1808 C   0  0  0  0  0  0  0  0  0  0  0  0
   -1.2189    3.3531    0.3121 C   0  0  0  0  0  0  0  0  0  0  0  0
    0.8460    2.2616   -1.2132 C   0  0  0  0  0  0  0  0  0  0  0  0
    0.0288    3.9761    0.2798 C   0  0  0  0  0  0  0  0  0  0  0  0
    1.0612    3.4304   -0.4829 C   0  0  0  0  0  0  0  0  0  0  0  0
    1.9507    1.6781   -2.0278 C   0  0  0  0  0  0  0  0  0  0  0  0
   -4.9656   -2.2579   -0.3091 H   0  0  0  0  0  0  0  0  0  0  0  0
   -4.2201   -0.9080    2.2959 H   0  0  0  0  0  0  0  0  0  0  0  0
   -6.7134   -1.2986    2.9233 H   0  0  0  0  0  0  0  0  0  0  0  0
   -7.0778   -1.1890    1.2202 H   0  0  0  0  0  0  0  0  0  0  0  0
   -6.0211   -0.3161   -0.9501 H   0  0  0  0  0  0  0  0  0  0  0  0
   -4.4094   -0.0459   -1.5368 H   0  0  0  0  0  0  0  0  0  0  0  0
   -7.3386    0.9451    2.5838 H   0  0  0  0  0  0  0  0  0  0  0  0
   -5.6021    0.9595    2.8541 H   0  0  0  0  0  0  0  0  0  0  0  0
   -6.2316    2.5034    1.0636 H   0  0  0  0  0  0  0  0  0  0  0  0
   -7.0499    1.2424    0.1619 H   0  0  0  0  0  0  0  0  0  0  0  0
   -2.5366   -1.0456    0.7968 H   0  0  0  0  0  0  0  0  0  0  0  0
   -5.0980   -2.8108    3.0506 H   0  0  0  0  0  0  0  0  0  0  0  0
   -2.7469    0.6989   -0.9309 H   0  0  0  0  0  0  0  0  0  0  0  0
    5.5746    1.0778    0.2944 H   0  0  0  0  0  0  0  0  0  0  0  0
    4.3206    0.5933    1.4499 H   0  0  0  0  0  0  0  0  0  0  0  0
    7.6682   -1.9202    0.8978 H   0  0  0  0  0  0  0  0  0  0  0  0
    7.5713   -0.4109   -0.0335 H   0  0  0  0  0  0  0  0  0  0  0  0
    5.7006   -2.4603   -0.2410 H   0  0  0  0  0  0  0  0  0  0  0  0
    5.1327   -0.9401   -0.8877 H   0  0  0  0  0  0  0  0  0  0  0  0
    5.8352    2.2926    2.4127 H   0  0  0  0  0  0  0  0  0  0  0  0
    5.9045    0.7888    3.3409 H   0  0  0  0  0  0  0  0  0  0  0  0
    7.8393   -0.6505    3.0261 H   0  0  0  0  0  0  0  0  0  0  0  0
    9.0840   -0.1230    1.8859 H   0  0  0  0  0  0  0  0  0  0  0  0
    3.8151   -2.6502    1.3036 H   0  0  0  0  0  0  0  0  0  0  0  0
    3.1985   -1.0647    0.7536 H   0  0  0  0  0  0  0  0  0  0  0  0
   -0.7346   -2.4456   -3.0005 H   0  0  0  0  0  0  0  0  0  0  0  0
   -0.9250   -2.2354    1.3185 H   0  0  0  0  0  0  0  0  0  0  0  0
    1.7141   -2.6218   -2.8650 H   0  0  0  0  0  0  0  0  0  0  0  0
    1.4693   -2.4046    1.4444 H   0  0  0  0  0  0  0  0  0  0  0  0
   -0.5666    0.7313   -1.7562 H   0  0  0  0  0  0  0  0  0  0  0  0
   -1.9602    3.8418    0.9268 H   0  0  0  0  0  0  0  0  0  0  0  0
    0.1976    4.8863    0.8481 H   0  0  0  0  0  0  0  0  0  0  0  0
    2.0255    3.9308   -0.4943 H   0  0  0  0  0  0  0  0  0  0  0  0
  1 39  1  0  0  0  0
  2 39  1  0  0  0  0
  3 39  1  0  0  0  0
  4 14  1  0  0  0  0
  4 51  1  0  0  0  0
  5 19  2  0  0  0  0
  6 25  1  0  0  0  0
  6 26  1  0  0  0  0
  7 20  2  0  0  0  0
  8 27  1  0  0  0  0
  8 31  1  0  0  0  0
  9 16  1  0  0  0  0
  9 18  1  0  0  0  0
  9 19  1  0  0  0  0
 10 13  1  0  0  0  0
 10 20  1  0  0  0  0
 10 50  1  0  0  0  0
 11 21  1  0  0  0  0
 11 22  1  0  0  0  0
 11 24  1  0  0  0  0
 12 19  1  0  0  0  0
 12 28  1  0  0  0  0
 12 52  1  0  0  0  0
 13 14  1  0  0  0  0
 13 16  1  0  0  0  0
 13 40  1  0  0  0  0
 14 15  1  0  0  0  0
 14 41  1  0  0  0  0
 15 17  1  0  0  0  0
 15 42  1  0  0  0  0
 15 43  1  0  0  0  0
 16 44  1  0  0  0  0
 16 45  1  0  0  0  0
 17 18  1  0  0  0  0
 17 46  1  0  0  0  0
 17 47  1  0  0  0  0
 18 48  1  0  0  0  0
 18 49  1  0  0  0  0
 20 23  1  0  0  0  0
 21 25  1  0  0  0  0
 21 53  1  0  0  0  0
 21 54  1  0  0  0  0
 22 26  1  0  0  0  0
 22 55  1  0  0  0  0
 22 56  1  0  0  0  0
 23 29  2  0  0  0  0
 23 30  1  0  0  0  0
 24 27  1  0  0  0  0
 24 57  1  0  0  0  0
 24 58  1  0  0  0  0
 25 59  1  0  0  0  0
 25 60  1  0  0  0  0
 26 61  1  0  0  0  0
 26 62  1  0  0  0  0
 27 63  1  0  0  0  0
 27 64  1  0  0  0  0
 28 34  1  0  0  0  0
 28 35  2  0  0  0  0
 29 32  1  0  0  0  0
 29 65  1  0  0  0  0
 30 33  2  0  0  0  0
 30 66  1  0  0  0  0
 31 32  2  0  0  0  0
 31 33  1  0  0  0  0
 32 67  1  0  0  0  0
 33 68  1  0  0  0  0
 34 36  2  0  0  0  0
 34 69  1  0  0  0  0
 35 37  1  0  0  0  0
 35 70  1  0  0  0  0
 36 38  1  0  0  0  0
 36 39  1  0  0  0  0
 37 38  2  0  0  0  0
 37 71  1  0  0  0  0
 38 72  1  0  0  0  0
M  END
> <PUBCHEM_COMPOUND_CID>
45360392

> <PUBCHEM_CONFORMER_RMSD>
1.4

> <PUBCHEM_CONFORMER_DIVERSEORDER>
1
63
74
116
48
47
123
88
121
58
106
39
126
52
82
72
112
132
17
31
67
34
77
120
70
102
129
73
109
56
96
93
97
105
44
22
41
33
12
60
119
90
117
15
118
124
87
92
42
78
3
130
79
108
57
134
86
127
76
45
54
25
29
94
107
80
125
101
61
122
95
32
49
55
133
115
89
23
10
71
43
50
40
7
14
85
83
69
4
51
64
65
84
68
19
131
46
113
66
36
110
8
99
9
11
111
53
2
27
28
16
37
100
18
59
20
98
114
26
104
91
103
75
5
21
35
62
24
81
6
38
13
128
30

> <PUBCHEM_MMFF94_PARTIAL_CHARGES>
48
1 -0.34
10 -0.73
11 -0.81
12 -0.55
13 0.3
14 0.28
16 0.3
18 0.3
19 0.69
2 -0.34
20 0.54
21 0.27
22 0.27
23 0.09
24 0.27
25 0.28
26 0.28
27 0.28
28 0.12
29 -0.15
3 -0.34
30 -0.15
31 0.08
32 -0.15
33 -0.15
34 -0.15
35 -0.15
36 -0.14
37 -0.15
38 -0.15
39 1.16
4 -0.68
5 -0.57
50 0.37
51 0.4
52 0.37
6 -0.56
65 0.15
66 0.15
67 0.15
68 0.15
69 0.15
7 -0.57
70 0.15
71 0.15
72 0.15
8 -0.36
9 -0.66

> <PUBCHEM_EFFECTIVE_ROTOR_COUNT>
13.6

> <PUBCHEM_PHARMACOPHORE_FEATURES>
13
1 10 donor
1 11 cation
1 12 donor
1 4 acceptor
1 4 donor
1 5 acceptor
1 6 acceptor
1 7 acceptor
1 8 acceptor
6 23 29 30 31 32 33 rings
6 28 34 35 36 37 38 rings
6 6 11 21 22 25 26 rings
7 9 13 14 15 16 17 18 rings

> <PUBCHEM_HEAVY_ATOM_COUNT>
39

> <PUBCHEM_ATOM_DEF_STEREO_COUNT>
2

> <PUBCHEM_ATOM_UDEF_STEREO_COUNT>
0

> <PUBCHEM_BOND_DEF_STEREO_COUNT>
0

> <PUBCHEM_BOND_UDEF_STEREO_COUNT>
0

> <PUBCHEM_ISOTOPIC_ATOM_COUNT>
0

> <PUBCHEM_COMPONENT_COUNT>
1

> <PUBCHEM_CACTVS_TAUTO_COUNT>
4

> <PUBCHEM_CONFORMER_ID>
02B4250800000001

> <PUBCHEM_MMFF94_ENERGY>
97.8167

> <PUBCHEM_FEATURE_SELFOVERLAP>
65.975

> <PUBCHEM_SHAPE_FINGERPRINT>
10190108 129 18187928331864437162
10439779 11 18196940078476291741
10939801 23 18265059205512215188
11578080 2 15698002941742058540
12422481 6 18409448098129523406
13111901 25 18261681449888176884
13947930 73 17458641054365926523
14394314 77 18271240509290925137
14395042 24 18127978706175136523
15444296 8 16370994175145313196
15840311 113 17846227626447001659
15968369 153 18272658913111612460
18336668 15 18187078447017496077
18393751 57 18201440225752387491
21458453 9 18341884191483229784
21927370 108 17821722811616006614
392239 28 18342448240922021192
469060 322 16950837004342409702

> <PUBCHEM_SHAPE_MULTIPOLES>
731.51
17.56
4.73
2.43
17.24
1.72
-0.31
-0.57
17.61
-1.29
-1.27
1.2
0.07
0.37

> <PUBCHEM_SHAPE_SELFOVERLAP>
1543.85

> <PUBCHEM_SHAPE_VOLUME>
408.6

> <PUBCHEM_COORDINATE_TYPE>
2
5
10

$$$$
