11883286
  -OEChem-12032416153D

 44 46  0     1  0  0  0  0  0999 V2000
   -2.7277    2.0475    0.5047 S   0  0  0  0  0  0  0  0  0  0  0  0
    1.9645    1.5385   -0.2899 O   0  0  0  0  0  0  0  0  0  0  0  0
    0.2681   -0.4941   -1.8374 O   0  0  0  0  0  0  0  0  0  0  0  0
    3.5871   -0.7036   -0.5057 O   0  0  0  0  0  0  0  0  0  0  0  0
   -3.2964    2.6911   -0.6643 O   0  0  0  0  0  0  0  0  0  0  0  0
   -3.1325    2.4610    1.8346 O   0  0  0  0  0  0  0  0  0  0  0  0
    6.2415   -0.3824   -0.2481 O   0  0  0  0  0  0  0  0  0  0  0  0
   -1.0329    2.0963    0.4084 N   0  0  0  0  0  0  0  0  0  0  0  0
    6.1520   -0.4775    2.0494 N   0  0  0  0  0  0  0  0  0  0  0  0
    0.0641    0.1461   -0.5604 C   0  0  1  0  0  0  0  0  0  0  0  0
    1.4256    0.2627    0.0949 C   0  0  1  0  0  0  0  0  0  0  0  0
   -0.3652    1.5807   -0.7619 C   0  0  2  0  0  0  0  0  0  0  0  0
    2.1886   -0.8792   -0.5324 C   0  0  1  0  0  0  0  0  0  0  0  0
    0.9608    2.2837   -0.9964 C   0  0  0  0  0  0  0  0  0  0  0  0
    1.6432   -0.8909   -1.9426 C   0  0  0  0  0  0  0  0  0  0  0  0
    4.0980   -0.6931    0.8250 C   0  0  0  0  0  0  0  0  0  0  0  0
   -3.0503    0.3137    0.3835 C   0  0  0  0  0  0  0  0  0  0  0  0
    5.5959   -0.5024    0.7891 C   0  0  0  0  0  0  0  0  0  0  0  0
   -3.1024   -0.4456    1.5396 C   0  0  0  0  0  0  0  0  0  0  0  0
   -3.2447   -0.2524   -0.8645 C   0  0  0  0  0  0  0  0  0  0  0  0
   -3.3565   -1.8138    1.4447 C   0  0  0  0  0  0  0  0  0  0  0  0
   -3.4988   -1.6207   -0.9593 C   0  0  0  0  0  0  0  0  0  0  0  0
   -3.5548   -2.4013    0.1954 C   0  0  0  0  0  0  0  0  0  0  0  0
   -3.8270   -3.8642    0.0937 C   0  0  0  0  0  0  0  0  0  0  0  0
   -0.5953   -0.4938    0.0242 H   0  0  0  0  0  0  0  0  0  0  0  0
    1.3833    0.2310    1.1877 H   0  0  0  0  0  0  0  0  0  0  0  0
   -0.9936    1.7180   -1.6480 H   0  0  0  0  0  0  0  0  0  0  0  0
    1.9150   -1.8241   -0.0437 H   0  0  0  0  0  0  0  0  0  0  0  0
    1.2327    2.2675   -2.0576 H   0  0  0  0  0  0  0  0  0  0  0  0
    0.9748    3.3227   -0.6532 H   0  0  0  0  0  0  0  0  0  0  0  0
    2.1664   -0.1851   -2.5975 H   0  0  0  0  0  0  0  0  0  0  0  0
    1.7048   -1.8812   -2.4039 H   0  0  0  0  0  0  0  0  0  0  0  0
   -0.4903    2.1309    1.2803 H   0  0  0  0  0  0  0  0  0  0  0  0
    3.6731    0.1340    1.4028 H   0  0  0  0  0  0  0  0  0  0  0  0
    3.8749   -1.6462    1.3175 H   0  0  0  0  0  0  0  0  0  0  0  0
   -2.9418   -0.0093    2.5205 H   0  0  0  0  0  0  0  0  0  0  0  0
   -3.2012    0.3372   -1.7749 H   0  0  0  0  0  0  0  0  0  0  0  0
   -3.3938   -2.4122    2.3511 H   0  0  0  0  0  0  0  0  0  0  0  0
   -3.6484   -2.0675   -1.9386 H   0  0  0  0  0  0  0  0  0  0  0  0
    7.1512   -0.3554    2.1767 H   0  0  0  0  0  0  0  0  0  0  0  0
    5.5939   -0.5794    2.8911 H   0  0  0  0  0  0  0  0  0  0  0  0
   -4.3491   -4.2321    0.9836 H   0  0  0  0  0  0  0  0  0  0  0  0
   -4.4657   -4.0881   -0.7675 H   0  0  0  0  0  0  0  0  0  0  0  0
   -2.8870   -4.4144   -0.0140 H   0  0  0  0  0  0  0  0  0  0  0  0
  1  5  2  0  0  0  0
  1  6  2  0  0  0  0
  1  8  1  0  0  0  0
  1 17  1  0  0  0  0
  2 11  1  0  0  0  0
  2 14  1  0  0  0  0
  3 10  1  0  0  0  0
  3 15  1  0  0  0  0
  4 13  1  0  0  0  0
  4 16  1  0  0  0  0
  7 18  2  0  0  0  0
  8 12  1  0  0  0  0
  8 33  1  0  0  0  0
  9 18  1  0  0  0  0
  9 40  1  0  0  0  0
  9 41  1  0  0  0  0
 10 11  1  0  0  0  0
 10 12  1  0  0  0  0
 10 25  1  0  0  0  0
 11 13  1  0  0  0  0
 11 26  1  0  0  0  0
 12 14  1  0  0  0  0
 12 27  1  0  0  0  0
 13 15  1  0  0  0  0
 13 28  1  0  0  0  0
 14 29  1  0  0  0  0
 14 30  1  0  0  0  0
 15 31  1  0  0  0  0
 15 32  1  0  0  0  0
 16 18  1  0  0  0  0
 16 34  1  0  0  0  0
 16 35  1  0  0  0  0
 17 19  2  0  0  0  0
 17 20  1  0  0  0  0
 19 21  1  0  0  0  0
 19 36  1  0  0  0  0
 20 22  2  0  0  0  0
 20 37  1  0  0  0  0
 21 23  2  0  0  0  0
 21 38  1  0  0  0  0
 22 23  1  0  0  0  0
 22 39  1  0  0  0  0
 23 24  1  0  0  0  0
 24 42  1  0  0  0  0
 24 43  1  0  0  0  0
 24 44  1  0  0  0  0
M  END
> <PUBCHEM_COMPOUND_CID>
11883286

> <PUBCHEM_CONFORMER_RMSD>
0.8

> <PUBCHEM_CONFORMER_DIVERSEORDER>
2
18
39
61
67
46
53
57
58
13
49
30
64
25
35
19
29
9
20
28
17
37
11
38
62
48
15
33
54
68
50
40
26
42
56
12
27
65
36
51
1
7
63
5
23
24
31
6
8
66
21
32
59
22
14
16
44
69
47
52
43
41
45
34
4
10
70
60
3
55

> <PUBCHEM_MMFF94_PARTIAL_CHARGES>
31
1 1.45
10 0.28
11 0.28
12 0.36
13 0.28
14 0.28
15 0.28
16 0.34
17 -0.01
18 0.57
19 -0.15
2 -0.56
20 -0.15
21 -0.15
22 -0.15
23 -0.14
24 0.14
3 -0.56
33 0.42
36 0.15
37 0.15
38 0.15
39 0.15
4 -0.56
40 0.37
41 0.37
5 -0.65
6 -0.65
7 -0.57
8 -0.91
9 -0.8

> <PUBCHEM_EFFECTIVE_ROTOR_COUNT>
7.2

> <PUBCHEM_PHARMACOPHORE_FEATURES>
11
1 2 acceptor
1 3 acceptor
1 4 acceptor
1 5 acceptor
1 6 acceptor
1 7 acceptor
1 8 donor
1 9 donor
5 2 10 11 12 14 rings
5 3 10 11 13 15 rings
6 17 19 20 21 22 23 rings

> <PUBCHEM_HEAVY_ATOM_COUNT>
24

> <PUBCHEM_ATOM_DEF_STEREO_COUNT>
4

> <PUBCHEM_ATOM_UDEF_STEREO_COUNT>
0

> <PUBCHEM_BOND_DEF_STEREO_COUNT>
0

> <PUBCHEM_BOND_UDEF_STEREO_COUNT>
0

> <PUBCHEM_ISOTOPIC_ATOM_COUNT>
0

> <PUBCHEM_COMPONENT_COUNT>
1

> <PUBCHEM_CACTVS_TAUTO_COUNT>
2

> <PUBCHEM_CONFORMER_ID>
00B5531600000002

> <PUBCHEM_MMFF94_ENERGY>
53.5302

> <PUBCHEM_FEATURE_SELFOVERLAP>
56.57

> <PUBCHEM_SHAPE_FINGERPRINT>
10366900 7 17559942234629786216
10498660 4 9943237066153360475
11370993 144 17130723677223969178
11552529 35 18342171155006261554
12523318 42 18410565189216951378
12553582 1 18196396873088981935
12633257 1 18270978902578945337
13004483 165 18269281334531246995
13083527 12 18269837686681535773
13464514 151 8862673395093926596
13583140 156 16845565401132199896
13994607 96 14045738227444618667
14081887 123 18270684160252928872
14178342 30 18341062825979373015
14844126 61 18408602565615164707
14955137 171 18060142033874583584
15099037 37 18342739606754480636
15163728 17 11743565461306805088
15183329 4 12247674964501017384
15415430 10 18334011705091580888
17349148 13 17240772770115199410
17913733 40 16773790365036393766
18186145 218 11169920502051941110
18927931 339 18408611348549003862
200 152 16226046665763222996
20681677 274 18265895941917578529
20775530 9 17686918506420411667
21033648 29 17060041624199122322
21756936 100 13542460990619077678
22182313 1 17632026256054660892
23402539 116 17530965740115241116
23559900 14 18336815507013949993
23622692 118 18337389452199167471
23728640 28 18338242553374655315
25147074 1 18189635954066506525
2838139 119 12967121740719448114
3459 83 11315123060273618592
444769 64 11167676378041204356
5104073 3 18341337802517714625
5364581 5 18270950354259058968
5924683 9 18409726257502472491

> <PUBCHEM_SHAPE_MULTIPOLES>
452.58
11.12
3.19
1.62
17.94
0.15
-0.16
6.18
-4.74
-5.17
-0.2
0.34
0.09
-0.69

> <PUBCHEM_SHAPE_SELFOVERLAP>
949.368

> <PUBCHEM_SHAPE_VOLUME>
256.6

> <PUBCHEM_COORDINATE_TYPE>
2
5
10

$$$$
