7135490
  -OEChem-12032416133D

 60 63  0     1  0  0  0  0  0999 V2000
    5.7902   -0.9552   -2.0012 F   0  0  0  0  0  0  0  0  0  0  0  0
   -4.5401   -1.2611   -1.8407 O   0  0  0  0  0  0  0  0  0  0  0  0
   -1.8387    1.4403   -0.8454 O   0  0  0  0  0  0  0  0  0  0  0  0
    1.5576   -1.2394    2.1981 O   0  0  0  0  0  0  0  0  0  0  0  0
   -6.7664    2.6016    1.0838 O   0  0  0  0  0  0  0  0  0  0  0  0
   -4.6062    2.0241    0.6929 O   0  0  0  0  0  0  0  0  0  0  0  0
   -2.9017   -1.2800   -0.1914 N   0  0  0  0  0  0  0  0  0  0  0  0
   -0.1449   -0.9565    0.6580 N   0  0  0  0  0  0  0  0  0  0  0  0
    0.4085    1.6761   -0.5735 N   0  0  0  0  0  0  0  0  0  0  0  0
   -0.5477   -0.5939   -0.6938 C   0  0  1  0  0  0  0  0  0  0  0  0
   -1.8025   -1.3445   -1.1580 C   0  0  0  0  0  0  0  0  0  0  0  0
   -2.5338   -1.2569    1.2269 C   0  0  0  0  0  0  0  0  0  0  0  0
   -1.1025   -1.7159    1.4627 C   0  0  0  0  0  0  0  0  0  0  0  0
   -6.5836   -0.4987   -0.0833 C   0  0  0  0  0  0  0  0  0  0  0  0
   -5.2918   -1.1796    0.4106 C   0  0  0  0  0  0  0  0  0  0  0  0
   -4.2198   -1.2422   -0.6501 C   0  0  0  0  0  0  0  0  0  0  0  0
   -0.7356    0.9149   -0.6813 C   0  0  0  0  0  0  0  0  0  0  0  0
    1.1484   -0.7681    1.1357 C   0  0  0  0  0  0  0  0  0  0  0  0
   -6.3510    0.9446   -0.5907 C   0  0  0  0  0  0  0  0  0  0  0  0
   -7.5896   -0.4993    1.0859 C   0  0  0  0  0  0  0  0  0  0  0  0
   -7.2060   -1.3172   -1.2350 C   0  0  0  0  0  0  0  0  0  0  0  0
    2.0924    0.0698    0.3488 C   0  0  0  0  0  0  0  0  0  0  0  0
    1.7288    1.2394   -0.3382 C   0  0  0  0  0  0  0  0  0  0  0  0
    3.4545   -0.2616    0.4717 C   0  0  0  0  0  0  0  0  0  0  0  0
   -5.7987    1.8983    0.4453 C   0  0  0  0  0  0  0  0  0  0  0  0
    2.7413    2.0855   -0.8241 C   0  0  0  0  0  0  0  0  0  0  0  0
    4.4440    0.5648   -0.0592 C   0  0  0  0  0  0  0  0  0  0  0  0
    4.0876    1.7465   -0.6955 C   0  0  0  0  0  0  0  0  0  0  0  0
    5.8390    0.2051    0.0742 C   0  0  0  0  0  0  0  0  0  0  0  0
    6.4664   -0.5519   -0.9156 C   0  0  0  0  0  0  0  0  0  0  0  0
    6.5575    0.6175    1.1966 C   0  0  0  0  0  0  0  0  0  0  0  0
    7.8117   -0.8960   -0.7829 C   0  0  0  0  0  0  0  0  0  0  0  0
    7.9027    0.2730    1.3292 C   0  0  0  0  0  0  0  0  0  0  0  0
    8.5297   -0.4837    0.3396 C   0  0  0  0  0  0  0  0  0  0  0  0
    0.2641   -0.8333   -1.3920 H   0  0  0  0  0  0  0  0  0  0  0  0
   -2.1371   -0.9698   -2.1319 H   0  0  0  0  0  0  0  0  0  0  0  0
   -1.5708   -2.4095   -1.2853 H   0  0  0  0  0  0  0  0  0  0  0  0
   -3.2161   -1.8977    1.7943 H   0  0  0  0  0  0  0  0  0  0  0  0
   -2.6623   -0.2253    1.5754 H   0  0  0  0  0  0  0  0  0  0  0  0
   -0.8499   -1.6295    2.5249 H   0  0  0  0  0  0  0  0  0  0  0  0
   -0.9854   -2.7706    1.1848 H   0  0  0  0  0  0  0  0  0  0  0  0
   -4.9363   -0.6307    1.2872 H   0  0  0  0  0  0  0  0  0  0  0  0
   -5.4942   -2.2088    0.7327 H   0  0  0  0  0  0  0  0  0  0  0  0
   -7.2936    1.3684   -0.9635 H   0  0  0  0  0  0  0  0  0  0  0  0
   -5.6718    0.9767   -1.4505 H   0  0  0  0  0  0  0  0  0  0  0  0
   -8.5177    0.0152    0.8124 H   0  0  0  0  0  0  0  0  0  0  0  0
   -7.1818   -0.0027    1.9730 H   0  0  0  0  0  0  0  0  0  0  0  0
   -7.8521   -1.5229    1.3779 H   0  0  0  0  0  0  0  0  0  0  0  0
   -8.2692   -1.0692   -1.3470 H   0  0  0  0  0  0  0  0  0  0  0  0
   -6.7605   -1.1136   -2.2122 H   0  0  0  0  0  0  0  0  0  0  0  0
   -7.1491   -2.3941   -1.0414 H   0  0  0  0  0  0  0  0  0  0  0  0
    0.2972    2.6644   -0.7872 H   0  0  0  0  0  0  0  0  0  0  0  0
    3.7490   -1.1669    1.0013 H   0  0  0  0  0  0  0  0  0  0  0  0
    2.4869    3.0106   -1.3383 H   0  0  0  0  0  0  0  0  0  0  0  0
    4.8424    2.4151   -1.1026 H   0  0  0  0  0  0  0  0  0  0  0  0
   -6.3932    3.2113    1.7554 H   0  0  0  0  0  0  0  0  0  0  0  0
    6.0845    1.2081    1.9778 H   0  0  0  0  0  0  0  0  0  0  0  0
    8.2998   -1.4850   -1.5537 H   0  0  0  0  0  0  0  0  0  0  0  0
    8.4621    0.5941    2.2031 H   0  0  0  0  0  0  0  0  0  0  0  0
    9.5771   -0.7517    0.4429 H   0  0  0  0  0  0  0  0  0  0  0  0
  1 30  1  0  0  0  0
  2 16  2  0  0  0  0
  3 17  2  0  0  0  0
  4 18  2  0  0  0  0
  5 25  1  0  0  0  0
  5 56  1  0  0  0  0
  6 25  2  0  0  0  0
  7 11  1  0  0  0  0
  7 12  1  0  0  0  0
  7 16  1  0  0  0  0
  8 10  1  0  0  0  0
  8 13  1  0  0  0  0
  8 18  1  0  0  0  0
  9 17  1  0  0  0  0
  9 23  1  0  0  0  0
  9 52  1  0  0  0  0
 10 11  1  0  0  0  0
 10 17  1  0  0  0  0
 10 35  1  0  0  0  0
 11 36  1  0  0  0  0
 11 37  1  0  0  0  0
 12 13  1  0  0  0  0
 12 38  1  0  0  0  0
 12 39  1  0  0  0  0
 13 40  1  0  0  0  0
 13 41  1  0  0  0  0
 14 15  1  0  0  0  0
 14 19  1  0  0  0  0
 14 20  1  0  0  0  0
 14 21  1  0  0  0  0
 15 16  1  0  0  0  0
 15 42  1  0  0  0  0
 15 43  1  0  0  0  0
 18 22  1  0  0  0  0
 19 25  1  0  0  0  0
 19 44  1  0  0  0  0
 19 45  1  0  0  0  0
 20 46  1  0  0  0  0
 20 47  1  0  0  0  0
 20 48  1  0  0  0  0
 21 49  1  0  0  0  0
 21 50  1  0  0  0  0
 21 51  1  0  0  0  0
 22 23  2  0  0  0  0
 22 24  1  0  0  0  0
 23 26  1  0  0  0  0
 24 27  2  0  0  0  0
 24 53  1  0  0  0  0
 26 28  2  0  0  0  0
 26 54  1  0  0  0  0
 27 28  1  0  0  0  0
 27 29  1  0  0  0  0
 28 55  1  0  0  0  0
 29 30  1  0  0  0  0
 29 31  2  0  0  0  0
 30 32  2  0  0  0  0
 31 33  1  0  0  0  0
 31 57  1  0  0  0  0
 32 34  1  0  0  0  0
 32 58  1  0  0  0  0
 33 34  2  0  0  0  0
 33 59  1  0  0  0  0
 34 60  1  0  0  0  0
M  END
> <PUBCHEM_COMPOUND_CID>
7135490

> <PUBCHEM_CONFORMER_RMSD>
1

> <PUBCHEM_CONFORMER_DIVERSEORDER>
2
60
43
119
51
141
80
6
55
105
118
39
62
48
131
65
17
46
29
22
138
107
61
21
103
28
112
63
57
84
20
124
125
42
32
31
59
34
11
47
49
96
37
40
52
75
127
33
136
100
95
19
76
24
113
111
134
5
106
98
72
87
67
122
50
7
135
108
68
38
30
18
128
15
56
45
64
130
85
70
110
116
69
137
1
120
54
86
99
115
102
53
101
133
12
27
79
117
93
58
36
144
23
104
81
41
91
25
129
16
66
8
26
35
4
90
14
132
143
94
142
3
114
71
121
13
44
9
77
74
97
123
140
83
82
88
109
10
73
126
139
78
89
92

> <PUBCHEM_MMFF94_PARTIAL_CHARGES>
38
1 -0.19
10 0.36
11 0.3
12 0.3
13 0.3
15 0.06
16 0.57
17 0.57
18 0.54
19 0.06
2 -0.57
22 0.09
23 0.12
24 -0.15
25 0.66
26 -0.15
28 -0.15
3 -0.57
30 0.19
31 -0.15
32 -0.15
33 -0.15
34 -0.15
4 -0.57
5 -0.65
52 0.37
53 0.15
54 0.15
55 0.15
56 0.5
57 0.15
58 0.15
59 0.15
6 -0.57
60 0.15
7 -0.66
8 -0.66
9 -0.55

> <PUBCHEM_EFFECTIVE_ROTOR_COUNT>
7

> <PUBCHEM_PHARMACOPHORE_FEATURES>
12
1 2 acceptor
1 3 acceptor
1 4 acceptor
1 5 acceptor
1 6 acceptor
1 9 donor
3 14 20 21 hydrophobe
3 5 6 25 anion
6 22 23 24 26 27 28 rings
6 29 30 31 32 33 34 rings
6 7 8 10 11 12 13 rings
7 8 9 10 17 18 22 23 rings

> <PUBCHEM_HEAVY_ATOM_COUNT>
34

> <PUBCHEM_ATOM_DEF_STEREO_COUNT>
1

> <PUBCHEM_ATOM_UDEF_STEREO_COUNT>
0

> <PUBCHEM_BOND_DEF_STEREO_COUNT>
0

> <PUBCHEM_BOND_UDEF_STEREO_COUNT>
0

> <PUBCHEM_ISOTOPIC_ATOM_COUNT>
0

> <PUBCHEM_COMPONENT_COUNT>
1

> <PUBCHEM_CACTVS_TAUTO_COUNT>
3

> <PUBCHEM_CONFORMER_ID>
006CE10200000002

> <PUBCHEM_MMFF94_ENERGY>
117.4836

> <PUBCHEM_FEATURE_SELFOVERLAP>
60.984

> <PUBCHEM_SHAPE_FINGERPRINT>
10 15 13183021839627935446
10299344 5 16587740949621070514
10580692 12 18273494593894472240
10670039 82 18343578526343946497
10674148 151 18407477761330715968
10930396 42 14548443688745423146
10951579 204 18196390138538512540
11135926 11 17821720620333632787
11181472 205 17417545661276053480
11991303 11 15574721334776730890
13885169 127 18202845439565043320
13914758 101 18201721751761420234
14251764 18 18259700094894515842
14294032 229 17750515070730253852
14856354 85 16443348697901083895
15021287 119 18186806893769219093
15131766 46 16698902817173992624
15183329 4 18113896069980441262
15475509 8 18336554836995477756
15510794 2 18059858343063688878
1577012 14 18335978671633311227
15849732 13 17988923388065852278
18608769 82 16660363713926097283
20511986 3 17131826582498460254
21033648 29 18130207347355422000
21223535 225 18409725132316246413
21267235 1 18113335323619510548
21781051 124 16805328829206924914
21792961 116 16008741382615343512
21792965 169 16515973575978555166
22311459 1 17822006515168794266
23522609 53 17750539367075248364
23559900 14 17896317107622549932
249057 3 18335982064183234174
2838139 119 18342457067312000969
335352 9 17967811682570718454
3383291 50 18408603694727657923
3633792 109 17489312949372819690
4093350 32 18272368733206974256
4098825 35 17846495937158409262
4325135 7 9655579612668456737
444769 64 18260269650818751289
5381727 24 18412546549059668559
57035037 87 17917423272831775952
5969126 39 13614245858423254211
59755656 215 18187082849807568182
6126387 218 17988922267527754866

> <PUBCHEM_SHAPE_MULTIPOLES>
648.14
24.69
2.02
1.49
9.49
0.97
0.02
-0.58
0.61
-2.4
0.15
0.04
-0.43
-0.92

> <PUBCHEM_SHAPE_SELFOVERLAP>
1407.181

> <PUBCHEM_SHAPE_VOLUME>
352

> <PUBCHEM_COORDINATE_TYPE>
2
5
10

$$$$
