51136915
  -OEChem-12032416223D

 50 54  0     1  0  0  0  0  0999 V2000
   -3.9848    3.6168    0.7716 O   0  0  0  0  0  0  0  0  0  0  0  0
   -1.9338   -2.0992    1.5675 O   0  0  0  0  0  0  0  0  0  0  0  0
   -4.1000   -0.2825   -0.7804 N   0  0  1  0  0  0  0  0  0  0  0  0
   -1.2384   -0.8857   -0.1818 N   0  0  0  0  0  0  0  0  0  0  0  0
   -0.5502   -1.9475    1.7241 N   0  0  0  0  0  0  0  0  0  0  0  0
    3.4605   -0.8127    1.0586 N   0  0  0  0  0  0  0  0  0  0  0  0
    6.7885    1.8005   -1.0406 N   0  0  0  0  0  0  0  0  0  0  0  0
    7.4507   -0.2208    0.0920 N   0  0  0  0  0  0  0  0  0  0  0  0
   -4.4645    0.8763    0.0312 C   0  0  0  0  0  0  0  0  0  0  0  0
   -3.7182   -1.4600    0.0246 C   0  0  1  0  0  0  0  0  0  0  0  0
   -5.1960   -0.7132   -1.6485 C   0  0  0  0  0  0  0  0  0  0  0  0
   -4.0826   -2.6701   -0.8552 C   0  0  0  0  0  0  0  0  0  0  0  0
   -4.7174   -2.0766   -2.1047 C   0  0  0  0  0  0  0  0  0  0  0  0
   -4.8961    2.0526   -0.8501 C   0  0  0  0  0  0  0  0  0  0  0  0
   -3.2910    1.2925    0.9227 C   0  0  0  0  0  0  0  0  0  0  0  0
   -5.1435    3.2915    0.0037 C   0  0  0  0  0  0  0  0  0  0  0  0
   -3.6273    2.5734    1.6781 C   0  0  0  0  0  0  0  0  0  0  0  0
   -2.2568   -1.4447    0.4215 C   0  0  0  0  0  0  0  0  0  0  0  0
   -0.2135   -1.2210    0.6542 C   0  0  0  0  0  0  0  0  0  0  0  0
    1.1369   -0.8154    0.3909 C   0  0  0  0  0  0  0  0  0  0  0  0
    1.4516   -0.0607   -0.7337 C   0  0  0  0  0  0  0  0  0  0  0  0
    2.1684   -1.1625    1.2483 C   0  0  0  0  0  0  0  0  0  0  0  0
    2.7696    0.3184   -0.9633 C   0  0  0  0  0  0  0  0  0  0  0  0
    3.7281   -0.0794   -0.0453 C   0  0  0  0  0  0  0  0  0  0  0  0
    5.1163    0.2768   -0.2190 C   0  0  0  0  0  0  0  0  0  0  0  0
    5.5021    1.4374   -0.8581 C   0  0  0  0  0  0  0  0  0  0  0  0
    6.1438   -0.5219    0.2397 C   0  0  0  0  0  0  0  0  0  0  0  0
    7.6979    0.9379   -0.5480 C   0  0  0  0  0  0  0  0  0  0  0  0
   -5.3116    0.6189    0.6841 H   0  0  0  0  0  0  0  0  0  0  0  0
   -4.3281   -1.5197    0.9374 H   0  0  0  0  0  0  0  0  0  0  0  0
   -5.3401   -0.0585   -2.5133 H   0  0  0  0  0  0  0  0  0  0  0  0
   -6.1434   -0.8075   -1.1028 H   0  0  0  0  0  0  0  0  0  0  0  0
   -3.2263   -3.3014   -1.1162 H   0  0  0  0  0  0  0  0  0  0  0  0
   -4.8161   -3.2973   -0.3339 H   0  0  0  0  0  0  0  0  0  0  0  0
   -5.5297   -2.6991   -2.4913 H   0  0  0  0  0  0  0  0  0  0  0  0
   -3.9616   -1.9737   -2.8934 H   0  0  0  0  0  0  0  0  0  0  0  0
   -4.1047    2.2756   -1.5777 H   0  0  0  0  0  0  0  0  0  0  0  0
   -5.8128    1.8332   -1.4075 H   0  0  0  0  0  0  0  0  0  0  0  0
   -3.0557    0.5429    1.6821 H   0  0  0  0  0  0  0  0  0  0  0  0
   -2.4011    1.4803    0.3092 H   0  0  0  0  0  0  0  0  0  0  0  0
   -5.9984    3.1497    0.6755 H   0  0  0  0  0  0  0  0  0  0  0  0
   -5.3675    4.1482   -0.6398 H   0  0  0  0  0  0  0  0  0  0  0  0
   -2.7546    2.9109    2.2464 H   0  0  0  0  0  0  0  0  0  0  0  0
   -4.4450    2.4145    2.3911 H   0  0  0  0  0  0  0  0  0  0  0  0
    0.6915    0.2423   -1.4493 H   0  0  0  0  0  0  0  0  0  0  0  0
    2.0072   -1.7497    2.1476 H   0  0  0  0  0  0  0  0  0  0  0  0
    3.0025    0.8900   -1.8553 H   0  0  0  0  0  0  0  0  0  0  0  0
    4.7910    2.1598   -1.2461 H   0  0  0  0  0  0  0  0  0  0  0  0
    5.9645   -1.4639    0.7494 H   0  0  0  0  0  0  0  0  0  0  0  0
    8.7392    1.2047   -0.6807 H   0  0  0  0  0  0  0  0  0  0  0  0
  1 16  1  0  0  0  0
  1 17  1  0  0  0  0
  2  5  1  0  0  0  0
  2 18  1  0  0  0  0
  3  9  1  0  0  0  0
  3 10  1  0  0  0  0
  3 11  1  0  0  0  0
  4 18  2  0  0  0  0
  4 19  1  0  0  0  0
  5 19  2  0  0  0  0
  6 22  1  0  0  0  0
  6 24  2  0  0  0  0
  7 26  2  0  0  0  0
  7 28  1  0  0  0  0
  8 27  1  0  0  0  0
  8 28  2  0  0  0  0
  9 14  1  0  0  0  0
  9 15  1  0  0  0  0
  9 29  1  0  0  0  0
 10 12  1  0  0  0  0
 10 18  1  0  0  0  0
 10 30  1  0  0  0  0
 11 13  1  0  0  0  0
 11 31  1  0  0  0  0
 11 32  1  0  0  0  0
 12 13  1  0  0  0  0
 12 33  1  0  0  0  0
 12 34  1  0  0  0  0
 13 35  1  0  0  0  0
 13 36  1  0  0  0  0
 14 16  1  0  0  0  0
 14 37  1  0  0  0  0
 14 38  1  0  0  0  0
 15 17  1  0  0  0  0
 15 39  1  0  0  0  0
 15 40  1  0  0  0  0
 16 41  1  0  0  0  0
 16 42  1  0  0  0  0
 17 43  1  0  0  0  0
 17 44  1  0  0  0  0
 19 20  1  0  0  0  0
 20 21  1  0  0  0  0
 20 22  2  0  0  0  0
 21 23  2  0  0  0  0
 21 45  1  0  0  0  0
 22 46  1  0  0  0  0
 23 24  1  0  0  0  0
 23 47  1  0  0  0  0
 24 25  1  0  0  0  0
 25 26  1  0  0  0  0
 25 27  2  0  0  0  0
 26 48  1  0  0  0  0
 27 49  1  0  0  0  0
 28 50  1  0  0  0  0
M  END
> <PUBCHEM_COMPOUND_CID>
51136915

> <PUBCHEM_CONFORMER_RMSD>
0.8

> <PUBCHEM_CONFORMER_DIVERSEORDER>
1
19
29
11
35
18
31
5
21
7
20
25
23
12
30
6
34
28
33
2
9
16
32
26
24
17
10
8
36
15
3
13
27
22
4
14

> <PUBCHEM_MMFF94_PARTIAL_CHARGES>
29
1 -0.56
10 0.45
11 0.27
16 0.28
17 0.28
18 0.3
19 0.46
2 -0.02
20 0.05
21 -0.15
22 0.16
23 -0.15
24 0.31
26 0.16
27 0.16
28 0.47
3 -0.81
4 -0.57
45 0.15
46 0.15
47 0.15
48 0.15
49 0.15
5 -0.41
50 0.15
6 -0.62
7 -0.62
8 -0.62
9 0.27

> <PUBCHEM_EFFECTIVE_ROTOR_COUNT>
6.2

> <PUBCHEM_PHARMACOPHORE_FEATURES>
11
1 1 acceptor
1 3 cation
1 6 acceptor
1 7 acceptor
3 4 5 19 cation
3 7 8 28 cation
5 2 4 5 18 19 rings
5 3 10 11 12 13 rings
6 1 9 14 15 16 17 rings
6 6 20 21 22 23 24 rings
6 7 8 25 26 27 28 rings

> <PUBCHEM_HEAVY_ATOM_COUNT>
28

> <PUBCHEM_ATOM_DEF_STEREO_COUNT>
1

> <PUBCHEM_ATOM_UDEF_STEREO_COUNT>
0

> <PUBCHEM_BOND_DEF_STEREO_COUNT>
0

> <PUBCHEM_BOND_UDEF_STEREO_COUNT>
0

> <PUBCHEM_ISOTOPIC_ATOM_COUNT>
0

> <PUBCHEM_COMPONENT_COUNT>
1

> <PUBCHEM_CACTVS_TAUTO_COUNT>
1

> <PUBCHEM_CONFORMER_ID>
030C499300000001

> <PUBCHEM_MMFF94_ENERGY>
61.492

> <PUBCHEM_FEATURE_SELFOVERLAP>
55.824

> <PUBCHEM_SHAPE_FINGERPRINT>
10076449 9 18202280339014583735
10087517 78 18409167705595932564
10291535 26 18409737283147608691
10454371 7 18343585139734051117
10595046 47 18410289224789100878
10670039 82 18411132541506556417
10906281 52 17604164679110684758
11049842 53 17698425651846437867
11089746 13 18335417998144438060
11101153 10 18197498634704893621
11315181 36 18260829349202530182
11477941 20 17987787631273012117
12107698 1 18272367632835575125
12717326 25 15719389495781290696
12895837 130 18410860932566019037
13167372 99 18334296457835317576
13673619 4 16845005853326302607
13690498 29 17916859248661880495
14294032 229 18202284659651522009
14856354 85 18130505361460366727
14950920 106 11314314948843789455
15064981 113 17986655005230794943
15183329 4 18040147427623548178
15289351 153 18265053725788540972
15352257 5 11025785489040595360
15716309 27 11455899078580072830
1577012 14 18335422357684086016
15876981 60 18340207487780195797
16126227 98 18058741187288943753
16992828 155 18115865196860171373
17913733 40 15647052642753654536
17980427 23 18334304183700833564
18643901 69 16988276599476638063
19489759 90 18342738541565960166
21033648 144 17530676598305928639
21033650 10 18270139940551794934
21236236 1 18410013242895824004
21756936 100 18334019376393938363
23081809 10 18334853927294509138
23198884 109 18408602586699656022
23516275 100 17909528885939026016
23559900 14 17970061347875185404
23569943 247 16879047682641818586
25147074 1 18262223422625433858
255183 451 17411599687388274215
2838139 119 18408888451502110704
328310 18 18343587326309871457
328310 630 17895202142417366428
3610482 184 18411710858958393189
397830 11 12035743058601156190
4169191 19 17604718905954062076
44555599 121 18187369852876843540
445580 204 18409448076665431336
445580 37 18412830192002684356
44802255 64 17775288296174716726
5104073 3 17240482520509682978
5171179 24 17987790963761653633
5283173 99 18343582945300778848
531348 171 18130790027297175342
5372103 7 17534326866111701021
563151 97 18409165489324307230
5937810 71 17896339050842808484
6086070 43 18060696183313129776
6299153 45 18188769423588068066
6327066 14 18265613174683778357
6328613 192 18113903797217684596
636775 72 18335421335551331268
7226269 152 18409732828887201640
7970288 3 10231164045800244397

> <PUBCHEM_SHAPE_MULTIPOLES>
534.6
18.94
3.14
1.5
31.33
2.13
0.02
8.18
-6.31
-6.95
0.37
-1.29
-0.4
-2.78

> <PUBCHEM_SHAPE_SELFOVERLAP>
1171.646

> <PUBCHEM_SHAPE_VOLUME>
287.3

> <PUBCHEM_COORDINATE_TYPE>
2
5
10

$$$$
