7113909
  -OEChem-12032416223D

 62 66  0     1  0  0  0  0  0999 V2000
   -1.6639    2.7466   -0.9242 S   0  0  0  0  0  0  0  0  0  0  0  0
   -5.8460   -1.8210    0.6445 F   0  0  0  0  0  0  0  0  0  0  0  0
   -4.3077   -2.1104   -0.8569 F   0  0  0  0  0  0  0  0  0  0  0  0
   -3.7533   -1.8755    1.2327 F   0  0  0  0  0  0  0  0  0  0  0  0
    1.3693    3.4795   -0.9060 O   0  0  0  0  0  0  0  0  0  0  0  0
    3.0745   -1.1064   -2.6111 O   0  0  0  0  0  0  0  0  0  0  0  0
   -1.9654    4.0072   -1.5758 O   0  0  0  0  0  0  0  0  0  0  0  0
   -0.9034    1.7270   -1.6218 O   0  0  0  0  0  0  0  0  0  0  0  0
   -1.1558   -4.5242    0.4765 O   0  0  0  0  0  0  0  0  0  0  0  0
    3.9378   -0.7843   -0.4602 N   0  0  0  0  0  0  0  0  0  0  0  0
    2.6126    1.9709    0.3852 N   0  0  0  0  0  0  0  0  0  0  0  0
   -0.9681    3.0396    0.5907 N   0  0  0  0  0  0  0  0  0  0  0  0
    5.0626    1.4068   -0.1003 C   0  0  1  0  0  0  0  0  0  0  0  0
    3.9007    0.3056    1.7708 C   0  0  2  0  0  0  0  0  0  0  0  0
    5.1430    1.1112    1.3935 C   0  0  0  0  0  0  0  0  0  0  0  0
    5.0176    0.0958   -0.9061 C   0  0  0  0  0  0  0  0  0  0  0  0
    3.8359    2.2888   -0.3637 C   0  0  0  0  0  0  0  0  0  0  0  0
    3.8919   -1.0245    0.9913 C   0  0  0  0  0  0  0  0  0  0  0  0
    2.6328    1.0829    1.4695 C   0  0  0  0  0  0  0  0  0  0  0  0
    1.5288    0.8908    2.2145 C   0  0  0  0  0  0  0  0  0  0  0  0
    1.4461    2.6769    0.0233 C   0  0  0  0  0  0  0  0  0  0  0  0
    3.0416   -1.3033   -1.3977 C   0  0  0  0  0  0  0  0  0  0  0  0
    0.2553    2.4044    0.8668 C   0  0  0  0  0  0  0  0  0  0  0  0
    0.2997    1.5699    1.9059 C   0  0  0  0  0  0  0  0  0  0  0  0
    1.9454   -2.1453   -0.9070 C   0  0  0  0  0  0  0  0  0  0  0  0
    0.7313   -1.5633   -0.5516 C   0  0  0  0  0  0  0  0  0  0  0  0
    2.1232   -3.5224   -0.7995 C   0  0  0  0  0  0  0  0  0  0  0  0
   -3.2035    2.0203   -0.4439 C   0  0  0  0  0  0  0  0  0  0  0  0
   -0.3118   -2.3635   -0.0855 C   0  0  0  0  0  0  0  0  0  0  0  0
    1.0800   -4.3225   -0.3335 C   0  0  0  0  0  0  0  0  0  0  0  0
   -0.1375   -3.7431    0.0235 C   0  0  0  0  0  0  0  0  0  0  0  0
   -3.2813    0.6484   -0.2833 C   0  0  0  0  0  0  0  0  0  0  0  0
   -4.3000    2.8386   -0.2385 C   0  0  0  0  0  0  0  0  0  0  0  0
   -4.4958    0.0758    0.0949 C   0  0  0  0  0  0  0  0  0  0  0  0
   -5.5144    2.2662    0.1399 C   0  0  0  0  0  0  0  0  0  0  0  0
   -5.6123    0.8848    0.3065 C   0  0  0  0  0  0  0  0  0  0  0  0
   -4.6003   -1.4013    0.2733 C   0  0  0  0  0  0  0  0  0  0  0  0
   -0.9092   -5.9269    0.5631 C   0  0  0  0  0  0  0  0  0  0  0  0
    5.9573    1.9581   -0.4146 H   0  0  0  0  0  0  0  0  0  0  0  0
    3.9517    0.0792    2.8436 H   0  0  0  0  0  0  0  0  0  0  0  0
    6.0526    0.5427    1.6226 H   0  0  0  0  0  0  0  0  0  0  0  0
    5.1927    2.0434    1.9701 H   0  0  0  0  0  0  0  0  0  0  0  0
    4.9249    0.3119   -1.9757 H   0  0  0  0  0  0  0  0  0  0  0  0
    5.9546   -0.4580   -0.7693 H   0  0  0  0  0  0  0  0  0  0  0  0
    4.0844    3.3247   -0.0953 H   0  0  0  0  0  0  0  0  0  0  0  0
    3.5962    2.3048   -1.4344 H   0  0  0  0  0  0  0  0  0  0  0  0
    4.7831   -1.6129    1.2426 H   0  0  0  0  0  0  0  0  0  0  0  0
    3.0259   -1.6265    1.2770 H   0  0  0  0  0  0  0  0  0  0  0  0
    1.5199    0.1971    3.0488 H   0  0  0  0  0  0  0  0  0  0  0  0
   -0.5620    1.3611    2.5308 H   0  0  0  0  0  0  0  0  0  0  0  0
   -1.6275    2.9971    1.3807 H   0  0  0  0  0  0  0  0  0  0  0  0
    0.5840   -0.4915   -0.6390 H   0  0  0  0  0  0  0  0  0  0  0  0
    3.0687   -3.9822   -1.0751 H   0  0  0  0  0  0  0  0  0  0  0  0
   -1.2564   -1.9103    0.1963 H   0  0  0  0  0  0  0  0  0  0  0  0
    1.2834   -5.3862   -0.2738 H   0  0  0  0  0  0  0  0  0  0  0  0
   -2.4165    0.0143   -0.4447 H   0  0  0  0  0  0  0  0  0  0  0  0
   -4.2418    3.9162   -0.3557 H   0  0  0  0  0  0  0  0  0  0  0  0
   -6.3833    2.8963    0.3066 H   0  0  0  0  0  0  0  0  0  0  0  0
   -6.5665    0.4576    0.6021 H   0  0  0  0  0  0  0  0  0  0  0  0
   -0.1145   -6.1522    1.2822 H   0  0  0  0  0  0  0  0  0  0  0  0
   -1.8246   -6.3931    0.9420 H   0  0  0  0  0  0  0  0  0  0  0  0
   -0.7131   -6.3626   -0.4226 H   0  0  0  0  0  0  0  0  0  0  0  0
  1  7  2  0  0  0  0
  1  8  2  0  0  0  0
  1 12  1  0  0  0  0
  1 28  1  0  0  0  0
  2 37  1  0  0  0  0
  3 37  1  0  0  0  0
  4 37  1  0  0  0  0
  5 21  2  0  0  0  0
  6 22  2  0  0  0  0
  9 31  1  0  0  0  0
  9 38  1  0  0  0  0
 10 16  1  0  0  0  0
 10 18  1  0  0  0  0
 10 22  1  0  0  0  0
 11 17  1  0  0  0  0
 11 19  1  0  0  0  0
 11 21  1  0  0  0  0
 12 23  1  0  0  0  0
 12 51  1  0  0  0  0
 13 15  1  0  0  0  0
 13 16  1  0  0  0  0
 13 17  1  0  0  0  0
 13 39  1  0  0  0  0
 14 15  1  0  0  0  0
 14 18  1  0  0  0  0
 14 19  1  0  0  0  0
 14 40  1  0  0  0  0
 15 41  1  0  0  0  0
 15 42  1  0  0  0  0
 16 43  1  0  0  0  0
 16 44  1  0  0  0  0
 17 45  1  0  0  0  0
 17 46  1  0  0  0  0
 18 47  1  0  0  0  0
 18 48  1  0  0  0  0
 19 20  2  0  0  0  0
 20 24  1  0  0  0  0
 20 49  1  0  0  0  0
 21 23  1  0  0  0  0
 22 25  1  0  0  0  0
 23 24  2  0  0  0  0
 24 50  1  0  0  0  0
 25 26  2  0  0  0  0
 25 27  1  0  0  0  0
 26 29  1  0  0  0  0
 26 52  1  0  0  0  0
 27 30  2  0  0  0  0
 27 53  1  0  0  0  0
 28 32  1  0  0  0  0
 28 33  2  0  0  0  0
 29 31  2  0  0  0  0
 29 54  1  0  0  0  0
 30 31  1  0  0  0  0
 30 55  1  0  0  0  0
 32 34  2  0  0  0  0
 32 56  1  0  0  0  0
 33 35  1  0  0  0  0
 33 57  1  0  0  0  0
 34 36  1  0  0  0  0
 34 37  1  0  0  0  0
 35 36  2  0  0  0  0
 35 58  1  0  0  0  0
 36 59  1  0  0  0  0
 38 60  1  0  0  0  0
 38 61  1  0  0  0  0
 38 62  1  0  0  0  0
M  END
> <PUBCHEM_COMPOUND_CID>
7113909

> <PUBCHEM_CONFORMER_RMSD>
1

> <PUBCHEM_CONFORMER_DIVERSEORDER>
1
52
17
40
11
46
62
55
18
24
30
53
28
43
63
9
61
21
25
47
36
26
48
66
23
3
2
29
37
19
42
38
59
57
27
50
56
64
6
16
14
22
49
8
60
41
10
51
54
13
65
58
34
33
5
4
20
44
39
12
31
35
45
67
7
32
15

> <PUBCHEM_MMFF94_PARTIAL_CHARGES>
47
1 1.45
10 -0.66
11 -0.47
12 -0.75
14 0.14
16 0.3
17 0.3
18 0.3
19 -0.03
2 -0.34
20 -0.15
21 0.62
22 0.54
23 0.21
24 -0.15
25 0.09
26 -0.15
27 -0.15
28 -0.01
29 -0.15
3 -0.34
30 -0.15
31 0.08
32 -0.15
33 -0.15
34 -0.14
35 -0.15
36 -0.15
37 1.16
38 0.28
4 -0.34
49 0.15
5 -0.57
50 0.15
51 0.42
52 0.15
53 0.15
54 0.15
55 0.15
56 0.15
57 0.15
58 0.15
59 0.15
6 -0.57
7 -0.65
8 -0.65
9 -0.36

> <PUBCHEM_EFFECTIVE_ROTOR_COUNT>
8

> <PUBCHEM_PHARMACOPHORE_FEATURES>
11
1 12 donor
1 5 acceptor
1 6 acceptor
1 7 acceptor
1 8 acceptor
1 9 acceptor
6 10 13 14 15 16 18 rings
6 11 13 14 15 17 19 rings
6 11 19 20 21 23 24 rings
6 25 26 27 29 30 31 rings
6 28 32 33 34 35 36 rings

> <PUBCHEM_HEAVY_ATOM_COUNT>
38

> <PUBCHEM_ATOM_DEF_STEREO_COUNT>
2

> <PUBCHEM_ATOM_UDEF_STEREO_COUNT>
0

> <PUBCHEM_BOND_DEF_STEREO_COUNT>
0

> <PUBCHEM_BOND_UDEF_STEREO_COUNT>
0

> <PUBCHEM_ISOTOPIC_ATOM_COUNT>
0

> <PUBCHEM_COMPONENT_COUNT>
1

> <PUBCHEM_CACTVS_TAUTO_COUNT>
1

> <PUBCHEM_CONFORMER_ID>
006C8CB500000001

> <PUBCHEM_MMFF94_ENERGY>
99.4182

> <PUBCHEM_FEATURE_SELFOVERLAP>
57.425

> <PUBCHEM_SHAPE_FINGERPRINT>
10864689 126 18196943162431479415
11513181 2 18272936063283506103
12422481 6 18129359580344550082
13402501 40 18341895211831110459
13617811 41 18042970874826803477
15320467 1 18338238279550106911
15968369 153 17554038127877122119
15968369 26 17830991569081806361
15975801 100 17459189578099050916
17093844 170 18342175549195531592
19301679 30 18264499550204359419
19319366 153 18197767821753491903
20764821 26 18338786832641322119
20775438 99 17180489643603329141
20775530 9 17333365701731918430
21133410 90 16913139384510834835
22121540 332 17554882548976536368
23559900 14 18049158865456856311
238918 7 18200864179815361882
3298306 158 18272082799326184243
338550 245 18410576231556900149
392239 28 18342178804237403322
45266715 3 18190721078634632893
484989 97 18341625776428874638
50150288 127 16484744056308020161
508706 21 18340485677006768775
5265222 85 18339927146464230532
6433294 58 18051411769156485095
86090 222 18272933821083255683

> <PUBCHEM_SHAPE_MULTIPOLES>
719.76
11.27
6.48
1.61
8.81
8.36
0.07
-3.8
0.61
1.8
-0.34
-1.37
-0.46
1.89

> <PUBCHEM_SHAPE_SELFOVERLAP>
1568.698

> <PUBCHEM_SHAPE_VOLUME>
395.5

> <PUBCHEM_COORDINATE_TYPE>
2
5
10

$$$$
