28963137
  -OEChem-12032416193D

 73 75  0     1  0  0  0  0  0999 V2000
   -0.1904    0.8026   -2.2007 O   0  0  0  0  0  0  0  0  0  0  0  0
   -4.8780    2.1597   -0.0197 O   0  0  0  0  0  0  0  0  0  0  0  0
    5.6016   -1.9036    0.3429 O   0  0  0  0  0  0  0  0  0  0  0  0
    4.7245    0.2182    0.0001 N   0  0  0  0  0  0  0  0  0  0  0  0
   -4.3855    0.0080   -0.7323 N   0  0  0  0  0  0  0  0  0  0  0  0
    6.9682   -0.1487   -0.3176 N   0  0  0  0  0  0  0  0  0  0  0  0
    0.7232    0.7296    1.5055 C   0  0  1  0  0  0  0  0  0  0  0  0
    0.8772    0.4823   -0.0321 C   0  0  2  0  0  0  0  0  0  0  0  0
    2.3507    0.7630   -0.4988 C   0  0  1  0  0  0  0  0  0  0  0  0
   -0.2307    1.2219   -0.8359 C   0  0  2  0  0  0  0  0  0  0  0  0
   -0.7051    0.3364    1.9509 C   0  0  0  0  0  0  0  0  0  0  0  0
   -1.6530    0.9050   -0.3179 C   0  0  1  0  0  0  0  0  0  0  0  0
    1.7193   -0.1775    2.2643 C   0  0  0  0  0  0  0  0  0  0  0  0
    3.3494   -0.0997    0.3232 C   0  0  2  0  0  0  0  0  0  0  0  0
   -1.7918    1.0878    1.1933 C   0  0  0  0  0  0  0  0  0  0  0  0
    3.1644    0.0312    1.8347 C   0  0  0  0  0  0  0  0  0  0  0  0
    0.9781    2.2071    1.8979 C   0  0  0  0  0  0  0  0  0  0  0  0
   -2.7195    1.7418   -1.0353 C   0  0  2  0  0  0  0  0  0  0  0  0
    2.5803    0.5112   -1.9986 C   0  0  0  0  0  0  0  0  0  0  0  0
   -2.4493    3.2277   -0.8256 C   0  0  0  0  0  0  0  0  0  0  0  0
   -4.1077    1.3531   -0.5365 C   0  0  0  0  0  0  0  0  0  0  0  0
    5.7493   -0.7211    0.0373 C   0  0  0  0  0  0  0  0  0  0  0  0
   -5.6388   -0.5971   -0.3394 C   0  0  0  0  0  0  0  0  0  0  0  0
   -6.0218   -1.7368   -1.2893 C   0  0  0  0  0  0  0  0  0  0  0  0
   -5.5858   -1.0797    1.1142 C   0  0  0  0  0  0  0  0  0  0  0  0
   -5.1361   -2.9698   -1.1107 C   0  0  0  0  0  0  0  0  0  0  0  0
   -4.7007   -2.3138    1.2889 C   0  0  0  0  0  0  0  0  0  0  0  0
   -5.1083   -3.4376    0.3411 C   0  0  0  0  0  0  0  0  0  0  0  0
    8.2013   -0.8986   -0.3627 C   0  0  0  0  0  0  0  0  0  0  0  0
    8.3148   -1.7026   -1.6413 C   0  0  0  0  0  0  0  0  0  0  0  0
    0.7146   -0.5930   -0.2104 H   0  0  0  0  0  0  0  0  0  0  0  0
    2.5808    1.8224   -0.3284 H   0  0  0  0  0  0  0  0  0  0  0  0
   -0.0009    2.2885   -0.8162 H   0  0  0  0  0  0  0  0  0  0  0  0
   -0.8300    0.5137    3.0269 H   0  0  0  0  0  0  0  0  0  0  0  0
   -0.8563   -0.7411    1.7994 H   0  0  0  0  0  0  0  0  0  0  0  0
   -1.8283   -0.1576   -0.5321 H   0  0  0  0  0  0  0  0  0  0  0  0
    1.4578   -1.2314    2.0989 H   0  0  0  0  0  0  0  0  0  0  0  0
    1.6396   -0.0084    3.3457 H   0  0  0  0  0  0  0  0  0  0  0  0
    3.1832   -1.1530    0.0582 H   0  0  0  0  0  0  0  0  0  0  0  0
   -2.7566    0.7053    1.5453 H   0  0  0  0  0  0  0  0  0  0  0  0
   -1.7565    2.1362    1.4967 H   0  0  0  0  0  0  0  0  0  0  0  0
    3.5213    1.0105    2.1761 H   0  0  0  0  0  0  0  0  0  0  0  0
    3.7959   -0.7035    2.3509 H   0  0  0  0  0  0  0  0  0  0  0  0
    1.9991    2.5330    1.6837 H   0  0  0  0  0  0  0  0  0  0  0  0
    0.8158    2.3535    2.9722 H   0  0  0  0  0  0  0  0  0  0  0  0
    0.3156    2.9004    1.3723 H   0  0  0  0  0  0  0  0  0  0  0  0
   -2.7002    1.5341   -2.1129 H   0  0  0  0  0  0  0  0  0  0  0  0
    2.2179   -0.4783   -2.2956 H   0  0  0  0  0  0  0  0  0  0  0  0
    3.6404    0.5695   -2.2656 H   0  0  0  0  0  0  0  0  0  0  0  0
    2.0847    1.2727   -2.6071 H   0  0  0  0  0  0  0  0  0  0  0  0
    4.9650    1.1870   -0.1862 H   0  0  0  0  0  0  0  0  0  0  0  0
   -0.3383   -0.1581   -2.2265 H   0  0  0  0  0  0  0  0  0  0  0  0
   -2.4755    3.5456    0.2192 H   0  0  0  0  0  0  0  0  0  0  0  0
   -3.2355    3.8084   -1.3260 H   0  0  0  0  0  0  0  0  0  0  0  0
   -1.5130    3.5624   -1.2772 H   0  0  0  0  0  0  0  0  0  0  0  0
   -3.6969   -0.5827   -1.1858 H   0  0  0  0  0  0  0  0  0  0  0  0
   -6.4108    0.1790   -0.4117 H   0  0  0  0  0  0  0  0  0  0  0  0
   -5.9678   -1.3986   -2.3312 H   0  0  0  0  0  0  0  0  0  0  0  0
   -7.0647   -2.0223   -1.1013 H   0  0  0  0  0  0  0  0  0  0  0  0
   -6.6030   -1.3280    1.4431 H   0  0  0  0  0  0  0  0  0  0  0  0
   -5.2275   -0.2801    1.7735 H   0  0  0  0  0  0  0  0  0  0  0  0
    6.9915    0.8350   -0.5677 H   0  0  0  0  0  0  0  0  0  0  0  0
   -4.1151   -2.7526   -1.4457 H   0  0  0  0  0  0  0  0  0  0  0  0
   -5.5081   -3.7804   -1.7479 H   0  0  0  0  0  0  0  0  0  0  0  0
   -4.7637   -2.6661    2.3246 H   0  0  0  0  0  0  0  0  0  0  0  0
   -3.6524   -2.0451    1.1091 H   0  0  0  0  0  0  0  0  0  0  0  0
   -6.1014   -3.8089    0.6230 H   0  0  0  0  0  0  0  0  0  0  0  0
   -4.4127   -4.2780    0.4447 H   0  0  0  0  0  0  0  0  0  0  0  0
    9.0249   -0.1817   -0.2887 H   0  0  0  0  0  0  0  0  0  0  0  0
    8.2427   -1.5644    0.5057 H   0  0  0  0  0  0  0  0  0  0  0  0
    7.5045   -2.4341   -1.7262 H   0  0  0  0  0  0  0  0  0  0  0  0
    8.2663   -1.0501   -2.5195 H   0  0  0  0  0  0  0  0  0  0  0  0
    9.2658   -2.2434   -1.6686 H   0  0  0  0  0  0  0  0  0  0  0  0
  1 10  1  0  0  0  0
  1 52  1  0  0  0  0
  2 21  2  0  0  0  0
  3 22  2  0  0  0  0
  4 14  1  0  0  0  0
  4 22  1  0  0  0  0
  4 51  1  0  0  0  0
  5 21  1  0  0  0  0
  5 23  1  0  0  0  0
  5 56  1  0  0  0  0
  6 22  1  0  0  0  0
  6 29  1  0  0  0  0
  6 62  1  0  0  0  0
  7  8  1  0  0  0  0
  7 11  1  0  0  0  0
  7 13  1  0  0  0  0
  7 17  1  0  0  0  0
  8  9  1  0  0  0  0
  8 10  1  0  0  0  0
  8 31  1  0  0  0  0
  9 14  1  0  0  0  0
  9 19  1  0  0  0  0
  9 32  1  0  0  0  0
 10 12  1  0  0  0  0
 10 33  1  0  0  0  0
 11 15  1  0  0  0  0
 11 34  1  0  0  0  0
 11 35  1  0  0  0  0
 12 15  1  0  0  0  0
 12 18  1  0  0  0  0
 12 36  1  0  0  0  0
 13 16  1  0  0  0  0
 13 37  1  0  0  0  0
 13 38  1  0  0  0  0
 14 16  1  0  0  0  0
 14 39  1  0  0  0  0
 15 40  1  0  0  0  0
 15 41  1  0  0  0  0
 16 42  1  0  0  0  0
 16 43  1  0  0  0  0
 17 44  1  0  0  0  0
 17 45  1  0  0  0  0
 17 46  1  0  0  0  0
 18 20  1  0  0  0  0
 18 21  1  0  0  0  0
 18 47  1  0  0  0  0
 19 48  1  0  0  0  0
 19 49  1  0  0  0  0
 19 50  1  0  0  0  0
 20 53  1  0  0  0  0
 20 54  1  0  0  0  0
 20 55  1  0  0  0  0
 23 24  1  0  0  0  0
 23 25  1  0  0  0  0
 23 57  1  0  0  0  0
 24 26  1  0  0  0  0
 24 58  1  0  0  0  0
 24 59  1  0  0  0  0
 25 27  1  0  0  0  0
 25 60  1  0  0  0  0
 25 61  1  0  0  0  0
 26 28  1  0  0  0  0
 26 63  1  0  0  0  0
 26 64  1  0  0  0  0
 27 28  1  0  0  0  0
 27 65  1  0  0  0  0
 27 66  1  0  0  0  0
 28 67  1  0  0  0  0
 28 68  1  0  0  0  0
 29 30  1  0  0  0  0
 29 69  1  0  0  0  0
 29 70  1  0  0  0  0
 30 71  1  0  0  0  0
 30 72  1  0  0  0  0
 30 73  1  0  0  0  0
M  END
> <PUBCHEM_COMPOUND_CID>
28963137

> <PUBCHEM_CONFORMER_RMSD>
1

> <PUBCHEM_CONFORMER_DIVERSEORDER>
1
19
90
11
41
69
98
60
130
82
36
80
104
143
79
105
73
131
48
135
76
117
136
127
118
141
37
46
110
87
108
120
56
101
113
95
40
116
62
4
77
145
126
103
112
123
86
96
94
72
133
75
8
16
78
144
26
45
102
92
39
27
47
128
18
129
125
42
20
85
88
84
142
134
109
70
32
107
57
67
68
114
49
58
22
111
23
17
31
55
122
140
29
53
52
137
132
54
66
51
59
44
97
10
24
6
83
74
121
35
50
65
14
71
33
81
38
119
106
89
25
115
7
139
12
13
34
63
91
28
124
100
61
15
30
138
43
21
9
99
93
2
3
64
5

> <PUBCHEM_MMFF94_PARTIAL_CHARGES>
17
1 -0.68
10 0.28
14 0.3
18 0.06
2 -0.57
21 0.57
22 0.69
23 0.3
29 0.3
3 -0.57
4 -0.73
5 -0.73
51 0.37
52 0.4
56 0.37
6 -0.73
62 0.37

> <PUBCHEM_EFFECTIVE_ROTOR_COUNT>
10.8

> <PUBCHEM_PHARMACOPHORE_FEATURES>
11
1 1 acceptor
1 1 donor
1 2 acceptor
1 20 hydrophobe
1 3 acceptor
1 4 donor
1 5 donor
1 6 donor
6 23 24 25 26 27 28 rings
6 7 8 10 11 12 15 rings
6 7 8 9 13 14 16 rings

> <PUBCHEM_HEAVY_ATOM_COUNT>
30

> <PUBCHEM_ATOM_DEF_STEREO_COUNT>
7

> <PUBCHEM_ATOM_UDEF_STEREO_COUNT>
0

> <PUBCHEM_BOND_DEF_STEREO_COUNT>
0

> <PUBCHEM_BOND_UDEF_STEREO_COUNT>
0

> <PUBCHEM_ISOTOPIC_ATOM_COUNT>
0

> <PUBCHEM_COMPONENT_COUNT>
1

> <PUBCHEM_CACTVS_TAUTO_COUNT>
6

> <PUBCHEM_CONFORMER_ID>
01B9F14100000001

> <PUBCHEM_MMFF94_ENERGY>
62.6599

> <PUBCHEM_FEATURE_SELFOVERLAP>
55.888

> <PUBCHEM_SHAPE_FINGERPRINT>
10554248 39 14562804422989599722
11315621 246 18187361047713546295
11477941 20 17530682099942601981
117089 54 17973729370375093355
11796584 16 18270115708346382231
12553582 1 18042117830181092201
13257819 101 11241962685615277275
13540713 5 15866013695766018892
1361 4 18337387133297493110
13673619 4 18272649073478843073
13690498 29 18260261941590163117
13782708 43 18272930552782221326
13947920 75 17530962497013973938
14251751 18 18341050808713678315
14251757 5 17531526620100590091
14251764 30 18343577456084420713
14767858 380 16587742036421726766
14849402 71 13685714187702269210
14856354 85 18271806783474849093
14950920 106 16916505995021481435
15183329 4 17313098661806450242
15352257 5 18272933812826286702
15461852 350 18261682515382698070
15604295 49 10881984804504142438
20505436 4 17388253438841071729
20982279 24 17059518244439393294
21150785 3 18040157310422151358
21781051 124 17560810940011947166
22122407 14 9799395772463818454
22288116 15 17676494959957766522
22393880 68 16443333330639474221
23559900 14 18335410322985749681
23569914 2 8067766981085548470
23576562 1 13912906283475373022
24771293 8 17458345269529298508
2747138 104 17561081385486202498
2838139 119 10809343355909521538
3178227 256 16415477169174277934
392239 28 16343702170682845823
437795 83 14418127396819237150
484989 97 16299531528815217945
57527293 21 17701262671260573509
58083652 198 15338824366242866674
6009941 240 17703514285958551321
636775 8 17917439701303086086
7226269 152 9223240645648293159
7495541 125 18201717400701560633
7970288 3 18191021416771071123
8863177 126 18058721528326369307
9849439 229 10158053150373330935
999808 66 17489591147531940350

> <PUBCHEM_SHAPE_MULTIPOLES>
584.83
19.12
2.94
1.99
26.94
0.89
-0.4
17.11
5.93
-5.1
0.42
0.49
-0.22
1.32

> <PUBCHEM_SHAPE_SELFOVERLAP>
1189.788

> <PUBCHEM_SHAPE_VOLUME>
335.2

> <PUBCHEM_COORDINATE_TYPE>
2
5
10

$$$$
