44716456
  -OEChem-12032416163D

 69 74  0     1  0  0  0  0  0999 V2000
   -6.1705    4.8398   -1.6851 F   0  0  0  0  0  0  0  0  0  0  0  0
   -5.6388    3.0267   -0.5872 F   0  0  0  0  0  0  0  0  0  0  0  0
   -5.6450    4.9883    0.4309 F   0  0  0  0  0  0  0  0  0  0  0  0
   -3.2135   -1.7993    2.0638 O   0  0  0  0  0  0  0  0  0  0  0  0
   -1.1100   -1.0737    2.6846 O   0  0  0  0  0  0  0  0  0  0  0  0
   -4.0091    4.5455   -1.1052 O   0  0  0  0  0  0  0  0  0  0  0  0
   -0.3782   -0.6236    0.0871 N   0  0  2  0  0  0  0  0  0  0  0  0
    1.2479   -4.0066   -0.0523 N   0  0  0  0  0  0  0  0  0  0  0  0
    3.6639    0.7782    0.0121 N   0  0  0  0  0  0  0  0  0  0  0  0
    6.7848    4.0454   -0.8199 N   0  0  0  0  0  0  0  0  0  0  0  0
    0.7040   -1.5675    0.5047 C   0  0  2  0  0  0  0  0  0  0  0  0
   -0.1333    0.7551    0.5811 C   0  0  1  0  0  0  0  0  0  0  0  0
    2.0716   -1.0856   -0.0040 C   0  0  0  0  0  0  0  0  0  0  0  0
    2.3766    0.3147    0.5272 C   0  0  2  0  0  0  0  0  0  0  0  0
    1.2538    1.2705    0.1269 C   0  0  0  0  0  0  0  0  0  0  0  0
   -1.7435   -1.1508    0.3592 C   0  0  1  0  0  0  0  0  0  0  0  0
    0.3856   -2.9479    0.0129 C   0  0  0  0  0  0  0  0  0  0  0  0
   -2.0339   -2.4697   -0.4016 C   0  0  0  0  0  0  0  0  0  0  0  0
   -0.8590   -3.3834   -0.3866 C   0  0  0  0  0  0  0  0  0  0  0  0
   -1.1758    1.7743    0.1281 C   0  0  0  0  0  0  0  0  0  0  0  0
   -0.7456   -4.7543   -0.7443 C   0  0  0  0  0  0  0  0  0  0  0  0
    0.5865   -5.1199   -0.5261 C   0  0  0  0  0  0  0  0  0  0  0  0
   -1.9553   -1.3259    1.8366 C   0  0  0  0  0  0  0  0  0  0  0  0
    4.2034    1.8373    0.8508 C   0  0  0  0  0  0  0  0  0  0  0  0
   -1.9197    2.4796    1.0741 C   0  0  0  0  0  0  0  0  0  0  0  0
   -1.3842    2.0003   -1.2325 C   0  0  0  0  0  0  0  0  0  0  0  0
   -1.6441   -5.7260   -1.2287 C   0  0  0  0  0  0  0  0  0  0  0  0
    1.0629   -6.4129   -0.7711 C   0  0  0  0  0  0  0  0  0  0  0  0
   -1.1798   -7.0221   -1.4795 C   0  0  0  0  0  0  0  0  0  0  0  0
   -2.8720    3.4105    0.6597 C   0  0  0  0  0  0  0  0  0  0  0  0
   -2.3366    2.9313   -1.6470 C   0  0  0  0  0  0  0  0  0  0  0  0
    5.5293    2.3359    0.3406 C   0  0  0  0  0  0  0  0  0  0  0  0
    0.1534   -7.3581   -1.2536 C   0  0  0  0  0  0  0  0  0  0  0  0
   -3.0804    3.6364   -0.7010 C   0  0  0  0  0  0  0  0  0  0  0  0
   -3.5513   -2.0130    3.4380 C   0  0  0  0  0  0  0  0  0  0  0  0
    6.6935    1.5999    0.5312 C   0  0  0  0  0  0  0  0  0  0  0  0
    5.6277    3.5416   -0.3352 C   0  0  0  0  0  0  0  0  0  0  0  0
    7.9033    2.0852    0.0471 C   0  0  0  0  0  0  0  0  0  0  0  0
    7.8955    3.3020   -0.6155 C   0  0  0  0  0  0  0  0  0  0  0  0
   -5.3640    4.3417   -0.7205 C   0  0  0  0  0  0  0  0  0  0  0  0
    0.7827   -1.6264    1.5958 H   0  0  0  0  0  0  0  0  0  0  0  0
   -0.1095    0.7599    1.6770 H   0  0  0  0  0  0  0  0  0  0  0  0
    2.8602   -1.7763    0.3228 H   0  0  0  0  0  0  0  0  0  0  0  0
    2.0885   -1.0916   -1.1034 H   0  0  0  0  0  0  0  0  0  0  0  0
    2.4184    0.2429    1.6231 H   0  0  0  0  0  0  0  0  0  0  0  0
    1.4174    2.2640    0.5630 H   0  0  0  0  0  0  0  0  0  0  0  0
    1.2786    1.4069   -0.9632 H   0  0  0  0  0  0  0  0  0  0  0  0
   -2.4965   -0.4299    0.0204 H   0  0  0  0  0  0  0  0  0  0  0  0
   -2.9135   -2.9911   -0.0090 H   0  0  0  0  0  0  0  0  0  0  0  0
   -2.2503   -2.2254   -1.4502 H   0  0  0  0  0  0  0  0  0  0  0  0
    2.2252   -3.9848    0.2039 H   0  0  0  0  0  0  0  0  0  0  0  0
    4.3226   -0.0010    0.0031 H   0  0  0  0  0  0  0  0  0  0  0  0
    3.5161    2.6886    0.9107 H   0  0  0  0  0  0  0  0  0  0  0  0
    4.3464    1.4843    1.8809 H   0  0  0  0  0  0  0  0  0  0  0  0
   -1.7683    2.3146    2.1374 H   0  0  0  0  0  0  0  0  0  0  0  0
   -0.8235    1.4541   -1.9861 H   0  0  0  0  0  0  0  0  0  0  0  0
   -2.6866   -5.4791   -1.4086 H   0  0  0  0  0  0  0  0  0  0  0  0
    2.1003   -6.6765   -0.5941 H   0  0  0  0  0  0  0  0  0  0  0  0
   -1.8687   -7.7745   -1.8541 H   0  0  0  0  0  0  0  0  0  0  0  0
   -3.4396    3.9576    1.4073 H   0  0  0  0  0  0  0  0  0  0  0  0
   -2.4966    3.1012   -2.7082 H   0  0  0  0  0  0  0  0  0  0  0  0
    0.4925   -8.3711   -1.4545 H   0  0  0  0  0  0  0  0  0  0  0  0
   -2.8842   -2.7594    3.8797 H   0  0  0  0  0  0  0  0  0  0  0  0
   -3.4985   -1.0707    3.9916 H   0  0  0  0  0  0  0  0  0  0  0  0
   -4.5769   -2.3890    3.4816 H   0  0  0  0  0  0  0  0  0  0  0  0
    6.6699    0.6485    1.0554 H   0  0  0  0  0  0  0  0  0  0  0  0
    4.7550    4.1611   -0.5179 H   0  0  0  0  0  0  0  0  0  0  0  0
    8.8233    1.5286    0.1842 H   0  0  0  0  0  0  0  0  0  0  0  0
    8.8129    3.7243   -1.0122 H   0  0  0  0  0  0  0  0  0  0  0  0
  1 40  1  0  0  0  0
  2 40  1  0  0  0  0
  3 40  1  0  0  0  0
  4 23  1  0  0  0  0
  4 35  1  0  0  0  0
  5 23  2  0  0  0  0
  6 34  1  0  0  0  0
  6 40  1  0  0  0  0
  7 11  1  0  0  0  0
  7 12  1  0  0  0  0
  7 16  1  0  0  0  0
  8 17  1  0  0  0  0
  8 22  1  0  0  0  0
  8 51  1  0  0  0  0
  9 14  1  0  0  0  0
  9 24  1  0  0  0  0
  9 52  1  0  0  0  0
 10 37  1  0  0  0  0
 10 39  2  0  0  0  0
 11 13  1  0  0  0  0
 11 17  1  0  0  0  0
 11 41  1  0  0  0  0
 12 15  1  0  0  0  0
 12 20  1  0  0  0  0
 12 42  1  0  0  0  0
 13 14  1  0  0  0  0
 13 43  1  0  0  0  0
 13 44  1  0  0  0  0
 14 15  1  0  0  0  0
 14 45  1  0  0  0  0
 15 46  1  0  0  0  0
 15 47  1  0  0  0  0
 16 18  1  0  0  0  0
 16 23  1  0  0  0  0
 16 48  1  0  0  0  0
 17 19  2  0  0  0  0
 18 19  1  0  0  0  0
 18 49  1  0  0  0  0
 18 50  1  0  0  0  0
 19 21  1  0  0  0  0
 20 25  2  0  0  0  0
 20 26  1  0  0  0  0
 21 22  1  0  0  0  0
 21 27  2  0  0  0  0
 22 28  2  0  0  0  0
 24 32  1  0  0  0  0
 24 53  1  0  0  0  0
 24 54  1  0  0  0  0
 25 30  1  0  0  0  0
 25 55  1  0  0  0  0
 26 31  2  0  0  0  0
 26 56  1  0  0  0  0
 27 29  1  0  0  0  0
 27 57  1  0  0  0  0
 28 33  1  0  0  0  0
 28 58  1  0  0  0  0
 29 33  2  0  0  0  0
 29 59  1  0  0  0  0
 30 34  2  0  0  0  0
 30 60  1  0  0  0  0
 31 34  1  0  0  0  0
 31 61  1  0  0  0  0
 32 36  1  0  0  0  0
 32 37  2  0  0  0  0
 33 62  1  0  0  0  0
 35 63  1  0  0  0  0
 35 64  1  0  0  0  0
 35 65  1  0  0  0  0
 36 38  2  0  0  0  0
 36 66  1  0  0  0  0
 37 67  1  0  0  0  0
 38 39  1  0  0  0  0
 38 68  1  0  0  0  0
 39 69  1  0  0  0  0
M  END
> <PUBCHEM_COMPOUND_CID>
44716456

> <PUBCHEM_CONFORMER_RMSD>
1

> <PUBCHEM_CONFORMER_DIVERSEORDER>
1
47
17
36
56
5
51
25
22
35
48
18
52
57
3
46
38
4
7
10
42
50
19
54
23
32
53
30
45
11
49
16
6
33
31
26
43
40
13
12
34
39
29
27
55
21
37
20
14
28
41
15
44
24
9
2
8

> <PUBCHEM_MMFF94_PARTIAL_CHARGES>
51
1 -0.34
10 -0.62
11 0.45
12 0.41
14 0.27
16 0.33
17 -0.33
18 0.18
19 -0.18
2 -0.34
20 -0.14
22 -0.15
23 0.66
24 0.41
25 -0.15
26 -0.15
27 -0.15
28 -0.15
29 -0.15
3 -0.34
30 -0.15
31 -0.15
32 -0.14
33 -0.15
34 0.08
35 0.28
36 -0.15
37 0.16
38 -0.15
39 0.16
4 -0.43
40 1.3
5 -0.57
51 0.27
52 0.36
55 0.15
56 0.15
57 0.15
58 0.15
59 0.15
6 -0.36
60 0.15
61 0.15
62 0.15
66 0.15
67 0.15
68 0.15
69 0.15
7 -0.81
8 0.03
9 -0.9

> <PUBCHEM_EFFECTIVE_ROTOR_COUNT>
9.2

> <PUBCHEM_PHARMACOPHORE_FEATURES>
14
1 10 acceptor
1 5 acceptor
1 6 acceptor
1 7 cation
1 8 cation
1 8 donor
1 9 cation
1 9 donor
5 8 17 19 21 22 rings
6 10 32 36 37 38 39 rings
6 20 25 26 30 31 34 rings
6 21 22 27 28 29 33 rings
6 7 11 12 13 14 15 rings
6 7 11 16 17 18 19 rings

> <PUBCHEM_HEAVY_ATOM_COUNT>
40

> <PUBCHEM_ATOM_DEF_STEREO_COUNT>
4

> <PUBCHEM_ATOM_UDEF_STEREO_COUNT>
0

> <PUBCHEM_BOND_DEF_STEREO_COUNT>
0

> <PUBCHEM_BOND_UDEF_STEREO_COUNT>
0

> <PUBCHEM_ISOTOPIC_ATOM_COUNT>
0

> <PUBCHEM_COMPONENT_COUNT>
1

> <PUBCHEM_CACTVS_TAUTO_COUNT>
1

> <PUBCHEM_CONFORMER_ID>
02AA51A800000001

> <PUBCHEM_MMFF94_ENERGY>
102.701

> <PUBCHEM_FEATURE_SELFOVERLAP>
71.242

> <PUBCHEM_SHAPE_FINGERPRINT>
10169797 241 17754753624231395745
10290309 65 18340780281967067698
10319688 45 17979916339382977122
10462674 296 16828114768573362137
11062273 19 17979069388827452416
11062273 23 18339356499886749992
11386260 185 16967707691131286613
11763715 3 17614572866411382476
12522641 68 18408877417488924484
12788726 201 18045767138779315528
131258 43 16831236871096147620
13248334 5 17835519328089971716
13757389 114 18195246843517572799
13782708 43 16984079875520807998
14068700 675 17193203756649578498
15198563 99 17907575079871650014
15361156 5 17974304411250919148
15400415 2 18412257307753796012
15439362 3 18049440344787485308
15664458 157 18338222783213229756
15684973 49 18264466530126698506
15775530 1 17903386739307737299
16114785 44 18341610459900004221
17686467 74 17336464611980795904
19319366 153 18056462981230312652
21927370 108 17616262815609590610
23523766 6 16901584732852947726
23559900 14 17260167910680412845
23729398 52 17835531414449631102
24771750 20 18192156997454136262
25019877 29 18334575715770862061
255183 313 18124900068082050882
3380486 145 17686902030972713681
3504750 166 18265888237637747656
3627633 1 17906728464402902932
4017518 198 18337675218202148460
4046055 25 17760081114302680068
4409770 3 18337383967204358836
44280117 145 18121780793557517852
6058803 2 18115854369932607792
6677587 24 16525750372541682428
6695519 79 18272654541494815057
6700243 42 17622201209592165828

> <PUBCHEM_SHAPE_MULTIPOLES>
763.83
13.94
12.37
1.76
49.8
11.83
1.37
-9.68
-1.32
-26.36
-8.17
-2.66
0.56
-1.4

> <PUBCHEM_SHAPE_SELFOVERLAP>
1682.386

> <PUBCHEM_SHAPE_VOLUME>
411.5

> <PUBCHEM_COORDINATE_TYPE>
2
5
10

$$$$
