45360563
  -OEChem-12032416193D

 50 53  0     1  0  0  0  0  0999 V2000
   -1.7478   -1.3617   -1.5718 O   0  0  0  0  0  0  0  0  0  0  0  0
   -3.3977   -2.2991   -0.2389 O   0  0  0  0  0  0  0  0  0  0  0  0
   -1.8335   -2.1172    2.1636 O   0  0  0  0  0  0  0  0  0  0  0  0
   -1.6336    0.9301    0.1816 N   0  0  0  0  0  0  0  0  0  0  0  0
    0.8370   -1.4134   -0.2292 N   0  0  0  0  0  0  0  0  0  0  0  0
   -1.6867    3.8099   -0.0687 N   0  0  0  0  0  0  0  0  0  0  0  0
    5.4010    0.6719   -0.5180 N   0  0  0  0  0  0  0  0  0  0  0  0
   -2.2140   -0.3533    0.5716 C   0  0  2  0  0  0  0  0  0  0  0  0
   -1.1509   -1.2534    1.2429 C   0  0  2  0  0  0  0  0  0  0  0  0
   -0.3517   -2.1290    0.2468 C   0  0  1  0  0  0  0  0  0  0  0  0
   -1.1904   -2.5424   -0.9843 C   0  0  1  0  0  0  0  0  0  0  0  0
   -2.8126   -1.0562   -0.6611 C   0  0  1  0  0  0  0  0  0  0  0  0
   -2.4583   -3.3055   -0.6455 C   0  0  0  0  0  0  0  0  0  0  0  0
   -1.4594    1.8006    1.3508 C   0  0  0  0  0  0  0  0  0  0  0  0
   -2.4650    1.5922   -0.8312 C   0  0  0  0  0  0  0  0  0  0  0  0
   -0.8537    3.1478    0.9427 C   0  0  0  0  0  0  0  0  0  0  0  0
   -1.8601    2.9401   -1.2385 C   0  0  0  0  0  0  0  0  0  0  0  0
    1.8767   -1.4206    0.7854 C   0  0  0  0  0  0  0  0  0  0  0  0
   -1.1080    5.0942   -0.4581 C   0  0  0  0  0  0  0  0  0  0  0  0
    3.1103   -0.6881    0.3291 C   0  0  0  0  0  0  0  0  0  0  0  0
    3.9827   -1.2853   -0.5741 C   0  0  0  0  0  0  0  0  0  0  0  0
    3.3820    0.5883    0.8092 C   0  0  0  0  0  0  0  0  0  0  0  0
    5.1039   -0.5699   -0.9627 C   0  0  0  0  0  0  0  0  0  0  0  0
    4.5300    1.2200    0.3586 C   0  0  0  0  0  0  0  0  0  0  0  0
   -3.0434   -0.1990    1.2776 H   0  0  0  0  0  0  0  0  0  0  0  0
   -0.4923   -0.6715    1.8880 H   0  0  0  0  0  0  0  0  0  0  0  0
   -0.0405   -3.0629    0.7345 H   0  0  0  0  0  0  0  0  0  0  0  0
   -0.5798   -3.0817   -1.7166 H   0  0  0  0  0  0  0  0  0  0  0  0
   -3.6166   -0.5145   -1.1650 H   0  0  0  0  0  0  0  0  0  0  0  0
   -2.3324   -4.0565    0.1389 H   0  0  0  0  0  0  0  0  0  0  0  0
   -2.8732   -3.7888   -1.5366 H   0  0  0  0  0  0  0  0  0  0  0  0
   -2.4197    1.9736    1.8560 H   0  0  0  0  0  0  0  0  0  0  0  0
   -0.7847    1.3559    2.0885 H   0  0  0  0  0  0  0  0  0  0  0  0
   -3.4924    1.7432   -0.4729 H   0  0  0  0  0  0  0  0  0  0  0  0
   -2.4969    1.0391   -1.7747 H   0  0  0  0  0  0  0  0  0  0  0  0
    0.5853   -0.4547   -0.4700 H   0  0  0  0  0  0  0  0  0  0  0  0
   -0.7848    3.7800    1.8363 H   0  0  0  0  0  0  0  0  0  0  0  0
    0.1687    2.9951    0.5706 H   0  0  0  0  0  0  0  0  0  0  0  0
   -0.9009    2.7765   -1.7489 H   0  0  0  0  0  0  0  0  0  0  0  0
   -2.5351    3.4193   -1.9583 H   0  0  0  0  0  0  0  0  0  0  0  0
   -1.1592   -2.6406    2.6297 H   0  0  0  0  0  0  0  0  0  0  0  0
    1.5437   -0.9794    1.7308 H   0  0  0  0  0  0  0  0  0  0  0  0
    2.1696   -2.4523    1.0223 H   0  0  0  0  0  0  0  0  0  0  0  0
   -0.1139    4.9828   -0.9060 H   0  0  0  0  0  0  0  0  0  0  0  0
   -1.7558    5.6047   -1.1794 H   0  0  0  0  0  0  0  0  0  0  0  0
   -1.0224    5.7563    0.4106 H   0  0  0  0  0  0  0  0  0  0  0  0
    3.8016   -2.2794   -0.9682 H   0  0  0  0  0  0  0  0  0  0  0  0
    2.7223    1.0864    1.5116 H   0  0  0  0  0  0  0  0  0  0  0  0
    5.8156   -0.9911   -1.6651 H   0  0  0  0  0  0  0  0  0  0  0  0
    4.7864    2.2168    0.7020 H   0  0  0  0  0  0  0  0  0  0  0  0
  1 11  1  0  0  0  0
  1 12  1  0  0  0  0
  2 12  1  0  0  0  0
  2 13  1  0  0  0  0
  3  9  1  0  0  0  0
  3 41  1  0  0  0  0
  4  8  1  0  0  0  0
  4 14  1  0  0  0  0
  4 15  1  0  0  0  0
  5 10  1  0  0  0  0
  5 18  1  0  0  0  0
  5 36  1  0  0  0  0
  6 16  1  0  0  0  0
  6 17  1  0  0  0  0
  6 19  1  0  0  0  0
  7 23  2  0  0  0  0
  7 24  1  0  0  0  0
  8  9  1  0  0  0  0
  8 12  1  0  0  0  0
  8 25  1  0  0  0  0
  9 10  1  0  0  0  0
  9 26  1  0  0  0  0
 10 11  1  0  0  0  0
 10 27  1  0  0  0  0
 11 13  1  0  0  0  0
 11 28  1  0  0  0  0
 12 29  1  0  0  0  0
 13 30  1  0  0  0  0
 13 31  1  0  0  0  0
 14 16  1  0  0  0  0
 14 32  1  0  0  0  0
 14 33  1  0  0  0  0
 15 17  1  0  0  0  0
 15 34  1  0  0  0  0
 15 35  1  0  0  0  0
 16 37  1  0  0  0  0
 16 38  1  0  0  0  0
 17 39  1  0  0  0  0
 17 40  1  0  0  0  0
 18 20  1  0  0  0  0
 18 42  1  0  0  0  0
 18 43  1  0  0  0  0
 19 44  1  0  0  0  0
 19 45  1  0  0  0  0
 19 46  1  0  0  0  0
 20 21  2  0  0  0  0
 20 22  1  0  0  0  0
 21 23  1  0  0  0  0
 21 47  1  0  0  0  0
 22 24  2  0  0  0  0
 22 48  1  0  0  0  0
 23 49  1  0  0  0  0
 24 50  1  0  0  0  0
M  END
> <PUBCHEM_COMPOUND_CID>
45360563

> <PUBCHEM_CONFORMER_RMSD>
0.8

> <PUBCHEM_CONFORMER_DIVERSEORDER>
1
32
31
28
4
37
10
19
6
36
8
16
3
18
21
14
15
23
25
24
20
11
33
7
29
13
22
17
34
9
12
26
2
35
30
27
5

> <PUBCHEM_MMFF94_PARTIAL_CHARGES>
30
1 -0.56
10 0.27
11 0.28
12 0.56
13 0.28
14 0.27
15 0.27
16 0.27
17 0.27
18 0.41
19 0.27
2 -0.56
20 -0.14
21 -0.15
22 -0.15
23 0.16
24 0.16
3 -0.68
36 0.36
4 -0.81
41 0.4
47 0.15
48 0.15
49 0.15
5 -0.9
50 0.15
6 -0.81
7 -0.62
8 0.27
9 0.28

> <PUBCHEM_EFFECTIVE_ROTOR_COUNT>
6.4

> <PUBCHEM_PHARMACOPHORE_FEATURES>
12
1 1 acceptor
1 2 acceptor
1 3 acceptor
1 3 donor
1 4 cation
1 5 cation
1 5 donor
1 6 cation
1 7 acceptor
6 4 6 14 15 16 17 rings
6 7 20 21 22 23 24 rings
8 1 2 8 9 10 11 12 13 rings

> <PUBCHEM_HEAVY_ATOM_COUNT>
24

> <PUBCHEM_ATOM_DEF_STEREO_COUNT>
5

> <PUBCHEM_ATOM_UDEF_STEREO_COUNT>
0

> <PUBCHEM_BOND_DEF_STEREO_COUNT>
0

> <PUBCHEM_BOND_UDEF_STEREO_COUNT>
0

> <PUBCHEM_ISOTOPIC_ATOM_COUNT>
0

> <PUBCHEM_COMPONENT_COUNT>
1

> <PUBCHEM_CACTVS_TAUTO_COUNT>
1

> <PUBCHEM_CONFORMER_ID>
02B425B300000001

> <PUBCHEM_MMFF94_ENERGY>
69.8309

> <PUBCHEM_FEATURE_SELFOVERLAP>
60.947

> <PUBCHEM_SHAPE_FINGERPRINT>
10006869 2 18117837703797916227
10498660 4 18411129256083200818
10670039 82 18191883412776194180
10871710 139 18408891754025928316
10937287 8 17906164053802294380
11045515 52 18266734882074519687
11221954 11 17978234854842986808
12173636 292 18267572520771266164
12788726 201 18261382347721800161
133893 2 17474680919397822451
138480 1 16106139089666903476
13944108 23 16246038763717298764
13994607 96 18041573484886786983
14142880 1 18041275470143825301
14251751 93 18339081476240762058
14363568 33 17398129621279353144
14790565 3 18198059180162639521
14955137 171 18194417790893032971
15961568 22 18051122898853323912
17357779 13 18198891690340938270
17492 54 18265031588813979797
17980427 23 17983331289708617147
19930381 70 17545875396417387060
21033650 10 18191612816877303910
21524375 3 17902227806506272691
22907989 373 18410285883045900157
23352939 185 18058165218877846811
23557571 272 18271813462022173070
238 59 17402610745015770561
26353 1 17482793008396582183
469060 322 17677064502659340697
474 4 17187275769561809025
497634 4 17273994578262255946
5048184 11 18121501254750869912
531348 171 18340212874107248614
5364581 5 10738150043385095374

> <PUBCHEM_SHAPE_MULTIPOLES>
456.38
7.9
5.23
1.36
15.22
5.67
0.27
0.07
-1.75
-6.07
-0.8
-0.54
-0.24
0.28

> <PUBCHEM_SHAPE_SELFOVERLAP>
968.577

> <PUBCHEM_SHAPE_VOLUME>
251.2

> <PUBCHEM_COORDINATE_TYPE>
2
5
10

$$$$
