11941327
  -OEChem-12032416293D

 55 59  0     1  0  0  0  0  0999 V2000
   -2.0088    1.8085   -1.5180 O   0  0  0  0  0  0  0  0  0  0  0  0
    2.4302   -1.7546   -0.5997 O   0  0  0  0  0  0  0  0  0  0  0  0
    0.5758   -3.4673    1.2688 O   0  0  0  0  0  0  0  0  0  0  0  0
    2.8523    0.9828   -0.6037 N   0  0  2  0  0  0  0  0  0  0  0  0
   -0.1568    1.9156   -0.1050 N   0  0  0  0  0  0  0  0  0  0  0  0
    1.9226    3.3108   -0.6516 C   0  0  1  0  0  0  0  0  0  0  0  0
    1.8366    2.0223    1.4286 C   0  0  2  0  0  0  0  0  0  0  0  0
    2.0652    3.4203    0.8606 C   0  0  0  0  0  0  0  0  0  0  0  0
    2.9612    2.3153   -1.2104 C   0  0  0  0  0  0  0  0  0  0  0  0
    2.9021    1.0551    0.8643 C   0  0  0  0  0  0  0  0  0  0  0  0
    0.4801    2.9065   -0.9844 C   0  0  0  0  0  0  0  0  0  0  0  0
    0.4414    1.5271    1.0960 C   0  0  0  0  0  0  0  0  0  0  0  0
    3.8845    0.0864   -1.1187 C   0  0  0  0  0  0  0  0  0  0  0  0
   -0.2081    0.7074    1.9378 C   0  0  0  0  0  0  0  0  0  0  0  0
   -1.4356    1.4619   -0.4835 C   0  0  0  0  0  0  0  0  0  0  0  0
   -2.1245    0.5168    0.4640 C   0  0  0  0  0  0  0  0  0  0  0  0
   -1.5074    0.1925    1.6102 C   0  0  0  0  0  0  0  0  0  0  0  0
    3.6960   -1.3024   -0.5745 C   0  0  0  0  0  0  0  0  0  0  0  0
   -3.4454   -0.0541    0.1474 C   0  0  0  0  0  0  0  0  0  0  0  0
    4.5653   -2.1998   -0.0568 C   0  0  0  0  0  0  0  0  0  0  0  0
   -3.5706   -1.2558   -0.5536 C   0  0  0  0  0  0  0  0  0  0  0  0
    2.4851   -3.0055   -0.0718 C   0  0  0  0  0  0  0  0  0  0  0  0
    3.7762   -3.3260    0.2777 C   0  0  0  0  0  0  0  0  0  0  0  0
   -4.5910    0.6289    0.5617 C   0  0  0  0  0  0  0  0  0  0  0  0
   -4.8350   -1.7714   -0.8387 C   0  0  0  0  0  0  0  0  0  0  0  0
   -2.3687   -2.0164   -1.0140 C   0  0  0  0  0  0  0  0  0  0  0  0
    1.2100   -3.7311    0.0149 C   0  0  0  0  0  0  0  0  0  0  0  0
   -5.8553    0.1131    0.2764 C   0  0  0  0  0  0  0  0  0  0  0  0
   -5.9773   -1.0869   -0.4238 C   0  0  0  0  0  0  0  0  0  0  0  0
    2.1211    4.2875   -1.1103 H   0  0  0  0  0  0  0  0  0  0  0  0
    1.9601    2.0741    2.5186 H   0  0  0  0  0  0  0  0  0  0  0  0
    1.3413    4.1356    1.2705 H   0  0  0  0  0  0  0  0  0  0  0  0
    3.0648    3.7849    1.1269 H   0  0  0  0  0  0  0  0  0  0  0  0
    2.8224    2.2357   -2.2959 H   0  0  0  0  0  0  0  0  0  0  0  0
    3.9665    2.7268   -1.0461 H   0  0  0  0  0  0  0  0  0  0  0  0
    3.8950    1.3894    1.1962 H   0  0  0  0  0  0  0  0  0  0  0  0
    2.7294    0.0749    1.3237 H   0  0  0  0  0  0  0  0  0  0  0  0
   -0.1548    3.8015   -0.9285 H   0  0  0  0  0  0  0  0  0  0  0  0
    0.4082    2.5512   -2.0201 H   0  0  0  0  0  0  0  0  0  0  0  0
    4.8905    0.4487   -0.8708 H   0  0  0  0  0  0  0  0  0  0  0  0
    3.8173    0.0239   -2.2121 H   0  0  0  0  0  0  0  0  0  0  0  0
    0.2367    0.3847    2.8733 H   0  0  0  0  0  0  0  0  0  0  0  0
   -1.9591   -0.4870    2.3270 H   0  0  0  0  0  0  0  0  0  0  0  0
    5.6312   -2.0812    0.0734 H   0  0  0  0  0  0  0  0  0  0  0  0
    4.1095   -4.2545    0.7189 H   0  0  0  0  0  0  0  0  0  0  0  0
   -4.5148    1.5664    1.1076 H   0  0  0  0  0  0  0  0  0  0  0  0
   -4.9491   -2.7054   -1.3826 H   0  0  0  0  0  0  0  0  0  0  0  0
   -1.7354   -1.3949   -1.6555 H   0  0  0  0  0  0  0  0  0  0  0  0
   -1.7874   -2.3661   -0.1554 H   0  0  0  0  0  0  0  0  0  0  0  0
   -2.6461   -2.9000   -1.5994 H   0  0  0  0  0  0  0  0  0  0  0  0
    0.5302   -3.4259   -0.7868 H   0  0  0  0  0  0  0  0  0  0  0  0
    1.3732   -4.8107   -0.0647 H   0  0  0  0  0  0  0  0  0  0  0  0
   -6.7449    0.6461    0.5992 H   0  0  0  0  0  0  0  0  0  0  0  0
   -6.9618   -1.4883   -0.6457 H   0  0  0  0  0  0  0  0  0  0  0  0
   -0.2598   -3.9648    1.2735 H   0  0  0  0  0  0  0  0  0  0  0  0
  1 15  2  0  0  0  0
  2 18  1  0  0  0  0
  2 22  1  0  0  0  0
  3 27  1  0  0  0  0
  3 55  1  0  0  0  0
  4  9  1  0  0  0  0
  4 10  1  0  0  0  0
  4 13  1  0  0  0  0
  5 11  1  0  0  0  0
  5 12  1  0  0  0  0
  5 15  1  0  0  0  0
  6  8  1  0  0  0  0
  6  9  1  0  0  0  0
  6 11  1  0  0  0  0
  6 30  1  0  0  0  0
  7  8  1  0  0  0  0
  7 10  1  0  0  0  0
  7 12  1  0  0  0  0
  7 31  1  0  0  0  0
  8 32  1  0  0  0  0
  8 33  1  0  0  0  0
  9 34  1  0  0  0  0
  9 35  1  0  0  0  0
 10 36  1  0  0  0  0
 10 37  1  0  0  0  0
 11 38  1  0  0  0  0
 11 39  1  0  0  0  0
 12 14  2  0  0  0  0
 13 18  1  0  0  0  0
 13 40  1  0  0  0  0
 13 41  1  0  0  0  0
 14 17  1  0  0  0  0
 14 42  1  0  0  0  0
 15 16  1  0  0  0  0
 16 17  2  0  0  0  0
 16 19  1  0  0  0  0
 17 43  1  0  0  0  0
 18 20  2  0  0  0  0
 19 21  1  0  0  0  0
 19 24  2  0  0  0  0
 20 23  1  0  0  0  0
 20 44  1  0  0  0  0
 21 25  2  0  0  0  0
 21 26  1  0  0  0  0
 22 23  2  0  0  0  0
 22 27  1  0  0  0  0
 23 45  1  0  0  0  0
 24 28  1  0  0  0  0
 24 46  1  0  0  0  0
 25 29  1  0  0  0  0
 25 47  1  0  0  0  0
 26 48  1  0  0  0  0
 26 49  1  0  0  0  0
 26 50  1  0  0  0  0
 27 51  1  0  0  0  0
 27 52  1  0  0  0  0
 28 29  2  0  0  0  0
 28 53  1  0  0  0  0
 29 54  1  0  0  0  0
M  END
> <PUBCHEM_COMPOUND_CID>
11941327

> <PUBCHEM_CONFORMER_RMSD>
0.8

> <PUBCHEM_CONFORMER_DIVERSEORDER>
1
10
11
16
17
12
22
9
4
23
18
20
21
7
8
15
19
6
14
2
13
3
5

> <PUBCHEM_MMFF94_PARTIAL_CHARGES>
36
1 -0.57
10 0.27
11 0.3
12 -0.03
13 0.45
14 -0.15
15 0.62
16 -0.01
17 -0.15
18 -0.04
19 0.03
2 -0.28
20 -0.15
21 -0.14
22 -0.04
23 -0.15
24 -0.15
25 -0.15
26 0.14
27 0.46
28 -0.15
29 -0.15
3 -0.68
4 -0.81
42 0.15
43 0.15
44 0.15
45 0.15
46 0.15
47 0.15
5 -0.47
53 0.15
54 0.15
55 0.4
7 0.14
9 0.27

> <PUBCHEM_EFFECTIVE_ROTOR_COUNT>
5

> <PUBCHEM_PHARMACOPHORE_FEATURES>
10
1 1 acceptor
1 2 acceptor
1 3 acceptor
1 3 donor
1 4 cation
5 2 18 20 22 23 rings
6 19 21 24 25 28 29 rings
6 4 6 7 8 9 10 rings
6 5 12 14 15 16 17 rings
6 5 6 7 8 11 12 rings

> <PUBCHEM_HEAVY_ATOM_COUNT>
29

> <PUBCHEM_ATOM_DEF_STEREO_COUNT>
2

> <PUBCHEM_ATOM_UDEF_STEREO_COUNT>
0

> <PUBCHEM_BOND_DEF_STEREO_COUNT>
0

> <PUBCHEM_BOND_UDEF_STEREO_COUNT>
0

> <PUBCHEM_ISOTOPIC_ATOM_COUNT>
0

> <PUBCHEM_COMPONENT_COUNT>
1

> <PUBCHEM_CACTVS_TAUTO_COUNT>
1

> <PUBCHEM_CONFORMER_ID>
00B635CF00000001

> <PUBCHEM_MMFF94_ENERGY>
67.6468

> <PUBCHEM_FEATURE_SELFOVERLAP>
52.301

> <PUBCHEM_SHAPE_FINGERPRINT>
114674 6 18409443717563717978
11796584 16 17560250231635970789
12107183 9 18127422155210796769
12166972 35 17968947362261116726
13533116 47 18200875188396556021
13583140 156 17345463963707840257
1361 2 18263646341048040637
13631057 29 18122632657053943022
13911987 19 17973192731707351700
14068700 675 18268153063760122486
14117953 113 17983580706469200791
14931854 50 18410866438529295070
15664445 248 17167864196357601333
17093844 170 18194958776040304176
17138139 8 17485644076359540830
17492 54 18262255390620587262
17818456 19 17987529113133934217
1813 80 18334568006335512097
19930381 70 18335139765192991231
20511986 3 17846490482966908853
20764821 26 18121217855286068718
20775438 99 18194666288689332143
20775530 9 18267579100983391110
21285901 2 17821727238661847917
23559900 14 18340759391182894849
23569914 152 17614525214028432199
238 59 18262246624270511402
25222932 49 16627981013792640605
3004659 81 18131077034312419751
338550 245 18341045340993476775
46194498 28 17894633685793892165
463206 1 18409736140275266834
5309563 4 18339079268242515134
6443956 14 18412545392410258112

> <PUBCHEM_SHAPE_MULTIPOLES>
569.24
10.27
4.74
1.4
12.65
1.78
0.28
5.28
-1.85
-5.67
-0.11
-0.16
-0.55
-0.66

> <PUBCHEM_SHAPE_SELFOVERLAP>
1253.706

> <PUBCHEM_SHAPE_VOLUME>
302

> <PUBCHEM_COORDINATE_TYPE>
2
5
10

$$$$
