38028098
  -OEChem-12032416143D

 65 67  0     1  0  0  0  0  0999 V2000
   -3.2230    0.1611    1.9833 S   0  0  0  0  0  0  0  0  0  0  0  0
    3.3535   -1.6787   -1.3656 O   0  0  0  0  0  0  0  0  0  0  0  0
    4.8137    2.2799    1.2145 O   0  0  0  0  0  0  0  0  0  0  0  0
   -2.8455    0.3725    3.3678 O   0  0  0  0  0  0  0  0  0  0  0  0
   -4.6232    0.1101    1.6087 O   0  0  0  0  0  0  0  0  0  0  0  0
   -2.4361   -1.2296    1.3923 N   0  0  0  0  0  0  0  0  0  0  0  0
    3.7685   -0.1984    0.3742 N   0  0  0  0  0  0  0  0  0  0  0  0
   -0.2006    5.3176   -1.9357 N   0  0  0  0  0  0  0  0  0  0  0  0
   -0.9460   -1.5632   -1.1861 C   0  0  1  0  0  0  0  0  0  0  0  0
   -1.8597   -2.6290   -0.5308 C   0  0  1  0  0  0  0  0  0  0  0  0
    0.3966   -2.1871   -1.5964 C   0  0  0  0  0  0  0  0  0  0  0  0
    1.1445   -2.8007   -0.3977 C   0  0  2  0  0  0  0  0  0  0  0  0
   -1.6111   -0.9157   -2.4048 C   0  0  0  0  0  0  0  0  0  0  0  0
    0.2325   -3.6585    0.4559 C   0  0  0  0  0  0  0  0  0  0  0  0
   -1.1074   -3.5775    0.3729 C   0  0  0  0  0  0  0  0  0  0  0  0
   -3.0005   -1.9722    0.2545 C   0  0  0  0  0  0  0  0  0  0  0  0
    1.8230   -1.7147    0.4446 C   0  0  0  0  0  0  0  0  0  0  0  0
   -0.7321    0.2004   -2.9603 C   0  0  0  0  0  0  0  0  0  0  0  0
   -1.8952   -1.9642   -3.4755 C   0  0  0  0  0  0  0  0  0  0  0  0
    0.8963   -4.6453    1.3754 C   0  0  0  0  0  0  0  0  0  0  0  0
    3.0487   -1.2029   -0.2692 C   0  0  0  0  0  0  0  0  0  0  0  0
    4.9681    0.3582   -0.2511 C   0  0  0  0  0  0  0  0  0  0  0  0
    3.5091    0.3001    1.7291 C   0  0  0  0  0  0  0  0  0  0  0  0
    4.9632    1.8768   -0.1494 C   0  0  0  0  0  0  0  0  0  0  0  0
    3.5698    1.8223    1.7516 C   0  0  0  0  0  0  0  0  0  0  0  0
   -2.4756    1.4366    1.0140 C   0  0  0  0  0  0  0  0  0  0  0  0
   -3.0418    1.8083   -0.2055 C   0  0  0  0  0  0  0  0  0  0  0  0
   -1.3198    2.0712    1.4689 C   0  0  0  0  0  0  0  0  0  0  0  0
   -2.4520    2.8148   -0.9699 C   0  0  0  0  0  0  0  0  0  0  0  0
   -0.7301    3.0778    0.7042 C   0  0  0  0  0  0  0  0  0  0  0  0
   -1.2962    3.4497   -0.5151 C   0  0  0  0  0  0  0  0  0  0  0  0
   -0.6915    4.4805   -1.2991 C   0  0  0  0  0  0  0  0  0  0  0  0
   -0.7387   -0.7665   -0.4621 H   0  0  0  0  0  0  0  0  0  0  0  0
   -2.3163   -3.2771   -1.2829 H   0  0  0  0  0  0  0  0  0  0  0  0
    1.0374   -1.4614   -2.1012 H   0  0  0  0  0  0  0  0  0  0  0  0
    0.2361   -3.0044   -2.3097 H   0  0  0  0  0  0  0  0  0  0  0  0
    1.9049   -3.4779   -0.8122 H   0  0  0  0  0  0  0  0  0  0  0  0
   -2.5627   -0.4627   -2.1093 H   0  0  0  0  0  0  0  0  0  0  0  0
   -1.7128   -4.2509    0.9768 H   0  0  0  0  0  0  0  0  0  0  0  0
   -3.6796   -2.7368    0.6506 H   0  0  0  0  0  0  0  0  0  0  0  0
   -3.5911   -1.3178   -0.3912 H   0  0  0  0  0  0  0  0  0  0  0  0
    2.1585   -2.1259    1.4029 H   0  0  0  0  0  0  0  0  0  0  0  0
    1.1438   -0.8816    0.6496 H   0  0  0  0  0  0  0  0  0  0  0  0
   -1.3169    0.8281   -3.6425 H   0  0  0  0  0  0  0  0  0  0  0  0
   -0.3492    0.8487   -2.1662 H   0  0  0  0  0  0  0  0  0  0  0  0
    0.1167   -0.1772   -3.5391 H   0  0  0  0  0  0  0  0  0  0  0  0
   -2.6064   -2.7313   -3.1643 H   0  0  0  0  0  0  0  0  0  0  0  0
   -2.3646   -1.4696   -4.3360 H   0  0  0  0  0  0  0  0  0  0  0  0
   -0.9977   -2.4470   -3.8700 H   0  0  0  0  0  0  0  0  0  0  0  0
    1.5766   -5.2922    0.8119 H   0  0  0  0  0  0  0  0  0  0  0  0
    0.1690   -5.2936    1.8760 H   0  0  0  0  0  0  0  0  0  0  0  0
    1.4678   -4.1335    2.1548 H   0  0  0  0  0  0  0  0  0  0  0  0
   -1.8491   -1.7605    2.0469 H   0  0  0  0  0  0  0  0  0  0  0  0
    5.0494    0.0456   -1.2964 H   0  0  0  0  0  0  0  0  0  0  0  0
    5.8239   -0.0553    0.2955 H   0  0  0  0  0  0  0  0  0  0  0  0
    4.2989   -0.1168    2.3652 H   0  0  0  0  0  0  0  0  0  0  0  0
    2.5496   -0.0380    2.1228 H   0  0  0  0  0  0  0  0  0  0  0  0
    5.9106    2.2819   -0.5182 H   0  0  0  0  0  0  0  0  0  0  0  0
    4.1548    2.3154   -0.7465 H   0  0  0  0  0  0  0  0  0  0  0  0
    3.4938    2.1863    2.7809 H   0  0  0  0  0  0  0  0  0  0  0  0
    2.7452    2.2625    1.1783 H   0  0  0  0  0  0  0  0  0  0  0  0
   -3.9381    1.3240   -0.5820 H   0  0  0  0  0  0  0  0  0  0  0  0
   -0.8584    1.7910    2.4116 H   0  0  0  0  0  0  0  0  0  0  0  0
   -2.9032    3.0915   -1.9198 H   0  0  0  0  0  0  0  0  0  0  0  0
    0.1724    3.5612    1.0707 H   0  0  0  0  0  0  0  0  0  0  0  0
  1  4  2  0  0  0  0
  1  5  2  0  0  0  0
  1  6  1  0  0  0  0
  1 26  1  0  0  0  0
  2 21  2  0  0  0  0
  3 24  1  0  0  0  0
  3 25  1  0  0  0  0
  6 16  1  0  0  0  0
  6 53  1  0  0  0  0
  7 21  1  0  0  0  0
  7 22  1  0  0  0  0
  7 23  1  0  0  0  0
  8 32  3  0  0  0  0
  9 10  1  0  0  0  0
  9 11  1  0  0  0  0
  9 13  1  0  0  0  0
  9 33  1  0  0  0  0
 10 15  1  0  0  0  0
 10 16  1  0  0  0  0
 10 34  1  0  0  0  0
 11 12  1  0  0  0  0
 11 35  1  0  0  0  0
 11 36  1  0  0  0  0
 12 14  1  0  0  0  0
 12 17  1  0  0  0  0
 12 37  1  0  0  0  0
 13 18  1  0  0  0  0
 13 19  1  0  0  0  0
 13 38  1  0  0  0  0
 14 15  2  0  0  0  0
 14 20  1  0  0  0  0
 15 39  1  0  0  0  0
 16 40  1  0  0  0  0
 16 41  1  0  0  0  0
 17 21  1  0  0  0  0
 17 42  1  0  0  0  0
 17 43  1  0  0  0  0
 18 44  1  0  0  0  0
 18 45  1  0  0  0  0
 18 46  1  0  0  0  0
 19 47  1  0  0  0  0
 19 48  1  0  0  0  0
 19 49  1  0  0  0  0
 20 50  1  0  0  0  0
 20 51  1  0  0  0  0
 20 52  1  0  0  0  0
 22 24  1  0  0  0  0
 22 54  1  0  0  0  0
 22 55  1  0  0  0  0
 23 25  1  0  0  0  0
 23 56  1  0  0  0  0
 23 57  1  0  0  0  0
 24 58  1  0  0  0  0
 24 59  1  0  0  0  0
 25 60  1  0  0  0  0
 25 61  1  0  0  0  0
 26 27  2  0  0  0  0
 26 28  1  0  0  0  0
 27 29  1  0  0  0  0
 27 62  1  0  0  0  0
 28 30  2  0  0  0  0
 28 63  1  0  0  0  0
 29 31  2  0  0  0  0
 29 64  1  0  0  0  0
 30 31  1  0  0  0  0
 30 65  1  0  0  0  0
 31 32  1  0  0  0  0
M  END
> <PUBCHEM_COMPOUND_CID>
38028098

> <PUBCHEM_CONFORMER_RMSD>
1.2

> <PUBCHEM_CONFORMER_DIVERSEORDER>
2
28
171
183
59
116
178
93
21
186
140
88
90
52
144
192
191
107
152
128
130
53
62
55
123
188
103
206
67
213
208
8
84
119
200
72
98
146
190
26
142
114
185
158
43
153
44
82
110
117
16
6
216
180
138
23
95
30
73
71
113
24
78
63
150
136
184
187
115
165
47
214
194
145
164
91
111
156
135
121
122
68
79
32
133
124
167
57
174
205
97
101
99
131
7
195
77
50
193
210
69
212
157
163
102
37
169
49
36
12
106
162
89
35
51
85
129
65
137
46
66
17
13
22
217
100
149
134
203
92
48
76
9
4
127
197
126
81
108
112
182
10
207
86
181
19
87
211
20
104
173
80
33
179
125
11
151
45
29
56
25
27
141
15
42
166
154
58
5
204
147
159
199
74
148
70
40
64
31
202
60
177
172
139
120
94
105
198
54
34
18
1
61
75
39
155
189
201
41
160
14
168
209
161
170
3
96
143
109
175
196
118
176
38
132
215
83

> <PUBCHEM_MMFF94_PARTIAL_CHARGES>
33
1 1.45
10 0.14
12 0.14
14 -0.28
15 -0.29
16 0.36
17 0.06
2 -0.57
20 0.14
21 0.57
22 0.3
23 0.3
24 0.28
25 0.28
26 -0.01
27 -0.15
28 -0.15
29 -0.15
3 -0.56
30 -0.15
31 0.07
32 0.48
39 0.15
4 -0.65
5 -0.65
53 0.42
6 -0.91
62 0.15
63 0.15
64 0.15
65 0.15
7 -0.66
8 -0.56

> <PUBCHEM_EFFECTIVE_ROTOR_COUNT>
10

> <PUBCHEM_PHARMACOPHORE_FEATURES>
10
1 2 acceptor
1 3 acceptor
1 4 acceptor
1 5 acceptor
1 6 donor
1 8 acceptor
3 13 18 19 hydrophobe
6 26 27 28 29 30 31 rings
6 3 7 22 23 24 25 rings
6 9 10 11 12 14 15 rings

> <PUBCHEM_HEAVY_ATOM_COUNT>
32

> <PUBCHEM_ATOM_DEF_STEREO_COUNT>
3

> <PUBCHEM_ATOM_UDEF_STEREO_COUNT>
0

> <PUBCHEM_BOND_DEF_STEREO_COUNT>
0

> <PUBCHEM_BOND_UDEF_STEREO_COUNT>
0

> <PUBCHEM_ISOTOPIC_ATOM_COUNT>
0

> <PUBCHEM_COMPONENT_COUNT>
1

> <PUBCHEM_CACTVS_TAUTO_COUNT>
1

> <PUBCHEM_CONFORMER_ID>
0244434200000002

> <PUBCHEM_MMFF94_ENERGY>
57.3276

> <PUBCHEM_FEATURE_SELFOVERLAP>
50.766

> <PUBCHEM_SHAPE_FINGERPRINT>
10305334 12 17473578078706649580
10670039 82 18197785608199501388
10816530 145 17753885327582816530
12156800 1 14147697392070722193
13583140 156 17976825280936457215
1361 2 18338785720461655157
14840074 17 18337686320075436409
17974551 9 17248661555164054363
20764821 26 18337938048314006256
21795232 40 15967044945914756537
238 59 17624678073390297873
25265897 201 16268867274397082284
3298306 158 18052524483376936336
35225 105 18130217169033179900
469060 322 18337099172386577577
4742675 86 17771318037086035288

> <PUBCHEM_SHAPE_MULTIPOLES>
623.97
7.52
6.44
2.83
9.34
2.43
-0.88
3.91
3.1
-0.79
-1.38
-2.3
-0.16
0.44

> <PUBCHEM_SHAPE_SELFOVERLAP>
1282.441

> <PUBCHEM_SHAPE_VOLUME>
359.4

> <PUBCHEM_COORDINATE_TYPE>
2
5
10

$$$$
