75537037
  -OEChem-12032416343D

 35 37  0     1  0  0  0  0  0999 V2000
   -4.7031   -0.1871   -0.1753 O   0  0  0  0  0  0  0  0  0  0  0  0
    4.4133    1.1974    0.3917 O   0  0  0  0  0  0  0  0  0  0  0  0
   -0.5232    0.1942   -0.2764 N   0  0  2  0  0  0  0  0  0  0  0  0
    2.2794    0.4142   -0.2170 N   0  0  0  0  0  0  0  0  0  0  0  0
    3.8927   -1.0850    0.2253 N   0  0  0  0  0  0  0  0  0  0  0  0
    1.6826   -0.8673   -0.5296 C   0  0  2  0  0  0  0  0  0  0  0  0
   -1.8711    0.0711    0.2737 C   0  0  0  0  0  0  0  0  0  0  0  0
    0.2955   -0.9754    0.1025 C   0  0  0  0  0  0  0  0  0  0  0  0
    0.1064    1.4493    0.1819 C   0  0  0  0  0  0  0  0  0  0  0  0
    1.5068    1.6232   -0.4115 C   0  0  0  0  0  0  0  0  0  0  0  0
    2.7055   -1.8751   -0.0121 C   0  0  0  0  0  0  0  0  0  0  0  0
   -2.7409    1.2469   -0.1799 C   0  0  0  0  0  0  0  0  0  0  0  0
   -2.5188   -1.2524   -0.1454 C   0  0  0  0  0  0  0  0  0  0  0  0
    3.6216    0.2947    0.1571 C   0  0  0  0  0  0  0  0  0  0  0  0
   -4.1783    1.0559    0.2912 C   0  0  0  0  0  0  0  0  0  0  0  0
   -3.9685   -1.3048    0.3239 C   0  0  0  0  0  0  0  0  0  0  0  0
    1.6130   -0.9299   -1.6237 H   0  0  0  0  0  0  0  0  0  0  0  0
   -1.8252    0.0865    1.3729 H   0  0  0  0  0  0  0  0  0  0  0  0
   -0.1168   -1.9148   -0.2756 H   0  0  0  0  0  0  0  0  0  0  0  0
    0.3723   -1.0508    1.1954 H   0  0  0  0  0  0  0  0  0  0  0  0
    0.1705    1.4666    1.2780 H   0  0  0  0  0  0  0  0  0  0  0  0
   -0.4497    2.3346   -0.1364 H   0  0  0  0  0  0  0  0  0  0  0  0
    1.4494    1.8018   -1.4916 H   0  0  0  0  0  0  0  0  0  0  0  0
    2.0301    2.4693    0.0451 H   0  0  0  0  0  0  0  0  0  0  0  0
    2.9286   -2.6596   -0.7403 H   0  0  0  0  0  0  0  0  0  0  0  0
    2.4143   -2.3344    0.9375 H   0  0  0  0  0  0  0  0  0  0  0  0
   -2.7302    1.3152   -1.2755 H   0  0  0  0  0  0  0  0  0  0  0  0
   -2.4053    2.2056    0.2251 H   0  0  0  0  0  0  0  0  0  0  0  0
   -2.0216   -2.1235    0.2912 H   0  0  0  0  0  0  0  0  0  0  0  0
   -2.4927   -1.3502   -1.2384 H   0  0  0  0  0  0  0  0  0  0  0  0
    4.7928   -1.4706    0.4926 H   0  0  0  0  0  0  0  0  0  0  0  0
   -4.2494    1.0941    1.3847 H   0  0  0  0  0  0  0  0  0  0  0  0
   -4.8108    1.8548   -0.1090 H   0  0  0  0  0  0  0  0  0  0  0  0
   -4.4492   -2.2135   -0.0524 H   0  0  0  0  0  0  0  0  0  0  0  0
   -4.0344   -1.3246    1.4182 H   0  0  0  0  0  0  0  0  0  0  0  0
  1 15  1  0  0  0  0
  1 16  1  0  0  0  0
  2 14  2  0  0  0  0
  3  7  1  0  0  0  0
  3  8  1  0  0  0  0
  3  9  1  0  0  0  0
  4  6  1  0  0  0  0
  4 10  1  0  0  0  0
  4 14  1  0  0  0  0
  5 11  1  0  0  0  0
  5 14  1  0  0  0  0
  5 31  1  0  0  0  0
  6  8  1  0  0  0  0
  6 11  1  0  0  0  0
  6 17  1  0  0  0  0
  7 12  1  0  0  0  0
  7 13  1  0  0  0  0
  7 18  1  0  0  0  0
  8 19  1  0  0  0  0
  8 20  1  0  0  0  0
  9 10  1  0  0  0  0
  9 21  1  0  0  0  0
  9 22  1  0  0  0  0
 10 23  1  0  0  0  0
 10 24  1  0  0  0  0
 11 25  1  0  0  0  0
 11 26  1  0  0  0  0
 12 15  1  0  0  0  0
 12 27  1  0  0  0  0
 12 28  1  0  0  0  0
 13 16  1  0  0  0  0
 13 29  1  0  0  0  0
 13 30  1  0  0  0  0
 15 32  1  0  0  0  0
 15 33  1  0  0  0  0
 16 34  1  0  0  0  0
 16 35  1  0  0  0  0
M  END
> <PUBCHEM_COMPOUND_CID>
75537037

> <PUBCHEM_CONFORMER_RMSD>
0.6

> <PUBCHEM_CONFORMER_DIVERSEORDER>
1
6
12
8
3
4
2
5
10
7
9
11

> <PUBCHEM_MMFF94_PARTIAL_CHARGES>
15
1 -0.56
10 0.3
11 0.3
14 0.69
15 0.28
16 0.28
2 -0.57
3 -0.81
31 0.37
4 -0.66
5 -0.73
6 0.3
7 0.27
8 0.27
9 0.27

> <PUBCHEM_EFFECTIVE_ROTOR_COUNT>
3.4

> <PUBCHEM_PHARMACOPHORE_FEATURES>
7
1 1 acceptor
1 2 acceptor
1 3 cation
1 5 donor
5 4 5 6 11 14 rings
6 1 7 12 13 15 16 rings
6 3 4 6 8 9 10 rings

> <PUBCHEM_HEAVY_ATOM_COUNT>
16

> <PUBCHEM_ATOM_DEF_STEREO_COUNT>
1

> <PUBCHEM_ATOM_UDEF_STEREO_COUNT>
0

> <PUBCHEM_BOND_DEF_STEREO_COUNT>
0

> <PUBCHEM_BOND_UDEF_STEREO_COUNT>
0

> <PUBCHEM_ISOTOPIC_ATOM_COUNT>
0

> <PUBCHEM_COMPONENT_COUNT>
1

> <PUBCHEM_CACTVS_TAUTO_COUNT>
2

> <PUBCHEM_CONFORMER_ID>
04809A8D00000001

> <PUBCHEM_MMFF94_ENERGY>
33.9195

> <PUBCHEM_FEATURE_SELFOVERLAP>
35.617

> <PUBCHEM_SHAPE_FINGERPRINT>
10608611 8 18410571764785598253
10616163 171 18340491191597272391
11132069 177 18408040706203276985
11471102 20 18410008836264464708
11806522 49 18337389439208926335
12032990 46 18410860923453357822
12251169 10 18411138060555161215
13296908 3 18411703153533901726
13675066 3 18187089438107720961
14144814 61 18411703166692947779
14251717 144 18409166623205781190
14252887 29 18060149729733018862
15196674 1 18410856551134387435
15375358 24 18409449193388648355
15442244 35 18267024955427680505
15536298 74 18341896272946592750
17802600 8 18409444804396230525
17834074 16 18408605876892303595
18186145 218 17968095287439783727
18522853 276 18413108368412863017
200 152 18130499804236213511
20279233 1 18333456447298109755
20645477 70 18343019947839200614
21267235 1 18411428284238212142
21501502 16 18337116764783664149
21501925 9 18408884053043857132
221490 88 18262528111905400395
22485316 2 18410009931591946819
23402539 116 17676198087480685909
23402655 69 18341326713323502181
23463225 33 18410014329459090501
23559900 14 18269552737324436206
26918003 58 18409164398359857570
296302 2 18060701688791166065
33824 294 18408602552624858186
34934 24 18412538816762216455
3545911 37 18411140233834993093
42 15 18335422348271153627
4214541 1 18410293580049072969
449060 62 18342458145232403440
5104073 3 18411139112896015523
69090 78 18412260632147432807
7364860 26 18340487892961999704
77779 3 18411420596420481307
8809292 202 18259991491594015315
9709674 26 18410018753487044911

> <PUBCHEM_SHAPE_MULTIPOLES>
302.59
8.85
1.82
0.66
2.18
0.07
-0.01
0.37
0.84
-0.35
0
-0.01
-0.01
0.07

> <PUBCHEM_SHAPE_SELFOVERLAP>
630.051

> <PUBCHEM_SHAPE_VOLUME>
172.4

> <PUBCHEM_COORDINATE_TYPE>
2
5
10

$$$$
