56775618
  -OEChem-12032416323D

 55 58  0     1  0  0  0  0  0999 V2000
    1.2913    1.6617   -1.9213 Cl  0  0  0  0  0  0  0  0  0  0  0  0
    2.6545   -2.3138    2.9000 O   0  0  0  0  0  0  0  0  0  0  0  0
   -1.9932   -3.1063   -0.3719 O   0  0  0  0  0  0  0  0  0  0  0  0
    2.0561   -0.6365    0.4540 N   0  0  0  0  0  0  0  0  0  0  0  0
   -0.7689   -3.5189    0.1397 N   0  0  0  0  0  0  0  0  0  0  0  0
   -3.3385   -0.2617   -1.4898 N   0  0  2  0  0  0  0  0  0  0  0  0
    2.0367   -2.0301    0.8766 C   0  0  0  0  0  0  0  0  0  0  0  0
    3.3308   -2.3354    1.6223 C   0  0  0  0  0  0  0  0  0  0  0  0
    1.3785   -2.1178    2.2490 C   0  0  0  0  0  0  0  0  0  0  0  0
    1.5732   -2.9845   -0.2320 C   0  0  0  0  0  0  0  0  0  0  0  0
    0.1424   -2.8032   -0.5252 C   0  0  0  0  0  0  0  0  0  0  0  0
    3.0945   -0.4404   -0.5547 C   0  0  0  0  0  0  0  0  0  0  0  0
   -0.4421   -1.9310   -1.4598 C   0  0  0  0  0  0  0  0  0  0  0  0
    3.5745    0.9860   -0.5953 C   0  0  0  0  0  0  0  0  0  0  0  0
   -1.7856   -2.1606   -1.3235 C   0  0  0  0  0  0  0  0  0  0  0  0
   -3.0124   -1.5968   -1.9898 C   0  0  0  0  0  0  0  0  0  0  0  0
    2.8203    1.9954   -1.1935 C   0  0  0  0  0  0  0  0  0  0  0  0
    4.8067    1.2867   -0.0151 C   0  0  0  0  0  0  0  0  0  0  0  0
   -3.9856   -0.3498   -0.1813 C   0  0  0  0  0  0  0  0  0  0  0  0
    3.2985    3.3057   -1.2115 C   0  0  0  0  0  0  0  0  0  0  0  0
    5.2850    2.5970   -0.0331 C   0  0  0  0  0  0  0  0  0  0  0  0
   -4.1992    0.4433   -2.4391 C   0  0  0  0  0  0  0  0  0  0  0  0
   -3.8500    0.9309    0.5986 C   0  0  0  0  0  0  0  0  0  0  0  0
    4.5309    3.6065   -0.6312 C   0  0  0  0  0  0  0  0  0  0  0  0
   -2.7560    1.1213    1.4428 C   0  0  0  0  0  0  0  0  0  0  0  0
   -4.8186    1.9270    0.4769 C   0  0  0  0  0  0  0  0  0  0  0  0
   -2.6307    2.3078    2.1654 C   0  0  0  0  0  0  0  0  0  0  0  0
   -4.6935    3.1137    1.1993 C   0  0  0  0  0  0  0  0  0  0  0  0
   -3.5995    3.3040    2.0437 C   0  0  0  0  0  0  0  0  0  0  0  0
    4.1456   -1.6054    1.6252 H   0  0  0  0  0  0  0  0  0  0  0  0
    3.7577   -3.3263    1.4318 H   0  0  0  0  0  0  0  0  0  0  0  0
    0.7345   -2.9853    2.4241 H   0  0  0  0  0  0  0  0  0  0  0  0
    0.8696   -1.2231    2.6236 H   0  0  0  0  0  0  0  0  0  0  0  0
    1.7407   -4.0204    0.0946 H   0  0  0  0  0  0  0  0  0  0  0  0
    2.1722   -2.8760   -1.1432 H   0  0  0  0  0  0  0  0  0  0  0  0
    1.1676   -0.2615    0.1265 H   0  0  0  0  0  0  0  0  0  0  0  0
    2.7139   -0.7144   -1.5472 H   0  0  0  0  0  0  0  0  0  0  0  0
    3.9692   -1.0893   -0.4274 H   0  0  0  0  0  0  0  0  0  0  0  0
    0.0379   -1.2422   -2.1381 H   0  0  0  0  0  0  0  0  0  0  0  0
   -2.7776   -1.5524   -3.0621 H   0  0  0  0  0  0  0  0  0  0  0  0
   -3.8592   -2.2882   -1.8887 H   0  0  0  0  0  0  0  0  0  0  0  0
    5.4065    0.5135    0.4577 H   0  0  0  0  0  0  0  0  0  0  0  0
   -3.5385   -1.1384    0.4378 H   0  0  0  0  0  0  0  0  0  0  0  0
   -5.0437   -0.6353   -0.2658 H   0  0  0  0  0  0  0  0  0  0  0  0
    2.7230    4.1039   -1.6735 H   0  0  0  0  0  0  0  0  0  0  0  0
    6.2442    2.8314    0.4192 H   0  0  0  0  0  0  0  0  0  0  0  0
   -3.7297    0.4753   -3.4297 H   0  0  0  0  0  0  0  0  0  0  0  0
   -4.3439    1.4901   -2.1581 H   0  0  0  0  0  0  0  0  0  0  0  0
   -5.1800   -0.0336   -2.5485 H   0  0  0  0  0  0  0  0  0  0  0  0
    4.9032    4.6266   -0.6450 H   0  0  0  0  0  0  0  0  0  0  0  0
   -1.9922    0.3545    1.5441 H   0  0  0  0  0  0  0  0  0  0  0  0
   -5.6837    1.7891   -0.1661 H   0  0  0  0  0  0  0  0  0  0  0  0
   -1.7784    2.4564    2.8220 H   0  0  0  0  0  0  0  0  0  0  0  0
   -5.4492    3.8882    1.1068 H   0  0  0  0  0  0  0  0  0  0  0  0
   -3.5022    4.2277    2.6065 H   0  0  0  0  0  0  0  0  0  0  0  0
  1 17  1  0  0  0  0
  2  8  1  0  0  0  0
  2  9  1  0  0  0  0
  3  5  1  0  0  0  0
  3 15  1  0  0  0  0
  4  7  1  0  0  0  0
  4 12  1  0  0  0  0
  4 36  1  0  0  0  0
  5 11  2  0  0  0  0
  6 16  1  0  0  0  0
  6 19  1  0  0  0  0
  6 22  1  0  0  0  0
  7  8  1  0  0  0  0
  7  9  1  0  0  0  0
  7 10  1  0  0  0  0
  8 30  1  0  0  0  0
  8 31  1  0  0  0  0
  9 32  1  0  0  0  0
  9 33  1  0  0  0  0
 10 11  1  0  0  0  0
 10 34  1  0  0  0  0
 10 35  1  0  0  0  0
 11 13  1  0  0  0  0
 12 14  1  0  0  0  0
 12 37  1  0  0  0  0
 12 38  1  0  0  0  0
 13 15  2  0  0  0  0
 13 39  1  0  0  0  0
 14 17  1  0  0  0  0
 14 18  2  0  0  0  0
 15 16  1  0  0  0  0
 16 40  1  0  0  0  0
 16 41  1  0  0  0  0
 17 20  2  0  0  0  0
 18 21  1  0  0  0  0
 18 42  1  0  0  0  0
 19 23  1  0  0  0  0
 19 43  1  0  0  0  0
 19 44  1  0  0  0  0
 20 24  1  0  0  0  0
 20 45  1  0  0  0  0
 21 24  2  0  0  0  0
 21 46  1  0  0  0  0
 22 47  1  0  0  0  0
 22 48  1  0  0  0  0
 22 49  1  0  0  0  0
 23 25  2  0  0  0  0
 23 26  1  0  0  0  0
 24 50  1  0  0  0  0
 25 27  1  0  0  0  0
 25 51  1  0  0  0  0
 26 28  2  0  0  0  0
 26 52  1  0  0  0  0
 27 29  2  0  0  0  0
 27 53  1  0  0  0  0
 28 29  1  0  0  0  0
 28 54  1  0  0  0  0
 29 55  1  0  0  0  0
M  END
> <PUBCHEM_COMPOUND_CID>
56775618

> <PUBCHEM_CONFORMER_RMSD>
1.4

> <PUBCHEM_CONFORMER_DIVERSEORDER>
1
49
51
18
58
68
41
28
25
98
57
27
52
66
72
70
15
80
113
50
91
106
24
61
63
8
54
55
64
65
93
44
78
67
47
108
84
13
92
2
35
79
26
110
45
96
19
73
81
46
62
11
39
69
3
36
88
21
87
59
75
82
112
100
104
111
90
83
32
33
60
115
48
34
102
53
95
31
29
7
76
4
38
103
56
12
43
37
85
6
105
5
77
74
89
9
22
99
14
42
101
109
107
10
71
94
114
17
86
30
40
23
97
16
20

> <PUBCHEM_MMFF94_PARTIAL_CHARGES>
40
1 -0.18
10 0.18
11 0.11
12 0.41
13 -0.15
14 -0.14
15 -0.04
16 0.45
17 0.18
18 -0.15
19 0.41
2 -0.52
20 -0.15
21 -0.15
22 0.27
23 -0.14
24 -0.15
25 -0.15
26 -0.15
27 -0.15
28 -0.15
29 -0.15
3 -0.02
36 0.36
39 0.15
4 -0.84
42 0.15
45 0.15
46 0.15
5 -0.41
50 0.15
51 0.15
52 0.15
53 0.15
54 0.15
55 0.15
6 -0.81
7 0.21
8 0.26
9 0.26

> <PUBCHEM_EFFECTIVE_ROTOR_COUNT>
9.8

> <PUBCHEM_PHARMACOPHORE_FEATURES>
9
1 2 acceptor
1 4 cation
1 4 donor
1 5 acceptor
1 6 cation
4 2 7 8 9 rings
5 3 5 11 13 15 rings
6 14 17 18 20 21 24 rings
6 23 25 26 27 28 29 rings

> <PUBCHEM_HEAVY_ATOM_COUNT>
29

> <PUBCHEM_ATOM_DEF_STEREO_COUNT>
0

> <PUBCHEM_ATOM_UDEF_STEREO_COUNT>
0

> <PUBCHEM_BOND_DEF_STEREO_COUNT>
0

> <PUBCHEM_BOND_UDEF_STEREO_COUNT>
0

> <PUBCHEM_ISOTOPIC_ATOM_COUNT>
0

> <PUBCHEM_COMPONENT_COUNT>
1

> <PUBCHEM_CACTVS_TAUTO_COUNT>
1

> <PUBCHEM_CONFORMER_ID>
036253C200000001

> <PUBCHEM_MMFF94_ENERGY>
72.4394

> <PUBCHEM_FEATURE_SELFOVERLAP>
45.672

> <PUBCHEM_SHAPE_FINGERPRINT>
10615611 76 18410572864201929971
10937287 8 18341061769243189056
11049842 53 17631453371510314870
11763715 3 17411576519253517479
12633257 1 17751930116519966251
12655364 131 17897415446718603634
12788726 201 18200869707818086271
13590594 115 17972867078543598298
13965767 371 18261681363271114373
14289585 56 17974306330347505044
15001296 14 18411706456538150409
15297060 5 17632024065151951410
15420108 30 18051973615931429440
16067690 210 17703789262143762641
16112460 7 18262237854449037412
16120349 306 18410011052573772933
16991981 162 18056765553033185607
17974551 9 15867426512668145863
20511986 3 18341609287480245713
21796203 349 17900839149564787010
21860390 5 17901126134451879338
21864079 5 18342464703352279775
22122407 14 17825374203363052421
22849341 161 18045490920848700626
245318 6 18268722627578551557
3534868 343 17985233414417864711
38570 142 18262250979625896934
4616759 239 16964061170114446536
469060 322 17169834620389954767
474 4 18196374706805010499
474144 1 18340484461319904553
50150288 127 16755845467229077713
5048184 11 18272097067244724425
5895379 119 18131061615665059734
7288768 16 18187375379681796555

> <PUBCHEM_SHAPE_MULTIPOLES>
571.99
10.96
5.44
2.45
0.7
0.18
-0.6
11.5
-0.29
-1.7
-1.01
1.19
-0.27
-5.29

> <PUBCHEM_SHAPE_SELFOVERLAP>
1212.592

> <PUBCHEM_SHAPE_VOLUME>
321.3

> <PUBCHEM_COORDINATE_TYPE>
2
5
10

$$$$
