7051282
  -OEChem-12032416223D

 59 63  0     1  0  0  0  0  0999 V2000
    2.2608    2.0980    1.0909 S   0  0  0  0  0  0  0  0  0  0  0  0
   -0.6954    2.9879    1.5546 O   0  0  0  0  0  0  0  0  0  0  0  0
   -2.8510   -1.9000    1.9736 O   0  0  0  0  0  0  0  0  0  0  0  0
   -1.2665   -3.4264    0.7289 O   0  0  0  0  0  0  0  0  0  0  0  0
    2.7102    3.0907    2.0487 O   0  0  0  0  0  0  0  0  0  0  0  0
    1.4664    0.9663    1.5298 O   0  0  0  0  0  0  0  0  0  0  0  0
   -3.6824   -0.7921    0.1080 N   0  0  0  0  0  0  0  0  0  0  0  0
   -2.1466    2.0090   -0.0029 N   0  0  0  0  0  0  0  0  0  0  0  0
    1.4908    2.8653   -0.2067 N   0  0  0  0  0  0  0  0  0  0  0  0
   -4.6015    1.4965    0.5055 C   0  0  1  0  0  0  0  0  0  0  0  0
   -3.6659    0.9224   -1.6955 C   0  0  2  0  0  0  0  0  0  0  0  0
   -4.8027    1.6643   -0.9957 C   0  0  0  0  0  0  0  0  0  0  0  0
   -4.6277    0.0070    0.8901 C   0  0  0  0  0  0  0  0  0  0  0  0
   -3.2859    2.1727    0.9087 C   0  0  0  0  0  0  0  0  0  0  0  0
   -3.7349   -0.5771   -1.3458 C   0  0  0  0  0  0  0  0  0  0  0  0
   -2.3152    1.4836   -1.2912 C   0  0  0  0  0  0  0  0  0  0  0  0
   -1.2828    1.4490   -2.1536 C   0  0  0  0  0  0  0  0  0  0  0  0
   -0.9022    2.5011    0.4437 C   0  0  0  0  0  0  0  0  0  0  0  0
   -2.8806   -1.7351    0.7513 C   0  0  0  0  0  0  0  0  0  0  0  0
    0.2027    2.4145   -0.5440 C   0  0  0  0  0  0  0  0  0  0  0  0
    0.0183    1.9271   -1.7713 C   0  0  0  0  0  0  0  0  0  0  0  0
   -1.9999   -2.5860   -0.1285 C   0  0  0  0  0  0  0  0  0  0  0  0
    3.6980    1.4539    0.2862 C   0  0  0  0  0  0  0  0  0  0  0  0
    0.0064   -3.7754    0.3357 C   0  0  0  0  0  0  0  0  0  0  0  0
    4.8430    2.2285    0.2285 C   0  0  0  0  0  0  0  0  0  0  0  0
    3.6491    0.1885   -0.2712 C   0  0  0  0  0  0  0  0  0  0  0  0
    0.3011   -3.8660   -1.0165 C   0  0  0  0  0  0  0  0  0  0  0  0
    0.9709   -4.0313    1.2988 C   0  0  0  0  0  0  0  0  0  0  0  0
    5.9761    1.7212   -0.4075 C   0  0  0  0  0  0  0  0  0  0  0  0
    4.7822   -0.3190   -0.9071 C   0  0  0  0  0  0  0  0  0  0  0  0
    5.9457    0.4475   -0.9752 C   0  0  0  0  0  0  0  0  0  0  0  0
    1.5901   -4.2207   -1.4149 C   0  0  0  0  0  0  0  0  0  0  0  0
    2.2599   -4.3858    0.9006 C   0  0  0  0  0  0  0  0  0  0  0  0
    2.5694   -4.4804   -0.4562 C   0  0  0  0  0  0  0  0  0  0  0  0
   -5.4199    1.9909    1.0433 H   0  0  0  0  0  0  0  0  0  0  0  0
   -3.8027    1.0317   -2.7792 H   0  0  0  0  0  0  0  0  0  0  0  0
   -5.7733    1.2546   -1.3003 H   0  0  0  0  0  0  0  0  0  0  0  0
   -4.8017    2.7268   -1.2698 H   0  0  0  0  0  0  0  0  0  0  0  0
   -4.4391   -0.1096    1.9627 H   0  0  0  0  0  0  0  0  0  0  0  0
   -5.6243   -0.4082    0.6949 H   0  0  0  0  0  0  0  0  0  0  0  0
   -3.4550    3.2561    0.9775 H   0  0  0  0  0  0  0  0  0  0  0  0
   -2.9794    1.8522    1.9124 H   0  0  0  0  0  0  0  0  0  0  0  0
   -2.9462   -1.1224   -1.8686 H   0  0  0  0  0  0  0  0  0  0  0  0
   -4.6878   -0.9980   -1.6905 H   0  0  0  0  0  0  0  0  0  0  0  0
   -1.3896    1.0367   -3.1514 H   0  0  0  0  0  0  0  0  0  0  0  0
    0.8154    1.8593   -2.5041 H   0  0  0  0  0  0  0  0  0  0  0  0
   -1.3456   -1.9014   -0.6815 H   0  0  0  0  0  0  0  0  0  0  0  0
   -2.6194   -3.1866   -0.8017 H   0  0  0  0  0  0  0  0  0  0  0  0
    2.0894    3.0175   -1.0308 H   0  0  0  0  0  0  0  0  0  0  0  0
    4.8838    3.2249    0.6573 H   0  0  0  0  0  0  0  0  0  0  0  0
    2.7507   -0.4201   -0.2354 H   0  0  0  0  0  0  0  0  0  0  0  0
   -0.4412   -3.6989   -1.7909 H   0  0  0  0  0  0  0  0  0  0  0  0
    0.7328   -3.9579    2.3559 H   0  0  0  0  0  0  0  0  0  0  0  0
    6.8815    2.3185   -0.4624 H   0  0  0  0  0  0  0  0  0  0  0  0
    4.7577   -1.3101   -1.3505 H   0  0  0  0  0  0  0  0  0  0  0  0
    6.8276    0.0528   -1.4712 H   0  0  0  0  0  0  0  0  0  0  0  0
    1.8301   -4.3003   -2.4711 H   0  0  0  0  0  0  0  0  0  0  0  0
    3.0226   -4.5877    1.6469 H   0  0  0  0  0  0  0  0  0  0  0  0
    3.5729   -4.7570   -0.7663 H   0  0  0  0  0  0  0  0  0  0  0  0
  1  5  2  0  0  0  0
  1  6  2  0  0  0  0
  1  9  1  0  0  0  0
  1 23  1  0  0  0  0
  2 18  2  0  0  0  0
  3 19  2  0  0  0  0
  4 22  1  0  0  0  0
  4 24  1  0  0  0  0
  7 13  1  0  0  0  0
  7 15  1  0  0  0  0
  7 19  1  0  0  0  0
  8 14  1  0  0  0  0
  8 16  1  0  0  0  0
  8 18  1  0  0  0  0
  9 20  1  0  0  0  0
  9 49  1  0  0  0  0
 10 12  1  0  0  0  0
 10 13  1  0  0  0  0
 10 14  1  0  0  0  0
 10 35  1  0  0  0  0
 11 12  1  0  0  0  0
 11 15  1  0  0  0  0
 11 16  1  0  0  0  0
 11 36  1  0  0  0  0
 12 37  1  0  0  0  0
 12 38  1  0  0  0  0
 13 39  1  0  0  0  0
 13 40  1  0  0  0  0
 14 41  1  0  0  0  0
 14 42  1  0  0  0  0
 15 43  1  0  0  0  0
 15 44  1  0  0  0  0
 16 17  2  0  0  0  0
 17 21  1  0  0  0  0
 17 45  1  0  0  0  0
 18 20  1  0  0  0  0
 19 22  1  0  0  0  0
 20 21  2  0  0  0  0
 21 46  1  0  0  0  0
 22 47  1  0  0  0  0
 22 48  1  0  0  0  0
 23 25  2  0  0  0  0
 23 26  1  0  0  0  0
 24 27  2  0  0  0  0
 24 28  1  0  0  0  0
 25 29  1  0  0  0  0
 25 50  1  0  0  0  0
 26 30  2  0  0  0  0
 26 51  1  0  0  0  0
 27 32  1  0  0  0  0
 27 52  1  0  0  0  0
 28 33  2  0  0  0  0
 28 53  1  0  0  0  0
 29 31  2  0  0  0  0
 29 54  1  0  0  0  0
 30 31  1  0  0  0  0
 30 55  1  0  0  0  0
 31 56  1  0  0  0  0
 32 34  2  0  0  0  0
 32 57  1  0  0  0  0
 33 34  1  0  0  0  0
 33 58  1  0  0  0  0
 34 59  1  0  0  0  0
M  END
> <PUBCHEM_COMPOUND_CID>
7051282

> <PUBCHEM_CONFORMER_RMSD>
1

> <PUBCHEM_CONFORMER_DIVERSEORDER>
1
20
51
49
69
39
111
95
89
100
66
54
38
115
24
22
32
7
57
41
113
108
2
35
81
86
70
30
107
94
79
99
28
53
101
55
44
3
77
15
6
5
116
112
29
16
62
93
78
105
109
84
31
67
11
61
25
12
82
48
17
14
76
97
58
110
104
52
42
85
4
36
102
46
27
65
10
106
56
8
50
59
40
87
34
43
83
92
75
26
96
13
88
33
71
64
68
114
37
18
47
117
23
118
9
91
63
90
74
45
19
98
73
72
21
80
60
103

> <PUBCHEM_MMFF94_PARTIAL_CHARGES>
45
1 1.45
11 0.14
13 0.3
14 0.3
15 0.3
16 -0.03
17 -0.15
18 0.62
19 0.57
2 -0.57
20 0.21
21 -0.15
22 0.34
23 -0.01
24 0.08
25 -0.15
26 -0.15
27 -0.15
28 -0.15
29 -0.15
3 -0.57
30 -0.15
31 -0.15
32 -0.15
33 -0.15
34 -0.15
4 -0.36
45 0.15
46 0.15
49 0.42
5 -0.65
50 0.15
51 0.15
52 0.15
53 0.15
54 0.15
55 0.15
56 0.15
57 0.15
58 0.15
59 0.15
6 -0.65
7 -0.66
8 -0.47
9 -0.75

> <PUBCHEM_EFFECTIVE_ROTOR_COUNT>
8

> <PUBCHEM_PHARMACOPHORE_FEATURES>
11
1 2 acceptor
1 3 acceptor
1 4 acceptor
1 5 acceptor
1 6 acceptor
1 9 donor
6 23 25 26 29 30 31 rings
6 24 27 28 32 33 34 rings
6 7 10 11 12 13 15 rings
6 8 10 11 12 14 16 rings
6 8 16 17 18 20 21 rings

> <PUBCHEM_HEAVY_ATOM_COUNT>
34

> <PUBCHEM_ATOM_DEF_STEREO_COUNT>
2

> <PUBCHEM_ATOM_UDEF_STEREO_COUNT>
0

> <PUBCHEM_BOND_DEF_STEREO_COUNT>
0

> <PUBCHEM_BOND_UDEF_STEREO_COUNT>
0

> <PUBCHEM_ISOTOPIC_ATOM_COUNT>
0

> <PUBCHEM_COMPONENT_COUNT>
1

> <PUBCHEM_CACTVS_TAUTO_COUNT>
1

> <PUBCHEM_CONFORMER_ID>
006B981200000001

> <PUBCHEM_MMFF94_ENERGY>
88.9756

> <PUBCHEM_FEATURE_SELFOVERLAP>
57.426

> <PUBCHEM_SHAPE_FINGERPRINT>
10462674 296 16325695770041000030
11285246 1 17694749189593720423
11513181 2 18272651208130869903
12156800 1 17827959322403153982
13122387 1 17041190247853380522
13402501 40 18411142475845039942
14251757 5 17975427016311171558
14415361 192 16667110046674899001
14725015 67 18050006893928671539
14747281 78 16665693914960334341
15927050 60 18412821387826285775
16067689 134 16539332411683029340
16067689 391 17556332504482595414
16719943 64 18337391647170445130
17627616 140 18336257968598106202
20764821 26 18339347613799977726
20775530 9 16390418521218684611
21344244 246 18337094702222506239
3027735 51 18267289019277367167
3298306 158 18410851045213524630
3737641 26 18266183829196150636
373842 8 18120365468314998810
463206 1 17690571780174775302
50150288 127 16986617259576548608
5080951 261 17755265158936702320
508706 21 18192990637115213294
5265222 85 18262809603888368557
6433294 58 18265615390554125730
86090 222 18338250318127348106

> <PUBCHEM_SHAPE_MULTIPOLES>
659.26
10.57
6.63
1.75
5.84
9.16
0.08
-6.02
1.36
4.46
-1.05
-0.59
-0.32
1.13

> <PUBCHEM_SHAPE_SELFOVERLAP>
1428.379

> <PUBCHEM_SHAPE_VOLUME>
358.1

> <PUBCHEM_COORDINATE_TYPE>
2
5
10

$$$$
