51137052
  -OEChem-12032416243D

 45 48  0     1  0  0  0  0  0999 V2000
   -7.3124   -0.0286    1.6595 F   0  0  0  0  0  0  0  0  0  0  0  0
   -7.6119   -1.2591   -0.1081 F   0  0  0  0  0  0  0  0  0  0  0  0
   -7.9134    0.8919   -0.2101 F   0  0  0  0  0  0  0  0  0  0  0  0
    3.8534   -1.5397    0.1808 O   0  0  0  0  0  0  0  0  0  0  0  0
   -0.6537   -0.2084   -0.2930 N   0  0  1  0  0  0  0  0  0  0  0  0
    3.4871    0.6967    0.1401 N   0  0  0  0  0  0  0  0  0  0  0  0
    1.5066   -0.8949    0.3080 C   0  0  1  0  0  0  0  0  0  0  0  0
    0.7771   -0.3475    1.5472 C   0  0  0  0  0  0  0  0  0  0  0  0
    0.6726   -0.4031   -0.8826 C   0  0  0  0  0  0  0  0  0  0  0  0
   -0.4027    0.4410    0.9936 C   0  0  0  0  0  0  0  0  0  0  0  0
   -1.5317    0.5767   -1.1481 C   0  0  0  0  0  0  0  0  0  0  0  0
    2.9639   -0.5079    0.2065 C   0  0  0  0  0  0  0  0  0  0  0  0
   -2.9793    0.4098   -0.7692 C   0  0  0  0  0  0  0  0  0  0  0  0
    4.8369    0.4514    0.0635 C   0  0  0  0  0  0  0  0  0  0  0  0
    5.0649   -0.9165    0.0882 C   0  0  0  0  0  0  0  0  0  0  0  0
   -3.6634   -0.7525   -1.1250 C   0  0  0  0  0  0  0  0  0  0  0  0
   -3.6360    1.4169   -0.0619 C   0  0  0  0  0  0  0  0  0  0  0  0
    5.9340    1.3198   -0.0291 C   0  0  0  0  0  0  0  0  0  0  0  0
    6.3190   -1.5113    0.0274 C   0  0  0  0  0  0  0  0  0  0  0  0
   -5.0043   -0.9078   -0.7737 C   0  0  0  0  0  0  0  0  0  0  0  0
   -4.9769    1.2617    0.2894 C   0  0  0  0  0  0  0  0  0  0  0  0
    7.2166    0.7564   -0.0926 C   0  0  0  0  0  0  0  0  0  0  0  0
   -5.6610    0.0994   -0.0664 C   0  0  0  0  0  0  0  0  0  0  0  0
    7.4027   -0.6312   -0.0647 C   0  0  0  0  0  0  0  0  0  0  0  0
    8.4056    1.6550   -0.1916 C   0  0  0  0  0  0  0  0  0  0  0  0
   -7.0938   -0.0681    0.3118 C   0  0  0  0  0  0  0  0  0  0  0  0
    1.4470   -1.9920    0.3467 H   0  0  0  0  0  0  0  0  0  0  0  0
    0.4171   -1.1856    2.1571 H   0  0  0  0  0  0  0  0  0  0  0  0
    1.4114    0.2784    2.1837 H   0  0  0  0  0  0  0  0  0  0  0  0
    0.6540   -1.1454   -1.6880 H   0  0  0  0  0  0  0  0  0  0  0  0
    1.0719    0.5356   -1.2894 H   0  0  0  0  0  0  0  0  0  0  0  0
   -1.2623    0.3859    1.6688 H   0  0  0  0  0  0  0  0  0  0  0  0
   -0.1173    1.4940    0.8732 H   0  0  0  0  0  0  0  0  0  0  0  0
   -1.2501    1.6383   -1.1667 H   0  0  0  0  0  0  0  0  0  0  0  0
   -1.4369    0.2377   -2.1896 H   0  0  0  0  0  0  0  0  0  0  0  0
   -3.1625   -1.5443   -1.6758 H   0  0  0  0  0  0  0  0  0  0  0  0
   -3.1140    2.3265    0.2230 H   0  0  0  0  0  0  0  0  0  0  0  0
    5.7874    2.3950   -0.0524 H   0  0  0  0  0  0  0  0  0  0  0  0
    6.4520   -2.5857    0.0492 H   0  0  0  0  0  0  0  0  0  0  0  0
   -5.5188   -1.8209   -1.0599 H   0  0  0  0  0  0  0  0  0  0  0  0
   -5.4799    2.0513    0.8413 H   0  0  0  0  0  0  0  0  0  0  0  0
    8.4070   -1.0468   -0.1171 H   0  0  0  0  0  0  0  0  0  0  0  0
    9.2660    1.2282    0.3350 H   0  0  0  0  0  0  0  0  0  0  0  0
    8.2048    2.6313    0.2625 H   0  0  0  0  0  0  0  0  0  0  0  0
    8.6746    1.8065   -1.2417 H   0  0  0  0  0  0  0  0  0  0  0  0
  1 26  1  0  0  0  0
  2 26  1  0  0  0  0
  3 26  1  0  0  0  0
  4 12  1  0  0  0  0
  4 15  1  0  0  0  0
  5  9  1  0  0  0  0
  5 10  1  0  0  0  0
  5 11  1  0  0  0  0
  6 12  2  0  0  0  0
  6 14  1  0  0  0  0
  7  8  1  0  0  0  0
  7  9  1  0  0  0  0
  7 12  1  0  0  0  0
  7 27  1  0  0  0  0
  8 10  1  0  0  0  0
  8 28  1  0  0  0  0
  8 29  1  0  0  0  0
  9 30  1  0  0  0  0
  9 31  1  0  0  0  0
 10 32  1  0  0  0  0
 10 33  1  0  0  0  0
 11 13  1  0  0  0  0
 11 34  1  0  0  0  0
 11 35  1  0  0  0  0
 13 16  2  0  0  0  0
 13 17  1  0  0  0  0
 14 15  2  0  0  0  0
 14 18  1  0  0  0  0
 15 19  1  0  0  0  0
 16 20  1  0  0  0  0
 16 36  1  0  0  0  0
 17 21  2  0  0  0  0
 17 37  1  0  0  0  0
 18 22  2  0  0  0  0
 18 38  1  0  0  0  0
 19 24  2  0  0  0  0
 19 39  1  0  0  0  0
 20 23  2  0  0  0  0
 20 40  1  0  0  0  0
 21 23  1  0  0  0  0
 21 41  1  0  0  0  0
 22 24  1  0  0  0  0
 22 25  1  0  0  0  0
 23 26  1  0  0  0  0
 24 42  1  0  0  0  0
 25 43  1  0  0  0  0
 25 44  1  0  0  0  0
 25 45  1  0  0  0  0
M  END
> <PUBCHEM_COMPOUND_CID>
51137052

> <PUBCHEM_CONFORMER_RMSD>
0.8

> <PUBCHEM_CONFORMER_DIVERSEORDER>
1
40
17
6
37
47
32
51
44
42
33
28
29
34
13
24
15
48
49
43
36
18
41
21
2
46
7
19
50
39
45
26
3
23
35
22
10
25
12
4
8
38
14
27
20
5
16
31
11
9
30

> <PUBCHEM_MMFF94_PARTIAL_CHARGES>
32
1 -0.34
10 0.27
11 0.41
12 0.3
13 -0.14
14 0.23
15 0.14
16 -0.15
17 -0.15
18 -0.15
19 -0.15
2 -0.34
20 -0.15
21 -0.15
22 -0.14
23 -0.14
24 -0.15
25 0.14
26 1.16
3 -0.34
36 0.15
37 0.15
38 0.15
39 0.15
4 -0.28
40 0.15
41 0.15
42 0.15
5 -0.81
6 -0.57
7 0.18
9 0.27

> <PUBCHEM_EFFECTIVE_ROTOR_COUNT>
5

> <PUBCHEM_PHARMACOPHORE_FEATURES>
5
1 5 cation
5 4 6 12 14 15 rings
5 5 7 8 9 10 rings
6 13 16 17 20 21 23 rings
6 14 15 18 19 22 24 rings

> <PUBCHEM_HEAVY_ATOM_COUNT>
26

> <PUBCHEM_ATOM_DEF_STEREO_COUNT>
1

> <PUBCHEM_ATOM_UDEF_STEREO_COUNT>
0

> <PUBCHEM_BOND_DEF_STEREO_COUNT>
0

> <PUBCHEM_BOND_UDEF_STEREO_COUNT>
0

> <PUBCHEM_ISOTOPIC_ATOM_COUNT>
0

> <PUBCHEM_COMPONENT_COUNT>
1

> <PUBCHEM_CACTVS_TAUTO_COUNT>
1

> <PUBCHEM_CONFORMER_ID>
030C4A1C00000001

> <PUBCHEM_MMFF94_ENERGY>
49.7668

> <PUBCHEM_FEATURE_SELFOVERLAP>
25.492

> <PUBCHEM_SHAPE_FINGERPRINT>
10 15 18344148090277666543
10299344 5 18202844361575809423
10595046 47 18411697647807639560
106641 1 18333735736953942811
10670039 82 10159706772753337159
10883706 142 18333444353630046858
11315181 36 18412263927036156401
11638347 137 16226040077694978048
11646440 116 17240205422078571548
11724838 91 17967813873072331998
12166972 35 18335139787359463340
12236239 1 18202561766266476334
12516196 113 16950281797407843261
12730499 353 18113335285323871458
12838862 33 16153697748562816947
13533116 47 17096076980107953026
14123256 10 17095241414845830977
14170010 4 18186802496233988532
14251764 18 17847058887407210319
14251764 46 17748827414500781195
14671636 106 18340204219674371951
14849402 71 18338519750185150516
14856354 85 17489587887852002181
14933364 13 18342737416527043836
15131766 46 7852125426961238922
15183329 4 15769779056666602074
15419008 47 16298379175782962429
15461852 350 13695875830878352091
15716309 27 18411135823014512423
15728490 51 18260830453542245259
18006028 8 10015866483457595706
18335252 98 18409451396764990954
19489759 90 11530481116955246463
20157964 124 18408040711453130290
20735858 18 15430033258108370008
21095086 128 18411417306402030463
21150785 3 18273496784591608920
21521721 280 18335421283304095346
21792961 116 17274542023088079620
21795232 338 18057885938677189255
220451 1 17489299780939676726
22224240 67 16805322201924492362
23035841 295 18131630080256021955
23516275 137 17987537943070476647
23536379 177 18343017770770335358
23569943 247 17244415301725081010
2747138 104 17458352930816932925
28498 318 11240005546839636296
335352 9 15913323611187755917
34797466 226 18342742906059569078
4073 2 18260551151671469034
4325135 7 18410011039545907261
5265222 85 17846211228419809678
5283156 175 16988847155953900038
5385378 56 15410625748512839047
5758199 1 18260266352231224394
59682541 35 17458347471876472544
6394761 36 12103850063851609664

> <PUBCHEM_SHAPE_MULTIPOLES>
497.42
26.04
1.4
1.02
2.66
0.09
-0.15
3.16
-0.79
-1.33
0.05
0.98
-0.05
-0.48

> <PUBCHEM_SHAPE_SELFOVERLAP>
1091.187

> <PUBCHEM_SHAPE_VOLUME>
273.8

> <PUBCHEM_COORDINATE_TYPE>
2
5
10

$$$$
