56775309
  -OEChem-12032416383D

 35 37  0     1  0  0  0  0  0999 V2000
   -5.1932   -2.1400   -0.2886 F   0  0  0  0  0  0  0  0  0  0  0  0
    2.9014    1.1191   -0.9643 O   0  0  0  0  0  0  0  0  0  0  0  0
    4.3914   -2.1103   -0.8516 O   0  0  0  0  0  0  0  0  0  0  0  0
   -1.4685    2.8868   -0.0497 O   0  0  0  0  0  0  0  0  0  0  0  0
    0.1593    1.2562    0.2435 N   0  0  0  0  0  0  0  0  0  0  0  0
    2.8584   -1.1644    0.6211 N   0  0  0  0  0  0  0  0  0  0  0  0
    2.0134   -0.0253    0.9572 C   0  0  1  0  0  0  0  0  0  0  0  0
    2.5136    1.3029    0.3949 C   0  0  2  0  0  0  0  0  0  0  0  0
    0.6052   -0.1305    0.3647 C   0  0  0  0  0  0  0  0  0  0  0  0
    1.2708    2.1830    0.4285 C   0  0  0  0  0  0  0  0  0  0  0  0
    3.9929    0.2318   -1.0564 C   0  0  0  0  0  0  0  0  0  0  0  0
    3.7554   -1.1373   -0.4434 C   0  0  0  0  0  0  0  0  0  0  0  0
   -1.1369    1.7069    0.0470 C   0  0  0  0  0  0  0  0  0  0  0  0
    2.6119   -2.4043    1.3440 C   0  0  0  0  0  0  0  0  0  0  0  0
   -2.2023    0.6957   -0.0412 C   0  0  0  0  0  0  0  0  0  0  0  0
   -2.8662    0.2801    1.1131 C   0  0  0  0  0  0  0  0  0  0  0  0
   -2.5487    0.1533   -1.2787 C   0  0  0  0  0  0  0  0  0  0  0  0
   -3.8764   -0.6780    1.0297 C   0  0  0  0  0  0  0  0  0  0  0  0
   -3.5588   -0.8049   -1.3620 C   0  0  0  0  0  0  0  0  0  0  0  0
   -4.2227   -1.2206   -0.2078 C   0  0  0  0  0  0  0  0  0  0  0  0
    1.9490    0.0533    2.0506 H   0  0  0  0  0  0  0  0  0  0  0  0
    3.3446    1.7406    0.9588 H   0  0  0  0  0  0  0  0  0  0  0  0
    0.6021   -0.5731   -0.6381 H   0  0  0  0  0  0  0  0  0  0  0  0
   -0.0690   -0.7087    1.0030 H   0  0  0  0  0  0  0  0  0  0  0  0
    1.2485    2.9479   -0.3538 H   0  0  0  0  0  0  0  0  0  0  0  0
    1.1382    2.6567    1.4072 H   0  0  0  0  0  0  0  0  0  0  0  0
    4.8768    0.6772   -0.5852 H   0  0  0  0  0  0  0  0  0  0  0  0
    4.2133    0.0928   -2.1198 H   0  0  0  0  0  0  0  0  0  0  0  0
    2.6848   -2.2108    2.4179 H   0  0  0  0  0  0  0  0  0  0  0  0
    3.3376   -3.1750    1.0717 H   0  0  0  0  0  0  0  0  0  0  0  0
    1.6077   -2.7628    1.1011 H   0  0  0  0  0  0  0  0  0  0  0  0
   -2.6039    0.6962    2.0823 H   0  0  0  0  0  0  0  0  0  0  0  0
   -2.0374    0.4700   -2.1841 H   0  0  0  0  0  0  0  0  0  0  0  0
   -4.3935   -1.0020    1.9281 H   0  0  0  0  0  0  0  0  0  0  0  0
   -3.8288   -1.2275   -2.3253 H   0  0  0  0  0  0  0  0  0  0  0  0
  1 20  1  0  0  0  0
  2  8  1  0  0  0  0
  2 11  1  0  0  0  0
  3 12  2  0  0  0  0
  4 13  2  0  0  0  0
  5  9  1  0  0  0  0
  5 10  1  0  0  0  0
  5 13  1  0  0  0  0
  6  7  1  0  0  0  0
  6 12  1  0  0  0  0
  6 14  1  0  0  0  0
  7  8  1  0  0  0  0
  7  9  1  0  0  0  0
  7 21  1  0  0  0  0
  8 10  1  0  0  0  0
  8 22  1  0  0  0  0
  9 23  1  0  0  0  0
  9 24  1  0  0  0  0
 10 25  1  0  0  0  0
 10 26  1  0  0  0  0
 11 12  1  0  0  0  0
 11 27  1  0  0  0  0
 11 28  1  0  0  0  0
 13 15  1  0  0  0  0
 14 29  1  0  0  0  0
 14 30  1  0  0  0  0
 14 31  1  0  0  0  0
 15 16  2  0  0  0  0
 15 17  1  0  0  0  0
 16 18  1  0  0  0  0
 16 32  1  0  0  0  0
 17 19  2  0  0  0  0
 17 33  1  0  0  0  0
 18 20  2  0  0  0  0
 18 34  1  0  0  0  0
 19 20  1  0  0  0  0
 19 35  1  0  0  0  0
M  END
> <PUBCHEM_COMPOUND_CID>
56775309

> <PUBCHEM_CONFORMER_RMSD>
0.6

> <PUBCHEM_CONFORMER_DIVERSEORDER>
1
13
4
3
12
11
5
8
10
2
9
7
6

> <PUBCHEM_MMFF94_PARTIAL_CHARGES>
24
1 -0.19
10 0.3
11 0.34
12 0.57
13 0.54
14 0.3
15 0.09
16 -0.15
17 -0.15
18 -0.15
19 -0.15
2 -0.56
20 0.19
3 -0.57
32 0.15
33 0.15
34 0.15
35 0.15
4 -0.57
5 -0.66
6 -0.66
7 0.3
8 0.28
9 0.3

> <PUBCHEM_EFFECTIVE_ROTOR_COUNT>
3.2

> <PUBCHEM_PHARMACOPHORE_FEATURES>
6
1 2 acceptor
1 3 acceptor
1 4 acceptor
5 5 7 8 9 10 rings
6 15 16 17 18 19 20 rings
6 2 6 7 8 11 12 rings

> <PUBCHEM_HEAVY_ATOM_COUNT>
20

> <PUBCHEM_ATOM_DEF_STEREO_COUNT>
2

> <PUBCHEM_ATOM_UDEF_STEREO_COUNT>
0

> <PUBCHEM_BOND_DEF_STEREO_COUNT>
0

> <PUBCHEM_BOND_UDEF_STEREO_COUNT>
0

> <PUBCHEM_ISOTOPIC_ATOM_COUNT>
0

> <PUBCHEM_COMPONENT_COUNT>
1

> <PUBCHEM_CACTVS_TAUTO_COUNT>
2

> <PUBCHEM_CONFORMER_ID>
0362528D00000001

> <PUBCHEM_MMFF94_ENERGY>
57.6308

> <PUBCHEM_FEATURE_SELFOVERLAP>
30.648

> <PUBCHEM_SHAPE_FINGERPRINT>
10062212 137 18119810210035113288
10498660 4 14345794954743423983
10616163 171 18267586810227991655
10968037 57 18202285771309651055
11046707 91 18202284684487518897
11543360 7 16298389067108156223
11578080 2 17773573036587722377
12173636 292 8142082091912087113
12403259 327 14620797136655876143
12553582 1 18410571764838183643
12633257 1 14979677745136994887
12670546 177 17095525136095868231
128620 24 18261391178243288148
13224815 77 18334008393450262745
13533116 47 18128536166784930451
13583140 156 13614517442100441157
13675066 3 14045748092726040900
14123260 362 11891334227431427399
14251764 38 11315469483303142134
14576447 43 18335140878132956554
14767858 380 18263661691983986652
15239191 94 18131351903502802492
15537594 2 18340219569301418571
1741750 31 8286192868629346369
17780758 139 17059213623123962890
1813 80 18200327601077345061
18186145 218 17240484693156634873
18915474 69 18410859858443880366
19422 9 18272378576428036833
19862831 5 17894625920582483181
20281475 54 18412547608760965393
20291156 8 18341892987122589929
20645477 70 18339632438655571917
21475661 188 11815080918850788035
21503847 285 10015589423880981372
21634736 98 18335419071517204810
21713013 43 18040992934378874647
21731516 1 18343295955353996761
221490 88 18411700972128345704
2255824 54 18197779001817321296
22646028 28 18342172267476416471
22950370 63 18340778112723668383
23379529 103 18271817808524295814
235170 7 16732982041809241175
23557571 272 16732974354012869461
23559900 14 18335969905035899592
23596394 208 17748820821657585446
23598288 3 18200596882647339341
27216 239 10663807612164278013
2838139 119 14057876879345850686
2871803 45 18260266360499327579
312423 11 18341621411956027169
312425 83 15937246677668637262
3472631 163 12612744723244200103
46194498 28 17242448554721619535
465052 167 18200882884804208887
6786 2 16335796888248409104
7970288 3 18343303639077630046
94968 8 18411136965475618152
960060 61 18187642539848773927
9981440 41 7925618973850861492

> <PUBCHEM_SHAPE_MULTIPOLES>
376.75
9.36
2.5
1.24
2.91
0.24
0.08
-6.24
1.91
-0.63
-0.27
0.06
-0.33
-0.39

> <PUBCHEM_SHAPE_SELFOVERLAP>
812.129

> <PUBCHEM_SHAPE_VOLUME>
208.9

> <PUBCHEM_COORDINATE_TYPE>
2
5
10

$$$$
