26745475
  -OEChem-12032416183D

 53 56  0     1  0  0  0  0  0999 V2000
   -5.8040    3.2630   -1.2521 Cl  0  0  0  0  0  0  0  0  0  0  0  0
    1.9314   -2.2725   -0.4755 S   0  0  0  0  0  0  0  0  0  0  0  0
   -4.2229   -3.6249    0.6119 F   0  0  0  0  0  0  0  0  0  0  0  0
   -2.6074   -4.7353    1.5527 F   0  0  0  0  0  0  0  0  0  0  0  0
   -2.9639   -2.6684    2.1045 F   0  0  0  0  0  0  0  0  0  0  0  0
    2.1751   -2.6923    0.8876 O   0  0  0  0  0  0  0  0  0  0  0  0
    2.6699   -2.8500   -1.5776 O   0  0  0  0  0  0  0  0  0  0  0  0
    5.5041    0.3453    0.1565 O   0  0  0  0  0  0  0  0  0  0  0  0
    3.8289   -0.5575    1.4661 O   0  0  0  0  0  0  0  0  0  0  0  0
    2.0474   -0.5654   -0.5631 N   0  0  2  0  0  0  0  0  0  0  0  0
    0.6099    2.6611    0.6674 N   0  0  0  0  0  0  0  0  0  0  0  0
    2.1885    3.5908   -0.6113 N   0  0  0  0  0  0  0  0  0  0  0  0
    3.4165    0.0044   -0.8352 C   0  0  1  0  0  0  0  0  0  0  0  0
    1.1924    0.1907    0.4244 C   0  0  0  0  0  0  0  0  0  0  0  0
    3.3423    1.4594   -1.3469 C   0  0  0  0  0  0  0  0  0  0  0  0
    1.3561    1.6349    0.1705 C   0  0  0  0  0  0  0  0  0  0  0  0
    2.3193    2.2302   -0.6060 C   0  0  0  0  0  0  0  0  0  0  0  0
    4.2443   -0.1132    0.4045 C   0  0  0  0  0  0  0  0  0  0  0  0
   -0.5245    2.5669    1.5537 C   0  0  0  0  0  0  0  0  0  0  0  0
    1.1496    3.8194    0.1671 C   0  0  0  0  0  0  0  0  0  0  0  0
    0.2101   -2.4812   -0.8060 C   0  0  0  0  0  0  0  0  0  0  0  0
   -1.8480    2.7409    0.8512 C   0  0  0  0  0  0  0  0  0  0  0  0
   -0.6496   -2.9007    0.2091 C   0  0  0  0  0  0  0  0  0  0  0  0
   -0.2905   -2.2263   -2.0828 C   0  0  0  0  0  0  0  0  0  0  0  0
   -2.0097   -3.0655   -0.0526 C   0  0  0  0  0  0  0  0  0  0  0  0
   -1.6506   -2.3912   -2.3445 C   0  0  0  0  0  0  0  0  0  0  0  0
   -2.2869    4.0167    0.4972 C   0  0  0  0  0  0  0  0  0  0  0  0
   -2.6330    1.6264    0.5555 C   0  0  0  0  0  0  0  0  0  0  0  0
   -2.5102   -2.8108   -1.3294 C   0  0  0  0  0  0  0  0  0  0  0  0
    6.4079    0.2897    1.2648 C   0  0  0  0  0  0  0  0  0  0  0  0
   -2.9292   -3.5140    1.0325 C   0  0  0  0  0  0  0  0  0  0  0  0
   -3.5107    4.1781   -0.1524 C   0  0  0  0  0  0  0  0  0  0  0  0
   -3.8569    1.7877   -0.0939 C   0  0  0  0  0  0  0  0  0  0  0  0
   -4.2957    3.0636   -0.4478 C   0  0  0  0  0  0  0  0  0  0  0  0
    3.9002   -0.6011   -1.6112 H   0  0  0  0  0  0  0  0  0  0  0  0
    1.4604   -0.0562    1.4548 H   0  0  0  0  0  0  0  0  0  0  0  0
    0.1426   -0.0690    0.2658 H   0  0  0  0  0  0  0  0  0  0  0  0
    3.0467    1.4447   -2.4037 H   0  0  0  0  0  0  0  0  0  0  0  0
    4.3107    1.9673   -1.2914 H   0  0  0  0  0  0  0  0  0  0  0  0
   -0.4063    3.3391    2.3246 H   0  0  0  0  0  0  0  0  0  0  0  0
   -0.4821    1.6067    2.0804 H   0  0  0  0  0  0  0  0  0  0  0  0
    0.7547    4.7967    0.4083 H   0  0  0  0  0  0  0  0  0  0  0  0
   -0.2777   -3.1010    1.2103 H   0  0  0  0  0  0  0  0  0  0  0  0
    0.3661   -1.8956   -2.8829 H   0  0  0  0  0  0  0  0  0  0  0  0
   -2.0403   -2.1914   -3.3384 H   0  0  0  0  0  0  0  0  0  0  0  0
   -1.6929    4.8961    0.7293 H   0  0  0  0  0  0  0  0  0  0  0  0
   -2.3032    0.6265    0.8247 H   0  0  0  0  0  0  0  0  0  0  0  0
   -3.5663   -2.9321   -1.5539 H   0  0  0  0  0  0  0  0  0  0  0  0
    7.3739    0.6816    0.9358 H   0  0  0  0  0  0  0  0  0  0  0  0
    6.5418   -0.7456    1.5927 H   0  0  0  0  0  0  0  0  0  0  0  0
    6.0379    0.9109    2.0861 H   0  0  0  0  0  0  0  0  0  0  0  0
   -3.8408    5.1784   -0.4206 H   0  0  0  0  0  0  0  0  0  0  0  0
   -4.4573    0.9098   -0.3187 H   0  0  0  0  0  0  0  0  0  0  0  0
  1 34  1  0  0  0  0
  2  6  2  0  0  0  0
  2  7  2  0  0  0  0
  2 10  1  0  0  0  0
  2 21  1  0  0  0  0
  3 31  1  0  0  0  0
  4 31  1  0  0  0  0
  5 31  1  0  0  0  0
  8 18  1  0  0  0  0
  8 30  1  0  0  0  0
  9 18  2  0  0  0  0
 10 13  1  0  0  0  0
 10 14  1  0  0  0  0
 11 16  1  0  0  0  0
 11 19  1  0  0  0  0
 11 20  1  0  0  0  0
 12 17  1  0  0  0  0
 12 20  2  0  0  0  0
 13 15  1  0  0  0  0
 13 18  1  0  0  0  0
 13 35  1  0  0  0  0
 14 16  1  0  0  0  0
 14 36  1  0  0  0  0
 14 37  1  0  0  0  0
 15 17  1  0  0  0  0
 15 38  1  0  0  0  0
 15 39  1  0  0  0  0
 16 17  2  0  0  0  0
 19 22  1  0  0  0  0
 19 40  1  0  0  0  0
 19 41  1  0  0  0  0
 20 42  1  0  0  0  0
 21 23  1  0  0  0  0
 21 24  2  0  0  0  0
 22 27  2  0  0  0  0
 22 28  1  0  0  0  0
 23 25  2  0  0  0  0
 23 43  1  0  0  0  0
 24 26  1  0  0  0  0
 24 44  1  0  0  0  0
 25 29  1  0  0  0  0
 25 31  1  0  0  0  0
 26 29  2  0  0  0  0
 26 45  1  0  0  0  0
 27 32  1  0  0  0  0
 27 46  1  0  0  0  0
 28 33  2  0  0  0  0
 28 47  1  0  0  0  0
 29 48  1  0  0  0  0
 30 49  1  0  0  0  0
 30 50  1  0  0  0  0
 30 51  1  0  0  0  0
 32 34  2  0  0  0  0
 32 52  1  0  0  0  0
 33 34  1  0  0  0  0
 33 53  1  0  0  0  0
M  END
> <PUBCHEM_COMPOUND_CID>
26745475

> <PUBCHEM_CONFORMER_RMSD>
1

> <PUBCHEM_CONFORMER_DIVERSEORDER>
1
61
162
125
129
174
169
83
9
63
107
62
10
172
56
180
20
121
139
157
178
127
51
89
123
31
132
68
149
130
173
146
154
58
124
97
133
78
79
155
30
138
26
176
96
122
117
38
34
73
103
21
86
120
91
148
112
104
141
143
7
57
64
28
77
85
13
152
39
92
93
163
50
8
71
27
145
170
88
118
119
113
4
72
111
168
95
59
90
40
147
66
140
116
115
177
36
67
109
43
159
6
46
11
114
53
80
14
153
135
99
98
65
106
142
161
12
108
158
52
70
164
160
87
136
49
23
101
18
76
166
82
84
60
55
74
2
128
81
110
16
102
5
175
156
167
69
32
19
144
47
137
134
75
100
171
29
17
126
105
35
151
54
179
45
33
48
165
24
44
150
15
41
42
22
3
37
25
94
131

> <PUBCHEM_MMFF94_PARTIAL_CHARGES>
43
1 -0.18
10 -0.85
11 0.05
12 -0.57
13 0.42
14 0.54
15 0.18
16 -0.33
17 0.05
18 0.66
19 0.4
2 1.45
20 0.04
21 -0.01
22 -0.14
23 -0.15
24 -0.15
25 -0.14
26 -0.15
27 -0.15
28 -0.15
29 -0.15
3 -0.34
30 0.28
31 1.16
32 -0.15
33 -0.15
34 0.18
4 -0.34
42 0.15
43 0.15
44 0.15
45 0.15
46 0.15
47 0.15
48 0.15
5 -0.34
52 0.15
53 0.15
6 -0.65
7 -0.65
8 -0.43
9 -0.57

> <PUBCHEM_EFFECTIVE_ROTOR_COUNT>
7.8

> <PUBCHEM_PHARMACOPHORE_FEATURES>
8
1 6 acceptor
1 7 acceptor
1 9 acceptor
3 11 12 20 cation
5 11 12 16 17 20 rings
6 10 13 14 15 16 17 rings
6 21 23 24 25 26 29 rings
6 22 27 28 32 33 34 rings

> <PUBCHEM_HEAVY_ATOM_COUNT>
34

> <PUBCHEM_ATOM_DEF_STEREO_COUNT>
1

> <PUBCHEM_ATOM_UDEF_STEREO_COUNT>
0

> <PUBCHEM_BOND_DEF_STEREO_COUNT>
0

> <PUBCHEM_BOND_UDEF_STEREO_COUNT>
0

> <PUBCHEM_ISOTOPIC_ATOM_COUNT>
0

> <PUBCHEM_COMPONENT_COUNT>
1

> <PUBCHEM_CACTVS_TAUTO_COUNT>
1

> <PUBCHEM_CONFORMER_ID>
01981A8300000001

> <PUBCHEM_MMFF94_ENERGY>
66.4958

> <PUBCHEM_FEATURE_SELFOVERLAP>
40.723

> <PUBCHEM_SHAPE_FINGERPRINT>
10074138 170 18122311689567694026
1100329 8 18413100676285113612
11513181 2 17845365544689662351
12156800 1 18049761582380772348
12553582 1 17476639157901498201
12788726 201 18193568989279787430
13140716 1 18268995460732714880
13590594 115 18195522830074510338
1361 2 18122343476357530281
14725015 67 18267296711226145371
15475509 84 18264490765930732378
15484559 13 17981325590919676941
15968369 153 18057598966104702093
16114785 44 17127004193466041288
161222 619 18052851099213971097
16993438 75 18411976992586137887
17138139 8 17772439401460278949
20764821 26 18125717035660565165
20775438 99 18127682734670465703
21133410 62 18119787146799726285
21133410 90 16844722166488316963
21304304 249 18049434843334844690
463206 1 16467008740230537347
5171179 24 17414972924109831696
57527358 35 15582383749495533742
6287921 2 15457908480474954093
66674814 147 18121213178272021941

> <PUBCHEM_SHAPE_MULTIPOLES>
645.18
9.79
7.35
1.65
0.88
4.81
0.18
-7.84
-0.24
-6.82
-1.05
-0.21
1.35
1.29

> <PUBCHEM_SHAPE_SELFOVERLAP>
1381.84

> <PUBCHEM_SHAPE_VOLUME>
363

> <PUBCHEM_COORDINATE_TYPE>
2
5
10

$$$$
