75411571
  -OEChem-12032416383D

 44 46  0     1  0  0  0  0  0999 V2000
   -5.3026   -3.7129   -1.1365 F   0  0  0  0  0  0  0  0  0  0  0  0
    6.2448   -0.3500    1.1095 F   0  0  0  0  0  0  0  0  0  0  0  0
    5.1063   -2.1305    1.5966 F   0  0  0  0  0  0  0  0  0  0  0  0
    6.0956   -1.9701   -0.3330 F   0  0  0  0  0  0  0  0  0  0  0  0
   -0.9560    4.0923   -0.4663 O   0  0  0  0  0  0  0  0  0  0  0  0
    0.7680    1.1119   -1.5162 O   0  0  0  0  0  0  0  0  0  0  0  0
   -2.2039    1.4861    0.7069 N   0  0  2  0  0  0  0  0  0  0  0  0
    2.1682    0.7101    0.2872 N   0  0  0  0  0  0  0  0  0  0  0  0
   -1.0053    0.9071    0.0902 C   0  0  0  0  0  0  0  0  0  0  0  0
   -0.0140    1.8656   -0.5885 C   0  0  2  0  0  0  0  0  0  0  0  0
   -1.9838    2.7787    1.3572 C   0  0  0  0  0  0  0  0  0  0  0  0
   -0.6683    3.0119   -1.3478 C   0  0  0  0  0  0  0  0  0  0  0  0
   -2.8134    0.5220    1.6237 C   0  0  0  0  0  0  0  0  0  0  0  0
   -2.1157    3.9069    0.3333 C   0  0  0  0  0  0  0  0  0  0  0  0
   -3.4785   -0.6097    0.8862 C   0  0  0  0  0  0  0  0  0  0  0  0
    1.8999    0.5228   -1.0244 C   0  0  0  0  0  0  0  0  0  0  0  0
   -4.8194   -0.5079    0.5158 C   0  0  0  0  0  0  0  0  0  0  0  0
   -2.7539   -1.7598    0.5733 C   0  0  0  0  0  0  0  0  0  0  0  0
   -5.4359   -1.5561   -0.1673 C   0  0  0  0  0  0  0  0  0  0  0  0
   -3.3703   -2.8082   -0.1098 C   0  0  0  0  0  0  0  0  0  0  0  0
    2.6964   -0.2206   -1.8805 C   0  0  0  0  0  0  0  0  0  0  0  0
   -4.7113   -2.7063   -0.4800 C   0  0  0  0  0  0  0  0  0  0  0  0
    3.8419   -0.8097   -1.3567 C   0  0  0  0  0  0  0  0  0  0  0  0
    4.1516   -0.6395   -0.0118 C   0  0  0  0  0  0  0  0  0  0  0  0
    3.2901    0.1226    0.7606 C   0  0  0  0  0  0  0  0  0  0  0  0
    5.3694   -1.2565    0.5783 C   0  0  0  0  0  0  0  0  0  0  0  0
   -1.3258    0.1878   -0.6739 H   0  0  0  0  0  0  0  0  0  0  0  0
   -0.4358    0.3276    0.8292 H   0  0  0  0  0  0  0  0  0  0  0  0
    0.6119    2.3422    0.1784 H   0  0  0  0  0  0  0  0  0  0  0  0
   -1.0227    2.8113    1.8839 H   0  0  0  0  0  0  0  0  0  0  0  0
   -2.7642    2.9619    2.1065 H   0  0  0  0  0  0  0  0  0  0  0  0
    0.0311    3.4000   -2.0973 H   0  0  0  0  0  0  0  0  0  0  0  0
   -1.5638    2.6976   -1.8977 H   0  0  0  0  0  0  0  0  0  0  0  0
   -3.5953    1.0044    2.2267 H   0  0  0  0  0  0  0  0  0  0  0  0
   -2.0911    0.1366    2.3565 H   0  0  0  0  0  0  0  0  0  0  0  0
   -2.9962    3.7779   -0.3087 H   0  0  0  0  0  0  0  0  0  0  0  0
   -2.2641    4.8475    0.8758 H   0  0  0  0  0  0  0  0  0  0  0  0
   -5.3949    0.3835    0.7509 H   0  0  0  0  0  0  0  0  0  0  0  0
   -1.7119   -1.8607    0.8644 H   0  0  0  0  0  0  0  0  0  0  0  0
   -6.4797   -1.4770   -0.4564 H   0  0  0  0  0  0  0  0  0  0  0  0
   -2.8072   -3.7048   -0.3515 H   0  0  0  0  0  0  0  0  0  0  0  0
    2.4407   -0.3436   -2.9272 H   0  0  0  0  0  0  0  0  0  0  0  0
    4.4804   -1.3968   -2.0106 H   0  0  0  0  0  0  0  0  0  0  0  0
    3.4795    0.2902    1.8164 H   0  0  0  0  0  0  0  0  0  0  0  0
  1 22  1  0  0  0  0
  2 26  1  0  0  0  0
  3 26  1  0  0  0  0
  4 26  1  0  0  0  0
  5 12  1  0  0  0  0
  5 14  1  0  0  0  0
  6 10  1  0  0  0  0
  6 16  1  0  0  0  0
  7  9  1  0  0  0  0
  7 11  1  0  0  0  0
  7 13  1  0  0  0  0
  8 16  2  0  0  0  0
  8 25  1  0  0  0  0
  9 10  1  0  0  0  0
  9 27  1  0  0  0  0
  9 28  1  0  0  0  0
 10 12  1  0  0  0  0
 10 29  1  0  0  0  0
 11 14  1  0  0  0  0
 11 30  1  0  0  0  0
 11 31  1  0  0  0  0
 12 32  1  0  0  0  0
 12 33  1  0  0  0  0
 13 15  1  0  0  0  0
 13 34  1  0  0  0  0
 13 35  1  0  0  0  0
 14 36  1  0  0  0  0
 14 37  1  0  0  0  0
 15 17  2  0  0  0  0
 15 18  1  0  0  0  0
 16 21  1  0  0  0  0
 17 19  1  0  0  0  0
 17 38  1  0  0  0  0
 18 20  2  0  0  0  0
 18 39  1  0  0  0  0
 19 22  2  0  0  0  0
 19 40  1  0  0  0  0
 20 22  1  0  0  0  0
 20 41  1  0  0  0  0
 21 23  2  0  0  0  0
 21 42  1  0  0  0  0
 23 24  1  0  0  0  0
 23 43  1  0  0  0  0
 24 25  2  0  0  0  0
 24 26  1  0  0  0  0
 25 44  1  0  0  0  0
M  END
> <PUBCHEM_COMPOUND_CID>
75411571

> <PUBCHEM_CONFORMER_RMSD>
0.8

> <PUBCHEM_CONFORMER_DIVERSEORDER>
1
178
46
247
90
198
149
222
61
143
170
242
176
92
113
221
5
188
240
98
112
59
204
45
80
85
164
229
205
210
232
18
234
243
148
230
73
14
89
260
245
166
43
50
183
215
124
151
228
202
191
250
248
4
185
7
127
11
255
115
66
212
76
249
165
40
153
239
177
144
217
116
203
142
179
101
135
97
56
156
39
155
3
37
120
102
79
252
159
57
13
154
173
104
219
131
8
133
12
223
226
194
28
109
207
130
145
160
141
53
33
123
163
214
189
122
171
187
95
128
103
257
44
152
21
150
23
161
192
225
184
220
218
256
231
65
182
237
172
126
17
114
213
26
233
174
60
238
139
129
200
216
195
55
29
6
186
169
147
253
167
15
9
69
241
36
196
99
54
244
209
137
68
140
111
158
19
81
91
181
63
206
180
62
49
20
58
190
136
108
168
25
34
2
227
32
201
64
100
30
125
24
47
197
146
22
224
74
87
10
27
236
208
48
254
258
199
96
118
38
193
157
31
41
121
105
16
110
211
175
94
162
71
119
88
259
117
70
235
78
72
52
86
82
106
134
42
67
77
138
107
93
251
75
35
84
83
132
246
51

> <PUBCHEM_MMFF94_PARTIAL_CHARGES>
33
1 -0.19
10 0.28
11 0.27
12 0.28
13 0.41
14 0.28
15 -0.14
16 0.39
17 -0.15
18 -0.15
19 -0.15
2 -0.34
20 -0.15
21 -0.15
22 0.19
23 -0.15
24 -0.14
25 0.16
26 1.16
3 -0.34
38 0.15
39 0.15
4 -0.34
40 0.15
41 0.15
42 0.15
43 0.15
44 0.15
5 -0.56
6 -0.36
7 -0.81
8 -0.62
9 0.27

> <PUBCHEM_EFFECTIVE_ROTOR_COUNT>
6.4

> <PUBCHEM_PHARMACOPHORE_FEATURES>
5
1 5 acceptor
1 7 cation
6 15 17 18 19 20 22 rings
6 8 16 21 23 24 25 rings
7 5 7 9 10 11 12 14 rings

> <PUBCHEM_HEAVY_ATOM_COUNT>
26

> <PUBCHEM_ATOM_DEF_STEREO_COUNT>
1

> <PUBCHEM_ATOM_UDEF_STEREO_COUNT>
0

> <PUBCHEM_BOND_DEF_STEREO_COUNT>
0

> <PUBCHEM_BOND_UDEF_STEREO_COUNT>
0

> <PUBCHEM_ISOTOPIC_ATOM_COUNT>
0

> <PUBCHEM_COMPONENT_COUNT>
1

> <PUBCHEM_CACTVS_TAUTO_COUNT>
1

> <PUBCHEM_CONFORMER_ID>
047EB07300000001

> <PUBCHEM_MMFF94_ENERGY>
72.2541

> <PUBCHEM_FEATURE_SELFOVERLAP>
25.373

> <PUBCHEM_SHAPE_FINGERPRINT>
10319688 77 18186518821506529125
10483366 6 18263348215417151221
11552529 35 18339642214149252992
11720765 8 18195235849266893597
12166972 35 17968659444732949551
12523318 42 18341331080909681400
12553582 1 18193303938131467789
12633257 1 18059592247030639144
12788726 201 18263100880053833476
13004483 165 18412825823989328213
13583140 156 17987224544080648896
13828863 39 10519715509596030567
13885169 86 10735871802676711610
13944108 23 10668545360308382239
14068700 675 18335698364286408805
14844126 61 18263369105383782993
14910302 57 18057903349914983750
15183329 4 14851596674456109334
16120349 67 8430324583712931686
17324776 126 18269824475448095510
17857418 61 18335139791242649226
19032999 76 18411415133158835811
20621476 51 18409170973981044405
20626108 58 18198625626118303331
20775438 99 17257072196790121955
21458453 9 16055177206682385843
23622692 118 18334580131455644860
255183 313 18127149480801651345
3027735 51 17386558068829373683
312425 54 17488760968602498195
339767 52 18410855477609270087
397830 11 18271513218892791690
463206 1 18187930637576118443
484985 159 18189606155799405559
5080951 261 18189599563019630125
5924683 9 18337110060081395192
602551 16 18339371747315743756
613672 6 18270129018888389663
653340 110 18268429044941255958
7471813 234 18260555557832992172
7970288 3 18337109067992091595
88748 71 18119538888767895923

> <PUBCHEM_SHAPE_MULTIPOLES>
484.27
13.26
4.42
1.49
10.85
2.85
-0.12
-15.2
2.16
-5.55
-0.62
0.79
0.11
-1.93

> <PUBCHEM_SHAPE_SELFOVERLAP>
1033.14

> <PUBCHEM_SHAPE_VOLUME>
268.1

> <PUBCHEM_COORDINATE_TYPE>
2
5
10

$$$$
