75537002
  -OEChem-12032416333D

 32 34  0     1  0  0  0  0  0999 V2000
   -4.3467   -0.9412   -0.2578 O   0  0  0  0  0  0  0  0  0  0  0  0
    2.5029   -2.3156   -0.1843 O   0  0  0  0  0  0  0  0  0  0  0  0
    2.6107    0.9292   -0.8591 O   0  0  0  0  0  0  0  0  0  0  0  0
   -2.0264   -0.5727   -0.2626 N   0  0  0  0  0  0  0  0  0  0  0  0
    0.6444   -1.0113    0.3684 N   0  0  0  0  0  0  0  0  0  0  0  0
   -3.3840    1.1838    0.0853 N   0  0  0  0  0  0  0  0  0  0  0  0
    3.5674    1.9299   -0.7384 N   0  0  0  0  0  0  0  0  0  0  0  0
   -1.1357    0.5743   -0.2101 C   0  0  2  0  0  0  0  0  0  0  0  0
    0.0383    0.2874    0.7206 C   0  0  0  0  0  0  0  0  0  0  0  0
   -2.0419    1.7180    0.2374 C   0  0  0  0  0  0  0  0  0  0  0  0
   -1.4846   -1.8983   -0.5072 C   0  0  0  0  0  0  0  0  0  0  0  0
   -0.2844   -2.1496    0.4041 C   0  0  0  0  0  0  0  0  0  0  0  0
   -3.3748   -0.2035   -0.1612 C   0  0  0  0  0  0  0  0  0  0  0  0
   -4.5604    1.9952    0.3057 C   0  0  0  0  0  0  0  0  0  0  0  0
    1.9901   -1.2260    0.0663 C   0  0  0  0  0  0  0  0  0  0  0  0
    2.8844   -0.0617    0.0276 C   0  0  0  0  0  0  0  0  0  0  0  0
    4.0091    0.2564    0.7419 C   0  0  0  0  0  0  0  0  0  0  0  0
    4.3917    1.5057    0.2236 C   0  0  0  0  0  0  0  0  0  0  0  0
   -0.7790    0.7449   -1.2338 H   0  0  0  0  0  0  0  0  0  0  0  0
    0.7558    1.1088    0.7010 H   0  0  0  0  0  0  0  0  0  0  0  0
   -0.3044    0.1916    1.7589 H   0  0  0  0  0  0  0  0  0  0  0  0
   -1.8980    1.9889    1.2885 H   0  0  0  0  0  0  0  0  0  0  0  0
   -1.9207    2.6067   -0.3891 H   0  0  0  0  0  0  0  0  0  0  0  0
   -1.1766   -1.9264   -1.5586 H   0  0  0  0  0  0  0  0  0  0  0  0
   -2.2638   -2.6520   -0.3587 H   0  0  0  0  0  0  0  0  0  0  0  0
   -0.6134   -2.2585    1.4445 H   0  0  0  0  0  0  0  0  0  0  0  0
    0.2186   -3.0777    0.1159 H   0  0  0  0  0  0  0  0  0  0  0  0
   -4.5528    2.3515    1.3392 H   0  0  0  0  0  0  0  0  0  0  0  0
   -5.4648    1.4071    0.1309 H   0  0  0  0  0  0  0  0  0  0  0  0
   -4.5363    2.8464   -0.3796 H   0  0  0  0  0  0  0  0  0  0  0  0
    4.4821   -0.3247    1.5194 H   0  0  0  0  0  0  0  0  0  0  0  0
    5.2318    2.1243    0.5031 H   0  0  0  0  0  0  0  0  0  0  0  0
  1 13  2  0  0  0  0
  2 15  2  0  0  0  0
  3  7  1  0  0  0  0
  3 16  1  0  0  0  0
  4  8  1  0  0  0  0
  4 11  1  0  0  0  0
  4 13  1  0  0  0  0
  5  9  1  0  0  0  0
  5 12  1  0  0  0  0
  5 15  1  0  0  0  0
  6 10  1  0  0  0  0
  6 13  1  0  0  0  0
  6 14  1  0  0  0  0
  7 18  2  0  0  0  0
  8  9  1  0  0  0  0
  8 10  1  0  0  0  0
  8 19  1  0  0  0  0
  9 20  1  0  0  0  0
  9 21  1  0  0  0  0
 10 22  1  0  0  0  0
 10 23  1  0  0  0  0
 11 12  1  0  0  0  0
 11 24  1  0  0  0  0
 11 25  1  0  0  0  0
 12 26  1  0  0  0  0
 12 27  1  0  0  0  0
 14 28  1  0  0  0  0
 14 29  1  0  0  0  0
 14 30  1  0  0  0  0
 15 16  1  0  0  0  0
 16 17  2  0  0  0  0
 17 18  1  0  0  0  0
 17 31  1  0  0  0  0
 18 32  1  0  0  0  0
M  END
> <PUBCHEM_COMPOUND_CID>
75537002

> <PUBCHEM_CONFORMER_RMSD>
0.6

> <PUBCHEM_CONFORMER_DIVERSEORDER>
1
22
27
23
21
6
19
13
18
15
25
20
17
8
16
9
12
24
4
14
26
11
7
5
3
10
2

> <PUBCHEM_MMFF94_PARTIAL_CHARGES>
20
1 -0.57
10 0.3
11 0.3
12 0.3
13 0.69
14 0.3
15 0.71
16 0.05
17 -0.15
18 0.14
2 -0.57
3 -0.02
31 0.15
32 0.15
4 -0.66
5 -0.66
6 -0.66
7 -0.41
8 0.3
9 0.3

> <PUBCHEM_EFFECTIVE_ROTOR_COUNT>
3.2

> <PUBCHEM_PHARMACOPHORE_FEATURES>
6
1 1 acceptor
1 2 acceptor
1 7 acceptor
5 3 7 16 17 18 rings
5 4 6 8 10 13 rings
6 4 5 8 9 11 12 rings

> <PUBCHEM_HEAVY_ATOM_COUNT>
18

> <PUBCHEM_ATOM_DEF_STEREO_COUNT>
1

> <PUBCHEM_ATOM_UDEF_STEREO_COUNT>
0

> <PUBCHEM_BOND_DEF_STEREO_COUNT>
0

> <PUBCHEM_BOND_UDEF_STEREO_COUNT>
0

> <PUBCHEM_ISOTOPIC_ATOM_COUNT>
0

> <PUBCHEM_COMPONENT_COUNT>
1

> <PUBCHEM_CACTVS_TAUTO_COUNT>
1

> <PUBCHEM_CONFORMER_ID>
04809A6A00000001

> <PUBCHEM_MMFF94_ENERGY>
37.9831

> <PUBCHEM_FEATURE_SELFOVERLAP>
30.546

> <PUBCHEM_SHAPE_FINGERPRINT>
10498660 4 18412262805205913565
11132069 177 18334294223914305445
11715629 250 18409726253312818340
12173636 292 18343014489199121735
122479 349 18335141998576050146
12390115 104 18201174178039169913
12403814 3 17894621582892302917
13380535 76 18408602595574459650
14787075 74 18044094777246363651
14790565 3 18055923095926673281
14897335 6 18410572898857262018
15196674 1 18411699863799774115
15342168 16 18187373137666819581
15536298 74 18341333297212857278
15775835 57 18411420600646961264
1741750 31 18342740723419694826
18186145 218 18337672992728197414
19422 9 18342737369419638003
20510252 161 18272654536951322969
20715895 44 17975964372312766117
21524375 3 18335135419039606410
22854114 111 18261393317231901538
23402539 116 18342166782914137804
23557571 272 18059300962506444198
23559900 14 18200309901717642822
4340502 62 16950281802462517875
474 4 17967534609845730916
5104073 3 18409729526130782507
537710 114 18412263969020432729
58051976 378 18412823611732887830
6333272 397 18333732446355009338
633830 44 18269553854031718863
69090 78 18408881854078721282
7364860 26 18270399378679407958
9709674 26 18412268332744551046
9981440 41 18337666542246780930

> <PUBCHEM_SHAPE_MULTIPOLES>
332.9
8.75
2.4
0.76
0.33
0.4
0.01
-4.72
0.03
0.12
-0.08
-0.26
-0.07
-0.56

> <PUBCHEM_SHAPE_SELFOVERLAP>
708.025

> <PUBCHEM_SHAPE_VOLUME>
186.7

> <PUBCHEM_COORDINATE_TYPE>
2
5
10

$$$$
