75536571
  -OEChem-12032416303D

 46 48  0     1  0  0  0  0  0999 V2000
   -6.4237   -1.5607   -0.1397 S   0  0  0  0  0  0  0  0  0  0  0  0
    0.2554   -1.2270    0.1027 O   0  0  0  0  0  0  0  0  0  0  0  0
   -0.6612    2.2403   -0.1049 O   0  0  0  0  0  0  0  0  0  0  0  0
    3.9224    1.3160   -0.4428 O   0  0  0  0  0  0  0  0  0  0  0  0
    2.8718   -0.3039    0.8605 N   0  0  0  0  0  0  0  0  0  0  0  0
   -3.0742    0.2376    0.1027 N   0  0  0  0  0  0  0  0  0  0  0  0
    0.5978    0.1688    0.1170 C   0  0  1  0  0  0  0  0  0  0  0  0
   -0.6992    0.9172    0.3937 C   0  0  2  0  0  0  0  0  0  0  0  0
   -1.7021    0.0442   -0.3375 C   0  0  1  0  0  0  0  0  0  0  0  0
    5.0496   -0.7512   -0.0539 C   0  0  0  0  0  0  0  0  0  0  0  0
    5.7941   -0.5202   -1.3699 C   0  0  0  0  0  0  0  0  0  0  0  0
    6.0717   -0.5160    1.0640 C   0  0  0  0  0  0  0  0  0  0  0  0
    7.0051    0.3172   -0.9846 C   0  0  0  0  0  0  0  0  0  0  0  0
    7.4013   -0.2553    0.3643 C   0  0  0  0  0  0  0  0  0  0  0  0
   -1.1720   -1.3464   -0.0285 C   0  0  0  0  0  0  0  0  0  0  0  0
    1.6719    0.4233    1.1595 C   0  0  0  0  0  0  0  0  0  0  0  0
    3.9038    0.2047    0.0800 C   0  0  0  0  0  0  0  0  0  0  0  0
   -4.0163   -0.3560   -0.8386 C   0  0  0  0  0  0  0  0  0  0  0  0
   -5.4427   -0.1798   -0.3903 C   0  0  0  0  0  0  0  0  0  0  0  0
   -6.1230    0.9907   -0.1357 C   0  0  0  0  0  0  0  0  0  0  0  0
   -7.4672    0.7506    0.2708 C   0  0  0  0  0  0  0  0  0  0  0  0
   -7.7633   -0.5941    0.3112 C   0  0  0  0  0  0  0  0  0  0  0  0
    0.9863    0.4200   -0.8788 H   0  0  0  0  0  0  0  0  0  0  0  0
   -0.9149    0.9507    1.4690 H   0  0  0  0  0  0  0  0  0  0  0  0
   -1.6157    0.2548   -1.4129 H   0  0  0  0  0  0  0  0  0  0  0  0
    4.6701   -1.7798   -0.0284 H   0  0  0  0  0  0  0  0  0  0  0  0
    6.1373   -1.4852   -1.7644 H   0  0  0  0  0  0  0  0  0  0  0  0
    5.1976   -0.0434   -2.1540 H   0  0  0  0  0  0  0  0  0  0  0  0
    6.1472   -1.3850    1.7265 H   0  0  0  0  0  0  0  0  0  0  0  0
    5.8027    0.3440    1.6892 H   0  0  0  0  0  0  0  0  0  0  0  0
    6.7271    1.3727   -0.8849 H   0  0  0  0  0  0  0  0  0  0  0  0
    7.8113    0.2429   -1.7200 H   0  0  0  0  0  0  0  0  0  0  0  0
    7.9424   -1.1994    0.2280 H   0  0  0  0  0  0  0  0  0  0  0  0
    8.0436    0.4227    0.9337 H   0  0  0  0  0  0  0  0  0  0  0  0
   -1.5520   -1.7353    0.9233 H   0  0  0  0  0  0  0  0  0  0  0  0
   -1.4034   -2.0716   -0.8144 H   0  0  0  0  0  0  0  0  0  0  0  0
    1.3415    0.0798    2.1459 H   0  0  0  0  0  0  0  0  0  0  0  0
    1.9039    1.4918    1.2220 H   0  0  0  0  0  0  0  0  0  0  0  0
    2.9611   -1.2386    1.2482 H   0  0  0  0  0  0  0  0  0  0  0  0
   -3.2606    1.2382    0.1744 H   0  0  0  0  0  0  0  0  0  0  0  0
   -0.4710    2.2026   -1.0576 H   0  0  0  0  0  0  0  0  0  0  0  0
   -3.7954   -1.4220   -0.9712 H   0  0  0  0  0  0  0  0  0  0  0  0
   -3.9155    0.1173   -1.8242 H   0  0  0  0  0  0  0  0  0  0  0  0
   -5.6837    1.9751   -0.2366 H   0  0  0  0  0  0  0  0  0  0  0  0
   -8.1810    1.5249    0.5203 H   0  0  0  0  0  0  0  0  0  0  0  0
   -8.7022   -1.0551    0.5838 H   0  0  0  0  0  0  0  0  0  0  0  0
  1 19  1  0  0  0  0
  1 22  1  0  0  0  0
  2  7  1  0  0  0  0
  2 15  1  0  0  0  0
  3  8  1  0  0  0  0
  3 41  1  0  0  0  0
  4 17  2  0  0  0  0
  5 16  1  0  0  0  0
  5 17  1  0  0  0  0
  5 39  1  0  0  0  0
  6  9  1  0  0  0  0
  6 18  1  0  0  0  0
  6 40  1  0  0  0  0
  7  8  1  0  0  0  0
  7 16  1  0  0  0  0
  7 23  1  0  0  0  0
  8  9  1  0  0  0  0
  8 24  1  0  0  0  0
  9 15  1  0  0  0  0
  9 25  1  0  0  0  0
 10 11  1  0  0  0  0
 10 12  1  0  0  0  0
 10 17  1  0  0  0  0
 10 26  1  0  0  0  0
 11 13  1  0  0  0  0
 11 27  1  0  0  0  0
 11 28  1  0  0  0  0
 12 14  1  0  0  0  0
 12 29  1  0  0  0  0
 12 30  1  0  0  0  0
 13 14  1  0  0  0  0
 13 31  1  0  0  0  0
 13 32  1  0  0  0  0
 14 33  1  0  0  0  0
 14 34  1  0  0  0  0
 15 35  1  0  0  0  0
 15 36  1  0  0  0  0
 16 37  1  0  0  0  0
 16 38  1  0  0  0  0
 18 19  1  0  0  0  0
 18 42  1  0  0  0  0
 18 43  1  0  0  0  0
 19 20  2  0  0  0  0
 20 21  1  0  0  0  0
 20 44  1  0  0  0  0
 21 22  2  0  0  0  0
 21 45  1  0  0  0  0
 22 46  1  0  0  0  0
M  END
> <PUBCHEM_COMPOUND_CID>
75536571

> <PUBCHEM_CONFORMER_RMSD>
1.2

> <PUBCHEM_CONFORMER_DIVERSEORDER>
1
52
59
64
69
60
11
63
16
14
28
67
29
53
39
61
82
7
62
79
40
13
80
81
35
22
2
78
65
46
43
50
42
27
15
71
75
44
70
36
31
25
41
19
66
68
12
45
57
32
54
72
26
49
23
5
51
8
74
33
24
34
4
6
9
37
77
17
55
76
58
3
47
83
30
56
21
18
38
10
20
48
73

> <PUBCHEM_MMFF94_PARTIAL_CHARGES>
24
1 -0.08
10 0.06
15 0.28
16 0.3
17 0.57
18 0.45
19 -0.14
2 -0.56
20 -0.15
21 -0.15
22 -0.11
3 -0.68
39 0.37
4 -0.57
40 0.36
41 0.4
44 0.15
45 0.15
46 0.15
5 -0.73
6 -0.9
7 0.28
8 0.28
9 0.27

> <PUBCHEM_EFFECTIVE_ROTOR_COUNT>
9

> <PUBCHEM_PHARMACOPHORE_FEATURES>
10
1 2 acceptor
1 3 acceptor
1 3 donor
1 4 acceptor
1 5 donor
1 6 cation
1 6 donor
5 1 19 20 21 22 rings
5 10 11 12 13 14 rings
5 2 7 8 9 15 rings

> <PUBCHEM_HEAVY_ATOM_COUNT>
22

> <PUBCHEM_ATOM_DEF_STEREO_COUNT>
3

> <PUBCHEM_ATOM_UDEF_STEREO_COUNT>
0

> <PUBCHEM_BOND_DEF_STEREO_COUNT>
0

> <PUBCHEM_BOND_UDEF_STEREO_COUNT>
0

> <PUBCHEM_ISOTOPIC_ATOM_COUNT>
0

> <PUBCHEM_COMPONENT_COUNT>
1

> <PUBCHEM_CACTVS_TAUTO_COUNT>
2

> <PUBCHEM_CONFORMER_ID>
048098BB00000001

> <PUBCHEM_MMFF94_ENERGY>
33.5864

> <PUBCHEM_FEATURE_SELFOVERLAP>
50.747

> <PUBCHEM_SHAPE_FINGERPRINT>
10050765 1 18050285869070144963
10299344 5 18186801379115061051
10319688 140 16772965675085505054
11315181 36 11600002172666118655
11524674 6 16845289467085749887
11638347 137 8502379931815468052
12091667 2 16950280698882483205
12166972 35 17821449075231731061
12236239 1 17749106677743368798
13533116 47 17458616775490691586
13685833 64 17203611484540612650
13885169 127 17346604036737195185
14123256 10 14418131816250230791
14251752 14 18412824677217157845
14251764 18 18333448750663967659
14251764 46 18411417307124314071
14856354 85 18335704966664272239
14933364 13 18334858316413332677
15183329 4 18272374161053677641
15419008 47 17346874533487867441
15849732 13 18272651264128260229
18006028 8 16415759725828710777
20157964 124 16008467625805672626
21095086 128 16588022411686518963
21150785 3 17822012020884234070
21267235 1 18411139138497149737
220451 1 17822286886386662179
22224240 67 13262398873127433128
23035841 295 18334856121748393403
23559900 14 17845924247125993136
246663 6 18273500078214443815
28498 318 16271931488770624125
3004659 81 18411419527517099484
335352 9 18413105087400487175
34797466 226 16153431631798585950
4325135 7 14562529583325839131
4463277 17 18412823594832690753
5207 217 13767926819288233305
5283156 175 18261108544247906378
59682541 35 14057010433658974573
59755656 215 17846218826090251695
59755656 520 17894908555665152883
8209 1 18410573985151451138

> <PUBCHEM_SHAPE_MULTIPOLES>
429.03
24.38
1.33
0.96
5.33
0.18
0.04
-2.85
1.38
1.14
0.05
-1.19
-0.04
-0.17

> <PUBCHEM_SHAPE_SELFOVERLAP>
878.396

> <PUBCHEM_SHAPE_VOLUME>
249.2

> <PUBCHEM_COORDINATE_TYPE>
2
5
10

$$$$
