45783894
  -OEChem-12032416333D

 78 81  0     1  0  0  0  0  0999 V2000
    3.1459    2.6070   -1.7513 S   0  0  0  0  0  0  0  0  0  0  0  0
    0.1747   -4.2647    0.5125 O   0  0  0  0  0  0  0  0  0  0  0  0
    2.7149    2.6253   -3.1361 O   0  0  0  0  0  0  0  0  0  0  0  0
    4.1222    3.5697   -1.2785 O   0  0  0  0  0  0  0  0  0  0  0  0
   -1.6561    3.2034    1.6565 O   0  0  0  0  0  0  0  0  0  0  0  0
    3.6688    1.0369   -1.3462 N   0  0  0  0  0  0  0  0  0  0  0  0
   -1.2013   -2.5535   -0.2478 N   0  0  0  0  0  0  0  0  0  0  0  0
   -3.7445   -1.1716   -0.2959 N   0  0  0  0  0  0  0  0  0  0  0  0
   -5.5494   -0.2072   -1.4746 N   0  0  0  0  0  0  0  0  0  0  0  0
    2.9667   -0.5857    1.0733 C   0  0  1  0  0  0  0  0  0  0  0  0
    4.3595   -0.5357    0.3970 C   0  0  1  0  0  0  0  0  0  0  0  0
    2.5446   -2.0413    1.3248 C   0  0  0  0  0  0  0  0  0  0  0  0
    2.4853   -2.8638    0.0238 C   0  0  2  0  0  0  0  0  0  0  0  0
    2.9458    0.1954    2.3908 C   0  0  0  0  0  0  0  0  0  0  0  0
    3.7188   -2.6550   -0.8312 C   0  0  0  0  0  0  0  0  0  0  0  0
    4.5518   -1.6164   -0.6410 C   0  0  0  0  0  0  0  0  0  0  0  0
    4.6167    0.8350   -0.2393 C   0  0  0  0  0  0  0  0  0  0  0  0
    1.2100   -2.5539   -0.7680 C   0  0  0  0  0  0  0  0  0  0  0  0
    3.9341   -0.4086    3.3831 C   0  0  0  0  0  0  0  0  0  0  0  0
    1.5368    0.2159    2.9751 C   0  0  0  0  0  0  0  0  0  0  0  0
    3.9983   -3.6936   -1.8816 C   0  0  0  0  0  0  0  0  0  0  0  0
    0.0226   -3.2084   -0.1055 C   0  0  0  0  0  0  0  0  0  0  0  0
   -1.3782   -1.2934   -0.9732 C   0  0  0  0  0  0  0  0  0  0  0  0
   -2.3993   -3.1264    0.3603 C   0  0  0  0  0  0  0  0  0  0  0  0
   -2.8204   -1.0697   -1.4281 C   0  0  0  0  0  0  0  0  0  0  0  0
   -3.3780   -2.0481    0.8201 C   0  0  0  0  0  0  0  0  0  0  0  0
    1.7123    2.7827   -0.7322 C   0  0  0  0  0  0  0  0  0  0  0  0
   -4.9559   -0.4843   -0.2921 C   0  0  0  0  0  0  0  0  0  0  0  0
    0.4621    2.3957   -1.2151 C   0  0  0  0  0  0  0  0  0  0  0  0
    1.8305    3.3111    0.5533 C   0  0  0  0  0  0  0  0  0  0  0  0
   -5.4777   -0.1260    0.9406 C   0  0  0  0  0  0  0  0  0  0  0  0
   -0.6697    2.5370   -0.4124 C   0  0  0  0  0  0  0  0  0  0  0  0
    0.6986    3.4526    1.3559 C   0  0  0  0  0  0  0  0  0  0  0  0
   -0.5515    3.0654    0.8732 C   0  0  0  0  0  0  0  0  0  0  0  0
   -6.6865    0.5608    0.9606 C   0  0  0  0  0  0  0  0  0  0  0  0
   -6.7229    0.4616   -1.4155 C   0  0  0  0  0  0  0  0  0  0  0  0
   -7.3274    0.8640   -0.2356 C   0  0  0  0  0  0  0  0  0  0  0  0
   -2.9025    2.7878    1.0998 C   0  0  0  0  0  0  0  0  0  0  0  0
    2.2231   -0.1291    0.4099 H   0  0  0  0  0  0  0  0  0  0  0  0
    5.1590   -0.7110    1.1211 H   0  0  0  0  0  0  0  0  0  0  0  0
    3.2698   -2.5439    1.9758 H   0  0  0  0  0  0  0  0  0  0  0  0
    1.5772   -2.1076    1.8306 H   0  0  0  0  0  0  0  0  0  0  0  0
    2.4946   -3.9204    0.3241 H   0  0  0  0  0  0  0  0  0  0  0  0
    3.2366    1.2349    2.2089 H   0  0  0  0  0  0  0  0  0  0  0  0
    5.4476   -1.5422   -1.2547 H   0  0  0  0  0  0  0  0  0  0  0  0
    5.6329    0.8798   -0.6491 H   0  0  0  0  0  0  0  0  0  0  0  0
    4.5320    1.6312    0.5042 H   0  0  0  0  0  0  0  0  0  0  0  0
    1.0942   -1.4729   -0.8571 H   0  0  0  0  0  0  0  0  0  0  0  0
    1.2530   -2.9613   -1.7844 H   0  0  0  0  0  0  0  0  0  0  0  0
    3.7027   -1.4387    3.6655 H   0  0  0  0  0  0  0  0  0  0  0  0
    3.8918    0.1679    4.3165 H   0  0  0  0  0  0  0  0  0  0  0  0
    4.9748   -0.3518    3.0597 H   0  0  0  0  0  0  0  0  0  0  0  0
    1.2605   -0.7325    3.4464 H   0  0  0  0  0  0  0  0  0  0  0  0
    0.7864    0.4565    2.2157 H   0  0  0  0  0  0  0  0  0  0  0  0
    1.4700    0.9817    3.7565 H   0  0  0  0  0  0  0  0  0  0  0  0
    4.0435   -4.6895   -1.4289 H   0  0  0  0  0  0  0  0  0  0  0  0
    4.9548   -3.5203   -2.3866 H   0  0  0  0  0  0  0  0  0  0  0  0
    3.2191   -3.6947   -2.6490 H   0  0  0  0  0  0  0  0  0  0  0  0
    3.6635    0.3259   -2.0874 H   0  0  0  0  0  0  0  0  0  0  0  0
   -1.0625   -0.4935   -0.2940 H   0  0  0  0  0  0  0  0  0  0  0  0
   -0.7301   -1.2723   -1.8544 H   0  0  0  0  0  0  0  0  0  0  0  0
   -2.8644   -3.7677   -0.3985 H   0  0  0  0  0  0  0  0  0  0  0  0
   -2.1232   -3.7675    1.2043 H   0  0  0  0  0  0  0  0  0  0  0  0
   -2.8852   -0.0791   -1.8945 H   0  0  0  0  0  0  0  0  0  0  0  0
   -3.0988   -1.8139   -2.1841 H   0  0  0  0  0  0  0  0  0  0  0  0
   -4.2608   -2.5525    1.2317 H   0  0  0  0  0  0  0  0  0  0  0  0
   -2.9177   -1.4502    1.6166 H   0  0  0  0  0  0  0  0  0  0  0  0
    0.3503    1.9746   -2.2103 H   0  0  0  0  0  0  0  0  0  0  0  0
    2.7943    3.6142    0.9521 H   0  0  0  0  0  0  0  0  0  0  0  0
   -4.9846   -0.3339    1.8837 H   0  0  0  0  0  0  0  0  0  0  0  0
   -1.6089    2.2152   -0.8490 H   0  0  0  0  0  0  0  0  0  0  0  0
    0.7972    3.8623    2.3574 H   0  0  0  0  0  0  0  0  0  0  0  0
   -7.1260    0.8641    1.9061 H   0  0  0  0  0  0  0  0  0  0  0  0
   -7.1818    0.6741   -2.3754 H   0  0  0  0  0  0  0  0  0  0  0  0
   -8.2697    1.3998   -0.2439 H   0  0  0  0  0  0  0  0  0  0  0  0
   -3.1729    3.3872    0.2240 H   0  0  0  0  0  0  0  0  0  0  0  0
   -2.9034    1.7146    0.8847 H   0  0  0  0  0  0  0  0  0  0  0  0
   -3.6717    2.9632    1.8589 H   0  0  0  0  0  0  0  0  0  0  0  0
  1  3  2  0  0  0  0
  1  4  2  0  0  0  0
  1  6  1  0  0  0  0
  1 27  1  0  0  0  0
  2 22  2  0  0  0  0
  5 34  1  0  0  0  0
  5 38  1  0  0  0  0
  6 17  1  0  0  0  0
  6 59  1  0  0  0  0
  7 22  1  0  0  0  0
  7 23  1  0  0  0  0
  7 24  1  0  0  0  0
  8 25  1  0  0  0  0
  8 26  1  0  0  0  0
  8 28  1  0  0  0  0
  9 28  1  0  0  0  0
  9 36  2  0  0  0  0
 10 11  1  0  0  0  0
 10 12  1  0  0  0  0
 10 14  1  0  0  0  0
 10 39  1  0  0  0  0
 11 16  1  0  0  0  0
 11 17  1  0  0  0  0
 11 40  1  0  0  0  0
 12 13  1  0  0  0  0
 12 41  1  0  0  0  0
 12 42  1  0  0  0  0
 13 15  1  0  0  0  0
 13 18  1  0  0  0  0
 13 43  1  0  0  0  0
 14 19  1  0  0  0  0
 14 20  1  0  0  0  0
 14 44  1  0  0  0  0
 15 16  2  0  0  0  0
 15 21  1  0  0  0  0
 16 45  1  0  0  0  0
 17 46  1  0  0  0  0
 17 47  1  0  0  0  0
 18 22  1  0  0  0  0
 18 48  1  0  0  0  0
 18 49  1  0  0  0  0
 19 50  1  0  0  0  0
 19 51  1  0  0  0  0
 19 52  1  0  0  0  0
 20 53  1  0  0  0  0
 20 54  1  0  0  0  0
 20 55  1  0  0  0  0
 21 56  1  0  0  0  0
 21 57  1  0  0  0  0
 21 58  1  0  0  0  0
 23 25  1  0  0  0  0
 23 60  1  0  0  0  0
 23 61  1  0  0  0  0
 24 26  1  0  0  0  0
 24 62  1  0  0  0  0
 24 63  1  0  0  0  0
 25 64  1  0  0  0  0
 25 65  1  0  0  0  0
 26 66  1  0  0  0  0
 26 67  1  0  0  0  0
 27 29  2  0  0  0  0
 27 30  1  0  0  0  0
 28 31  2  0  0  0  0
 29 32  1  0  0  0  0
 29 68  1  0  0  0  0
 30 33  2  0  0  0  0
 30 69  1  0  0  0  0
 31 35  1  0  0  0  0
 31 70  1  0  0  0  0
 32 34  2  0  0  0  0
 32 71  1  0  0  0  0
 33 34  1  0  0  0  0
 33 72  1  0  0  0  0
 35 37  2  0  0  0  0
 35 73  1  0  0  0  0
 36 37  1  0  0  0  0
 36 74  1  0  0  0  0
 37 75  1  0  0  0  0
 38 76  1  0  0  0  0
 38 77  1  0  0  0  0
 38 78  1  0  0  0  0
M  END
> <PUBCHEM_COMPOUND_CID>
45783894

> <PUBCHEM_CONFORMER_RMSD>
1.4

> <PUBCHEM_CONFORMER_DIVERSEORDER>
1
31
86
48
121
67
145
75
104
59
125
114
116
33
140
150
144
44
50
4
53
23
66
18
142
117
34
82
105
98
74
141
129
85
57
91
58
94
135
112
106
54
131
72
110
41
25
143
80
146
70
45
102
147
90
47
92
40
100
26
132
35
84
130
122
113
118
76
151
83
81
139
97
5
43
46
123
56
37
101
38
93
8
27
79
152
148
65
89
15
77
32
52
115
68
21
134
22
126
133
17
28
128
12
69
107
64
62
120
87
13
9
51
78
42
61
49
138
29
119
10
14
95
109
16
11
111
149
71
127
7
136
20
137
124
108
63
19
24
60
6
88
39
103
99
96
30
3
55
2
73
36

> <PUBCHEM_MMFF94_PARTIAL_CHARGES>
43
1 1.45
11 0.14
13 0.14
15 -0.28
16 -0.29
17 0.36
18 0.06
2 -0.57
21 0.14
22 0.57
23 0.3
24 0.3
25 0.37
26 0.37
27 -0.01
28 0.41
29 -0.15
3 -0.65
30 -0.15
31 -0.15
32 -0.15
33 -0.15
34 0.08
35 -0.15
36 0.16
37 -0.15
38 0.28
4 -0.65
45 0.15
5 -0.36
59 0.42
6 -0.91
68 0.15
69 0.15
7 -0.66
70 0.15
71 0.15
72 0.15
73 0.15
74 0.15
75 0.15
8 -0.84
9 -0.62

> <PUBCHEM_EFFECTIVE_ROTOR_COUNT>
12

> <PUBCHEM_PHARMACOPHORE_FEATURES>
12
1 2 acceptor
1 3 acceptor
1 4 acceptor
1 5 acceptor
1 6 donor
1 8 cation
1 9 acceptor
3 14 19 20 hydrophobe
6 10 11 12 13 15 16 rings
6 27 29 30 32 33 34 rings
6 7 8 23 24 25 26 rings
6 9 28 31 35 36 37 rings

> <PUBCHEM_HEAVY_ATOM_COUNT>
38

> <PUBCHEM_ATOM_DEF_STEREO_COUNT>
3

> <PUBCHEM_ATOM_UDEF_STEREO_COUNT>
0

> <PUBCHEM_BOND_DEF_STEREO_COUNT>
0

> <PUBCHEM_BOND_UDEF_STEREO_COUNT>
0

> <PUBCHEM_ISOTOPIC_ATOM_COUNT>
0

> <PUBCHEM_COMPONENT_COUNT>
1

> <PUBCHEM_CACTVS_TAUTO_COUNT>
1

> <PUBCHEM_CONFORMER_ID>
02BA9B5600000001

> <PUBCHEM_MMFF94_ENERGY>
101.4225

> <PUBCHEM_FEATURE_SELFOVERLAP>
60.916

> <PUBCHEM_SHAPE_FINGERPRINT>
10006869 2 18052526674395774175
10483366 6 18339096960009211118
10675989 125 18338801224998155724
11093857 51 18342742940013502206
11513181 2 18059864908966489310
12156800 1 16054380941256642746
12788726 201 18129677373206662173
13111901 25 18128552475087457953
14040221 178 16483562334706034083
15001296 14 18335145323007435045
15210252 30 18334576854411376454
15297060 5 18128826424695227800
15351339 4 18339359781431368889
15406563 185 17561095725802489033
15840311 113 17560794383002723723
20587220 17 16414610732009286185
20764821 26 18339917242274232167
21987440 362 17980187910244893808
23559900 14 18413390921543033255
338550 245 18339086986325444517
394071 54 18333733511580817015
45266715 3 17697570519699480285
513532 50 17346877892151733332
5265222 85 17541118874856818957

> <PUBCHEM_SHAPE_MULTIPOLES>
742.47
13.3
5.63
2.41
24.77
0.46
-0.91
-0.93
1.84
-4.17
1.03
-2.67
0.97
-0.97

> <PUBCHEM_SHAPE_SELFOVERLAP>
1545.095

> <PUBCHEM_SHAPE_VOLUME>
425

> <PUBCHEM_COORDINATE_TYPE>
2
5
10

$$$$
