75536526
  -OEChem-12032416313D

 50 51  0     1  0  0  0  0  0999 V2000
    1.1488    0.1950    0.0120 O   0  0  0  0  0  0  0  0  0  0  0  0
   -0.5429   -2.9327    0.5230 O   0  0  0  0  0  0  0  0  0  0  0  0
    3.4758    0.5025   -1.9161 O   0  0  0  0  0  0  0  0  0  0  0  0
   -2.4275   -0.4694    0.0162 N   0  0  0  0  0  0  0  0  0  0  0  0
    3.5081   -1.3700   -0.5399 N   0  0  0  0  0  0  0  0  0  0  0  0
   -6.9690   -0.0947    0.6214 N   0  0  0  0  0  0  0  0  0  0  0  0
   -1.0561   -0.5460    0.4927 C   0  0  1  0  0  0  0  0  0  0  0  0
   -0.2670   -1.6959   -0.1054 C   0  0  1  0  0  0  0  0  0  0  0  0
    1.1618   -1.2355    0.1505 C   0  0  1  0  0  0  0  0  0  0  0  0
   -0.2154    0.6476    0.0702 C   0  0  0  0  0  0  0  0  0  0  0  0
    2.1680   -1.8356   -0.8152 C   0  0  0  0  0  0  0  0  0  0  0  0
    5.6064    0.9711    0.5548 C   0  0  0  0  0  0  0  0  0  0  0  0
    5.4782    0.0356   -0.6710 C   0  0  0  0  0  0  0  0  0  0  0  0
   -3.2256    0.4184    0.8534 C   0  0  0  0  0  0  0  0  0  0  0  0
    4.0504   -0.2344   -1.1172 C   0  0  0  0  0  0  0  0  0  0  0  0
    7.0814    1.1989    0.9257 C   0  0  0  0  0  0  0  0  0  0  0  0
    4.9818    2.3308    0.1848 C   0  0  0  0  0  0  0  0  0  0  0  0
    4.8576    0.4082    1.7738 C   0  0  0  0  0  0  0  0  0  0  0  0
   -4.6458    0.5231    0.3648 C   0  0  0  0  0  0  0  0  0  0  0  0
   -4.9659    1.2937   -0.7475 C   0  0  0  0  0  0  0  0  0  0  0  0
   -5.6746   -0.1455    1.0085 C   0  0  0  0  0  0  0  0  0  0  0  0
   -6.2864    1.3708   -1.1761 C   0  0  0  0  0  0  0  0  0  0  0  0
   -7.2419    0.6642   -0.4636 C   0  0  0  0  0  0  0  0  0  0  0  0
   -1.0398   -0.6557    1.5864 H   0  0  0  0  0  0  0  0  0  0  0  0
   -0.4650   -1.7935   -1.1800 H   0  0  0  0  0  0  0  0  0  0  0  0
    1.4679   -1.4611    1.1806 H   0  0  0  0  0  0  0  0  0  0  0  0
   -0.4780    1.0092   -0.9307 H   0  0  0  0  0  0  0  0  0  0  0  0
   -0.2891    1.4856    0.7699 H   0  0  0  0  0  0  0  0  0  0  0  0
    2.1790   -2.9274   -0.7365 H   0  0  0  0  0  0  0  0  0  0  0  0
    1.9194   -1.5634   -1.8473 H   0  0  0  0  0  0  0  0  0  0  0  0
   -2.8401   -1.4025    0.0377 H   0  0  0  0  0  0  0  0  0  0  0  0
    4.0642   -1.9072    0.1185 H   0  0  0  0  0  0  0  0  0  0  0  0
    5.9708   -0.9219   -0.4569 H   0  0  0  0  0  0  0  0  0  0  0  0
    6.0128    0.4596   -1.5312 H   0  0  0  0  0  0  0  0  0  0  0  0
   -0.3662   -2.8384    1.4744 H   0  0  0  0  0  0  0  0  0  0  0  0
   -2.7990    1.4294    0.8684 H   0  0  0  0  0  0  0  0  0  0  0  0
   -3.2266    0.0664    1.8932 H   0  0  0  0  0  0  0  0  0  0  0  0
    7.1803    1.8843    1.7749 H   0  0  0  0  0  0  0  0  0  0  0  0
    7.6379    1.6264    0.0842 H   0  0  0  0  0  0  0  0  0  0  0  0
    7.5649    0.2546    1.1997 H   0  0  0  0  0  0  0  0  0  0  0  0
    5.1298    3.0595    0.9906 H   0  0  0  0  0  0  0  0  0  0  0  0
    5.4388    2.7457   -0.7207 H   0  0  0  0  0  0  0  0  0  0  0  0
    3.9019    2.2584    0.0180 H   0  0  0  0  0  0  0  0  0  0  0  0
    3.7773    0.3524    1.6055 H   0  0  0  0  0  0  0  0  0  0  0  0
    5.2159   -0.5962    2.0246 H   0  0  0  0  0  0  0  0  0  0  0  0
    5.0102    1.0427    2.6546 H   0  0  0  0  0  0  0  0  0  0  0  0
   -4.1953    1.8376   -1.2868 H   0  0  0  0  0  0  0  0  0  0  0  0
   -5.4890   -0.7644    1.8809 H   0  0  0  0  0  0  0  0  0  0  0  0
   -6.5592    1.9653   -2.0405 H   0  0  0  0  0  0  0  0  0  0  0  0
   -8.2861    0.6913   -0.7572 H   0  0  0  0  0  0  0  0  0  0  0  0
  1  9  1  0  0  0  0
  1 10  1  0  0  0  0
  2  8  1  0  0  0  0
  2 35  1  0  0  0  0
  3 15  2  0  0  0  0
  4  7  1  0  0  0  0
  4 14  1  0  0  0  0
  4 31  1  0  0  0  0
  5 11  1  0  0  0  0
  5 15  1  0  0  0  0
  5 32  1  0  0  0  0
  6 21  1  0  0  0  0
  6 23  2  0  0  0  0
  7  8  1  0  0  0  0
  7 10  1  0  0  0  0
  7 24  1  0  0  0  0
  8  9  1  0  0  0  0
  8 25  1  0  0  0  0
  9 11  1  0  0  0  0
  9 26  1  0  0  0  0
 10 27  1  0  0  0  0
 10 28  1  0  0  0  0
 11 29  1  0  0  0  0
 11 30  1  0  0  0  0
 12 13  1  0  0  0  0
 12 16  1  0  0  0  0
 12 17  1  0  0  0  0
 12 18  1  0  0  0  0
 13 15  1  0  0  0  0
 13 33  1  0  0  0  0
 13 34  1  0  0  0  0
 14 19  1  0  0  0  0
 14 36  1  0  0  0  0
 14 37  1  0  0  0  0
 16 38  1  0  0  0  0
 16 39  1  0  0  0  0
 16 40  1  0  0  0  0
 17 41  1  0  0  0  0
 17 42  1  0  0  0  0
 17 43  1  0  0  0  0
 18 44  1  0  0  0  0
 18 45  1  0  0  0  0
 18 46  1  0  0  0  0
 19 20  1  0  0  0  0
 19 21  2  0  0  0  0
 20 22  2  0  0  0  0
 20 47  1  0  0  0  0
 21 48  1  0  0  0  0
 22 23  1  0  0  0  0
 22 49  1  0  0  0  0
 23 50  1  0  0  0  0
M  END
> <PUBCHEM_COMPOUND_CID>
75536526

> <PUBCHEM_CONFORMER_RMSD>
1.2

> <PUBCHEM_CONFORMER_DIVERSEORDER>
1
60
30
68
56
51
40
87
18
71
11
36
75
10
50
63
22
19
52
59
85
80
2
24
65
37
82
13
8
88
28
78
49
39
57
15
38
5
73
31
34
58
12
25
66
55
44
33
61
47
76
53
23
16
41
54
26
29
83
74
4
48
67
86
69
20
45
21
32
14
9
70
27
46
79
7
42
81
43
6
77
64
62
35
84
17
3
72

> <PUBCHEM_MMFF94_PARTIAL_CHARGES>
26
1 -0.56
10 0.28
11 0.3
13 0.06
14 0.41
15 0.57
19 -0.14
2 -0.68
20 -0.15
21 0.16
22 -0.15
23 0.16
3 -0.57
31 0.36
32 0.37
35 0.4
4 -0.9
47 0.15
48 0.15
49 0.15
5 -0.73
50 0.15
6 -0.62
7 0.27
8 0.28
9 0.28

> <PUBCHEM_EFFECTIVE_ROTOR_COUNT>
9

> <PUBCHEM_PHARMACOPHORE_FEATURES>
11
1 1 acceptor
1 2 acceptor
1 2 donor
1 3 acceptor
1 4 cation
1 4 donor
1 5 donor
1 6 acceptor
4 12 16 17 18 hydrophobe
5 1 7 8 9 10 rings
6 6 19 20 21 22 23 rings

> <PUBCHEM_HEAVY_ATOM_COUNT>
23

> <PUBCHEM_ATOM_DEF_STEREO_COUNT>
3

> <PUBCHEM_ATOM_UDEF_STEREO_COUNT>
0

> <PUBCHEM_BOND_DEF_STEREO_COUNT>
0

> <PUBCHEM_BOND_UDEF_STEREO_COUNT>
0

> <PUBCHEM_ISOTOPIC_ATOM_COUNT>
0

> <PUBCHEM_COMPONENT_COUNT>
1

> <PUBCHEM_CACTVS_TAUTO_COUNT>
2

> <PUBCHEM_CONFORMER_ID>
0480988E00000001

> <PUBCHEM_MMFF94_ENERGY>
51.0469

> <PUBCHEM_FEATURE_SELFOVERLAP>
55.822

> <PUBCHEM_SHAPE_FINGERPRINT>
10 15 18113339742761121489
10299344 5 14549020974961405813
10638233 991 16917348134648898873
10666366 153 9583524196817342795
10835480 77 18335978659028562037
11524674 6 8430309139739113681
11646440 116 18341059570146613433
11719270 70 18114180804843052907
12236239 1 17346604032790159875
13533116 47 18271249305536629166
13673619 4 11746929881115294278
13685833 64 7997972375597984516
13914758 101 12757141378007045119
14123256 34 9655576331102511013
14216079 64 7925638799419464225
14251732 14 13039189208063846962
14251764 18 14851607682995093060
14347424 109 14779266428016317308
14461889 52 18187091680223627075
14528608 73 17203326702175281600
14681490 219 16917067754456670257
14767858 380 17346878948861368201
15183329 4 15410895162889000993
16079462 125 18260827086086950973
173720 79 17821727230229843498
20157964 124 18131917044638780614
20567600 254 18410292506317792050
20715895 44 18411419536007008648
21150785 3 16200147707630227453
21521721 280 18202569475390264851
220451 1 14405188344309894983
2297311 6 12751239195104317667
23016692 55 11239998957790007586
23035841 295 13039185897044923429
23081809 10 16702306702792489355
23424782 7 17845931939950723959
23559900 14 17775277309590188393
249999 5 18188205377996915666
2767999 5 18408323284923461149
2916195 48 18408041810199730635
300161 21 18411417310818278071
312425 54 14129066957870432512
335352 9 18272658935752234158
3472631 163 18341612668077540516
34797466 226 17060345110445413597
4072396 5 17385443206830277850
4325135 7 16702301252162654940
4340502 62 18334859407061076462
439807 62 10231772084451759640
465052 167 8934998174878816040
5104073 3 18041848286164717921
53917941 68 18411694417992921735
54039377 194 11675139456061768864
543368 44 18060138726628115193
8863177 126 11671194459258072997

> <PUBCHEM_SHAPE_MULTIPOLES>
440.78
20.43
1.94
1.26
12.84
0.73
-0.1
-11.27
0.78
-1.44
-0.03
-0.69
-0.16
1.61

> <PUBCHEM_SHAPE_SELFOVERLAP>
898.675

> <PUBCHEM_SHAPE_VOLUME>
256.1

> <PUBCHEM_COORDINATE_TYPE>
2
5
10

$$$$
