56775446
  -OEChem-12032416323D

 44 46  0     0  0  0  0  0  0999 V2000
   -0.8754   -3.6110    0.6284 O   0  0  0  0  0  0  0  0  0  0  0  0
    2.3615    1.5463    0.0642 O   0  0  0  0  0  0  0  0  0  0  0  0
   -1.4367   -0.6538    0.3228 N   0  0  0  0  0  0  0  0  0  0  0  0
    1.2174    1.0419   -0.5422 N   0  0  0  0  0  0  0  0  0  0  0  0
    5.6872    0.5332    0.1167 N   0  0  0  0  0  0  0  0  0  0  0  0
   -4.7420    2.5438    0.3230 N   0  0  0  0  0  0  0  0  0  0  0  0
   -0.5517   -1.6775   -0.2158 C   0  0  0  0  0  0  0  0  0  0  0  0
    0.0023   -2.5049    0.9387 C   0  0  0  0  0  0  0  0  0  0  0  0
   -1.3760   -2.9188   -0.5381 C   0  0  0  0  0  0  0  0  0  0  0  0
    0.4172   -1.1337   -1.2742 C   0  0  0  0  0  0  0  0  0  0  0  0
    1.4404   -0.2699   -0.6638 C   0  0  0  0  0  0  0  0  0  0  0  0
   -2.1724   -0.0143   -0.7653 C   0  0  0  0  0  0  0  0  0  0  0  0
    2.6959   -0.6470   -0.1567 C   0  0  0  0  0  0  0  0  0  0  0  0
   -3.4714    0.5805   -0.2900 C   0  0  0  0  0  0  0  0  0  0  0  0
    3.2344    0.5312    0.2887 C   0  0  0  0  0  0  0  0  0  0  0  0
    4.5387    0.8989    0.9449 C   0  0  0  0  0  0  0  0  0  0  0  0
   -4.5737   -0.2246   -0.0254 C   0  0  0  0  0  0  0  0  0  0  0  0
   -3.6059    1.9466   -0.1018 C   0  0  0  0  0  0  0  0  0  0  0  0
   -5.7602    0.3530    0.4132 C   0  0  0  0  0  0  0  0  0  0  0  0
    6.8994    0.4529    0.9309 C   0  0  0  0  0  0  0  0  0  0  0  0
    5.8630    1.4979   -0.9682 C   0  0  0  0  0  0  0  0  0  0  0  0
   -5.7922    1.7292    0.5701 C   0  0  0  0  0  0  0  0  0  0  0  0
    1.0453   -2.8242    0.8517 H   0  0  0  0  0  0  0  0  0  0  0  0
   -0.1658   -2.1324    1.9549 H   0  0  0  0  0  0  0  0  0  0  0  0
   -2.4676   -2.8443   -0.5084 H   0  0  0  0  0  0  0  0  0  0  0  0
   -1.0889   -3.4494   -1.4524 H   0  0  0  0  0  0  0  0  0  0  0  0
   -0.0898   -0.6308   -2.1048 H   0  0  0  0  0  0  0  0  0  0  0  0
    0.9309   -1.9839   -1.7452 H   0  0  0  0  0  0  0  0  0  0  0  0
   -0.9752    0.0582    0.8882 H   0  0  0  0  0  0  0  0  0  0  0  0
   -2.4235   -0.7091   -1.5780 H   0  0  0  0  0  0  0  0  0  0  0  0
   -1.5681    0.7794   -1.2213 H   0  0  0  0  0  0  0  0  0  0  0  0
    3.1464   -1.6279   -0.1202 H   0  0  0  0  0  0  0  0  0  0  0  0
    4.5516    1.9628    1.2153 H   0  0  0  0  0  0  0  0  0  0  0  0
    4.5639    0.3396    1.8902 H   0  0  0  0  0  0  0  0  0  0  0  0
   -4.5209   -1.3015   -0.1579 H   0  0  0  0  0  0  0  0  0  0  0  0
   -2.7815    2.6278   -0.2890 H   0  0  0  0  0  0  0  0  0  0  0  0
   -6.6321   -0.2550    0.6254 H   0  0  0  0  0  0  0  0  0  0  0  0
    7.7574    0.1584    0.3161 H   0  0  0  0  0  0  0  0  0  0  0  0
    7.1348    1.4066    1.4172 H   0  0  0  0  0  0  0  0  0  0  0  0
    6.7948   -0.3144    1.7061 H   0  0  0  0  0  0  0  0  0  0  0  0
    6.0507    2.5122   -0.5968 H   0  0  0  0  0  0  0  0  0  0  0  0
    6.7077    1.2070   -1.6032 H   0  0  0  0  0  0  0  0  0  0  0  0
    4.9848    1.5273   -1.6224 H   0  0  0  0  0  0  0  0  0  0  0  0
   -6.6937    2.2285    0.9099 H   0  0  0  0  0  0  0  0  0  0  0  0
  1  8  1  0  0  0  0
  1  9  1  0  0  0  0
  2  4  1  0  0  0  0
  2 15  1  0  0  0  0
  3  7  1  0  0  0  0
  3 12  1  0  0  0  0
  3 29  1  0  0  0  0
  4 11  2  0  0  0  0
  5 16  1  0  0  0  0
  5 20  1  0  0  0  0
  5 21  1  0  0  0  0
  6 18  1  0  0  0  0
  6 22  2  0  0  0  0
  7  8  1  0  0  0  0
  7  9  1  0  0  0  0
  7 10  1  0  0  0  0
  8 23  1  0  0  0  0
  8 24  1  0  0  0  0
  9 25  1  0  0  0  0
  9 26  1  0  0  0  0
 10 11  1  0  0  0  0
 10 27  1  0  0  0  0
 10 28  1  0  0  0  0
 11 13  1  0  0  0  0
 12 14  1  0  0  0  0
 12 30  1  0  0  0  0
 12 31  1  0  0  0  0
 13 15  2  0  0  0  0
 13 32  1  0  0  0  0
 14 17  1  0  0  0  0
 14 18  2  0  0  0  0
 15 16  1  0  0  0  0
 16 33  1  0  0  0  0
 16 34  1  0  0  0  0
 17 19  2  0  0  0  0
 17 35  1  0  0  0  0
 18 36  1  0  0  0  0
 19 22  1  0  0  0  0
 19 37  1  0  0  0  0
 20 38  1  0  0  0  0
 20 39  1  0  0  0  0
 20 40  1  0  0  0  0
 21 41  1  0  0  0  0
 21 42  1  0  0  0  0
 21 43  1  0  0  0  0
 22 44  1  0  0  0  0
M  END
> <PUBCHEM_COMPOUND_CID>
56775446

> <PUBCHEM_CONFORMER_RMSD>
1

> <PUBCHEM_CONFORMER_DIVERSEORDER>
3
77
81
57
9
40
63
23
88
56
84
71
62
73
27
60
83
38
13
98
31
34
36
91
19
64
18
97
65
89
12
20
96
45
66
50
87
70
74
14
11
46
22
10
32
94
69
93
17
41
72
55
53
28
42
37
80
25
24
92
68
86
15
33
76
43
16
95
61
82
35
51
7
21
47
79
49
67
44
26
6
59
58
8
85
5
39
54
48
75
90
1
78
30
4
29
2
52

> <PUBCHEM_MMFF94_PARTIAL_CHARGES>
28
1 -0.52
10 0.18
11 0.11
12 0.41
13 -0.15
14 -0.14
15 -0.04
16 0.45
17 -0.15
18 0.16
19 -0.15
2 -0.02
20 0.27
21 0.27
22 0.16
29 0.36
3 -0.84
32 0.15
35 0.15
36 0.15
37 0.15
4 -0.41
44 0.15
5 -0.81
6 -0.62
7 0.21
8 0.26
9 0.26

> <PUBCHEM_EFFECTIVE_ROTOR_COUNT>
7.8

> <PUBCHEM_PHARMACOPHORE_FEATURES>
9
1 1 acceptor
1 3 cation
1 3 donor
1 4 acceptor
1 5 cation
1 6 acceptor
4 1 7 8 9 rings
5 2 4 11 13 15 rings
6 6 14 17 18 19 22 rings

> <PUBCHEM_HEAVY_ATOM_COUNT>
22

> <PUBCHEM_ATOM_DEF_STEREO_COUNT>
0

> <PUBCHEM_ATOM_UDEF_STEREO_COUNT>
0

> <PUBCHEM_BOND_DEF_STEREO_COUNT>
0

> <PUBCHEM_BOND_UDEF_STEREO_COUNT>
0

> <PUBCHEM_ISOTOPIC_ATOM_COUNT>
0

> <PUBCHEM_COMPONENT_COUNT>
1

> <PUBCHEM_CACTVS_TAUTO_COUNT>
1

> <PUBCHEM_CONFORMER_ID>
0362531600000003

> <PUBCHEM_MMFF94_ENERGY>
50.9819

> <PUBCHEM_FEATURE_SELFOVERLAP>
45.671

> <PUBCHEM_SHAPE_FINGERPRINT>
10493431 412 18408039610849551007
10692045 39 18268982099554025290
11646440 116 17988650713430198057
11823591 26 18410565163726455631
12107183 9 18334568028590946954
12390115 104 18341624719439294435
12403259 415 18189055296231384261
12516196 113 12612754622610535109
12596602 18 17168144554716589625
12788726 201 17682981133727154099
12892183 10 16515957060726495093
13583140 156 16298651850735257269
13685833 64 8286191760933972517
13740256 8 8286195054735707221
14123256 34 10665233622331218904
14178000 29 8862649210307188611
14466204 15 18337669720063903305
15238133 3 18410015455410909428
15927050 60 18410573981168973990
18222031 100 9439395805268116335
200 152 12535352315635284790
20567600 254 18410283697519229117
20621476 66 18341614845483956900
21279426 13 18199472069661998300
212916 134 18341034285842550858
21403212 168 18262226742513457114
21756936 100 18343011216249588095
22224240 67 18409166611011761345
23402539 116 18271800254876171709
23558518 356 17827361299598794478
23559900 14 18411990152993999142
23622692 88 17821727260410613982
25147074 1 17605565559328408438
2838139 119 18059847376873030244
2916195 48 18201996642384675441
3009799 131 13758069701908715226
3411729 13 18262799549448789715
3633792 109 15195297383066195908
392239 28 18337403746446531859
46194498 28 12318863918335136227
474 4 18408890607744400989
5104073 3 18190751830447536953
5385378 56 18338802199723201147
56616090 46 18411986849536218886
59682541 35 18411990191579749857
59682541 52 16629975317453329540
59755656 520 18410288120755535871
6328613 192 18335987579601990740
7226269 152 18131347514368480064
7364860 26 18050571742674122295
77188 2 17113537013718854687
7808743 9 18412541020428579555
9981440 41 18334582322057738883

> <PUBCHEM_SHAPE_MULTIPOLES>
421.09
14.81
2.91
0.98
9.2
2.25
0.05
-12.14
-3.03
-2.42
-0.37
0.58
0.13
-0.42

> <PUBCHEM_SHAPE_SELFOVERLAP>
883.718

> <PUBCHEM_SHAPE_VOLUME>
240.1

> <PUBCHEM_COORDINATE_TYPE>
2
5
10

$$$$
