51136839
  -OEChem-12032416223D

 66 70  0     1  0  0  0  0  0999 V2000
   -0.3596    3.8020   -1.1072 S   0  0  0  0  0  0  0  0  0  0  0  0
   -3.4605   -1.4368   -1.0708 O   0  0  0  0  0  0  0  0  0  0  0  0
    6.6025    0.9690    2.8930 O   0  0  0  0  0  0  0  0  0  0  0  0
   -1.1332    4.7728   -1.8693 O   0  0  0  0  0  0  0  0  0  0  0  0
    0.7232    4.2562   -0.2463 O   0  0  0  0  0  0  0  0  0  0  0  0
   -4.7235   -0.6082    1.4768 N   0  0  1  0  0  0  0  0  0  0  0  0
    3.4114   -0.8530   -0.5827 N   0  0  0  0  0  0  0  0  0  0  0  0
   -1.5738   -1.6499    0.1172 N   0  0  0  0  0  0  0  0  0  0  0  0
    5.5836   -0.3303    1.2579 N   0  0  0  0  0  0  0  0  0  0  0  0
   -2.4081   -1.3322   -1.9892 N   0  0  0  0  0  0  0  0  0  0  0  0
    2.6113   -1.3450   -2.7494 N   0  0  0  0  0  0  0  0  0  0  0  0
   -3.8214   -1.7671    1.3237 C   0  0  1  0  0  0  0  0  0  0  0  0
   -4.7615   -2.9793    1.1894 C   0  0  0  0  0  0  0  0  0  0  0  0
   -6.1659   -2.4123    1.3402 C   0  0  0  0  0  0  0  0  0  0  0  0
   -5.9483   -1.1163    2.0949 C   0  0  0  0  0  0  0  0  0  0  0  0
   -4.1337    0.4815    2.2437 C   0  0  0  0  0  0  0  0  0  0  0  0
   -2.8823   -1.6222    0.1446 C   0  0  0  0  0  0  0  0  0  0  0  0
   -3.1934    1.3099    1.4089 C   0  0  0  0  0  0  0  0  0  0  0  0
    4.7466   -1.4021   -0.8320 C   0  0  0  0  0  0  0  0  0  0  0  0
    3.2297    0.0261    0.5759 C   0  0  0  0  0  0  0  0  0  0  0  0
    5.5184   -1.5677    0.4772 C   0  0  0  0  0  0  0  0  0  0  0  0
    4.5552    0.6687    0.9788 C   0  0  0  0  0  0  0  0  0  0  0  0
   -1.3289   -1.4680   -1.2129 C   0  0  0  0  0  0  0  0  0  0  0  0
   -1.8585    1.4464    1.7899 C   0  0  0  0  0  0  0  0  0  0  0  0
   -3.6571    1.9407    0.2544 C   0  0  0  0  0  0  0  0  0  0  0  0
    2.3493   -1.1263   -1.4412 C   0  0  0  0  0  0  0  0  0  0  0  0
    0.0080   -1.4251   -1.7344 C   0  0  0  0  0  0  0  0  0  0  0  0
    1.0787   -1.1549   -0.8893 C   0  0  0  0  0  0  0  0  0  0  0  0
   -0.9875    2.2136    1.0168 C   0  0  0  0  0  0  0  0  0  0  0  0
   -2.7861    2.7080   -0.5189 C   0  0  0  0  0  0  0  0  0  0  0  0
   -1.4512    2.8444   -0.1377 C   0  0  0  0  0  0  0  0  0  0  0  0
    6.5460   -0.0722    2.2347 C   0  0  0  0  0  0  0  0  0  0  0  0
    0.2375   -1.6553   -3.0864 C   0  0  0  0  0  0  0  0  0  0  0  0
    1.5457   -1.6044   -3.5399 C   0  0  0  0  0  0  0  0  0  0  0  0
    7.5671   -1.1587    2.4675 C   0  0  0  0  0  0  0  0  0  0  0  0
    0.3202    2.6482   -2.2779 C   0  0  0  0  0  0  0  0  0  0  0  0
   -3.2141   -1.9167    2.2273 H   0  0  0  0  0  0  0  0  0  0  0  0
   -4.6596   -3.5240    0.2447 H   0  0  0  0  0  0  0  0  0  0  0  0
   -4.5654   -3.6868    2.0046 H   0  0  0  0  0  0  0  0  0  0  0  0
   -6.5946   -2.2113    0.3505 H   0  0  0  0  0  0  0  0  0  0  0  0
   -6.8348   -3.0983    1.8681 H   0  0  0  0  0  0  0  0  0  0  0  0
   -5.8111   -1.3177    3.1650 H   0  0  0  0  0  0  0  0  0  0  0  0
   -6.7908   -0.4299    1.9663 H   0  0  0  0  0  0  0  0  0  0  0  0
   -4.9221    1.1680    2.5835 H   0  0  0  0  0  0  0  0  0  0  0  0
   -3.6468    0.1179    3.1581 H   0  0  0  0  0  0  0  0  0  0  0  0
    5.2886   -0.7300   -1.5082 H   0  0  0  0  0  0  0  0  0  0  0  0
    4.6781   -2.3822   -1.3196 H   0  0  0  0  0  0  0  0  0  0  0  0
    2.8345   -0.5560    1.4175 H   0  0  0  0  0  0  0  0  0  0  0  0
    2.5208    0.8325    0.3502 H   0  0  0  0  0  0  0  0  0  0  0  0
    5.0276   -2.3145    1.1132 H   0  0  0  0  0  0  0  0  0  0  0  0
    6.5279   -1.9291    0.2611 H   0  0  0  0  0  0  0  0  0  0  0  0
    4.9376    1.2994    0.1667 H   0  0  0  0  0  0  0  0  0  0  0  0
    4.4097    1.3138    1.8518 H   0  0  0  0  0  0  0  0  0  0  0  0
   -1.4825    0.9568    2.6842 H   0  0  0  0  0  0  0  0  0  0  0  0
   -4.6951    1.8461   -0.0536 H   0  0  0  0  0  0  0  0  0  0  0  0
    0.9079   -0.9876    0.1694 H   0  0  0  0  0  0  0  0  0  0  0  0
    0.0503    2.2975    1.3270 H   0  0  0  0  0  0  0  0  0  0  0  0
   -3.1666    3.1852   -1.4175 H   0  0  0  0  0  0  0  0  0  0  0  0
   -0.5600   -1.8762   -3.7883 H   0  0  0  0  0  0  0  0  0  0  0  0
    1.7786   -1.7780   -4.5854 H   0  0  0  0  0  0  0  0  0  0  0  0
    8.1600   -0.9150    3.3545 H   0  0  0  0  0  0  0  0  0  0  0  0
    7.0766   -2.1196    2.6429 H   0  0  0  0  0  0  0  0  0  0  0  0
    8.2406   -1.2270    1.6094 H   0  0  0  0  0  0  0  0  0  0  0  0
   -0.4920    2.2125   -2.8628 H   0  0  0  0  0  0  0  0  0  0  0  0
    0.8669    1.8761   -1.7347 H   0  0  0  0  0  0  0  0  0  0  0  0
    1.0021    3.1930   -2.9342 H   0  0  0  0  0  0  0  0  0  0  0  0
  1  4  2  0  0  0  0
  1  5  2  0  0  0  0
  1 31  1  0  0  0  0
  1 36  1  0  0  0  0
  2 10  1  0  0  0  0
  2 17  1  0  0  0  0
  3 32  2  0  0  0  0
  6 12  1  0  0  0  0
  6 15  1  0  0  0  0
  6 16  1  0  0  0  0
  7 19  1  0  0  0  0
  7 20  1  0  0  0  0
  7 26  1  0  0  0  0
  8 17  2  0  0  0  0
  8 23  1  0  0  0  0
  9 21  1  0  0  0  0
  9 22  1  0  0  0  0
  9 32  1  0  0  0  0
 10 23  2  0  0  0  0
 11 26  2  0  0  0  0
 11 34  1  0  0  0  0
 12 13  1  0  0  0  0
 12 17  1  0  0  0  0
 12 37  1  0  0  0  0
 13 14  1  0  0  0  0
 13 38  1  0  0  0  0
 13 39  1  0  0  0  0
 14 15  1  0  0  0  0
 14 40  1  0  0  0  0
 14 41  1  0  0  0  0
 15 42  1  0  0  0  0
 15 43  1  0  0  0  0
 16 18  1  0  0  0  0
 16 44  1  0  0  0  0
 16 45  1  0  0  0  0
 18 24  2  0  0  0  0
 18 25  1  0  0  0  0
 19 21  1  0  0  0  0
 19 46  1  0  0  0  0
 19 47  1  0  0  0  0
 20 22  1  0  0  0  0
 20 48  1  0  0  0  0
 20 49  1  0  0  0  0
 21 50  1  0  0  0  0
 21 51  1  0  0  0  0
 22 52  1  0  0  0  0
 22 53  1  0  0  0  0
 23 27  1  0  0  0  0
 24 29  1  0  0  0  0
 24 54  1  0  0  0  0
 25 30  2  0  0  0  0
 25 55  1  0  0  0  0
 26 28  1  0  0  0  0
 27 28  2  0  0  0  0
 27 33  1  0  0  0  0
 28 56  1  0  0  0  0
 29 31  2  0  0  0  0
 29 57  1  0  0  0  0
 30 31  1  0  0  0  0
 30 58  1  0  0  0  0
 32 35  1  0  0  0  0
 33 34  2  0  0  0  0
 33 59  1  0  0  0  0
 34 60  1  0  0  0  0
 35 61  1  0  0  0  0
 35 62  1  0  0  0  0
 35 63  1  0  0  0  0
 36 64  1  0  0  0  0
 36 65  1  0  0  0  0
 36 66  1  0  0  0  0
M  END
> <PUBCHEM_COMPOUND_CID>
51136839

> <PUBCHEM_CONFORMER_RMSD>
1.2

> <PUBCHEM_CONFORMER_DIVERSEORDER>
1
79
164
82
73
158
78
160
66
46
165
159
4
57
115
51
88
166
120
85
134
31
143
111
128
136
131
18
144
114
127
35
96
80
7
140
153
48
39
163
132
38
146
33
148
77
112
116
69
150
9
23
87
52
83
100
156
124
74
22
147
149
123
76
105
81
145
99
102
154
157
47
56
14
167
24
107
53
162
42
108
12
67
6
97
37
50
49
3
72
68
118
91
135
75
36
70
55
137
152
89
17
40
63
27
109
28
106
133
161
8
122
60
110
62
84
151
65
2
90
58
43
141
125
101
103
20
113
119
130
41
139
15
142
45
121
10
94
19
32
26
129
138
5
44
59
155
21
104
30
98
92
34
54
61
95
93
86
71
64
117
29
25
11
16
126
13

> <PUBCHEM_MMFF94_PARTIAL_CHARGES>
41
1 1.2
10 -0.41
11 -0.62
12 0.45
15 0.27
16 0.41
17 0.3
18 -0.14
19 0.37
2 -0.02
20 0.37
21 0.3
22 0.3
23 0.46
24 -0.15
25 -0.15
26 0.41
27 0.05
28 -0.15
29 -0.15
3 -0.57
30 -0.15
31 -0.01
32 0.57
33 -0.15
34 0.16
35 0.06
36 0.11
4 -0.65
5 -0.65
54 0.15
55 0.15
56 0.15
57 0.15
58 0.15
59 0.15
6 -0.81
60 0.15
7 -0.84
8 -0.57
9 -0.66

> <PUBCHEM_EFFECTIVE_ROTOR_COUNT>
9.2

> <PUBCHEM_PHARMACOPHORE_FEATURES>
11
1 3 acceptor
1 4 acceptor
1 5 acceptor
1 6 cation
3 7 11 26 cation
3 8 10 23 cation
5 2 8 10 17 23 rings
5 6 12 13 14 15 rings
6 11 26 27 28 33 34 rings
6 18 24 25 29 30 31 rings
6 7 9 19 20 21 22 rings

> <PUBCHEM_HEAVY_ATOM_COUNT>
36

> <PUBCHEM_ATOM_DEF_STEREO_COUNT>
1

> <PUBCHEM_ATOM_UDEF_STEREO_COUNT>
0

> <PUBCHEM_BOND_DEF_STEREO_COUNT>
0

> <PUBCHEM_BOND_UDEF_STEREO_COUNT>
0

> <PUBCHEM_ISOTOPIC_ATOM_COUNT>
0

> <PUBCHEM_COMPONENT_COUNT>
1

> <PUBCHEM_CACTVS_TAUTO_COUNT>
1

> <PUBCHEM_CONFORMER_ID>
030C494700000001

> <PUBCHEM_MMFF94_ENERGY>
82.2389

> <PUBCHEM_FEATURE_SELFOVERLAP>
55.841

> <PUBCHEM_SHAPE_FINGERPRINT>
10256941 240 17611182659049970916
10674148 151 13551180091994188863
10930396 42 18336815425530689985
11112241 14 17345473687439782985
11285246 1 11241970361133376462
11595378 159 18335992956294104310
11607047 74 16242344438981511741
11963148 33 16972251440883189563
12128747 34 18122069693894399142
12166972 35 16805325530408290434
12422481 6 18201728357136297904
12655387 17 17968387767083056121
13383668 262 17034743253335414651
14068700 675 17167861976175460826
14340393 91 14273730781085143311
14395042 24 17343496997931404703
14840074 17 18055920041666387516
14904385 31 17418371377133010808
15119646 57 14117220819945844978
15131766 46 15482386465647642595
15324884 4 17771373919016332911
15444296 8 18186790392662824373
16067689 68 17315896786519935450
18393751 57 17917429864694419343
19309040 13 14189303659632934758
19315092 285 17168141278120103442
19319366 153 16753811486422690213
21033648 29 17774735164501059699
21304303 282 17535449454081345005
25019877 29 16702026413300872855
3187 122 18411147917721513413
3886686 26 17468477014874343754
469060 322 18411125952936865174
474144 1 17979654633924777301
484985 159 17314211307217207738
50009960 94 18046906254270009787
9982175 41 17970897874577297028
9982175 49 17546151365774675224

> <PUBCHEM_SHAPE_MULTIPOLES>
691.35
14.62
4.45
3.32
18.41
5.92
-1.24
-9.54
17
-4.25
-1.9
2.83
-0.97
1.76

> <PUBCHEM_SHAPE_SELFOVERLAP>
1474.925

> <PUBCHEM_SHAPE_VOLUME>
388.4

> <PUBCHEM_COORDINATE_TYPE>
2
5
10

$$$$
