7142800
  -OEChem-12032416293D

 67 71  0     1  0  0  0  0  0999 V2000
   -0.2528    2.2626   -1.9955 O   0  0  0  0  0  0  0  0  0  0  0  0
   -2.8635    0.2352    1.5410 O   0  0  0  0  0  0  0  0  0  0  0  0
    3.9403    0.1880   -0.1948 N   0  0  2  0  0  0  0  0  0  0  0  0
    1.4782    2.2047   -0.4275 N   0  0  0  0  0  0  0  0  0  0  0  0
   -2.1809    1.7357   -0.1090 N   0  0  0  0  0  0  0  0  0  0  0  0
    3.9391    2.5423   -1.0572 C   0  0  1  0  0  0  0  0  0  0  0  0
    3.3304    2.1139    1.2758 C   0  0  2  0  0  0  0  0  0  0  0  0
    4.0739    3.0827    0.3604 C   0  0  0  0  0  0  0  0  0  0  0  0
    4.5502    1.1276   -1.1439 C   0  0  0  0  0  0  0  0  0  0  0  0
    3.9759    0.7127    1.1786 C   0  0  0  0  0  0  0  0  0  0  0  0
    2.4583    2.5704   -1.4595 C   0  0  0  0  0  0  0  0  0  0  0  0
    1.8593    2.0477    0.9090 C   0  0  0  0  0  0  0  0  0  0  0  0
    4.5803   -1.1229   -0.2707 C   0  0  0  0  0  0  0  0  0  0  0  0
    0.9321    1.8211    1.8544 C   0  0  0  0  0  0  0  0  0  0  0  0
    0.1317    2.1168   -0.8343 C   0  0  0  0  0  0  0  0  0  0  0  0
    3.6107   -2.2137    0.1817 C   0  0  0  0  0  0  0  0  0  0  0  0
   -0.8682    1.8403    0.2457 C   0  0  0  0  0  0  0  0  0  0  0  0
   -0.4584    1.7141    1.5123 C   0  0  0  0  0  0  0  0  0  0  0  0
   -4.4696    1.0211   -0.0366 C   0  0  0  0  0  0  0  0  0  0  0  0
   -5.5302    0.8148    1.0472 C   0  0  0  0  0  0  0  0  0  0  0  0
   -4.6015   -0.0164   -1.1537 C   0  0  0  0  0  0  0  0  0  0  0  0
    2.3507   -2.2261   -0.6875 C   0  0  0  0  0  0  0  0  0  0  0  0
   -6.9388    0.7868    0.4600 C   0  0  0  0  0  0  0  0  0  0  0  0
   -6.0122   -0.0423   -1.7358 C   0  0  0  0  0  0  0  0  0  0  0  0
   -7.0649   -0.2510   -0.6514 C   0  0  0  0  0  0  0  0  0  0  0  0
   -3.0993    0.9491    0.5688 C   0  0  0  0  0  0  0  0  0  0  0  0
    1.4005   -3.3217   -0.2766 C   0  0  0  0  0  0  0  0  0  0  0  0
    1.5008   -4.5860   -0.8576 C   0  0  0  0  0  0  0  0  0  0  0  0
    0.4213   -3.0717    0.6848 C   0  0  0  0  0  0  0  0  0  0  0  0
    0.6217   -5.6000   -0.4773 C   0  0  0  0  0  0  0  0  0  0  0  0
   -0.4577   -4.0859    1.0651 C   0  0  0  0  0  0  0  0  0  0  0  0
   -0.3574   -5.3500    0.4840 C   0  0  0  0  0  0  0  0  0  0  0  0
    4.4965    3.1857   -1.7494 H   0  0  0  0  0  0  0  0  0  0  0  0
    3.4373    2.4718    2.3084 H   0  0  0  0  0  0  0  0  0  0  0  0
    3.6558    4.0943    0.4341 H   0  0  0  0  0  0  0  0  0  0  0  0
    5.1304    3.1489    0.6474 H   0  0  0  0  0  0  0  0  0  0  0  0
    4.4177    0.7545   -2.1673 H   0  0  0  0  0  0  0  0  0  0  0  0
    5.6319    1.1977   -0.9652 H   0  0  0  0  0  0  0  0  0  0  0  0
    3.4437    0.0378    1.8593 H   0  0  0  0  0  0  0  0  0  0  0  0
    5.0119    0.7759    1.5392 H   0  0  0  0  0  0  0  0  0  0  0  0
    2.2861    1.9421   -2.3425 H   0  0  0  0  0  0  0  0  0  0  0  0
    2.1985    3.5939   -1.7632 H   0  0  0  0  0  0  0  0  0  0  0  0
    5.5065   -1.1627    0.3160 H   0  0  0  0  0  0  0  0  0  0  0  0
    4.8639   -1.3510   -1.3070 H   0  0  0  0  0  0  0  0  0  0  0  0
    1.2036    1.6916    2.8969 H   0  0  0  0  0  0  0  0  0  0  0  0
    4.1194   -3.1835    0.1054 H   0  0  0  0  0  0  0  0  0  0  0  0
    3.3463   -2.0946    1.2389 H   0  0  0  0  0  0  0  0  0  0  0  0
   -1.1275    1.5661    2.3516 H   0  0  0  0  0  0  0  0  0  0  0  0
   -4.6160    2.0223   -0.4650 H   0  0  0  0  0  0  0  0  0  0  0  0
   -5.3569   -0.1288    1.5811 H   0  0  0  0  0  0  0  0  0  0  0  0
   -5.4613    1.6121    1.7975 H   0  0  0  0  0  0  0  0  0  0  0  0
   -4.3484   -1.0137   -0.7704 H   0  0  0  0  0  0  0  0  0  0  0  0
   -3.8824    0.1952   -1.9546 H   0  0  0  0  0  0  0  0  0  0  0  0
    2.6203   -2.3561   -1.7436 H   0  0  0  0  0  0  0  0  0  0  0  0
    1.8201   -1.2675   -0.6309 H   0  0  0  0  0  0  0  0  0  0  0  0
   -7.6643    0.5689    1.2519 H   0  0  0  0  0  0  0  0  0  0  0  0
   -7.1878    1.7787    0.0631 H   0  0  0  0  0  0  0  0  0  0  0  0
   -6.2083    0.9022   -2.2581 H   0  0  0  0  0  0  0  0  0  0  0  0
   -6.0883   -0.8413   -2.4820 H   0  0  0  0  0  0  0  0  0  0  0  0
   -2.4325    2.0775   -1.0333 H   0  0  0  0  0  0  0  0  0  0  0  0
   -8.0660   -0.1976   -1.0940 H   0  0  0  0  0  0  0  0  0  0  0  0
   -6.9562   -1.2563   -0.2259 H   0  0  0  0  0  0  0  0  0  0  0  0
    2.2608   -4.7935   -1.6061 H   0  0  0  0  0  0  0  0  0  0  0  0
    0.3340   -2.0911    1.1454 H   0  0  0  0  0  0  0  0  0  0  0  0
    0.7000   -6.5845   -0.9294 H   0  0  0  0  0  0  0  0  0  0  0  0
   -1.2201   -3.8911    1.8136 H   0  0  0  0  0  0  0  0  0  0  0  0
   -1.0418   -6.1396    0.7802 H   0  0  0  0  0  0  0  0  0  0  0  0
  1 15  2  0  0  0  0
  2 26  2  0  0  0  0
  3  9  1  0  0  0  0
  3 10  1  0  0  0  0
  3 13  1  0  0  0  0
  4 11  1  0  0  0  0
  4 12  1  0  0  0  0
  4 15  1  0  0  0  0
  5 17  1  0  0  0  0
  5 26  1  0  0  0  0
  5 60  1  0  0  0  0
  6  8  1  0  0  0  0
  6  9  1  0  0  0  0
  6 11  1  0  0  0  0
  6 33  1  0  0  0  0
  7  8  1  0  0  0  0
  7 10  1  0  0  0  0
  7 12  1  0  0  0  0
  7 34  1  0  0  0  0
  8 35  1  0  0  0  0
  8 36  1  0  0  0  0
  9 37  1  0  0  0  0
  9 38  1  0  0  0  0
 10 39  1  0  0  0  0
 10 40  1  0  0  0  0
 11 41  1  0  0  0  0
 11 42  1  0  0  0  0
 12 14  2  0  0  0  0
 13 16  1  0  0  0  0
 13 43  1  0  0  0  0
 13 44  1  0  0  0  0
 14 18  1  0  0  0  0
 14 45  1  0  0  0  0
 15 17  1  0  0  0  0
 16 22  1  0  0  0  0
 16 46  1  0  0  0  0
 16 47  1  0  0  0  0
 17 18  2  0  0  0  0
 18 48  1  0  0  0  0
 19 20  1  0  0  0  0
 19 21  1  0  0  0  0
 19 26  1  0  0  0  0
 19 49  1  0  0  0  0
 20 23  1  0  0  0  0
 20 50  1  0  0  0  0
 20 51  1  0  0  0  0
 21 24  1  0  0  0  0
 21 52  1  0  0  0  0
 21 53  1  0  0  0  0
 22 27  1  0  0  0  0
 22 54  1  0  0  0  0
 22 55  1  0  0  0  0
 23 25  1  0  0  0  0
 23 56  1  0  0  0  0
 23 57  1  0  0  0  0
 24 25  1  0  0  0  0
 24 58  1  0  0  0  0
 24 59  1  0  0  0  0
 25 61  1  0  0  0  0
 25 62  1  0  0  0  0
 27 28  2  0  0  0  0
 27 29  1  0  0  0  0
 28 30  1  0  0  0  0
 28 63  1  0  0  0  0
 29 31  2  0  0  0  0
 29 64  1  0  0  0  0
 30 32  2  0  0  0  0
 30 65  1  0  0  0  0
 31 32  1  0  0  0  0
 31 66  1  0  0  0  0
 32 67  1  0  0  0  0
M  END
> <PUBCHEM_COMPOUND_CID>
7142800

> <PUBCHEM_CONFORMER_RMSD>
1

> <PUBCHEM_CONFORMER_DIVERSEORDER>
1
40
24
22
69
27
29
21
64
58
43
37
49
14
55
73
74
32
6
11
53
41
16
46
42
66
8
13
30
28
45
71
54
62
15
10
23
35
12
2
59
75
18
68
26
19
5
25
65
20
60
52
57
56
31
36
39
33
38
4
51
7
61
47
34
3
44
50
72
9
63
70
17
67
48

> <PUBCHEM_MMFF94_PARTIAL_CHARGES>
32
1 -0.57
10 0.27
11 0.3
12 -0.03
13 0.27
14 -0.15
15 0.62
17 0.12
18 -0.15
19 0.06
2 -0.57
22 0.14
26 0.57
27 -0.14
28 -0.15
29 -0.15
3 -0.81
30 -0.15
31 -0.15
32 -0.15
4 -0.47
45 0.15
48 0.15
5 -0.54
60 0.37
63 0.15
64 0.15
65 0.15
66 0.15
67 0.15
7 0.14
9 0.27

> <PUBCHEM_EFFECTIVE_ROTOR_COUNT>
9.2

> <PUBCHEM_PHARMACOPHORE_FEATURES>
9
1 1 acceptor
1 2 acceptor
1 3 cation
1 5 donor
6 19 20 21 23 24 25 rings
6 27 28 29 30 31 32 rings
6 3 6 7 8 9 10 rings
6 4 12 14 15 17 18 rings
6 4 6 7 8 11 12 rings

> <PUBCHEM_HEAVY_ATOM_COUNT>
32

> <PUBCHEM_ATOM_DEF_STEREO_COUNT>
2

> <PUBCHEM_ATOM_UDEF_STEREO_COUNT>
0

> <PUBCHEM_BOND_DEF_STEREO_COUNT>
0

> <PUBCHEM_BOND_UDEF_STEREO_COUNT>
0

> <PUBCHEM_ISOTOPIC_ATOM_COUNT>
0

> <PUBCHEM_COMPONENT_COUNT>
1

> <PUBCHEM_CACTVS_TAUTO_COUNT>
2

> <PUBCHEM_CONFORMER_ID>
006CFD9000000001

> <PUBCHEM_MMFF94_ENERGY>
71.4211

> <PUBCHEM_FEATURE_SELFOVERLAP>
47.222

> <PUBCHEM_SHAPE_FINGERPRINT>
10316853 100 18410014342465662370
10816530 23 17978507860276845200
11014199 57 17259063996041264930
11227688 84 17834955266115074382
13150687 139 18262536891847656988
13533116 47 18343866614900698433
1361 2 18409168805001460891
13692114 37 18270388529106734746
14863182 85 18412537708940502104
15110567 62 18340487776881454963
152267 14 17113533719178251807
15419008 42 17825646899605997501
15483637 11 18049725418672314410
16993438 75 17976260454103849171
17138139 8 17844795074570076527
19319366 153 18342730819262332623
20028762 73 18271803484797612606
20511986 3 17846204554420485101
20764821 26 18410570729762056379
20775438 99 18202275944477648230
20775530 9 17687479970066748138
21285901 2 17822290145924195445
21360442 67 18337107964781036683
21583282 1 17604724377937348812
3882209 13 17179373630974945331
463206 1 18343860039510898699
484989 97 18337967778078194274
5309563 4 18050569539102412390
653340 110 17620473945159069280
6609424 69 17469926562036787587
66674814 147 18049411989249386599
86090 222 18410297973410558058

> <PUBCHEM_SHAPE_MULTIPOLES>
631.86
12.79
6.77
1.57
24.84
13.71
-0.04
-6.58
-2.34
-5.85
-0.1
0.23
-0.78
-0.1

> <PUBCHEM_SHAPE_SELFOVERLAP>
1353.798

> <PUBCHEM_SHAPE_VOLUME>
339.8

> <PUBCHEM_COORDINATE_TYPE>
2
5
10

$$$$
