11866179
  -OEChem-12032416153D

 53 57  0     1  0  0  0  0  0999 V2000
   -1.5369   -2.8914    0.5353 S   0  0  0  0  0  0  0  0  0  0  0  0
   -7.4441    2.5821   -0.5536 F   0  0  0  0  0  0  0  0  0  0  0  0
    3.3836    1.9442    0.2018 O   0  0  0  0  0  0  0  0  0  0  0  0
    5.0891    3.4745    0.3981 O   0  0  0  0  0  0  0  0  0  0  0  0
   -1.6934   -0.3402    0.1395 N   0  0  0  0  0  0  0  0  0  0  0  0
   -3.7660   -1.4433    0.4227 N   0  0  0  0  0  0  0  0  0  0  0  0
    2.1368   -0.2462    0.1852 C   0  0  1  0  0  0  0  0  0  0  0  0
    2.2994   -1.7235   -0.3807 C   0  0  1  0  0  0  0  0  0  0  0  0
    3.3019    0.6194   -0.3249 C   0  0  2  0  0  0  0  0  0  0  0  0
    4.6275    0.0285    0.1151 C   0  0  1  0  0  0  0  0  0  0  0  0
    3.7274   -2.2741   -0.0798 C   0  0  0  0  0  0  0  0  0  0  0  0
    4.8629   -1.3330   -0.5066 C   0  0  0  0  0  0  0  0  0  0  0  0
    0.7161    0.3599   -0.1024 C   0  0  1  0  0  0  0  0  0  0  0  0
    1.2613   -2.6544    0.3189 C   0  0  0  0  0  0  0  0  0  0  0  0
    5.5703    1.1622   -0.2407 C   0  0  1  0  0  0  0  0  0  0  0  0
    2.0734   -1.7917   -1.9149 C   0  0  0  0  0  0  0  0  0  0  0  0
   -0.3521   -0.6786    0.1382 C   0  0  0  0  0  0  0  0  0  0  0  0
   -0.0889   -2.0229    0.3146 C   0  0  0  0  0  0  0  0  0  0  0  0
    4.7023    2.3417    0.1574 C   0  0  0  0  0  0  0  0  0  0  0  0
    0.4349    1.6163    0.7328 C   0  0  0  0  0  0  0  0  0  0  0  0
    6.8796    1.1160    0.5241 C   0  0  0  0  0  0  0  0  0  0  0  0
   -2.4085   -1.4239    0.3496 C   0  0  0  0  0  0  0  0  0  0  0  0
   -4.7080   -0.4120    0.1731 C   0  0  0  0  0  0  0  0  0  0  0  0
   -5.9694   -0.4758    0.7546 C   0  0  0  0  0  0  0  0  0  0  0  0
   -4.3612    0.6528   -0.6513 C   0  0  0  0  0  0  0  0  0  0  0  0
   -6.8957    0.5377    0.5085 C   0  0  0  0  0  0  0  0  0  0  0  0
   -5.2874    1.6664   -0.8974 C   0  0  0  0  0  0  0  0  0  0  0  0
   -6.5547    1.6090   -0.3173 C   0  0  0  0  0  0  0  0  0  0  0  0
    2.2291   -0.3062    1.2815 H   0  0  0  0  0  0  0  0  0  0  0  0
    3.2351    0.7194   -1.4159 H   0  0  0  0  0  0  0  0  0  0  0  0
    4.6262   -0.0854    1.2111 H   0  0  0  0  0  0  0  0  0  0  0  0
    3.8678   -3.2496   -0.5620 H   0  0  0  0  0  0  0  0  0  0  0  0
    3.8238   -2.4515    1.0000 H   0  0  0  0  0  0  0  0  0  0  0  0
    5.8216   -1.7438   -0.1707 H   0  0  0  0  0  0  0  0  0  0  0  0
    4.9145   -1.2617   -1.5986 H   0  0  0  0  0  0  0  0  0  0  0  0
    0.6601    0.6432   -1.1617 H   0  0  0  0  0  0  0  0  0  0  0  0
    1.5539   -2.8229    1.3635 H   0  0  0  0  0  0  0  0  0  0  0  0
    1.2377   -3.6351   -0.1721 H   0  0  0  0  0  0  0  0  0  0  0  0
    5.7515    1.2148   -1.3205 H   0  0  0  0  0  0  0  0  0  0  0  0
    2.1948   -2.8197   -2.2765 H   0  0  0  0  0  0  0  0  0  0  0  0
    1.0698   -1.4696   -2.2074 H   0  0  0  0  0  0  0  0  0  0  0  0
    2.7838   -1.1727   -2.4693 H   0  0  0  0  0  0  0  0  0  0  0  0
    1.0797    2.4493    0.4453 H   0  0  0  0  0  0  0  0  0  0  0  0
   -0.5949    1.9649    0.5938 H   0  0  0  0  0  0  0  0  0  0  0  0
    0.5737    1.4222    1.8021 H   0  0  0  0  0  0  0  0  0  0  0  0
    7.4416    0.2076    0.2859 H   0  0  0  0  0  0  0  0  0  0  0  0
    7.5045    1.9783    0.2683 H   0  0  0  0  0  0  0  0  0  0  0  0
    6.7153    1.1452    1.6069 H   0  0  0  0  0  0  0  0  0  0  0  0
   -4.2025   -2.3063    0.7383 H   0  0  0  0  0  0  0  0  0  0  0  0
   -6.2462   -1.3048    1.4006 H   0  0  0  0  0  0  0  0  0  0  0  0
   -3.4024    0.7206   -1.1534 H   0  0  0  0  0  0  0  0  0  0  0  0
   -7.8824    0.4934    0.9601 H   0  0  0  0  0  0  0  0  0  0  0  0
   -5.0256    2.4966   -1.5469 H   0  0  0  0  0  0  0  0  0  0  0  0
  1 18  1  0  0  0  0
  1 22  1  0  0  0  0
  2 28  1  0  0  0  0
  3  9  1  0  0  0  0
  3 19  1  0  0  0  0
  4 19  2  0  0  0  0
  5 17  1  0  0  0  0
  5 22  2  0  0  0  0
  6 22  1  0  0  0  0
  6 23  1  0  0  0  0
  6 49  1  0  0  0  0
  7  8  1  0  0  0  0
  7  9  1  0  0  0  0
  7 13  1  0  0  0  0
  7 29  1  0  0  0  0
  8 11  1  0  0  0  0
  8 14  1  0  0  0  0
  8 16  1  0  0  0  0
  9 10  1  0  0  0  0
  9 30  1  0  0  0  0
 10 12  1  0  0  0  0
 10 15  1  0  0  0  0
 10 31  1  0  0  0  0
 11 12  1  0  0  0  0
 11 32  1  0  0  0  0
 11 33  1  0  0  0  0
 12 34  1  0  0  0  0
 12 35  1  0  0  0  0
 13 17  1  0  0  0  0
 13 20  1  0  0  0  0
 13 36  1  0  0  0  0
 14 18  1  0  0  0  0
 14 37  1  0  0  0  0
 14 38  1  0  0  0  0
 15 19  1  0  0  0  0
 15 21  1  0  0  0  0
 15 39  1  0  0  0  0
 16 40  1  0  0  0  0
 16 41  1  0  0  0  0
 16 42  1  0  0  0  0
 17 18  2  0  0  0  0
 20 43  1  0  0  0  0
 20 44  1  0  0  0  0
 20 45  1  0  0  0  0
 21 46  1  0  0  0  0
 21 47  1  0  0  0  0
 21 48  1  0  0  0  0
 23 24  2  0  0  0  0
 23 25  1  0  0  0  0
 24 26  1  0  0  0  0
 24 50  1  0  0  0  0
 25 27  2  0  0  0  0
 25 51  1  0  0  0  0
 26 28  2  0  0  0  0
 26 52  1  0  0  0  0
 27 28  1  0  0  0  0
 27 53  1  0  0  0  0
M  END
> <PUBCHEM_COMPOUND_CID>
11866179

> <PUBCHEM_CONFORMER_RMSD>
0.8

> <PUBCHEM_CONFORMER_DIVERSEORDER>
1
3
5
4
2

> <PUBCHEM_MMFF94_PARTIAL_CHARGES>
25
1 -0.08
13 0.18
14 0.18
15 0.06
17 0.05
18 -0.14
19 0.66
2 -0.19
22 0.46
23 0.1
24 -0.15
25 -0.15
26 -0.15
27 -0.15
28 0.19
3 -0.43
4 -0.57
49 0.4
5 -0.57
50 0.15
51 0.15
52 0.15
53 0.15
6 -0.58
9 0.28

> <PUBCHEM_EFFECTIVE_ROTOR_COUNT>
3.2

> <PUBCHEM_PHARMACOPHORE_FEATURES>
8
1 4 acceptor
1 6 donor
3 5 6 22 cation
5 1 5 17 18 22 rings
5 3 9 10 15 19 rings
6 23 24 25 26 27 28 rings
6 7 8 13 14 17 18 rings
6 7 8 9 10 11 12 rings

> <PUBCHEM_HEAVY_ATOM_COUNT>
28

> <PUBCHEM_ATOM_DEF_STEREO_COUNT>
6

> <PUBCHEM_ATOM_UDEF_STEREO_COUNT>
0

> <PUBCHEM_BOND_DEF_STEREO_COUNT>
0

> <PUBCHEM_BOND_UDEF_STEREO_COUNT>
0

> <PUBCHEM_ISOTOPIC_ATOM_COUNT>
0

> <PUBCHEM_COMPONENT_COUNT>
1

> <PUBCHEM_CACTVS_TAUTO_COUNT>
4

> <PUBCHEM_CONFORMER_ID>
00B5104300000001

> <PUBCHEM_MMFF94_ENERGY>
81.1771

> <PUBCHEM_FEATURE_SELFOVERLAP>
40.758

> <PUBCHEM_SHAPE_FINGERPRINT>
10 15 18041001756621385265
10050765 1 18410011074006846746
10411042 1 17762055433275408994
10675989 125 18266743484967632923
10835480 77 18410572864713924893
10906281 52 18129399200916779914
12403259 415 18334864900814618155
12633257 1 14851611007078688739
12788726 201 17489594411654299481
12838862 33 18201143435101154024
13402501 40 18408603669237175325
13540713 4 18265915694636469690
14117953 113 18130227052317612622
14556957 393 17060065804902182217
14790565 3 18339928100173031281
14933364 13 18408606959398096521
15081414 286 18341906190042144009
15183329 4 18343867697437847577
18222031 100 13758357769212157314
18608769 82 18337957917576867107
20157964 124 18343023276475576558
20281389 69 18333452036872968985
20511986 3 18059565919150100306
20715895 44 18409729564896192136
21033648 144 18260821571924066823
21033648 29 18040440996526661363
21279426 13 18411423882017916727
21304253 335 18261116295993904526
21421861 104 17749655313040707474
21859007 373 17822845369262710213
23559900 14 18413393116614160686
23569914 2 17318403779931316973
255183 451 17556872325942389726
2838139 119 18339918320041900918
2916195 48 18335139808707159987
335352 9 18411422809109614230
3411729 13 18334573538549028626
34797466 226 18130512951179073199
34934 24 18341612646086265446
376196 1 18198338653520494802
4073 2 18040723605295916283
4093350 32 17560805398602002734
4340502 62 18335422361208939678
5104073 3 18113620075698837043
59682541 35 18113913659047821345
59755656 215 18410860954150936956
6086070 43 17131827728880155938
6328613 192 18343303639630725289
9995097 60 18409168830792363661

> <PUBCHEM_SHAPE_MULTIPOLES>
551.1
18.01
3.27
0.92
18.41
0.29
0.26
13.94
0.07
-1.84
-0.13
0.06
-0.18
1.85

> <PUBCHEM_SHAPE_SELFOVERLAP>
1195.683

> <PUBCHEM_SHAPE_VOLUME>
306.7

> <PUBCHEM_COORDINATE_TYPE>
2
5
10

$$$$
