26762953
  -OEChem-12032416183D

 61 64  0     1  0  0  0  0  0999 V2000
   -3.5387    2.4016    0.1503 F   0  0  0  0  0  0  0  0  0  0  0  0
   -8.1180    1.3183   -0.3391 F   0  0  0  0  0  0  0  0  0  0  0  0
    2.0652   -2.6873   -2.8567 O   0  0  0  0  0  0  0  0  0  0  0  0
    4.0862    1.8114    2.1671 O   0  0  0  0  0  0  0  0  0  0  0  0
   -3.0318   -2.6333    0.4170 O   0  0  0  0  0  0  0  0  0  0  0  0
    2.0599   -2.2451    0.5499 N   0  0  2  0  0  0  0  0  0  0  0  0
    3.8663   -2.3401   -1.4509 N   0  0  0  0  0  0  0  0  0  0  0  0
   -0.9793   -1.5875    0.6144 N   0  0  0  0  0  0  0  0  0  0  0  0
    3.5920    2.7369    0.0941 N   0  0  0  0  0  0  0  0  0  0  0  0
   -2.8578   -0.2936    0.3421 N   0  0  0  0  0  0  0  0  0  0  0  0
    1.8351   -3.2317   -0.5047 C   0  0  1  0  0  0  0  0  0  0  0  0
    3.4511   -2.1798    1.0056 C   0  0  1  0  0  0  0  0  0  0  0  0
   -0.1904   -2.7888    0.7556 C   0  0  1  0  0  0  0  0  0  0  0  0
    0.3152   -3.2869   -0.6065 C   0  0  0  0  0  0  0  0  0  0  0  0
    1.0717   -2.5394    1.5827 C   0  0  0  0  0  0  0  0  0  0  0  0
    4.4343   -2.5451   -0.1297 C   0  0  0  0  0  0  0  0  0  0  0  0
    3.7330   -0.7635    1.5144 C   0  0  0  0  0  0  0  0  0  0  0  0
    2.5616   -2.7212   -1.7349 C   0  0  0  0  0  0  0  0  0  0  0  0
    3.5161    0.2921    0.4408 C   0  0  0  0  0  0  0  0  0  0  0  0
    3.7593    1.6772    0.9851 C   0  0  0  0  0  0  0  0  0  0  0  0
   -2.3700   -1.5987    0.4523 C   0  0  0  0  0  0  0  0  0  0  0  0
    3.8080    4.1123    0.5484 C   0  0  0  0  0  0  0  0  0  0  0  0
    3.2473    2.6057   -1.3272 C   0  0  0  0  0  0  0  0  0  0  0  0
    2.5926    4.9843    0.2451 C   0  0  0  0  0  0  0  0  0  0  0  0
    2.0212    3.4503   -1.6675 C   0  0  0  0  0  0  0  0  0  0  0  0
    2.2084    4.9026   -1.2313 C   0  0  0  0  0  0  0  0  0  0  0  0
   -4.1993    0.1200    0.1684 C   0  0  0  0  0  0  0  0  0  0  0  0
   -4.5070    1.4774    0.0762 C   0  0  0  0  0  0  0  0  0  0  0  0
   -5.2154   -0.8324    0.0896 C   0  0  0  0  0  0  0  0  0  0  0  0
   -5.8308    1.8823   -0.0951 C   0  0  0  0  0  0  0  0  0  0  0  0
   -6.5390   -0.4275   -0.0816 C   0  0  0  0  0  0  0  0  0  0  0  0
   -6.8468    0.9298   -0.1740 C   0  0  0  0  0  0  0  0  0  0  0  0
    2.2248   -4.2226   -0.2349 H   0  0  0  0  0  0  0  0  0  0  0  0
    3.6314   -2.8816    1.8308 H   0  0  0  0  0  0  0  0  0  0  0  0
   -0.8116   -3.5546    1.2342 H   0  0  0  0  0  0  0  0  0  0  0  0
   -0.0770   -2.6807   -1.4315 H   0  0  0  0  0  0  0  0  0  0  0  0
   -0.0102   -4.3198   -0.7774 H   0  0  0  0  0  0  0  0  0  0  0  0
    0.9530   -1.7181    2.2967 H   0  0  0  0  0  0  0  0  0  0  0  0
    1.3407   -3.4497    2.1334 H   0  0  0  0  0  0  0  0  0  0  0  0
    5.3773   -1.9922   -0.0703 H   0  0  0  0  0  0  0  0  0  0  0  0
    4.6747   -3.6138   -0.0706 H   0  0  0  0  0  0  0  0  0  0  0  0
    4.7658   -0.7117    1.8842 H   0  0  0  0  0  0  0  0  0  0  0  0
    3.0945   -0.5518    2.3825 H   0  0  0  0  0  0  0  0  0  0  0  0
    4.4614   -2.0100   -2.2044 H   0  0  0  0  0  0  0  0  0  0  0  0
   -0.4946   -0.6968    0.5581 H   0  0  0  0  0  0  0  0  0  0  0  0
    4.2122    0.1391   -0.3895 H   0  0  0  0  0  0  0  0  0  0  0  0
    2.4876    0.2574    0.0661 H   0  0  0  0  0  0  0  0  0  0  0  0
    4.6936    4.4936    0.0263 H   0  0  0  0  0  0  0  0  0  0  0  0
    4.0233    4.1399    1.6211 H   0  0  0  0  0  0  0  0  0  0  0  0
    3.0614    1.5698   -1.6149 H   0  0  0  0  0  0  0  0  0  0  0  0
    4.1163    2.9484   -1.9017 H   0  0  0  0  0  0  0  0  0  0  0  0
    2.8015    6.0241    0.5192 H   0  0  0  0  0  0  0  0  0  0  0  0
    1.7441    4.6510    0.8556 H   0  0  0  0  0  0  0  0  0  0  0  0
    1.1414    3.0336   -1.1611 H   0  0  0  0  0  0  0  0  0  0  0  0
    1.8265    3.4076   -2.7447 H   0  0  0  0  0  0  0  0  0  0  0  0
    1.2854    5.4659   -1.4074 H   0  0  0  0  0  0  0  0  0  0  0  0
    2.9924    5.3694   -1.8401 H   0  0  0  0  0  0  0  0  0  0  0  0
   -2.1739    0.4574    0.3919 H   0  0  0  0  0  0  0  0  0  0  0  0
   -5.0578   -1.8996    0.1524 H   0  0  0  0  0  0  0  0  0  0  0  0
   -6.0705    2.9389   -0.1671 H   0  0  0  0  0  0  0  0  0  0  0  0
   -7.3314   -1.1679   -0.1433 H   0  0  0  0  0  0  0  0  0  0  0  0
  1 28  1  0  0  0  0
  2 32  1  0  0  0  0
  3 18  2  0  0  0  0
  4 20  2  0  0  0  0
  5 21  2  0  0  0  0
  6 11  1  0  0  0  0
  6 12  1  0  0  0  0
  6 15  1  0  0  0  0
  7 16  1  0  0  0  0
  7 18  1  0  0  0  0
  7 44  1  0  0  0  0
  8 13  1  0  0  0  0
  8 21  1  0  0  0  0
  8 45  1  0  0  0  0
  9 20  1  0  0  0  0
  9 22  1  0  0  0  0
  9 23  1  0  0  0  0
 10 21  1  0  0  0  0
 10 27  1  0  0  0  0
 10 58  1  0  0  0  0
 11 14  1  0  0  0  0
 11 18  1  0  0  0  0
 11 33  1  0  0  0  0
 12 16  1  0  0  0  0
 12 17  1  0  0  0  0
 12 34  1  0  0  0  0
 13 14  1  0  0  0  0
 13 15  1  0  0  0  0
 13 35  1  0  0  0  0
 14 36  1  0  0  0  0
 14 37  1  0  0  0  0
 15 38  1  0  0  0  0
 15 39  1  0  0  0  0
 16 40  1  0  0  0  0
 16 41  1  0  0  0  0
 17 19  1  0  0  0  0
 17 42  1  0  0  0  0
 17 43  1  0  0  0  0
 19 20  1  0  0  0  0
 19 46  1  0  0  0  0
 19 47  1  0  0  0  0
 22 24  1  0  0  0  0
 22 48  1  0  0  0  0
 22 49  1  0  0  0  0
 23 25  1  0  0  0  0
 23 50  1  0  0  0  0
 23 51  1  0  0  0  0
 24 26  1  0  0  0  0
 24 52  1  0  0  0  0
 24 53  1  0  0  0  0
 25 26  1  0  0  0  0
 25 54  1  0  0  0  0
 25 55  1  0  0  0  0
 26 56  1  0  0  0  0
 26 57  1  0  0  0  0
 27 28  2  0  0  0  0
 27 29  1  0  0  0  0
 28 30  1  0  0  0  0
 29 31  2  0  0  0  0
 29 59  1  0  0  0  0
 30 32  2  0  0  0  0
 30 60  1  0  0  0  0
 31 32  1  0  0  0  0
 31 61  1  0  0  0  0
M  END
> <PUBCHEM_COMPOUND_CID>
26762953

> <PUBCHEM_CONFORMER_RMSD>
1.4

> <PUBCHEM_CONFORMER_DIVERSEORDER>
2
73
80
41
99
56
43
55
85
5
22
64
93
59
88
39
17
97
61
76
92
50
83
44
86
40
24
89
98
4
36
96
28
72
25
10
9
66
70
65
8
74
81
46
38
77
52
16
21
68
49
32
91
58
27
33
13
42
14
63
57
31
15
35
3
84
47
78
26
18
79
87
45
90
20
6
37
12
69
11
60
75
94
51
53
19
29
7
23
34
82
71
62
95
1
54
67
48
30

> <PUBCHEM_MMFF94_PARTIAL_CHARGES>
33
1 -0.19
10 -0.55
11 0.33
12 0.27
13 0.3
15 0.27
16 0.3
18 0.57
19 0.06
2 -0.19
20 0.57
21 0.69
22 0.3
23 0.3
27 0.12
28 0.19
29 -0.15
3 -0.57
30 -0.15
31 -0.15
32 0.19
4 -0.57
44 0.37
45 0.37
5 -0.57
58 0.37
59 0.15
6 -0.81
60 0.15
61 0.15
7 -0.73
8 -0.73
9 -0.66

> <PUBCHEM_EFFECTIVE_ROTOR_COUNT>
10.4

> <PUBCHEM_PHARMACOPHORE_FEATURES>
11
1 10 donor
1 3 acceptor
1 4 acceptor
1 5 acceptor
1 6 cation
1 7 donor
1 8 donor
5 6 11 13 14 15 rings
6 27 28 29 30 31 32 rings
6 6 7 11 12 16 18 rings
6 9 22 23 24 25 26 rings

> <PUBCHEM_HEAVY_ATOM_COUNT>
32

> <PUBCHEM_ATOM_DEF_STEREO_COUNT>
3

> <PUBCHEM_ATOM_UDEF_STEREO_COUNT>
0

> <PUBCHEM_BOND_DEF_STEREO_COUNT>
0

> <PUBCHEM_BOND_UDEF_STEREO_COUNT>
0

> <PUBCHEM_ISOTOPIC_ATOM_COUNT>
0

> <PUBCHEM_COMPONENT_COUNT>
1

> <PUBCHEM_CACTVS_TAUTO_COUNT>
9

> <PUBCHEM_CONFORMER_ID>
01985EC900000002

> <PUBCHEM_MMFF94_ENERGY>
66.7806

> <PUBCHEM_FEATURE_SELFOVERLAP>
55.967

> <PUBCHEM_SHAPE_FINGERPRINT>
10483366 6 18336283288505976516
10673678 19 18341894142853914987
12047536 79 13479400713111310463
12539745 222 16736627838638609490
12925494 130 18189615106764321457
13761468 95 17257694477347533880
13944108 23 18334299768828439500
14251764 38 18336264647351028539
15799311 1 15051723184808164759
16067689 302 18339922745251406239
16988056 13 18340214003318968638
21857420 4 18196099841772023308
21860390 5 18413390908705084686
21987440 362 17974861871878311380
23559900 14 18340778073810591135
23576562 1 18342745143411301534
245318 6 17896889952568821789
3298306 158 18198347444917434433
3388396 114 15675192851965990820
345986 75 12685084878532085327
34797466 226 18059572435322389575
394071 54 18411141303740948409
4066623 53 18125452912868929270
4487111 67 17112132400135431913
4573279 73 18126273371892137959
46194498 28 17988924405794318551
50150288 127 12767900408063413796
5109719 28 18334866034891472881
513532 50 18273502264927635582
53794403 172 18408609183816752453
550186 72 17399517218023436419
6036956 94 17035850474323868565
6176135 31 18337101367321270193
6201320 77 16084697832164644528
6608658 132 17117477117878859390
6609424 69 18264197020290843884

> <PUBCHEM_SHAPE_MULTIPOLES>
601.48
15.02
6.92
1.59
35.29
6.31
0.57
8.19
-0.55
-10.05
1.7
-2.49
-0.53
0.93

> <PUBCHEM_SHAPE_SELFOVERLAP>
1271.718

> <PUBCHEM_SHAPE_VOLUME>
335.9

> <PUBCHEM_COORDINATE_TYPE>
2
5
10

$$$$
