51137898
  -OEChem-12032416223D

 52 56  0     1  0  0  0  0  0999 V2000
    0.2464   -0.1835   -0.2644 N   0  0  1  0  0  0  0  0  0  0  0  0
    4.8032   -1.1712    0.0613 N   0  0  0  0  0  0  0  0  0  0  0  0
    4.3588    0.9523    0.5442 N   0  0  0  0  0  0  0  0  0  0  0  0
   -6.9980    0.7298   -0.6847 N   0  0  0  0  0  0  0  0  0  0  0  0
    2.3952   -0.6232    0.5657 C   0  0  1  0  0  0  0  0  0  0  0  0
    1.6198    0.2401    1.5760 C   0  0  0  0  0  0  0  0  0  0  0  0
    1.5932   -0.5103   -0.7378 C   0  0  0  0  0  0  0  0  0  0  0  0
    0.4481    0.8120    0.7884 C   0  0  0  0  0  0  0  0  0  0  0  0
    3.8499   -0.2503    0.3965 C   0  0  0  0  0  0  0  0  0  0  0  0
   -0.6139    0.3053   -1.3318 C   0  0  0  0  0  0  0  0  0  0  0  0
    6.0073   -0.5193   -0.0125 C   0  0  0  0  0  0  0  0  0  0  0  0
   -2.0705    0.2230   -0.9599 C   0  0  0  0  0  0  0  0  0  0  0  0
    5.7035    0.8045    0.2930 C   0  0  0  0  0  0  0  0  0  0  0  0
    4.5853   -2.5807   -0.1741 C   0  0  0  0  0  0  0  0  0  0  0  0
    7.2969   -0.9606   -0.3109 C   0  0  0  0  0  0  0  0  0  0  0  0
   -2.7285   -1.0067   -0.9857 C   0  0  0  0  0  0  0  0  0  0  0  0
   -2.7619    1.3764   -0.5893 C   0  0  0  0  0  0  0  0  0  0  0  0
    6.7352    1.7584    0.3062 C   0  0  0  0  0  0  0  0  0  0  0  0
    8.3115    0.0022   -0.2934 C   0  0  0  0  0  0  0  0  0  0  0  0
    8.0378    1.3381    0.0095 C   0  0  0  0  0  0  0  0  0  0  0  0
   -4.0779   -1.0830   -0.6410 C   0  0  0  0  0  0  0  0  0  0  0  0
   -4.1114    1.3001   -0.2446 C   0  0  0  0  0  0  0  0  0  0  0  0
   -4.7693    0.0705   -0.2702 C   0  0  0  0  0  0  0  0  0  0  0  0
   -6.1694   -0.0086    0.0872 C   0  0  0  0  0  0  0  0  0  0  0  0
   -6.5913   -0.7935    1.1482 C   0  0  0  0  0  0  0  0  0  0  0  0
   -7.9515   -0.8224    1.4354 C   0  0  0  0  0  0  0  0  0  0  0  0
   -8.3130    0.6767   -0.3754 C   0  0  0  0  0  0  0  0  0  0  0  0
   -8.8354   -0.0762    0.6638 C   0  0  0  0  0  0  0  0  0  0  0  0
    2.3331   -1.6573    0.9315 H   0  0  0  0  0  0  0  0  0  0  0  0
    1.2472   -0.3989    2.3869 H   0  0  0  0  0  0  0  0  0  0  0  0
    2.2156    1.0353    2.0352 H   0  0  0  0  0  0  0  0  0  0  0  0
    1.9964    0.2824   -1.3825 H   0  0  0  0  0  0  0  0  0  0  0  0
    1.6067   -1.4505   -1.2994 H   0  0  0  0  0  0  0  0  0  0  0  0
    0.7240    1.7923    0.3789 H   0  0  0  0  0  0  0  0  0  0  0  0
   -0.4319    0.9339    1.4276 H   0  0  0  0  0  0  0  0  0  0  0  0
   -0.3454    1.3230   -1.6463 H   0  0  0  0  0  0  0  0  0  0  0  0
   -0.4819   -0.3153   -2.2295 H   0  0  0  0  0  0  0  0  0  0  0  0
    5.4744   -3.0347   -0.6153 H   0  0  0  0  0  0  0  0  0  0  0  0
    3.7496   -2.6986   -0.8679 H   0  0  0  0  0  0  0  0  0  0  0  0
    4.3638   -3.0571    0.7843 H   0  0  0  0  0  0  0  0  0  0  0  0
    7.5186   -1.9953   -0.5449 H   0  0  0  0  0  0  0  0  0  0  0  0
   -2.2009   -1.9121   -1.2739 H   0  0  0  0  0  0  0  0  0  0  0  0
   -2.2604    2.3402   -0.5628 H   0  0  0  0  0  0  0  0  0  0  0  0
    6.5327    2.7987    0.5403 H   0  0  0  0  0  0  0  0  0  0  0  0
    9.3324   -0.2958   -0.5193 H   0  0  0  0  0  0  0  0  0  0  0  0
    8.8474    2.0633    0.0154 H   0  0  0  0  0  0  0  0  0  0  0  0
   -4.5735   -2.0505   -0.6730 H   0  0  0  0  0  0  0  0  0  0  0  0
   -4.6325    2.2094    0.0455 H   0  0  0  0  0  0  0  0  0  0  0  0
   -5.8982   -1.3709    1.7516 H   0  0  0  0  0  0  0  0  0  0  0  0
   -8.3220   -1.4243    2.2597 H   0  0  0  0  0  0  0  0  0  0  0  0
   -8.9602    1.2764   -1.0068 H   0  0  0  0  0  0  0  0  0  0  0  0
   -9.8996   -0.0835    0.8697 H   0  0  0  0  0  0  0  0  0  0  0  0
  1  7  1  0  0  0  0
  1  8  1  0  0  0  0
  1 10  1  0  0  0  0
  2  9  1  0  0  0  0
  2 11  1  0  0  0  0
  2 14  1  0  0  0  0
  3  9  2  0  0  0  0
  3 13  1  0  0  0  0
  4 24  1  0  0  0  0
  4 27  2  0  0  0  0
  5  6  1  0  0  0  0
  5  7  1  0  0  0  0
  5  9  1  0  0  0  0
  5 29  1  0  0  0  0
  6  8  1  0  0  0  0
  6 30  1  0  0  0  0
  6 31  1  0  0  0  0
  7 32  1  0  0  0  0
  7 33  1  0  0  0  0
  8 34  1  0  0  0  0
  8 35  1  0  0  0  0
 10 12  1  0  0  0  0
 10 36  1  0  0  0  0
 10 37  1  0  0  0  0
 11 13  1  0  0  0  0
 11 15  2  0  0  0  0
 12 16  2  0  0  0  0
 12 17  1  0  0  0  0
 13 18  2  0  0  0  0
 14 38  1  0  0  0  0
 14 39  1  0  0  0  0
 14 40  1  0  0  0  0
 15 19  1  0  0  0  0
 15 41  1  0  0  0  0
 16 21  1  0  0  0  0
 16 42  1  0  0  0  0
 17 22  2  0  0  0  0
 17 43  1  0  0  0  0
 18 20  1  0  0  0  0
 18 44  1  0  0  0  0
 19 20  2  0  0  0  0
 19 45  1  0  0  0  0
 20 46  1  0  0  0  0
 21 23  2  0  0  0  0
 21 47  1  0  0  0  0
 22 23  1  0  0  0  0
 22 48  1  0  0  0  0
 23 24  1  0  0  0  0
 24 25  2  0  0  0  0
 25 26  1  0  0  0  0
 25 49  1  0  0  0  0
 26 28  2  0  0  0  0
 26 50  1  0  0  0  0
 27 28  1  0  0  0  0
 27 51  1  0  0  0  0
 28 52  1  0  0  0  0
M  END
> <PUBCHEM_COMPOUND_CID>
51137898

> <PUBCHEM_CONFORMER_RMSD>
0.8

> <PUBCHEM_CONFORMER_DIVERSEORDER>
1
72
109
81
12
64
55
3
46
17
42
103
45
77
18
79
40
50
97
31
74
82
112
36
69
93
86
48
27
52
71
59
78
39
21
91
8
96
47
9
84
33
60
89
19
83
34
73
67
53
38
105
22
70
107
20
98
80
85
7
88
66
65
110
25
16
92
54
62
14
13
75
102
5
51
32
44
95
61
28
35
30
29
57
90
41
106
94
104
43
100
108
37
15
10
101
6
26
2
56
63
24
58
11
23
99
76
68
4
111
87
49

> <PUBCHEM_MMFF94_PARTIAL_CHARGES>
38
1 -0.81
10 0.41
11 -0.15
12 -0.14
13 0.23
14 0.26
15 -0.15
16 -0.15
17 -0.15
18 -0.15
19 -0.15
2 0.05
20 -0.15
21 -0.15
22 -0.15
24 0.31
25 -0.15
26 -0.15
27 0.16
28 -0.15
3 -0.57
4 -0.62
41 0.15
42 0.15
43 0.15
44 0.15
45 0.15
46 0.15
47 0.15
48 0.15
49 0.15
5 0.18
50 0.15
51 0.15
52 0.15
7 0.27
8 0.27
9 0.01

> <PUBCHEM_EFFECTIVE_ROTOR_COUNT>
5

> <PUBCHEM_PHARMACOPHORE_FEATURES>
8
1 1 cation
1 4 acceptor
3 2 3 9 cation
5 1 5 6 7 8 rings
5 2 3 9 11 13 rings
6 11 13 15 18 19 20 rings
6 12 16 17 21 22 23 rings
6 4 24 25 26 27 28 rings

> <PUBCHEM_HEAVY_ATOM_COUNT>
28

> <PUBCHEM_ATOM_DEF_STEREO_COUNT>
1

> <PUBCHEM_ATOM_UDEF_STEREO_COUNT>
0

> <PUBCHEM_BOND_DEF_STEREO_COUNT>
0

> <PUBCHEM_BOND_UDEF_STEREO_COUNT>
0

> <PUBCHEM_ISOTOPIC_ATOM_COUNT>
0

> <PUBCHEM_COMPONENT_COUNT>
1

> <PUBCHEM_CACTVS_TAUTO_COUNT>
1

> <PUBCHEM_CONFORMER_ID>
030C4D6A00000001

> <PUBCHEM_MMFF94_ENERGY>
72.5918

> <PUBCHEM_FEATURE_SELFOVERLAP>
40.706

> <PUBCHEM_SHAPE_FINGERPRINT>
10 15 18411982464369237271
10299344 5 17989205949342305911
106641 1 18186522129168578553
10670039 82 10015593787985206655
10674148 151 14979954766438425950
10883706 142 17894907439463499808
11135609 127 14548441593085460120
11315181 36 18409449177364073393
11638347 137 16153698809641318128
11719270 70 12540691514214829720
12516196 113 16950280698312985733
12730499 353 18334292051325667450
12838862 33 16298656270573239243
13914758 101 11672067436713796895
14123256 10 14707208816260326049
14150022 121 18341615863787429809
14251764 18 17275385400172739921
14251764 46 18410856559645070818
14617042 71 18269555104384952536
14856354 85 17346317124421584597
14933364 13 18412261735943393964
15183329 4 17203608181484064883
15301273 46 18260546702174306415
15328684 2 16557915498496462835
15392192 104 17489590078380918695
15419008 91 17603851322175369269
15439362 3 17485351603043276168
15461852 350 14634868647692192986
15510794 2 18186238416519616803
15728490 51 17676206900949003099
15840311 113 18341894134359490868
15849732 13 18186239533100051911
16120349 18 18342171193555588909
18335252 98 18334016077495051298
18608769 82 18334296500458443515
19315958 150 18411705374127465615
20105231 36 18408046212299278651
21150785 3 14490191617679763798
21267235 1 18333453135799378724
21521721 280 18410855482020022402
21792934 111 16486966290162990170
21792961 116 17988642948202756848
21795232 338 18267305520235925651
21895431 317 12468895595787557808
22224240 67 16660361484953718880
23516275 137 17987819426589642734
23569917 315 14490463146224894552
249057 25 11097856237993762214
249057 3 18272650177353944812
2747138 104 17676491661169772740
28498 318 11095889263515562336
3092352 35 17060338526719667127
335352 9 16343699954300508937
3383291 50 17240493541691514659
3418910 222 18041290914673331181
34797466 226 18259705597274973892
4073 2 18333732455193396594
4325135 7 18335138696068004852
4339292 15 10663519519461564485
5283156 175 17489871523624595182
5385378 56 15841280259213766759
5758199 1 17240481398879633440
59682541 35 17167864196621000312
5969126 39 13479124701680938807
59755656 215 12967137111626483444
59755656 520 16200142202120438773
6394761 36 16200152097033920073
9663363 56 17385721410012346621

> <PUBCHEM_SHAPE_MULTIPOLES>
556.3
29.64
1.52
1.11
10.44
0.31
0.14
-1.76
3.98
-1.92
-0.05
1.14
0.05
1.12

> <PUBCHEM_SHAPE_SELFOVERLAP>
1231.633

> <PUBCHEM_SHAPE_VOLUME>
298.2

> <PUBCHEM_COORDINATE_TYPE>
2
5
10

$$$$
