75536760
  -OEChem-12032416333D

 46 48  0     1  0  0  0  0  0999 V2000
   -0.0194    0.9816   -0.1069 O   0  0  0  0  0  0  0  0  0  0  0  0
    1.1471   -2.3908    0.3075 O   0  0  0  0  0  0  0  0  0  0  0  0
   -7.3143    1.0788   -0.3742 O   0  0  0  0  0  0  0  0  0  0  0  0
   -3.3787   -1.9089   -0.1134 O   0  0  0  0  0  0  0  0  0  0  0  0
    3.4073   -0.2143    0.1342 N   0  0  0  0  0  0  0  0  0  0  0  0
   -2.5782    0.0270    0.8226 N   0  0  0  0  0  0  0  0  0  0  0  0
   -4.7141   -0.0136   -0.1895 N   0  0  0  0  0  0  0  0  0  0  0  0
    6.2110    1.2477    0.3997 N   0  0  0  0  0  0  0  0  0  0  0  0
    6.6808   -0.5860   -0.7617 N   0  0  0  0  0  0  0  0  0  0  0  0
    2.0277   -0.2031   -0.3242 C   0  0  1  0  0  0  0  0  0  0  0  0
    1.0859   -1.0004    0.5592 C   0  0  1  0  0  0  0  0  0  0  0  0
   -0.2599   -0.4099    0.1611 C   0  0  1  0  0  0  0  0  0  0  0  0
    1.3964    1.1782   -0.2672 C   0  0  0  0  0  0  0  0  0  0  0  0
   -1.3195   -0.5492    1.2396 C   0  0  0  0  0  0  0  0  0  0  0  0
    4.3099    0.2664   -0.9049 C   0  0  0  0  0  0  0  0  0  0  0  0
   -3.5466   -0.7149    0.1565 C   0  0  0  0  0  0  0  0  0  0  0  0
   -5.7849   -0.7162   -0.9004 C   0  0  0  0  0  0  0  0  0  0  0  0
   -4.9319    1.4327   -0.0436 C   0  0  0  0  0  0  0  0  0  0  0  0
    5.7426    0.2775   -0.4420 C   0  0  0  0  0  0  0  0  0  0  0  0
   -7.1482   -0.3399   -0.3420 C   0  0  0  0  0  0  0  0  0  0  0  0
   -6.3442    1.7210    0.4541 C   0  0  0  0  0  0  0  0  0  0  0  0
    7.5321    0.9862    0.6314 C   0  0  0  0  0  0  0  0  0  0  0  0
    7.7989   -0.1498   -0.0958 C   0  0  0  0  0  0  0  0  0  0  0  0
    1.9635   -0.6098   -1.3434 H   0  0  0  0  0  0  0  0  0  0  0  0
    1.2967   -0.8238    1.6214 H   0  0  0  0  0  0  0  0  0  0  0  0
   -0.6229   -0.8637   -0.7704 H   0  0  0  0  0  0  0  0  0  0  0  0
    1.5802    1.7647   -1.1724 H   0  0  0  0  0  0  0  0  0  0  0  0
    1.7412    1.7588    0.5963 H   0  0  0  0  0  0  0  0  0  0  0  0
   -1.0219   -0.0047    2.1426 H   0  0  0  0  0  0  0  0  0  0  0  0
   -1.4693   -1.6013    1.5043 H   0  0  0  0  0  0  0  0  0  0  0  0
    3.6687   -1.1688    0.3831 H   0  0  0  0  0  0  0  0  0  0  0  0
   -2.7063    1.0072    1.0277 H   0  0  0  0  0  0  0  0  0  0  0  0
    0.9605   -2.5395   -0.6349 H   0  0  0  0  0  0  0  0  0  0  0  0
    4.0426    1.2843   -1.2136 H   0  0  0  0  0  0  0  0  0  0  0  0
    4.2448   -0.3737   -1.7937 H   0  0  0  0  0  0  0  0  0  0  0  0
   -5.6443   -1.8004   -0.8561 H   0  0  0  0  0  0  0  0  0  0  0  0
   -5.7098   -0.4084   -1.9502 H   0  0  0  0  0  0  0  0  0  0  0  0
   -4.7964    1.8593   -1.0446 H   0  0  0  0  0  0  0  0  0  0  0  0
   -4.2190    1.9160    0.6219 H   0  0  0  0  0  0  0  0  0  0  0  0
   -7.9405   -0.7856   -0.9514 H   0  0  0  0  0  0  0  0  0  0  0  0
   -7.2738   -0.6982    0.6867 H   0  0  0  0  0  0  0  0  0  0  0  0
   -6.4752    1.3859    1.4900 H   0  0  0  0  0  0  0  0  0  0  0  0
   -6.5383    2.7978    0.4258 H   0  0  0  0  0  0  0  0  0  0  0  0
    5.6789    2.0182    0.7821 H   0  0  0  0  0  0  0  0  0  0  0  0
    8.1389    1.6112    1.2703 H   0  0  0  0  0  0  0  0  0  0  0  0
    8.7391   -0.6760   -0.1737 H   0  0  0  0  0  0  0  0  0  0  0  0
  1 12  1  0  0  0  0
  1 13  1  0  0  0  0
  2 11  1  0  0  0  0
  2 33  1  0  0  0  0
  3 20  1  0  0  0  0
  3 21  1  0  0  0  0
  4 16  2  0  0  0  0
  5 10  1  0  0  0  0
  5 15  1  0  0  0  0
  5 31  1  0  0  0  0
  6 14  1  0  0  0  0
  6 16  1  0  0  0  0
  6 32  1  0  0  0  0
  7 16  1  0  0  0  0
  7 17  1  0  0  0  0
  7 18  1  0  0  0  0
  8 19  1  0  0  0  0
  8 22  1  0  0  0  0
  8 44  1  0  0  0  0
  9 19  2  0  0  0  0
  9 23  1  0  0  0  0
 10 11  1  0  0  0  0
 10 13  1  0  0  0  0
 10 24  1  0  0  0  0
 11 12  1  0  0  0  0
 11 25  1  0  0  0  0
 12 14  1  0  0  0  0
 12 26  1  0  0  0  0
 13 27  1  0  0  0  0
 13 28  1  0  0  0  0
 14 29  1  0  0  0  0
 14 30  1  0  0  0  0
 15 19  1  0  0  0  0
 15 34  1  0  0  0  0
 15 35  1  0  0  0  0
 17 20  1  0  0  0  0
 17 36  1  0  0  0  0
 17 37  1  0  0  0  0
 18 21  1  0  0  0  0
 18 38  1  0  0  0  0
 18 39  1  0  0  0  0
 20 40  1  0  0  0  0
 20 41  1  0  0  0  0
 21 42  1  0  0  0  0
 21 43  1  0  0  0  0
 22 23  2  0  0  0  0
 22 45  1  0  0  0  0
 23 46  1  0  0  0  0
M  END
> <PUBCHEM_COMPOUND_CID>
75536760

> <PUBCHEM_CONFORMER_RMSD>
1

> <PUBCHEM_CONFORMER_DIVERSEORDER>
1
57
10
48
65
46
36
33
47
12
52
39
11
28
54
29
61
21
63
9
25
20
31
56
60
42
23
13
59
8
18
7
24
40
27
3
5
43
64
51
55
19
15
58
49
34
53
22
16
26
45
62
35
2
14
44
50
4
41
38
17
37
6
30
32

> <PUBCHEM_MMFF94_PARTIAL_CHARGES>
29
1 -0.56
10 0.27
11 0.28
12 0.28
13 0.28
14 0.3
15 0.45
16 0.69
17 0.3
18 0.3
19 0.01
2 -0.68
20 0.28
21 0.28
22 -0.3
23 0.08
3 -0.56
31 0.36
32 0.37
33 0.4
4 -0.57
44 0.27
45 0.15
46 0.15
5 -0.9
6 -0.73
7 -0.66
8 0.03
9 -0.57

> <PUBCHEM_EFFECTIVE_ROTOR_COUNT>
9.2

> <PUBCHEM_PHARMACOPHORE_FEATURES>
13
1 1 acceptor
1 2 acceptor
1 2 donor
1 3 acceptor
1 4 acceptor
1 5 cation
1 5 donor
1 6 donor
1 8 donor
3 8 9 19 cation
5 1 10 11 12 13 rings
5 8 9 19 22 23 rings
6 3 7 17 18 20 21 rings

> <PUBCHEM_HEAVY_ATOM_COUNT>
23

> <PUBCHEM_ATOM_DEF_STEREO_COUNT>
3

> <PUBCHEM_ATOM_UDEF_STEREO_COUNT>
0

> <PUBCHEM_BOND_DEF_STEREO_COUNT>
0

> <PUBCHEM_BOND_UDEF_STEREO_COUNT>
0

> <PUBCHEM_ISOTOPIC_ATOM_COUNT>
0

> <PUBCHEM_COMPONENT_COUNT>
1

> <PUBCHEM_CACTVS_TAUTO_COUNT>
2

> <PUBCHEM_CONFORMER_ID>
0480997800000001

> <PUBCHEM_MMFF94_ENERGY>
35.1589

> <PUBCHEM_FEATURE_SELFOVERLAP>
65.975

> <PUBCHEM_SHAPE_FINGERPRINT>
10 15 13984666953243216619
10066227 49 17203337646216644198
10087517 78 18259984834490152437
106641 1 9655569704437595334
10670039 82 18409443666720897181
10730089 173 18411138022539031709
10968037 39 17775849021451011719
11135609 99 10591458639209054705
11315181 36 17275388724730654403
11719270 70 17703790293600351254
12082328 90 18131349700923090783
12091667 2 18413392047119155723
125118 31 18335986445767567068
13533116 47 17531518794843873410
13685833 64 9367345933908440378
13885169 127 18272653428549398221
13914758 101 18408886213734420568
13968360 50 17489592229916798142
14123256 10 18410855464423135597
14251764 18 17675922101387803051
14251764 46 17603867805895255681
14729087 3 18408321081753022225
15183329 4 17385723599612328116
15716309 27 10737287952251640937
15849732 13 17918274268270469188
18006028 8 14333128572243675483
18335252 98 18333740122364011467
18681886 176 17988353858285908491
20281389 69 15791730823616358412
20554085 129 18130774669338111602
21150785 3 17275384304676628045
220451 1 15068341242046197530
22224240 67 18186518813016151642
23198884 109 18341896282000562613
23402539 116 18410855490815483814
23559900 14 17703782665326307737
246663 6 11312056564739341116
2838139 119 17821727251905251045
3009799 131 18131351916530304680
328311 84 12035442831702408576
33532 11 8935010265491926688
335352 9 18260270772100608396
4073 2 18114749342860052346
4340502 62 15285357315113284834
5385378 56 17458622272890886714
5758199 1 18333450932491465027
57583515 80 18411421717338289442
59682541 35 8574423231742903100
5969126 39 14836409103657377075
59755656 215 18409170987399040670
59755656 520 16081087117129257595

> <PUBCHEM_SHAPE_MULTIPOLES>
424.95
23.87
1.54
0.87
9.88
0.2
-0.04
-6.76
2.71
-1.23
-0.13
0.05
0.04
0

> <PUBCHEM_SHAPE_SELFOVERLAP>
878.948

> <PUBCHEM_SHAPE_VOLUME>
241.6

> <PUBCHEM_COORDINATE_TYPE>
2
5
10

$$$$
