11866326
  -OEChem-12032416113D

 62 64  0     1  0  0  0  0  0999 V2000
    0.4302    4.3381    1.3599 O   0  0  0  0  0  0  0  0  0  0  0  0
    2.2809    4.1179   -1.7881 O   0  0  0  0  0  0  0  0  0  0  0  0
    3.7224    0.6904    1.9651 O   0  0  0  0  0  0  0  0  0  0  0  0
   -1.9293    0.8925   -1.3476 O   0  0  0  0  0  0  0  0  0  0  0  0
    5.7834   -0.4264   -1.2573 O   0  0  0  0  0  0  0  0  0  0  0  0
   -1.8299   -3.9567    0.6115 O   0  0  0  0  0  0  0  0  0  0  0  0
   -1.1797    2.3750    0.2604 N   0  0  0  0  0  0  0  0  0  0  0  0
    3.2919   -0.2967   -0.1025 N   0  0  0  0  0  0  0  0  0  0  0  0
   -3.2777    1.4683    0.4859 N   0  0  0  0  0  0  0  0  0  0  0  0
    6.4373   -1.8007    0.4632 N   0  0  0  0  0  0  0  0  0  0  0  0
    0.6100    4.0506   -0.0286 C   0  0  1  0  0  0  0  0  0  0  0  0
    2.0945    4.2143   -0.3775 C   0  0  1  0  0  0  0  0  0  0  0  0
    0.1128    2.6238   -0.3297 C   0  0  1  0  0  0  0  0  0  0  0  0
    2.9760    3.1797    0.3431 C   0  0  0  0  0  0  0  0  0  0  0  0
    2.3473    1.8179    0.4296 C   0  0  0  0  0  0  0  0  0  0  0  0
    1.0684    1.5531    0.1230 C   0  0  0  0  0  0  0  0  0  0  0  0
    3.1876    0.6954    0.8568 C   0  0  0  0  0  0  0  0  0  0  0  0
    4.0684   -1.5008    0.0881 C   0  0  1  0  0  0  0  0  0  0  0  0
   -2.1249    1.5098   -0.3034 C   0  0  0  0  0  0  0  0  0  0  0  0
    3.5196   -2.6789   -0.7246 C   0  0  0  0  0  0  0  0  0  0  0  0
    2.0933   -3.0202   -0.3682 C   0  0  0  0  0  0  0  0  0  0  0  0
    5.4957   -1.1847   -0.3342 C   0  0  0  0  0  0  0  0  0  0  0  0
   -4.4561    0.7187    0.2623 C   0  0  0  0  0  0  0  0  0  0  0  0
    1.0398   -2.4105   -1.0493 C   0  0  0  0  0  0  0  0  0  0  0  0
    1.8283   -3.9447    0.6422 C   0  0  0  0  0  0  0  0  0  0  0  0
   -0.2786   -2.7252   -0.7203 C   0  0  0  0  0  0  0  0  0  0  0  0
    0.5099   -4.2595    0.9713 C   0  0  0  0  0  0  0  0  0  0  0  0
   -5.5170    0.8023    1.1642 C   0  0  0  0  0  0  0  0  0  0  0  0
   -4.5575   -0.1041   -0.8596 C   0  0  0  0  0  0  0  0  0  0  0  0
   -0.5435   -3.6498    0.2900 C   0  0  0  0  0  0  0  0  0  0  0  0
   -6.6792    0.0631    0.9441 C   0  0  0  0  0  0  0  0  0  0  0  0
   -5.7198   -0.8431   -1.0795 C   0  0  0  0  0  0  0  0  0  0  0  0
   -6.7806   -0.7596   -0.1778 C   0  0  0  0  0  0  0  0  0  0  0  0
   -8.0240   -1.5490   -0.4127 C   0  0  0  0  0  0  0  0  0  0  0  0
   -0.0004    4.7637   -0.5958 H   0  0  0  0  0  0  0  0  0  0  0  0
    2.4306    5.2155   -0.0814 H   0  0  0  0  0  0  0  0  0  0  0  0
    0.0117    2.5135   -1.4174 H   0  0  0  0  0  0  0  0  0  0  0  0
    3.9447    3.1000   -0.1649 H   0  0  0  0  0  0  0  0  0  0  0  0
    3.1669    3.5260    1.3666 H   0  0  0  0  0  0  0  0  0  0  0  0
    0.6871    0.5366    0.1892 H   0  0  0  0  0  0  0  0  0  0  0  0
   -1.3811    2.7836    1.1681 H   0  0  0  0  0  0  0  0  0  0  0  0
    0.7248    5.2526    1.5097 H   0  0  0  0  0  0  0  0  0  0  0  0
    3.2236    4.2699   -1.9714 H   0  0  0  0  0  0  0  0  0  0  0  0
    4.0513   -1.7442    1.1581 H   0  0  0  0  0  0  0  0  0  0  0  0
    2.8776   -0.1446   -1.0180 H   0  0  0  0  0  0  0  0  0  0  0  0
    4.1545   -3.5630   -0.5785 H   0  0  0  0  0  0  0  0  0  0  0  0
    3.5781   -2.4600   -1.7998 H   0  0  0  0  0  0  0  0  0  0  0  0
   -3.2784    2.0449    1.3235 H   0  0  0  0  0  0  0  0  0  0  0  0
    1.2302   -1.6918   -1.8419 H   0  0  0  0  0  0  0  0  0  0  0  0
    2.6410   -4.4245    1.1813 H   0  0  0  0  0  0  0  0  0  0  0  0
    7.4288   -1.6614    0.2995 H   0  0  0  0  0  0  0  0  0  0  0  0
    6.1854   -2.4216    1.2256 H   0  0  0  0  0  0  0  0  0  0  0  0
   -1.0904   -2.2428   -1.2580 H   0  0  0  0  0  0  0  0  0  0  0  0
    0.3098   -4.9799    1.7598 H   0  0  0  0  0  0  0  0  0  0  0  0
   -5.4509    1.4398    2.0421 H   0  0  0  0  0  0  0  0  0  0  0  0
   -3.7800   -0.2219   -1.6010 H   0  0  0  0  0  0  0  0  0  0  0  0
   -7.4996    0.1380    1.6530 H   0  0  0  0  0  0  0  0  0  0  0  0
   -5.7886   -1.4799   -1.9577 H   0  0  0  0  0  0  0  0  0  0  0  0
   -8.7349   -0.9631   -1.0036 H   0  0  0  0  0  0  0  0  0  0  0  0
   -7.8062   -2.4797   -0.9476 H   0  0  0  0  0  0  0  0  0  0  0  0
   -8.4996   -1.8277    0.5338 H   0  0  0  0  0  0  0  0  0  0  0  0
   -2.4282   -3.4405    0.0443 H   0  0  0  0  0  0  0  0  0  0  0  0
  1 11  1  0  0  0  0
  1 42  1  0  0  0  0
  2 12  1  0  0  0  0
  2 43  1  0  0  0  0
  3 17  2  0  0  0  0
  4 19  2  0  0  0  0
  5 22  2  0  0  0  0
  6 30  1  0  0  0  0
  6 62  1  0  0  0  0
  7 13  1  0  0  0  0
  7 19  1  0  0  0  0
  7 41  1  0  0  0  0
  8 17  1  0  0  0  0
  8 18  1  0  0  0  0
  8 45  1  0  0  0  0
  9 19  1  0  0  0  0
  9 23  1  0  0  0  0
  9 48  1  0  0  0  0
 10 22  1  0  0  0  0
 10 51  1  0  0  0  0
 10 52  1  0  0  0  0
 11 12  1  0  0  0  0
 11 13  1  0  0  0  0
 11 35  1  0  0  0  0
 12 14  1  0  0  0  0
 12 36  1  0  0  0  0
 13 16  1  0  0  0  0
 13 37  1  0  0  0  0
 14 15  1  0  0  0  0
 14 38  1  0  0  0  0
 14 39  1  0  0  0  0
 15 16  2  0  0  0  0
 15 17  1  0  0  0  0
 16 40  1  0  0  0  0
 18 20  1  0  0  0  0
 18 22  1  0  0  0  0
 18 44  1  0  0  0  0
 20 21  1  0  0  0  0
 20 46  1  0  0  0  0
 20 47  1  0  0  0  0
 21 24  2  0  0  0  0
 21 25  1  0  0  0  0
 23 28  2  0  0  0  0
 23 29  1  0  0  0  0
 24 26  1  0  0  0  0
 24 49  1  0  0  0  0
 25 27  2  0  0  0  0
 25 50  1  0  0  0  0
 26 30  2  0  0  0  0
 26 53  1  0  0  0  0
 27 30  1  0  0  0  0
 27 54  1  0  0  0  0
 28 31  1  0  0  0  0
 28 55  1  0  0  0  0
 29 32  2  0  0  0  0
 29 56  1  0  0  0  0
 31 33  2  0  0  0  0
 31 57  1  0  0  0  0
 32 33  1  0  0  0  0
 32 58  1  0  0  0  0
 33 34  1  0  0  0  0
 34 59  1  0  0  0  0
 34 60  1  0  0  0  0
 34 61  1  0  0  0  0
M  END
> <PUBCHEM_COMPOUND_CID>
11866326

> <PUBCHEM_CONFORMER_RMSD>
1

> <PUBCHEM_CONFORMER_DIVERSEORDER>
1
22
46
97
171
164
43
34
9
159
194
115
88
196
134
110
162
147
26
59
63
198
113
191
184
122
186
189
92
203
127
149
182
58
121
62
132
53
75
145
195
158
85
126
61
116
131
23
181
175
178
144
101
81
135
32
136
8
84
123
180
207
152
73
119
187
14
11
133
143
13
72
111
106
31
165
163
155
96
108
79
139
29
140
151
129
142
49
167
54
141
4
25
105
18
104
33
69
41
102
65
168
67
148
90
193
36
48
95
197
42
80
204
44
91
68
210
109
177
71
20
39
86
24
77
124
93
125
201
192
112
47
206
21
38
174
98
114
2
169
128
30
173
185
56
170
117
156
5
40
99
19
17
153
3
209
7
118
70
83
161
100
208
12
190
188
27
202
35
146
172
137
50
120
52
15
130
66
200
55
107
6
89
160
183
150
103
154
74
82
76
176
157
10
166
199
94
16
179
205
28
64
45
57
78
37
60
87
138
51

> <PUBCHEM_MMFF94_PARTIAL_CHARGES>
51
1 -0.68
10 -0.8
11 0.28
12 0.28
13 0.44
14 0.14
15 -0.12
16 -0.29
17 0.62
18 0.36
19 0.69
2 -0.68
20 0.14
21 -0.14
22 0.57
23 0.12
24 -0.15
25 -0.15
26 -0.15
27 -0.15
28 -0.15
29 -0.15
3 -0.57
30 0.08
31 -0.15
32 -0.15
33 -0.14
34 0.14
4 -0.57
40 0.15
41 0.37
42 0.4
43 0.4
45 0.37
48 0.37
49 0.15
5 -0.57
50 0.15
51 0.37
52 0.37
53 0.15
54 0.15
55 0.15
56 0.15
57 0.15
58 0.15
6 -0.53
62 0.45
7 -0.73
8 -0.73
9 -0.55

> <PUBCHEM_EFFECTIVE_ROTOR_COUNT>
10.8

> <PUBCHEM_PHARMACOPHORE_FEATURES>
15
1 1 acceptor
1 1 donor
1 10 donor
1 2 acceptor
1 2 donor
1 3 acceptor
1 4 acceptor
1 5 acceptor
1 6 donor
1 7 donor
1 8 donor
1 9 donor
6 11 12 13 14 15 16 rings
6 21 24 25 26 27 30 rings
6 23 28 29 31 32 33 rings

> <PUBCHEM_HEAVY_ATOM_COUNT>
34

> <PUBCHEM_ATOM_DEF_STEREO_COUNT>
4

> <PUBCHEM_ATOM_UDEF_STEREO_COUNT>
0

> <PUBCHEM_BOND_DEF_STEREO_COUNT>
0

> <PUBCHEM_BOND_UDEF_STEREO_COUNT>
0

> <PUBCHEM_ISOTOPIC_ATOM_COUNT>
0

> <PUBCHEM_COMPONENT_COUNT>
1

> <PUBCHEM_CACTVS_TAUTO_COUNT>
24

> <PUBCHEM_CONFORMER_ID>
00B510D600000001

> <PUBCHEM_MMFF94_ENERGY>
82.8079

> <PUBCHEM_FEATURE_SELFOVERLAP>
76.185

> <PUBCHEM_SHAPE_FINGERPRINT>
10049733 57 18117294729912125107
10316853 100 18410012152005980698
10816530 23 17834954548639297105
10864689 126 18194689172707238543
1100329 8 18410857697948924814
11513181 2 17840312447062817142
13383661 66 17486787285634017454
13402501 40 18409733919613637955
13533116 47 18341330115222807321
1361 2 18410292549114491097
13692114 37 17837196448373698345
14068700 675 18201722821245622784
14394314 77 18267309725187931569
14784336 7 17916294126034768649
14849402 71 18410295830427534423
15320467 1 18410575072211291419
15328829 1 17488438889975006765
15483637 11 17905044003941699547
15927050 60 18053103118682363036
16112460 7 18341333400118096625
20028762 73 18272650151621363391
20764821 26 18337678623441112214
21133410 62 18188756272251047623
21133410 90 17131549565249520890
21197605 99 18271805769746678615
3178227 256 18336838536649164235
373842 8 18266461091401216419
392239 28 18339364046239402659
463206 1 18412826906220846943
469060 322 18194976132277883176
5309563 4 18339360747556540357
53794403 172 18264492951968677477
5776283 40 18265626544921868844
66674814 147 18412549781845450499
86090 222 18113624486783224267

> <PUBCHEM_SHAPE_MULTIPOLES>
644.56
15.07
6.68
1.2
24.47
1.16
-0.02
-5.92
0.31
-6
-0.4
-0.13
0.24
-0.42

> <PUBCHEM_SHAPE_SELFOVERLAP>
1367.903

> <PUBCHEM_SHAPE_VOLUME>
355.6

> <PUBCHEM_COORDINATE_TYPE>
2
5
10

$$$$
