51137031
  -OEChem-12032416223D

 46 49  0     1  0  0  0  0  0999 V2000
   -5.2131   -1.4143   -0.1379 S   0  0  0  0  0  0  0  0  0  0  0  0
   -0.9645    2.4995   -0.9203 O   0  0  0  0  0  0  0  0  0  0  0  0
    3.9387   -0.2268    2.5342 O   0  0  0  0  0  0  0  0  0  0  0  0
   -6.3250   -1.1474   -1.0385 O   0  0  0  0  0  0  0  0  0  0  0  0
   -4.5662   -2.7175   -0.1507 O   0  0  0  0  0  0  0  0  0  0  0  0
    2.9585    1.0643    0.8711 N   0  0  0  0  0  0  0  0  0  0  0  0
   -0.3260    0.5093   -0.0435 N   0  0  0  0  0  0  0  0  0  0  0  0
    5.4853   -2.5996   -1.5307 N   0  0  0  0  0  0  0  0  0  0  0  0
    1.4258    2.3234   -0.4438 C   0  0  1  0  0  0  0  0  0  0  0  0
    1.7150    3.0695    0.8679 C   0  0  0  0  0  0  0  0  0  0  0  0
    2.6087    1.3478   -0.5218 C   0  0  0  0  0  0  0  0  0  0  0  0
    2.3063    1.9989    1.7750 C   0  0  0  0  0  0  0  0  0  0  0  0
    0.0371    1.7079   -0.4439 C   0  0  0  0  0  0  0  0  0  0  0  0
    3.7306    0.0161    1.3472 C   0  0  0  0  0  0  0  0  0  0  0  0
   -1.6811    0.4971   -0.2701 C   0  0  0  0  0  0  0  0  0  0  0  0
   -2.0756    1.7138   -0.8068 C   0  0  0  0  0  0  0  0  0  0  0  0
    4.3370   -0.8862    0.3559 C   0  0  0  0  0  0  0  0  0  0  0  0
   -2.6492   -0.4937   -0.0532 C   0  0  0  0  0  0  0  0  0  0  0  0
   -3.9783   -0.2017   -0.3927 C   0  0  0  0  0  0  0  0  0  0  0  0
   -3.3805    2.0395   -1.1553 C   0  0  0  0  0  0  0  0  0  0  0  0
   -4.3341    1.0403   -0.9326 C   0  0  0  0  0  0  0  0  0  0  0  0
   -5.7963   -1.1070    1.5132 C   0  0  0  0  0  0  0  0  0  0  0  0
    5.2218   -0.3867   -0.5934 C   0  0  0  0  0  0  0  0  0  0  0  0
    4.0257   -2.2413    0.3629 C   0  0  0  0  0  0  0  0  0  0  0  0
   -6.8855   -2.0795    1.9068 C   0  0  0  0  0  0  0  0  0  0  0  0
    5.7638   -1.2769   -1.5064 C   0  0  0  0  0  0  0  0  0  0  0  0
    4.6212   -3.0485   -0.5929 C   0  0  0  0  0  0  0  0  0  0  0  0
    1.4678    3.0156   -1.2941 H   0  0  0  0  0  0  0  0  0  0  0  0
    2.4710    3.8434    0.6833 H   0  0  0  0  0  0  0  0  0  0  0  0
    0.8396    3.5525    1.3129 H   0  0  0  0  0  0  0  0  0  0  0  0
    3.4713    1.8410   -0.9826 H   0  0  0  0  0  0  0  0  0  0  0  0
    2.3793    0.4280   -1.0677 H   0  0  0  0  0  0  0  0  0  0  0  0
    3.0237    2.3981    2.4982 H   0  0  0  0  0  0  0  0  0  0  0  0
    1.5271    1.4534    2.3189 H   0  0  0  0  0  0  0  0  0  0  0  0
   -2.3618   -1.4493    0.3720 H   0  0  0  0  0  0  0  0  0  0  0  0
   -3.6452    3.0038   -1.5706 H   0  0  0  0  0  0  0  0  0  0  0  0
   -5.3691    1.2583   -1.1856 H   0  0  0  0  0  0  0  0  0  0  0  0
   -6.1728   -0.0803    1.5483 H   0  0  0  0  0  0  0  0  0  0  0  0
   -4.9419   -1.1987    2.1906 H   0  0  0  0  0  0  0  0  0  0  0  0
    5.5069    0.6593   -0.6200 H   0  0  0  0  0  0  0  0  0  0  0  0
    3.3376   -2.6639    1.0874 H   0  0  0  0  0  0  0  0  0  0  0  0
   -7.7476   -2.0019    1.2366 H   0  0  0  0  0  0  0  0  0  0  0  0
   -6.5261   -3.1129    1.8695 H   0  0  0  0  0  0  0  0  0  0  0  0
   -7.2279   -1.8751    2.9258 H   0  0  0  0  0  0  0  0  0  0  0  0
    6.4632   -0.9385   -2.2639 H   0  0  0  0  0  0  0  0  0  0  0  0
    4.4110   -4.1123   -0.6305 H   0  0  0  0  0  0  0  0  0  0  0  0
  1  4  2  0  0  0  0
  1  5  2  0  0  0  0
  1 19  1  0  0  0  0
  1 22  1  0  0  0  0
  2 13  1  0  0  0  0
  2 16  1  0  0  0  0
  3 14  2  0  0  0  0
  6 11  1  0  0  0  0
  6 12  1  0  0  0  0
  6 14  1  0  0  0  0
  7 13  2  0  0  0  0
  7 15  1  0  0  0  0
  8 26  2  0  0  0  0
  8 27  1  0  0  0  0
  9 10  1  0  0  0  0
  9 11  1  0  0  0  0
  9 13  1  0  0  0  0
  9 28  1  0  0  0  0
 10 12  1  0  0  0  0
 10 29  1  0  0  0  0
 10 30  1  0  0  0  0
 11 31  1  0  0  0  0
 11 32  1  0  0  0  0
 12 33  1  0  0  0  0
 12 34  1  0  0  0  0
 14 17  1  0  0  0  0
 15 16  2  0  0  0  0
 15 18  1  0  0  0  0
 16 20  1  0  0  0  0
 17 23  2  0  0  0  0
 17 24  1  0  0  0  0
 18 19  2  0  0  0  0
 18 35  1  0  0  0  0
 19 21  1  0  0  0  0
 20 21  2  0  0  0  0
 20 36  1  0  0  0  0
 21 37  1  0  0  0  0
 22 25  1  0  0  0  0
 22 38  1  0  0  0  0
 22 39  1  0  0  0  0
 23 26  1  0  0  0  0
 23 40  1  0  0  0  0
 24 27  2  0  0  0  0
 24 41  1  0  0  0  0
 25 42  1  0  0  0  0
 25 43  1  0  0  0  0
 25 44  1  0  0  0  0
 26 45  1  0  0  0  0
 27 46  1  0  0  0  0
M  END
> <PUBCHEM_COMPOUND_CID>
51137031

> <PUBCHEM_CONFORMER_RMSD>
0.8

> <PUBCHEM_CONFORMER_DIVERSEORDER>
1
47
30
49
95
81
43
91
59
94
98
15
75
74
66
36
69
56
16
67
18
60
4
54
63
89
92
68
80
6
99
76
21
50
87
40
65
93
3
22
33
82
17
44
34
2
85
77
32
61
64
14
45
37
78
84
96
10
13
51
79
62
11
88
35
48
46
53
29
73
86
83
28
5
57
55
52
71
42
31
39
58
72
9
25
38
41
23
70
24
26
19
12
8
7
97
90
27
20

> <PUBCHEM_MMFF94_PARTIAL_CHARGES>
32
1 1.2
11 0.3
12 0.3
13 0.3
14 0.54
15 0.23
16 0.14
17 0.09
18 -0.15
19 -0.01
2 -0.28
20 -0.15
21 -0.15
22 0.11
23 -0.15
24 -0.15
26 0.16
27 0.16
3 -0.57
35 0.15
36 0.15
37 0.15
4 -0.65
40 0.15
41 0.15
45 0.15
46 0.15
5 -0.65
6 -0.66
7 -0.57
8 -0.62
9 0.18

> <PUBCHEM_EFFECTIVE_ROTOR_COUNT>
6

> <PUBCHEM_PHARMACOPHORE_FEATURES>
8
1 3 acceptor
1 4 acceptor
1 5 acceptor
1 8 acceptor
5 2 7 13 15 16 rings
5 6 9 10 11 12 rings
6 15 16 18 19 20 21 rings
6 8 17 23 24 26 27 rings

> <PUBCHEM_HEAVY_ATOM_COUNT>
27

> <PUBCHEM_ATOM_DEF_STEREO_COUNT>
1

> <PUBCHEM_ATOM_UDEF_STEREO_COUNT>
0

> <PUBCHEM_BOND_DEF_STEREO_COUNT>
0

> <PUBCHEM_BOND_UDEF_STEREO_COUNT>
0

> <PUBCHEM_ISOTOPIC_ATOM_COUNT>
0

> <PUBCHEM_COMPONENT_COUNT>
1

> <PUBCHEM_CACTVS_TAUTO_COUNT>
1

> <PUBCHEM_CONFORMER_ID>
030C4A0700000001

> <PUBCHEM_MMFF94_ENERGY>
53.1657

> <PUBCHEM_FEATURE_SELFOVERLAP>
40.735

> <PUBCHEM_SHAPE_FINGERPRINT>
10169797 241 18261110833164613554
10928967 22 18334007272480207795
10981352 41 18338517573047876491
11200772 71 12252477716889744361
117089 54 18196097651102403430
11796584 16 18189322490400150380
11991303 11 17461153258838604613
12403259 118 12175323817073036552
12422481 6 18130790088038354991
12623949 98 18337956817194333373
12633257 1 15194987342056413892
13402501 40 18341332210765966862
13533116 47 18130505335542382049
1361 87 17894921771347756899
13690498 29 18187367597200926549
13782708 43 18343298189354052543
13955234 65 18199748227353983352
14251732 14 17603591837061402323
14251740 57 18341328989149766662
14251764 30 18270967847507321702
14420673 8 18196937677868823333
14739800 52 10303819743654929981
14866123 147 17696472884075802385
14950920 106 17203328948780976195
15510800 12 18268697347469612462
15669420 48 16226623990581878518
1813 80 17603578629894906652
193927 3 18260264166214319793
20567600 254 8070021156447352174
20775530 9 18341325609337636694
21682296 61 18341895182452278223
2215653 11 18269540655175420205
23424784 1240 18409730659944379010
23559900 14 18408595955370572981
25122255 55 18335134306880284735
2748736 6 10231756660960494651
3089732 80 18335703857892985003
312425 54 17489587900447318451
3146122 67 17682403894650148651
393628 179 11819574687335468014
439807 62 18187368679580592494
44317340 157 11891328704135522905
46194498 28 18113620122980374396
5104073 3 18335693975495309201
56633871 153 18265901435866922659
60111433 81 12955507787782630708
6823239 73 18340476782340118986
7918774 8 18410858737204032904
86090 222 18041278867484595155
8863177 126 18341891904864801502
9980921 177 16413543055333794035
9980921 52 17630858622051798391

> <PUBCHEM_SHAPE_MULTIPOLES>
521.08
16.64
3.52
1.66
10.41
0.17
0.8
16.17
0.44
-1.31
-0.24
-0.49
0.15
3.34

> <PUBCHEM_SHAPE_SELFOVERLAP>
1124.715

> <PUBCHEM_SHAPE_VOLUME>
289.3

> <PUBCHEM_COORDINATE_TYPE>
2
5
10

$$$$
