75536837
  -OEChem-12032416393D

 44 46  0     1  0  0  0  0  0999 V2000
    0.8270   -0.8990   -0.0933 O   0  0  0  0  0  0  0  0  0  0  0  0
    6.9800   -1.1689    0.0834 O   0  0  0  0  0  0  0  0  0  0  0  0
    1.9253    2.5213   -0.0786 O   0  0  0  0  0  0  0  0  0  0  0  0
   -6.4571   -1.1778    0.3089 O   0  0  0  0  0  0  0  0  0  0  0  0
   -2.5806    1.8968    0.3674 O   0  0  0  0  0  0  0  0  0  0  0  0
    4.2261    0.3871   -0.2434 N   0  0  0  0  0  0  0  0  0  0  0  0
   -1.7687    0.1189   -0.8344 N   0  0  0  0  0  0  0  0  0  0  0  0
   -3.8811   -0.0184    0.2180 N   0  0  0  0  0  0  0  0  0  0  0  0
    2.8578    0.2874    0.2377 C   0  0  1  0  0  0  0  0  0  0  0  0
    1.8823    1.1757   -0.5120 C   0  0  1  0  0  0  0  0  0  0  0  0
    0.5564    0.5107   -0.1685 C   0  0  1  0  0  0  0  0  0  0  0  0
    5.1268   -0.3012    0.6898 C   0  0  0  0  0  0  0  0  0  0  0  0
    2.2493   -1.0867    0.0102 C   0  0  0  0  0  0  0  0  0  0  0  0
   -0.5300    0.7706   -1.1967 C   0  0  0  0  0  0  0  0  0  0  0  0
    6.5584    0.1728    0.4399 C   0  0  0  0  0  0  0  0  0  0  0  0
    5.5984   -1.6114    0.0590 C   0  0  0  0  0  0  0  0  0  0  0  0
   -2.7342    0.7460   -0.0556 C   0  0  0  0  0  0  0  0  0  0  0  0
   -4.0772   -1.4366   -0.1150 C   0  0  0  0  0  0  0  0  0  0  0  0
   -4.9471    0.5619    1.0379 C   0  0  0  0  0  0  0  0  0  0  0  0
   -5.4955   -1.6846   -0.6174 C   0  0  0  0  0  0  0  0  0  0  0  0
   -6.3163    0.2356    0.4626 C   0  0  0  0  0  0  0  0  0  0  0  0
    2.8093    0.5552    1.3028 H   0  0  0  0  0  0  0  0  0  0  0  0
    2.0715    1.1460   -1.5923 H   0  0  0  0  0  0  0  0  0  0  0  0
    0.2072    0.8293    0.8225 H   0  0  0  0  0  0  0  0  0  0  0  0
    4.8484   -0.3384    1.7472 H   0  0  0  0  0  0  0  0  0  0  0  0
    2.5811   -1.5396   -0.9312 H   0  0  0  0  0  0  0  0  0  0  0  0
    2.4655   -1.7849    0.8245 H   0  0  0  0  0  0  0  0  0  0  0  0
    4.4518    1.3761   -0.3559 H   0  0  0  0  0  0  0  0  0  0  0  0
   -0.2441    0.3568   -2.1702 H   0  0  0  0  0  0  0  0  0  0  0  0
   -0.7040    1.8452   -1.3159 H   0  0  0  0  0  0  0  0  0  0  0  0
    7.0857    0.5298    1.3298 H   0  0  0  0  0  0  0  0  0  0  0  0
    6.7346    0.8684   -0.3875 H   0  0  0  0  0  0  0  0  0  0  0  0
    5.2783   -1.8317   -0.9649 H   0  0  0  0  0  0  0  0  0  0  0  0
    5.4541   -2.4986    0.6828 H   0  0  0  0  0  0  0  0  0  0  0  0
    1.7572    2.5398    0.8788 H   0  0  0  0  0  0  0  0  0  0  0  0
   -1.8846   -0.8279   -1.1656 H   0  0  0  0  0  0  0  0  0  0  0  0
   -3.9113   -1.9896    0.8173 H   0  0  0  0  0  0  0  0  0  0  0  0
   -3.3716   -1.8127   -0.8535 H   0  0  0  0  0  0  0  0  0  0  0  0
   -4.8263    1.6449    1.1355 H   0  0  0  0  0  0  0  0  0  0  0  0
   -4.8425    0.1190    2.0356 H   0  0  0  0  0  0  0  0  0  0  0  0
   -5.6561   -1.2175   -1.5965 H   0  0  0  0  0  0  0  0  0  0  0  0
   -5.6702   -2.7593   -0.7288 H   0  0  0  0  0  0  0  0  0  0  0  0
   -7.1019    0.5804    1.1421 H   0  0  0  0  0  0  0  0  0  0  0  0
   -6.4718    0.7248   -0.5064 H   0  0  0  0  0  0  0  0  0  0  0  0
  1 11  1  0  0  0  0
  1 13  1  0  0  0  0
  2 15  1  0  0  0  0
  2 16  1  0  0  0  0
  3 10  1  0  0  0  0
  3 35  1  0  0  0  0
  4 20  1  0  0  0  0
  4 21  1  0  0  0  0
  5 17  2  0  0  0  0
  6  9  1  0  0  0  0
  6 12  1  0  0  0  0
  6 28  1  0  0  0  0
  7 14  1  0  0  0  0
  7 17  1  0  0  0  0
  7 36  1  0  0  0  0
  8 17  1  0  0  0  0
  8 18  1  0  0  0  0
  8 19  1  0  0  0  0
  9 10  1  0  0  0  0
  9 13  1  0  0  0  0
  9 22  1  0  0  0  0
 10 11  1  0  0  0  0
 10 23  1  0  0  0  0
 11 14  1  0  0  0  0
 11 24  1  0  0  0  0
 12 15  1  0  0  0  0
 12 16  1  0  0  0  0
 12 25  1  0  0  0  0
 13 26  1  0  0  0  0
 13 27  1  0  0  0  0
 14 29  1  0  0  0  0
 14 30  1  0  0  0  0
 15 31  1  0  0  0  0
 15 32  1  0  0  0  0
 16 33  1  0  0  0  0
 16 34  1  0  0  0  0
 18 20  1  0  0  0  0
 18 37  1  0  0  0  0
 18 38  1  0  0  0  0
 19 21  1  0  0  0  0
 19 39  1  0  0  0  0
 19 40  1  0  0  0  0
 20 41  1  0  0  0  0
 20 42  1  0  0  0  0
 21 43  1  0  0  0  0
 21 44  1  0  0  0  0
M  END
> <PUBCHEM_COMPOUND_CID>
75536837

> <PUBCHEM_CONFORMER_RMSD>
0.8

> <PUBCHEM_CONFORMER_DIVERSEORDER>
1
64
99
96
22
55
66
78
83
26
47
53
79
60
100
80
7
30
86
40
63
23
73
59
43
38
97
4
18
72
102
90
105
42
106
69
46
71
41
67
98
20
88
81
101
84
92
94
77
50
35
70
11
74
85
56
76
62
82
14
89
5
32
13
104
29
44
21
2
19
48
95
52
75
107
54
39
25
8
87
91
12
93
37
45
58
33
65
10
3
36
103
49
68
28
16
31
51
34
27
15
9
57
17
61
6
24

> <PUBCHEM_MMFF94_PARTIAL_CHARGES>
24
1 -0.56
10 0.28
11 0.28
12 0.21
13 0.28
14 0.3
15 0.26
16 0.26
17 0.69
18 0.3
19 0.3
2 -0.52
20 0.28
21 0.28
28 0.36
3 -0.68
35 0.4
36 0.37
4 -0.56
5 -0.57
6 -0.84
7 -0.73
8 -0.66
9 0.27

> <PUBCHEM_EFFECTIVE_ROTOR_COUNT>
9

> <PUBCHEM_PHARMACOPHORE_FEATURES>
12
1 1 acceptor
1 2 acceptor
1 3 acceptor
1 3 donor
1 4 acceptor
1 5 acceptor
1 6 cation
1 6 donor
1 7 donor
4 2 12 15 16 rings
5 1 9 10 11 13 rings
6 4 8 18 19 20 21 rings

> <PUBCHEM_HEAVY_ATOM_COUNT>
21

> <PUBCHEM_ATOM_DEF_STEREO_COUNT>
3

> <PUBCHEM_ATOM_UDEF_STEREO_COUNT>
0

> <PUBCHEM_BOND_DEF_STEREO_COUNT>
0

> <PUBCHEM_BOND_UDEF_STEREO_COUNT>
0

> <PUBCHEM_ISOTOPIC_ATOM_COUNT>
0

> <PUBCHEM_COMPONENT_COUNT>
1

> <PUBCHEM_CACTVS_TAUTO_COUNT>
2

> <PUBCHEM_CONFORMER_ID>
048099C500000001

> <PUBCHEM_MMFF94_ENERGY>
43.9942

> <PUBCHEM_FEATURE_SELFOVERLAP>
60.898

> <PUBCHEM_SHAPE_FINGERPRINT>
10 15 16630524063691069106
10299344 5 18409451380223243286
11315181 36 18343865533185468657
11524674 6 16917348147423427511
117890 112 10807932670064514782
12166972 35 18341895207985134128
12236239 1 18272089413370039569
12516196 113 18410854356928416776
12596602 18 17918273160337601562
12670543 26 10881395418403553480
12714333 28 9439402428155217660
13288520 33 18407759244728568791
13533116 47 18337673117778517288
13668630 136 16950286217293375971
13685833 64 18040436598479812520
13862211 1 18259700082584659266
13968360 50 12901538036575267024
1420 363 17530686502404976642
14251764 18 18341331167357269844
14341114 176 18412265042709541744
14556957 393 15213593234529576294
14849402 71 18200312268350547344
15048467 5 10447929468669534666
15348495 7 17131261475848976882
15461852 350 16558742421951223629
15716309 27 18411699885169245502
17857418 61 18408603669147225135
18222031 100 17458339762742466252
20028762 73 18341328972091892542
20281389 69 12391516369069022522
21150785 3 13695874731314067210
21267235 1 18408326583479307054
22224240 67 18201714063696490486
23035841 295 18113618988702611483
23402539 116 18409445895381051845
23522609 53 18118716311761847164
23559900 14 18189615119670620945
23622692 88 17989485229659436972
246663 6 18334017168860005390
26918003 58 18260551143339301985
2767999 5 12103843453907653098
2916195 48 12535631570135119247
3009799 131 12612755718154334118
351380 3 18113334215159336571
4072396 5 11312057609244524052
4325135 7 18113340821520541158
4340502 62 15985105202548752094
465052 167 18335706061274134750
5104073 3 18200601427038717401
5385378 56 13326583934304773604
543368 44 9727636103379973827
559249 180 18409166615554713463
59682541 35 18335413609046792272
59755656 215 17385720279265349402
67856867 119 18341050830209867217
9996256 80 18342737416490217974

> <PUBCHEM_SHAPE_MULTIPOLES>
387.88
18.44
1.74
0.84
2.75
0.23
-0.04
-7.58
3.8
-0.19
-0.11
-0.37
0.08
-0.61

> <PUBCHEM_SHAPE_SELFOVERLAP>
793.134

> <PUBCHEM_SHAPE_VOLUME>
225.2

> <PUBCHEM_COORDINATE_TYPE>
2
5
10

$$$$
