75368664
  -OEChem-12032416383D

 54 57  0     1  0  0  0  0  0999 V2000
   -7.4598    1.4202    0.0276 O   0  0  0  0  0  0  0  0  0  0  0  0
   -3.3271   -2.6330    0.0822 O   0  0  0  0  0  0  0  0  0  0  0  0
   -1.5659   -1.1184   -0.2690 N   0  0  0  0  0  0  0  0  0  0  0  0
   -3.6609   -0.3133   -0.1859 N   0  0  0  0  0  0  0  0  0  0  0  0
    0.9398    0.1158    0.0610 N   0  0  2  0  0  0  0  0  0  0  0  0
   -1.4279    0.2870   -0.5890 C   0  0  1  0  0  0  0  0  0  0  0  0
   -2.8143    0.8614   -0.3044 C   0  0  0  0  0  0  0  0  0  0  0  0
   -0.2950    0.9094    0.2264 C   0  0  0  0  0  0  0  0  0  0  0  0
   -5.0895   -0.2121   -0.0211 C   0  0  0  0  0  0  0  0  0  0  0  0
   -0.3885   -1.9613   -0.2555 C   0  0  0  0  0  0  0  0  0  0  0  0
   -2.9043   -1.4998   -0.1050 C   0  0  0  0  0  0  0  0  0  0  0  0
    0.7382   -1.2736    0.5196 C   0  0  0  0  0  0  0  0  0  0  0  0
   -5.7506    0.3121   -1.2963 C   0  0  0  0  0  0  0  0  0  0  0  0
   -5.4463    0.6817    1.1675 C   0  0  0  0  0  0  0  0  0  0  0  0
    2.0458    0.7373    0.7892 C   0  0  0  0  0  0  0  0  0  0  0  0
   -7.2405    0.5404   -1.0749 C   0  0  0  0  0  0  0  0  0  0  0  0
   -6.9534    0.8876    1.2513 C   0  0  0  0  0  0  0  0  0  0  0  0
    3.3829    0.3240    0.1763 C   0  0  0  0  0  0  0  0  0  0  0  0
    4.5532    0.9818    0.9120 C   0  0  0  0  0  0  0  0  0  0  0  0
    5.8815    0.5542    0.3421 C   0  0  0  0  0  0  0  0  0  0  0  0
    6.5304   -0.5701    0.8526 C   0  0  0  0  0  0  0  0  0  0  0  0
    6.4619    1.2831   -0.6959 C   0  0  0  0  0  0  0  0  0  0  0  0
    7.7597   -0.9656    0.3252 C   0  0  0  0  0  0  0  0  0  0  0  0
    7.6911    0.8877   -1.2234 C   0  0  0  0  0  0  0  0  0  0  0  0
    8.3400   -0.2366   -0.7128 C   0  0  0  0  0  0  0  0  0  0  0  0
   -1.2079    0.3503   -1.6629 H   0  0  0  0  0  0  0  0  0  0  0  0
   -2.8316    1.4112    0.6414 H   0  0  0  0  0  0  0  0  0  0  0  0
   -3.1499    1.5135   -1.1146 H   0  0  0  0  0  0  0  0  0  0  0  0
   -0.1395    1.9365   -0.1255 H   0  0  0  0  0  0  0  0  0  0  0  0
   -0.5677    0.9612    1.2893 H   0  0  0  0  0  0  0  0  0  0  0  0
   -5.4782   -1.2196    0.1755 H   0  0  0  0  0  0  0  0  0  0  0  0
   -0.0942   -2.1260   -1.2984 H   0  0  0  0  0  0  0  0  0  0  0  0
   -0.6378   -2.9322    0.1842 H   0  0  0  0  0  0  0  0  0  0  0  0
    0.4941   -1.2859    1.5906 H   0  0  0  0  0  0  0  0  0  0  0  0
    1.6454   -1.8716    0.3858 H   0  0  0  0  0  0  0  0  0  0  0  0
   -5.5923   -0.3850   -2.1272 H   0  0  0  0  0  0  0  0  0  0  0  0
   -5.3012    1.2683   -1.5892 H   0  0  0  0  0  0  0  0  0  0  0  0
   -4.9860    1.6702    1.0511 H   0  0  0  0  0  0  0  0  0  0  0  0
   -5.0666    0.2538    2.1022 H   0  0  0  0  0  0  0  0  0  0  0  0
    2.0103    0.5051    1.8613 H   0  0  0  0  0  0  0  0  0  0  0  0
    1.9811    1.8305    0.7064 H   0  0  0  0  0  0  0  0  0  0  0  0
   -7.6828    1.0021   -1.9634 H   0  0  0  0  0  0  0  0  0  0  0  0
   -7.7664   -0.4050   -0.8973 H   0  0  0  0  0  0  0  0  0  0  0  0
   -7.4716   -0.0503    1.4833 H   0  0  0  0  0  0  0  0  0  0  0  0
   -7.1886    1.6004    2.0481 H   0  0  0  0  0  0  0  0  0  0  0  0
    3.4080    0.6059   -0.8847 H   0  0  0  0  0  0  0  0  0  0  0  0
    3.5088   -0.7643    0.2138 H   0  0  0  0  0  0  0  0  0  0  0  0
    4.4669    2.0747    0.8595 H   0  0  0  0  0  0  0  0  0  0  0  0
    4.5177    0.7297    1.9798 H   0  0  0  0  0  0  0  0  0  0  0  0
    6.0873   -1.1472    1.6599 H   0  0  0  0  0  0  0  0  0  0  0  0
    5.9651    2.1597   -1.1031 H   0  0  0  0  0  0  0  0  0  0  0  0
    8.2648   -1.8412    0.7223 H   0  0  0  0  0  0  0  0  0  0  0  0
    8.1428    1.4549   -2.0319 H   0  0  0  0  0  0  0  0  0  0  0  0
    9.2971   -0.5445   -1.1238 H   0  0  0  0  0  0  0  0  0  0  0  0
  1 16  1  0  0  0  0
  1 17  1  0  0  0  0
  2 11  2  0  0  0  0
  3  6  1  0  0  0  0
  3 10  1  0  0  0  0
  3 11  1  0  0  0  0
  4  7  1  0  0  0  0
  4  9  1  0  0  0  0
  4 11  1  0  0  0  0
  5  8  1  0  0  0  0
  5 12  1  0  0  0  0
  5 15  1  0  0  0  0
  6  7  1  0  0  0  0
  6  8  1  0  0  0  0
  6 26  1  0  0  0  0
  7 27  1  0  0  0  0
  7 28  1  0  0  0  0
  8 29  1  0  0  0  0
  8 30  1  0  0  0  0
  9 13  1  0  0  0  0
  9 14  1  0  0  0  0
  9 31  1  0  0  0  0
 10 12  1  0  0  0  0
 10 32  1  0  0  0  0
 10 33  1  0  0  0  0
 12 34  1  0  0  0  0
 12 35  1  0  0  0  0
 13 16  1  0  0  0  0
 13 36  1  0  0  0  0
 13 37  1  0  0  0  0
 14 17  1  0  0  0  0
 14 38  1  0  0  0  0
 14 39  1  0  0  0  0
 15 18  1  0  0  0  0
 15 40  1  0  0  0  0
 15 41  1  0  0  0  0
 16 42  1  0  0  0  0
 16 43  1  0  0  0  0
 17 44  1  0  0  0  0
 17 45  1  0  0  0  0
 18 19  1  0  0  0  0
 18 46  1  0  0  0  0
 18 47  1  0  0  0  0
 19 20  1  0  0  0  0
 19 48  1  0  0  0  0
 19 49  1  0  0  0  0
 20 21  2  0  0  0  0
 20 22  1  0  0  0  0
 21 23  1  0  0  0  0
 21 50  1  0  0  0  0
 22 24  2  0  0  0  0
 22 51  1  0  0  0  0
 23 25  2  0  0  0  0
 23 52  1  0  0  0  0
 24 25  1  0  0  0  0
 24 53  1  0  0  0  0
 25 54  1  0  0  0  0
M  END
> <PUBCHEM_COMPOUND_CID>
75368664

> <PUBCHEM_CONFORMER_RMSD>
0.8

> <PUBCHEM_CONFORMER_DIVERSEORDER>
1
160
50
97
171
139
13
30
152
177
40
48
27
61
66
29
16
83
159
88
115
21
60
126
99
53
113
149
71
65
69
9
100
34
170
62
98
89
23
167
43
94
31
25
57
128
39
26
142
132
38
77
144
41
110
84
150
109
19
133
11
157
10
56
145
140
75
122
175
12
174
151
148
123
129
49
93
68
117
76
86
15
131
121
87
161
37
138
95
112
5
22
173
165
78
20
73
130
107
7
46
58
33
158
108
166
59
42
80
18
153
143
2
6
136
135
168
146
45
91
17
147
124
127
125
163
162
74
32
164
72
24
63
141
51
137
103
44
35
101
8
67
134
154
169
54
36
116
82
3
119
102
176
90
85
55
81
172
155
104
52
96
105
120
106
14
111
4
70
28
118
79
156
64
114
92
47

> <PUBCHEM_MMFF94_PARTIAL_CHARGES>
27
1 -0.56
10 0.3
11 0.69
12 0.27
15 0.27
16 0.28
17 0.28
19 0.14
2 -0.57
20 -0.14
21 -0.15
22 -0.15
23 -0.15
24 -0.15
25 -0.15
3 -0.66
4 -0.66
5 -0.81
50 0.15
51 0.15
52 0.15
53 0.15
54 0.15
6 0.3
7 0.3
8 0.27
9 0.3

> <PUBCHEM_EFFECTIVE_ROTOR_COUNT>
7.4

> <PUBCHEM_PHARMACOPHORE_FEATURES>
7
1 1 acceptor
1 2 acceptor
1 5 cation
5 3 4 6 7 11 rings
6 1 9 13 14 16 17 rings
6 20 21 22 23 24 25 rings
6 3 5 6 8 10 12 rings

> <PUBCHEM_HEAVY_ATOM_COUNT>
25

> <PUBCHEM_ATOM_DEF_STEREO_COUNT>
1

> <PUBCHEM_ATOM_UDEF_STEREO_COUNT>
0

> <PUBCHEM_BOND_DEF_STEREO_COUNT>
0

> <PUBCHEM_BOND_UDEF_STEREO_COUNT>
0

> <PUBCHEM_ISOTOPIC_ATOM_COUNT>
0

> <PUBCHEM_COMPONENT_COUNT>
1

> <PUBCHEM_CACTVS_TAUTO_COUNT>
1

> <PUBCHEM_CONFORMER_ID>
047E08D800000001

> <PUBCHEM_MMFF94_ENERGY>
53.0968

> <PUBCHEM_FEATURE_SELFOVERLAP>
35.618

> <PUBCHEM_SHAPE_FINGERPRINT>
10 15 17603586322550091665
10066227 49 14548749374041026708
10299344 5 18334296470424612618
106641 1 14129063620786046257
10670039 82 17275386469994481697
10674148 151 18341892992324652954
10835480 77 18058443374240528784
10883706 142 17132120143903109291
11315181 36 17846498170947578833
11524674 6 17203609319714027374
11724838 91 9295288340477245666
12082328 90 13614245863103089393
12236239 1 17748823042661845814
13073987 5 9295026668856349228
13885169 127 16200435749517144321
13914758 101 15913334576196811634
14150022 121 14201387262088482167
14251764 18 18201718440062092483
14251764 46 13901907812864577772
14933364 13 17240481412339606460
15183329 4 18344146990834539106
15301273 46 16732981998890930606
15419008 47 14404899163803627898
15461852 350 18114173169219116103
1577012 14 18113614629943737246
15849732 13 17313105254702140110
18335252 98 12107784099793212816
20105231 36 17458350723483214410
20281389 69 18335134298100913744
20621476 8 18343864398723492456
21150785 3 10879990250716465464
21585482 111 18267869368444712505
220451 1 17894905252771453202
22149856 69 12324509893015645764
22224240 67 13118001102321671728
23035841 295 18408884040559856104
23559900 14 18128246973282822032
249057 25 13110686107038216498
28498 318 18060702767445064508
3004659 81 18335419081098630498
3009799 131 12031785864111763176
335352 9 18411697707800148789
34797466 226 12829491416399981586
3633792 109 14476691775285637324
4073 2 18041282166515369674
4339292 15 14117217509254502261
445580 204 17489594424797657697
4938544 92 14057266564461057191
59682541 35 11314317152457073500
59755656 215 18343301444791478670
59755656 520 18341043086373172823
6394761 36 18202846547909315748
9663363 56 17203889657615926752
9689198 14 17095523998182742208
9953998 17 14273456977304631965

> <PUBCHEM_SHAPE_MULTIPOLES>
487.81
26.44
1.62
1.09
19.8
0.87
0.02
-6.66
2.93
-0.74
-0.02
-0.32
-0.24
-0.75

> <PUBCHEM_SHAPE_SELFOVERLAP>
1022.525

> <PUBCHEM_SHAPE_VOLUME>
274.9

> <PUBCHEM_COORDINATE_TYPE>
2
5
10

$$$$
