11943112
  -OEChem-12032416383D

 58 61  0     1  0  0  0  0  0999 V2000
   -6.6041    3.9437    1.2629 Cl  0  0  0  0  0  0  0  0  0  0  0  0
    2.5157   -1.0311   -2.1893 O   0  0  0  0  0  0  0  0  0  0  0  0
   -0.9594   -2.0871    1.5534 O   0  0  0  0  0  0  0  0  0  0  0  0
    6.2664   -0.2172   -0.7536 O   0  0  0  0  0  0  0  0  0  0  0  0
   -5.6855   -1.6219   -0.3765 O   0  0  0  0  0  0  0  0  0  0  0  0
    0.9619   -1.1203    0.6790 N   0  0  0  0  0  0  0  0  0  0  0  0
    5.0910   -0.1749    1.2486 N   0  0  0  0  0  0  0  0  0  0  0  0
    0.2469   -0.7515   -2.1682 N   0  0  0  0  0  0  0  0  0  0  0  0
    7.2649    0.5750    1.1853 N   0  0  0  0  0  0  0  0  0  0  0  0
    1.5440   -0.1018   -0.1856 C   0  0  1  0  0  0  0  0  0  0  0  0
    3.8537   -0.7241    0.7471 C   0  0  2  0  0  0  0  0  0  0  0  0
    2.9320    0.3868    0.2451 C   0  0  0  0  0  0  0  0  0  0  0  0
    3.1375   -1.5249    1.8295 C   0  0  0  0  0  0  0  0  0  0  0  0
    1.8484   -2.1170    1.2849 C   0  0  0  0  0  0  0  0  0  0  0  0
    1.4987   -0.6901   -1.5845 C   0  0  0  0  0  0  0  0  0  0  0  0
   -0.4176   -1.3124    0.7638 C   0  0  0  0  0  0  0  0  0  0  0  0
   -1.2971   -0.5991   -0.2005 C   0  0  0  0  0  0  0  0  0  0  0  0
   -1.0008   -0.4626   -1.5695 C   0  0  0  0  0  0  0  0  0  0  0  0
    6.2124    0.0371    0.4490 C   0  0  0  0  0  0  0  0  0  0  0  0
   -2.5696   -0.2371    0.2737 C   0  0  0  0  0  0  0  0  0  0  0  0
   -2.0120   -0.0286   -2.4423 C   0  0  0  0  0  0  0  0  0  0  0  0
   -3.5448    0.2400   -0.6008 C   0  0  0  0  0  0  0  0  0  0  0  0
   -3.2706    0.3312   -1.9605 C   0  0  0  0  0  0  0  0  0  0  0  0
   -4.8488    0.6144   -0.0981 C   0  0  0  0  0  0  0  0  0  0  0  0
    8.5466    0.8924    0.6011 C   0  0  0  0  0  0  0  0  0  0  0  0
   -5.8770   -0.3249   -0.0011 C   0  0  0  0  0  0  0  0  0  0  0  0
   -5.0754    1.9350    0.2940 C   0  0  0  0  0  0  0  0  0  0  0  0
   -7.1276    0.0549    0.4862 C   0  0  0  0  0  0  0  0  0  0  0  0
    8.5222    2.3007    0.1073 C   0  0  0  0  0  0  0  0  0  0  0  0
   -6.3259    2.3149    0.7813 C   0  0  0  0  0  0  0  0  0  0  0  0
   -7.3519    1.3749    0.8773 C   0  0  0  0  0  0  0  0  0  0  0  0
    8.7473    2.6489   -1.1647 C   0  0  0  0  0  0  0  0  0  0  0  0
   -5.2215   -2.5234    0.6256 C   0  0  0  0  0  0  0  0  0  0  0  0
    0.8965    0.7847   -0.1820 H   0  0  0  0  0  0  0  0  0  0  0  0
    4.1008   -1.3929   -0.0863 H   0  0  0  0  0  0  0  0  0  0  0  0
    2.7974    1.1155    1.0574 H   0  0  0  0  0  0  0  0  0  0  0  0
    3.4130    0.9378   -0.5731 H   0  0  0  0  0  0  0  0  0  0  0  0
    3.7855   -2.3285    2.1995 H   0  0  0  0  0  0  0  0  0  0  0  0
    2.9133   -0.8799    2.6892 H   0  0  0  0  0  0  0  0  0  0  0  0
    1.3234   -2.6521    2.0834 H   0  0  0  0  0  0  0  0  0  0  0  0
    2.0723   -2.8550    0.5047 H   0  0  0  0  0  0  0  0  0  0  0  0
    5.1250    0.1369    2.2145 H   0  0  0  0  0  0  0  0  0  0  0  0
    0.2340   -0.9281   -3.1698 H   0  0  0  0  0  0  0  0  0  0  0  0
   -2.8042   -0.3415    1.3321 H   0  0  0  0  0  0  0  0  0  0  0  0
   -1.8181    0.0632   -3.5093 H   0  0  0  0  0  0  0  0  0  0  0  0
   -4.0233    0.6838   -2.6617 H   0  0  0  0  0  0  0  0  0  0  0  0
    7.1214    0.7694    2.1716 H   0  0  0  0  0  0  0  0  0  0  0  0
    8.7707    0.1776   -0.1978 H   0  0  0  0  0  0  0  0  0  0  0  0
    9.3032    0.7848    1.3844 H   0  0  0  0  0  0  0  0  0  0  0  0
   -4.2771    2.6715    0.2206 H   0  0  0  0  0  0  0  0  0  0  0  0
   -7.9320   -0.6716    0.5634 H   0  0  0  0  0  0  0  0  0  0  0  0
    8.3241    3.0862    0.8324 H   0  0  0  0  0  0  0  0  0  0  0  0
   -8.3315    1.6567    1.2548 H   0  0  0  0  0  0  0  0  0  0  0  0
    8.7231    3.6918   -1.4612 H   0  0  0  0  0  0  0  0  0  0  0  0
    8.9567    1.9071   -1.9274 H   0  0  0  0  0  0  0  0  0  0  0  0
   -4.7126   -2.0126    1.4496 H   0  0  0  0  0  0  0  0  0  0  0  0
   -6.0743   -3.0821    1.0222 H   0  0  0  0  0  0  0  0  0  0  0  0
   -4.5254   -3.2276    0.1617 H   0  0  0  0  0  0  0  0  0  0  0  0
  1 30  1  0  0  0  0
  2 15  2  0  0  0  0
  3 16  2  0  0  0  0
  4 19  2  0  0  0  0
  5 26  1  0  0  0  0
  5 33  1  0  0  0  0
  6 10  1  0  0  0  0
  6 14  1  0  0  0  0
  6 16  1  0  0  0  0
  7 11  1  0  0  0  0
  7 19  1  0  0  0  0
  7 42  1  0  0  0  0
  8 15  1  0  0  0  0
  8 18  1  0  0  0  0
  8 43  1  0  0  0  0
  9 19  1  0  0  0  0
  9 25  1  0  0  0  0
  9 47  1  0  0  0  0
 10 12  1  0  0  0  0
 10 15  1  0  0  0  0
 10 34  1  0  0  0  0
 11 12  1  0  0  0  0
 11 13  1  0  0  0  0
 11 35  1  0  0  0  0
 12 36  1  0  0  0  0
 12 37  1  0  0  0  0
 13 14  1  0  0  0  0
 13 38  1  0  0  0  0
 13 39  1  0  0  0  0
 14 40  1  0  0  0  0
 14 41  1  0  0  0  0
 16 17  1  0  0  0  0
 17 18  2  0  0  0  0
 17 20  1  0  0  0  0
 18 21  1  0  0  0  0
 20 22  2  0  0  0  0
 20 44  1  0  0  0  0
 21 23  2  0  0  0  0
 21 45  1  0  0  0  0
 22 23  1  0  0  0  0
 22 24  1  0  0  0  0
 23 46  1  0  0  0  0
 24 26  2  0  0  0  0
 24 27  1  0  0  0  0
 25 29  1  0  0  0  0
 25 48  1  0  0  0  0
 25 49  1  0  0  0  0
 26 28  1  0  0  0  0
 27 30  2  0  0  0  0
 27 50  1  0  0  0  0
 28 31  2  0  0  0  0
 28 51  1  0  0  0  0
 29 32  2  0  0  0  0
 29 52  1  0  0  0  0
 30 31  1  0  0  0  0
 31 53  1  0  0  0  0
 32 54  1  0  0  0  0
 32 55  1  0  0  0  0
 33 56  1  0  0  0  0
 33 57  1  0  0  0  0
 33 58  1  0  0  0  0
M  END
> <PUBCHEM_COMPOUND_CID>
11943112

> <PUBCHEM_CONFORMER_RMSD>
1

> <PUBCHEM_CONFORMER_DIVERSEORDER>
1
28
51
54
11
30
35
42
23
20
53
36
46
43
40
8
47
45
52
26
37
31
33
56
24
25
5
22
44
13
14
29
41
9
18
10
49
55
17
4
34
50
16
15
6
39
38
7
57
48
19
27
32
12
21
2
3

> <PUBCHEM_MMFF94_PARTIAL_CHARGES>
41
1 -0.18
10 0.36
11 0.3
14 0.3
15 0.57
16 0.54
17 0.09
18 0.12
19 0.69
2 -0.57
20 -0.15
21 -0.15
23 -0.15
25 0.44
26 0.08
27 -0.15
28 -0.15
29 -0.29
3 -0.57
30 0.18
31 -0.15
32 -0.3
33 0.28
4 -0.57
42 0.37
43 0.37
44 0.15
45 0.15
46 0.15
47 0.37
5 -0.36
50 0.15
51 0.15
52 0.15
53 0.15
54 0.15
55 0.15
6 -0.66
7 -0.73
8 -0.55
9 -0.73

> <PUBCHEM_EFFECTIVE_ROTOR_COUNT>
8

> <PUBCHEM_PHARMACOPHORE_FEATURES>
12
1 2 acceptor
1 3 acceptor
1 32 hydrophobe
1 4 acceptor
1 5 acceptor
1 7 donor
1 8 donor
1 9 donor
6 17 18 20 21 22 23 rings
6 24 26 27 28 30 31 rings
6 6 10 11 12 13 14 rings
7 6 8 10 15 16 17 18 rings

> <PUBCHEM_HEAVY_ATOM_COUNT>
33

> <PUBCHEM_ATOM_DEF_STEREO_COUNT>
2

> <PUBCHEM_ATOM_UDEF_STEREO_COUNT>
0

> <PUBCHEM_BOND_DEF_STEREO_COUNT>
0

> <PUBCHEM_BOND_UDEF_STEREO_COUNT>
0

> <PUBCHEM_ISOTOPIC_ATOM_COUNT>
0

> <PUBCHEM_COMPONENT_COUNT>
1

> <PUBCHEM_CACTVS_TAUTO_COUNT>
9

> <PUBCHEM_CONFORMER_ID>
00B63CC800000001

> <PUBCHEM_MMFF94_ENERGY>
109.7446

> <PUBCHEM_FEATURE_SELFOVERLAP>
60.973

> <PUBCHEM_SHAPE_FINGERPRINT>
10 15 18060418014965318815
10369192 42 18272083907301081415
106641 1 17168144554679094536
10670039 82 15698002912073069211
11135609 99 12685107980849797776
11315181 36 18334290986126051819
12035758 1 16298392335710098586
12120059 9 13045929231443103072
12539765 74 18413112745491355918
13383668 362 16154850126674345652
13540713 4 14044019772217060510
13726171 33 17630053659518389689
14251764 18 17676203615652156958
14849402 71 18260548961058884132
14931854 50 14836409116600319666
15706992 2 18340497719762601816
16126227 98 18186801413590746810
16728433 281 17345768364761334344
16994733 274 18272650134625857232
18393751 57 16805600396073963122
18603816 31 11025804227423881857
19841028 212 10665487619004443232
20505436 4 18202274793183903942
21033648 29 17845942806550000093
21095123 293 18343302583238289872
21756936 100 18201429290553953967
22149856 69 16806169826631899884
22224240 67 17385719214777844794
23576562 1 16199284630047915697
24771293 8 18040716991673462692
249057 3 16056594396219578472
2747138 104 15719392798637507428
3383291 50 14345799335515666664
3711267 37 18131356332327261848
392239 28 17967530155985945589
4073 2 18410296895722270907
4093350 32 18202003205922879038
44802255 64 17203607090952645549
5104073 3 16444459066630963537
5758199 1 18186519904101420970
59682541 35 15574432137955177828
9689198 14 18201720669798965520
9953998 17 17894347787501558353
9962374 69 15502664857055492583

> <PUBCHEM_SHAPE_MULTIPOLES>
637.59
25.08
2.72
1.86
32.64
2.09
-0.94
21.8
5.87
-2.49
1.15
0.38
-0.38
-2.33

> <PUBCHEM_SHAPE_SELFOVERLAP>
1366.142

> <PUBCHEM_SHAPE_VOLUME>
349.7

> <PUBCHEM_COORDINATE_TYPE>
2
5
10

$$$$
