9421714
  -OEChem-12032416153D

 58 62  0     1  0  0  0  0  0999 V2000
   -1.6271   -1.5688    1.9982 O   0  0  0  0  0  0  0  0  0  0  0  0
    3.2041    0.4351    1.6991 O   0  0  0  0  0  0  0  0  0  0  0  0
   -0.0735   -2.0936    0.3370 N   0  0  0  0  0  0  0  0  0  0  0  0
    2.9566   -1.1383    0.0204 N   0  0  0  0  0  0  0  0  0  0  0  0
    2.7863    1.1654   -0.4614 N   0  0  0  0  0  0  0  0  0  0  0  0
    2.1040   -3.3461    0.8275 C   0  0  2  0  0  0  0  0  0  0  0  0
    1.6085   -2.6147   -1.4653 C   0  0  1  0  0  0  0  0  0  0  0  0
    1.9944   -3.8222   -0.6153 C   0  0  0  0  0  0  0  0  0  0  0  0
    0.7280   -2.8619    1.2990 C   0  0  0  0  0  0  0  0  0  0  0  0
    3.1764   -2.2506    0.9496 C   0  0  0  0  0  0  0  0  0  0  0  0
    0.2845   -2.0272   -1.0120 C   0  0  0  0  0  0  0  0  0  0  0  0
    2.7109   -1.5382   -1.3771 C   0  0  0  0  0  0  0  0  0  0  0  0
   -3.3996   -0.1840    0.3039 C   0  0  0  0  0  0  0  0  0  0  0  0
   -2.1336   -0.8214   -0.1849 C   0  0  0  0  0  0  0  0  0  0  0  0
   -1.2653   -1.5197    0.8215 C   0  0  0  0  0  0  0  0  0  0  0  0
   -0.5243   -1.4175   -1.8938 C   0  0  0  0  0  0  0  0  0  0  0  0
   -3.3836    1.3298    0.0471 C   0  0  0  0  0  0  0  0  0  0  0  0
   -4.6264   -0.8344   -0.3512 C   0  0  0  0  0  0  0  0  0  0  0  0
   -1.7502   -0.8057   -1.4679 C   0  0  0  0  0  0  0  0  0  0  0  0
   -4.6856    1.9920    0.4932 C   0  0  0  0  0  0  0  0  0  0  0  0
   -5.9257   -0.1677    0.0963 C   0  0  0  0  0  0  0  0  0  0  0  0
   -5.9013    1.3367   -0.1540 C   0  0  0  0  0  0  0  0  0  0  0  0
    2.9910    0.1863    0.5096 C   0  0  0  0  0  0  0  0  0  0  0  0
    2.2850    2.4756   -0.2638 C   0  0  0  0  0  0  0  0  0  0  0  0
    2.2328    3.3655   -1.3332 C   0  0  0  0  0  0  0  0  0  0  0  0
    1.8462    2.8654    0.9985 C   0  0  0  0  0  0  0  0  0  0  0  0
    1.7382    4.6552   -1.1387 C   0  0  0  0  0  0  0  0  0  0  0  0
    1.3515    4.1551    1.1931 C   0  0  0  0  0  0  0  0  0  0  0  0
    1.2976    5.0500    0.1245 C   0  0  0  0  0  0  0  0  0  0  0  0
    2.4115   -4.1825    1.4674 H   0  0  0  0  0  0  0  0  0  0  0  0
    1.5291   -2.9432   -2.5098 H   0  0  0  0  0  0  0  0  0  0  0  0
    1.2440   -4.6177   -0.7043 H   0  0  0  0  0  0  0  0  0  0  0  0
    2.9494   -4.2414   -0.9549 H   0  0  0  0  0  0  0  0  0  0  0  0
    0.1177   -3.7380    1.5579 H   0  0  0  0  0  0  0  0  0  0  0  0
    0.8219   -2.2769    2.2226 H   0  0  0  0  0  0  0  0  0  0  0  0
    3.2302   -1.8940    1.9833 H   0  0  0  0  0  0  0  0  0  0  0  0
    4.1610   -2.6691    0.7066 H   0  0  0  0  0  0  0  0  0  0  0  0
    3.6577   -1.9356   -1.7627 H   0  0  0  0  0  0  0  0  0  0  0  0
    2.4345   -0.6954   -2.0122 H   0  0  0  0  0  0  0  0  0  0  0  0
   -3.5048   -0.3218    1.3872 H   0  0  0  0  0  0  0  0  0  0  0  0
   -0.2652   -1.3417   -2.9447 H   0  0  0  0  0  0  0  0  0  0  0  0
   -3.2353    1.5464   -1.0185 H   0  0  0  0  0  0  0  0  0  0  0  0
   -2.5443    1.7928    0.5815 H   0  0  0  0  0  0  0  0  0  0  0  0
   -4.6659   -1.9015   -0.0985 H   0  0  0  0  0  0  0  0  0  0  0  0
   -4.5673   -0.7723   -1.4453 H   0  0  0  0  0  0  0  0  0  0  0  0
   -2.3422   -0.3194   -2.2360 H   0  0  0  0  0  0  0  0  0  0  0  0
   -4.6625    3.0578    0.2393 H   0  0  0  0  0  0  0  0  0  0  0  0
   -4.7728    1.9263    1.5848 H   0  0  0  0  0  0  0  0  0  0  0  0
   -6.0840   -0.3578    1.1651 H   0  0  0  0  0  0  0  0  0  0  0  0
   -6.7722   -0.6161   -0.4358 H   0  0  0  0  0  0  0  0  0  0  0  0
   -5.8866    1.5268   -1.2343 H   0  0  0  0  0  0  0  0  0  0  0  0
   -6.8181    1.7910    0.2381 H   0  0  0  0  0  0  0  0  0  0  0  0
    3.0514    0.9566   -1.4177 H   0  0  0  0  0  0  0  0  0  0  0  0
    2.5725    3.0698   -2.3223 H   0  0  0  0  0  0  0  0  0  0  0  0
    1.8281    2.2073    1.8581 H   0  0  0  0  0  0  0  0  0  0  0  0
    1.6955    5.3518   -1.9708 H   0  0  0  0  0  0  0  0  0  0  0  0
    1.0001    4.4607    2.1744 H   0  0  0  0  0  0  0  0  0  0  0  0
    0.9105    6.0533    0.2755 H   0  0  0  0  0  0  0  0  0  0  0  0
  1 15  2  0  0  0  0
  2 23  2  0  0  0  0
  3  9  1  0  0  0  0
  3 11  1  0  0  0  0
  3 15  1  0  0  0  0
  4 10  1  0  0  0  0
  4 12  1  0  0  0  0
  4 23  1  0  0  0  0
  5 23  1  0  0  0  0
  5 24  1  0  0  0  0
  5 53  1  0  0  0  0
  6  8  1  0  0  0  0
  6  9  1  0  0  0  0
  6 10  1  0  0  0  0
  6 30  1  0  0  0  0
  7  8  1  0  0  0  0
  7 11  1  0  0  0  0
  7 12  1  0  0  0  0
  7 31  1  0  0  0  0
  8 32  1  0  0  0  0
  8 33  1  0  0  0  0
  9 34  1  0  0  0  0
  9 35  1  0  0  0  0
 10 36  1  0  0  0  0
 10 37  1  0  0  0  0
 11 16  2  0  0  0  0
 12 38  1  0  0  0  0
 12 39  1  0  0  0  0
 13 14  1  0  0  0  0
 13 17  1  0  0  0  0
 13 18  1  0  0  0  0
 13 40  1  0  0  0  0
 14 15  1  0  0  0  0
 14 19  2  0  0  0  0
 16 19  1  0  0  0  0
 16 41  1  0  0  0  0
 17 20  1  0  0  0  0
 17 42  1  0  0  0  0
 17 43  1  0  0  0  0
 18 21  1  0  0  0  0
 18 44  1  0  0  0  0
 18 45  1  0  0  0  0
 19 46  1  0  0  0  0
 20 22  1  0  0  0  0
 20 47  1  0  0  0  0
 20 48  1  0  0  0  0
 21 22  1  0  0  0  0
 21 49  1  0  0  0  0
 21 50  1  0  0  0  0
 22 51  1  0  0  0  0
 22 52  1  0  0  0  0
 24 25  2  0  0  0  0
 24 26  1  0  0  0  0
 25 27  1  0  0  0  0
 25 54  1  0  0  0  0
 26 28  2  0  0  0  0
 26 55  1  0  0  0  0
 27 29  2  0  0  0  0
 27 56  1  0  0  0  0
 28 29  1  0  0  0  0
 28 57  1  0  0  0  0
 29 58  1  0  0  0  0
M  END
> <PUBCHEM_COMPOUND_CID>
9421714

> <PUBCHEM_CONFORMER_RMSD>
0.8

> <PUBCHEM_CONFORMER_DIVERSEORDER>
1
34
10
14
6
20
22
23
16
5
30
7
31
13
28
25
17
11
18
19
29
15
9
21
4
24
33
32
3
26
27
2
12
8

> <PUBCHEM_MMFF94_PARTIAL_CHARGES>
30
1 -0.57
10 0.3
11 -0.03
12 0.3
13 0.14
14 -0.12
15 0.62
16 -0.15
19 -0.15
2 -0.57
23 0.69
24 0.12
25 -0.15
26 -0.15
27 -0.15
28 -0.15
29 -0.15
3 -0.47
4 -0.66
41 0.15
46 0.15
5 -0.55
53 0.37
54 0.15
55 0.15
56 0.15
57 0.15
58 0.15
7 0.14
9 0.3

> <PUBCHEM_EFFECTIVE_ROTOR_COUNT>
6.2

> <PUBCHEM_PHARMACOPHORE_FEATURES>
8
1 1 acceptor
1 2 acceptor
1 5 donor
6 13 17 18 20 21 22 rings
6 24 25 26 27 28 29 rings
6 3 11 14 15 16 19 rings
6 3 6 7 8 9 11 rings
6 4 6 7 8 10 12 rings

> <PUBCHEM_HEAVY_ATOM_COUNT>
29

> <PUBCHEM_ATOM_DEF_STEREO_COUNT>
2

> <PUBCHEM_ATOM_UDEF_STEREO_COUNT>
0

> <PUBCHEM_BOND_DEF_STEREO_COUNT>
0

> <PUBCHEM_BOND_UDEF_STEREO_COUNT>
0

> <PUBCHEM_ISOTOPIC_ATOM_COUNT>
0

> <PUBCHEM_COMPONENT_COUNT>
1

> <PUBCHEM_CACTVS_TAUTO_COUNT>
2

> <PUBCHEM_CONFORMER_ID>
008FC39200000001

> <PUBCHEM_MMFF94_ENERGY>
69.7951

> <PUBCHEM_FEATURE_SELFOVERLAP>
42.166

> <PUBCHEM_SHAPE_FINGERPRINT>
10190206 1 18049472274428075678
10439779 11 18339349860004401760
10483366 6 18338538391033675916
10937287 8 17905888428518163421
11059048 146 17832713739325285373
12156800 1 13590130574891540746
12173636 292 17762052546549704295
12293681 4 17975425615651498186
12403259 327 17749381577088694354
12422481 6 17910358768330153770
12633257 1 17821997723017558610
12788726 201 17831313696171913062
13583140 156 18334588923417470507
13965767 371 17771876412778266026
14028597 1 17389097850933612826
14142880 1 16612243875636964394
14251764 38 18337113470807524569
14466204 15 18410568500990274544
14468879 13 17974855282912552105
150020 26 18412254030746289145
151778 21 18264773340509235149
15210252 30 18261971656375281444
15238133 3 18189904123693379022
15475509 84 17397537611366041643
20465049 17 18196109921754591060
20567600 299 18343578525679516185
20764821 26 17831867850143666797
21475661 188 18408040740795104417
21860390 5 18340771455192154535
23559900 14 18339649936632638199
238 59 18270127949076925122
3052486 1 17110734367179267258
3298306 158 18197220454442683865
345986 75 17318158429370280779
3493558 16 18129383713971917393
463206 1 17403732251171718728
474 4 18410571820736139735
5312544 6 18267578207824943743
5776283 40 18051996984627363556
9981440 41 18049721021047348777

> <PUBCHEM_SHAPE_MULTIPOLES>
570.12
8.74
6.51
1.56
17.14
7.67
0.08
1.7
-0.64
-7.52
0.15
-0.77
-0.41
-0.34

> <PUBCHEM_SHAPE_SELFOVERLAP>
1235.577

> <PUBCHEM_SHAPE_VOLUME>
302.9

> <PUBCHEM_COORDINATE_TYPE>
2
5
10

$$$$
