45784308
  -OEChem-12032416203D

 41 44  0     1  0  0  0  0  0999 V2000
    6.0362   -0.1482   -0.4607 O   0  0  0  0  0  0  0  0  0  0  0  0
   -3.3883   -0.1870    0.1234 N   0  0  1  0  0  0  0  0  0  0  0  0
    1.2975   -1.1862    0.2062 N   0  0  0  0  0  0  0  0  0  0  0  0
    0.6824    0.9487    0.2668 N   0  0  0  0  0  0  0  0  0  0  0  0
   -5.7603    0.2796   -0.1738 C   0  0  0  0  0  0  0  0  0  0  0  0
   -6.8918    0.3356   -1.1580 C   0  0  0  0  0  0  0  0  0  0  0  0
   -6.4364   -0.9860   -0.6125 C   0  0  0  0  0  0  0  0  0  0  0  0
   -4.3706    0.5657   -0.6426 C   0  0  0  0  0  0  0  0  0  0  0  0
   -1.1543   -0.7653    0.5408 C   0  0  2  0  0  0  0  0  0  0  0  0
   -2.1031   -0.2960   -0.5702 C   0  0  0  0  0  0  0  0  0  0  0  0
   -3.0735    0.4487    1.4028 C   0  0  0  0  0  0  0  0  0  0  0  0
   -1.8139   -0.2846    1.8451 C   0  0  0  0  0  0  0  0  0  0  0  0
    0.2680   -0.2964    0.3381 C   0  0  0  0  0  0  0  0  0  0  0  0
    2.4532   -0.4674    0.0382 C   0  0  0  0  0  0  0  0  0  0  0  0
    2.0428    0.8622    0.0798 C   0  0  0  0  0  0  0  0  0  0  0  0
    3.7817   -0.8542   -0.1410 C   0  0  0  0  0  0  0  0  0  0  0  0
    3.0012    1.8796   -0.0641 C   0  0  0  0  0  0  0  0  0  0  0  0
    4.7223    0.1713   -0.2827 C   0  0  0  0  0  0  0  0  0  0  0  0
    4.3412    1.5145   -0.2451 C   0  0  0  0  0  0  0  0  0  0  0  0
    6.3658   -1.5348   -0.4906 C   0  0  0  0  0  0  0  0  0  0  0  0
   -5.9590    0.6468    0.8258 H   0  0  0  0  0  0  0  0  0  0  0  0
   -7.8424    0.7226   -0.8116 H   0  0  0  0  0  0  0  0  0  0  0  0
   -6.6728    0.5551   -2.1956 H   0  0  0  0  0  0  0  0  0  0  0  0
   -5.9114   -1.6535   -1.2848 H   0  0  0  0  0  0  0  0  0  0  0  0
   -7.0798   -1.4862    0.1010 H   0  0  0  0  0  0  0  0  0  0  0  0
   -4.2941    0.2794   -1.7006 H   0  0  0  0  0  0  0  0  0  0  0  0
   -4.1793    1.6459   -0.6094 H   0  0  0  0  0  0  0  0  0  0  0  0
   -1.1592   -1.8650    0.5575 H   0  0  0  0  0  0  0  0  0  0  0  0
   -1.7882    0.6717   -0.9833 H   0  0  0  0  0  0  0  0  0  0  0  0
   -2.1440   -1.0216   -1.3899 H   0  0  0  0  0  0  0  0  0  0  0  0
   -3.8762    0.3334    2.1377 H   0  0  0  0  0  0  0  0  0  0  0  0
   -2.8544    1.5180    1.2871 H   0  0  0  0  0  0  0  0  0  0  0  0
   -1.1669    0.3622    2.4472 H   0  0  0  0  0  0  0  0  0  0  0  0
   -2.0801   -1.1535    2.4600 H   0  0  0  0  0  0  0  0  0  0  0  0
    1.2241   -2.1947    0.2279 H   0  0  0  0  0  0  0  0  0  0  0  0
    4.0110   -1.9115   -0.1607 H   0  0  0  0  0  0  0  0  0  0  0  0
    2.7151    2.9261   -0.0365 H   0  0  0  0  0  0  0  0  0  0  0  0
    5.0908    2.2944   -0.3574 H   0  0  0  0  0  0  0  0  0  0  0  0
    6.1434   -2.0234    0.4642 H   0  0  0  0  0  0  0  0  0  0  0  0
    5.8942   -2.0436   -1.3383 H   0  0  0  0  0  0  0  0  0  0  0  0
    7.4483   -1.6062   -0.6395 H   0  0  0  0  0  0  0  0  0  0  0  0
  1 18  1  0  0  0  0
  1 20  1  0  0  0  0
  2  8  1  0  0  0  0
  2 10  1  0  0  0  0
  2 11  1  0  0  0  0
  3 13  1  0  0  0  0
  3 14  1  0  0  0  0
  3 35  1  0  0  0  0
  4 13  2  0  0  0  0
  4 15  1  0  0  0  0
  5  6  1  0  0  0  0
  5  7  1  0  0  0  0
  5  8  1  0  0  0  0
  5 21  1  0  0  0  0
  6  7  1  0  0  0  0
  6 22  1  0  0  0  0
  6 23  1  0  0  0  0
  7 24  1  0  0  0  0
  7 25  1  0  0  0  0
  8 26  1  0  0  0  0
  8 27  1  0  0  0  0
  9 10  1  0  0  0  0
  9 12  1  0  0  0  0
  9 13  1  0  0  0  0
  9 28  1  0  0  0  0
 10 29  1  0  0  0  0
 10 30  1  0  0  0  0
 11 12  1  0  0  0  0
 11 31  1  0  0  0  0
 11 32  1  0  0  0  0
 12 33  1  0  0  0  0
 12 34  1  0  0  0  0
 14 15  2  0  0  0  0
 14 16  1  0  0  0  0
 15 17  1  0  0  0  0
 16 18  2  0  0  0  0
 16 36  1  0  0  0  0
 17 19  2  0  0  0  0
 17 37  1  0  0  0  0
 18 19  1  0  0  0  0
 19 38  1  0  0  0  0
 20 39  1  0  0  0  0
 20 40  1  0  0  0  0
 20 41  1  0  0  0  0
M  END
> <PUBCHEM_COMPOUND_CID>
45784308

> <PUBCHEM_CONFORMER_RMSD>
0.8

> <PUBCHEM_CONFORMER_DIVERSEORDER>
1
19
12
15
29
14
30
23
7
27
18
17
16
3
21
28
5
4
20
10
24
11
26
2
22
13
8
6
9
25

> <PUBCHEM_MMFF94_PARTIAL_CHARGES>
28
1 -0.36
10 0.27
11 0.27
13 0.01
14 -0.15
15 0.23
16 -0.15
17 -0.15
18 0.08
19 -0.15
2 -0.81
20 0.28
21 0.1
22 0.1
23 0.1
24 0.1
25 0.1
3 0.03
35 0.27
36 0.15
37 0.15
38 0.15
4 -0.57
5 -0.19
6 -0.2
7 -0.2
8 0.37
9 0.18

> <PUBCHEM_EFFECTIVE_ROTOR_COUNT>
5.6

> <PUBCHEM_PHARMACOPHORE_FEATURES>
7
1 1 acceptor
1 2 cation
1 3 donor
3 3 4 13 cation
5 2 9 10 11 12 rings
5 3 4 13 14 15 rings
6 14 15 16 17 18 19 rings

> <PUBCHEM_HEAVY_ATOM_COUNT>
20

> <PUBCHEM_ATOM_DEF_STEREO_COUNT>
1

> <PUBCHEM_ATOM_UDEF_STEREO_COUNT>
0

> <PUBCHEM_BOND_DEF_STEREO_COUNT>
0

> <PUBCHEM_BOND_UDEF_STEREO_COUNT>
0

> <PUBCHEM_ISOTOPIC_ATOM_COUNT>
0

> <PUBCHEM_COMPONENT_COUNT>
1

> <PUBCHEM_CACTVS_TAUTO_COUNT>
2

> <PUBCHEM_CONFORMER_ID>
02BA9CF400000001

> <PUBCHEM_MMFF94_ENERGY>
49.9562

> <PUBCHEM_FEATURE_SELFOVERLAP>
35.629

> <PUBCHEM_SHAPE_FINGERPRINT>
10354089 29 11025797596067436574
106641 1 11887661880354627582
10670039 82 16733540520543322492
10693767 8 18199468771275873478
11089746 13 18260548922087024304
11471102 20 18410298025661925824
12011746 2 17749107785892611989
12166972 35 18130787879929526505
12236239 1 17775569732085160161
12516196 113 10087640412164528895
12730499 353 18113058229451699187
13288520 33 15985104107358373851
13403585 85 9007066768834936975
13533116 47 17060340695567446406
13668630 136 17989209235018869510
13862211 1 18341615868007770834
14251752 14 17632295645188877433
14251757 52 15502664823233753846
14251764 18 17989209248541808104
15003188 100 18187363280959481141
15048467 5 13840268091235979462
15183329 4 18409727331697808001
15242439 84 17894634759714667416
15475509 35 14117251499451206892
17834072 33 18272367603050027935
17834072 8 18186804673360024412
200 152 17989487416177468561
20281389 69 15285352920929237092
20612939 158 18409737283232277252
20645477 56 16660644064090426243
20645477 70 18410573942539869142
20681677 155 14201406005478566480
21033648 29 17749389333778557536
21150785 3 17418379121112395932
21267235 1 18343589533548300671
221357 26 18335979800703879324
2215653 11 18186805764318913706
22224240 67 9799683788269110116
23035841 295 16702019790656110087
23198884 109 18410855456603438233
23402539 116 16702306724177609897
23536379 177 18343581837483838421
23559900 14 17967816080210976361
2767999 5 16009022896156965695
29717793 49 17846786199912585844
3004659 81 18343016692311700354
3014965 18 17968090876941076034
335352 9 18408888434828670062
34797466 226 14405187313660513240
3545911 37 17894349982182438579
4072396 5 18188196651165786066
4340502 62 12895071804328400036
5283156 175 17489872613923835119
5758199 1 8142075460656519070
59682541 52 18262230032537839167
59755656 215 17894911802158950234
59755656 520 17022896870202116835
633830 44 17023186106215801242

> <PUBCHEM_SHAPE_MULTIPOLES>
390.78
16.99
1.35
1.07
8.94
0.23
-0.37
-1.92
6.52
-1.71
0.1
1.2
-0.02
0.19

> <PUBCHEM_SHAPE_SELFOVERLAP>
841.745

> <PUBCHEM_SHAPE_VOLUME>
217.9

> <PUBCHEM_COORDINATE_TYPE>
2
5
10

$$$$
