28961481
  -OEChem-12032416413D

 56 57  0     1  0  0  0  0  0999 V2000
   -4.3421    3.0281    0.9974 F   0  0  0  0  0  0  0  0  0  0  0  0
   -7.9105    0.2003   -0.2878 F   0  0  0  0  0  0  0  0  0  0  0  0
    0.6254   -1.5196    0.9256 O   0  0  0  0  0  0  0  0  0  0  0  0
    2.1962   -2.5005   -1.4278 O   0  0  0  0  0  0  0  0  0  0  0  0
   -0.8126   -3.9299    1.0908 O   0  0  0  0  0  0  0  0  0  0  0  0
   -1.5220   -0.7206   -0.9191 O   0  0  0  0  0  0  0  0  0  0  0  0
    3.9119   -0.4784   -0.3374 N   0  0  1  0  0  0  0  0  0  0  0  0
   -0.1777    0.9839   -0.1201 N   0  0  0  0  0  0  0  0  0  0  0  0
    5.8158    2.6850    0.2373 N   0  0  0  0  0  0  0  0  0  0  0  0
   -2.4676    1.1974    0.0489 N   0  0  0  0  0  0  0  0  0  0  0  0
    2.9392   -1.1841    0.4783 C   0  0  1  0  0  0  0  0  0  0  0  0
    1.5972   -0.4744    0.6992 C   0  0  1  0  0  0  0  0  0  0  0  0
    2.5226   -2.5500   -0.0450 C   0  0  1  0  0  0  0  0  0  0  0  0
    1.2707   -2.8001    0.7875 C   0  0  2  0  0  0  0  0  0  0  0  0
    1.0795    0.3826   -0.4506 C   0  0  0  0  0  0  0  0  0  0  0  0
    0.2861   -3.7967    0.2034 C   0  0  0  0  0  0  0  0  0  0  0  0
    4.5504    0.5984    0.4262 C   0  0  0  0  0  0  0  0  0  0  0  0
    4.9291   -1.4006   -0.8518 C   0  0  0  0  0  0  0  0  0  0  0  0
    5.1960    1.6044   -0.5220 C   0  0  0  0  0  0  0  0  0  0  0  0
   -1.4193    0.3796   -0.3819 C   0  0  0  0  0  0  0  0  0  0  0  0
    5.9795    3.8743   -0.6001 C   0  0  0  0  0  0  0  0  0  0  0  0
    7.1093    2.2603    0.7751 C   0  0  0  0  0  0  0  0  0  0  0  0
   -3.8567    0.9449   -0.0359 C   0  0  0  0  0  0  0  0  0  0  0  0
   -4.7695    1.8823    0.4482 C   0  0  0  0  0  0  0  0  0  0  0  0
   -4.3135   -0.2437   -0.6052 C   0  0  0  0  0  0  0  0  0  0  0  0
   -6.1388    1.6307    0.3631 C   0  0  0  0  0  0  0  0  0  0  0  0
   -5.6829   -0.4954   -0.6902 C   0  0  0  0  0  0  0  0  0  0  0  0
   -6.5956    0.4419   -0.2060 C   0  0  0  0  0  0  0  0  0  0  0  0
    3.3722   -1.3732    1.4742 H   0  0  0  0  0  0  0  0  0  0  0  0
    1.6399    0.1356    1.6101 H   0  0  0  0  0  0  0  0  0  0  0  0
    3.2745   -3.3308    0.1114 H   0  0  0  0  0  0  0  0  0  0  0  0
    1.5469   -3.1050    1.8052 H   0  0  0  0  0  0  0  0  0  0  0  0
    0.9435   -0.2138   -1.3584 H   0  0  0  0  0  0  0  0  0  0  0  0
    1.7704    1.2005   -0.6760 H   0  0  0  0  0  0  0  0  0  0  0  0
    0.7527   -4.7770    0.0679 H   0  0  0  0  0  0  0  0  0  0  0  0
   -0.1158   -3.4473   -0.7529 H   0  0  0  0  0  0  0  0  0  0  0  0
    3.8003    1.1406    1.0172 H   0  0  0  0  0  0  0  0  0  0  0  0
    5.2666    0.1806    1.1438 H   0  0  0  0  0  0  0  0  0  0  0  0
    5.7182   -0.8804   -1.4022 H   0  0  0  0  0  0  0  0  0  0  0  0
    4.5288   -2.1079   -1.5828 H   0  0  0  0  0  0  0  0  0  0  0  0
    5.4155   -1.9656   -0.0471 H   0  0  0  0  0  0  0  0  0  0  0  0
    2.0425   -3.4129   -1.7266 H   0  0  0  0  0  0  0  0  0  0  0  0
    5.9251    1.1556   -1.2049 H   0  0  0  0  0  0  0  0  0  0  0  0
    4.3944    2.0100   -1.1554 H   0  0  0  0  0  0  0  0  0  0  0  0
   -0.1695    1.8899    0.3381 H   0  0  0  0  0  0  0  0  0  0  0  0
   -1.4246   -4.5733    0.6945 H   0  0  0  0  0  0  0  0  0  0  0  0
    6.4238    4.6933   -0.0233 H   0  0  0  0  0  0  0  0  0  0  0  0
    6.6154    3.6814   -1.4719 H   0  0  0  0  0  0  0  0  0  0  0  0
    5.0071    4.2355   -0.9533 H   0  0  0  0  0  0  0  0  0  0  0  0
    7.8105    1.9640   -0.0138 H   0  0  0  0  0  0  0  0  0  0  0  0
    7.5687    3.0765    1.3449 H   0  0  0  0  0  0  0  0  0  0  0  0
    7.0060    1.4271    1.4765 H   0  0  0  0  0  0  0  0  0  0  0  0
   -2.2113    2.0840    0.4762 H   0  0  0  0  0  0  0  0  0  0  0  0
   -3.6710   -1.0173   -1.0012 H   0  0  0  0  0  0  0  0  0  0  0  0
   -6.8495    2.3602    0.7399 H   0  0  0  0  0  0  0  0  0  0  0  0
   -6.0402   -1.4206   -1.1329 H   0  0  0  0  0  0  0  0  0  0  0  0
  1 24  1  0  0  0  0
  2 28  1  0  0  0  0
  3 12  1  0  0  0  0
  3 14  1  0  0  0  0
  4 13  1  0  0  0  0
  4 42  1  0  0  0  0
  5 16  1  0  0  0  0
  5 46  1  0  0  0  0
  6 20  2  0  0  0  0
  7 11  1  0  0  0  0
  7 17  1  0  0  0  0
  7 18  1  0  0  0  0
  8 15  1  0  0  0  0
  8 20  1  0  0  0  0
  8 45  1  0  0  0  0
  9 19  1  0  0  0  0
  9 21  1  0  0  0  0
  9 22  1  0  0  0  0
 10 20  1  0  0  0  0
 10 23  1  0  0  0  0
 10 53  1  0  0  0  0
 11 12  1  0  0  0  0
 11 13  1  0  0  0  0
 11 29  1  0  0  0  0
 12 15  1  0  0  0  0
 12 30  1  0  0  0  0
 13 14  1  0  0  0  0
 13 31  1  0  0  0  0
 14 16  1  0  0  0  0
 14 32  1  0  0  0  0
 15 33  1  0  0  0  0
 15 34  1  0  0  0  0
 16 35  1  0  0  0  0
 16 36  1  0  0  0  0
 17 19  1  0  0  0  0
 17 37  1  0  0  0  0
 17 38  1  0  0  0  0
 18 39  1  0  0  0  0
 18 40  1  0  0  0  0
 18 41  1  0  0  0  0
 19 43  1  0  0  0  0
 19 44  1  0  0  0  0
 21 47  1  0  0  0  0
 21 48  1  0  0  0  0
 21 49  1  0  0  0  0
 22 50  1  0  0  0  0
 22 51  1  0  0  0  0
 22 52  1  0  0  0  0
 23 24  2  0  0  0  0
 23 25  1  0  0  0  0
 24 26  1  0  0  0  0
 25 27  2  0  0  0  0
 25 54  1  0  0  0  0
 26 28  2  0  0  0  0
 26 55  1  0  0  0  0
 27 28  1  0  0  0  0
 27 56  1  0  0  0  0
M  END
> <PUBCHEM_COMPOUND_CID>
28961481

> <PUBCHEM_CONFORMER_RMSD>
1

> <PUBCHEM_CONFORMER_DIVERSEORDER>
2
26
64
40
22
68
29
31
8
27
77
20
66
28
58
10
49
72
15
3
7
42
12
21
51
57
33
18
32
34
4
23
48
70
44
67
36
45
52
43
71
56
11
61
13
74
24
59
50
39
14
46
55
73
63
17
5
76
47
60
69
30
54
25
16
1
53
19
75
41
37
35
62
6
9
38
65

> <PUBCHEM_MMFF94_PARTIAL_CHARGES>
35
1 -0.19
10 -0.55
11 0.27
12 0.28
13 0.28
14 0.28
15 0.3
16 0.28
17 0.27
18 0.27
19 0.27
2 -0.19
20 0.69
21 0.27
22 0.27
23 0.12
24 0.19
25 -0.15
26 -0.15
27 -0.15
28 0.19
3 -0.56
4 -0.68
42 0.4
45 0.37
46 0.4
5 -0.68
53 0.37
54 0.15
55 0.15
56 0.15
6 -0.57
7 -0.81
8 -0.73
9 -0.81

> <PUBCHEM_EFFECTIVE_ROTOR_COUNT>
11

> <PUBCHEM_PHARMACOPHORE_FEATURES>
12
1 10 donor
1 3 acceptor
1 4 acceptor
1 4 donor
1 5 acceptor
1 5 donor
1 6 acceptor
1 7 cation
1 8 donor
1 9 cation
5 3 11 12 13 14 rings
6 23 24 25 26 27 28 rings

> <PUBCHEM_HEAVY_ATOM_COUNT>
28

> <PUBCHEM_ATOM_DEF_STEREO_COUNT>
4

> <PUBCHEM_ATOM_UDEF_STEREO_COUNT>
0

> <PUBCHEM_BOND_DEF_STEREO_COUNT>
0

> <PUBCHEM_BOND_UDEF_STEREO_COUNT>
0

> <PUBCHEM_ISOTOPIC_ATOM_COUNT>
0

> <PUBCHEM_COMPONENT_COUNT>
1

> <PUBCHEM_CACTVS_TAUTO_COUNT>
3

> <PUBCHEM_CONFORMER_ID>
01B9EAC900000002

> <PUBCHEM_MMFF94_ENERGY>
70.8319

> <PUBCHEM_FEATURE_SELFOVERLAP>
60.952

> <PUBCHEM_SHAPE_FINGERPRINT>
10050765 1 18337391651835164746
10595046 47 18342455916134100193
10835480 77 18261383404954467077
11135609 201 18340192086017130000
12107183 9 17260469168170195465
12166972 35 8286192864603476407
12236239 1 18343021052204691725
12596602 18 18272653411817896025
12925494 130 18123466348571262712
13540713 4 18267041608050511534
1361 2 18407761443245993824
13955234 65 18116712915940015426
14528608 73 18410577249337158701
14565420 104 18260543429393422434
14790565 3 18410858732972771880
14849402 71 18263924350587926522
15685185 35 18120658191373409156
16992610 120 18262248819843182716
17844677 252 18196659497348728577
21049683 118 18191847102731582570
21521721 280 18410862070309697155
22224240 67 18260826020497185616
23516275 137 17416991494283404759
23522609 53 17702684184844805977
23559900 14 17269197155891144799
239999 70 18199750232850327630
3246875 12 18337391650995673715
335352 9 18410016525495549998
34797466 226 17988649575099983229
4073 2 18407763642875631803
4340502 62 18334576832430216006
57091435 61 18410294705568180296
5758199 1 18410575106159404313
6036956 94 16673883571417047572
7399639 24 17895465921585433701

> <PUBCHEM_SHAPE_MULTIPOLES>
518.28
18.47
4.32
0.96
11.05
1.65
-0.03
-18.34
-0.7
-5.32
0.71
-0.28
0.22
-0.44

> <PUBCHEM_SHAPE_SELFOVERLAP>
1064.468

> <PUBCHEM_SHAPE_VOLUME>
300.3

> <PUBCHEM_COORDINATE_TYPE>
2
5
10

$$$$
