51137136
  -OEChem-12032416203D

 48 51  0     1  0  0  0  0  0999 V2000
    6.4649    0.7859   -0.5655 S   0  0  0  0  0  0  0  0  0  0  0  0
   -9.1706    0.5023    0.5243 F   0  0  0  0  0  0  0  0  0  0  0  0
    1.4433   -2.0000    0.4357 O   0  0  0  0  0  0  0  0  0  0  0  0
    7.4676   -0.1374   -1.0759 O   0  0  0  0  0  0  0  0  0  0  0  0
    6.1191    1.9756   -1.3285 O   0  0  0  0  0  0  0  0  0  0  0  0
   -2.9392   -0.3353   -0.1411 N   0  0  1  0  0  0  0  0  0  0  0  0
    1.2791    0.2291    0.0599 N   0  0  0  0  0  0  0  0  0  0  0  0
   -0.8297   -1.1244    0.5122 C   0  0  1  0  0  0  0  0  0  0  0  0
   -1.4625   -0.3298    1.6678 C   0  0  0  0  0  0  0  0  0  0  0  0
   -1.6576   -0.7412   -0.7218 C   0  0  0  0  0  0  0  0  0  0  0  0
   -2.5853    0.4741    1.0250 C   0  0  0  0  0  0  0  0  0  0  0  0
    0.6521   -0.8967    0.3215 C   0  0  0  0  0  0  0  0  0  0  0  0
   -3.7725    0.3913   -1.0876 C   0  0  0  0  0  0  0  0  0  0  0  0
   -5.2149    0.4212   -0.6569 C   0  0  0  0  0  0  0  0  0  0  0  0
    2.5976   -0.1514   -0.0066 C   0  0  0  0  0  0  0  0  0  0  0  0
    2.7020   -1.5154    0.2229 C   0  0  0  0  0  0  0  0  0  0  0  0
    3.7647    0.5853   -0.2546 C   0  0  0  0  0  0  0  0  0  0  0  0
    4.9883   -0.1000   -0.2579 C   0  0  0  0  0  0  0  0  0  0  0  0
   -6.0855   -0.5894   -1.0651 C   0  0  0  0  0  0  0  0  0  0  0  0
   -5.6808    1.4590    0.1501 C   0  0  0  0  0  0  0  0  0  0  0  0
    3.8944   -2.2285    0.2276 C   0  0  0  0  0  0  0  0  0  0  0  0
    5.0491   -1.4789   -0.0213 C   0  0  0  0  0  0  0  0  0  0  0  0
    7.0087    1.3056    1.0453 C   0  0  0  0  0  0  0  0  0  0  0  0
   -7.4218   -0.5621   -0.6665 C   0  0  0  0  0  0  0  0  0  0  0  0
   -7.0172    1.4866    0.5488 C   0  0  0  0  0  0  0  0  0  0  0  0
   -7.8877    0.4760    0.1406 C   0  0  0  0  0  0  0  0  0  0  0  0
    8.2944    2.0983    0.9677 C   0  0  0  0  0  0  0  0  0  0  0  0
   -0.9866   -2.1925    0.7200 H   0  0  0  0  0  0  0  0  0  0  0  0
   -1.8743   -1.0286    2.4068 H   0  0  0  0  0  0  0  0  0  0  0  0
   -0.7521    0.3222    2.1870 H   0  0  0  0  0  0  0  0  0  0  0  0
   -1.1899    0.0835   -1.2762 H   0  0  0  0  0  0  0  0  0  0  0  0
   -1.7715   -1.5914   -1.4032 H   0  0  0  0  0  0  0  0  0  0  0  0
   -2.2113    1.4658    0.7396 H   0  0  0  0  0  0  0  0  0  0  0  0
   -3.4166    0.5988    1.7252 H   0  0  0  0  0  0  0  0  0  0  0  0
   -3.4055    1.4108   -1.2696 H   0  0  0  0  0  0  0  0  0  0  0  0
   -3.7347   -0.1029   -2.0687 H   0  0  0  0  0  0  0  0  0  0  0  0
    3.7047    1.6541   -0.4297 H   0  0  0  0  0  0  0  0  0  0  0  0
    3.9306   -3.2946    0.4134 H   0  0  0  0  0  0  0  0  0  0  0  0
   -5.7351   -1.4052   -1.6919 H   0  0  0  0  0  0  0  0  0  0  0  0
   -5.0155    2.2561    0.4710 H   0  0  0  0  0  0  0  0  0  0  0  0
    6.0044   -1.9989   -0.0191 H   0  0  0  0  0  0  0  0  0  0  0  0
    7.1518    0.4082    1.6547 H   0  0  0  0  0  0  0  0  0  0  0  0
    6.2130    1.9142    1.4852 H   0  0  0  0  0  0  0  0  0  0  0  0
   -8.0998   -1.3490   -0.9835 H   0  0  0  0  0  0  0  0  0  0  0  0
   -7.3805    2.2951    1.1763 H   0  0  0  0  0  0  0  0  0  0  0  0
    8.6098    2.4104    1.9679 H   0  0  0  0  0  0  0  0  0  0  0  0
    8.1695    2.9966    0.3546 H   0  0  0  0  0  0  0  0  0  0  0  0
    9.1010    1.5035    0.5272 H   0  0  0  0  0  0  0  0  0  0  0  0
  1  4  2  0  0  0  0
  1  5  2  0  0  0  0
  1 18  1  0  0  0  0
  1 23  1  0  0  0  0
  2 26  1  0  0  0  0
  3 12  1  0  0  0  0
  3 16  1  0  0  0  0
  6 10  1  0  0  0  0
  6 11  1  0  0  0  0
  6 13  1  0  0  0  0
  7 12  2  0  0  0  0
  7 15  1  0  0  0  0
  8  9  1  0  0  0  0
  8 10  1  0  0  0  0
  8 12  1  0  0  0  0
  8 28  1  0  0  0  0
  9 11  1  0  0  0  0
  9 29  1  0  0  0  0
  9 30  1  0  0  0  0
 10 31  1  0  0  0  0
 10 32  1  0  0  0  0
 11 33  1  0  0  0  0
 11 34  1  0  0  0  0
 13 14  1  0  0  0  0
 13 35  1  0  0  0  0
 13 36  1  0  0  0  0
 14 19  2  0  0  0  0
 14 20  1  0  0  0  0
 15 16  2  0  0  0  0
 15 17  1  0  0  0  0
 16 21  1  0  0  0  0
 17 18  2  0  0  0  0
 17 37  1  0  0  0  0
 18 22  1  0  0  0  0
 19 24  1  0  0  0  0
 19 39  1  0  0  0  0
 20 25  2  0  0  0  0
 20 40  1  0  0  0  0
 21 22  2  0  0  0  0
 21 38  1  0  0  0  0
 22 41  1  0  0  0  0
 23 27  1  0  0  0  0
 23 42  1  0  0  0  0
 23 43  1  0  0  0  0
 24 26  2  0  0  0  0
 24 44  1  0  0  0  0
 25 26  1  0  0  0  0
 25 45  1  0  0  0  0
 27 46  1  0  0  0  0
 27 47  1  0  0  0  0
 27 48  1  0  0  0  0
M  END
> <PUBCHEM_COMPOUND_CID>
51137136

> <PUBCHEM_CONFORMER_RMSD>
0.8

> <PUBCHEM_CONFORMER_DIVERSEORDER>
1
119
36
80
23
129
106
82
110
134
90
43
44
118
97
84
100
130
65
94
112
96
128
42
64
46
127
93
117
57
21
109
79
87
103
113
34
76
115
35
10
5
123
40
138
69
22
104
137
55
14
50
18
73
114
26
49
56
85
92
88
11
83
107
121
66
116
91
68
133
3
62
111
136
75
8
41
16
95
78
105
74
45
54
63
27
51
81
131
120
98
7
86
58
31
102
15
99
59
25
52
19
48
132
77
39
108
6
38
9
29
101
126
135
70
37
125
20
13
89
12
2
53
124
67
71
61
24
122
47
60
72
33
28
30
32
4
17

> <PUBCHEM_MMFF94_PARTIAL_CHARGES>
32
1 1.2
10 0.27
11 0.27
12 0.3
13 0.41
14 -0.14
15 0.23
16 0.14
17 -0.15
18 -0.01
19 -0.15
2 -0.19
20 -0.15
21 -0.15
22 -0.15
23 0.11
24 -0.15
25 -0.15
26 0.19
3 -0.28
37 0.15
38 0.15
39 0.15
4 -0.65
40 0.15
41 0.15
44 0.15
45 0.15
5 -0.65
6 -0.81
7 -0.57
8 0.18

> <PUBCHEM_EFFECTIVE_ROTOR_COUNT>
6

> <PUBCHEM_PHARMACOPHORE_FEATURES>
7
1 4 acceptor
1 5 acceptor
1 6 cation
5 3 7 12 15 16 rings
5 6 8 9 10 11 rings
6 14 19 20 24 25 26 rings
6 15 16 17 18 21 22 rings

> <PUBCHEM_HEAVY_ATOM_COUNT>
27

> <PUBCHEM_ATOM_DEF_STEREO_COUNT>
1

> <PUBCHEM_ATOM_UDEF_STEREO_COUNT>
0

> <PUBCHEM_BOND_DEF_STEREO_COUNT>
0

> <PUBCHEM_BOND_UDEF_STEREO_COUNT>
0

> <PUBCHEM_ISOTOPIC_ATOM_COUNT>
0

> <PUBCHEM_COMPONENT_COUNT>
1

> <PUBCHEM_CACTVS_TAUTO_COUNT>
1

> <PUBCHEM_CONFORMER_ID>
030C4A7000000001

> <PUBCHEM_MMFF94_ENERGY>
43.6373

> <PUBCHEM_FEATURE_SELFOVERLAP>
35.658

> <PUBCHEM_SHAPE_FINGERPRINT>
10 15 16153430562488587068
100830 39 10159433002932540771
10299344 5 18272368655776191727
10369192 42 18201999911545709469
10411042 1 17757547457619676754
10595046 47 18339922611320903891
106641 1 14996290231781703381
10883706 142 18040994046632998858
11135609 187 18343581828609437763
11315181 36 18411981348563846509
11638347 137 14996278107142040816
12089408 11 18131067109534574511
12236239 1 18201435844494738311
12539745 222 12974146468805885422
12592606 108 8934998174799980521
12730499 353 17749672887598729763
13533116 47 18271521988208934666
14170010 4 18186522098840128684
14251764 18 18259702294070615629
14461889 52 17748830738726737642
14849402 71 18408889564031054965
14856354 85 17704351079417100247
14933364 13 18412544293504856431
15183329 4 17275105012002103409
15301273 46 11891324349122743144
1577012 14 18272364257407881887
15840311 113 18411421718114022772
16994733 274 18334574595348574985
18335252 98 18334299786335154731
18643901 69 12031796876265732384
20105231 36 15770057242537329671
20156587 128 15697736848162066024
20157964 124 18261111855441065402
20281389 69 17676203550425859364
20554085 129 17749379386992574600
21033648 29 18041276694858591128
21150785 3 17918274259495566947
21298829 104 18411983559444038032
21521721 280 18187367610560802779
21792934 111 12035448371931087743
21795232 338 18200314446573978315
22224240 67 16950565484746476243
23536379 177 18341891845384014747
23559900 14 15554150571479383378
23576562 1 16987699364287955013
28498 318 10807937055131120083
29717793 49 17845938438157082702
3004659 81 16845567625888284185
3146122 72 15338259308341510720
335352 9 18335427847085210086
34797466 226 18341054029638600414
3711267 37 18130517374853522289
4073 2 18114186354157324203
4093350 32 18202565051837564406
4149490 64 18334013869845763490
4325135 7 18410012122800611079
4340502 62 16153425035161278034
445580 126 18334006203755537112
445580 167 18411411822245290791
445580 37 16630531696417712313
5265222 85 17917705846840235031
5283156 175 16917069928226845398
5470011 282 15410617021435055588
5758199 1 18335138687509744643
5937810 71 17418101984026645129
59682541 35 17240491312650628465
59682541 52 17489598840382597646

> <PUBCHEM_SHAPE_MULTIPOLES>
524.65
27.33
1.82
1.12
13.12
0.05
0.04
-13.73
-1.8
-2.83
0.23
-0.21
-0.17
-0.44

> <PUBCHEM_SHAPE_SELFOVERLAP>
1126.489

> <PUBCHEM_SHAPE_VOLUME>
293.5

> <PUBCHEM_COORDINATE_TYPE>
2
5
10

$$$$
