45783440
  -OEChem-12032416263D

 52 55  0     1  0  0  0  0  0999 V2000
   -0.9474    2.4855   -0.8092 F   0  0  0  0  0  0  0  0  0  0  0  0
   -2.4741   -2.2798    0.7262 O   0  0  0  0  0  0  0  0  0  0  0  0
    3.9043   -0.4242   -1.2853 O   0  0  0  0  0  0  0  0  0  0  0  0
    5.3495    1.7950   -0.3722 O   0  0  0  0  0  0  0  0  0  0  0  0
   -3.3933    0.9033   -0.8640 N   0  0  1  0  0  0  0  0  0  0  0  0
   -1.0922   -0.9480   -0.4287 N   0  0  0  0  0  0  0  0  0  0  0  0
   -1.1792   -2.7513    0.9765 N   0  0  0  0  0  0  0  0  0  0  0  0
    1.5474   -3.0221    0.9430 N   0  0  0  0  0  0  0  0  0  0  0  0
   -3.6076   -0.5203   -0.5360 C   0  0  1  0  0  0  0  0  0  0  0  0
   -4.2197   -1.1278   -1.8117 C   0  0  0  0  0  0  0  0  0  0  0  0
   -4.3677    0.0398   -2.7768 C   0  0  0  0  0  0  0  0  0  0  0  0
   -4.3985    1.2521   -1.8680 C   0  0  0  0  0  0  0  0  0  0  0  0
   -3.4555    1.7769    0.3007 C   0  0  0  0  0  0  0  0  0  0  0  0
   -2.3329   -1.2178   -0.1097 C   0  0  0  0  0  0  0  0  0  0  0  0
   -2.1724    1.7540    1.0880 C   0  0  0  0  0  0  0  0  0  0  0  0
   -0.9709    2.1153    0.4788 C   0  0  0  0  0  0  0  0  0  0  0  0
   -2.1867    1.3705    2.4290 C   0  0  0  0  0  0  0  0  0  0  0  0
   -0.4209   -1.9151    0.2612 C   0  0  0  0  0  0  0  0  0  0  0  0
    0.2164    2.0934    1.2105 C   0  0  0  0  0  0  0  0  0  0  0  0
   -0.9994    1.3486    3.1609 C   0  0  0  0  0  0  0  0  0  0  0  0
    1.0089   -2.0194    0.2134 C   0  0  0  0  0  0  0  0  0  0  0  0
    0.2023    1.7100    2.5516 C   0  0  0  0  0  0  0  0  0  0  0  0
    1.7500   -1.1277   -0.5452 C   0  0  0  0  0  0  0  0  0  0  0  0
    3.1327   -1.2744   -0.5557 C   0  0  0  0  0  0  0  0  0  0  0  0
    2.8943   -3.1335    0.9083 C   0  0  0  0  0  0  0  0  0  0  0  0
    3.7237   -2.2940    0.1823 C   0  0  0  0  0  0  0  0  0  0  0  0
    3.4152    0.9044   -1.4661 C   0  0  0  0  0  0  0  0  0  0  0  0
    4.5923    1.8545   -1.5749 C   0  0  0  0  0  0  0  0  0  0  0  0
    6.4814    2.6519   -0.4268 C   0  0  0  0  0  0  0  0  0  0  0  0
   -4.3471   -0.6268    0.2702 H   0  0  0  0  0  0  0  0  0  0  0  0
   -3.6148   -1.9257   -2.2562 H   0  0  0  0  0  0  0  0  0  0  0  0
   -5.2091   -1.5429   -1.5841 H   0  0  0  0  0  0  0  0  0  0  0  0
   -5.2667   -0.0450   -3.3942 H   0  0  0  0  0  0  0  0  0  0  0  0
   -3.4981    0.0841   -3.4443 H   0  0  0  0  0  0  0  0  0  0  0  0
   -5.3950    1.3689   -1.4232 H   0  0  0  0  0  0  0  0  0  0  0  0
   -4.1403    2.1673   -2.4096 H   0  0  0  0  0  0  0  0  0  0  0  0
   -4.3221    1.5479    0.9347 H   0  0  0  0  0  0  0  0  0  0  0  0
   -3.5947    2.8186   -0.0215 H   0  0  0  0  0  0  0  0  0  0  0  0
   -3.1149    1.0844    2.9163 H   0  0  0  0  0  0  0  0  0  0  0  0
    1.1505    2.3797    0.7377 H   0  0  0  0  0  0  0  0  0  0  0  0
   -1.0103    1.0490    4.2047 H   0  0  0  0  0  0  0  0  0  0  0  0
    1.1268    1.6928    3.1211 H   0  0  0  0  0  0  0  0  0  0  0  0
    1.2557   -0.3616   -1.1330 H   0  0  0  0  0  0  0  0  0  0  0  0
    3.3056   -3.9442    1.5006 H   0  0  0  0  0  0  0  0  0  0  0  0
    4.7993   -2.4317    0.1927 H   0  0  0  0  0  0  0  0  0  0  0  0
    2.8173    1.2246   -0.6045 H   0  0  0  0  0  0  0  0  0  0  0  0
    2.8105    0.9475   -2.3782 H   0  0  0  0  0  0  0  0  0  0  0  0
    5.2329    1.5544   -2.4124 H   0  0  0  0  0  0  0  0  0  0  0  0
    4.2349    2.8769   -1.7398 H   0  0  0  0  0  0  0  0  0  0  0  0
    7.1519    2.3511   -1.2376 H   0  0  0  0  0  0  0  0  0  0  0  0
    6.1692    3.6921   -0.5615 H   0  0  0  0  0  0  0  0  0  0  0  0
    7.0213    2.5697    0.5203 H   0  0  0  0  0  0  0  0  0  0  0  0
  1 16  1  0  0  0  0
  2  7  1  0  0  0  0
  2 14  1  0  0  0  0
  3 24  1  0  0  0  0
  3 27  1  0  0  0  0
  4 28  1  0  0  0  0
  4 29  1  0  0  0  0
  5  9  1  0  0  0  0
  5 12  1  0  0  0  0
  5 13  1  0  0  0  0
  6 14  2  0  0  0  0
  6 18  1  0  0  0  0
  7 18  2  0  0  0  0
  8 21  2  0  0  0  0
  8 25  1  0  0  0  0
  9 10  1  0  0  0  0
  9 14  1  0  0  0  0
  9 30  1  0  0  0  0
 10 11  1  0  0  0  0
 10 31  1  0  0  0  0
 10 32  1  0  0  0  0
 11 12  1  0  0  0  0
 11 33  1  0  0  0  0
 11 34  1  0  0  0  0
 12 35  1  0  0  0  0
 12 36  1  0  0  0  0
 13 15  1  0  0  0  0
 13 37  1  0  0  0  0
 13 38  1  0  0  0  0
 15 16  1  0  0  0  0
 15 17  2  0  0  0  0
 16 19  2  0  0  0  0
 17 20  1  0  0  0  0
 17 39  1  0  0  0  0
 18 21  1  0  0  0  0
 19 22  1  0  0  0  0
 19 40  1  0  0  0  0
 20 22  2  0  0  0  0
 20 41  1  0  0  0  0
 21 23  1  0  0  0  0
 22 42  1  0  0  0  0
 23 24  2  0  0  0  0
 23 43  1  0  0  0  0
 24 26  1  0  0  0  0
 25 26  2  0  0  0  0
 25 44  1  0  0  0  0
 26 45  1  0  0  0  0
 27 28  1  0  0  0  0
 27 46  1  0  0  0  0
 27 47  1  0  0  0  0
 28 48  1  0  0  0  0
 28 49  1  0  0  0  0
 29 50  1  0  0  0  0
 29 51  1  0  0  0  0
 29 52  1  0  0  0  0
M  END
> <PUBCHEM_COMPOUND_CID>
45783440

> <PUBCHEM_CONFORMER_RMSD>
1

> <PUBCHEM_CONFORMER_DIVERSEORDER>
1
64
103
57
7
116
59
35
108
43
96
77
160
171
29
134
173
167
65
162
156
172
27
166
150
88
42
153
175
138
55
58
129
89
137
36
34
38
91
142
68
62
133
139
45
118
113
136
54
73
101
83
124
125
114
69
41
33
174
40
37
60
90
32
86
71
130
115
94
100
97
17
22
147
4
30
169
80
2
44
56
104
146
157
123
48
143
163
26
135
5
28
155
21
112
39
47
67
46
82
93
151
105
131
92
61
16
8
74
144
107
128
170
149
117
152
23
121
53
102
31
140
111
24
72
50
99
66
145
110
120
168
70
52
122
75
109
6
18
49
81
154
148
159
95
158
98
87
85
63
11
25
79
127
165
3
126
76
141
51
161
164
106
132
78
10
12
15
14
84
19
119
20
13
9

> <PUBCHEM_MMFF94_PARTIAL_CHARGES>
34
1 -0.19
12 0.27
13 0.41
14 0.3
15 -0.14
16 0.19
17 -0.15
18 0.46
19 -0.15
2 -0.02
20 -0.15
21 0.36
22 -0.15
23 -0.15
24 0.08
25 0.16
26 -0.15
27 0.28
28 0.28
29 0.28
3 -0.36
39 0.15
4 -0.56
40 0.15
41 0.15
42 0.15
43 0.15
44 0.15
45 0.15
5 -0.81
6 -0.57
7 -0.41
8 -0.62
9 0.45

> <PUBCHEM_EFFECTIVE_ROTOR_COUNT>
9

> <PUBCHEM_PHARMACOPHORE_FEATURES>
9
1 3 acceptor
1 4 acceptor
1 5 cation
1 8 acceptor
3 6 7 18 cation
5 2 6 7 14 18 rings
5 5 9 10 11 12 rings
6 15 16 17 19 20 22 rings
6 8 21 23 24 25 26 rings

> <PUBCHEM_HEAVY_ATOM_COUNT>
29

> <PUBCHEM_ATOM_DEF_STEREO_COUNT>
1

> <PUBCHEM_ATOM_UDEF_STEREO_COUNT>
0

> <PUBCHEM_BOND_DEF_STEREO_COUNT>
0

> <PUBCHEM_BOND_UDEF_STEREO_COUNT>
0

> <PUBCHEM_ISOTOPIC_ATOM_COUNT>
0

> <PUBCHEM_COMPONENT_COUNT>
1

> <PUBCHEM_CACTVS_TAUTO_COUNT>
1

> <PUBCHEM_CONFORMER_ID>
02BA999000000001

> <PUBCHEM_MMFF94_ENERGY>
65.188

> <PUBCHEM_FEATURE_SELFOVERLAP>
45.676

> <PUBCHEM_SHAPE_FINGERPRINT>
11582403 64 16660907959333536269
11725454 13 16515686576924613703
12166972 35 18047453552887369610
12788726 201 17559969722573624249
13583140 156 16951709994446146706
13617811 41 18334847330193860941
14468879 13 17240491311669414245
14931854 50 18343018917115478828
17492 54 18412255147358067045
17980427 23 18125996071402235166
1813 80 16414899925422165191
20691752 17 18119503502505450881
20775438 99 17050150576805683567
21033648 29 16660644007939633327
21095088 737 18342183275583195120
21623110 236 18341058449428940576
22907989 373 17917439700200668755
23557571 272 17058067923233359991
23559900 14 18263355907150047106
394222 165 17821720650772898538
469060 322 17680739164734231619
5265222 85 17479138287697195489
57527295 17 18130210654021134855
9981440 41 18041281079682798474

> <PUBCHEM_SHAPE_MULTIPOLES>
552
10.21
3.86
2.47
10.23
0.93
-0.59
-4.35
7.75
2.92
-1.43
-1.93
-1.26
-2.15

> <PUBCHEM_SHAPE_SELFOVERLAP>
1187.419

> <PUBCHEM_SHAPE_VOLUME>
307.1

> <PUBCHEM_COORDINATE_TYPE>
2
5
10

$$$$
