51136667
  -OEChem-12032416143D

 62 65  0     1  0  0  0  0  0999 V2000
    0.6660   -3.5448   -1.3256 O   0  0  0  0  0  0  0  0  0  0  0  0
    5.8698    2.8961   -1.0555 O   0  0  0  0  0  0  0  0  0  0  0  0
    6.2269    0.7577   -0.3623 O   0  0  0  0  0  0  0  0  0  0  0  0
   -5.4167    1.6700   -1.2488 O   0  0  0  0  0  0  0  0  0  0  0  0
    1.6625   -1.9550    0.0443 N   0  0  0  0  0  0  0  0  0  0  0  0
    0.1421    1.9118    1.9216 N   0  0  0  0  0  0  0  0  0  0  0  0
    2.0688    0.4021    0.7168 C   0  0  2  0  0  0  0  0  0  0  0  0
    3.4615    0.3156    0.0418 C   0  0  1  0  0  0  0  0  0  0  0  0
    1.6146   -1.0007    1.1594 C   0  0  0  0  0  0  0  0  0  0  0  0
    3.4797   -0.7309   -1.0853 C   0  0  0  0  0  0  0  0  0  0  0  0
    2.9722   -2.0841   -0.5939 C   0  0  0  0  0  0  0  0  0  0  0  0
   -0.7159   -2.5375    0.3014 C   0  0  0  0  0  0  0  0  0  0  0  0
    0.9929    1.0596   -0.1563 C   0  0  0  0  0  0  0  0  0  0  0  0
    0.5928   -2.7300   -0.4022 C   0  0  0  0  0  0  0  0  0  0  0  0
    3.9670    1.6651   -0.4677 C   0  0  0  0  0  0  0  0  0  0  0  0
   -0.8444   -3.5265    1.4654 C   0  0  0  0  0  0  0  0  0  0  0  0
   -1.8838   -2.8322   -0.6413 C   0  0  0  0  0  0  0  0  0  0  0  0
   -2.1368   -4.2968    1.2167 C   0  0  0  0  0  0  0  0  0  0  0  0
   -2.3129   -4.2496   -0.2903 C   0  0  0  0  0  0  0  0  0  0  0  0
   -0.1383    1.5566    0.7112 C   0  0  0  0  0  0  0  0  0  0  0  0
    5.4643    1.6804   -0.6068 C   0  0  0  0  0  0  0  0  0  0  0  0
   -1.5086    1.6066    0.1406 C   0  0  0  0  0  0  0  0  0  0  0  0
   -2.5688    1.6921    1.0519 C   0  0  0  0  0  0  0  0  0  0  0  0
   -0.9455    2.4515    2.7447 C   0  0  0  0  0  0  0  0  0  0  0  0
   -2.2580    1.7125    2.5190 C   0  0  0  0  0  0  0  0  0  0  0  0
   -1.7570    1.5573   -1.2324 C   0  0  0  0  0  0  0  0  0  0  0  0
   -3.8846    1.7020    0.5807 C   0  0  0  0  0  0  0  0  0  0  0  0
   -3.0738    1.5836   -1.6941 C   0  0  0  0  0  0  0  0  0  0  0  0
   -4.1348    1.6528   -0.7907 C   0  0  0  0  0  0  0  0  0  0  0  0
   -5.6013    1.6148   -2.6624 C   0  0  0  0  0  0  0  0  0  0  0  0
    2.2341    0.9915    1.6275 H   0  0  0  0  0  0  0  0  0  0  0  0
    4.1530   -0.0407    0.8200 H   0  0  0  0  0  0  0  0  0  0  0  0
    2.3198   -1.3825    1.9100 H   0  0  0  0  0  0  0  0  0  0  0  0
    0.6545   -0.9630    1.6711 H   0  0  0  0  0  0  0  0  0  0  0  0
    2.8468   -0.3913   -1.9152 H   0  0  0  0  0  0  0  0  0  0  0  0
    4.4900   -0.8569   -1.4891 H   0  0  0  0  0  0  0  0  0  0  0  0
    3.6596   -2.5039    0.1502 H   0  0  0  0  0  0  0  0  0  0  0  0
    2.9305   -2.7874   -1.4315 H   0  0  0  0  0  0  0  0  0  0  0  0
   -0.8512   -1.5040    0.6218 H   0  0  0  0  0  0  0  0  0  0  0  0
    1.3810    1.9427   -0.6738 H   0  0  0  0  0  0  0  0  0  0  0  0
    0.6341    0.3595   -0.9157 H   0  0  0  0  0  0  0  0  0  0  0  0
    3.7054    2.4526    0.2491 H   0  0  0  0  0  0  0  0  0  0  0  0
    3.5289    1.9090   -1.4418 H   0  0  0  0  0  0  0  0  0  0  0  0
   -0.8808   -3.0076    2.4293 H   0  0  0  0  0  0  0  0  0  0  0  0
    0.0035   -4.2211    1.5057 H   0  0  0  0  0  0  0  0  0  0  0  0
   -2.7114   -2.1453   -0.4195 H   0  0  0  0  0  0  0  0  0  0  0  0
   -1.6534   -2.7225   -1.7056 H   0  0  0  0  0  0  0  0  0  0  0  0
   -2.0902   -5.3200    1.6004 H   0  0  0  0  0  0  0  0  0  0  0  0
   -2.9743   -3.7883    1.7093 H   0  0  0  0  0  0  0  0  0  0  0  0
   -3.3429   -4.4575   -0.5940 H   0  0  0  0  0  0  0  0  0  0  0  0
   -1.6576   -4.9824   -0.7749 H   0  0  0  0  0  0  0  0  0  0  0  0
   -0.6616    2.3643    3.7991 H   0  0  0  0  0  0  0  0  0  0  0  0
   -1.0563    3.5221    2.5311 H   0  0  0  0  0  0  0  0  0  0  0  0
   -3.0563    2.2098    3.0812 H   0  0  0  0  0  0  0  0  0  0  0  0
   -2.1822    0.6787    2.8768 H   0  0  0  0  0  0  0  0  0  0  0  0
   -0.9530    1.5133   -1.9601 H   0  0  0  0  0  0  0  0  0  0  0  0
   -4.7153    1.7494    1.2803 H   0  0  0  0  0  0  0  0  0  0  0  0
    6.8444    2.9414   -1.1583 H   0  0  0  0  0  0  0  0  0  0  0  0
   -3.2006    1.5463   -2.7709 H   0  0  0  0  0  0  0  0  0  0  0  0
   -5.1740    2.4928   -3.1588 H   0  0  0  0  0  0  0  0  0  0  0  0
   -5.2240    0.6757   -3.0814 H   0  0  0  0  0  0  0  0  0  0  0  0
   -6.6801    1.6366   -2.8484 H   0  0  0  0  0  0  0  0  0  0  0  0
  1 14  2  0  0  0  0
  2 21  1  0  0  0  0
  2 58  1  0  0  0  0
  3 21  2  0  0  0  0
  4 29  1  0  0  0  0
  4 30  1  0  0  0  0
  5  9  1  0  0  0  0
  5 11  1  0  0  0  0
  5 14  1  0  0  0  0
  6 20  2  0  0  0  0
  6 24  1  0  0  0  0
  7  8  1  0  0  0  0
  7  9  1  0  0  0  0
  7 13  1  0  0  0  0
  7 31  1  0  0  0  0
  8 10  1  0  0  0  0
  8 15  1  0  0  0  0
  8 32  1  0  0  0  0
  9 33  1  0  0  0  0
  9 34  1  0  0  0  0
 10 11  1  0  0  0  0
 10 35  1  0  0  0  0
 10 36  1  0  0  0  0
 11 37  1  0  0  0  0
 11 38  1  0  0  0  0
 12 14  1  0  0  0  0
 12 16  1  0  0  0  0
 12 17  1  0  0  0  0
 12 39  1  0  0  0  0
 13 20  1  0  0  0  0
 13 40  1  0  0  0  0
 13 41  1  0  0  0  0
 15 21  1  0  0  0  0
 15 42  1  0  0  0  0
 15 43  1  0  0  0  0
 16 18  1  0  0  0  0
 16 44  1  0  0  0  0
 16 45  1  0  0  0  0
 17 19  1  0  0  0  0
 17 46  1  0  0  0  0
 17 47  1  0  0  0  0
 18 19  1  0  0  0  0
 18 48  1  0  0  0  0
 18 49  1  0  0  0  0
 19 50  1  0  0  0  0
 19 51  1  0  0  0  0
 20 22  1  0  0  0  0
 22 23  2  0  0  0  0
 22 26  1  0  0  0  0
 23 25  1  0  0  0  0
 23 27  1  0  0  0  0
 24 25  1  0  0  0  0
 24 52  1  0  0  0  0
 24 53  1  0  0  0  0
 25 54  1  0  0  0  0
 25 55  1  0  0  0  0
 26 28  2  0  0  0  0
 26 56  1  0  0  0  0
 27 29  2  0  0  0  0
 27 57  1  0  0  0  0
 28 29  1  0  0  0  0
 28 59  1  0  0  0  0
 30 60  1  0  0  0  0
 30 61  1  0  0  0  0
 30 62  1  0  0  0  0
M  END
> <PUBCHEM_COMPOUND_CID>
51136667

> <PUBCHEM_CONFORMER_RMSD>
1

> <PUBCHEM_CONFORMER_DIVERSEORDER>
1
21
97
86
56
81
9
63
118
88
68
41
7
47
73
78
94
120
127
57
121
99
80
27
22
28
115
119
20
25
90
36
2
110
24
38
122
93
66
111
40
98
23
8
60
114
109
108
105
35
17
107
100
11
89
61
117
106
69
58
113
16
125
124
44
48
42
95
31
87
6
12
126
75
32
67
49
74
55
59
54
30
45
102
123
92
112
91
101
50
3
39
10
70
51
4
79
62
103
84
71
46
64
37
85
26
52
53
19
77
33
43
76
104
5
116
18
82
29
72
15
83
13
34
65
96
14

> <PUBCHEM_MMFF94_PARTIAL_CHARGES>
27
1 -0.57
11 0.3
12 0.06
13 0.06
14 0.57
15 0.06
2 -0.65
20 0.3
21 0.66
22 0.09
23 -0.14
24 0.25
25 0.14
26 -0.15
27 -0.15
28 -0.15
29 0.08
3 -0.57
30 0.28
4 -0.36
5 -0.66
56 0.15
57 0.15
58 0.5
59 0.15
6 -0.7
9 0.3

> <PUBCHEM_EFFECTIVE_ROTOR_COUNT>
9.6

> <PUBCHEM_PHARMACOPHORE_FEATURES>
10
1 1 acceptor
1 2 acceptor
1 3 acceptor
1 4 acceptor
1 6 acceptor
3 2 3 21 anion
5 12 16 17 18 19 rings
6 22 23 26 27 28 29 rings
6 5 7 8 9 10 11 rings
6 6 20 22 23 24 25 rings

> <PUBCHEM_HEAVY_ATOM_COUNT>
30

> <PUBCHEM_ATOM_DEF_STEREO_COUNT>
2

> <PUBCHEM_ATOM_UDEF_STEREO_COUNT>
0

> <PUBCHEM_BOND_DEF_STEREO_COUNT>
0

> <PUBCHEM_BOND_UDEF_STEREO_COUNT>
0

> <PUBCHEM_ISOTOPIC_ATOM_COUNT>
0

> <PUBCHEM_COMPONENT_COUNT>
1

> <PUBCHEM_CACTVS_TAUTO_COUNT>
1

> <PUBCHEM_CONFORMER_ID>
030C489B00000001

> <PUBCHEM_MMFF94_ENERGY>
83.304

> <PUBCHEM_FEATURE_SELFOVERLAP>
50.831

> <PUBCHEM_SHAPE_FINGERPRINT>
10032420 55 17916574350232582400
104564 63 18194967567738424722
10688039 33 17829337134868611354
11135609 187 18342453712557901777
11582403 64 17096066005464392564
12156800 1 18050255310309516443
12788726 201 18123757719357624234
13583140 156 17458634376398565200
1361 2 18260541183120778261
13911987 19 18336275604214196716
14363568 33 16967747840426461603
14931854 50 18200863020574924229
15276724 80 17977394059814581716
15324884 4 17606428491056229857
17138139 8 17986081155066815159
17980427 23 14201698471329217704
19319366 153 18268975506757893047
20587220 17 17481179738020442569
20642791 105 18265048223169510776
21236236 1 18267030634118244252
21641784 216 17828786258489908556
23419403 2 16843607321515992840
23516275 137 17345774996775946927
238 59 18047468928964793011
283562 15 18122634009657418018
4058900 60 18265332811718397341
4409770 3 18270403931001830910
463206 1 18057020455885590023
469060 322 17677907918066416666
5171179 24 17484515994746591592
7237137 82 18123203552406776564

> <PUBCHEM_SHAPE_MULTIPOLES>
583.95
10.04
5.42
2.09
7.33
7.55
-0.62
-9.87
6.64
-2.57
-0.67
-2.47
-1.36
0.53

> <PUBCHEM_SHAPE_SELFOVERLAP>
1240.304

> <PUBCHEM_SHAPE_VOLUME>
324.6

> <PUBCHEM_COORDINATE_TYPE>
2
5
10

$$$$
