45783413
  -OEChem-12032416273D

 42 44  0     1  0  0  0  0  0999 V2000
    0.9378   -2.6630   -0.8491 O   0  0  0  0  0  0  0  0  0  0  0  0
   -1.4759    1.2536   -0.2629 O   0  0  0  0  0  0  0  0  0  0  0  0
    0.2481    3.3317    0.4734 O   0  0  0  0  0  0  0  0  0  0  0  0
    3.1592    0.2124   -0.2991 N   0  0  1  0  0  0  0  0  0  0  0  0
    0.3449   -0.7104    0.0740 N   0  0  0  0  0  0  0  0  0  0  0  0
   -0.4618   -2.6661   -0.7967 N   0  0  0  0  0  0  0  0  0  0  0  0
   -3.6744    0.7592    0.2363 N   0  0  0  0  0  0  0  0  0  0  0  0
    2.8239   -1.2251   -0.2590 C   0  0  1  0  0  0  0  0  0  0  0  0
    3.4635   -1.7396    1.0438 C   0  0  0  0  0  0  0  0  0  0  0  0
    4.1860   -0.5372    1.6343 C   0  0  0  0  0  0  0  0  0  0  0  0
    4.4136    0.3649    0.4382 C   0  0  0  0  0  0  0  0  0  0  0  0
    1.3318   -1.4766   -0.3167 C   0  0  0  0  0  0  0  0  0  0  0  0
    3.2511    0.7432   -1.6531 C   0  0  0  0  0  0  0  0  0  0  0  0
   -0.7355   -1.4822   -0.2406 C   0  0  0  0  0  0  0  0  0  0  0  0
   -2.0762   -1.0415    0.0155 C   0  0  0  0  0  0  0  0  0  0  0  0
   -2.4249    0.2995    0.0012 C   0  0  0  0  0  0  0  0  0  0  0  0
   -3.0742   -1.9705    0.2886 C   0  0  0  0  0  0  0  0  0  0  0  0
   -4.3719   -1.5363    0.5354 C   0  0  0  0  0  0  0  0  0  0  0  0
   -1.9127    2.6071   -0.2594 C   0  0  0  0  0  0  0  0  0  0  0  0
   -4.6178   -0.1732    0.4980 C   0  0  0  0  0  0  0  0  0  0  0  0
   -0.7284    3.5101   -0.5455 C   0  0  0  0  0  0  0  0  0  0  0  0
    1.3937    4.1399    0.2437 C   0  0  0  0  0  0  0  0  0  0  0  0
    3.2983   -1.7528   -1.0984 H   0  0  0  0  0  0  0  0  0  0  0  0
    2.7423   -2.1499    1.7590 H   0  0  0  0  0  0  0  0  0  0  0  0
    4.1911   -2.5267    0.8110 H   0  0  0  0  0  0  0  0  0  0  0  0
    5.1188   -0.8182    2.1318 H   0  0  0  0  0  0  0  0  0  0  0  0
    3.5424   -0.0406    2.3711 H   0  0  0  0  0  0  0  0  0  0  0  0
    5.2754    0.0135   -0.1434 H   0  0  0  0  0  0  0  0  0  0  0  0
    4.5885    1.4015    0.7425 H   0  0  0  0  0  0  0  0  0  0  0  0
    2.2918    0.6459   -2.1728 H   0  0  0  0  0  0  0  0  0  0  0  0
    4.0183    0.2356   -2.2486 H   0  0  0  0  0  0  0  0  0  0  0  0
    3.4894    1.8121   -1.6271 H   0  0  0  0  0  0  0  0  0  0  0  0
   -2.8691   -3.0376    0.3226 H   0  0  0  0  0  0  0  0  0  0  0  0
   -5.1655   -2.2421    0.7520 H   0  0  0  0  0  0  0  0  0  0  0  0
   -2.3189    2.8570    0.7288 H   0  0  0  0  0  0  0  0  0  0  0  0
   -2.6778    2.7622   -1.0294 H   0  0  0  0  0  0  0  0  0  0  0  0
   -5.6130    0.2170    0.6841 H   0  0  0  0  0  0  0  0  0  0  0  0
   -0.2850    3.2430   -1.5119 H   0  0  0  0  0  0  0  0  0  0  0  0
   -1.0521    4.5564   -0.5708 H   0  0  0  0  0  0  0  0  0  0  0  0
    1.8677    3.8733   -0.7059 H   0  0  0  0  0  0  0  0  0  0  0  0
    1.1222    5.1999    0.2457 H   0  0  0  0  0  0  0  0  0  0  0  0
    2.1086    3.9608    1.0513 H   0  0  0  0  0  0  0  0  0  0  0  0
  1  6  1  0  0  0  0
  1 12  1  0  0  0  0
  2 16  1  0  0  0  0
  2 19  1  0  0  0  0
  3 21  1  0  0  0  0
  3 22  1  0  0  0  0
  4  8  1  0  0  0  0
  4 11  1  0  0  0  0
  4 13  1  0  0  0  0
  5 12  2  0  0  0  0
  5 14  1  0  0  0  0
  6 14  2  0  0  0  0
  7 16  1  0  0  0  0
  7 20  2  0  0  0  0
  8  9  1  0  0  0  0
  8 12  1  0  0  0  0
  8 23  1  0  0  0  0
  9 10  1  0  0  0  0
  9 24  1  0  0  0  0
  9 25  1  0  0  0  0
 10 11  1  0  0  0  0
 10 26  1  0  0  0  0
 10 27  1  0  0  0  0
 11 28  1  0  0  0  0
 11 29  1  0  0  0  0
 13 30  1  0  0  0  0
 13 31  1  0  0  0  0
 13 32  1  0  0  0  0
 14 15  1  0  0  0  0
 15 16  2  0  0  0  0
 15 17  1  0  0  0  0
 17 18  2  0  0  0  0
 17 33  1  0  0  0  0
 18 20  1  0  0  0  0
 18 34  1  0  0  0  0
 19 21  1  0  0  0  0
 19 35  1  0  0  0  0
 19 36  1  0  0  0  0
 20 37  1  0  0  0  0
 21 38  1  0  0  0  0
 21 39  1  0  0  0  0
 22 40  1  0  0  0  0
 22 41  1  0  0  0  0
 22 42  1  0  0  0  0
M  END
> <PUBCHEM_COMPOUND_CID>
45783413

> <PUBCHEM_CONFORMER_RMSD>
0.8

> <PUBCHEM_CONFORMER_DIVERSEORDER>
1
56
73
117
134
87
23
116
95
101
66
76
98
32
13
25
62
69
115
58
126
96
113
110
77
114
88
71
121
44
131
81
112
75
124
128
17
102
28
119
9
133
60
35
12
64
104
135
125
39
84
92
68
79
20
11
129
37
93
31
82
122
59
5
72
26
33
111
45
100
97
85
24
53
51
50
90
54
65
43
130
46
91
38
55
10
18
40
30
94
132
80
19
3
105
118
74
22
7
47
52
42
14
49
2
57
16
78
108
8
67
48
107
61
63
109
15
36
70
106
86
120
41
34
83
4
127
89
6
123
99
29
27
21
103

> <PUBCHEM_MMFF94_PARTIAL_CHARGES>
23
1 -0.02
11 0.27
12 0.3
13 0.27
14 0.46
15 0.05
16 0.39
17 -0.15
18 -0.15
19 0.28
2 -0.36
20 0.16
21 0.28
22 0.28
3 -0.56
33 0.15
34 0.15
37 0.15
4 -0.81
5 -0.57
6 -0.41
7 -0.62
8 0.45

> <PUBCHEM_EFFECTIVE_ROTOR_COUNT>
7

> <PUBCHEM_PHARMACOPHORE_FEATURES>
8
1 2 acceptor
1 3 acceptor
1 4 cation
1 7 acceptor
3 5 6 14 cation
5 1 5 6 12 14 rings
5 4 8 9 10 11 rings
6 7 15 16 17 18 20 rings

> <PUBCHEM_HEAVY_ATOM_COUNT>
22

> <PUBCHEM_ATOM_DEF_STEREO_COUNT>
1

> <PUBCHEM_ATOM_UDEF_STEREO_COUNT>
0

> <PUBCHEM_BOND_DEF_STEREO_COUNT>
0

> <PUBCHEM_BOND_UDEF_STEREO_COUNT>
0

> <PUBCHEM_ISOTOPIC_ATOM_COUNT>
0

> <PUBCHEM_COMPONENT_COUNT>
1

> <PUBCHEM_CACTVS_TAUTO_COUNT>
1

> <PUBCHEM_CONFORMER_ID>
02BA997500000001

> <PUBCHEM_MMFF94_ENERGY>
46.6051

> <PUBCHEM_FEATURE_SELFOVERLAP>
40.65

> <PUBCHEM_SHAPE_FINGERPRINT>
10498660 4 18410864234825508156
10670039 82 18337124371545136500
10759866 29 18113346288866163708
11370993 70 17544741340795527876
12403259 226 18199745843562237594
12553582 1 18411426111174482733
12596602 18 17530955874712305080
13140716 1 18122345941351779467
138480 1 14807128700487382169
14022349 108 18122636208527458865
14787075 74 17895761823341739787
15006816 218 17835243720081220445
15927050 60 17403749229334532893
16120349 306 17403722841098580824
17492 89 18189333472478955162
18785283 64 18120388794007310113
20510252 161 18339923688787898715
20642791 35 18196384833894958412
20715895 44 17681261171324239333
23227448 37 18055637471298657478
23366157 5 17826797237560151429
23402539 116 18411971469221811215
23419403 2 17970325192037494517
23557571 272 18270689644952546132
23559900 14 18195251005294137383
350125 39 18197225737131145150
3524813 1 17988348326156970080
3680242 22 18262808363059038121
57091435 65 18191860339568158568
5939293 188 18269560588456107692
69474 34 18410013243555155177
7097593 13 17536020065824002922
90316 7 18336263449160375299
9925002 15 17341798277602473167

> <PUBCHEM_SHAPE_MULTIPOLES>
415.22
8.34
4.25
1.05
0.1
5.28
0.01
-2.76
-2.35
-0.02
0.21
-1.08
-0.16
-0.13

> <PUBCHEM_SHAPE_SELFOVERLAP>
876.197

> <PUBCHEM_SHAPE_VOLUME>
235.4

> <PUBCHEM_COORDINATE_TYPE>
2
5
10

$$$$
