9424620
  -OEChem-12032416283D

 59 63  0     1  0  0  0  0  0999 V2000
   -5.1428   -2.4245   -0.6537 S   0  0  0  0  0  0  0  0  0  0  0  0
    1.5168    2.9957   -2.8150 O   0  0  0  0  0  0  0  0  0  0  0  0
    3.2511   -4.1378   -1.4083 O   0  0  0  0  0  0  0  0  0  0  0  0
   -2.8730   -0.9978   -1.8774 O   0  0  0  0  0  0  0  0  0  0  0  0
    1.6284    0.5186    1.5478 N   0  0  2  0  0  0  0  0  0  0  0  0
    0.5345    2.4278   -0.7661 N   0  0  0  0  0  0  0  0  0  0  0  0
    3.2908   -2.1104   -0.2736 N   0  0  0  0  0  0  0  0  0  0  0  0
   -2.5924    0.5862   -0.2259 N   0  0  0  0  0  0  0  0  0  0  0  0
    1.6170    3.0250    1.4795 C   0  0  1  0  0  0  0  0  0  0  0  0
   -0.5062    1.8088    1.4376 C   0  0  2  0  0  0  0  0  0  0  0  0
    0.1856    3.0537    1.9882 C   0  0  0  0  0  0  0  0  0  0  0  0
    2.3282    1.7420    1.9585 C   0  0  0  0  0  0  0  0  0  0  0  0
    0.2167    0.5454    1.9583 C   0  0  0  0  0  0  0  0  0  0  0  0
    2.3031   -0.6720    2.0679 C   0  0  0  0  0  0  0  0  0  0  0  0
    1.5905    3.1529   -0.0463 C   0  0  0  0  0  0  0  0  0  0  0  0
   -0.5351    1.8135   -0.0895 C   0  0  0  0  0  0  0  0  0  0  0  0
    3.7853   -0.6643    1.6666 C   0  0  0  0  0  0  0  0  0  0  0  0
    1.6250   -1.9447    1.5401 C   0  0  0  0  0  0  0  0  0  0  0  0
    3.9882   -0.8952    0.1676 C   0  0  0  0  0  0  0  0  0  0  0  0
    1.8613   -2.1530    0.0440 C   0  0  0  0  0  0  0  0  0  0  0  0
   -1.5286    1.2301   -0.7976 C   0  0  0  0  0  0  0  0  0  0  0  0
    0.6145    2.4608   -2.1702 C   0  0  0  0  0  0  0  0  0  0  0  0
   -1.4950    1.2390   -2.2403 C   0  0  0  0  0  0  0  0  0  0  0  0
   -0.4908    1.8052   -2.9120 C   0  0  0  0  0  0  0  0  0  0  0  0
    3.8694   -3.1516   -0.9995 C   0  0  0  0  0  0  0  0  0  0  0  0
    5.3459   -3.0387   -1.2844 C   0  0  0  0  0  0  0  0  0  0  0  0
   -3.2254   -0.5143   -0.8000 C   0  0  0  0  0  0  0  0  0  0  0  0
   -4.3304   -1.0855   -0.0148 C   0  0  0  0  0  0  0  0  0  0  0  0
   -4.7890   -0.6638    1.1833 C   0  0  0  0  0  0  0  0  0  0  0  0
   -5.8737   -1.4778    1.6198 C   0  0  0  0  0  0  0  0  0  0  0  0
   -6.1701   -2.4735    0.7153 C   0  0  0  0  0  0  0  0  0  0  0  0
    2.1684    3.8813    1.8880 H   0  0  0  0  0  0  0  0  0  0  0  0
   -1.5228    1.8197    1.8456 H   0  0  0  0  0  0  0  0  0  0  0  0
    0.1683    3.0490    3.0850 H   0  0  0  0  0  0  0  0  0  0  0  0
   -0.3289    3.9662    1.6621 H   0  0  0  0  0  0  0  0  0  0  0  0
    2.4333    1.7799    3.0511 H   0  0  0  0  0  0  0  0  0  0  0  0
    3.3300    1.8014    1.5246 H   0  0  0  0  0  0  0  0  0  0  0  0
   -0.3417   -0.3055    1.5598 H   0  0  0  0  0  0  0  0  0  0  0  0
    0.1315    0.5075    3.0528 H   0  0  0  0  0  0  0  0  0  0  0  0
    2.2476   -0.6803    3.1653 H   0  0  0  0  0  0  0  0  0  0  0  0
    1.4485    4.2116   -0.3044 H   0  0  0  0  0  0  0  0  0  0  0  0
    2.5611    2.8691   -0.4728 H   0  0  0  0  0  0  0  0  0  0  0  0
    4.3493    0.2041    2.0154 H   0  0  0  0  0  0  0  0  0  0  0  0
    4.2598   -1.5088    2.1890 H   0  0  0  0  0  0  0  0  0  0  0  0
    2.0843   -2.7953    2.0652 H   0  0  0  0  0  0  0  0  0  0  0  0
    0.5628   -2.0264    1.7811 H   0  0  0  0  0  0  0  0  0  0  0  0
    3.5861   -0.0590   -0.4160 H   0  0  0  0  0  0  0  0  0  0  0  0
    5.0581   -0.9444   -0.0428 H   0  0  0  0  0  0  0  0  0  0  0  0
    1.4271   -3.1100   -0.2626 H   0  0  0  0  0  0  0  0  0  0  0  0
    1.3683   -1.3708   -0.5450 H   0  0  0  0  0  0  0  0  0  0  0  0
   -2.3358    0.9069   -2.8374 H   0  0  0  0  0  0  0  0  0  0  0  0
   -0.4854    1.8575   -3.9945 H   0  0  0  0  0  0  0  0  0  0  0  0
   -2.7897    0.8000    0.7441 H   0  0  0  0  0  0  0  0  0  0  0  0
    5.9100   -3.0027   -0.3485 H   0  0  0  0  0  0  0  0  0  0  0  0
    5.5477   -2.1511   -1.8899 H   0  0  0  0  0  0  0  0  0  0  0  0
    5.6761   -3.9173   -1.8472 H   0  0  0  0  0  0  0  0  0  0  0  0
   -4.4156    0.1714    1.7602 H   0  0  0  0  0  0  0  0  0  0  0  0
   -6.4102   -1.3397    2.5496 H   0  0  0  0  0  0  0  0  0  0  0  0
   -6.9410   -3.2273    0.7928 H   0  0  0  0  0  0  0  0  0  0  0  0
  1 28  1  0  0  0  0
  1 31  1  0  0  0  0
  2 22  2  0  0  0  0
  3 25  2  0  0  0  0
  4 27  2  0  0  0  0
  5 12  1  0  0  0  0
  5 13  1  0  0  0  0
  5 14  1  0  0  0  0
  6 15  1  0  0  0  0
  6 16  1  0  0  0  0
  6 22  1  0  0  0  0
  7 19  1  0  0  0  0
  7 20  1  0  0  0  0
  7 25  1  0  0  0  0
  8 21  1  0  0  0  0
  8 27  1  0  0  0  0
  8 53  1  0  0  0  0
  9 11  1  0  0  0  0
  9 12  1  0  0  0  0
  9 15  1  0  0  0  0
  9 32  1  0  0  0  0
 10 11  1  0  0  0  0
 10 13  1  0  0  0  0
 10 16  1  0  0  0  0
 10 33  1  0  0  0  0
 11 34  1  0  0  0  0
 11 35  1  0  0  0  0
 12 36  1  0  0  0  0
 12 37  1  0  0  0  0
 13 38  1  0  0  0  0
 13 39  1  0  0  0  0
 14 17  1  0  0  0  0
 14 18  1  0  0  0  0
 14 40  1  0  0  0  0
 15 41  1  0  0  0  0
 15 42  1  0  0  0  0
 16 21  2  0  0  0  0
 17 19  1  0  0  0  0
 17 43  1  0  0  0  0
 17 44  1  0  0  0  0
 18 20  1  0  0  0  0
 18 45  1  0  0  0  0
 18 46  1  0  0  0  0
 19 47  1  0  0  0  0
 19 48  1  0  0  0  0
 20 49  1  0  0  0  0
 20 50  1  0  0  0  0
 21 23  1  0  0  0  0
 22 24  1  0  0  0  0
 23 24  2  0  0  0  0
 23 51  1  0  0  0  0
 24 52  1  0  0  0  0
 25 26  1  0  0  0  0
 26 54  1  0  0  0  0
 26 55  1  0  0  0  0
 26 56  1  0  0  0  0
 27 28  1  0  0  0  0
 28 29  2  0  0  0  0
 29 30  1  0  0  0  0
 29 57  1  0  0  0  0
 30 31  2  0  0  0  0
 30 58  1  0  0  0  0
 31 59  1  0  0  0  0
M  END
> <PUBCHEM_COMPOUND_CID>
9424620

> <PUBCHEM_CONFORMER_RMSD>
1

> <PUBCHEM_CONFORMER_DIVERSEORDER>
1
9
8
4
5
10
3
7
2
6

> <PUBCHEM_MMFF94_PARTIAL_CHARGES>
33
1 -0.08
10 0.14
12 0.27
13 0.27
14 0.27
15 0.3
16 -0.03
19 0.3
2 -0.57
20 0.3
21 0.11
22 0.62
23 -0.15
24 -0.14
25 0.57
26 0.06
27 0.71
28 -0.05
29 -0.15
3 -0.57
30 -0.15
31 -0.11
4 -0.57
5 -0.81
51 0.15
52 0.15
53 0.37
57 0.15
58 0.15
59 0.15
6 -0.47
7 -0.66
8 -0.54

> <PUBCHEM_EFFECTIVE_ROTOR_COUNT>
7.2

> <PUBCHEM_PHARMACOPHORE_FEATURES>
10
1 2 acceptor
1 3 acceptor
1 4 acceptor
1 5 cation
1 8 donor
5 1 28 29 30 31 rings
6 5 9 10 11 12 13 rings
6 6 16 21 22 23 24 rings
6 6 9 10 11 15 16 rings
6 7 14 17 18 19 20 rings

> <PUBCHEM_HEAVY_ATOM_COUNT>
31

> <PUBCHEM_ATOM_DEF_STEREO_COUNT>
2

> <PUBCHEM_ATOM_UDEF_STEREO_COUNT>
0

> <PUBCHEM_BOND_DEF_STEREO_COUNT>
0

> <PUBCHEM_BOND_UDEF_STEREO_COUNT>
0

> <PUBCHEM_ISOTOPIC_ATOM_COUNT>
0

> <PUBCHEM_COMPONENT_COUNT>
1

> <PUBCHEM_CACTVS_TAUTO_COUNT>
2

> <PUBCHEM_CONFORMER_ID>
008FCEEC00000001

> <PUBCHEM_MMFF94_ENERGY>
80.3514

> <PUBCHEM_FEATURE_SELFOVERLAP>
52.294

> <PUBCHEM_SHAPE_FINGERPRINT>
10764073 3 16412120179385105489
107951 10 16333013487574215020
11421498 54 18118699935584128193
11513181 2 17611765787261233571
11954058 11 18343022237679267823
12107183 9 17916601838861332723
12128747 34 18270662196529441201
12156800 1 16841110093932495636
12422481 6 17829574565040026856
12623949 98 18337951328553663811
12778500 126 18272100426478641993
13135754 10 17700699454138322432
13533116 47 18197777907428862203
13583140 156 17914312801555089969
13773456 22 18263100862868923590
14251740 57 18263648532009350099
14251764 30 18341618079183140579
14863182 85 18196365042822587832
15219462 58 18052844690933115313
15664445 248 17241045543145732565
17492 54 17241343493875037340
17974551 9 14188703343295564670
1813 80 18259984864422352795
19319366 153 17127879494399477009
20578428 11 16589438699175889503
20771845 140 17975697508582297961
20771845 38 14101087578304851450
20775530 9 18341607058418242182
21315759 227 17981880844561235390
21365058 27 17836930366665427112
21421861 104 18059303170378415689
23466295 7 17697045734250516146
25222932 49 17269472433288081891
3737641 26 18131347480045651578
469060 322 17970925366219541362
5081480 168 17458926902262727297
57527585 21 15649332939527570766
5951187 136 12791488432688487966
6287921 2 18267016331455532203
6823239 73 17168697652663211169
86090 222 18041839631737837507

> <PUBCHEM_SHAPE_MULTIPOLES>
604.28
10.42
4.84
2.79
14.06
0.91
-0.99
14.36
1.61
-4.99
-1.55
-0.79
-1.7
2

> <PUBCHEM_SHAPE_SELFOVERLAP>
1297.529

> <PUBCHEM_SHAPE_VOLUME>
333.4

> <PUBCHEM_COORDINATE_TYPE>
2
5
10

$$$$
