11865883
  -OEChem-12032416123D

 66 70  0     1  0  0  0  0  0999 V2000
   -0.4606    0.8082   -1.4485 O   0  0  0  0  0  0  0  0  0  0  0  0
    2.0905   -3.5499    1.1632 O   0  0  0  0  0  0  0  0  0  0  0  0
   -2.8050    1.2741    0.3869 O   0  0  0  0  0  0  0  0  0  0  0  0
    6.1828   -1.3193   -0.1982 O   0  0  0  0  0  0  0  0  0  0  0  0
   -9.0762    1.0179    1.7667 O   0  0  0  0  0  0  0  0  0  0  0  0
   -2.5569   -0.8112   -0.5855 N   0  0  0  0  0  0  0  0  0  0  0  0
    1.1171   -0.3868   -0.2420 N   0  0  0  0  0  0  0  0  0  0  0  0
    0.1155   -3.1935    0.1165 N   0  0  0  0  0  0  0  0  0  0  0  0
    4.6376    0.4051   -0.0693 N   0  0  0  0  0  0  0  0  0  0  0  0
   -7.4595    1.0477    0.0986 N   0  0  0  0  0  0  0  0  0  0  0  0
   -1.2003   -1.0610   -0.1036 C   0  0  1  0  0  0  0  0  0  0  0  0
   -0.8368   -2.4378   -0.6731 C   0  0  2  0  0  0  0  0  0  0  0  0
    1.4701   -1.2337    0.8988 C   0  0  2  0  0  0  0  0  0  0  0  0
   -2.1934   -3.1229   -0.8086 C   0  0  0  0  0  0  0  0  0  0  0  0
   -3.0873   -1.9835   -1.2771 C   0  0  0  0  0  0  0  0  0  0  0  0
    2.9247   -0.8439    1.2019 C   0  0  0  0  0  0  0  0  0  0  0  0
    3.4645   -0.4136   -0.1619 C   0  0  1  0  0  0  0  0  0  0  0  0
   -0.1732   -0.0916   -0.6620 C   0  0  0  0  0  0  0  0  0  0  0  0
    2.2760    0.3167   -0.7679 C   0  0  0  0  0  0  0  0  0  0  0  0
    1.2931   -2.7416    0.6759 C   0  0  0  0  0  0  0  0  0  0  0  0
   -4.7459    0.2734   -0.5348 C   0  0  0  0  0  0  0  0  0  0  0  0
   -3.2874    0.3012   -0.1960 C   0  0  0  0  0  0  0  0  0  0  0  0
   -5.2532    1.6953   -0.7895 C   0  0  0  0  0  0  0  0  0  0  0  0
   -5.5214   -0.3849    0.6097 C   0  0  0  0  0  0  0  0  0  0  0  0
   -6.7642    1.7112   -1.0114 C   0  0  0  0  0  0  0  0  0  0  0  0
   -7.0260   -0.3264    0.3593 C   0  0  0  0  0  0  0  0  0  0  0  0
    5.9196   -0.1240   -0.0955 C   0  0  0  0  0  0  0  0  0  0  0  0
   -8.4847    1.6086    0.8594 C   0  0  0  0  0  0  0  0  0  0  0  0
    7.0293    0.8547    0.0374 C   0  0  0  0  0  0  0  0  0  0  0  0
   -8.8708    3.0285    0.5307 C   0  0  0  0  0  0  0  0  0  0  0  0
    8.2288    0.4329    0.5722 C   0  0  0  0  0  0  0  0  0  0  0  0
    6.8249    2.1541   -0.3785 C   0  0  0  0  0  0  0  0  0  0  0  0
    9.2709    1.3517    0.6968 C   0  0  0  0  0  0  0  0  0  0  0  0
    7.8671    3.0727   -0.2541 C   0  0  0  0  0  0  0  0  0  0  0  0
    9.0900    2.6715    0.2836 C   0  0  0  0  0  0  0  0  0  0  0  0
   -1.2273   -1.0201    0.9902 H   0  0  0  0  0  0  0  0  0  0  0  0
   -0.3934   -2.3458   -1.6750 H   0  0  0  0  0  0  0  0  0  0  0  0
    0.8373   -0.9674    1.7537 H   0  0  0  0  0  0  0  0  0  0  0  0
   -2.1802   -3.9628   -1.5094 H   0  0  0  0  0  0  0  0  0  0  0  0
   -2.5330   -3.4985    0.1651 H   0  0  0  0  0  0  0  0  0  0  0  0
   -4.1337   -2.1933   -1.0543 H   0  0  0  0  0  0  0  0  0  0  0  0
   -2.9766   -1.8078   -2.3527 H   0  0  0  0  0  0  0  0  0  0  0  0
    3.5289   -1.6350    1.6558 H   0  0  0  0  0  0  0  0  0  0  0  0
    2.9375    0.0090    1.8942 H   0  0  0  0  0  0  0  0  0  0  0  0
    3.6903   -1.3085   -0.7564 H   0  0  0  0  0  0  0  0  0  0  0  0
    2.2708    0.2965   -1.8624 H   0  0  0  0  0  0  0  0  0  0  0  0
    2.2108    1.3623   -0.4437 H   0  0  0  0  0  0  0  0  0  0  0  0
    0.0253   -4.2038    0.0634 H   0  0  0  0  0  0  0  0  0  0  0  0
   -4.9151   -0.2787   -1.4655 H   0  0  0  0  0  0  0  0  0  0  0  0
   -5.0237    2.3439    0.0663 H   0  0  0  0  0  0  0  0  0  0  0  0
   -4.7455    2.1296   -1.6593 H   0  0  0  0  0  0  0  0  0  0  0  0
   -5.2139   -1.4263    0.7535 H   0  0  0  0  0  0  0  0  0  0  0  0
   -5.2950    0.1333    1.5516 H   0  0  0  0  0  0  0  0  0  0  0  0
    4.4946    1.3886    0.1337 H   0  0  0  0  0  0  0  0  0  0  0  0
   -7.0993    2.7407   -1.1482 H   0  0  0  0  0  0  0  0  0  0  0  0
   -7.0211    1.1642   -1.9265 H   0  0  0  0  0  0  0  0  0  0  0  0
   -7.5591   -0.7474    1.2175 H   0  0  0  0  0  0  0  0  0  0  0  0
   -7.2924   -0.9267   -0.5186 H   0  0  0  0  0  0  0  0  0  0  0  0
   -9.6747    3.3511    1.1995 H   0  0  0  0  0  0  0  0  0  0  0  0
   -9.2368    3.0927   -0.4974 H   0  0  0  0  0  0  0  0  0  0  0  0
   -8.0176    3.6960    0.6777 H   0  0  0  0  0  0  0  0  0  0  0  0
    8.3843   -0.5896    0.9032 H   0  0  0  0  0  0  0  0  0  0  0  0
    5.9015    2.4972   -0.8333 H   0  0  0  0  0  0  0  0  0  0  0  0
   10.2230    1.0398    1.1163 H   0  0  0  0  0  0  0  0  0  0  0  0
    7.7296    4.0987   -0.5829 H   0  0  0  0  0  0  0  0  0  0  0  0
    9.9020    3.3865    0.3791 H   0  0  0  0  0  0  0  0  0  0  0  0
  1 18  2  0  0  0  0
  2 20  2  0  0  0  0
  3 22  2  0  0  0  0
  4 27  2  0  0  0  0
  5 28  2  0  0  0  0
  6 11  1  0  0  0  0
  6 15  1  0  0  0  0
  6 22  1  0  0  0  0
  7 13  1  0  0  0  0
  7 18  1  0  0  0  0
  7 19  1  0  0  0  0
  8 12  1  0  0  0  0
  8 20  1  0  0  0  0
  8 48  1  0  0  0  0
  9 17  1  0  0  0  0
  9 27  1  0  0  0  0
  9 54  1  0  0  0  0
 10 25  1  0  0  0  0
 10 26  1  0  0  0  0
 10 28  1  0  0  0  0
 11 12  1  0  0  0  0
 11 18  1  0  0  0  0
 11 36  1  0  0  0  0
 12 14  1  0  0  0  0
 12 37  1  0  0  0  0
 13 16  1  0  0  0  0
 13 20  1  0  0  0  0
 13 38  1  0  0  0  0
 14 15  1  0  0  0  0
 14 39  1  0  0  0  0
 14 40  1  0  0  0  0
 15 41  1  0  0  0  0
 15 42  1  0  0  0  0
 16 17  1  0  0  0  0
 16 43  1  0  0  0  0
 16 44  1  0  0  0  0
 17 19  1  0  0  0  0
 17 45  1  0  0  0  0
 19 46  1  0  0  0  0
 19 47  1  0  0  0  0
 21 22  1  0  0  0  0
 21 23  1  0  0  0  0
 21 24  1  0  0  0  0
 21 49  1  0  0  0  0
 23 25  1  0  0  0  0
 23 50  1  0  0  0  0
 23 51  1  0  0  0  0
 24 26  1  0  0  0  0
 24 52  1  0  0  0  0
 24 53  1  0  0  0  0
 25 55  1  0  0  0  0
 25 56  1  0  0  0  0
 26 57  1  0  0  0  0
 26 58  1  0  0  0  0
 27 29  1  0  0  0  0
 28 30  1  0  0  0  0
 29 31  2  0  0  0  0
 29 32  1  0  0  0  0
 30 59  1  0  0  0  0
 30 60  1  0  0  0  0
 30 61  1  0  0  0  0
 31 33  1  0  0  0  0
 31 62  1  0  0  0  0
 32 34  2  0  0  0  0
 32 63  1  0  0  0  0
 33 35  2  0  0  0  0
 33 64  1  0  0  0  0
 34 35  1  0  0  0  0
 34 65  1  0  0  0  0
 35 66  1  0  0  0  0
M  END
> <PUBCHEM_COMPOUND_CID>
11865883

> <PUBCHEM_CONFORMER_RMSD>
1

> <PUBCHEM_CONFORMER_DIVERSEORDER>
1
14
18
17
22
26
16
3
5
9
27
23
21
20
28
12
25
13
11
19
24
7
6
2
4
29
10
8
15

> <PUBCHEM_MMFF94_PARTIAL_CHARGES>
38
1 -0.57
10 -0.66
11 0.36
12 0.3
13 0.36
15 0.3
17 0.3
18 0.57
19 0.3
2 -0.57
20 0.57
21 0.06
22 0.57
25 0.3
26 0.3
27 0.54
28 0.57
29 0.09
3 -0.57
30 0.06
31 -0.15
32 -0.15
33 -0.15
34 -0.15
35 -0.15
4 -0.57
48 0.37
5 -0.57
54 0.37
6 -0.66
62 0.15
63 0.15
64 0.15
65 0.15
66 0.15
7 -0.66
8 -0.73
9 -0.73

> <PUBCHEM_EFFECTIVE_ROTOR_COUNT>
8.6

> <PUBCHEM_PHARMACOPHORE_FEATURES>
12
1 1 acceptor
1 2 acceptor
1 3 acceptor
1 4 acceptor
1 5 acceptor
1 8 donor
1 9 donor
5 6 11 12 14 15 rings
5 7 13 16 17 19 rings
6 10 21 23 24 25 26 rings
6 29 31 32 33 34 35 rings
7 7 8 11 12 13 18 20 rings

> <PUBCHEM_HEAVY_ATOM_COUNT>
35

> <PUBCHEM_ATOM_DEF_STEREO_COUNT>
4

> <PUBCHEM_ATOM_UDEF_STEREO_COUNT>
0

> <PUBCHEM_BOND_DEF_STEREO_COUNT>
0

> <PUBCHEM_BOND_UDEF_STEREO_COUNT>
0

> <PUBCHEM_ISOTOPIC_ATOM_COUNT>
0

> <PUBCHEM_COMPONENT_COUNT>
1

> <PUBCHEM_CACTVS_TAUTO_COUNT>
4

> <PUBCHEM_CONFORMER_ID>
00B50F1B00000001

> <PUBCHEM_MMFF94_ENERGY>
107.7965

> <PUBCHEM_FEATURE_SELFOVERLAP>
60.997

> <PUBCHEM_SHAPE_FINGERPRINT>
10 15 18114179739469071528
10165383 225 18411979156785424984
106641 1 18040436603360361777
10904742 90 18410009944434923602
11135926 11 18114452422642953118
11411753 29 15840693249534638495
11578821 258 18271526498030675448
12013929 94 18412546544832980931
12098696 120 18334575715743909532
12539765 74 18059861636011577070
12838862 33 18336530673172178605
12838863 1 10737290160482399689
13383668 1 10737279173312738505
13740195 50 18261394494522523923
14040222 383 18339073916544849339
14394314 77 18335136513992717828
15064986 266 18188777279579552914
15247644 1 14129059222845687569
1577012 14 18410284835691116606
15840311 113 18336550430644135110
16126227 98 18411418423267145949
16728433 281 15624554341975379033
16992610 120 18335714857994645166
18603816 31 13334746764875739097
19302320 297 17967817176193093268
19315958 150 18342179942883863094
2026 5 9223230750276134945
20505436 4 18412820283329334623
212700 22 10015865371204173236
21756936 100 18335698390341822295
21781055 127 17417813877103451378
21792961 116 10879994666813277461
22224240 67 18040151825137290034
23576562 1 15051151510868758177
23729398 52 18124038918945777150
24771293 8 18409728478411989101
3178227 256 18186525405712083068
3711267 37 18342749498434435649
406291 66 8718826487591575369
4073 2 18188208832094334170
4516262 110 18334846204320988127
5080951 261 16009305543328160515
5718773 13 9295291646747540518
5758199 1 18408322189706657746
59682541 35 17603588529973819505
6081469 158 10519990353105929802
9953998 17 17385444341133992227
9962374 69 11530771430879953528

> <PUBCHEM_SHAPE_MULTIPOLES>
666.03
30.62
3.51
1.09
9.46
1.21
-0.08
-34.88
-7.29
0.25
-0.16
-1.08
0.09
-1.46

> <PUBCHEM_SHAPE_SELFOVERLAP>
1433.572

> <PUBCHEM_SHAPE_VOLUME>
361.2

> <PUBCHEM_COORDINATE_TYPE>
2
5
10

$$$$
