51136847
  -OEChem-12032416223D

 62 66  0     1  0  0  0  0  0999 V2000
   -2.8260   -1.5554    1.9958 O   0  0  0  0  0  0  0  0  0  0  0  0
   -0.1866    3.7268    0.5682 O   0  0  0  0  0  0  0  0  0  0  0  0
   -4.6218   -0.5160   -1.0373 N   0  0  1  0  0  0  0  0  0  0  0  0
    4.4509   -0.5382   -0.0680 N   0  0  0  0  0  0  0  0  0  0  0  0
    7.1676   -0.0167   -0.7800 N   0  0  0  0  0  0  0  0  0  0  0  0
   -1.8900   -1.1076    0.0109 N   0  0  0  0  0  0  0  0  0  0  0  0
   -1.4465   -1.4760    2.2248 N   0  0  0  0  0  0  0  0  0  0  0  0
    2.2099   -0.5957   -0.8285 N   0  0  0  0  0  0  0  0  0  0  0  0
   -4.4270   -1.3583    0.1597 C   0  0  1  0  0  0  0  0  0  0  0  0
   -4.8717   -2.7665   -0.2764 C   0  0  0  0  0  0  0  0  0  0  0  0
   -5.3563   -2.6044   -1.7101 C   0  0  0  0  0  0  0  0  0  0  0  0
   -5.7039   -1.1325   -1.8050 C   0  0  0  0  0  0  0  0  0  0  0  0
   -4.9007    0.8785   -0.7192 C   0  0  0  0  0  0  0  0  0  0  0  0
   -3.0008   -1.3268    0.6678 C   0  0  0  0  0  0  0  0  0  0  0  0
   -3.6462    1.6372   -0.3763 C   0  0  0  0  0  0  0  0  0  0  0  0
    4.9500   -0.9185   -1.3955 C   0  0  0  0  0  0  0  0  0  0  0  0
    5.1952    0.5289    0.6077 C   0  0  0  0  0  0  0  0  0  0  0  0
    6.4589   -1.1693   -1.3500 C   0  0  0  0  0  0  0  0  0  0  0  0
    6.6968    0.2322    0.5878 C   0  0  0  0  0  0  0  0  0  0  0  0
   -0.9637   -1.2092    1.0077 C   0  0  0  0  0  0  0  0  0  0  0  0
    3.0867   -0.7065    0.1945 C   0  0  0  0  0  0  0  0  0  0  0  0
   -3.5243    2.2590    0.8663 C   0  0  0  0  0  0  0  0  0  0  0  0
   -2.6055    1.7176   -1.3016 C   0  0  0  0  0  0  0  0  0  0  0  0
    8.6119   -0.2455   -0.7919 C   0  0  0  0  0  0  0  0  0  0  0  0
    0.4368   -1.0401    0.7537 C   0  0  0  0  0  0  0  0  0  0  0  0
    2.7214   -0.9778    1.5032 C   0  0  0  0  0  0  0  0  0  0  0  0
    1.3691   -1.1465    1.7799 C   0  0  0  0  0  0  0  0  0  0  0  0
   -2.3618    2.9615    1.1837 C   0  0  0  0  0  0  0  0  0  0  0  0
   -1.4431    2.4202   -0.9844 C   0  0  0  0  0  0  0  0  0  0  0  0
    0.9043   -0.7659   -0.5214 C   0  0  0  0  0  0  0  0  0  0  0  0
   -1.3213    3.0421    0.2582 C   0  0  0  0  0  0  0  0  0  0  0  0
    0.8377    3.7692   -0.4243 C   0  0  0  0  0  0  0  0  0  0  0  0
   -5.0921   -1.0374    0.9738 H   0  0  0  0  0  0  0  0  0  0  0  0
   -4.0784   -3.5195   -0.2167 H   0  0  0  0  0  0  0  0  0  0  0  0
   -5.7028   -3.1026    0.3556 H   0  0  0  0  0  0  0  0  0  0  0  0
   -4.5464   -2.8521   -2.4075 H   0  0  0  0  0  0  0  0  0  0  0  0
   -6.2087   -3.2523   -1.9345 H   0  0  0  0  0  0  0  0  0  0  0  0
   -6.6847   -0.9431   -1.3506 H   0  0  0  0  0  0  0  0  0  0  0  0
   -5.7201   -0.7894   -2.8440 H   0  0  0  0  0  0  0  0  0  0  0  0
   -5.3293    1.3826   -1.5970 H   0  0  0  0  0  0  0  0  0  0  0  0
   -5.6570    0.9720    0.0711 H   0  0  0  0  0  0  0  0  0  0  0  0
    4.7201   -0.1239   -2.1169 H   0  0  0  0  0  0  0  0  0  0  0  0
    4.4604   -1.8371   -1.7427 H   0  0  0  0  0  0  0  0  0  0  0  0
    4.8833    0.6441    1.6519 H   0  0  0  0  0  0  0  0  0  0  0  0
    4.9923    1.4831    0.1044 H   0  0  0  0  0  0  0  0  0  0  0  0
    6.6627   -2.0770   -0.7659 H   0  0  0  0  0  0  0  0  0  0  0  0
    6.8064   -1.3552   -2.3736 H   0  0  0  0  0  0  0  0  0  0  0  0
    7.2219    1.0960    1.0134 H   0  0  0  0  0  0  0  0  0  0  0  0
    6.9087   -0.6301    1.2344 H   0  0  0  0  0  0  0  0  0  0  0  0
   -4.3260    2.2025    1.5977 H   0  0  0  0  0  0  0  0  0  0  0  0
   -2.6882    1.2416   -2.2752 H   0  0  0  0  0  0  0  0  0  0  0  0
    9.1426    0.6294   -0.4001 H   0  0  0  0  0  0  0  0  0  0  0  0
    8.8994   -1.1190   -0.1955 H   0  0  0  0  0  0  0  0  0  0  0  0
    8.9686   -0.3953   -1.8170 H   0  0  0  0  0  0  0  0  0  0  0  0
    3.4491   -1.0764    2.3021 H   0  0  0  0  0  0  0  0  0  0  0  0
    1.0769   -1.3628    2.8042 H   0  0  0  0  0  0  0  0  0  0  0  0
   -2.2721    3.4428    2.1536 H   0  0  0  0  0  0  0  0  0  0  0  0
   -0.6739    2.4421   -1.7488 H   0  0  0  0  0  0  0  0  0  0  0  0
    0.2385   -0.6675   -1.3737 H   0  0  0  0  0  0  0  0  0  0  0  0
    1.2304    2.7695   -0.6397 H   0  0  0  0  0  0  0  0  0  0  0  0
    0.5009    4.2869   -1.3288 H   0  0  0  0  0  0  0  0  0  0  0  0
    1.6651    4.3546   -0.0101 H   0  0  0  0  0  0  0  0  0  0  0  0
  1  7  1  0  0  0  0
  1 14  1  0  0  0  0
  2 31  1  0  0  0  0
  2 32  1  0  0  0  0
  3  9  1  0  0  0  0
  3 12  1  0  0  0  0
  3 13  1  0  0  0  0
  4 16  1  0  0  0  0
  4 17  1  0  0  0  0
  4 21  1  0  0  0  0
  5 18  1  0  0  0  0
  5 19  1  0  0  0  0
  5 24  1  0  0  0  0
  6 14  2  0  0  0  0
  6 20  1  0  0  0  0
  7 20  2  0  0  0  0
  8 21  2  0  0  0  0
  8 30  1  0  0  0  0
  9 10  1  0  0  0  0
  9 14  1  0  0  0  0
  9 33  1  0  0  0  0
 10 11  1  0  0  0  0
 10 34  1  0  0  0  0
 10 35  1  0  0  0  0
 11 12  1  0  0  0  0
 11 36  1  0  0  0  0
 11 37  1  0  0  0  0
 12 38  1  0  0  0  0
 12 39  1  0  0  0  0
 13 15  1  0  0  0  0
 13 40  1  0  0  0  0
 13 41  1  0  0  0  0
 15 22  2  0  0  0  0
 15 23  1  0  0  0  0
 16 18  1  0  0  0  0
 16 42  1  0  0  0  0
 16 43  1  0  0  0  0
 17 19  1  0  0  0  0
 17 44  1  0  0  0  0
 17 45  1  0  0  0  0
 18 46  1  0  0  0  0
 18 47  1  0  0  0  0
 19 48  1  0  0  0  0
 19 49  1  0  0  0  0
 20 25  1  0  0  0  0
 21 26  1  0  0  0  0
 22 28  1  0  0  0  0
 22 50  1  0  0  0  0
 23 29  2  0  0  0  0
 23 51  1  0  0  0  0
 24 52  1  0  0  0  0
 24 53  1  0  0  0  0
 24 54  1  0  0  0  0
 25 27  1  0  0  0  0
 25 30  2  0  0  0  0
 26 27  2  0  0  0  0
 26 55  1  0  0  0  0
 27 56  1  0  0  0  0
 28 31  2  0  0  0  0
 28 57  1  0  0  0  0
 29 31  1  0  0  0  0
 29 58  1  0  0  0  0
 30 59  1  0  0  0  0
 32 60  1  0  0  0  0
 32 61  1  0  0  0  0
 32 62  1  0  0  0  0
M  END
> <PUBCHEM_COMPOUND_CID>
51136847

> <PUBCHEM_CONFORMER_RMSD>
1

> <PUBCHEM_CONFORMER_DIVERSEORDER>
1
39
160
35
177
195
199
113
18
187
38
110
105
198
111
182
98
23
93
173
34
99
167
121
96
168
179
122
197
79
54
181
14
6
67
50
184
32
112
118
169
30
84
89
142
42
185
123
92
87
53
88
63
15
20
131
153
90
143
176
150
12
44
10
74
140
9
43
78
52
106
124
25
119
97
40
58
127
36
190
171
100
135
200
134
7
149
19
55
5
103
145
13
129
174
128
180
94
17
178
59
70
27
152
148
192
46
21
26
51
125
11
24
8
159
115
196
161
77
73
191
188
183
22
175
57
137
68
157
81
75
189
91
139
170
4
158
126
65
102
101
155
45
31
136
151
82
72
3
83
47
141
163
144
80
64
108
156
71
37
130
194
29
109
86
147
33
138
164
162
16
104
116
154
76
117
120
56
114
61
95
172
62
28
85
193
133
146
186
166
60
49
107
132
66
41
165
48
69
2

> <PUBCHEM_MMFF94_PARTIAL_CHARGES>
37
1 -0.02
12 0.27
13 0.41
14 0.3
15 -0.14
16 0.37
17 0.37
18 0.27
19 0.27
2 -0.36
20 0.46
21 0.41
22 -0.15
23 -0.15
24 0.27
25 0.05
26 -0.15
27 -0.15
28 -0.15
29 -0.15
3 -0.81
30 0.16
31 0.08
32 0.28
4 -0.84
5 -0.81
50 0.15
51 0.15
55 0.15
56 0.15
57 0.15
58 0.15
59 0.15
6 -0.57
7 -0.41
8 -0.62
9 0.45

> <PUBCHEM_EFFECTIVE_ROTOR_COUNT>
8.2

> <PUBCHEM_PHARMACOPHORE_FEATURES>
10
1 2 acceptor
1 3 cation
1 5 cation
3 4 8 21 cation
3 6 7 20 cation
5 1 6 7 14 20 rings
5 3 9 10 11 12 rings
6 15 22 23 28 29 31 rings
6 4 5 16 17 18 19 rings
6 8 21 25 26 27 30 rings

> <PUBCHEM_HEAVY_ATOM_COUNT>
32

> <PUBCHEM_ATOM_DEF_STEREO_COUNT>
1

> <PUBCHEM_ATOM_UDEF_STEREO_COUNT>
0

> <PUBCHEM_BOND_DEF_STEREO_COUNT>
0

> <PUBCHEM_BOND_UDEF_STEREO_COUNT>
0

> <PUBCHEM_ISOTOPIC_ATOM_COUNT>
0

> <PUBCHEM_COMPONENT_COUNT>
1

> <PUBCHEM_CACTVS_TAUTO_COUNT>
1

> <PUBCHEM_CONFORMER_ID>
030C494F00000001

> <PUBCHEM_MMFF94_ENERGY>
88.3382

> <PUBCHEM_FEATURE_SELFOVERLAP>
50.75

> <PUBCHEM_SHAPE_FINGERPRINT>
10454371 7 18410860945450583268
10670039 82 18334294250005680818
11315181 36 17530972414489287302
11477941 20 18341886407206605116
11524674 6 7925914772532597328
11578080 2 17487354654812730519
12107698 1 18411698815980806420
12788726 201 18260822666307264299
13782708 43 17775288236246082254
13947920 75 18334856104025309110
14931854 50 18114450198313682135
15183329 4 18041280968509591946
15419008 47 18060414725374188384
15876981 60 18410018736406974573
15968369 153 18129652115269099936
16067689 302 17976259363735842115
17492 54 18041266674662998533
18336668 15 17894638053812763261
20721686 56 18337390569218283736
20775438 99 17333343093663240039
21236236 1 18335144167935201224
21344244 246 17907849962216108927
21927370 108 18336842965082245475
22122407 14 14707216517538121990
23516275 100 18120923160996957936
23559900 14 17896878957579066501
255183 451 17980754159012994463
354706 132 18191876635128072196
469060 322 17096675173967075105
484985 159 13326560831886827421
484989 97 17678178407451078139
497634 4 17418382388886156643
5171179 24 18270675493062452737
531348 171 18200316494176145686
5969126 39 18343301478739727926
6009941 240 11891330950645875790
6608658 132 18334851688803943814

> <PUBCHEM_SHAPE_MULTIPOLES>
616.92
17.18
3.68
1.71
32.99
3.85
0.28
-7.5
-8.01
-5.13
0.04
-0.61
-0.7
-0.43

> <PUBCHEM_SHAPE_SELFOVERLAP>
1330.074

> <PUBCHEM_SHAPE_VOLUME>
340.8

> <PUBCHEM_COORDINATE_TYPE>
2
5
10

$$$$
