45361526
  -OEChem-12032416313D

 74 77  0     1  0  0  0  0  0999 V2000
   -0.4495    2.3791   -0.7828 O   0  0  0  0  0  0  0  0  0  0  0  0
   -5.5998    2.2212    0.6387 O   0  0  0  0  0  0  0  0  0  0  0  0
    4.7288   -2.1080   -0.2533 O   0  0  0  0  0  0  0  0  0  0  0  0
    3.8323   -0.3971    1.0339 N   0  0  0  0  0  0  0  0  0  0  0  0
   -4.8104    1.3660   -1.3677 N   0  0  0  0  0  0  0  0  0  0  0  0
   -7.2589   -0.6708   -0.3986 N   0  0  0  0  0  0  0  0  0  0  0  0
   -0.4365   -0.6578    1.5307 C   0  0  1  0  0  0  0  0  0  0  0  0
    0.0933    0.3524    0.4593 C   0  0  2  0  0  0  0  0  0  0  0  0
    1.6133    0.6713    0.6950 C   0  0  1  0  0  0  0  0  0  0  0  0
   -0.8397    1.5921    0.3435 C   0  0  2  0  0  0  0  0  0  0  0  0
   -1.9002   -1.0367    1.2035 C   0  0  0  0  0  0  0  0  0  0  0  0
    0.4097   -1.9504    1.4669 C   0  0  0  0  0  0  0  0  0  0  0  0
   -2.3198    1.2037    0.1199 C   0  0  1  0  0  0  0  0  0  0  0  0
    2.4442   -0.6426    0.7037 C   0  0  2  0  0  0  0  0  0  0  0  0
   -2.8243    0.1715    1.1283 C   0  0  0  0  0  0  0  0  0  0  0  0
    1.8982   -1.7004    1.6625 C   0  0  0  0  0  0  0  0  0  0  0  0
   -0.3809   -0.0822    2.9686 C   0  0  0  0  0  0  0  0  0  0  0  0
   -3.2393    2.4309    0.1394 C   0  0  2  0  0  0  0  0  0  0  0  0
    2.2077    1.6386   -0.3425 C   0  0  0  0  0  0  0  0  0  0  0  0
   -3.1261    3.1503    1.4789 C   0  0  0  0  0  0  0  0  0  0  0  0
   -4.6771    2.0078   -0.1450 C   0  0  0  0  0  0  0  0  0  0  0  0
    4.8662   -1.1626    0.5187 C   0  0  0  0  0  0  0  0  0  0  0  0
    6.2136   -0.6840    1.0243 C   0  0  0  0  0  0  0  0  0  0  0  0
   -6.0765    0.8714   -1.8565 C   0  0  0  0  0  0  0  0  0  0  0  0
    7.1410   -0.2412   -0.0765 C   0  0  0  0  0  0  0  0  0  0  0  0
   -6.3505   -0.5291   -1.3898 C   0  0  0  0  0  0  0  0  0  0  0  0
    8.0028   -1.1609   -0.6741 C   0  0  0  0  0  0  0  0  0  0  0  0
    7.1383    1.0882   -0.4985 C   0  0  0  0  0  0  0  0  0  0  0  0
   -5.6775   -1.5856   -1.9820 C   0  0  0  0  0  0  0  0  0  0  0  0
    8.8620   -0.7511   -1.6938 C   0  0  0  0  0  0  0  0  0  0  0  0
    7.9973    1.4981   -1.5180 C   0  0  0  0  0  0  0  0  0  0  0  0
    8.8592    0.5784   -2.1157 C   0  0  0  0  0  0  0  0  0  0  0  0
   -5.9549   -2.8702   -1.5279 C   0  0  0  0  0  0  0  0  0  0  0  0
   -7.5024   -1.9340    0.0167 C   0  0  0  0  0  0  0  0  0  0  0  0
   -6.8836   -3.0563   -0.5099 C   0  0  0  0  0  0  0  0  0  0  0  0
    0.0494   -0.1526   -0.5192 H   0  0  0  0  0  0  0  0  0  0  0  0
    1.7253    1.1628    1.6698 H   0  0  0  0  0  0  0  0  0  0  0  0
   -0.6926    2.2043    1.2348 H   0  0  0  0  0  0  0  0  0  0  0  0
   -2.2878   -1.7386    1.9531 H   0  0  0  0  0  0  0  0  0  0  0  0
   -1.9391   -1.5655    0.2414 H   0  0  0  0  0  0  0  0  0  0  0  0
    0.0651   -2.6680    2.2223 H   0  0  0  0  0  0  0  0  0  0  0  0
    0.2656   -2.4376    0.4931 H   0  0  0  0  0  0  0  0  0  0  0  0
   -2.3698    0.7370   -0.8730 H   0  0  0  0  0  0  0  0  0  0  0  0
    2.4145   -1.0661   -0.3098 H   0  0  0  0  0  0  0  0  0  0  0  0
   -3.8176   -0.1963    0.8461 H   0  0  0  0  0  0  0  0  0  0  0  0
   -2.9317    0.5819    2.1345 H   0  0  0  0  0  0  0  0  0  0  0  0
    2.0980   -1.4089    2.7009 H   0  0  0  0  0  0  0  0  0  0  0  0
    2.4368   -2.6460    1.5181 H   0  0  0  0  0  0  0  0  0  0  0  0
    0.6377    0.1361    3.2993 H   0  0  0  0  0  0  0  0  0  0  0  0
   -0.8023   -0.7965    3.6857 H   0  0  0  0  0  0  0  0  0  0  0  0
   -0.9448    0.8493    3.0690 H   0  0  0  0  0  0  0  0  0  0  0  0
   -2.9516    3.1307   -0.6557 H   0  0  0  0  0  0  0  0  0  0  0  0
    1.8208    2.6521   -0.2046 H   0  0  0  0  0  0  0  0  0  0  0  0
    3.2947    1.7261   -0.2450 H   0  0  0  0  0  0  0  0  0  0  0  0
    1.9927    1.3075   -1.3637 H   0  0  0  0  0  0  0  0  0  0  0  0
    4.0330    0.3264    1.7179 H   0  0  0  0  0  0  0  0  0  0  0  0
   -0.5223    1.8252   -1.5787 H   0  0  0  0  0  0  0  0  0  0  0  0
   -2.1339    3.5695    1.6594 H   0  0  0  0  0  0  0  0  0  0  0  0
   -3.8083    4.0108    1.4817 H   0  0  0  0  0  0  0  0  0  0  0  0
   -3.4202    2.5453    2.3396 H   0  0  0  0  0  0  0  0  0  0  0  0
   -4.0082    1.2757   -1.9826 H   0  0  0  0  0  0  0  0  0  0  0  0
    6.6646   -1.5140    1.5835 H   0  0  0  0  0  0  0  0  0  0  0  0
    6.1051    0.1279    1.7537 H   0  0  0  0  0  0  0  0  0  0  0  0
   -6.0531    0.9096   -2.9512 H   0  0  0  0  0  0  0  0  0  0  0  0
   -6.8757    1.5429   -1.5222 H   0  0  0  0  0  0  0  0  0  0  0  0
    8.0132   -2.1998   -0.3554 H   0  0  0  0  0  0  0  0  0  0  0  0
    6.4695    1.8131   -0.0419 H   0  0  0  0  0  0  0  0  0  0  0  0
   -4.9543   -1.4294   -2.7753 H   0  0  0  0  0  0  0  0  0  0  0  0
    9.5327   -1.4673   -2.1595 H   0  0  0  0  0  0  0  0  0  0  0  0
    7.9948    2.5331   -1.8471 H   0  0  0  0  0  0  0  0  0  0  0  0
    9.5279    0.8975   -2.9098 H   0  0  0  0  0  0  0  0  0  0  0  0
   -5.4480   -3.7246   -1.9662 H   0  0  0  0  0  0  0  0  0  0  0  0
   -8.2341   -2.0252    0.8126 H   0  0  0  0  0  0  0  0  0  0  0  0
   -7.1152   -4.0485   -0.1400 H   0  0  0  0  0  0  0  0  0  0  0  0
  1 10  1  0  0  0  0
  1 57  1  0  0  0  0
  2 21  2  0  0  0  0
  3 22  2  0  0  0  0
  4 14  1  0  0  0  0
  4 22  1  0  0  0  0
  4 56  1  0  0  0  0
  5 21  1  0  0  0  0
  5 24  1  0  0  0  0
  5 61  1  0  0  0  0
  6 26  1  0  0  0  0
  6 34  2  0  0  0  0
  7  8  1  0  0  0  0
  7 11  1  0  0  0  0
  7 12  1  0  0  0  0
  7 17  1  0  0  0  0
  8  9  1  0  0  0  0
  8 10  1  0  0  0  0
  8 36  1  0  0  0  0
  9 14  1  0  0  0  0
  9 19  1  0  0  0  0
  9 37  1  0  0  0  0
 10 13  1  0  0  0  0
 10 38  1  0  0  0  0
 11 15  1  0  0  0  0
 11 39  1  0  0  0  0
 11 40  1  0  0  0  0
 12 16  1  0  0  0  0
 12 41  1  0  0  0  0
 12 42  1  0  0  0  0
 13 15  1  0  0  0  0
 13 18  1  0  0  0  0
 13 43  1  0  0  0  0
 14 16  1  0  0  0  0
 14 44  1  0  0  0  0
 15 45  1  0  0  0  0
 15 46  1  0  0  0  0
 16 47  1  0  0  0  0
 16 48  1  0  0  0  0
 17 49  1  0  0  0  0
 17 50  1  0  0  0  0
 17 51  1  0  0  0  0
 18 20  1  0  0  0  0
 18 21  1  0  0  0  0
 18 52  1  0  0  0  0
 19 53  1  0  0  0  0
 19 54  1  0  0  0  0
 19 55  1  0  0  0  0
 20 58  1  0  0  0  0
 20 59  1  0  0  0  0
 20 60  1  0  0  0  0
 22 23  1  0  0  0  0
 23 25  1  0  0  0  0
 23 62  1  0  0  0  0
 23 63  1  0  0  0  0
 24 26  1  0  0  0  0
 24 64  1  0  0  0  0
 24 65  1  0  0  0  0
 25 27  2  0  0  0  0
 25 28  1  0  0  0  0
 26 29  2  0  0  0  0
 27 30  1  0  0  0  0
 27 66  1  0  0  0  0
 28 31  2  0  0  0  0
 28 67  1  0  0  0  0
 29 33  1  0  0  0  0
 29 68  1  0  0  0  0
 30 32  2  0  0  0  0
 30 69  1  0  0  0  0
 31 32  1  0  0  0  0
 31 70  1  0  0  0  0
 32 71  1  0  0  0  0
 33 35  2  0  0  0  0
 33 72  1  0  0  0  0
 34 35  1  0  0  0  0
 34 73  1  0  0  0  0
 35 74  1  0  0  0  0
M  END
> <PUBCHEM_COMPOUND_CID>
45361526

> <PUBCHEM_CONFORMER_RMSD>
1.4

> <PUBCHEM_CONFORMER_DIVERSEORDER>
1
61
29
23
45
97
49
86
20
96
19
93
47
101
64
100
106
31
70
75
32
56
71
67
24
87
62
44
21
11
95
98
63
35
103
66
34
69
104
27
99
28
4
22
74
89
51
84
92
85
110
77
54
26
46
2
33
40
107
36
17
42
72
82
9
94
78
43
68
105
3
79
48
83
90
30
108
88
18
109
91
10
57
6
14
73
16
41
76
13
12
50
60
102
55
59
80
53
38
15
65
52
58
5
7
25
39
37
81
8

> <PUBCHEM_MMFF94_PARTIAL_CHARGES>
36
1 -0.68
10 0.28
14 0.3
18 0.06
2 -0.57
21 0.57
22 0.57
23 0.2
24 0.44
25 -0.14
26 0.17
27 -0.15
28 -0.15
29 -0.15
3 -0.57
30 -0.15
31 -0.15
32 -0.15
33 -0.15
34 0.16
35 -0.15
4 -0.73
5 -0.73
56 0.37
57 0.4
6 -0.62
61 0.37
66 0.15
67 0.15
68 0.15
69 0.15
70 0.15
71 0.15
72 0.15
73 0.15
74 0.15

> <PUBCHEM_EFFECTIVE_ROTOR_COUNT>
10.6

> <PUBCHEM_PHARMACOPHORE_FEATURES>
12
1 1 acceptor
1 1 donor
1 2 acceptor
1 20 hydrophobe
1 3 acceptor
1 4 donor
1 5 donor
1 6 acceptor
6 25 27 28 30 31 32 rings
6 6 26 29 33 34 35 rings
6 7 8 10 11 13 15 rings
6 7 8 9 12 14 16 rings

> <PUBCHEM_HEAVY_ATOM_COUNT>
35

> <PUBCHEM_ATOM_DEF_STEREO_COUNT>
6

> <PUBCHEM_ATOM_UDEF_STEREO_COUNT>
1

> <PUBCHEM_BOND_DEF_STEREO_COUNT>
0

> <PUBCHEM_BOND_UDEF_STEREO_COUNT>
0

> <PUBCHEM_ISOTOPIC_ATOM_COUNT>
0

> <PUBCHEM_COMPONENT_COUNT>
1

> <PUBCHEM_CACTVS_TAUTO_COUNT>
4

> <PUBCHEM_CONFORMER_ID>
02B4297600000001

> <PUBCHEM_MMFF94_ENERGY>
97.0886

> <PUBCHEM_FEATURE_SELFOVERLAP>
60.912

> <PUBCHEM_SHAPE_FINGERPRINT>
10076449 9 18411982494571321027
10554248 39 17604142624369620322
11007060 377 17675926503697977385
11456790 92 10015577312295156206
11578821 258 14923955548155911902
11621639 254 17748830730221134357
117089 54 18121776399521423015
11973863 73 13470417630086827758
13627175 4 14907913635468885534
13782708 43 17203311334650531611
14444916 359 16200433576205508854
14856354 85 17703786990876027481
15183329 4 18113617868227901980
15461852 350 18411986857994109230
19246450 95 9799700302845578923
20982279 24 15625961841264907110
21033648 29 13912324564778170842
21150785 3 18334855022073150854
21756936 100 11097851896345600627
21781051 124 16989124249863515790
21867018 265 18343303699396569742
21927370 108 16917356934968349513
22288116 15 18410291419538280319
23569914 2 13264084562161495215
23576562 1 17605001492815612086
4169191 19 17167584869243800348
445580 167 18187085061631024292
4567818 161 17532102746691825116
4616759 239 9799686022205908373
484989 97 18335420235580073051
49967989 163 18335140942204863235
504579 68 18334015016970328342
5080951 261 14779844758559401705
54039377 194 18410575133016027927
57366028 249 18115879670540943533
6058803 2 17755569456556689090
9980921 7 16733274559916587908
999808 66 15339116844593498966

> <PUBCHEM_SHAPE_MULTIPOLES>
687.73
27
3.02
2.07
33.89
0.32
0.16
-8.66
-19.89
-5.58
-0.15
0.2
-0.31
-2.5

> <PUBCHEM_SHAPE_SELFOVERLAP>
1449.889

> <PUBCHEM_SHAPE_VOLUME>
381.2

> <PUBCHEM_COORDINATE_TYPE>
2
5
10

$$$$
