75536069
  -OEChem-12032416413D

 44 46  0     1  0  0  0  0  0999 V2000
    1.6049    3.4349   -1.0765 O   0  0  0  0  0  0  0  0  0  0  0  0
    4.0180    2.1262   -1.1359 O   0  0  0  0  0  0  0  0  0  0  0  0
   -0.4476   -0.6963   -1.1534 O   0  0  0  0  0  0  0  0  0  0  0  0
   -5.5322   -0.7083   -1.1801 O   0  0  0  0  0  0  0  0  0  0  0  0
    0.0347    1.0995    0.2329 N   0  0  0  0  0  0  0  0  0  0  0  0
    2.3485   -3.3909    0.8984 N   0  0  0  0  0  0  0  0  0  0  0  0
    2.3211    0.4026    0.8820 C   0  0  2  0  0  0  0  0  0  0  0  0
    1.4332    1.2004   -0.0994 C   0  0  2  0  0  0  0  0  0  0  0  0
    1.9500    2.6319    0.0364 C   0  0  1  0  0  0  0  0  0  0  0  0
    3.6152    1.2389    1.0564 C   0  0  0  0  0  0  0  0  0  0  0  0
    3.4595    2.4468    0.1345 C   0  0  1  0  0  0  0  0  0  0  0  0
    2.5567   -1.0263    0.4400 C   0  0  0  0  0  0  0  0  0  0  0  0
    3.1717   -1.3084   -0.7747 C   0  0  0  0  0  0  0  0  0  0  0  0
    2.1672   -2.0936    1.2330 C   0  0  0  0  0  0  0  0  0  0  0  0
   -0.8008    0.1447   -0.3310 C   0  0  0  0  0  0  0  0  0  0  0  0
    3.3756   -2.6306   -1.1538 C   0  0  0  0  0  0  0  0  0  0  0  0
   -2.2229    0.1895    0.0963 C   0  0  0  0  0  0  0  0  0  0  0  0
    2.9496   -3.6261   -0.2894 C   0  0  0  0  0  0  0  0  0  0  0  0
   -3.2219   -0.2860   -0.7532 C   0  0  0  0  0  0  0  0  0  0  0  0
   -2.5592    0.7073    1.3472 C   0  0  0  0  0  0  0  0  0  0  0  0
   -4.5572   -0.2440   -0.3519 C   0  0  0  0  0  0  0  0  0  0  0  0
   -3.8944    0.7495    1.7485 C   0  0  0  0  0  0  0  0  0  0  0  0
   -4.8934    0.2737    0.8992 C   0  0  0  0  0  0  0  0  0  0  0  0
   -6.8761   -0.6353   -0.7058 C   0  0  0  0  0  0  0  0  0  0  0  0
    1.8277    0.3749    1.8649 H   0  0  0  0  0  0  0  0  0  0  0  0
    1.5519    0.8680   -1.1381 H   0  0  0  0  0  0  0  0  0  0  0  0
    1.5605    3.1055    0.9465 H   0  0  0  0  0  0  0  0  0  0  0  0
    3.6652    1.5843    2.0967 H   0  0  0  0  0  0  0  0  0  0  0  0
    4.5272    0.6680    0.8525 H   0  0  0  0  0  0  0  0  0  0  0  0
    3.9649    3.3420    0.5088 H   0  0  0  0  0  0  0  0  0  0  0  0
   -0.3313    1.7800    0.8897 H   0  0  0  0  0  0  0  0  0  0  0  0
    2.0449    4.2946   -0.9638 H   0  0  0  0  0  0  0  0  0  0  0  0
    4.9709    1.9807   -1.0078 H   0  0  0  0  0  0  0  0  0  0  0  0
    3.5023   -0.5158   -1.4383 H   0  0  0  0  0  0  0  0  0  0  0  0
    1.6814   -1.9404    2.1916 H   0  0  0  0  0  0  0  0  0  0  0  0
    3.8535   -2.8742   -2.0957 H   0  0  0  0  0  0  0  0  0  0  0  0
    3.0855   -4.6734   -0.5385 H   0  0  0  0  0  0  0  0  0  0  0  0
   -2.9743   -0.6881   -1.7326 H   0  0  0  0  0  0  0  0  0  0  0  0
   -1.8121    1.0566    2.0534 H   0  0  0  0  0  0  0  0  0  0  0  0
   -4.1550    1.1456    2.7258 H   0  0  0  0  0  0  0  0  0  0  0  0
   -5.9091    0.3346    1.2748 H   0  0  0  0  0  0  0  0  0  0  0  0
   -7.5187   -1.0465   -1.4912 H   0  0  0  0  0  0  0  0  0  0  0  0
   -7.1906    0.4016   -0.5458 H   0  0  0  0  0  0  0  0  0  0  0  0
   -7.0227   -1.2560    0.1847 H   0  0  0  0  0  0  0  0  0  0  0  0
  1  9  1  0  0  0  0
  1 32  1  0  0  0  0
  2 11  1  0  0  0  0
  2 33  1  0  0  0  0
  3 15  2  0  0  0  0
  4 21  1  0  0  0  0
  4 24  1  0  0  0  0
  5  8  1  0  0  0  0
  5 15  1  0  0  0  0
  5 31  1  0  0  0  0
  6 14  1  0  0  0  0
  6 18  2  0  0  0  0
  7  8  1  0  0  0  0
  7 10  1  0  0  0  0
  7 12  1  0  0  0  0
  7 25  1  0  0  0  0
  8  9  1  0  0  0  0
  8 26  1  0  0  0  0
  9 11  1  0  0  0  0
  9 27  1  0  0  0  0
 10 11  1  0  0  0  0
 10 28  1  0  0  0  0
 10 29  1  0  0  0  0
 11 30  1  0  0  0  0
 12 13  1  0  0  0  0
 12 14  2  0  0  0  0
 13 16  2  0  0  0  0
 13 34  1  0  0  0  0
 14 35  1  0  0  0  0
 15 17  1  0  0  0  0
 16 18  1  0  0  0  0
 16 36  1  0  0  0  0
 17 19  2  0  0  0  0
 17 20  1  0  0  0  0
 18 37  1  0  0  0  0
 19 21  1  0  0  0  0
 19 38  1  0  0  0  0
 20 22  2  0  0  0  0
 20 39  1  0  0  0  0
 21 23  2  0  0  0  0
 22 23  1  0  0  0  0
 22 40  1  0  0  0  0
 23 41  1  0  0  0  0
 24 42  1  0  0  0  0
 24 43  1  0  0  0  0
 24 44  1  0  0  0  0
M  END
> <PUBCHEM_COMPOUND_CID>
75536069

> <PUBCHEM_CONFORMER_RMSD>
0.8

> <PUBCHEM_CONFORMER_DIVERSEORDER>
2
76
15
41
62
74
72
47
32
81
4
70
36
18
60
37
6
82
75
80
1
43
56
28
48
9
61
68
17
77
10
49
42
71
39
63
69
57
5
58
38
67
12
79
3
35
73
22
27
24
64
83
44
46
59
54
55
13
52
11
20
16
78
26
51
29
33
23
25
66
45
19
53
14
30
21
40
31
34
7
65
50
8

> <PUBCHEM_MMFF94_PARTIAL_CHARGES>
34
1 -0.68
11 0.28
12 -0.14
13 -0.15
14 0.16
15 0.54
16 -0.15
17 0.09
18 0.16
19 -0.15
2 -0.68
20 -0.15
21 0.08
22 -0.15
23 -0.15
24 0.28
3 -0.57
31 0.37
32 0.4
33 0.4
34 0.15
35 0.15
36 0.15
37 0.15
38 0.15
39 0.15
4 -0.36
40 0.15
41 0.15
5 -0.73
6 -0.62
7 0.14
8 0.3
9 0.28

> <PUBCHEM_EFFECTIVE_ROTOR_COUNT>
6

> <PUBCHEM_PHARMACOPHORE_FEATURES>
11
1 1 acceptor
1 1 donor
1 2 acceptor
1 2 donor
1 3 acceptor
1 4 acceptor
1 5 donor
1 6 acceptor
5 7 8 9 10 11 rings
6 17 19 20 21 22 23 rings
6 6 12 13 14 16 18 rings

> <PUBCHEM_HEAVY_ATOM_COUNT>
24

> <PUBCHEM_ATOM_DEF_STEREO_COUNT>
4

> <PUBCHEM_ATOM_UDEF_STEREO_COUNT>
0

> <PUBCHEM_BOND_DEF_STEREO_COUNT>
0

> <PUBCHEM_BOND_UDEF_STEREO_COUNT>
0

> <PUBCHEM_ISOTOPIC_ATOM_COUNT>
0

> <PUBCHEM_COMPONENT_COUNT>
1

> <PUBCHEM_CACTVS_TAUTO_COUNT>
2

> <PUBCHEM_CONFORMER_ID>
048096C500000002

> <PUBCHEM_MMFF94_ENERGY>
80.2289

> <PUBCHEM_FEATURE_SELFOVERLAP>
55.834

> <PUBCHEM_SHAPE_FINGERPRINT>
11421498 54 18202290212221719296
114674 6 18259984842742236762
12107183 9 17840315419680884481
12236239 1 18059856199199930537
12553582 1 18194684757122070818
13009979 54 17631458856119767490
13167823 11 18201719540243756699
13533116 47 18272367581918323131
13583140 156 18264491857469363505
14251739 40 18412542107144989181
14863182 85 18411133654588641360
15664445 248 17022913341206317260
17138139 8 17554867129906885151
17349148 13 17632571622649439607
17492 54 18189076277906287030
17492 89 18343019956998775531
17818456 19 17700703865423715753
17844677 252 18336826403878411645
1813 80 18126573314595224758
18681886 176 16486696977542481792
20157964 124 18335695083759660821
20645477 70 18335976515185298727
21054139 6 18056187209932533366
21065198 48 17988646277039736497
21285901 2 17676755531434084581
21344244 78 18129926910811335329
22224240 67 18270949263500408600
2255824 54 18411423908067204298
23557571 272 16009294432020236508
23559900 14 18335420196756302227
23598291 2 18200603500933037849
239999 70 18409165523752493978
25147074 1 17988936544057244641
25222932 49 16485540313127295539
3060560 45 18335986488611446476
312423 11 18130514050315699707
3421961 26 18339921511503515962
3633792 109 18411409589184095421
4409770 3 17039234216894108692
474 4 18337389464804708880
5104073 3 17846504712583912155
5312544 6 18343578573129800343
59682541 52 18262220154951504015
6025842 7 18409444825380294300
7097593 13 18343301444411592601
7970288 3 18053381002888215839
8272917 22 18408601491419471125
960060 61 17968383342601960079
9841814 1 18189048716452613874

> <PUBCHEM_SHAPE_MULTIPOLES>
460.47
11.63
3.59
1.35
20.88
0.98
0.2
2.4
-1.48
-7.06
-0.48
0.35
0.03
-1.05

> <PUBCHEM_SHAPE_SELFOVERLAP>
989.038

> <PUBCHEM_SHAPE_VOLUME>
253.1

> <PUBCHEM_COORDINATE_TYPE>
2
5
10

$$$$
