28959952
  -OEChem-12032416273D

 62 65  0     1  0  0  0  0  0999 V2000
    9.0958   -0.5105   -0.6998 F   0  0  0  0  0  0  0  0  0  0  0  0
   -3.7603   -5.4528    0.0162 O   0  0  0  0  0  0  0  0  0  0  0  0
   -4.0927    2.5299   -2.1631 O   0  0  0  0  0  0  0  0  0  0  0  0
   -5.5457   -4.0445    0.1161 O   0  0  0  0  0  0  0  0  0  0  0  0
   -3.0977    3.6626    0.7890 O   0  0  0  0  0  0  0  0  0  0  0  0
   -4.0563    1.0434   -0.3568 N   0  0  0  0  0  0  0  0  0  0  0  0
    0.8187   -0.0838    0.5176 N   0  0  0  0  0  0  0  0  0  0  0  0
    3.6538   -0.3111    0.2528 N   0  0  0  0  0  0  0  0  0  0  0  0
   -2.9050   -0.7382    0.9381 C   0  0  2  0  0  0  0  0  0  0  0  0
   -3.8739   -1.7696    0.3055 C   0  0  1  0  0  0  0  0  0  0  0  0
   -3.5678    0.6513    0.9728 C   0  0  0  0  0  0  0  0  0  0  0  0
   -1.5394   -0.6595    0.2439 C   0  0  0  0  0  0  0  0  0  0  0  0
   -4.3938   -1.2932   -1.0614 C   0  0  0  0  0  0  0  0  0  0  0  0
   -4.9972    0.1055   -0.9664 C   0  0  0  0  0  0  0  0  0  0  0  0
   -0.4686   -0.1667    1.2066 C   0  0  0  0  0  0  0  0  0  0  0  0
   -3.2717   -3.1701    0.1945 C   0  0  0  0  0  0  0  0  0  0  0  0
    1.4559   -1.4047    0.4561 C   0  0  0  0  0  0  0  0  0  0  0  0
    1.7063    0.8677    1.1975 C   0  0  0  0  0  0  0  0  0  0  0  0
    2.7785   -1.3427   -0.3122 C   0  0  0  0  0  0  0  0  0  0  0  0
    3.0363    1.0060    0.4531 C   0  0  0  0  0  0  0  0  0  0  0  0
   -3.6907    2.2007   -1.0483 C   0  0  0  0  0  0  0  0  0  0  0  0
   -4.3376   -4.2272    0.1080 C   0  0  0  0  0  0  0  0  0  0  0  0
   -2.7439    3.1185   -0.4051 C   0  0  0  0  0  0  0  0  0  0  0  0
    5.0313   -0.3616    0.0120 C   0  0  0  0  0  0  0  0  0  0  0  0
   -1.4997    3.5623   -0.7887 C   0  0  0  0  0  0  0  0  0  0  0  0
    5.5117   -0.9210   -1.1721 C   0  0  0  0  0  0  0  0  0  0  0  0
    5.9239    0.1477    0.9552 C   0  0  0  0  0  0  0  0  0  0  0  0
   -1.0607    4.4350    0.2354 C   0  0  0  0  0  0  0  0  0  0  0  0
    6.8846   -0.9712   -1.4129 C   0  0  0  0  0  0  0  0  0  0  0  0
    7.2969    0.0974    0.7145 C   0  0  0  0  0  0  0  0  0  0  0  0
   -2.0681    4.4624    1.1718 C   0  0  0  0  0  0  0  0  0  0  0  0
    7.7772   -0.4620   -0.4695 C   0  0  0  0  0  0  0  0  0  0  0  0
   -2.7438   -1.0545    1.9780 H   0  0  0  0  0  0  0  0  0  0  0  0
   -4.7420   -1.8195    0.9797 H   0  0  0  0  0  0  0  0  0  0  0  0
   -4.4443    0.6263    1.6326 H   0  0  0  0  0  0  0  0  0  0  0  0
   -2.8834    1.3835    1.3978 H   0  0  0  0  0  0  0  0  0  0  0  0
   -1.5828   -0.0141   -0.6418 H   0  0  0  0  0  0  0  0  0  0  0  0
   -1.2533   -1.6481   -0.1210 H   0  0  0  0  0  0  0  0  0  0  0  0
   -5.1506   -1.9796   -1.4560 H   0  0  0  0  0  0  0  0  0  0  0  0
   -3.5694   -1.2790   -1.7856 H   0  0  0  0  0  0  0  0  0  0  0  0
   -5.2961    0.4469   -1.9626 H   0  0  0  0  0  0  0  0  0  0  0  0
   -5.8980    0.0923   -0.3415 H   0  0  0  0  0  0  0  0  0  0  0  0
   -0.4086   -0.8009    2.1006 H   0  0  0  0  0  0  0  0  0  0  0  0
   -0.7592    0.8316    1.5545 H   0  0  0  0  0  0  0  0  0  0  0  0
   -2.6352   -3.2596   -0.6926 H   0  0  0  0  0  0  0  0  0  0  0  0
   -2.6752   -3.3893    1.0880 H   0  0  0  0  0  0  0  0  0  0  0  0
    0.8174   -2.1332   -0.0540 H   0  0  0  0  0  0  0  0  0  0  0  0
    1.6433   -1.7915    1.4673 H   0  0  0  0  0  0  0  0  0  0  0  0
    1.8933    0.5514    2.2326 H   0  0  0  0  0  0  0  0  0  0  0  0
    1.2387    1.8592    1.2370 H   0  0  0  0  0  0  0  0  0  0  0  0
    3.2531   -2.3300   -0.2509 H   0  0  0  0  0  0  0  0  0  0  0  0
    2.5788   -1.1258   -1.3695 H   0  0  0  0  0  0  0  0  0  0  0  0
    2.8744    1.4800   -0.5237 H   0  0  0  0  0  0  0  0  0  0  0  0
    3.6826    1.6749    1.0327 H   0  0  0  0  0  0  0  0  0  0  0  0
   -4.4288   -6.1683   -0.0424 H   0  0  0  0  0  0  0  0  0  0  0  0
    4.8458   -1.3139   -1.9351 H   0  0  0  0  0  0  0  0  0  0  0  0
    5.5704    0.5745    1.8901 H   0  0  0  0  0  0  0  0  0  0  0  0
   -0.9712    3.2906   -1.6914 H   0  0  0  0  0  0  0  0  0  0  0  0
   -0.1263    4.9750    0.2856 H   0  0  0  0  0  0  0  0  0  0  0  0
    7.2594   -1.4038   -2.3359 H   0  0  0  0  0  0  0  0  0  0  0  0
    7.9924    0.4907    1.4500 H   0  0  0  0  0  0  0  0  0  0  0  0
   -2.1984    4.9725    2.1148 H   0  0  0  0  0  0  0  0  0  0  0  0
  1 32  1  0  0  0  0
  2 22  1  0  0  0  0
  2 55  1  0  0  0  0
  3 21  2  0  0  0  0
  4 22  2  0  0  0  0
  5 23  1  0  0  0  0
  5 31  1  0  0  0  0
  6 11  1  0  0  0  0
  6 14  1  0  0  0  0
  6 21  1  0  0  0  0
  7 15  1  0  0  0  0
  7 17  1  0  0  0  0
  7 18  1  0  0  0  0
  8 19  1  0  0  0  0
  8 20  1  0  0  0  0
  8 24  1  0  0  0  0
  9 10  1  0  0  0  0
  9 11  1  0  0  0  0
  9 12  1  0  0  0  0
  9 33  1  0  0  0  0
 10 13  1  0  0  0  0
 10 16  1  0  0  0  0
 10 34  1  0  0  0  0
 11 35  1  0  0  0  0
 11 36  1  0  0  0  0
 12 15  1  0  0  0  0
 12 37  1  0  0  0  0
 12 38  1  0  0  0  0
 13 14  1  0  0  0  0
 13 39  1  0  0  0  0
 13 40  1  0  0  0  0
 14 41  1  0  0  0  0
 14 42  1  0  0  0  0
 15 43  1  0  0  0  0
 15 44  1  0  0  0  0
 16 22  1  0  0  0  0
 16 45  1  0  0  0  0
 16 46  1  0  0  0  0
 17 19  1  0  0  0  0
 17 47  1  0  0  0  0
 17 48  1  0  0  0  0
 18 20  1  0  0  0  0
 18 49  1  0  0  0  0
 18 50  1  0  0  0  0
 19 51  1  0  0  0  0
 19 52  1  0  0  0  0
 20 53  1  0  0  0  0
 20 54  1  0  0  0  0
 21 23  1  0  0  0  0
 23 25  2  0  0  0  0
 24 26  2  0  0  0  0
 24 27  1  0  0  0  0
 25 28  1  0  0  0  0
 25 58  1  0  0  0  0
 26 29  1  0  0  0  0
 26 56  1  0  0  0  0
 27 30  2  0  0  0  0
 27 57  1  0  0  0  0
 28 31  2  0  0  0  0
 28 59  1  0  0  0  0
 29 32  2  0  0  0  0
 29 60  1  0  0  0  0
 30 32  1  0  0  0  0
 30 61  1  0  0  0  0
 31 62  1  0  0  0  0
M  END
> <PUBCHEM_COMPOUND_CID>
28959952

> <PUBCHEM_CONFORMER_RMSD>
1

> <PUBCHEM_CONFORMER_DIVERSEORDER>
1
58
31
88
102
121
53
28
103
111
61
132
64
120
109
13
124
93
49
39
33
66
96
112
94
62
52
123
90
104
60
63
48
74
9
101
113
107
26
79
15
40
36
46
37
18
67
126
43
51
75
6
50
54
129
57
45
80
136
114
106
131
29
55
68
92
116
76
128
99
25
19
115
78
38
95
105
70
30
41
34
8
72
108
42
11
125
12
127
84
23
27
20
44
16
119
117
47
83
14
110
86
3
89
71
98
56
137
32
24
59
122
4
100
10
22
77
133
73
17
82
5
97
118
7
2
65
134
85
35
87
91
130
21
135
81
69

> <PUBCHEM_MMFF94_PARTIAL_CHARGES>
36
1 -0.19
11 0.3
14 0.3
15 0.27
16 0.06
17 0.27
18 0.27
19 0.37
2 -0.65
20 0.37
21 0.71
22 0.66
23 0.05
24 0.1
25 -0.15
26 -0.15
27 -0.15
28 -0.15
29 -0.15
3 -0.57
30 -0.15
31 -0.01
32 0.19
4 -0.57
5 -0.28
55 0.5
56 0.15
57 0.15
58 0.15
59 0.15
6 -0.66
60 0.15
61 0.15
62 0.15
7 -0.81
8 -0.84

> <PUBCHEM_EFFECTIVE_ROTOR_COUNT>
10.4

> <PUBCHEM_PHARMACOPHORE_FEATURES>
11
1 2 acceptor
1 3 acceptor
1 4 acceptor
1 5 acceptor
1 7 cation
1 8 cation
3 2 4 22 anion
5 5 23 25 28 31 rings
6 24 26 27 29 30 32 rings
6 6 9 10 11 13 14 rings
6 7 8 17 18 19 20 rings

> <PUBCHEM_HEAVY_ATOM_COUNT>
32

> <PUBCHEM_ATOM_DEF_STEREO_COUNT>
2

> <PUBCHEM_ATOM_UDEF_STEREO_COUNT>
0

> <PUBCHEM_BOND_DEF_STEREO_COUNT>
0

> <PUBCHEM_BOND_UDEF_STEREO_COUNT>
0

> <PUBCHEM_ISOTOPIC_ATOM_COUNT>
0

> <PUBCHEM_COMPONENT_COUNT>
1

> <PUBCHEM_CACTVS_TAUTO_COUNT>
1

> <PUBCHEM_CONFORMER_ID>
01B9E4D000000001

> <PUBCHEM_MMFF94_ENERGY>
78.9089

> <PUBCHEM_FEATURE_SELFOVERLAP>
55.882

> <PUBCHEM_SHAPE_FINGERPRINT>
100830 39 18410573972973664974
10290309 65 18046620115226768549
10411042 1 18194684989361456859
10454371 7 18410858720694791564
11049842 53 17690259535630727579
11434127 23 18271803462979411140
11756154 67 18337112371575653571
13690498 29 18410856606927348962
13782708 43 17988924458114426682
13911987 19 18118387472787337269
14068700 675 18187645859568395580
14856354 85 18411984667323639214
15064981 194 18336275578338715909
15183329 4 18040153994749694160
15324884 4 17913459580273044521
15400415 2 17762335821430117624
15419008 47 18131066073745895536
15876981 60 18261680358449279381
16114785 44 18057055605872210513
16992828 155 16951958467010323885
17686467 74 18269551805859820064
19958102 18 18194401083153129830
20101258 96 18263648527840671763
20771845 65 17984990551681616259
20775438 99 17402842030059436047
22956985 138 17616251824877417927
23081809 10 17313099753366284410
255183 451 18050565450568301487
445580 37 18334583395957817908
531348 171 18336266726215712714
57527306 92 15502931910555813685
57527452 28 15913030051001471477
6376802 90 18269847410672552270
6700243 42 17841189728587105190

> <PUBCHEM_SHAPE_MULTIPOLES>
612.85
18.82
5.86
1.27
46.31
0.03
-0.27
-9.55
-4.9
-14.74
0.32
-0.09
0.57
1.44

> <PUBCHEM_SHAPE_SELFOVERLAP>
1297.352

> <PUBCHEM_SHAPE_VOLUME>
342.4

> <PUBCHEM_COORDINATE_TYPE>
2
5
10

$$$$
