28963185
  -OEChem-12032416203D

 69 71  0     1  0  0  0  0  0999 V2000
    6.1354    1.0684    0.6853 S   0  0  0  0  0  0  0  0  0  0  0  0
    0.1863   -0.8197    2.1676 O   0  0  0  0  0  0  0  0  0  0  0  0
   -4.4433   -2.2613   -0.0823 O   0  0  0  0  0  0  0  0  0  0  0  0
    7.3139    0.4449    1.2546 O   0  0  0  0  0  0  0  0  0  0  0  0
    5.3082    1.9557    1.4803 O   0  0  0  0  0  0  0  0  0  0  0  0
    5.1272   -0.1118   -0.0085 N   0  0  0  0  0  0  0  0  0  0  0  0
   -4.0194   -0.1146    0.6870 N   0  0  0  0  0  0  0  0  0  0  0  0
    1.1234   -0.6317   -1.5288 C   0  0  1  0  0  0  0  0  0  0  0  0
    1.2613   -0.4193    0.0159 C   0  0  2  0  0  0  0  0  0  0  0  0
    2.7405   -0.6707    0.4860 C   0  0  1  0  0  0  0  0  0  0  0  0
    0.1685   -1.2087    0.7931 C   0  0  2  0  0  0  0  0  0  0  0  0
   -0.3128   -0.2681   -1.9741 C   0  0  0  0  0  0  0  0  0  0  0  0
   -1.2588   -0.9207    0.2722 C   0  0  1  0  0  0  0  0  0  0  0  0
    2.0971    0.3227   -2.2587 C   0  0  0  0  0  0  0  0  0  0  0  0
    3.7131    0.2411   -0.3097 C   0  0  2  0  0  0  0  0  0  0  0  0
   -1.3822   -1.0694   -1.2440 C   0  0  0  0  0  0  0  0  0  0  0  0
    3.5448    0.1433   -1.8253 C   0  0  0  0  0  0  0  0  0  0  0  0
    1.4227   -2.0910   -1.9562 C   0  0  0  0  0  0  0  0  0  0  0  0
   -2.3054   -1.8061    0.9602 C   0  0  2  0  0  0  0  0  0  0  0  0
    2.9500   -0.4524    1.9934 C   0  0  0  0  0  0  0  0  0  0  0  0
   -1.9900   -3.2777    0.7158 C   0  0  0  0  0  0  0  0  0  0  0  0
   -3.7008   -1.4457    0.4603 C   0  0  0  0  0  0  0  0  0  0  0  0
   -5.2870    0.4634    0.2993 C   0  0  0  0  0  0  0  0  0  0  0  0
    6.6382    1.9678   -0.7639 C   0  0  0  0  0  0  0  0  0  0  0  0
   -5.7101    1.5674    1.2741 C   0  0  0  0  0  0  0  0  0  0  0  0
   -5.2377    0.9833   -1.1413 C   0  0  0  0  0  0  0  0  0  0  0  0
   -4.8597    2.8298    1.1330 C   0  0  0  0  0  0  0  0  0  0  0  0
   -4.3881    2.2467   -1.2785 C   0  0  0  0  0  0  0  0  0  0  0  0
   -4.8352    3.3342   -0.3066 C   0  0  0  0  0  0  0  0  0  0  0  0
    1.0677    0.6462    0.2199 H   0  0  0  0  0  0  0  0  0  0  0  0
    3.0015   -1.7183    0.2898 H   0  0  0  0  0  0  0  0  0  0  0  0
    0.4292   -2.2675    0.7509 H   0  0  0  0  0  0  0  0  0  0  0  0
   -0.4256   -0.4209   -3.0551 H   0  0  0  0  0  0  0  0  0  0  0  0
   -0.4957    0.8004   -1.7962 H   0  0  0  0  0  0  0  0  0  0  0  0
   -1.4668    0.1306    0.5114 H   0  0  0  0  0  0  0  0  0  0  0  0
    1.8049    1.3642   -2.0682 H   0  0  0  0  0  0  0  0  0  0  0  0
    2.0281    0.1789   -3.3445 H   0  0  0  0  0  0  0  0  0  0  0  0
    3.5092    1.2801   -0.0244 H   0  0  0  0  0  0  0  0  0  0  0  0
   -2.3553   -0.7061   -1.5934 H   0  0  0  0  0  0  0  0  0  0  0  0
   -1.3145   -2.1083   -1.5734 H   0  0  0  0  0  0  0  0  0  0  0  0
    3.9282   -0.8164   -2.1925 H   0  0  0  0  0  0  0  0  0  0  0  0
    4.1595    0.9076   -2.3167 H   0  0  0  0  0  0  0  0  0  0  0  0
    2.4513   -2.3932   -1.7435 H   0  0  0  0  0  0  0  0  0  0  0  0
    1.2709   -2.2151   -3.0349 H   0  0  0  0  0  0  0  0  0  0  0  0
    0.7774   -2.8157   -1.4521 H   0  0  0  0  0  0  0  0  0  0  0  0
   -2.2999   -1.6249    2.0427 H   0  0  0  0  0  0  0  0  0  0  0  0
    2.5770    0.5268    2.3105 H   0  0  0  0  0  0  0  0  0  0  0  0
    4.0067   -0.5147    2.2704 H   0  0  0  0  0  0  0  0  0  0  0  0
    2.4553   -1.2324    2.5786 H   0  0  0  0  0  0  0  0  0  0  0  0
    5.5204   -0.9464   -0.4592 H   0  0  0  0  0  0  0  0  0  0  0  0
    0.0131    0.1361    2.2138 H   0  0  0  0  0  0  0  0  0  0  0  0
   -1.9990   -3.5699   -0.3367 H   0  0  0  0  0  0  0  0  0  0  0  0
   -2.7626   -3.8935    1.1951 H   0  0  0  0  0  0  0  0  0  0  0  0
   -1.0477   -3.5961    1.1668 H   0  0  0  0  0  0  0  0  0  0  0  0
   -3.3516    0.4845    1.1603 H   0  0  0  0  0  0  0  0  0  0  0  0
   -6.0364   -0.3366    0.3464 H   0  0  0  0  0  0  0  0  0  0  0  0
    7.3347    2.7484   -0.4497 H   0  0  0  0  0  0  0  0  0  0  0  0
    7.1373    1.2820   -1.4509 H   0  0  0  0  0  0  0  0  0  0  0  0
    5.7618    2.4231   -1.2274 H   0  0  0  0  0  0  0  0  0  0  0  0
   -5.6537    1.2050    2.3077 H   0  0  0  0  0  0  0  0  0  0  0  0
   -6.7596    1.8268    1.0850 H   0  0  0  0  0  0  0  0  0  0  0  0
   -6.2594    1.2100   -1.4722 H   0  0  0  0  0  0  0  0  0  0  0  0
   -4.8515    0.2112   -1.8173 H   0  0  0  0  0  0  0  0  0  0  0  0
   -3.8352    2.6342    1.4706 H   0  0  0  0  0  0  0  0  0  0  0  0
   -5.2601    3.6130    1.7870 H   0  0  0  0  0  0  0  0  0  0  0  0
   -4.4540    2.6227   -2.3058 H   0  0  0  0  0  0  0  0  0  0  0  0
   -3.3336    2.0044   -1.0972 H   0  0  0  0  0  0  0  0  0  0  0  0
   -5.8367    3.6834   -0.5870 H   0  0  0  0  0  0  0  0  0  0  0  0
   -4.1640    4.1969   -0.3839 H   0  0  0  0  0  0  0  0  0  0  0  0
  1  4  2  0  0  0  0
  1  5  2  0  0  0  0
  1  6  1  0  0  0  0
  1 24  1  0  0  0  0
  2 11  1  0  0  0  0
  2 51  1  0  0  0  0
  3 22  2  0  0  0  0
  6 15  1  0  0  0  0
  6 50  1  0  0  0  0
  7 22  1  0  0  0  0
  7 23  1  0  0  0  0
  7 55  1  0  0  0  0
  8  9  1  0  0  0  0
  8 12  1  0  0  0  0
  8 14  1  0  0  0  0
  8 18  1  0  0  0  0
  9 10  1  0  0  0  0
  9 11  1  0  0  0  0
  9 30  1  0  0  0  0
 10 15  1  0  0  0  0
 10 20  1  0  0  0  0
 10 31  1  0  0  0  0
 11 13  1  0  0  0  0
 11 32  1  0  0  0  0
 12 16  1  0  0  0  0
 12 33  1  0  0  0  0
 12 34  1  0  0  0  0
 13 16  1  0  0  0  0
 13 19  1  0  0  0  0
 13 35  1  0  0  0  0
 14 17  1  0  0  0  0
 14 36  1  0  0  0  0
 14 37  1  0  0  0  0
 15 17  1  0  0  0  0
 15 38  1  0  0  0  0
 16 39  1  0  0  0  0
 16 40  1  0  0  0  0
 17 41  1  0  0  0  0
 17 42  1  0  0  0  0
 18 43  1  0  0  0  0
 18 44  1  0  0  0  0
 18 45  1  0  0  0  0
 19 21  1  0  0  0  0
 19 22  1  0  0  0  0
 19 46  1  0  0  0  0
 20 47  1  0  0  0  0
 20 48  1  0  0  0  0
 20 49  1  0  0  0  0
 21 52  1  0  0  0  0
 21 53  1  0  0  0  0
 21 54  1  0  0  0  0
 23 25  1  0  0  0  0
 23 26  1  0  0  0  0
 23 56  1  0  0  0  0
 24 57  1  0  0  0  0
 24 58  1  0  0  0  0
 24 59  1  0  0  0  0
 25 27  1  0  0  0  0
 25 60  1  0  0  0  0
 25 61  1  0  0  0  0
 26 28  1  0  0  0  0
 26 62  1  0  0  0  0
 26 63  1  0  0  0  0
 27 29  1  0  0  0  0
 27 64  1  0  0  0  0
 27 65  1  0  0  0  0
 28 29  1  0  0  0  0
 28 66  1  0  0  0  0
 28 67  1  0  0  0  0
 29 68  1  0  0  0  0
 29 69  1  0  0  0  0
M  END
> <PUBCHEM_COMPOUND_CID>
28963185

> <PUBCHEM_CONFORMER_RMSD>
1

> <PUBCHEM_CONFORMER_DIVERSEORDER>
1
9
64
28
76
57
94
78
47
77
41
91
37
72
90
92
62
51
8
33
95
93
50
35
98
36
80
60
67
107
58
32
106
42
102
101
46
83
43
84
63
54
81
20
88
69
27
100
56
12
86
103
10
52
75
68
21
85
31
6
89
110
44
70
97
4
26
40
23
105
104
73
7
61
109
18
11
45
108
14
55
49
96
53
82
5
65
48
17
39
2
24
22
30
79
25
71
34
15
3
38
19
74
29
87
16
59
99
66
13

> <PUBCHEM_MMFF94_PARTIAL_CHARGES>
16
1 1.33
11 0.28
15 0.36
19 0.06
2 -0.68
22 0.57
23 0.3
24 0.11
3 -0.57
4 -0.65
5 -0.65
50 0.42
51 0.4
55 0.37
6 -0.91
7 -0.73

> <PUBCHEM_EFFECTIVE_ROTOR_COUNT>
8.8

> <PUBCHEM_PHARMACOPHORE_FEATURES>
11
1 2 acceptor
1 2 donor
1 21 hydrophobe
1 3 acceptor
1 4 acceptor
1 5 acceptor
1 6 donor
1 7 donor
6 23 25 26 27 28 29 rings
6 8 9 10 14 15 17 rings
6 8 9 11 12 13 16 rings

> <PUBCHEM_HEAVY_ATOM_COUNT>
29

> <PUBCHEM_ATOM_DEF_STEREO_COUNT>
7

> <PUBCHEM_ATOM_UDEF_STEREO_COUNT>
0

> <PUBCHEM_BOND_DEF_STEREO_COUNT>
0

> <PUBCHEM_BOND_UDEF_STEREO_COUNT>
0

> <PUBCHEM_ISOTOPIC_ATOM_COUNT>
0

> <PUBCHEM_COMPONENT_COUNT>
1

> <PUBCHEM_CACTVS_TAUTO_COUNT>
2

> <PUBCHEM_CONFORMER_ID>
01B9F17100000001

> <PUBCHEM_MMFF94_ENERGY>
66.2116

> <PUBCHEM_FEATURE_SELFOVERLAP>
55.853

> <PUBCHEM_SHAPE_FINGERPRINT>
10042902 136 9727333728855348945
10087517 78 18335138713327157701
105312 117 17775284967369281567
10554248 39 16773806874874433276
10763959 59 17988647428297206624
11393246 34 11242257372492100281
11578080 2 18131078099480367543
11720765 8 17121431541697530647
11796584 16 8213881261809535272
12422481 6 16805880672105899343
12633257 1 17240483654122566150
12788726 201 17681299942194681467
12969540 114 16917065559844061719
13140716 1 15720809124264736090
13257819 101 18131628976217312188
13583140 156 18131070475855816627
13911987 19 16487260979978590319
14466204 15 18187366531964920069
14739800 52 18338789031427136561
14767858 380 14548735118848975732
14950920 106 14635168810609867189
14951699 99 18335989769892854540
15021287 119 16588026813806399524
15238133 3 18261402160807175052
15484559 13 14823527010493359521
17980427 23 18187931723943654212
20739085 24 15575009346429947551
21033648 29 18270977773166141559
22122407 14 18263091075219010120
22393880 68 15554151602724870647
2260408 40 16805604725047491418
23522609 53 16951148234815572548
23559900 14 18267043685902015046
23569914 2 17624645307376013352
23569943 247 16516783911320671642
25122255 55 7925636630450644656
2838139 119 18131624586961643840
3459 39 18261103059031597225
392239 28 17748824137620635164
469060 322 18117306760352105347
5104073 3 17967533441424931019
7226269 152 18334579035827722333
7918774 8 12035447216452632364
8863177 126 11674889917364254328
9849439 229 17976262336291353425
999808 66 13551465948127587728

> <PUBCHEM_SHAPE_MULTIPOLES>
567.22
16.06
2.97
2.06
10.32
0.56
-0.42
13.75
4.15
-4.27
0.35
1.19
-0.06
0.61

> <PUBCHEM_SHAPE_SELFOVERLAP>
1144.235

> <PUBCHEM_SHAPE_VOLUME>
335

> <PUBCHEM_COORDINATE_TYPE>
2
5
10

$$$$
