11886013
  -OEChem-12032416373D

 55 60  0     1  0  0  0  0  0999 V2000
   -5.4061   -0.0502   -0.2536 S   0  0  0  0  0  0  0  0  0  0  0  0
    0.1520   -0.0694   -1.1199 O   0  0  0  0  0  0  0  0  0  0  0  0
   -1.5544   -2.2499    0.2544 O   0  0  0  0  0  0  0  0  0  0  0  0
    1.9544   -1.5412    0.3819 O   0  0  0  0  0  0  0  0  0  0  0  0
    2.3441    0.4245    1.4838 O   0  0  0  0  0  0  0  0  0  0  0  0
   -9.1203    0.1955   -0.5011 O   0  0  0  0  0  0  0  0  0  0  0  0
   -2.9404    0.9903   -0.7442 N   0  0  0  0  0  0  0  0  0  0  0  0
   -2.2906    2.1560   -0.8310 N   0  0  0  0  0  0  0  0  0  0  0  0
   -4.4386    2.4978   -0.3416 N   0  0  0  0  0  0  0  0  0  0  0  0
   -3.2136    3.0773   -0.5837 N   0  0  0  0  0  0  0  0  0  0  0  0
    4.0383   -0.6814    0.3062 N   0  0  0  0  0  0  0  0  0  0  0  0
   -1.5969   -0.8069    0.3097 C   0  0  1  0  0  0  0  0  0  0  0  0
   -0.1607   -0.3244    0.2584 C   0  0  1  0  0  0  0  0  0  0  0  0
   -2.2244   -0.2688   -0.9616 C   0  0  2  0  0  0  0  0  0  0  0  0
    0.6073   -1.5088    0.7953 C   0  0  1  0  0  0  0  0  0  0  0  0
   -1.0365   -0.1889   -1.9150 C   0  0  0  0  0  0  0  0  0  0  0  0
   -0.1843   -2.6741    0.2491 C   0  0  0  0  0  0  0  0  0  0  0  0
   -4.2449    1.2032   -0.4470 C   0  0  0  0  0  0  0  0  0  0  0  0
    2.7583   -0.4979    0.7923 C   0  0  0  0  0  0  0  0  0  0  0  0
   -6.9092    0.9006    0.1217 C   0  0  0  0  0  0  0  0  0  0  0  0
    5.1669    0.1493    0.4907 C   0  0  0  0  0  0  0  0  0  0  0  0
    6.4061   -0.1739   -0.0687 C   0  0  0  0  0  0  0  0  0  0  0  0
   -8.0869   -0.0060    0.3355 C   0  0  0  0  0  0  0  0  0  0  0  0
    4.9881    1.2973    1.2520 C   0  0  0  0  0  0  0  0  0  0  0  0
    7.5007    0.6959    0.1505 C   0  0  0  0  0  0  0  0  0  0  0  0
    6.5935   -1.3330   -0.8393 C   0  0  0  0  0  0  0  0  0  0  0  0
    6.0646    2.1527    1.4673 C   0  0  0  0  0  0  0  0  0  0  0  0
    7.3133    1.8552    0.9208 C   0  0  0  0  0  0  0  0  0  0  0  0
   -8.3160   -1.0037    1.2212 C   0  0  0  0  0  0  0  0  0  0  0  0
    8.7505    0.3810   -0.4072 C   0  0  0  0  0  0  0  0  0  0  0  0
    7.8423   -1.6304   -1.3855 C   0  0  0  0  0  0  0  0  0  0  0  0
    8.9189   -0.7751   -1.1698 C   0  0  0  0  0  0  0  0  0  0  0  0
   -9.6146   -1.4771    0.9167 C   0  0  0  0  0  0  0  0  0  0  0  0
  -10.0610   -0.7155   -0.1382 C   0  0  0  0  0  0  0  0  0  0  0  0
   -2.1139   -0.5291    1.2335 H   0  0  0  0  0  0  0  0  0  0  0  0
   -0.0128    0.6076    0.8102 H   0  0  0  0  0  0  0  0  0  0  0  0
   -2.9562   -0.9615   -1.3920 H   0  0  0  0  0  0  0  0  0  0  0  0
    0.5488   -1.5299    1.8919 H   0  0  0  0  0  0  0  0  0  0  0  0
   -0.9418   -1.1204   -2.4847 H   0  0  0  0  0  0  0  0  0  0  0  0
   -1.0827    0.6360   -2.6322 H   0  0  0  0  0  0  0  0  0  0  0  0
   -0.0756   -3.5748    0.8607 H   0  0  0  0  0  0  0  0  0  0  0  0
    0.1047   -2.9306   -0.7763 H   0  0  0  0  0  0  0  0  0  0  0  0
    4.1563   -1.5217   -0.2475 H   0  0  0  0  0  0  0  0  0  0  0  0
   -7.1118    1.5924   -0.7034 H   0  0  0  0  0  0  0  0  0  0  0  0
   -6.7477    1.4927    1.0291 H   0  0  0  0  0  0  0  0  0  0  0  0
    4.0663    1.6127    1.7144 H   0  0  0  0  0  0  0  0  0  0  0  0
    5.7984   -2.0419   -1.0465 H   0  0  0  0  0  0  0  0  0  0  0  0
    5.9350    3.0532    2.0609 H   0  0  0  0  0  0  0  0  0  0  0  0
    8.1407    2.5382    1.1021 H   0  0  0  0  0  0  0  0  0  0  0  0
   -7.6526   -1.3605    1.9958 H   0  0  0  0  0  0  0  0  0  0  0  0
    9.6059    1.0351   -0.2516 H   0  0  0  0  0  0  0  0  0  0  0  0
    7.9748   -2.5300   -1.9797 H   0  0  0  0  0  0  0  0  0  0  0  0
    9.8908   -1.0072   -1.5954 H   0  0  0  0  0  0  0  0  0  0  0  0
  -10.1574   -2.2733    1.4052 H   0  0  0  0  0  0  0  0  0  0  0  0
  -10.9752   -0.6977   -0.7132 H   0  0  0  0  0  0  0  0  0  0  0  0
  1 18  1  0  0  0  0
  1 20  1  0  0  0  0
  2 13  1  0  0  0  0
  2 16  1  0  0  0  0
  3 12  1  0  0  0  0
  3 17  1  0  0  0  0
  4 15  1  0  0  0  0
  4 19  1  0  0  0  0
  5 19  2  0  0  0  0
  6 23  1  0  0  0  0
  6 34  1  0  0  0  0
  7  8  1  0  0  0  0
  7 14  1  0  0  0  0
  7 18  1  0  0  0  0
  8 10  2  0  0  0  0
  9 10  1  0  0  0  0
  9 18  2  0  0  0  0
 11 19  1  0  0  0  0
 11 21  1  0  0  0  0
 11 43  1  0  0  0  0
 12 13  1  0  0  0  0
 12 14  1  0  0  0  0
 12 35  1  0  0  0  0
 13 15  1  0  0  0  0
 13 36  1  0  0  0  0
 14 16  1  0  0  0  0
 14 37  1  0  0  0  0
 15 17  1  0  0  0  0
 15 38  1  0  0  0  0
 16 39  1  0  0  0  0
 16 40  1  0  0  0  0
 17 41  1  0  0  0  0
 17 42  1  0  0  0  0
 20 23  1  0  0  0  0
 20 44  1  0  0  0  0
 20 45  1  0  0  0  0
 21 22  1  0  0  0  0
 21 24  2  0  0  0  0
 22 25  1  0  0  0  0
 22 26  2  0  0  0  0
 23 29  2  0  0  0  0
 24 27  1  0  0  0  0
 24 46  1  0  0  0  0
 25 28  1  0  0  0  0
 25 30  2  0  0  0  0
 26 31  1  0  0  0  0
 26 47  1  0  0  0  0
 27 28  2  0  0  0  0
 27 48  1  0  0  0  0
 28 49  1  0  0  0  0
 29 33  1  0  0  0  0
 29 50  1  0  0  0  0
 30 32  1  0  0  0  0
 30 51  1  0  0  0  0
 31 32  2  0  0  0  0
 31 52  1  0  0  0  0
 32 53  1  0  0  0  0
 33 34  2  0  0  0  0
 33 54  1  0  0  0  0
 34 55  1  0  0  0  0
M  END
> <PUBCHEM_COMPOUND_CID>
11886013

> <PUBCHEM_CONFORMER_RMSD>
1.2

> <PUBCHEM_CONFORMER_DIVERSEORDER>
1
197
191
194
92
43
292
299
385
353
341
356
149
459
221
365
231
309
358
62
393
407
388
399
434
334
354
270
173
131
307
202
284
224
103
72
30
327
141
454
364
49
109
242
249
245
351
430
107
320
376
436
300
410
305
261
371
73
271
255
162
438
147
74
185
94
214
254
257
97
20
457
34
461
122
54
61
85
403
425
418
182
398
431
333
424
355
44
441
208
112
226
336
444
25
23
275
157
317
51
18
383
263
428
370
466
342
468
190
469
68
184
124
163
236
269
262
148
465
467
110
204
177
121
136
134
9
150
130
285
397
218
79
10
183
378
419
52
207
205
211
452
445
400
169
406
155
133
181
223
463
331
389
126
95
447
387
108
144
215
408
256
143
328
455
427
321
195
63
243
273
423
394
310
294
357
288
350
123
329
470
409
11
56
404
76
58
276
368
405
259
241
146
12
28
379
272
429
384
290
316
13
127
437
281
346
100
48
250
5
81
3
390
392
29
304
322
277
426
449
282
55
201
349
237
200
314
296
36
180
199
67
421
17
189
280
411
66
345
31
337
432
396
295
233
187
375
39
89
359
225
361
106
41
251
253
244
152
168
216
159
239
213
192
139
83
21
340
311
420
235
267
59
360
234
229
374
6
417
460
193
135
137
232
82
116
220
268
164
75
247
198
293
413
401
422
352
440
84
111
395
206
69
132
212
188
318
439
196
77
306
302
93
228
312
105
40
222
366
446
80
38
4
291
210
167
203
90
78
172
7
98
335
166
283
414
369
153
319
8
435
22
238
344
71
326
219
151
286
415
104
156
297
448
102
142
37
65
248
402
2
42
88
57
325
377
179
87
115
412
140
101
381
279
176
186
86
24
289
117
120
265
96
443
372
332
178
16
99
339
174
323
46
209
145
362
14
315
298
464
119
313
165
324
240
227
33
154
386
442
343
382
70
338
347
348
161
456
175
64
35
26
462
274
170
303
391
125
380
118
416
458
53
160
252
450
15
287
45
264
91
230
308
114
129
246
260
32
113
171
330
451
258
128
278
60
433
367
301
27
47
158
266
363
373
138
19
453
217
50

> <PUBCHEM_MMFF94_PARTIAL_CHARGES>
42
1 -0.29
11 -0.55
12 0.28
13 0.28
14 0.26
15 0.28
16 0.28
17 0.28
18 0.24
19 0.78
2 -0.56
20 0.41
21 0.12
23 -0.04
24 -0.15
26 -0.15
27 -0.15
28 -0.15
29 -0.15
3 -0.56
30 -0.15
31 -0.15
32 -0.15
33 -0.15
34 -0.01
4 -0.43
43 0.37
46 0.15
47 0.15
48 0.15
49 0.15
5 -0.57
50 0.15
51 0.15
52 0.15
53 0.15
54 0.15
55 0.15
6 -0.28
7 0.31
8 -0.42
9 -0.34

> <PUBCHEM_EFFECTIVE_ROTOR_COUNT>
9.2

> <PUBCHEM_PHARMACOPHORE_FEATURES>
12
1 11 donor
1 2 acceptor
1 3 acceptor
1 5 acceptor
1 6 acceptor
3 7 9 18 cation
5 2 12 13 14 16 rings
5 3 12 13 15 17 rings
5 6 23 29 33 34 rings
5 7 8 9 10 18 rings
6 21 22 24 25 27 28 rings
6 22 25 26 30 31 32 rings

> <PUBCHEM_HEAVY_ATOM_COUNT>
34

> <PUBCHEM_ATOM_DEF_STEREO_COUNT>
4

> <PUBCHEM_ATOM_UDEF_STEREO_COUNT>
0

> <PUBCHEM_BOND_DEF_STEREO_COUNT>
0

> <PUBCHEM_BOND_UDEF_STEREO_COUNT>
0

> <PUBCHEM_ISOTOPIC_ATOM_COUNT>
0

> <PUBCHEM_COMPONENT_COUNT>
1

> <PUBCHEM_CACTVS_TAUTO_COUNT>
2

> <PUBCHEM_CONFORMER_ID>
00B55DBD00000001

> <PUBCHEM_MMFF94_ENERGY>
87.8397

> <PUBCHEM_FEATURE_SELFOVERLAP>
61.627

> <PUBCHEM_SHAPE_FINGERPRINT>
10 15 18186796985405722123
10076449 9 18273217491215678777
10162869 55 16081091502006139975
106641 1 17458343052708214963
10674148 151 12391509776494702815
10842051 180 15936410026529051393
10883706 142 17603584120044323690
11211813 128 18412827993554642967
12144600 37 18339926991628948423
12202916 173 8142085373009087009
12373685 5 13912326776659850777
12664476 115 18409728474444276784
13740195 50 18113900493865276472
14040221 8 9799693727214459730
150020 25 18410291411238255969
15064986 266 18200310069316456382
15065858 18 10809342252355646905
15183329 4 17060617781435395464
15347591 1 17899127227140331827
15392192 104 16443064998030919186
15530121 191 18410847755564683025
15728490 51 18335419089325113751
15840311 113 18342457083985831752
1754911 235 18343295960403110949
18335252 98 18410013217310850795
18608769 82 18410290337422598267
19611394 137 18115035207498652441
20105231 36 18413672404629442238
21033648 29 18269260414024922056
22224240 67 18040713671653407635
24771293 8 17458628866050443813
2747138 104 18260832605325927681
3092352 35 16774078479916168535
4098825 35 18060134336965830102
59682541 35 18259985994415359899
6523845 18 18273211993451636097
6691757 9 16081380639980065153
6703917 75 18336274478404568578
9689198 14 18202845435623673017

> <PUBCHEM_SHAPE_MULTIPOLES>
649.3
34.15
2.3
1.29
24.8
0.7
0.1
-1.76
-0.87
-0.33
-0.08
-0.73
0.05
3.4

> <PUBCHEM_SHAPE_SELFOVERLAP>
1426.44

> <PUBCHEM_SHAPE_VOLUME>
353.5

> <PUBCHEM_COORDINATE_TYPE>
2
5
10

$$$$
