51136657
  -OEChem-12032416143D

 59 62  0     1  0  0  0  0  0999 V2000
   -4.2939    2.2065   -1.4038 F   0  0  0  0  0  0  0  0  0  0  0  0
    0.8412    3.3361    1.9515 O   0  0  0  0  0  0  0  0  0  0  0  0
    6.2895   -2.7245    0.4782 O   0  0  0  0  0  0  0  0  0  0  0  0
    6.5237   -0.4977    0.0697 O   0  0  0  0  0  0  0  0  0  0  0  0
   -5.0028   -2.0547    1.4466 O   0  0  0  0  0  0  0  0  0  0  0  0
    1.8482    2.0365    0.2869 N   0  0  0  0  0  0  0  0  0  0  0  0
    0.3620   -1.6072   -2.0215 N   0  0  0  0  0  0  0  0  0  0  0  0
    2.2983   -0.1882   -0.7250 C   0  0  2  0  0  0  0  0  0  0  0  0
    3.7245   -0.1312   -0.1204 C   0  0  1  0  0  0  0  0  0  0  0  0
    3.7704    0.7519    1.1382 C   0  0  0  0  0  0  0  0  0  0  0  0
    1.7643    1.2392   -0.9449 C   0  0  0  0  0  0  0  0  0  0  0  0
    3.1873    2.1354    0.8643 C   0  0  0  0  0  0  0  0  0  0  0  0
    1.3022   -1.0072    0.1055 C   0  0  0  0  0  0  0  0  0  0  0  0
    4.3099   -1.5130    0.1693 C   0  0  0  0  0  0  0  0  0  0  0  0
    0.1410   -1.4331   -0.7603 C   0  0  0  0  0  0  0  0  0  0  0  0
    0.7766    2.6728    0.9178 C   0  0  0  0  0  0  0  0  0  0  0  0
   -1.1899   -1.6231   -0.1291 C   0  0  0  0  0  0  0  0  0  0  0  0
    5.8123   -1.4788    0.2245 C   0  0  0  0  0  0  0  0  0  0  0  0
   -2.2986   -1.6326   -0.9850 C   0  0  0  0  0  0  0  0  0  0  0  0
   -2.0753   -1.4391   -2.4555 C   0  0  0  0  0  0  0  0  0  0  0  0
   -0.7514   -2.0793   -2.8516 C   0  0  0  0  0  0  0  0  0  0  0  0
   -0.5530    2.5511    0.3094 C   0  0  0  0  0  0  0  0  0  0  0  0
   -1.3577   -1.7726    1.2488 C   0  0  0  0  0  0  0  0  0  0  0  0
   -3.5825   -1.7670   -0.4495 C   0  0  0  0  0  0  0  0  0  0  0  0
   -2.6425   -1.9219    1.7728 C   0  0  0  0  0  0  0  0  0  0  0  0
   -3.7520   -1.9164    0.9270 C   0  0  0  0  0  0  0  0  0  0  0  0
   -0.7718    3.0170   -0.9871 C   0  0  0  0  0  0  0  0  0  0  0  0
   -1.5979    1.9689    1.0269 C   0  0  0  0  0  0  0  0  0  0  0  0
   -2.0354    2.9009   -1.5659 C   0  0  0  0  0  0  0  0  0  0  0  0
   -2.8617    1.8529    0.4482 C   0  0  0  0  0  0  0  0  0  0  0  0
   -3.0804    2.3190   -0.8482 C   0  0  0  0  0  0  0  0  0  0  0  0
   -5.1047   -2.2008    2.8622 C   0  0  0  0  0  0  0  0  0  0  0  0
    2.4302   -0.6407   -1.7159 H   0  0  0  0  0  0  0  0  0  0  0  0
    4.3541    0.3589   -0.8782 H   0  0  0  0  0  0  0  0  0  0  0  0
    4.7974    0.8660    1.5016 H   0  0  0  0  0  0  0  0  0  0  0  0
    3.1995    0.2756    1.9453 H   0  0  0  0  0  0  0  0  0  0  0  0
    2.3760    1.7551   -1.6956 H   0  0  0  0  0  0  0  0  0  0  0  0
    0.7568    1.1755   -1.3493 H   0  0  0  0  0  0  0  0  0  0  0  0
    3.1691    2.7184    1.7907 H   0  0  0  0  0  0  0  0  0  0  0  0
    3.8135    2.6800    0.1477 H   0  0  0  0  0  0  0  0  0  0  0  0
    0.9637   -0.4352    0.9735 H   0  0  0  0  0  0  0  0  0  0  0  0
    1.7540   -1.9340    0.4733 H   0  0  0  0  0  0  0  0  0  0  0  0
    4.0362   -2.2067   -0.6346 H   0  0  0  0  0  0  0  0  0  0  0  0
    3.9399   -1.9070    1.1223 H   0  0  0  0  0  0  0  0  0  0  0  0
   -2.0606   -0.3642   -2.6716 H   0  0  0  0  0  0  0  0  0  0  0  0
   -2.8861   -1.8917   -3.0370 H   0  0  0  0  0  0  0  0  0  0  0  0
   -0.5344   -1.8363   -3.8976 H   0  0  0  0  0  0  0  0  0  0  0  0
   -0.8083   -3.1729   -2.7827 H   0  0  0  0  0  0  0  0  0  0  0  0
   -0.5140   -1.7907    1.9313 H   0  0  0  0  0  0  0  0  0  0  0  0
   -4.4511   -1.7560   -1.1031 H   0  0  0  0  0  0  0  0  0  0  0  0
    7.2694   -2.7388    0.5214 H   0  0  0  0  0  0  0  0  0  0  0  0
   -2.7062   -2.0368    2.8496 H   0  0  0  0  0  0  0  0  0  0  0  0
    0.0248    3.4927   -1.5538 H   0  0  0  0  0  0  0  0  0  0  0  0
   -1.4396    1.5998    2.0369 H   0  0  0  0  0  0  0  0  0  0  0  0
   -2.2072    3.2668   -2.5738 H   0  0  0  0  0  0  0  0  0  0  0  0
   -3.6761    1.4020    1.0072 H   0  0  0  0  0  0  0  0  0  0  0  0
   -4.6152   -3.1173    3.2086 H   0  0  0  0  0  0  0  0  0  0  0  0
   -4.7393   -1.3108    3.3859 H   0  0  0  0  0  0  0  0  0  0  0  0
   -6.1689   -2.2973    3.1012 H   0  0  0  0  0  0  0  0  0  0  0  0
  1 31  1  0  0  0  0
  2 16  2  0  0  0  0
  3 18  1  0  0  0  0
  3 51  1  0  0  0  0
  4 18  2  0  0  0  0
  5 26  1  0  0  0  0
  5 32  1  0  0  0  0
  6 11  1  0  0  0  0
  6 12  1  0  0  0  0
  6 16  1  0  0  0  0
  7 15  2  0  0  0  0
  7 21  1  0  0  0  0
  8  9  1  0  0  0  0
  8 11  1  0  0  0  0
  8 13  1  0  0  0  0
  8 33  1  0  0  0  0
  9 10  1  0  0  0  0
  9 14  1  0  0  0  0
  9 34  1  0  0  0  0
 10 12  1  0  0  0  0
 10 35  1  0  0  0  0
 10 36  1  0  0  0  0
 11 37  1  0  0  0  0
 11 38  1  0  0  0  0
 12 39  1  0  0  0  0
 12 40  1  0  0  0  0
 13 15  1  0  0  0  0
 13 41  1  0  0  0  0
 13 42  1  0  0  0  0
 14 18  1  0  0  0  0
 14 43  1  0  0  0  0
 14 44  1  0  0  0  0
 15 17  1  0  0  0  0
 16 22  1  0  0  0  0
 17 19  2  0  0  0  0
 17 23  1  0  0  0  0
 19 20  1  0  0  0  0
 19 24  1  0  0  0  0
 20 21  1  0  0  0  0
 20 45  1  0  0  0  0
 20 46  1  0  0  0  0
 21 47  1  0  0  0  0
 21 48  1  0  0  0  0
 22 27  2  0  0  0  0
 22 28  1  0  0  0  0
 23 25  2  0  0  0  0
 23 49  1  0  0  0  0
 24 26  2  0  0  0  0
 24 50  1  0  0  0  0
 25 26  1  0  0  0  0
 25 52  1  0  0  0  0
 27 29  1  0  0  0  0
 27 53  1  0  0  0  0
 28 30  2  0  0  0  0
 28 54  1  0  0  0  0
 29 31  2  0  0  0  0
 29 55  1  0  0  0  0
 30 31  1  0  0  0  0
 30 56  1  0  0  0  0
 32 57  1  0  0  0  0
 32 58  1  0  0  0  0
 32 59  1  0  0  0  0
M  END
> <PUBCHEM_COMPOUND_CID>
51136657

> <PUBCHEM_CONFORMER_RMSD>
1

> <PUBCHEM_CONFORMER_DIVERSEORDER>
1
33
46
53
112
61
43
95
83
9
109
84
74
29
94
37
41
67
16
107
78
63
69
50
108
87
15
5
56
96
80
77
65
45
86
100
12
75
110
39
106
20
26
93
27
13
21
98
76
3
6
88
79
52
81
57
64
14
89
70
72
35
73
90
105
60
38
55
2
104
36
32
34
97
82
85
101
111
51
68
44
7
59
24
99
18
47
30
62
92
58
25
17
42
91
4
71
10
49
40
23
103
102
113
48
54
22
19
28
11
31
8
66

> <PUBCHEM_MMFF94_PARTIAL_CHARGES>
37
1 -0.19
11 0.3
12 0.3
13 0.06
14 0.06
15 0.3
16 0.54
17 0.09
18 0.66
19 -0.14
2 -0.57
20 0.14
21 0.25
22 0.09
23 -0.15
24 -0.15
25 -0.15
26 0.08
27 -0.15
28 -0.15
29 -0.15
3 -0.65
30 -0.15
31 0.19
32 0.28
4 -0.57
49 0.15
5 -0.36
50 0.15
51 0.5
52 0.15
53 0.15
54 0.15
55 0.15
56 0.15
6 -0.66
7 -0.7

> <PUBCHEM_EFFECTIVE_ROTOR_COUNT>
8.6

> <PUBCHEM_PHARMACOPHORE_FEATURES>
10
1 2 acceptor
1 3 acceptor
1 4 acceptor
1 5 acceptor
1 7 acceptor
3 3 4 18 anion
6 17 19 23 24 25 26 rings
6 22 27 28 29 30 31 rings
6 6 8 9 10 11 12 rings
6 7 15 17 19 20 21 rings

> <PUBCHEM_HEAVY_ATOM_COUNT>
32

> <PUBCHEM_ATOM_DEF_STEREO_COUNT>
2

> <PUBCHEM_ATOM_UDEF_STEREO_COUNT>
0

> <PUBCHEM_BOND_DEF_STEREO_COUNT>
0

> <PUBCHEM_BOND_UDEF_STEREO_COUNT>
0

> <PUBCHEM_ISOTOPIC_ATOM_COUNT>
0

> <PUBCHEM_COMPONENT_COUNT>
1

> <PUBCHEM_CACTVS_TAUTO_COUNT>
1

> <PUBCHEM_CONFORMER_ID>
030C489100000001

> <PUBCHEM_MMFF94_ENERGY>
94.6735

> <PUBCHEM_FEATURE_SELFOVERLAP>
50.831

> <PUBCHEM_SHAPE_FINGERPRINT>
10119406 146 17694505841575264358
10190108 129 18120106223877560592
10688039 33 18114749351402149961
10764073 3 18339378391941471745
11135609 12 18334013930069744120
12107698 1 18411417327802968395
12156800 1 18049481142887013341
12422481 6 18270976708188072459
13140716 1 18342741793199237768
13402501 40 18412257307958939837
13583140 156 18411697647544473514
13965767 371 17773047568253813595
14840074 17 17908150128368778333
16728300 4 18262514784554108338
17492 54 18052228749525463557
17980427 23 15913045473537518338
20764821 26 18060131055431682380
22182313 1 17844262743470455958
24893992 56 17895191148277300723
3380486 145 18060419084106337686
35225 105 18121478194590818709
4112364 45 17058399057460373995
513202 73 18410294683792864778
5171179 24 17914872422634257984
6009941 240 18114176372816357926
70251023 43 18125979779926656702

> <PUBCHEM_SHAPE_MULTIPOLES>
617.83
10.31
4.36
2.21
11.82
2.76
-0.4
-7.88
4.38
-1.81
0.29
-2.69
-0.99
2.16

> <PUBCHEM_SHAPE_SELFOVERLAP>
1331.836

> <PUBCHEM_SHAPE_VOLUME>
339.6

> <PUBCHEM_COORDINATE_TYPE>
2
5
10

$$$$
