71693359
  -OEChem-12032416233D

 48 49  0     1  0  0  0  0  0999 V2000
    2.1114   -1.1683   -1.6918 O   0  0  0  0  0  0  0  0  0  0  0  0
    3.7805   -1.0667    2.7098 O   0  0  0  0  0  0  0  0  0  0  0  0
    4.8843    0.8361   -1.6516 O   0  0  0  0  0  0  0  0  0  0  0  0
   -4.9865   -1.1852    0.3213 O   0  0  0  0  0  0  0  0  0  0  0  0
   -7.2326    0.1371    0.3022 O   0  0  0  0  0  0  0  0  0  0  0  0
    3.4286    0.3634    0.1105 N   0  0  0  0  0  0  0  0  0  0  0  0
   -3.6802    0.7110   -0.1794 N   0  0  0  0  0  0  0  0  0  0  0  0
    2.5420   -0.6379    0.7132 C   0  0  1  0  0  0  0  0  0  0  0  0
    1.6432   -1.3257   -0.3481 C   0  0  1  0  0  0  0  0  0  0  0  0
    3.7725    1.5368    0.8994 C   0  0  0  0  0  0  0  0  0  0  0  0
    3.3524   -1.6714    1.5069 C   0  0  0  0  0  0  0  0  0  0  0  0
    4.0238    0.1321   -1.1271 C   0  0  0  0  0  0  0  0  0  0  0  0
    0.2271   -0.7835   -0.3027 C   0  0  0  0  0  0  0  0  0  0  0  0
    3.5190   -1.1207   -1.8022 C   0  0  0  0  0  0  0  0  0  0  0  0
    5.2496    1.5163    1.2724 C   0  0  0  0  0  0  0  0  0  0  0  0
    3.4121    2.8082    0.1418 C   0  0  0  0  0  0  0  0  0  0  0  0
   -0.8384   -1.6393   -0.0234 C   0  0  0  0  0  0  0  0  0  0  0  0
   -0.0099    0.5705   -0.5407 C   0  0  0  0  0  0  0  0  0  0  0  0
   -2.1407   -1.1415    0.0178 C   0  0  0  0  0  0  0  0  0  0  0  0
   -1.3122    1.0684   -0.4995 C   0  0  0  0  0  0  0  0  0  0  0  0
   -2.3776    0.2125   -0.2203 C   0  0  0  0  0  0  0  0  0  0  0  0
   -4.8663    0.0124    0.0817 C   0  0  0  0  0  0  0  0  0  0  0  0
   -6.0822    0.9120    0.0355 C   0  0  0  0  0  0  0  0  0  0  0  0
   -8.4200    0.9235    0.2746 C   0  0  0  0  0  0  0  0  0  0  0  0
    1.8995   -0.1192    1.4379 H   0  0  0  0  0  0  0  0  0  0  0  0
    1.6035   -2.4056   -0.1587 H   0  0  0  0  0  0  0  0  0  0  0  0
    3.1869    1.5245    1.8260 H   0  0  0  0  0  0  0  0  0  0  0  0
    4.2298   -2.0257    0.9579 H   0  0  0  0  0  0  0  0  0  0  0  0
    2.7321   -2.5314    1.7789 H   0  0  0  0  0  0  0  0  0  0  0  0
    3.7718   -1.0739   -2.8658 H   0  0  0  0  0  0  0  0  0  0  0  0
    3.9841   -2.0144   -1.3755 H   0  0  0  0  0  0  0  0  0  0  0  0
    5.5414    0.5652    1.7274 H   0  0  0  0  0  0  0  0  0  0  0  0
    5.4654    2.3102    1.9961 H   0  0  0  0  0  0  0  0  0  0  0  0
    5.9061    1.6835    0.4132 H   0  0  0  0  0  0  0  0  0  0  0  0
    3.5858    3.6859    0.7745 H   0  0  0  0  0  0  0  0  0  0  0  0
    2.3556    2.8137   -0.1418 H   0  0  0  0  0  0  0  0  0  0  0  0
    4.0013    2.9484   -0.7689 H   0  0  0  0  0  0  0  0  0  0  0  0
   -0.6690   -2.6962    0.1646 H   0  0  0  0  0  0  0  0  0  0  0  0
    0.8036    1.2473   -0.7776 H   0  0  0  0  0  0  0  0  0  0  0  0
    4.2904   -1.7325    3.2018 H   0  0  0  0  0  0  0  0  0  0  0  0
   -2.9128   -1.8645    0.2407 H   0  0  0  0  0  0  0  0  0  0  0  0
   -1.4824    2.1248   -0.6909 H   0  0  0  0  0  0  0  0  0  0  0  0
   -3.7698    1.7083   -0.3627 H   0  0  0  0  0  0  0  0  0  0  0  0
   -5.9698    1.6967    0.7920 H   0  0  0  0  0  0  0  0  0  0  0  0
   -6.1510    1.3621   -0.9612 H   0  0  0  0  0  0  0  0  0  0  0  0
   -9.2700    0.2697    0.4872 H   0  0  0  0  0  0  0  0  0  0  0  0
   -8.5593    1.3698   -0.7148 H   0  0  0  0  0  0  0  0  0  0  0  0
   -8.3782    1.7049    1.0394 H   0  0  0  0  0  0  0  0  0  0  0  0
  1  9  1  0  0  0  0
  1 14  1  0  0  0  0
  2 11  1  0  0  0  0
  2 40  1  0  0  0  0
  3 12  2  0  0  0  0
  4 22  2  0  0  0  0
  5 23  1  0  0  0  0
  5 24  1  0  0  0  0
  6  8  1  0  0  0  0
  6 10  1  0  0  0  0
  6 12  1  0  0  0  0
  7 21  1  0  0  0  0
  7 22  1  0  0  0  0
  7 43  1  0  0  0  0
  8  9  1  0  0  0  0
  8 11  1  0  0  0  0
  8 25  1  0  0  0  0
  9 13  1  0  0  0  0
  9 26  1  0  0  0  0
 10 15  1  0  0  0  0
 10 16  1  0  0  0  0
 10 27  1  0  0  0  0
 11 28  1  0  0  0  0
 11 29  1  0  0  0  0
 12 14  1  0  0  0  0
 13 17  2  0  0  0  0
 13 18  1  0  0  0  0
 14 30  1  0  0  0  0
 14 31  1  0  0  0  0
 15 32  1  0  0  0  0
 15 33  1  0  0  0  0
 15 34  1  0  0  0  0
 16 35  1  0  0  0  0
 16 36  1  0  0  0  0
 16 37  1  0  0  0  0
 17 19  1  0  0  0  0
 17 38  1  0  0  0  0
 18 20  2  0  0  0  0
 18 39  1  0  0  0  0
 19 21  2  0  0  0  0
 19 41  1  0  0  0  0
 20 21  1  0  0  0  0
 20 42  1  0  0  0  0
 22 23  1  0  0  0  0
 23 44  1  0  0  0  0
 23 45  1  0  0  0  0
 24 46  1  0  0  0  0
 24 47  1  0  0  0  0
 24 48  1  0  0  0  0
M  END
> <PUBCHEM_COMPOUND_CID>
71693359

> <PUBCHEM_CONFORMER_RMSD>
0.8

> <PUBCHEM_CONFORMER_DIVERSEORDER>
1
23
39
41
29
34
36
2
45
30
6
18
17
25
35
24
11
43
7
16
28
15
21
40
13
37
42
9
10
20
26
22
4
14
27
3
33
44
8
12
38
5
32
19
31

> <PUBCHEM_MMFF94_PARTIAL_CHARGES>
28
1 -0.56
10 0.3
11 0.28
12 0.57
13 -0.14
14 0.34
17 -0.15
18 -0.15
19 -0.15
2 -0.68
20 -0.15
21 0.12
22 0.57
23 0.34
24 0.28
3 -0.57
38 0.15
39 0.15
4 -0.57
40 0.4
41 0.15
42 0.15
43 0.37
5 -0.56
6 -0.66
7 -0.55
8 0.3
9 0.42

> <PUBCHEM_EFFECTIVE_ROTOR_COUNT>
8

> <PUBCHEM_PHARMACOPHORE_FEATURES>
10
1 1 acceptor
1 2 acceptor
1 2 donor
1 3 acceptor
1 4 acceptor
1 5 acceptor
1 7 donor
3 10 15 16 hydrophobe
6 1 6 8 9 12 14 rings
6 13 17 18 19 20 21 rings

> <PUBCHEM_HEAVY_ATOM_COUNT>
24

> <PUBCHEM_ATOM_DEF_STEREO_COUNT>
2

> <PUBCHEM_ATOM_UDEF_STEREO_COUNT>
0

> <PUBCHEM_BOND_DEF_STEREO_COUNT>
0

> <PUBCHEM_BOND_UDEF_STEREO_COUNT>
0

> <PUBCHEM_ISOTOPIC_ATOM_COUNT>
0

> <PUBCHEM_COMPONENT_COUNT>
1

> <PUBCHEM_CACTVS_TAUTO_COUNT>
6

> <PUBCHEM_CONFORMER_ID>
0445F42F00000001

> <PUBCHEM_MMFF94_ENERGY>
70.3991

> <PUBCHEM_FEATURE_SELFOVERLAP>
50.759

> <PUBCHEM_SHAPE_FINGERPRINT>
11724838 91 18341040921725083381
125118 31 18114180779880422637
12730499 353 18059866068481135974
13533116 47 17749385919395478683
13955234 65 17988646268455622222
14251764 18 18260832605974462083
14528608 73 18272933834448192775
15183329 4 11312062062956681291
15475509 35 16588852478593540306
17844677 252 17988655038731049313
20281389 69 18260546694033069805
20397935 70 15285358396790941339
20645477 70 10952048965925350480
21150785 3 14045739352863291137
21344244 78 16515675646328129348
21792934 111 18114451263771798993
221357 26 17703517609867579456
23559900 14 18410584959152154350
239999 70 18413113874613463356
3411729 13 18338795744767487968
34797466 226 17775290460980703357
4340502 62 15864076485395305075
465052 167 12901541334492471192
495365 180 17132109139590631878
5104073 3 18260550018063269291
5374978 207 18261106348786284571

> <PUBCHEM_SHAPE_MULTIPOLES>
454.6
16.5
1.97
1.49
37.01
0.67
-0.36
6.56
-2.4
-2.22
-0.19
-3.06
-0.47
0.26

> <PUBCHEM_SHAPE_SELFOVERLAP>
938.473

> <PUBCHEM_SHAPE_VOLUME>
258.4

> <PUBCHEM_COORDINATE_TYPE>
2
5
10

$$$$
