25313885
  -OEChem-12032416193D

 73 77  0     1  0  0  0  0  0999 V2000
   10.5728    2.4597   -0.8682 F   0  0  0  0  0  0  0  0  0  0  0  0
    1.7948   -2.9011    1.3151 O   0  0  0  0  0  0  0  0  0  0  0  0
   -5.2863    0.3737    2.4039 O   0  0  0  0  0  0  0  0  0  0  0  0
   -2.2303   -2.2200   -2.0912 N   0  0  0  0  0  0  0  0  0  0  0  0
    3.0954   -1.1298    0.5593 N   0  0  0  0  0  0  0  0  0  0  0  0
    5.6663    0.1246    0.1157 N   0  0  0  0  0  0  0  0  0  0  0  0
   -7.3310    1.4907   -0.1611 N   0  0  0  0  0  0  0  0  0  0  0  0
   -4.0111   -0.1772    2.4416 N   0  0  0  0  0  0  0  0  0  0  0  0
   -0.5519   -2.0904    0.3322 C   0  0  1  0  0  0  0  0  0  0  0  0
   -1.9033   -1.3468    0.2102 C   0  0  2  0  0  0  0  0  0  0  0  0
   -0.5507   -3.2903   -0.6300 C   0  0  0  0  0  0  0  0  0  0  0  0
   -2.2418   -1.0199   -1.2540 C   0  0  0  0  0  0  0  0  0  0  0  0
    0.6737   -1.2000    0.0952 C   0  0  0  0  0  0  0  0  0  0  0  0
   -1.9733   -0.0857    1.0722 C   0  0  0  0  0  0  0  0  0  0  0  0
   -0.9349   -2.8955   -2.0553 C   0  0  0  0  0  0  0  0  0  0  0  0
    1.8980   -1.8294    0.7135 C   0  0  0  0  0  0  0  0  0  0  0  0
   -3.3948    0.3035    1.3581 C   0  0  0  0  0  0  0  0  0  0  0  0
    4.3244   -1.6711    1.1337 C   0  0  0  0  0  0  0  0  0  0  0  0
    3.2179    0.1375   -0.1646 C   0  0  0  0  0  0  0  0  0  0  0  0
    5.5495   -1.3260    0.2898 C   0  0  0  0  0  0  0  0  0  0  0  0
    4.4543    0.9371    0.2468 C   0  0  0  0  0  0  0  0  0  0  0  0
   -4.2232    1.1546    0.6064 C   0  0  0  0  0  0  0  0  0  0  0  0
   -6.6938    1.8308    1.1108 C   0  0  0  0  0  0  0  0  0  0  0  0
   -5.4005    1.1648    1.3067 C   0  0  0  0  0  0  0  0  0  0  0  0
   -8.3354    2.5019   -0.5194 C   0  0  0  0  0  0  0  0  0  0  0  0
   -7.9279    0.1493   -0.0943 C   0  0  0  0  0  0  0  0  0  0  0  0
   -8.9770    2.1873   -1.8718 C   0  0  0  0  0  0  0  0  0  0  0  0
   -8.5563   -0.2421   -1.4326 C   0  0  0  0  0  0  0  0  0  0  0  0
   -9.5837    0.7890   -1.8857 C   0  0  0  0  0  0  0  0  0  0  0  0
    6.9039    0.7137   -0.1321 C   0  0  0  0  0  0  0  0  0  0  0  0
    7.8900    0.0027   -0.8161 C   0  0  0  0  0  0  0  0  0  0  0  0
    7.1573    2.0145    0.3037 C   0  0  0  0  0  0  0  0  0  0  0  0
    9.1293    0.5925   -1.0648 C   0  0  0  0  0  0  0  0  0  0  0  0
    8.3968    2.6041    0.0552 C   0  0  0  0  0  0  0  0  0  0  0  0
    9.3828    1.8932   -0.6290 C   0  0  0  0  0  0  0  0  0  0  0  0
   -0.5172   -2.4838    1.3576 H   0  0  0  0  0  0  0  0  0  0  0  0
   -2.6716   -2.0499    0.5690 H   0  0  0  0  0  0  0  0  0  0  0  0
   -1.2713   -4.0342   -0.2637 H   0  0  0  0  0  0  0  0  0  0  0  0
    0.4220   -3.7935   -0.6456 H   0  0  0  0  0  0  0  0  0  0  0  0
   -3.2443   -0.5885   -1.3277 H   0  0  0  0  0  0  0  0  0  0  0  0
   -1.5449   -0.2758   -1.6594 H   0  0  0  0  0  0  0  0  0  0  0  0
    0.5386   -0.2384    0.5973 H   0  0  0  0  0  0  0  0  0  0  0  0
    0.8483   -1.0099   -0.9671 H   0  0  0  0  0  0  0  0  0  0  0  0
   -1.4652    0.7571    0.5876 H   0  0  0  0  0  0  0  0  0  0  0  0
   -1.4641   -0.2545    2.0301 H   0  0  0  0  0  0  0  0  0  0  0  0
   -0.1646   -2.2659   -2.5141 H   0  0  0  0  0  0  0  0  0  0  0  0
   -0.9997   -3.8027   -2.6665 H   0  0  0  0  0  0  0  0  0  0  0  0
   -2.4499   -1.9626   -3.0531 H   0  0  0  0  0  0  0  0  0  0  0  0
    4.2405   -2.7571    1.2474 H   0  0  0  0  0  0  0  0  0  0  0  0
    4.4192   -1.2437    2.1395 H   0  0  0  0  0  0  0  0  0  0  0  0
    2.3272    0.7529   -0.0144 H   0  0  0  0  0  0  0  0  0  0  0  0
    3.2686   -0.1152   -1.2308 H   0  0  0  0  0  0  0  0  0  0  0  0
    6.4334   -1.7316    0.7972 H   0  0  0  0  0  0  0  0  0  0  0  0
    5.4689   -1.8039   -0.6941 H   0  0  0  0  0  0  0  0  0  0  0  0
    4.5037    1.8266   -0.3931 H   0  0  0  0  0  0  0  0  0  0  0  0
    4.3537    1.2712    1.2868 H   0  0  0  0  0  0  0  0  0  0  0  0
   -3.9993    1.6857   -0.3070 H   0  0  0  0  0  0  0  0  0  0  0  0
   -7.3693    1.6406    1.9554 H   0  0  0  0  0  0  0  0  0  0  0  0
   -6.4844    2.9093    1.1384 H   0  0  0  0  0  0  0  0  0  0  0  0
   -7.8630    3.4890   -0.5934 H   0  0  0  0  0  0  0  0  0  0  0  0
   -9.1139    2.5689    0.2520 H   0  0  0  0  0  0  0  0  0  0  0  0
   -8.6904    0.0986    0.6944 H   0  0  0  0  0  0  0  0  0  0  0  0
   -7.1638   -0.5999    0.1451 H   0  0  0  0  0  0  0  0  0  0  0  0
   -8.2215    2.2658   -2.6640 H   0  0  0  0  0  0  0  0  0  0  0  0
   -9.7524    2.9288   -2.0952 H   0  0  0  0  0  0  0  0  0  0  0  0
   -9.0335   -1.2246   -1.3444 H   0  0  0  0  0  0  0  0  0  0  0  0
   -7.7711   -0.3350   -2.1938 H   0  0  0  0  0  0  0  0  0  0  0  0
  -10.4517    0.7598   -1.2156 H   0  0  0  0  0  0  0  0  0  0  0  0
   -9.9439    0.5448   -2.8910 H   0  0  0  0  0  0  0  0  0  0  0  0
    7.7206   -1.0061   -1.1820 H   0  0  0  0  0  0  0  0  0  0  0  0
    6.4180    2.5904    0.8533 H   0  0  0  0  0  0  0  0  0  0  0  0
    9.8964    0.0408   -1.6004 H   0  0  0  0  0  0  0  0  0  0  0  0
    8.5961    3.6154    0.3971 H   0  0  0  0  0  0  0  0  0  0  0  0
  1 35  1  0  0  0  0
  2 16  2  0  0  0  0
  3  8  1  0  0  0  0
  3 24  1  0  0  0  0
  4 12  1  0  0  0  0
  4 15  1  0  0  0  0
  4 48  1  0  0  0  0
  5 16  1  0  0  0  0
  5 18  1  0  0  0  0
  5 19  1  0  0  0  0
  6 20  1  0  0  0  0
  6 21  1  0  0  0  0
  6 30  1  0  0  0  0
  7 23  1  0  0  0  0
  7 25  1  0  0  0  0
  7 26  1  0  0  0  0
  8 17  2  0  0  0  0
  9 10  1  0  0  0  0
  9 11  1  0  0  0  0
  9 13  1  0  0  0  0
  9 36  1  0  0  0  0
 10 12  1  0  0  0  0
 10 14  1  0  0  0  0
 10 37  1  0  0  0  0
 11 15  1  0  0  0  0
 11 38  1  0  0  0  0
 11 39  1  0  0  0  0
 12 40  1  0  0  0  0
 12 41  1  0  0  0  0
 13 16  1  0  0  0  0
 13 42  1  0  0  0  0
 13 43  1  0  0  0  0
 14 17  1  0  0  0  0
 14 44  1  0  0  0  0
 14 45  1  0  0  0  0
 15 46  1  0  0  0  0
 15 47  1  0  0  0  0
 17 22  1  0  0  0  0
 18 20  1  0  0  0  0
 18 49  1  0  0  0  0
 18 50  1  0  0  0  0
 19 21  1  0  0  0  0
 19 51  1  0  0  0  0
 19 52  1  0  0  0  0
 20 53  1  0  0  0  0
 20 54  1  0  0  0  0
 21 55  1  0  0  0  0
 21 56  1  0  0  0  0
 22 24  2  0  0  0  0
 22 57  1  0  0  0  0
 23 24  1  0  0  0  0
 23 58  1  0  0  0  0
 23 59  1  0  0  0  0
 25 27  1  0  0  0  0
 25 60  1  0  0  0  0
 25 61  1  0  0  0  0
 26 28  1  0  0  0  0
 26 62  1  0  0  0  0
 26 63  1  0  0  0  0
 27 29  1  0  0  0  0
 27 64  1  0  0  0  0
 27 65  1  0  0  0  0
 28 29  1  0  0  0  0
 28 66  1  0  0  0  0
 28 67  1  0  0  0  0
 29 68  1  0  0  0  0
 29 69  1  0  0  0  0
 30 31  2  0  0  0  0
 30 32  1  0  0  0  0
 31 33  1  0  0  0  0
 31 70  1  0  0  0  0
 32 34  2  0  0  0  0
 32 71  1  0  0  0  0
 33 35  2  0  0  0  0
 33 72  1  0  0  0  0
 34 35  1  0  0  0  0
 34 73  1  0  0  0  0
M  END
> <PUBCHEM_COMPOUND_CID>
25313885

> <PUBCHEM_CONFORMER_RMSD>
1.4

> <PUBCHEM_CONFORMER_DIVERSEORDER>
1
8
14
65
104
89
21
54
36
22
130
82
114
123
121
34
48
135
59
122
68
75
108
58
124
20
64
92
39
56
30
67
86
71
103
76
17
119
33
31
98
78
117
116
129
90
60
38
100
111
106
73
23
45
9
126
85
93
25
41
12
61
83
10
63
49
69
107
29
102
118
127
4
79
97
46
32
15
96
24
91
28
74
6
62
80
88
70
7
66
19
72
131
53
43
120
47
99
2
26
57
13
128
133
37
27
18
125
55
35
113
5
40
42
94
77
84
110
95
44
52
11
101
50
105
3
109
115
51
112
16
132
87
81
134

> <PUBCHEM_MMFF94_PARTIAL_CHARGES>
35
1 -0.19
12 0.27
13 0.06
14 0.18
15 0.27
16 0.57
17 0.11
18 0.3
19 0.3
2 -0.57
20 0.37
21 0.37
22 -0.15
23 0.45
24 -0.04
25 0.27
26 0.27
3 -0.02
30 0.1
31 -0.15
32 -0.15
33 -0.15
34 -0.15
35 0.19
4 -0.9
48 0.36
5 -0.66
57 0.15
6 -0.84
7 -0.81
70 0.15
71 0.15
72 0.15
73 0.15
8 -0.41

> <PUBCHEM_EFFECTIVE_ROTOR_COUNT>
11.6

> <PUBCHEM_PHARMACOPHORE_FEATURES>
11
1 2 acceptor
1 4 cation
1 4 donor
1 6 cation
1 7 cation
1 8 acceptor
5 3 8 17 22 24 rings
6 30 31 32 33 34 35 rings
6 4 9 10 11 12 15 rings
6 5 6 18 19 20 21 rings
6 7 25 26 27 28 29 rings

> <PUBCHEM_HEAVY_ATOM_COUNT>
35

> <PUBCHEM_ATOM_DEF_STEREO_COUNT>
2

> <PUBCHEM_ATOM_UDEF_STEREO_COUNT>
0

> <PUBCHEM_BOND_DEF_STEREO_COUNT>
0

> <PUBCHEM_BOND_UDEF_STEREO_COUNT>
0

> <PUBCHEM_ISOTOPIC_ATOM_COUNT>
0

> <PUBCHEM_COMPONENT_COUNT>
1

> <PUBCHEM_CACTVS_TAUTO_COUNT>
1

> <PUBCHEM_CONFORMER_ID>
0182425D00000001

> <PUBCHEM_MMFF94_ENERGY>
68.2964

> <PUBCHEM_FEATURE_SELFOVERLAP>
55.823

> <PUBCHEM_SHAPE_FINGERPRINT>
10 15 17748547043826518704
10190206 1 17132120130760062899
10258705 36 12463272749036282397
10429389 143 18113615656620509453
10625338 86 16660358160928886373
10904742 90 18411420613742996186
10930396 42 15647049374452255981
11273773 46 11527945656085064653
11973863 73 8214149564406210429
11973864 48 17560254599866261079
12047536 79 16588852465508229435
12522641 126 17345473670149605863
12559416 138 11383573191316282892
12838862 33 18410287021840137128
13383668 254 16515963786761631054
14279260 333 9295294950426698317
1454969 45 18130499748581058043
14705955 166 15936405611529258597
15064981 194 18120939661912162710
15350500 55 17968096404421366185
15461852 350 17346599681809272105
1577012 14 18411418423742400114
15840311 113 18260549988104213622
1754911 235 18343019986646815357
17899979 19 18409731755462155145
1818759 1 10592043561834919040
19246450 95 13045940184690927297
19841028 212 11671242773393119708
20105231 36 13183014134520137693
2026 5 11383842541310308748
20505436 4 18410853261522677202
20609170 114 17459195256357319443
20766409 102 18340210688117192409
20771845 65 9799683805803199906
20982279 24 11239723027732874748
21756936 100 18337679719164506586
21792965 326 18199189491344098945
22149856 69 15213299704233097296
23576562 1 18129094687989142865
24771293 8 18339647750615597189
306946 40 17095516289154484733
3986486 107 16845579703885206776
4258327 124 18343863320860956435
4403749 210 18041287642430127251
4516262 110 18408040706762764458
4756326 101 17530954749773940261
4760202 170 18201439216867700600
54039377 194 10519984863584162401
54583773 228 18412822517349891439
57035037 87 17530962450481522509
5719381 82 11743841352615391268
6201320 82 18198351646187897145
636775 8 16056595478957739757
6636735 143 16371019541375598849
6673363 416 17703793626373835697
9937071 3 10231756682472176460
9953998 17 16081372976782040225
9980921 7 18333732450840023733

> <PUBCHEM_SHAPE_MULTIPOLES>
676.37
36.04
3.22
1.82
13.63
1.06
-0.03
-37.2
14.8
1.46
0.79
-3.77
0.3
-1.27

> <PUBCHEM_SHAPE_SELFOVERLAP>
1425.676

> <PUBCHEM_SHAPE_VOLUME>
379

> <PUBCHEM_COORDINATE_TYPE>
2
5
10

$$$$
