75536755
  -OEChem-12032416323D

 50 52  0     1  0  0  0  0  0999 V2000
   -0.5592    0.8811   -0.2551 O   0  0  0  0  0  0  0  0  0  0  0  0
    0.5535   -2.4320    0.5760 O   0  0  0  0  0  0  0  0  0  0  0  0
   -7.8535    1.0746   -0.4847 O   0  0  0  0  0  0  0  0  0  0  0  0
   -3.9670   -1.9261    0.1271 O   0  0  0  0  0  0  0  0  0  0  0  0
    4.8629    2.1726    0.5031 O   0  0  0  0  0  0  0  0  0  0  0  0
    2.8487   -0.3360    0.1132 N   0  0  0  0  0  0  0  0  0  0  0  0
   -3.1256    0.0980    0.8047 N   0  0  0  0  0  0  0  0  0  0  0  0
   -5.2706   -0.0321   -0.1800 N   0  0  0  0  0  0  0  0  0  0  0  0
    1.4655   -0.3582   -0.3339 C   0  0  1  0  0  0  0  0  0  0  0  0
    0.5181   -1.0200    0.6497 C   0  0  1  0  0  0  0  0  0  0  0  0
   -0.8209   -0.4607    0.1888 C   0  0  1  0  0  0  0  0  0  0  0  0
    0.8583    1.0304   -0.4484 C   0  0  0  0  0  0  0  0  0  0  0  0
   -1.8732   -0.4432    1.2831 C   0  0  0  0  0  0  0  0  0  0  0  0
    3.7502   -0.0071   -0.9845 C   0  0  0  0  0  0  0  0  0  0  0  0
   -4.1123   -0.7048    0.2445 C   0  0  0  0  0  0  0  0  0  0  0  0
    5.1868    0.0369   -0.5361 C   0  0  0  0  0  0  0  0  0  0  0  0
   -6.3594   -0.7998   -0.7890 C   0  0  0  0  0  0  0  0  0  0  0  0
   -5.4626    1.4248   -0.2173 C   0  0  0  0  0  0  0  0  0  0  0  0
   -7.7112   -0.3313   -0.2739 C   0  0  0  0  0  0  0  0  0  0  0  0
   -6.8654    1.7991    0.2491 C   0  0  0  0  0  0  0  0  0  0  0  0
    5.6750    1.1252    0.1867 C   0  0  0  0  0  0  0  0  0  0  0  0
    6.0324   -1.0266   -0.8517 C   0  0  0  0  0  0  0  0  0  0  0  0
    7.0088    1.1502    0.5942 C   0  0  0  0  0  0  0  0  0  0  0  0
    7.3663   -1.0016   -0.4444 C   0  0  0  0  0  0  0  0  0  0  0  0
    7.8545    0.0868    0.2786 C   0  0  0  0  0  0  0  0  0  0  0  0
    1.3849   -0.8897   -1.2927 H   0  0  0  0  0  0  0  0  0  0  0  0
    0.7412   -0.7141    1.6795 H   0  0  0  0  0  0  0  0  0  0  0  0
   -1.1998   -1.0223   -0.6753 H   0  0  0  0  0  0  0  0  0  0  0  0
    1.2207    1.7093    0.3322 H   0  0  0  0  0  0  0  0  0  0  0  0
    1.0442    1.4940   -1.4219 H   0  0  0  0  0  0  0  0  0  0  0  0
   -1.5585    0.2060    2.1078 H   0  0  0  0  0  0  0  0  0  0  0  0
   -2.0385   -1.4504    1.6802 H   0  0  0  0  0  0  0  0  0  0  0  0
    3.0954   -1.2563    0.4786 H   0  0  0  0  0  0  0  0  0  0  0  0
    3.4969    0.9658   -1.4245 H   0  0  0  0  0  0  0  0  0  0  0  0
    3.6449   -0.7413   -1.7942 H   0  0  0  0  0  0  0  0  0  0  0  0
   -3.2352    1.0985    0.8847 H   0  0  0  0  0  0  0  0  0  0  0  0
    0.3562   -2.6955   -0.3388 H   0  0  0  0  0  0  0  0  0  0  0  0
   -6.2369   -1.8719   -0.6085 H   0  0  0  0  0  0  0  0  0  0  0  0
   -6.2884   -0.6289   -1.8698 H   0  0  0  0  0  0  0  0  0  0  0  0
   -5.3287    1.7185   -1.2652 H   0  0  0  0  0  0  0  0  0  0  0  0
   -4.7357    1.9756    0.3768 H   0  0  0  0  0  0  0  0  0  0  0  0
   -7.8338   -0.5541    0.7928 H   0  0  0  0  0  0  0  0  0  0  0  0
   -8.5163   -0.8364   -0.8165 H   0  0  0  0  0  0  0  0  0  0  0  0
   -6.9929    1.6003    1.3200 H   0  0  0  0  0  0  0  0  0  0  0  0
   -7.0414    2.8670    0.0857 H   0  0  0  0  0  0  0  0  0  0  0  0
    5.6667   -1.8828   -1.4122 H   0  0  0  0  0  0  0  0  0  0  0  0
    7.4026    1.9917    1.1580 H   0  0  0  0  0  0  0  0  0  0  0  0
    8.0247   -1.8299   -0.6895 H   0  0  0  0  0  0  0  0  0  0  0  0
    8.8931    0.1060    0.5959 H   0  0  0  0  0  0  0  0  0  0  0  0
    5.3743    2.8308    1.0043 H   0  0  0  0  0  0  0  0  0  0  0  0
  1 11  1  0  0  0  0
  1 12  1  0  0  0  0
  2 10  1  0  0  0  0
  2 37  1  0  0  0  0
  3 19  1  0  0  0  0
  3 20  1  0  0  0  0
  4 15  2  0  0  0  0
  5 21  1  0  0  0  0
  5 50  1  0  0  0  0
  6  9  1  0  0  0  0
  6 14  1  0  0  0  0
  6 33  1  0  0  0  0
  7 13  1  0  0  0  0
  7 15  1  0  0  0  0
  7 36  1  0  0  0  0
  8 15  1  0  0  0  0
  8 17  1  0  0  0  0
  8 18  1  0  0  0  0
  9 10  1  0  0  0  0
  9 12  1  0  0  0  0
  9 26  1  0  0  0  0
 10 11  1  0  0  0  0
 10 27  1  0  0  0  0
 11 13  1  0  0  0  0
 11 28  1  0  0  0  0
 12 29  1  0  0  0  0
 12 30  1  0  0  0  0
 13 31  1  0  0  0  0
 13 32  1  0  0  0  0
 14 16  1  0  0  0  0
 14 34  1  0  0  0  0
 14 35  1  0  0  0  0
 16 21  1  0  0  0  0
 16 22  2  0  0  0  0
 17 19  1  0  0  0  0
 17 38  1  0  0  0  0
 17 39  1  0  0  0  0
 18 20  1  0  0  0  0
 18 40  1  0  0  0  0
 18 41  1  0  0  0  0
 19 42  1  0  0  0  0
 19 43  1  0  0  0  0
 20 44  1  0  0  0  0
 20 45  1  0  0  0  0
 21 23  2  0  0  0  0
 22 24  1  0  0  0  0
 22 46  1  0  0  0  0
 23 25  1  0  0  0  0
 23 47  1  0  0  0  0
 24 25  2  0  0  0  0
 24 48  1  0  0  0  0
 25 49  1  0  0  0  0
M  END
> <PUBCHEM_COMPOUND_CID>
75536755

> <PUBCHEM_CONFORMER_RMSD>
1

> <PUBCHEM_CONFORMER_DIVERSEORDER>
1
27
43
26
57
120
140
129
147
105
66
69
75
121
155
106
35
38
131
98
148
15
82
153
67
54
86
92
46
10
14
132
89
55
124
90
33
48
130
149
59
107
61
111
139
16
19
85
71
102
63
76
137
110
17
68
41
62
87
49
150
39
157
25
142
133
93
116
119
44
12
126
143
159
34
78
21
5
20
31
101
65
53
64
40
73
112
28
83
74
2
103
127
60
99
70
113
122
128
134
144
146
32
156
141
97
80
36
79
138
37
58
51
29
50
123
136
158
22
145
45
109
104
23
81
13
88
30
100
154
95
117
77
11
18
125
9
152
47
151
3
118
84
115
135
94
7
6
4
114
56
8
52
91
96
42
24
108
72

> <PUBCHEM_MMFF94_PARTIAL_CHARGES>
33
1 -0.56
10 0.28
11 0.28
12 0.28
13 0.3
14 0.41
15 0.69
16 -0.14
17 0.3
18 0.3
19 0.28
2 -0.68
20 0.28
21 0.08
22 -0.15
23 -0.15
24 -0.15
25 -0.15
3 -0.56
33 0.36
36 0.37
37 0.4
4 -0.57
46 0.15
47 0.15
48 0.15
49 0.15
5 -0.53
50 0.45
6 -0.9
7 -0.73
8 -0.66
9 0.27

> <PUBCHEM_EFFECTIVE_ROTOR_COUNT>
9.2

> <PUBCHEM_PHARMACOPHORE_FEATURES>
12
1 1 acceptor
1 2 acceptor
1 2 donor
1 3 acceptor
1 4 acceptor
1 5 donor
1 6 cation
1 6 donor
1 7 donor
5 1 9 10 11 12 rings
6 16 21 22 23 24 25 rings
6 3 8 17 18 19 20 rings

> <PUBCHEM_HEAVY_ATOM_COUNT>
25

> <PUBCHEM_ATOM_DEF_STEREO_COUNT>
3

> <PUBCHEM_ATOM_UDEF_STEREO_COUNT>
0

> <PUBCHEM_BOND_DEF_STEREO_COUNT>
0

> <PUBCHEM_BOND_UDEF_STEREO_COUNT>
0

> <PUBCHEM_ISOTOPIC_ATOM_COUNT>
0

> <PUBCHEM_COMPONENT_COUNT>
1

> <PUBCHEM_CACTVS_TAUTO_COUNT>
6

> <PUBCHEM_CONFORMER_ID>
0480997300000001

> <PUBCHEM_MMFF94_ENERGY>
52.9868

> <PUBCHEM_FEATURE_SELFOVERLAP>
60.898

> <PUBCHEM_SHAPE_FINGERPRINT>
10 15 13623532355306284763
10050765 1 18049722914684573821
10066227 49 17417537904264612374
11135926 11 18261386737711847543
11315181 36 17489591173596942035
11524674 6 14273741759237707305
11719270 70 17703790302042540782
12082328 90 18131068221814910655
125118 31 18335143115879931460
13533116 47 17603858958859024538
13885169 127 18342458119251862989
13914758 101 18408886217744551264
13968360 50 17203332178369887502
14123256 10 14908181953863521693
14251764 18 17095521799228006803
14251764 46 18410012134714951887
14344974 52 18413101780945952485
14556957 393 16630257973588595761
15183329 4 16298384669114366852
15419008 47 18408598162815509932
15716309 27 10953460734671347353
15849732 13 18202282515381406925
18335252 98 9727636107664437188
18681886 176 18130498717467231795
20157964 124 18060423508740258358
21150785 3 17418373593172623957
21315763 28 18342738524649659797
220451 1 14129059248757103304
22224240 67 18187081754137064690
23198884 109 18413108351791903125
23559900 14 17988917933626178809
246663 6 11455889174290295677
3009799 131 18343866619195113409
335352 9 18259707813435959182
3633792 109 18272656701404155234
4073 2 18187368791460687274
4325135 7 16773799203645954988
4339292 15 16988268894695588967
5385378 56 17385720253685462994
5758199 1 18186239511503876547
59682541 35 9367337141846648407
5969126 39 15338840833453421737
59755656 215 18187085027503719254
59755656 520 15502376764241054795

> <PUBCHEM_SHAPE_MULTIPOLES>
470.2
26.09
1.7
0.9
5.66
0.07
-0.04
5.43
3.03
0.36
-0.19
-0.14
-0.08
0.73

> <PUBCHEM_SHAPE_SELFOVERLAP>
978.145

> <PUBCHEM_SHAPE_VOLUME>
266.9

> <PUBCHEM_COORDINATE_TYPE>
2
5
10

$$$$
