75536519
  -OEChem-12032416343D

 51 52  0     1  0  0  0  0  0999 V2000
    1.1479    0.1919    0.0159 O   0  0  0  0  0  0  0  0  0  0  0  0
   -0.5375   -2.9427    0.5046 O   0  0  0  0  0  0  0  0  0  0  0  0
    3.4685    0.5198   -1.9166 O   0  0  0  0  0  0  0  0  0  0  0  0
   -2.4273   -0.4780    0.0253 N   0  0  0  0  0  0  0  0  0  0  0  0
    3.5078   -1.3646   -0.5571 N   0  0  0  0  0  0  0  0  0  0  0  0
   -1.0543   -0.5567    0.4969 C   0  0  1  0  0  0  0  0  0  0  0  0
   -0.2653   -1.7001   -0.1137 C   0  0  1  0  0  0  0  0  0  0  0  0
    1.1635   -1.2398    0.1417 C   0  0  1  0  0  0  0  0  0  0  0  0
   -0.2167    0.6418    0.0823 C   0  0  0  0  0  0  0  0  0  0  0  0
    2.1676   -1.8299   -0.8324 C   0  0  0  0  0  0  0  0  0  0  0  0
    5.6061    0.9699    0.5516 C   0  0  0  0  0  0  0  0  0  0  0  0
   -3.2241    0.4012    0.8728 C   0  0  0  0  0  0  0  0  0  0  0  0
    5.4754    0.0450   -0.6819 C   0  0  0  0  0  0  0  0  0  0  0  0
    4.0467   -0.2233   -1.1260 C   0  0  0  0  0  0  0  0  0  0  0  0
    7.0819    1.1966    0.9200 C   0  0  0  0  0  0  0  0  0  0  0  0
    4.9783    2.3318    0.1956 C   0  0  0  0  0  0  0  0  0  0  0  0
    4.8619    0.3951    1.7679 C   0  0  0  0  0  0  0  0  0  0  0  0
   -4.6459    0.5081    0.3896 C   0  0  0  0  0  0  0  0  0  0  0  0
   -4.9993    1.5003   -0.5249 C   0  0  0  0  0  0  0  0  0  0  0  0
   -5.6099   -0.3852    0.8566 C   0  0  0  0  0  0  0  0  0  0  0  0
   -6.3169    1.5993   -0.9724 C   0  0  0  0  0  0  0  0  0  0  0  0
   -6.9274   -0.2864    0.4093 C   0  0  0  0  0  0  0  0  0  0  0  0
   -7.2810    0.7059   -0.5052 C   0  0  0  0  0  0  0  0  0  0  0  0
   -1.0347   -0.6759    1.5895 H   0  0  0  0  0  0  0  0  0  0  0  0
   -0.4666   -1.7886   -1.1886 H   0  0  0  0  0  0  0  0  0  0  0  0
    1.4732   -1.4740    1.1688 H   0  0  0  0  0  0  0  0  0  0  0  0
   -0.4829    1.0118   -0.9146 H   0  0  0  0  0  0  0  0  0  0  0  0
   -0.2893    1.4735    0.7896 H   0  0  0  0  0  0  0  0  0  0  0  0
    2.1805   -2.9223   -0.7633 H   0  0  0  0  0  0  0  0  0  0  0  0
    1.9154   -1.5489   -1.8612 H   0  0  0  0  0  0  0  0  0  0  0  0
   -2.8379   -1.4120    0.0393 H   0  0  0  0  0  0  0  0  0  0  0  0
    4.0668   -1.9068    0.0949 H   0  0  0  0  0  0  0  0  0  0  0  0
    5.9701   -0.9136   -0.4778 H   0  0  0  0  0  0  0  0  0  0  0  0
    6.0067    0.4773   -1.5400 H   0  0  0  0  0  0  0  0  0  0  0  0
   -2.7907    1.4090    0.9030 H   0  0  0  0  0  0  0  0  0  0  0  0
   -3.2285    0.0396    1.9096 H   0  0  0  0  0  0  0  0  0  0  0  0
   -0.3582   -2.8565    1.4562 H   0  0  0  0  0  0  0  0  0  0  0  0
    7.1824    1.8746    1.7749 H   0  0  0  0  0  0  0  0  0  0  0  0
    7.6352    1.6323    0.0806 H   0  0  0  0  0  0  0  0  0  0  0  0
    7.5676    0.2507    1.1842 H   0  0  0  0  0  0  0  0  0  0  0  0
    5.1277    3.0536    1.0073 H   0  0  0  0  0  0  0  0  0  0  0  0
    5.4319    2.7554   -0.7076 H   0  0  0  0  0  0  0  0  0  0  0  0
    3.8980    2.2592    0.0315 H   0  0  0  0  0  0  0  0  0  0  0  0
    3.7812    0.3391    1.6026 H   0  0  0  0  0  0  0  0  0  0  0  0
    5.2225   -0.6110    2.0088 H   0  0  0  0  0  0  0  0  0  0  0  0
    5.0164    1.0221    2.6539 H   0  0  0  0  0  0  0  0  0  0  0  0
   -4.2572    2.2012   -0.8978 H   0  0  0  0  0  0  0  0  0  0  0  0
   -5.3468   -1.1637    1.5679 H   0  0  0  0  0  0  0  0  0  0  0  0
   -6.5921    2.3715   -1.6847 H   0  0  0  0  0  0  0  0  0  0  0  0
   -7.6780   -0.9822    0.7726 H   0  0  0  0  0  0  0  0  0  0  0  0
   -8.3067    0.7827   -0.8537 H   0  0  0  0  0  0  0  0  0  0  0  0
  1  8  1  0  0  0  0
  1  9  1  0  0  0  0
  2  7  1  0  0  0  0
  2 37  1  0  0  0  0
  3 14  2  0  0  0  0
  4  6  1  0  0  0  0
  4 12  1  0  0  0  0
  4 31  1  0  0  0  0
  5 10  1  0  0  0  0
  5 14  1  0  0  0  0
  5 32  1  0  0  0  0
  6  7  1  0  0  0  0
  6  9  1  0  0  0  0
  6 24  1  0  0  0  0
  7  8  1  0  0  0  0
  7 25  1  0  0  0  0
  8 10  1  0  0  0  0
  8 26  1  0  0  0  0
  9 27  1  0  0  0  0
  9 28  1  0  0  0  0
 10 29  1  0  0  0  0
 10 30  1  0  0  0  0
 11 13  1  0  0  0  0
 11 15  1  0  0  0  0
 11 16  1  0  0  0  0
 11 17  1  0  0  0  0
 12 18  1  0  0  0  0
 12 35  1  0  0  0  0
 12 36  1  0  0  0  0
 13 14  1  0  0  0  0
 13 33  1  0  0  0  0
 13 34  1  0  0  0  0
 15 38  1  0  0  0  0
 15 39  1  0  0  0  0
 15 40  1  0  0  0  0
 16 41  1  0  0  0  0
 16 42  1  0  0  0  0
 16 43  1  0  0  0  0
 17 44  1  0  0  0  0
 17 45  1  0  0  0  0
 17 46  1  0  0  0  0
 18 19  2  0  0  0  0
 18 20  1  0  0  0  0
 19 21  1  0  0  0  0
 19 47  1  0  0  0  0
 20 22  2  0  0  0  0
 20 48  1  0  0  0  0
 21 23  2  0  0  0  0
 21 49  1  0  0  0  0
 22 23  1  0  0  0  0
 22 50  1  0  0  0  0
 23 51  1  0  0  0  0
M  END
> <PUBCHEM_COMPOUND_CID>
75536519

> <PUBCHEM_CONFORMER_RMSD>
1

> <PUBCHEM_CONFORMER_DIVERSEORDER>
1
119
97
107
129
111
84
80
68
14
91
76
121
99
125
42
115
38
105
44
9
26
5
126
39
120
122
46
2
103
110
52
82
15
128
60
95
81
66
7
51
93
71
86
88
127
89
16
45
21
124
58
11
100
106
101
67
77
113
47
31
12
36
61
90
109
17
62
92
114
96
74
43
23
37
34
50
65
54
63
116
49
13
104
20
112
72
78
64
35
123
59
24
57
83
40
56
117
94
130
48
19
98
75
69
22
30
85
8
108
18
41
118
10
27
53
73
33
25
28
32
55
70
6
102
4
29
87
3
79

> <PUBCHEM_MMFF94_PARTIAL_CHARGES>
27
1 -0.56
10 0.3
12 0.41
13 0.06
14 0.57
18 -0.14
19 -0.15
2 -0.68
20 -0.15
21 -0.15
22 -0.15
23 -0.15
3 -0.57
31 0.36
32 0.37
37 0.4
4 -0.9
47 0.15
48 0.15
49 0.15
5 -0.73
50 0.15
51 0.15
6 0.27
7 0.28
8 0.28
9 0.28

> <PUBCHEM_EFFECTIVE_ROTOR_COUNT>
9

> <PUBCHEM_PHARMACOPHORE_FEATURES>
10
1 1 acceptor
1 2 acceptor
1 2 donor
1 3 acceptor
1 4 cation
1 4 donor
1 5 donor
4 11 15 16 17 hydrophobe
5 1 6 7 8 9 rings
6 18 19 20 21 22 23 rings

> <PUBCHEM_HEAVY_ATOM_COUNT>
23

> <PUBCHEM_ATOM_DEF_STEREO_COUNT>
3

> <PUBCHEM_ATOM_UDEF_STEREO_COUNT>
0

> <PUBCHEM_BOND_DEF_STEREO_COUNT>
0

> <PUBCHEM_BOND_UDEF_STEREO_COUNT>
0

> <PUBCHEM_ISOTOPIC_ATOM_COUNT>
0

> <PUBCHEM_COMPONENT_COUNT>
1

> <PUBCHEM_CACTVS_TAUTO_COUNT>
2

> <PUBCHEM_CONFORMER_ID>
0480988700000001

> <PUBCHEM_MMFF94_ENERGY>
50.8683

> <PUBCHEM_FEATURE_SELFOVERLAP>
50.746

> <PUBCHEM_SHAPE_FINGERPRINT>
10 15 18186804711687858025
10299344 5 14117801314861821053
10638233 991 16486972899516252497
10666366 153 9583523097310989763
10835480 77 18337104558919560845
11719270 70 18259984842758125627
12778500 126 15719387305042409764
13533116 47 18270404880611797886
13673619 4 11891325448966979142
13685833 64 8070029969588426692
13914758 101 13117992293823451359
14123256 34 9655575231664768741
14216079 64 7853581205365705545
14251764 18 16153429463087761692
14347424 109 14707208833957270892
14461889 52 18260555549607126195
14617045 38 12031789158246769117
14681490 219 16845573110356293929
14767858 380 17132114641105803233
15183329 4 15482670182443930065
15348495 7 11963693135095451645
15352257 5 10663816390846036877
16079462 125 18334292054997895661
173720 79 17966968322528653834
20157964 124 18060422404843940550
20554085 129 18410001135298783747
20567600 254 18411981360509914098
20715895 44 18411701010978444568
21150785 3 16343981420761066677
21521721 280 18131356306293044371
220451 1 13901911090219809605
2297311 6 12391514174836489739
23016692 55 10952051156174094082
23035841 295 12391513075124278189
23081809 10 16558755564197506851
23424782 7 17845931939955985703
23522609 53 14189033222764659419
23559900 14 17846491578315146185
2767999 5 18408042909505844525
2916195 48 18408886239403750395
300161 21 18412262830975620031
312425 54 14129348432799689896
335352 9 18272377465059941294
3472631 163 18341050817635753452
34797466 226 17060345110471774341
4072396 5 17313105237300906274
4340502 62 18407761430339914990
465052 167 8646767798727084864
5104073 3 18042412339924682361
54039377 194 11963651307190171816
8863177 126 11455303147826051989

> <PUBCHEM_SHAPE_MULTIPOLES>
445.76
20.75
2
1.21
11.89
0.61
-0.08
-11.13
0.77
-1.05
-0.06
-1.02
-0.13
1.68

> <PUBCHEM_SHAPE_SELFOVERLAP>
909.213

> <PUBCHEM_SHAPE_VOLUME>
259.8

> <PUBCHEM_COORDINATE_TYPE>
2
5
10

$$$$
