7155434
  -OEChem-12032416223D

 51 55  0     1  0  0  0  0  0999 V2000
    2.3531   -0.7405    1.4104 S   0  0  0  0  0  0  0  0  0  0  0  0
    2.9642   -2.0206    1.7000 O   0  0  0  0  0  0  0  0  0  0  0  0
    1.7784    0.0661    2.4665 O   0  0  0  0  0  0  0  0  0  0  0  0
   -2.6617   -4.0226    0.5869 O   0  0  0  0  0  0  0  0  0  0  0  0
    1.1932   -0.9415    0.1690 N   0  0  2  0  0  0  0  0  0  0  0  0
   -1.7034   -2.0815   -0.3078 N   0  0  0  0  0  0  0  0  0  0  0  0
    0.3611   -2.1794   -1.8255 C   0  0  1  0  0  0  0  0  0  0  0  0
   -0.6305   -0.0100   -1.2449 C   0  0  2  0  0  0  0  0  0  0  0  0
   -0.1897   -0.8901   -2.4119 C   0  0  0  0  0  0  0  0  0  0  0  0
    1.5643   -1.8952   -0.9135 C   0  0  0  0  0  0  0  0  0  0  0  0
    0.5890    0.3158   -0.3604 C   0  0  0  0  0  0  0  0  0  0  0  0
   -0.7678   -2.9023   -1.0889 C   0  0  0  0  0  0  0  0  0  0  0  0
   -1.7354   -0.6773   -0.4212 C   0  0  0  0  0  0  0  0  0  0  0  0
   -2.7117    0.0296    0.2058 C   0  0  0  0  0  0  0  0  0  0  0  0
   -2.6350   -2.7975    0.4651 C   0  0  0  0  0  0  0  0  0  0  0  0
   -3.6875   -0.6746    1.0158 C   0  0  0  0  0  0  0  0  0  0  0  0
   -3.6663   -1.9988    1.1652 C   0  0  0  0  0  0  0  0  0  0  0  0
    3.5465    0.2466    0.5623 C   0  0  0  0  0  0  0  0  0  0  0  0
   -2.7985    1.5026    0.0995 C   0  0  0  0  0  0  0  0  0  0  0  0
    3.4373    1.6267    0.6044 C   0  0  0  0  0  0  0  0  0  0  0  0
    4.5706   -0.3757   -0.1321 C   0  0  0  0  0  0  0  0  0  0  0  0
   -2.1198    2.3025    1.0138 C   0  0  0  0  0  0  0  0  0  0  0  0
   -3.5578    2.0785   -0.9146 C   0  0  0  0  0  0  0  0  0  0  0  0
    4.3791    2.4068   -0.0668 C   0  0  0  0  0  0  0  0  0  0  0  0
    5.5124    0.4042   -0.8032 C   0  0  0  0  0  0  0  0  0  0  0  0
   -2.2010    3.6914    0.9133 C   0  0  0  0  0  0  0  0  0  0  0  0
   -3.6391    3.4674   -1.0152 C   0  0  0  0  0  0  0  0  0  0  0  0
    5.4167    1.7954   -0.7706 C   0  0  0  0  0  0  0  0  0  0  0  0
   -2.9607    4.2738   -0.1012 C   0  0  0  0  0  0  0  0  0  0  0  0
    0.7117   -2.8287   -2.6376 H   0  0  0  0  0  0  0  0  0  0  0  0
   -0.9923    0.9277   -1.6817 H   0  0  0  0  0  0  0  0  0  0  0  0
   -1.0324   -1.0969   -3.0836 H   0  0  0  0  0  0  0  0  0  0  0  0
    0.5779   -0.3818   -3.0083 H   0  0  0  0  0  0  0  0  0  0  0  0
    1.9118   -2.8389   -0.4800 H   0  0  0  0  0  0  0  0  0  0  0  0
    2.3753   -1.4761   -1.5183 H   0  0  0  0  0  0  0  0  0  0  0  0
    1.3195    0.8570   -0.9712 H   0  0  0  0  0  0  0  0  0  0  0  0
    0.2936    0.9605    0.4710 H   0  0  0  0  0  0  0  0  0  0  0  0
   -1.3869   -3.4260   -1.8307 H   0  0  0  0  0  0  0  0  0  0  0  0
   -0.3591   -3.6845   -0.4364 H   0  0  0  0  0  0  0  0  0  0  0  0
   -4.4510   -0.0920    1.5231 H   0  0  0  0  0  0  0  0  0  0  0  0
   -4.3963   -2.5159    1.7763 H   0  0  0  0  0  0  0  0  0  0  0  0
    2.6368    2.1229    1.1444 H   0  0  0  0  0  0  0  0  0  0  0  0
    4.6614   -1.4568   -0.1731 H   0  0  0  0  0  0  0  0  0  0  0  0
   -1.5304    1.8641    1.8152 H   0  0  0  0  0  0  0  0  0  0  0  0
   -4.0910    1.4626   -1.6344 H   0  0  0  0  0  0  0  0  0  0  0  0
    4.3041    3.4899   -0.0421 H   0  0  0  0  0  0  0  0  0  0  0  0
    6.3197   -0.0716   -1.3523 H   0  0  0  0  0  0  0  0  0  0  0  0
   -1.6742    4.3192    1.6258 H   0  0  0  0  0  0  0  0  0  0  0  0
   -4.2303    3.9210   -1.8053 H   0  0  0  0  0  0  0  0  0  0  0  0
    6.1496    2.4026   -1.2937 H   0  0  0  0  0  0  0  0  0  0  0  0
   -3.0242    5.3552   -0.1795 H   0  0  0  0  0  0  0  0  0  0  0  0
  1  2  2  0  0  0  0
  1  3  2  0  0  0  0
  1  5  1  0  0  0  0
  1 18  1  0  0  0  0
  4 15  2  0  0  0  0
  5 10  1  0  0  0  0
  5 11  1  0  0  0  0
  6 12  1  0  0  0  0
  6 13  1  0  0  0  0
  6 15  1  0  0  0  0
  7  9  1  0  0  0  0
  7 10  1  0  0  0  0
  7 12  1  0  0  0  0
  7 30  1  0  0  0  0
  8  9  1  0  0  0  0
  8 11  1  0  0  0  0
  8 13  1  0  0  0  0
  8 31  1  0  0  0  0
  9 32  1  0  0  0  0
  9 33  1  0  0  0  0
 10 34  1  0  0  0  0
 10 35  1  0  0  0  0
 11 36  1  0  0  0  0
 11 37  1  0  0  0  0
 12 38  1  0  0  0  0
 12 39  1  0  0  0  0
 13 14  2  0  0  0  0
 14 16  1  0  0  0  0
 14 19  1  0  0  0  0
 15 17  1  0  0  0  0
 16 17  2  0  0  0  0
 16 40  1  0  0  0  0
 17 41  1  0  0  0  0
 18 20  2  0  0  0  0
 18 21  1  0  0  0  0
 19 22  2  0  0  0  0
 19 23  1  0  0  0  0
 20 24  1  0  0  0  0
 20 42  1  0  0  0  0
 21 25  2  0  0  0  0
 21 43  1  0  0  0  0
 22 26  1  0  0  0  0
 22 44  1  0  0  0  0
 23 27  2  0  0  0  0
 23 45  1  0  0  0  0
 24 28  2  0  0  0  0
 24 46  1  0  0  0  0
 25 28  1  0  0  0  0
 25 47  1  0  0  0  0
 26 29  2  0  0  0  0
 26 48  1  0  0  0  0
 27 29  1  0  0  0  0
 27 49  1  0  0  0  0
 28 50  1  0  0  0  0
 29 51  1  0  0  0  0
M  END
> <PUBCHEM_COMPOUND_CID>
7155434

> <PUBCHEM_CONFORMER_RMSD>
0.8

> <PUBCHEM_CONFORMER_DIVERSEORDER>
1
5
3
4
6
2

> <PUBCHEM_MMFF94_PARTIAL_CHARGES>
39
1 1.45
10 0.36
11 0.36
12 0.3
13 -0.03
14 -0.03
15 0.62
16 -0.15
17 -0.14
18 -0.01
19 0.03
2 -0.65
20 -0.15
21 -0.15
22 -0.15
23 -0.15
24 -0.15
25 -0.15
26 -0.15
27 -0.15
28 -0.15
29 -0.15
3 -0.65
4 -0.57
40 0.15
41 0.15
42 0.15
43 0.15
44 0.15
45 0.15
46 0.15
47 0.15
48 0.15
49 0.15
5 -0.85
50 0.15
51 0.15
6 -0.47
8 0.14

> <PUBCHEM_EFFECTIVE_ROTOR_COUNT>
4

> <PUBCHEM_PHARMACOPHORE_FEATURES>
8
1 2 acceptor
1 3 acceptor
1 4 acceptor
6 18 20 21 24 25 28 rings
6 19 22 23 26 27 29 rings
6 5 7 8 9 10 11 rings
6 6 13 14 15 16 17 rings
6 6 7 8 9 12 13 rings

> <PUBCHEM_HEAVY_ATOM_COUNT>
29

> <PUBCHEM_ATOM_DEF_STEREO_COUNT>
2

> <PUBCHEM_ATOM_UDEF_STEREO_COUNT>
0

> <PUBCHEM_BOND_DEF_STEREO_COUNT>
0

> <PUBCHEM_BOND_UDEF_STEREO_COUNT>
0

> <PUBCHEM_ISOTOPIC_ATOM_COUNT>
0

> <PUBCHEM_COMPONENT_COUNT>
1

> <PUBCHEM_CACTVS_TAUTO_COUNT>
1

> <PUBCHEM_CONFORMER_ID>
006D2EEA00000001

> <PUBCHEM_MMFF94_ENERGY>
74.5348

> <PUBCHEM_FEATURE_SELFOVERLAP>
42.199

> <PUBCHEM_SHAPE_FINGERPRINT>
10366900 7 18131062745177953963
10906281 52 18341902879250099589
11552529 35 18261384585284210274
11578080 2 17843145640025484617
11763715 3 17979637058897575206
12107183 9 17972871459183296378
12156800 1 15546353999019931761
12633257 1 17827346683856631170
12788726 201 18336813278226486859
13726171 33 18271258165832881832
13965767 371 17462294529852611381
13994607 96 18342451539393660029
14251751 93 18413393159230965672
14251757 17 17630634283092772356
14466204 15 17328857699720799954
14713325 29 18341625844678391536
14787075 74 17681835451189734146
14950920 106 17676478441681858098
14955137 171 17761504981185643459
15163728 17 18125162636865970353
15575132 122 18410015471957808381
15664445 248 16615851321932700086
17921350 177 17538270745046699996
17980427 26 17689140220192910733
19315092 285 16881006088168592722
21860390 5 17337018296502271565
21864079 5 18341319064018383356
22907989 373 18270386291523517845
22956985 138 16747631118836607619
23559900 14 17983012250225241598
23598288 3 18339911693197636806
238 59 17201900553979283861
4098825 35 18267037205866685156
474 4 17909539563448125901
7808743 9 18410576175822493320
9981440 41 18198891527411756091

> <PUBCHEM_SHAPE_MULTIPOLES>
573.09
9.5
4.81
1.7
10.95
1.79
-0.03
5.73
0.46
-5.89
-0.09
0.25
-0.61
0.55

> <PUBCHEM_SHAPE_SELFOVERLAP>
1252.787

> <PUBCHEM_SHAPE_VOLUME>
309.5

> <PUBCHEM_COORDINATE_TYPE>
2
5
10

$$$$
