40777880
  -OEChem-12032416173D

 57 58  0     1  0  0  0  0  0999 V2000
   -2.6732    0.1766   -0.5776 O   0  0  0  0  0  0  0  0  0  0  0  0
   -5.3395   -1.6198    1.0234 O   0  0  0  0  0  0  0  0  0  0  0  0
   -5.6912    0.2583   -0.9559 O   0  0  0  0  0  0  0  0  0  0  0  0
   -0.9843   -1.8636   -1.4975 O   0  0  0  0  0  0  0  0  0  0  0  0
   -0.2746    1.2227    0.8461 O   0  0  0  0  0  0  0  0  0  0  0  0
    5.3409    0.4045    0.1043 O   0  0  0  0  0  0  0  0  0  0  0  0
   -1.7639    2.8270    0.0766 N   0  0  0  0  0  0  0  0  0  0  0  0
   -0.0380   -2.9352    0.3347 N   0  0  0  0  0  0  0  0  0  0  0  0
    0.4650    3.0403   -0.3921 N   0  0  0  0  0  0  0  0  0  0  0  0
   -4.3639   -0.6122    0.8639 C   0  0  2  0  0  0  0  0  0  0  0  0
   -4.8879    0.6253    0.1651 C   0  0  1  0  0  0  0  0  0  0  0  0
   -3.2483   -1.0418   -0.0735 C   0  0  2  0  0  0  0  0  0  0  0  0
   -3.6051    1.2606   -0.3597 C   0  0  1  0  0  0  0  0  0  0  0  0
   -2.1742   -1.8705    0.6082 C   0  0  0  0  0  0  0  0  0  0  0  0
   -2.9708    2.2282    0.6300 C   0  0  0  0  0  0  0  0  0  0  0  0
   -1.0204   -2.2055   -0.3187 C   0  0  0  0  0  0  0  0  0  0  0  0
   -0.5071    2.2650    0.2354 C   0  0  0  0  0  0  0  0  0  0  0  0
    1.1711   -3.3881   -0.3137 C   0  0  0  0  0  0  0  0  0  0  0  0
    1.8664    2.6922   -0.3877 C   0  0  0  0  0  0  0  0  0  0  0  0
    2.2791   -2.3809   -0.2031 C   0  0  0  0  0  0  0  0  0  0  0  0
    2.5531    3.2762    0.8400 C   0  0  0  0  0  0  0  0  0  0  0  0
    2.5380    3.1623   -1.6720 C   0  0  0  0  0  0  0  0  0  0  0  0
    2.8521   -1.8441   -1.3561 C   0  0  0  0  0  0  0  0  0  0  0  0
    2.7351   -1.9816    1.0531 C   0  0  0  0  0  0  0  0  0  0  0  0
    3.8813   -0.9084   -1.2528 C   0  0  0  0  0  0  0  0  0  0  0  0
    3.7643   -1.0459    1.1566 C   0  0  0  0  0  0  0  0  0  0  0  0
    4.3374   -0.5093    0.0036 C   0  0  0  0  0  0  0  0  0  0  0  0
    5.7586    0.7677    1.4195 C   0  0  0  0  0  0  0  0  0  0  0  0
   -3.9637   -0.3474    1.8500 H   0  0  0  0  0  0  0  0  0  0  0  0
   -5.4886    1.2700    0.8128 H   0  0  0  0  0  0  0  0  0  0  0  0
   -3.6488   -1.5996   -0.9302 H   0  0  0  0  0  0  0  0  0  0  0  0
   -3.7577    1.7555   -1.3260 H   0  0  0  0  0  0  0  0  0  0  0  0
   -2.5997   -2.8048    0.9917 H   0  0  0  0  0  0  0  0  0  0  0  0
   -1.7527   -1.3127    1.4542 H   0  0  0  0  0  0  0  0  0  0  0  0
   -2.6992    1.7227    1.5630 H   0  0  0  0  0  0  0  0  0  0  0  0
   -3.6569    3.0488    0.8629 H   0  0  0  0  0  0  0  0  0  0  0  0
   -6.0729   -1.2370    1.5343 H   0  0  0  0  0  0  0  0  0  0  0  0
   -5.9731    1.0801   -1.3928 H   0  0  0  0  0  0  0  0  0  0  0  0
   -1.8551    3.6853   -0.4578 H   0  0  0  0  0  0  0  0  0  0  0  0
   -0.1587   -3.1575    1.3187 H   0  0  0  0  0  0  0  0  0  0  0  0
    0.9451   -3.6147   -1.3619 H   0  0  0  0  0  0  0  0  0  0  0  0
    1.4766   -4.3244    0.1666 H   0  0  0  0  0  0  0  0  0  0  0  0
    0.1851    3.9240   -0.8071 H   0  0  0  0  0  0  0  0  0  0  0  0
    1.9443    1.6001   -0.3382 H   0  0  0  0  0  0  0  0  0  0  0  0
    2.4591    4.3677    0.8652 H   0  0  0  0  0  0  0  0  0  0  0  0
    2.1069    2.8864    1.7613 H   0  0  0  0  0  0  0  0  0  0  0  0
    3.6186    3.0273    0.8485 H   0  0  0  0  0  0  0  0  0  0  0  0
    2.4835    4.2518   -1.7745 H   0  0  0  0  0  0  0  0  0  0  0  0
    2.0484    2.7235   -2.5483 H   0  0  0  0  0  0  0  0  0  0  0  0
    3.5930    2.8695   -1.6915 H   0  0  0  0  0  0  0  0  0  0  0  0
    2.5061   -2.1443   -2.3415 H   0  0  0  0  0  0  0  0  0  0  0  0
    2.3001   -2.3952    1.9592 H   0  0  0  0  0  0  0  0  0  0  0  0
    4.3227   -0.4922   -2.1542 H   0  0  0  0  0  0  0  0  0  0  0  0
    4.0708   -0.7814    2.1628 H   0  0  0  0  0  0  0  0  0  0  0  0
    6.5545    1.5118    1.3120 H   0  0  0  0  0  0  0  0  0  0  0  0
    6.1884   -0.0866    1.9533 H   0  0  0  0  0  0  0  0  0  0  0  0
    4.9505    1.2436    1.9849 H   0  0  0  0  0  0  0  0  0  0  0  0
  1 12  1  0  0  0  0
  1 13  1  0  0  0  0
  2 10  1  0  0  0  0
  2 37  1  0  0  0  0
  3 11  1  0  0  0  0
  3 38  1  0  0  0  0
  4 16  2  0  0  0  0
  5 17  2  0  0  0  0
  6 27  1  0  0  0  0
  6 28  1  0  0  0  0
  7 15  1  0  0  0  0
  7 17  1  0  0  0  0
  7 39  1  0  0  0  0
  8 16  1  0  0  0  0
  8 18  1  0  0  0  0
  8 40  1  0  0  0  0
  9 17  1  0  0  0  0
  9 19  1  0  0  0  0
  9 43  1  0  0  0  0
 10 11  1  0  0  0  0
 10 12  1  0  0  0  0
 10 29  1  0  0  0  0
 11 13  1  0  0  0  0
 11 30  1  0  0  0  0
 12 14  1  0  0  0  0
 12 31  1  0  0  0  0
 13 15  1  0  0  0  0
 13 32  1  0  0  0  0
 14 16  1  0  0  0  0
 14 33  1  0  0  0  0
 14 34  1  0  0  0  0
 15 35  1  0  0  0  0
 15 36  1  0  0  0  0
 18 20  1  0  0  0  0
 18 41  1  0  0  0  0
 18 42  1  0  0  0  0
 19 21  1  0  0  0  0
 19 22  1  0  0  0  0
 19 44  1  0  0  0  0
 20 23  2  0  0  0  0
 20 24  1  0  0  0  0
 21 45  1  0  0  0  0
 21 46  1  0  0  0  0
 21 47  1  0  0  0  0
 22 48  1  0  0  0  0
 22 49  1  0  0  0  0
 22 50  1  0  0  0  0
 23 25  1  0  0  0  0
 23 51  1  0  0  0  0
 24 26  2  0  0  0  0
 24 52  1  0  0  0  0
 25 27  2  0  0  0  0
 25 53  1  0  0  0  0
 26 27  1  0  0  0  0
 26 54  1  0  0  0  0
 28 55  1  0  0  0  0
 28 56  1  0  0  0  0
 28 57  1  0  0  0  0
M  END
> <PUBCHEM_COMPOUND_CID>
40777880

> <PUBCHEM_CONFORMER_RMSD>
1.2

> <PUBCHEM_CONFORMER_DIVERSEORDER>
1
5
107
48
21
92
33
51
57
72
103
8
73
41
13
75
12
74
29
32
17
40
54
23
38
90
109
96
69
99
85
70
60
104
9
76
16
45
64
52
63
82
7
81
11
67
14
78
27
44
20
77
68
53
37
84
46
35
108
98
66
93
87
110
34
79
18
55
43
36
91
95
89
100
59
97
47
61
94
30
15
31
26
49
39
58
24
22
6
28
106
25
101
2
50
80
102
88
71
3
86
56
105
62
83
65
10
19
42
4

> <PUBCHEM_MMFF94_PARTIAL_CHARGES>
35
1 -0.56
10 0.28
11 0.28
12 0.28
13 0.28
14 0.06
15 0.3
16 0.57
17 0.69
18 0.44
19 0.3
2 -0.68
20 -0.14
23 -0.15
24 -0.15
25 -0.15
26 -0.15
27 0.08
28 0.28
3 -0.68
37 0.4
38 0.4
39 0.37
4 -0.57
40 0.37
43 0.37
5 -0.57
51 0.15
52 0.15
53 0.15
54 0.15
6 -0.36
7 -0.73
8 -0.73
9 -0.73

> <PUBCHEM_EFFECTIVE_ROTOR_COUNT>
12

> <PUBCHEM_PHARMACOPHORE_FEATURES>
14
1 1 acceptor
1 2 acceptor
1 2 donor
1 3 acceptor
1 3 donor
1 4 acceptor
1 5 acceptor
1 6 acceptor
1 7 donor
1 8 donor
1 9 donor
3 19 21 22 hydrophobe
5 1 10 11 12 13 rings
6 20 23 24 25 26 27 rings

> <PUBCHEM_HEAVY_ATOM_COUNT>
28

> <PUBCHEM_ATOM_DEF_STEREO_COUNT>
4

> <PUBCHEM_ATOM_UDEF_STEREO_COUNT>
0

> <PUBCHEM_BOND_DEF_STEREO_COUNT>
0

> <PUBCHEM_BOND_UDEF_STEREO_COUNT>
0

> <PUBCHEM_ISOTOPIC_ATOM_COUNT>
0

> <PUBCHEM_COMPONENT_COUNT>
1

> <PUBCHEM_CACTVS_TAUTO_COUNT>
6

> <PUBCHEM_CONFORMER_ID>
026E389800000001

> <PUBCHEM_MMFF94_ENERGY>
61.9773

> <PUBCHEM_FEATURE_SELFOVERLAP>
71.12

> <PUBCHEM_SHAPE_FINGERPRINT>
10006869 2 18195516004934153270
10498660 4 18266744575699558126
10670039 82 18264784159874537934
1100329 8 18338515360796119398
11112241 14 16915354797292775992
12422481 6 18124570198252560744
12596602 18 17530966886439278802
12978246 48 18409732901990868088
13122387 1 18122344584321513940
13140716 1 18194682789973924986
13402501 40 18412260636394615690
14840074 17 17917705778278409575
15081414 286 18343032064242479654
18785283 64 18262252130566167185
20764821 26 18193837273937353798
22113638 7 18411134779205370086
23227448 37 18341331196842480999
23559900 14 18409722980806864209
3052486 1 18408325484806312948
3298306 158 18194407916488555477
338550 245 18335702814258123636
339767 52 18334850602362081176
3680242 22 18334861571845621066
392239 28 18261968439344706035
463206 1 18269273645669453000
474144 1 17968672608918293524
5265222 85 17470464287615507637
7808743 9 18342170116062415346

> <PUBCHEM_SHAPE_MULTIPOLES>
526.07
11.27
4.59
1.27
3.27
1.67
0.16
-0.05
-1.96
-1.97
0.46
-0.93
0.05
0.3

> <PUBCHEM_SHAPE_SELFOVERLAP>
1078.954

> <PUBCHEM_SHAPE_VOLUME>
304.1

> <PUBCHEM_COORDINATE_TYPE>
2
5
10

$$$$
