7672469
  -OEChem-12032416113D

 54 59  0     1  0  0  0  0  0999 V2000
    3.3462   -1.5730   -0.5456 S   0  0  0  0  0  0  0  0  0  0  0  0
   -3.9796   -1.5232    0.0532 S   0  0  0  0  0  0  0  0  0  0  0  0
    3.3425   -1.9217   -1.9508 O   0  0  0  0  0  0  0  0  0  0  0  0
    2.7963   -2.4729    0.4461 O   0  0  0  0  0  0  0  0  0  0  0  0
   -2.0116    1.0585   -1.7743 O   0  0  0  0  0  0  0  0  0  0  0  0
    2.6373   -0.0280   -0.3500 N   0  0  2  0  0  0  0  0  0  0  0  0
   -0.1727    1.4143   -0.3832 N   0  0  0  0  0  0  0  0  0  0  0  0
    2.0891    2.2284   -1.2673 C   0  0  1  0  0  0  0  0  0  0  0  0
    1.8053    1.7866    1.1319 C   0  0  2  0  0  0  0  0  0  0  0  0
    2.2533    2.8369    0.1191 C   0  0  0  0  0  0  0  0  0  0  0  0
    2.9588    0.9687   -1.4111 C   0  0  0  0  0  0  0  0  0  0  0  0
    2.7139    0.5484    1.0257 C   0  0  0  0  0  0  0  0  0  0  0  0
    0.6022    1.9447   -1.5134 C   0  0  0  0  0  0  0  0  0  0  0  0
    0.3554    1.3976    0.9105 C   0  0  0  0  0  0  0  0  0  0  0  0
   -0.4100    1.0184    1.9468 C   0  0  0  0  0  0  0  0  0  0  0  0
   -1.5008    1.0274   -0.6534 C   0  0  0  0  0  0  0  0  0  0  0  0
   -2.3183    0.5741    0.5247 C   0  0  0  0  0  0  0  0  0  0  0  0
   -1.7677    0.5966    1.7471 C   0  0  0  0  0  0  0  0  0  0  0  0
    5.0116   -1.2102   -0.0850 C   0  0  0  0  0  0  0  0  0  0  0  0
   -3.6651    0.1298    0.3490 C   0  0  0  0  0  0  0  0  0  0  0  0
    5.3904   -1.3359    1.2414 C   0  0  0  0  0  0  0  0  0  0  0  0
    5.9108   -0.8046   -1.0572 C   0  0  0  0  0  0  0  0  0  0  0  0
   -4.8295    0.8689    0.3822 C   0  0  0  0  0  0  0  0  0  0  0  0
    6.7058   -1.0480    1.6058 C   0  0  0  0  0  0  0  0  0  0  0  0
    7.2261   -0.5167   -0.6929 C   0  0  0  0  0  0  0  0  0  0  0  0
   -6.0069    0.0778    0.1626 C   0  0  0  0  0  0  0  0  0  0  0  0
   -5.6828   -1.2681   -0.0342 C   0  0  0  0  0  0  0  0  0  0  0  0
    7.6235   -0.6383    0.6386 C   0  0  0  0  0  0  0  0  0  0  0  0
   -7.3722    0.4506    0.1204 C   0  0  0  0  0  0  0  0  0  0  0  0
   -6.6767   -2.2383   -0.2692 C   0  0  0  0  0  0  0  0  0  0  0  0
   -8.3605   -0.5094   -0.1126 C   0  0  0  0  0  0  0  0  0  0  0  0
   -8.0141   -1.8391   -0.3051 C   0  0  0  0  0  0  0  0  0  0  0  0
    2.4279    2.9482   -2.0230 H   0  0  0  0  0  0  0  0  0  0  0  0
    1.9216    2.2136    2.1368 H   0  0  0  0  0  0  0  0  0  0  0  0
    1.6538    3.7510    0.2140 H   0  0  0  0  0  0  0  0  0  0  0  0
    3.2988    3.1190    0.2936 H   0  0  0  0  0  0  0  0  0  0  0  0
    2.7878    0.5314   -2.4004 H   0  0  0  0  0  0  0  0  0  0  0  0
    4.0125    1.2585   -1.3415 H   0  0  0  0  0  0  0  0  0  0  0  0
    3.7404    0.8539    1.2528 H   0  0  0  0  0  0  0  0  0  0  0  0
    2.4021   -0.2005    1.7623 H   0  0  0  0  0  0  0  0  0  0  0  0
    0.1085    2.8855   -1.7933 H   0  0  0  0  0  0  0  0  0  0  0  0
    0.4749    1.2720   -2.3708 H   0  0  0  0  0  0  0  0  0  0  0  0
   -0.0216    0.9897    2.9595 H   0  0  0  0  0  0  0  0  0  0  0  0
   -2.3182    0.2831    2.6294 H   0  0  0  0  0  0  0  0  0  0  0  0
    4.6919   -1.6514    2.0102 H   0  0  0  0  0  0  0  0  0  0  0  0
    5.6213   -0.7002   -2.0983 H   0  0  0  0  0  0  0  0  0  0  0  0
   -4.8468    1.9385    0.5566 H   0  0  0  0  0  0  0  0  0  0  0  0
    7.0152   -1.1419    2.6427 H   0  0  0  0  0  0  0  0  0  0  0  0
    7.9407   -0.1966   -1.4457 H   0  0  0  0  0  0  0  0  0  0  0  0
    8.6475   -0.4135    0.9224 H   0  0  0  0  0  0  0  0  0  0  0  0
   -7.6591    1.4887    0.2695 H   0  0  0  0  0  0  0  0  0  0  0  0
   -6.4148   -3.2816   -0.4209 H   0  0  0  0  0  0  0  0  0  0  0  0
   -9.4046   -0.2107   -0.1427 H   0  0  0  0  0  0  0  0  0  0  0  0
   -8.7896   -2.5786   -0.4857 H   0  0  0  0  0  0  0  0  0  0  0  0
  1  3  2  0  0  0  0
  1  4  2  0  0  0  0
  1  6  1  0  0  0  0
  1 19  1  0  0  0  0
  2 20  1  0  0  0  0
  2 27  1  0  0  0  0
  5 16  2  0  0  0  0
  6 11  1  0  0  0  0
  6 12  1  0  0  0  0
  7 13  1  0  0  0  0
  7 14  1  0  0  0  0
  7 16  1  0  0  0  0
  8 10  1  0  0  0  0
  8 11  1  0  0  0  0
  8 13  1  0  0  0  0
  8 33  1  0  0  0  0
  9 10  1  0  0  0  0
  9 12  1  0  0  0  0
  9 14  1  0  0  0  0
  9 34  1  0  0  0  0
 10 35  1  0  0  0  0
 10 36  1  0  0  0  0
 11 37  1  0  0  0  0
 11 38  1  0  0  0  0
 12 39  1  0  0  0  0
 12 40  1  0  0  0  0
 13 41  1  0  0  0  0
 13 42  1  0  0  0  0
 14 15  2  0  0  0  0
 15 18  1  0  0  0  0
 15 43  1  0  0  0  0
 16 17  1  0  0  0  0
 17 18  2  0  0  0  0
 17 20  1  0  0  0  0
 18 44  1  0  0  0  0
 19 21  2  0  0  0  0
 19 22  1  0  0  0  0
 20 23  2  0  0  0  0
 21 24  1  0  0  0  0
 21 45  1  0  0  0  0
 22 25  2  0  0  0  0
 22 46  1  0  0  0  0
 23 26  1  0  0  0  0
 23 47  1  0  0  0  0
 24 28  2  0  0  0  0
 24 48  1  0  0  0  0
 25 28  1  0  0  0  0
 25 49  1  0  0  0  0
 26 27  1  0  0  0  0
 26 29  2  0  0  0  0
 27 30  2  0  0  0  0
 28 50  1  0  0  0  0
 29 31  1  0  0  0  0
 29 51  1  0  0  0  0
 30 32  1  0  0  0  0
 30 52  1  0  0  0  0
 31 32  2  0  0  0  0
 31 53  1  0  0  0  0
 32 54  1  0  0  0  0
M  END
> <PUBCHEM_COMPOUND_CID>
7672469

> <PUBCHEM_CONFORMER_RMSD>
0.8

> <PUBCHEM_CONFORMER_DIVERSEORDER>
1
11
12
13
8
17
15
6
3
18
10
14
9
7
2
16
5
4

> <PUBCHEM_MMFF94_PARTIAL_CHARGES>
41
1 1.45
11 0.36
12 0.36
13 0.3
14 -0.03
15 -0.15
16 0.62
17 0.06
18 -0.15
19 -0.01
2 -0.08
20 -0.01
21 -0.15
22 -0.15
23 -0.15
24 -0.15
25 -0.15
27 0.04
28 -0.15
29 -0.15
3 -0.65
30 -0.15
31 -0.15
32 -0.15
4 -0.65
43 0.15
44 0.15
45 0.15
46 0.15
47 0.15
48 0.15
49 0.15
5 -0.57
50 0.15
51 0.15
52 0.15
53 0.15
54 0.15
6 -0.85
7 -0.47
9 0.14

> <PUBCHEM_EFFECTIVE_ROTOR_COUNT>
4

> <PUBCHEM_PHARMACOPHORE_FEATURES>
9
1 3 acceptor
1 4 acceptor
1 5 acceptor
5 2 20 23 26 27 rings
6 19 21 22 24 25 28 rings
6 26 27 29 30 31 32 rings
6 6 8 9 10 11 12 rings
6 7 14 15 16 17 18 rings
6 7 8 9 10 13 14 rings

> <PUBCHEM_HEAVY_ATOM_COUNT>
32

> <PUBCHEM_ATOM_DEF_STEREO_COUNT>
2

> <PUBCHEM_ATOM_UDEF_STEREO_COUNT>
0

> <PUBCHEM_BOND_DEF_STEREO_COUNT>
0

> <PUBCHEM_BOND_UDEF_STEREO_COUNT>
0

> <PUBCHEM_ISOTOPIC_ATOM_COUNT>
0

> <PUBCHEM_COMPONENT_COUNT>
1

> <PUBCHEM_CACTVS_TAUTO_COUNT>
1

> <PUBCHEM_CONFORMER_ID>
0075129500000001

> <PUBCHEM_MMFF94_ENERGY>
75.566

> <PUBCHEM_FEATURE_SELFOVERLAP>
47.336

> <PUBCHEM_SHAPE_FINGERPRINT>
10 15 15051732001584264384
10165383 225 12031784769396392336
106641 1 16128651959675679394
10670039 82 14996274795922534151
11115154 58 17967817124426866093
11135609 99 18131069380601875950
11796584 16 18059304261727110479
11828532 37 15141546730075528369
12107698 1 17749108880908897212
12133447 93 18199762357384268260
12522641 33 17896324804431259428
13533116 47 18342741857976908545
13540713 4 16227757647337594113
13540713 5 15121792973075699377
13673619 4 18408038515986734061
13685833 64 18412544310030740825
13690498 29 17385995157710026109
13782708 43 18334856121305125811
14068700 675 18409730647191612304
14294032 229 15431422942370136349
15183329 4 18113057134398243939
15439362 3 17606409993176152708
15510800 12 18341063985695078195
15721738 202 17275384292345952730
15728490 51 17917989503886769142
15840311 113 14333122001729540568
15849732 13 17632857520698705543
18335252 114 12540691539567706794
18603816 31 18270952549272216031
20105231 36 16415203369462329494
2026 5 18413669102538544135
20554085 129 10807935998379748720
21344244 78 17703789223852944272
21641784 216 15140949644354957687
21792934 111 15482402980271330897
22224240 67 13686295781438412117
23522609 53 17971222290178552012
23559900 14 16515695488665449733
23569943 247 17895469224990544651
23576562 1 14563105809508845791
249057 3 18335138709232474939
2838139 119 8069738568467781842
3004659 81 18409728482606579883
3383291 50 17989209270075622039
4066623 53 16081088182270507252
4098825 35 17894347765705410565
4112364 45 15697705021768282976
4149490 64 18264772236928974395
439807 62 17749106681901465495
4461854 278 17060342954324969814
5028188 123 17986973864652349852
57035037 87 14635161170395486574
5758199 1 11455890265101368501
59682541 35 17917702510140788706
59755656 520 10591751061434839456
6004065 56 18409450297585581776
6126387 218 17988923354165004601
6438161 24 18408881854379466803
9689198 14 10665233648079488367
9962374 69 18339919433087517351

> <PUBCHEM_SHAPE_MULTIPOLES>
638.67
22.41
2.47
1.54
18.25
0.18
-0.03
-15.29
-0.29
-0.69
0.37
-1.66
0.32
-0.68

> <PUBCHEM_SHAPE_SELFOVERLAP>
1400.68

> <PUBCHEM_SHAPE_VOLUME>
345.1

> <PUBCHEM_COORDINATE_TYPE>
2
5
10

$$$$
