26743984
  -OEChem-12032416283D

 43 46  0     1  0  0  0  0  0999 V2000
   -2.4082    3.7819    0.0330 O   0  0  0  0  0  0  0  0  0  0  0  0
   -3.8076   -3.5363   -1.0115 O   0  0  0  0  0  0  0  0  0  0  0  0
    0.4694   -1.2593    1.9904 O   0  0  0  0  0  0  0  0  0  0  0  0
   -2.2386   -0.3965   -0.3400 N   0  0  1  0  0  0  0  0  0  0  0  0
    0.7349   -0.5648   -0.1224 N   0  0  0  0  0  0  0  0  0  0  0  0
    1.8297   -0.9572    1.8477 N   0  0  0  0  0  0  0  0  0  0  0  0
    5.5170    0.2478    0.1862 N   0  0  0  0  0  0  0  0  0  0  0  0
   -2.6289    0.9148    0.1725 C   0  0  0  0  0  0  0  0  0  0  0  0
   -1.5914   -1.2501    0.6769 C   0  0  1  0  0  0  0  0  0  0  0  0
   -3.3825   -1.1517   -0.8474 C   0  0  0  0  0  0  0  0  0  0  0  0
   -1.9246   -2.6920    0.2504 C   0  0  0  0  0  0  0  0  0  0  0  0
   -2.7993   -2.5448   -0.9884 C   0  0  1  0  0  0  0  0  0  0  0  0
   -1.4024    1.6700    0.6925 C   0  0  0  0  0  0  0  0  0  0  0  0
   -3.3342    1.7411   -0.9075 C   0  0  0  0  0  0  0  0  0  0  0  0
   -0.1019   -1.0008    0.7849 C   0  0  0  0  0  0  0  0  0  0  0  0
   -1.7892    3.0836    1.1134 C   0  0  0  0  0  0  0  0  0  0  0  0
   -3.6141    3.1506   -0.3978 C   0  0  0  0  0  0  0  0  0  0  0  0
    1.9073   -0.5546    0.5759 C   0  0  0  0  0  0  0  0  0  0  0  0
    3.1399   -0.1376   -0.0277 C   0  0  0  0  0  0  0  0  0  0  0  0
    3.1851    0.2742   -1.3550 C   0  0  0  0  0  0  0  0  0  0  0  0
    4.3229   -0.1326    0.6935 C   0  0  0  0  0  0  0  0  0  0  0  0
    4.3949    0.6728   -1.9126 C   0  0  0  0  0  0  0  0  0  0  0  0
    5.5218    0.6417   -1.1071 C   0  0  0  0  0  0  0  0  0  0  0  0
   -3.3308    0.7903    1.0103 H   0  0  0  0  0  0  0  0  0  0  0  0
   -2.0463   -1.0867    1.6643 H   0  0  0  0  0  0  0  0  0  0  0  0
   -3.7343   -0.7973   -1.8218 H   0  0  0  0  0  0  0  0  0  0  0  0
   -4.2339   -1.1545   -0.1539 H   0  0  0  0  0  0  0  0  0  0  0  0
   -1.0371   -3.2923    0.0191 H   0  0  0  0  0  0  0  0  0  0  0  0
   -2.4662   -3.2095    1.0522 H   0  0  0  0  0  0  0  0  0  0  0  0
   -2.1956   -2.6241   -1.9009 H   0  0  0  0  0  0  0  0  0  0  0  0
   -0.6436    1.7430   -0.0965 H   0  0  0  0  0  0  0  0  0  0  0  0
   -0.9628    1.1977    1.5745 H   0  0  0  0  0  0  0  0  0  0  0  0
   -4.2856    1.2922   -1.2115 H   0  0  0  0  0  0  0  0  0  0  0  0
   -2.6932    1.8062   -1.7965 H   0  0  0  0  0  0  0  0  0  0  0  0
   -2.4664    3.0731    1.9758 H   0  0  0  0  0  0  0  0  0  0  0  0
   -0.8945    3.6441    1.4029 H   0  0  0  0  0  0  0  0  0  0  0  0
   -4.0393    3.7594   -1.2021 H   0  0  0  0  0  0  0  0  0  0  0  0
   -4.3360    3.1412    0.4273 H   0  0  0  0  0  0  0  0  0  0  0  0
   -3.3653   -4.4023   -1.0254 H   0  0  0  0  0  0  0  0  0  0  0  0
    2.2944    0.2949   -1.9777 H   0  0  0  0  0  0  0  0  0  0  0  0
    4.3733   -0.4392    1.7341 H   0  0  0  0  0  0  0  0  0  0  0  0
    4.4541    0.9977   -2.9450 H   0  0  0  0  0  0  0  0  0  0  0  0
    6.4896    0.9427   -1.4944 H   0  0  0  0  0  0  0  0  0  0  0  0
  1 16  1  0  0  0  0
  1 17  1  0  0  0  0
  2 12  1  0  0  0  0
  2 39  1  0  0  0  0
  3  6  1  0  0  0  0
  3 15  1  0  0  0  0
  4  8  1  0  0  0  0
  4  9  1  0  0  0  0
  4 10  1  0  0  0  0
  5 15  2  0  0  0  0
  5 18  1  0  0  0  0
  6 18  2  0  0  0  0
  7 21  1  0  0  0  0
  7 23  2  0  0  0  0
  8 13  1  0  0  0  0
  8 14  1  0  0  0  0
  8 24  1  0  0  0  0
  9 11  1  0  0  0  0
  9 15  1  0  0  0  0
  9 25  1  0  0  0  0
 10 12  1  0  0  0  0
 10 26  1  0  0  0  0
 10 27  1  0  0  0  0
 11 12  1  0  0  0  0
 11 28  1  0  0  0  0
 11 29  1  0  0  0  0
 12 30  1  0  0  0  0
 13 16  1  0  0  0  0
 13 31  1  0  0  0  0
 13 32  1  0  0  0  0
 14 17  1  0  0  0  0
 14 33  1  0  0  0  0
 14 34  1  0  0  0  0
 16 35  1  0  0  0  0
 16 36  1  0  0  0  0
 17 37  1  0  0  0  0
 17 38  1  0  0  0  0
 18 19  1  0  0  0  0
 19 20  1  0  0  0  0
 19 21  2  0  0  0  0
 20 22  2  0  0  0  0
 20 40  1  0  0  0  0
 21 41  1  0  0  0  0
 22 23  1  0  0  0  0
 22 42  1  0  0  0  0
 23 43  1  0  0  0  0
M  END
> <PUBCHEM_COMPOUND_CID>
26743984

> <PUBCHEM_CONFORMER_RMSD>
0.8

> <PUBCHEM_CONFORMER_DIVERSEORDER>
1
10
21
25
34
8
18
16
15
23
17
29
12
27
24
4
22
9
35
5
26
20
13
28
14
32
2
19
6
30
7
31
11
3
33

> <PUBCHEM_MMFF94_PARTIAL_CHARGES>
25
1 -0.56
10 0.27
12 0.28
15 0.3
16 0.28
17 0.28
18 0.46
19 0.05
2 -0.68
20 -0.15
21 0.16
22 -0.15
23 0.16
3 -0.02
39 0.4
4 -0.81
40 0.15
41 0.15
42 0.15
43 0.15
5 -0.57
6 -0.41
7 -0.62
8 0.27
9 0.45

> <PUBCHEM_EFFECTIVE_ROTOR_COUNT>
5.2

> <PUBCHEM_PHARMACOPHORE_FEATURES>
10
1 1 acceptor
1 2 acceptor
1 2 donor
1 4 cation
1 7 acceptor
3 5 6 18 cation
5 3 5 6 15 18 rings
5 4 9 10 11 12 rings
6 1 8 13 14 16 17 rings
6 7 19 20 21 22 23 rings

> <PUBCHEM_HEAVY_ATOM_COUNT>
23

> <PUBCHEM_ATOM_DEF_STEREO_COUNT>
2

> <PUBCHEM_ATOM_UDEF_STEREO_COUNT>
0

> <PUBCHEM_BOND_DEF_STEREO_COUNT>
0

> <PUBCHEM_BOND_UDEF_STEREO_COUNT>
0

> <PUBCHEM_ISOTOPIC_ATOM_COUNT>
0

> <PUBCHEM_COMPONENT_COUNT>
1

> <PUBCHEM_CACTVS_TAUTO_COUNT>
1

> <PUBCHEM_CONFORMER_ID>
019814B000000001

> <PUBCHEM_MMFF94_ENERGY>
45.4095

> <PUBCHEM_FEATURE_SELFOVERLAP>
50.747

> <PUBCHEM_SHAPE_FINGERPRINT>
10498660 4 18342171129226076864
10673678 19 17611452040216720309
10871710 139 18259990366196623685
10937287 8 17908709427642390993
11049842 53 17982718684831671146
11477941 20 18200032996676014596
11640471 11 18041842783662907473
12107183 9 17974278821292886322
12173636 292 18268422435060180797
12553582 1 18267290114436232499
12788726 201 18335411396569409499
13583140 156 17703776012902435914
13828863 39 14348942891246816286
13994607 96 17968681357297254545
14142880 1 17968097486943074533
14251757 5 18412825806914837247
14420673 8 8933908572142317560
14739800 52 18265030562480710072
14767858 380 18266157480352830485
14790565 3 18126851482753664033
15463212 79 18334290925041610971
15475509 8 18130786815706006495
15534591 1 18261117326743844275
15842332 3 18042105601317814418
16994733 274 15286175369245426287
17492 54 18263063454542493661
17818456 19 18122612861201328186
1813 80 17913776291008762743
18785283 64 17403749844015996667
20300324 65 18410013281787860974
20642791 239 18187915227723693805
21033650 10 18265077802704081204
21756936 100 17895495664750903240
22393880 68 18201169758787088422
22620623 9 18059851787972995239
22907989 373 18340193142562851759
235170 7 17704080611824566188
23557571 272 18202281433149744616
25147074 1 18041545954468426826
255183 451 17623282085267653935
266924 1 18114730569072776299
312425 83 18267612185606563670
3268164 11 18341895224932355302
341906 21 18410851062920810760
3610482 184 18043275529535282100
469060 322 17969810577561983681
474 4 17603871048806690952
4921388 177 17846227639099151769
5048184 11 18263085409639908852
531348 171 18341343193387615998
621550 5 17559961106932271923
633830 44 17531539689553903466
7808743 9 18338515235878603737

> <PUBCHEM_SHAPE_MULTIPOLES>
435.8
9.96
3.72
1.5
13.81
1.24
0.07
2.04
-4.05
-7.55
-0.25
0.92
-0.21
-1.46

> <PUBCHEM_SHAPE_SELFOVERLAP>
940.092

> <PUBCHEM_SHAPE_VOLUME>
239.7

> <PUBCHEM_COORDINATE_TYPE>
2
5
10

$$$$
