45783415
  -OEChem-12032416403D

 53 56  0     1  0  0  0  0  0999 V2000
   -0.7227   -0.1741    2.7401 O   0  0  0  0  0  0  0  0  0  0  0  0
   -1.5784    1.8678   -0.8175 O   0  0  0  0  0  0  0  0  0  0  0  0
    1.6984   -0.4060   -1.2089 O   0  0  0  0  0  0  0  0  0  0  0  0
    1.6695    2.7525   -1.2378 O   0  0  0  0  0  0  0  0  0  0  0  0
   -0.3499   -1.5035   -2.7686 O   0  0  0  0  0  0  0  0  0  0  0  0
   -3.0299   -0.5092    0.1108 N   0  0  1  0  0  0  0  0  0  0  0  0
   -0.0054   -1.0181    0.7932 N   0  0  0  0  0  0  0  0  0  0  0  0
    0.6642    0.0204    2.7187 N   0  0  0  0  0  0  0  0  0  0  0  0
    3.9575   -0.5008   -0.7458 N   0  0  0  0  0  0  0  0  0  0  0  0
   -2.4964   -1.1157    1.3469 C   0  0  1  0  0  0  0  0  0  0  0  0
   -2.7524   -2.6253    1.1839 C   0  0  0  0  0  0  0  0  0  0  0  0
   -3.4865   -2.7634   -0.1423 C   0  0  0  0  0  0  0  0  0  0  0  0
   -4.0980   -1.3935   -0.3558 C   0  0  0  0  0  0  0  0  0  0  0  0
   -3.4935    0.8598    0.2963 C   0  0  0  0  0  0  0  0  0  0  0  0
   -1.0342   -0.7914    1.5703 C   0  0  0  0  0  0  0  0  0  0  0  0
   -2.3527    1.8425    0.2989 C   0  0  0  0  0  0  0  0  0  0  0  0
   -1.9019    2.7588    1.2206 C   0  0  0  0  0  0  0  0  0  0  0  0
    1.0140   -0.5028    1.5398 C   0  0  0  0  0  0  0  0  0  0  0  0
   -0.6227    2.8107   -0.6063 C   0  0  0  0  0  0  0  0  0  0  0  0
   -0.7786    3.3876    0.6326 C   0  0  0  0  0  0  0  0  0  0  0  0
    2.3723   -0.5281    1.0794 C   0  0  0  0  0  0  0  0  0  0  0  0
    0.3413    3.0151   -1.6968 C   0  0  0  0  0  0  0  0  0  0  0  0
    2.6931   -0.4798   -0.2677 C   0  0  0  0  0  0  0  0  0  0  0  0
    3.4162   -0.6026    1.9947 C   0  0  0  0  0  0  0  0  0  0  0  0
    4.7306   -0.6262    1.5415 C   0  0  0  0  0  0  0  0  0  0  0  0
    4.9459   -0.5736    0.1737 C   0  0  0  0  0  0  0  0  0  0  0  0
    1.9711   -0.9961   -2.4739 C   0  0  0  0  0  0  0  0  0  0  0  0
    0.7553   -0.8369   -3.3665 C   0  0  0  0  0  0  0  0  0  0  0  0
   -1.5262   -1.3682   -3.5537 C   0  0  0  0  0  0  0  0  0  0  0  0
   -3.0691   -0.7805    2.2232 H   0  0  0  0  0  0  0  0  0  0  0  0
   -1.8422   -3.2347    1.1903 H   0  0  0  0  0  0  0  0  0  0  0  0
   -3.3976   -2.9791    1.9974 H   0  0  0  0  0  0  0  0  0  0  0  0
   -4.2376   -3.5584   -0.1180 H   0  0  0  0  0  0  0  0  0  0  0  0
   -2.7703   -2.9964   -0.9390 H   0  0  0  0  0  0  0  0  0  0  0  0
   -5.0085   -1.2851    0.2472 H   0  0  0  0  0  0  0  0  0  0  0  0
   -4.3453   -1.2228   -1.4081 H   0  0  0  0  0  0  0  0  0  0  0  0
   -4.1009    0.9732    1.2029 H   0  0  0  0  0  0  0  0  0  0  0  0
   -4.1380    1.1481   -0.5453 H   0  0  0  0  0  0  0  0  0  0  0  0
   -2.3272    2.9498    2.1954 H   0  0  0  0  0  0  0  0  0  0  0  0
   -0.1607    4.1637    1.0611 H   0  0  0  0  0  0  0  0  0  0  0  0
    0.1338    2.3550   -2.5435 H   0  0  0  0  0  0  0  0  0  0  0  0
    0.3003    4.0507   -2.0491 H   0  0  0  0  0  0  0  0  0  0  0  0
    3.2361   -0.6505    3.0658 H   0  0  0  0  0  0  0  0  0  0  0  0
    5.5603   -0.6856    2.2364 H   0  0  0  0  0  0  0  0  0  0  0  0
    2.2638    2.8943   -1.9943 H   0  0  0  0  0  0  0  0  0  0  0  0
    5.9524   -0.5896   -0.2311 H   0  0  0  0  0  0  0  0  0  0  0  0
    2.1905   -2.0612   -2.3315 H   0  0  0  0  0  0  0  0  0  0  0  0
    2.8244   -0.5034   -2.9540 H   0  0  0  0  0  0  0  0  0  0  0  0
    0.5117    0.2244   -3.4803 H   0  0  0  0  0  0  0  0  0  0  0  0
    0.9585   -1.2685   -4.3528 H   0  0  0  0  0  0  0  0  0  0  0  0
   -2.3307   -1.9308   -3.0749 H   0  0  0  0  0  0  0  0  0  0  0  0
   -1.3688   -1.7748   -4.5575 H   0  0  0  0  0  0  0  0  0  0  0  0
   -1.8242   -0.3170   -3.6148 H   0  0  0  0  0  0  0  0  0  0  0  0
  1  8  1  0  0  0  0
  1 15  1  0  0  0  0
  2 16  1  0  0  0  0
  2 19  1  0  0  0  0
  3 23  1  0  0  0  0
  3 27  1  0  0  0  0
  4 22  1  0  0  0  0
  4 45  1  0  0  0  0
  5 28  1  0  0  0  0
  5 29  1  0  0  0  0
  6 10  1  0  0  0  0
  6 13  1  0  0  0  0
  6 14  1  0  0  0  0
  7 15  2  0  0  0  0
  7 18  1  0  0  0  0
  8 18  2  0  0  0  0
  9 23  1  0  0  0  0
  9 26  2  0  0  0  0
 10 11  1  0  0  0  0
 10 15  1  0  0  0  0
 10 30  1  0  0  0  0
 11 12  1  0  0  0  0
 11 31  1  0  0  0  0
 11 32  1  0  0  0  0
 12 13  1  0  0  0  0
 12 33  1  0  0  0  0
 12 34  1  0  0  0  0
 13 35  1  0  0  0  0
 13 36  1  0  0  0  0
 14 16  1  0  0  0  0
 14 37  1  0  0  0  0
 14 38  1  0  0  0  0
 16 17  2  0  0  0  0
 17 20  1  0  0  0  0
 17 39  1  0  0  0  0
 18 21  1  0  0  0  0
 19 20  2  0  0  0  0
 19 22  1  0  0  0  0
 20 40  1  0  0  0  0
 21 23  2  0  0  0  0
 21 24  1  0  0  0  0
 22 41  1  0  0  0  0
 22 42  1  0  0  0  0
 24 25  2  0  0  0  0
 24 43  1  0  0  0  0
 25 26  1  0  0  0  0
 25 44  1  0  0  0  0
 26 46  1  0  0  0  0
 27 28  1  0  0  0  0
 27 47  1  0  0  0  0
 27 48  1  0  0  0  0
 28 49  1  0  0  0  0
 28 50  1  0  0  0  0
 29 51  1  0  0  0  0
 29 52  1  0  0  0  0
 29 53  1  0  0  0  0
M  END
> <PUBCHEM_COMPOUND_CID>
45783415

> <PUBCHEM_CONFORMER_RMSD>
1

> <PUBCHEM_CONFORMER_DIVERSEORDER>
1
103
11
119
122
77
62
19
88
70
98
101
26
2
120
94
8
18
75
129
123
64
91
23
12
82
31
7
100
131
53
93
25
37
28
74
96
29
67
49
32
38
39
113
114
109
16
76
46
81
135
13
47
33
69
125
65
132
14
95
121
36
126
58
45
134
124
117
72
130
51
15
54
61
115
60
104
83
17
78
30
66
105
48
112
73
5
108
22
40
106
63
41
6
110
55
35
3
20
34
116
68
99
107
80
56
21
127
9
89
87
42
90
24
97
57
50
92
59
43
10
44
71
52
128
85
118
102
111
4
79
133
27
84
86

> <PUBCHEM_MMFF94_PARTIAL_CHARGES>
33
1 -0.02
10 0.45
13 0.27
14 0.45
15 0.3
16 -0.04
17 -0.15
18 0.46
19 -0.04
2 -0.28
20 -0.15
21 0.05
22 0.46
23 0.39
24 -0.15
25 -0.15
26 0.16
27 0.28
28 0.28
29 0.28
3 -0.36
39 0.15
4 -0.68
40 0.15
43 0.15
44 0.15
45 0.4
46 0.15
5 -0.56
6 -0.81
7 -0.57
8 -0.41
9 -0.62

> <PUBCHEM_EFFECTIVE_ROTOR_COUNT>
10

> <PUBCHEM_PHARMACOPHORE_FEATURES>
12
1 2 acceptor
1 3 acceptor
1 4 acceptor
1 4 donor
1 5 acceptor
1 6 cation
1 9 acceptor
3 7 8 18 cation
5 1 7 8 15 18 rings
5 2 16 17 19 20 rings
5 6 10 11 12 13 rings
6 9 21 23 24 25 26 rings

> <PUBCHEM_HEAVY_ATOM_COUNT>
29

> <PUBCHEM_ATOM_DEF_STEREO_COUNT>
1

> <PUBCHEM_ATOM_UDEF_STEREO_COUNT>
0

> <PUBCHEM_BOND_DEF_STEREO_COUNT>
0

> <PUBCHEM_BOND_UDEF_STEREO_COUNT>
0

> <PUBCHEM_ISOTOPIC_ATOM_COUNT>
0

> <PUBCHEM_COMPONENT_COUNT>
1

> <PUBCHEM_CACTVS_TAUTO_COUNT>
1

> <PUBCHEM_CONFORMER_ID>
02BA997700000001

> <PUBCHEM_MMFF94_ENERGY>
48.5523

> <PUBCHEM_FEATURE_SELFOVERLAP>
60.951

> <PUBCHEM_SHAPE_FINGERPRINT>
11578080 2 17199986312846691024
12166972 35 17022907882012693915
13583140 156 18129080270284986698
13615921 28 18188207705694220173
14910302 57 18199466571924913954
20600515 1 18409169883645303525
20905425 154 18048612696094024301
22121540 332 17119208359467431105
23419403 2 17462256304812274004
23557571 272 18271814496855746059
35225 105 17764545933978926453
469060 322 17772159098703353430
5845 1 9863392885196532177
7471813 234 18188488111530087362

> <PUBCHEM_SHAPE_MULTIPOLES>
547.54
7.01
3.4
3.26
5.16
2.95
-2.16
-3.55
2.33
-3.14
-1.1
0.75
-1.43
-0.11

> <PUBCHEM_SHAPE_SELFOVERLAP>
1172.002

> <PUBCHEM_SHAPE_VOLUME>
305.9

> <PUBCHEM_COORDINATE_TYPE>
2
5
10

$$$$
