45783486
  -OEChem-12032416263D

 49 51  0     1  0  0  0  0  0999 V2000
   -2.4574   -1.4118    1.6563 O   0  0  0  0  0  0  0  0  0  0  0  0
    7.3190    1.2911   -0.1183 O   0  0  0  0  0  0  0  0  0  0  0  0
   -4.4393    0.4819   -0.5426 N   0  0  1  0  0  0  0  0  0  0  0  0
   -1.5162   -0.6236   -0.2172 N   0  0  0  0  0  0  0  0  0  0  0  0
   -1.0776   -1.3846    1.8953 N   0  0  0  0  0  0  0  0  0  0  0  0
    3.0734   -0.8334    1.3686 N   0  0  0  0  0  0  0  0  0  0  0  0
    4.8830   -0.1561   -0.0251 N   0  0  0  0  0  0  0  0  0  0  0  0
   -4.0551   -0.8780   -0.1147 C   0  0  1  0  0  0  0  0  0  0  0  0
   -4.2905   -1.7596   -1.3551 C   0  0  0  0  0  0  0  0  0  0  0  0
   -5.4453    0.3163   -1.5920 C   0  0  0  0  0  0  0  0  0  0  0  0
   -4.8635   -0.8208   -2.4073 C   0  0  0  0  0  0  0  0  0  0  0  0
   -4.9211    1.3141    0.5524 C   0  0  0  0  0  0  0  0  0  0  0  0
   -2.6293   -0.9484    0.3905 C   0  0  0  0  0  0  0  0  0  0  0  0
   -4.7878    2.7918    0.1931 C   0  0  0  0  0  0  0  0  0  0  0  0
   -5.2645    3.6831    1.3295 C   0  0  0  0  0  0  0  0  0  0  0  0
   -0.5916   -0.9084    0.7451 C   0  0  0  0  0  0  0  0  0  0  0  0
    0.8113   -0.7069    0.5248 C   0  0  0  0  0  0  0  0  0  0  0  0
    1.2828   -0.2108   -0.6856 C   0  0  0  0  0  0  0  0  0  0  0  0
    1.7394   -0.9999    1.5110 C   0  0  0  0  0  0  0  0  0  0  0  0
    2.6485   -0.0256   -0.8701 C   0  0  0  0  0  0  0  0  0  0  0  0
    3.4944   -0.3492    0.1785 C   0  0  0  0  0  0  0  0  0  0  0  0
    5.4197    0.3486   -1.2469 C   0  0  0  0  0  0  0  0  0  0  0  0
    6.9356    0.4069   -1.1639 C   0  0  0  0  0  0  0  0  0  0  0  0
    8.7323    1.3834   -0.0061 C   0  0  0  0  0  0  0  0  0  0  0  0
   -4.7301   -1.2333    0.6771 H   0  0  0  0  0  0  0  0  0  0  0  0
   -3.3878   -2.2563   -1.7268 H   0  0  0  0  0  0  0  0  0  0  0  0
   -5.0271   -2.5374   -1.1189 H   0  0  0  0  0  0  0  0  0  0  0  0
   -6.4222    0.0250   -1.1858 H   0  0  0  0  0  0  0  0  0  0  0  0
   -5.5682    1.2155   -2.2029 H   0  0  0  0  0  0  0  0  0  0  0  0
   -5.6115   -1.3120   -3.0365 H   0  0  0  0  0  0  0  0  0  0  0  0
   -4.0590   -0.4538   -3.0568 H   0  0  0  0  0  0  0  0  0  0  0  0
   -5.9527    1.0658    0.8325 H   0  0  0  0  0  0  0  0  0  0  0  0
   -4.3082    1.1424    1.4471 H   0  0  0  0  0  0  0  0  0  0  0  0
   -3.7419    3.0314   -0.0346 H   0  0  0  0  0  0  0  0  0  0  0  0
   -5.3760    3.0277   -0.7012 H   0  0  0  0  0  0  0  0  0  0  0  0
   -4.6768    3.5110    2.2368 H   0  0  0  0  0  0  0  0  0  0  0  0
   -5.1610    4.7372    1.0533 H   0  0  0  0  0  0  0  0  0  0  0  0
   -6.3178    3.4945    1.5607 H   0  0  0  0  0  0  0  0  0  0  0  0
    0.6092    0.0400   -1.5010 H   0  0  0  0  0  0  0  0  0  0  0  0
    1.4540   -1.3904    2.4834 H   0  0  0  0  0  0  0  0  0  0  0  0
    2.9816    0.3641   -1.8247 H   0  0  0  0  0  0  0  0  0  0  0  0
    5.4907   -0.3931    0.7507 H   0  0  0  0  0  0  0  0  0  0  0  0
    5.1497   -0.2948   -2.0923 H   0  0  0  0  0  0  0  0  0  0  0  0
    5.0439    1.3621   -1.4324 H   0  0  0  0  0  0  0  0  0  0  0  0
    7.3442   -0.5917   -0.9664 H   0  0  0  0  0  0  0  0  0  0  0  0
    7.3398    0.7699   -2.1160 H   0  0  0  0  0  0  0  0  0  0  0  0
    9.1633    0.4054    0.2292 H   0  0  0  0  0  0  0  0  0  0  0  0
    9.1663    1.7742   -0.9315 H   0  0  0  0  0  0  0  0  0  0  0  0
    8.9686    2.0734    0.8083 H   0  0  0  0  0  0  0  0  0  0  0  0
  1  5  1  0  0  0  0
  1 13  1  0  0  0  0
  2 23  1  0  0  0  0
  2 24  1  0  0  0  0
  3  8  1  0  0  0  0
  3 10  1  0  0  0  0
  3 12  1  0  0  0  0
  4 13  2  0  0  0  0
  4 16  1  0  0  0  0
  5 16  2  0  0  0  0
  6 19  1  0  0  0  0
  6 21  2  0  0  0  0
  7 21  1  0  0  0  0
  7 22  1  0  0  0  0
  7 42  1  0  0  0  0
  8  9  1  0  0  0  0
  8 13  1  0  0  0  0
  8 25  1  0  0  0  0
  9 11  1  0  0  0  0
  9 26  1  0  0  0  0
  9 27  1  0  0  0  0
 10 11  1  0  0  0  0
 10 28  1  0  0  0  0
 10 29  1  0  0  0  0
 11 30  1  0  0  0  0
 11 31  1  0  0  0  0
 12 14  1  0  0  0  0
 12 32  1  0  0  0  0
 12 33  1  0  0  0  0
 14 15  1  0  0  0  0
 14 34  1  0  0  0  0
 14 35  1  0  0  0  0
 15 36  1  0  0  0  0
 15 37  1  0  0  0  0
 15 38  1  0  0  0  0
 16 17  1  0  0  0  0
 17 18  1  0  0  0  0
 17 19  2  0  0  0  0
 18 20  2  0  0  0  0
 18 39  1  0  0  0  0
 19 40  1  0  0  0  0
 20 21  1  0  0  0  0
 20 41  1  0  0  0  0
 22 23  1  0  0  0  0
 22 43  1  0  0  0  0
 22 44  1  0  0  0  0
 23 45  1  0  0  0  0
 23 46  1  0  0  0  0
 24 47  1  0  0  0  0
 24 48  1  0  0  0  0
 24 49  1  0  0  0  0
M  END
> <PUBCHEM_COMPOUND_CID>
45783486

> <PUBCHEM_CONFORMER_RMSD>
1

> <PUBCHEM_CONFORMER_DIVERSEORDER>
1
27
49
50
11
31
5
42
28
22
41
30
48
36
45
21
12
4
53
47
35
20
51
6
37
39
29
38
9
43
23
25
15
44
3
18
7
33
24
34
19
32
2
8
10
26
16
13
14
52
17
46
40

> <PUBCHEM_MMFF94_PARTIAL_CHARGES>
24
1 -0.02
10 0.27
12 0.27
13 0.3
16 0.46
17 0.05
18 -0.15
19 0.16
2 -0.56
20 -0.15
21 0.41
22 0.37
23 0.28
24 0.28
3 -0.81
39 0.15
4 -0.57
40 0.15
41 0.15
42 0.4
5 -0.41
6 -0.62
7 -0.87
8 0.45

> <PUBCHEM_EFFECTIVE_ROTOR_COUNT>
9

> <PUBCHEM_PHARMACOPHORE_FEATURES>
9
1 15 hydrophobe
1 2 acceptor
1 3 cation
1 7 donor
3 4 5 16 cation
3 6 7 21 cation
5 1 4 5 13 16 rings
5 3 8 9 10 11 rings
6 6 17 18 19 20 21 rings

> <PUBCHEM_HEAVY_ATOM_COUNT>
24

> <PUBCHEM_ATOM_DEF_STEREO_COUNT>
1

> <PUBCHEM_ATOM_UDEF_STEREO_COUNT>
0

> <PUBCHEM_BOND_DEF_STEREO_COUNT>
0

> <PUBCHEM_BOND_UDEF_STEREO_COUNT>
0

> <PUBCHEM_ISOTOPIC_ATOM_COUNT>
0

> <PUBCHEM_COMPONENT_COUNT>
1

> <PUBCHEM_CACTVS_TAUTO_COUNT>
8

> <PUBCHEM_CONFORMER_ID>
02BA99BE00000001

> <PUBCHEM_MMFF94_ENERGY>
44.9935

> <PUBCHEM_FEATURE_SELFOVERLAP>
45.671

> <PUBCHEM_SHAPE_FINGERPRINT>
10 15 14851609894892720606
10087517 78 18408323267717796628
10906281 52 17895772741844632966
10917259 128 18199176301383001416
11089746 13 18335136535994711204
11315181 36 18261110815510022542
11963148 33 13973969801055503708
12082328 90 18342741822900005591
12596602 18 11314031288102654646
12895837 130 18343026558437719905
13288520 33 13973972016683334763
13690498 29 17346307254892745815
13782708 43 11383835940066004332
14344974 204 11675179071906898608
14729087 3 17967810587775901820
14844126 61 11747233350978600469
15081414 286 17167867426705328766
15183329 4 18201717340729923342
15188451 53 10809640233197728809
15348495 7 12179850506613155574
15352257 5 8646497319263037748
15716309 27 10664102267952729230
1754908 1 7853577860709971276
17780758 139 10881399838030266383
18643901 69 16845285095220174351
18927931 339 14117524259364156095
20281389 69 16370723768621083598
21033650 10 18131351886882252363
21150785 3 18271241724528773526
21709351 56 17060335236357726417
21756936 100 18335147471150187105
21774942 28 18412548674635885452
22393880 68 17060047134594884743
23081809 10 18409722942151859658
23198884 109 18413389834683601271
23559900 14 17968093183549243956
2838139 119 18411422842973739900
328310 18 18202009789654316617
328310 630 17895203241749880116
4169191 19 17821726152778471828
445580 167 14189571975578625248
445580 204 18408606946418580488
46194498 28 16772079610779142601
5104073 3 17167866365742730274
531348 171 17988363663701968495
543368 44 18187363229562012365
633830 44 18116153260474364739
636775 72 18408324415212821928
636775 8 15123233307732799020
7226269 152 17385719210050347764
7495541 125 8286188449334982142
9953998 17 11386365941796058069

> <PUBCHEM_SHAPE_MULTIPOLES>
457.27
20.12
2.33
1.75
36.39
2.96
-0.01
12.33
-8.06
-5.49
0.49
-1.2
-0.7
-1.96

> <PUBCHEM_SHAPE_SELFOVERLAP>
950.976

> <PUBCHEM_SHAPE_VOLUME>
262.8

> <PUBCHEM_COORDINATE_TYPE>
2
5
10

$$$$
