25338297
  -OEChem-12032416403D

 49 52  0     1  0  0  0  0  0999 V2000
   -2.2880   -1.9216    0.8380 S   0  0  0  0  0  0  0  0  0  0  0  0
    3.2115    2.4872    0.7598 O   0  0  0  0  0  0  0  0  0  0  0  0
   -2.3427   -1.9357    2.2874 O   0  0  0  0  0  0  0  0  0  0  0  0
   -2.0919   -3.1567    0.1034 O   0  0  0  0  0  0  0  0  0  0  0  0
   -7.3154    0.4879   -1.1487 O   0  0  0  0  0  0  0  0  0  0  0  0
    0.1202    1.7318   -0.7559 N   0  0  1  0  0  0  0  0  0  0  0  0
   -1.1289   -0.7936    0.3256 N   0  0  0  0  0  0  0  0  0  0  0  0
    2.8740    0.3970    0.0288 N   0  0  0  0  0  0  0  0  0  0  0  0
    4.4827    1.9259    0.5847 N   0  0  0  0  0  0  0  0  0  0  0  0
    6.4966    0.1339   -0.0063 N   0  0  0  0  0  0  0  0  0  0  0  0
    5.8469   -2.4413   -0.9077 N   0  0  0  0  0  0  0  0  0  0  0  0
   -1.2054    0.6109    0.8020 C   0  0  1  0  0  0  0  0  0  0  0  0
    0.8563    1.8844    0.5135 C   0  0  1  0  0  0  0  0  0  0  0  0
    0.0932    0.9898    1.5096 C   0  0  0  0  0  0  0  0  0  0  0  0
   -1.2876    1.5584   -0.3836 C   0  0  0  0  0  0  0  0  0  0  0  0
    2.3221    1.5209    0.4109 C   0  0  0  0  0  0  0  0  0  0  0  0
    0.3064    2.8550   -1.6668 C   0  0  0  0  0  0  0  0  0  0  0  0
   -3.7882   -1.2001    0.2432 C   0  0  0  0  0  0  0  0  0  0  0  0
    4.2004    0.6934    0.1520 C   0  0  0  0  0  0  0  0  0  0  0  0
   -4.5036   -0.3152    1.0500 C   0  0  0  0  0  0  0  0  0  0  0  0
   -4.2580   -1.5178   -1.0311 C   0  0  0  0  0  0  0  0  0  0  0  0
    5.2190   -0.2658   -0.1640 C   0  0  0  0  0  0  0  0  0  0  0  0
   -5.6890    0.2520    0.5822 C   0  0  0  0  0  0  0  0  0  0  0  0
   -5.4433   -0.9506   -1.4988 C   0  0  0  0  0  0  0  0  0  0  0  0
   -6.1588   -0.0656   -0.6922 C   0  0  0  0  0  0  0  0  0  0  0  0
    4.9000   -1.5306   -0.6067 C   0  0  0  0  0  0  0  0  0  0  0  0
    7.4435   -0.7766   -0.3073 C   0  0  0  0  0  0  0  0  0  0  0  0
    7.1245   -2.0415   -0.7500 C   0  0  0  0  0  0  0  0  0  0  0  0
   -7.9962    1.3844   -0.2719 C   0  0  0  0  0  0  0  0  0  0  0  0
   -2.0434    0.7499    1.4869 H   0  0  0  0  0  0  0  0  0  0  0  0
    0.7751    2.9213    0.8705 H   0  0  0  0  0  0  0  0  0  0  0  0
    0.6621    0.1065    1.8233 H   0  0  0  0  0  0  0  0  0  0  0  0
   -0.1323    1.5716    2.4122 H   0  0  0  0  0  0  0  0  0  0  0  0
   -1.8790    1.1528   -1.2113 H   0  0  0  0  0  0  0  0  0  0  0  0
   -1.7328    2.5102   -0.0660 H   0  0  0  0  0  0  0  0  0  0  0  0
   -0.5332   -0.9849   -0.4888 H   0  0  0  0  0  0  0  0  0  0  0  0
    1.3588    2.9501   -1.9548 H   0  0  0  0  0  0  0  0  0  0  0  0
   -0.0172    3.8058   -1.2285 H   0  0  0  0  0  0  0  0  0  0  0  0
   -0.2604    2.6930   -2.5902 H   0  0  0  0  0  0  0  0  0  0  0  0
   -4.1627   -0.0598    2.0492 H   0  0  0  0  0  0  0  0  0  0  0  0
   -3.7134   -2.1987   -1.6789 H   0  0  0  0  0  0  0  0  0  0  0  0
   -6.1955    0.9295    1.2611 H   0  0  0  0  0  0  0  0  0  0  0  0
   -5.8037   -1.2004   -2.4929 H   0  0  0  0  0  0  0  0  0  0  0  0
    3.8806   -1.8742   -0.7412 H   0  0  0  0  0  0  0  0  0  0  0  0
    8.4702   -0.4562   -0.1809 H   0  0  0  0  0  0  0  0  0  0  0  0
    7.8860   -2.7726   -0.9916 H   0  0  0  0  0  0  0  0  0  0  0  0
   -8.8934    1.7298   -0.7959 H   0  0  0  0  0  0  0  0  0  0  0  0
   -7.3917    2.2715   -0.0544 H   0  0  0  0  0  0  0  0  0  0  0  0
   -8.3332    0.8781    0.6391 H   0  0  0  0  0  0  0  0  0  0  0  0
  1  3  2  0  0  0  0
  1  4  2  0  0  0  0
  1  7  1  0  0  0  0
  1 18  1  0  0  0  0
  2  9  1  0  0  0  0
  2 16  1  0  0  0  0
  5 25  1  0  0  0  0
  5 29  1  0  0  0  0
  6 13  1  0  0  0  0
  6 15  1  0  0  0  0
  6 17  1  0  0  0  0
  7 12  1  0  0  0  0
  7 36  1  0  0  0  0
  8 16  2  0  0  0  0
  8 19  1  0  0  0  0
  9 19  2  0  0  0  0
 10 22  2  0  0  0  0
 10 27  1  0  0  0  0
 11 26  2  0  0  0  0
 11 28  1  0  0  0  0
 12 14  1  0  0  0  0
 12 15  1  0  0  0  0
 12 30  1  0  0  0  0
 13 14  1  0  0  0  0
 13 16  1  0  0  0  0
 13 31  1  0  0  0  0
 14 32  1  0  0  0  0
 14 33  1  0  0  0  0
 15 34  1  0  0  0  0
 15 35  1  0  0  0  0
 17 37  1  0  0  0  0
 17 38  1  0  0  0  0
 17 39  1  0  0  0  0
 18 20  2  0  0  0  0
 18 21  1  0  0  0  0
 19 22  1  0  0  0  0
 20 23  1  0  0  0  0
 20 40  1  0  0  0  0
 21 24  2  0  0  0  0
 21 41  1  0  0  0  0
 22 26  1  0  0  0  0
 23 25  2  0  0  0  0
 23 42  1  0  0  0  0
 24 25  1  0  0  0  0
 24 43  1  0  0  0  0
 26 44  1  0  0  0  0
 27 28  2  0  0  0  0
 27 45  1  0  0  0  0
 28 46  1  0  0  0  0
 29 47  1  0  0  0  0
 29 48  1  0  0  0  0
 29 49  1  0  0  0  0
M  END
> <PUBCHEM_COMPOUND_CID>
25338297

> <PUBCHEM_CONFORMER_RMSD>
0.8

> <PUBCHEM_CONFORMER_DIVERSEORDER>
1
363
294
215
136
345
94
304
117
328
353
185
237
322
178
269
241
165
365
44
339
118
169
356
143
323
298
354
180
246
331
283
50
362
135
278
132
142
18
326
271
307
321
95
164
355
273
66
308
346
247
277
318
144
295
340
227
281
251
324
88
263
177
315
256
37
348
205
186
138
264
220
368
31
288
350
55
361
332
259
236
200
233
343
75
214
228
333
28
36
279
19
166
133
344
258
306
209
160
222
91
73
366
110
183
201
221
108
43
114
305
124
325
367
296
249
23
102
262
197
351
364
179
248
109
224
78
10
272
338
115
360
149
170
299
276
86
234
359
30
153
29
229
270
130
238
48
174
147
141
334
113
65
219
319
369
194
101
156
330
267
212
370
77
244
257
70
357
103
242
232
148
211
287
191
301
13
59
371
9
282
159
107
342
327
16
292
15
105
123
285
250
139
171
63
162
240
261
152
42
358
72
38
5
225
280
337
168
34
207
297
189
349
40
175
151
131
208
265
243
206
89
313
76
204
188
314
25
51
316
93
126
3
239
121
62
309
27
310
235
64
61
335
32
311
47
140
275
253
6
312
300
150
80
158
217
58
289
302
106
190
176
82
120
266
341
193
74
12
8
33
41
92
223
293
260
127
172
20
286
181
79
291
231
196
216
137
90
163
255
7
199
11
218
54
60
213
83
329
45
22
303
245
57
53
112
134
96
39
14
100
290
122
56
111
184
161
71
198
68
320
119
154
146
98
347
2
252
157
268
17
104
116
128
49
46
69
125
336
284
274
210
317
99
81
129
226
52
84
187
4
145
254
173
67
352
167
85
87
230
202
182
195
192
21
203
35
24
155
26
97

> <PUBCHEM_MMFF94_PARTIAL_CHARGES>
36
1 1.45
10 -0.62
11 -0.62
12 0.36
13 0.45
15 0.27
16 0.3
17 0.27
18 -0.01
19 0.46
2 -0.02
20 -0.15
21 -0.15
22 0.36
23 -0.15
24 -0.15
25 0.08
26 0.16
27 0.16
28 0.16
29 0.28
3 -0.65
36 0.42
4 -0.65
40 0.15
41 0.15
42 0.15
43 0.15
44 0.15
45 0.15
46 0.15
5 -0.36
6 -0.81
7 -0.91
8 -0.57
9 -0.41

> <PUBCHEM_EFFECTIVE_ROTOR_COUNT>
7

> <PUBCHEM_PHARMACOPHORE_FEATURES>
12
1 10 acceptor
1 11 acceptor
1 3 acceptor
1 4 acceptor
1 5 acceptor
1 6 cation
1 7 donor
3 8 9 19 cation
5 2 8 9 16 19 rings
5 6 12 13 14 15 rings
6 10 11 22 26 27 28 rings
6 18 20 21 23 24 25 rings

> <PUBCHEM_HEAVY_ATOM_COUNT>
29

> <PUBCHEM_ATOM_DEF_STEREO_COUNT>
2

> <PUBCHEM_ATOM_UDEF_STEREO_COUNT>
0

> <PUBCHEM_BOND_DEF_STEREO_COUNT>
0

> <PUBCHEM_BOND_UDEF_STEREO_COUNT>
0

> <PUBCHEM_ISOTOPIC_ATOM_COUNT>
0

> <PUBCHEM_COMPONENT_COUNT>
1

> <PUBCHEM_CACTVS_TAUTO_COUNT>
1

> <PUBCHEM_CONFORMER_ID>
0182A1B900000001

> <PUBCHEM_MMFF94_ENERGY>
60.64

> <PUBCHEM_FEATURE_SELFOVERLAP>
60.92

> <PUBCHEM_SHAPE_FINGERPRINT>
10 15 11743833664971805094
10369192 42 13479133497161758387
10622 236 17200774860162801118
10674148 151 18261388927485545353
10815517 723 18261395490945296493
10835480 77 18268144434617508896
10917259 69 18126001556102203481
11135609 201 8286191713836616372
11724838 91 10087634905763157048
11796584 16 18114177596845004306
12596602 18 15913328022446346746
12643181 29 18333448764039883138
12730499 353 8646497327673416576
12760667 363 18272092682109027898
13383665 225 18187094970712518508
13402501 40 18411141320884179958
13533116 47 18131632313929387544
13914758 101 17846783979736279593
14117953 113 17988927738889290494
14849402 71 11530776894041937903
14856354 85 14851609903778197467
15052358 14 18187080659331711407
15131766 46 15623657363493149144
15183329 4 18409726253339322075
15188451 53 16702303434253610578
15361156 5 18188778373967486406
15475509 8 18186801370446310597
15927050 60 17692258438847610840
16126227 98 11314324853375554902
16628084 112 17825097117284047715
17349148 13 14763800766026658681
17857418 61 18130793364982032090
18603816 31 17917137377394876662
18643901 69 18337117770206801982
19301676 85 18341336591359055678
19315958 150 18341050830009491960
20028762 73 17632297865729584046
21279426 13 18408039632614674379
21307412 95 18333741216467750906
21315764 119 17603590712102198242
21365058 27 14490192704844892321
21521721 280 7853574625760937029
22079108 93 10519989261794275040
22224240 67 11167939160639923181
22440779 20 14420704785065541961
23559900 14 18268427004705216256
23569917 315 18338240470712175119
23569943 247 18339923701805696139
3004659 81 18407757054195079728
3103668 31 18115864097195672981
3459 83 18342459257507613923
3633792 109 18272369741996658073
4015057 19 18200310051835387249
404807 14 17196596411135027935
4144715 1 17824552000435103593
4258327 124 12462990200338131650
437815 12 18413108359754545048
439807 62 18188209806793362850
444769 64 18341620296039639923
474113 269 17060056995359449877
5081480 168 16081645711479406471
5207 123 18410576206008447316
59682541 35 10231746808542388101
59755656 215 18114179709905811186
6138700 20 18411700967796650079
6608658 132 15864343585027143988
9689198 14 14273454752089521247

> <PUBCHEM_SHAPE_MULTIPOLES>
547.29
20.9
2.89
1.34
4.4
0.14
-0.13
6.48
6.18
1.63
0.29
-1.19
0.07
1.53

> <PUBCHEM_SHAPE_SELFOVERLAP>
1166.312

> <PUBCHEM_SHAPE_VOLUME>
307.6

> <PUBCHEM_COORDINATE_TYPE>
2
5
10

$$$$
