7662574
  -OEChem-12032416133D

 75 77  0     1  0  0  0  0  0999 V2000
   -0.1517   -1.6679    0.1594 O   0  0  0  0  0  0  0  0  0  0  0  0
   -3.1450   -4.1460   -0.7778 O   0  0  0  0  0  0  0  0  0  0  0  0
   -2.8551    1.0601   -2.4565 O   0  0  0  0  0  0  0  0  0  0  0  0
    2.8269   -2.5569   -1.2420 O   0  0  0  0  0  0  0  0  0  0  0  0
   -3.2029    3.4661   -1.7643 O   0  0  0  0  0  0  0  0  0  0  0  0
   -2.3704   -1.4827   -0.5206 N   0  0  0  0  0  0  0  0  0  0  0  0
   -0.6906    0.8459   -1.6286 N   0  0  0  0  0  0  0  0  0  0  0  0
    1.8182   -0.4925   -1.6664 N   0  0  0  0  0  0  0  0  0  0  0  0
   -2.8116   -4.4049    1.4797 N   0  0  0  0  0  0  0  0  0  0  0  0
    7.0899    1.0368    1.7121 N   0  0  0  0  0  0  0  0  0  0  0  0
   -4.4147   -0.0990    1.1636 C   0  0  0  0  0  0  0  0  0  0  0  0
   -3.4919    0.2878    2.3272 C   0  0  0  0  0  0  0  0  0  0  0  0
   -5.8523    0.3688    1.4275 C   0  0  0  0  0  0  0  0  0  0  0  0
   -4.3740   -1.6066    0.9211 C   0  0  0  0  0  0  0  0  0  0  0  0
   -3.5559    1.7844    2.6240 C   0  0  0  0  0  0  0  0  0  0  0  0
   -5.9123    1.8653    1.7256 C   0  0  0  0  0  0  0  0  0  0  0  0
   -4.9873    2.2474    2.8770 C   0  0  0  0  0  0  0  0  0  0  0  0
   -2.9787   -2.1545    0.6049 C   0  0  1  0  0  0  0  0  0  0  0  0
   -0.6383   -0.5942   -1.9190 C   0  0  1  0  0  0  0  0  0  0  0  0
    0.7195   -1.0563   -2.4474 C   0  0  0  0  0  0  0  0  0  0  0  0
   -1.0039   -1.2981   -0.6440 C   0  0  0  0  0  0  0  0  0  0  0  0
    0.4739    1.4200   -0.9301 C   0  0  0  0  0  0  0  0  0  0  0  0
    1.7864    0.9677   -1.5577 C   0  0  0  0  0  0  0  0  0  0  0  0
   -2.9806   -3.6536    0.3360 C   0  0  0  0  0  0  0  0  0  0  0  0
   -1.8806    1.5409   -1.8719 C   0  0  0  0  0  0  0  0  0  0  0  0
    2.8058   -1.3308   -1.1471 C   0  0  0  0  0  0  0  0  0  0  0  0
   -1.9454    2.9653   -1.3808 C   0  0  0  0  0  0  0  0  0  0  0  0
    3.9154   -0.7169   -0.4064 C   0  0  0  0  0  0  0  0  0  0  0  0
    3.8144   -0.5291    0.9721 C   0  0  0  0  0  0  0  0  0  0  0  0
    5.0704   -0.3219   -1.0813 C   0  0  0  0  0  0  0  0  0  0  0  0
    4.8684    0.0537    1.6757 C   0  0  0  0  0  0  0  0  0  0  0  0
    6.1245    0.2608   -0.3778 C   0  0  0  0  0  0  0  0  0  0  0  0
    6.0234    0.4487    1.0007 C   0  0  0  0  0  0  0  0  0  0  0  0
   -3.3891    4.8194   -1.3537 C   0  0  0  0  0  0  0  0  0  0  0  0
    6.9955    1.2350    3.1447 C   0  0  0  0  0  0  0  0  0  0  0  0
    8.2997    1.4378    1.0219 C   0  0  0  0  0  0  0  0  0  0  0  0
   -4.0631    0.4176    0.2608 H   0  0  0  0  0  0  0  0  0  0  0  0
   -3.7669   -0.2737    3.2289 H   0  0  0  0  0  0  0  0  0  0  0  0
   -2.4485    0.0456    2.1012 H   0  0  0  0  0  0  0  0  0  0  0  0
   -6.4832    0.1489    0.5581 H   0  0  0  0  0  0  0  0  0  0  0  0
   -6.2758   -0.1842    2.2757 H   0  0  0  0  0  0  0  0  0  0  0  0
   -4.7780   -2.1378    1.7932 H   0  0  0  0  0  0  0  0  0  0  0  0
   -5.0466   -1.8492    0.0870 H   0  0  0  0  0  0  0  0  0  0  0  0
   -3.1369    2.3427    1.7782 H   0  0  0  0  0  0  0  0  0  0  0  0
   -2.9348    2.0142    3.4971 H   0  0  0  0  0  0  0  0  0  0  0  0
   -6.9416    2.1516    1.9691 H   0  0  0  0  0  0  0  0  0  0  0  0
   -5.6280    2.4275    0.8273 H   0  0  0  0  0  0  0  0  0  0  0  0
   -5.3571    1.7979    3.8068 H   0  0  0  0  0  0  0  0  0  0  0  0
   -5.0039    3.3338    3.0184 H   0  0  0  0  0  0  0  0  0  0  0  0
   -2.3226   -1.9972    1.4693 H   0  0  0  0  0  0  0  0  0  0  0  0
   -1.3866   -0.8415   -2.6820 H   0  0  0  0  0  0  0  0  0  0  0  0
   -2.9801   -1.1944   -1.2803 H   0  0  0  0  0  0  0  0  0  0  0  0
    0.8568   -0.7022   -3.4766 H   0  0  0  0  0  0  0  0  0  0  0  0
    0.7781   -2.1499   -2.4688 H   0  0  0  0  0  0  0  0  0  0  0  0
    0.4144    1.0875    0.1130 H   0  0  0  0  0  0  0  0  0  0  0  0
    0.4406    2.5108   -0.9219 H   0  0  0  0  0  0  0  0  0  0  0  0
    2.6240    1.3539   -0.9735 H   0  0  0  0  0  0  0  0  0  0  0  0
    1.8827    1.3687   -2.5738 H   0  0  0  0  0  0  0  0  0  0  0  0
   -2.8023   -5.4186    1.4393 H   0  0  0  0  0  0  0  0  0  0  0  0
   -2.6967   -3.9859    2.3970 H   0  0  0  0  0  0  0  0  0  0  0  0
   -1.8394    2.9837   -0.2917 H   0  0  0  0  0  0  0  0  0  0  0  0
   -1.1605    3.5553   -1.8640 H   0  0  0  0  0  0  0  0  0  0  0  0
    2.9178   -0.8326    1.5066 H   0  0  0  0  0  0  0  0  0  0  0  0
    5.1584   -0.4636   -2.1554 H   0  0  0  0  0  0  0  0  0  0  0  0
    4.7411    0.1781    2.7465 H   0  0  0  0  0  0  0  0  0  0  0  0
    7.0010    0.5511   -0.9484 H   0  0  0  0  0  0  0  0  0  0  0  0
   -3.3371    4.8960   -0.2633 H   0  0  0  0  0  0  0  0  0  0  0  0
   -2.6360    5.4650   -1.8154 H   0  0  0  0  0  0  0  0  0  0  0  0
   -4.3800    5.1441   -1.6820 H   0  0  0  0  0  0  0  0  0  0  0  0
    6.1608    1.8978    3.3988 H   0  0  0  0  0  0  0  0  0  0  0  0
    6.8797    0.2803    3.6697 H   0  0  0  0  0  0  0  0  0  0  0  0
    7.8990    1.7052    3.5488 H   0  0  0  0  0  0  0  0  0  0  0  0
    9.0330    1.8733    1.7099 H   0  0  0  0  0  0  0  0  0  0  0  0
    8.0893    2.2033    0.2667 H   0  0  0  0  0  0  0  0  0  0  0  0
    8.7888    0.5791    0.5486 H   0  0  0  0  0  0  0  0  0  0  0  0
  1 21  2  0  0  0  0
  2 24  2  0  0  0  0
  3 25  2  0  0  0  0
  4 26  2  0  0  0  0
  5 27  1  0  0  0  0
  5 34  1  0  0  0  0
  6 18  1  0  0  0  0
  6 21  1  0  0  0  0
  6 52  1  0  0  0  0
  7 19  1  0  0  0  0
  7 22  1  0  0  0  0
  7 25  1  0  0  0  0
  8 20  1  0  0  0  0
  8 23  1  0  0  0  0
  8 26  1  0  0  0  0
  9 24  1  0  0  0  0
  9 59  1  0  0  0  0
  9 60  1  0  0  0  0
 10 33  1  0  0  0  0
 10 35  1  0  0  0  0
 10 36  1  0  0  0  0
 11 12  1  0  0  0  0
 11 13  1  0  0  0  0
 11 14  1  0  0  0  0
 11 37  1  0  0  0  0
 12 15  1  0  0  0  0
 12 38  1  0  0  0  0
 12 39  1  0  0  0  0
 13 16  1  0  0  0  0
 13 40  1  0  0  0  0
 13 41  1  0  0  0  0
 14 18  1  0  0  0  0
 14 42  1  0  0  0  0
 14 43  1  0  0  0  0
 15 17  1  0  0  0  0
 15 44  1  0  0  0  0
 15 45  1  0  0  0  0
 16 17  1  0  0  0  0
 16 46  1  0  0  0  0
 16 47  1  0  0  0  0
 17 48  1  0  0  0  0
 17 49  1  0  0  0  0
 18 24  1  0  0  0  0
 18 50  1  0  0  0  0
 19 20  1  0  0  0  0
 19 21  1  0  0  0  0
 19 51  1  0  0  0  0
 20 53  1  0  0  0  0
 20 54  1  0  0  0  0
 22 23  1  0  0  0  0
 22 55  1  0  0  0  0
 22 56  1  0  0  0  0
 23 57  1  0  0  0  0
 23 58  1  0  0  0  0
 25 27  1  0  0  0  0
 26 28  1  0  0  0  0
 27 61  1  0  0  0  0
 27 62  1  0  0  0  0
 28 29  2  0  0  0  0
 28 30  1  0  0  0  0
 29 31  1  0  0  0  0
 29 63  1  0  0  0  0
 30 32  2  0  0  0  0
 30 64  1  0  0  0  0
 31 33  2  0  0  0  0
 31 65  1  0  0  0  0
 32 33  1  0  0  0  0
 32 66  1  0  0  0  0
 34 67  1  0  0  0  0
 34 68  1  0  0  0  0
 34 69  1  0  0  0  0
 35 70  1  0  0  0  0
 35 71  1  0  0  0  0
 35 72  1  0  0  0  0
 36 73  1  0  0  0  0
 36 74  1  0  0  0  0
 36 75  1  0  0  0  0
M  END
> <PUBCHEM_COMPOUND_CID>
7662574

> <PUBCHEM_CONFORMER_RMSD>
1.2

> <PUBCHEM_CONFORMER_DIVERSEORDER>
1
16
13
14
6
26
5
28
12
37
44
23
35
27
47
25
21
32
17
20
45
7
36
41
8
33
18
19
38
22
24
46
9
30
4
39
34
10
15
11
29
42
31
43
3
40
2

> <PUBCHEM_MMFF94_PARTIAL_CHARGES>
36
1 -0.57
10 -0.84
18 0.36
19 0.36
2 -0.57
20 0.3
21 0.57
22 0.3
23 0.3
24 0.57
25 0.57
26 0.54
27 0.34
28 0.09
29 -0.15
3 -0.57
30 -0.15
31 -0.15
32 -0.15
33 0.1
34 0.28
35 0.37
36 0.37
4 -0.57
5 -0.56
52 0.37
59 0.37
6 -0.73
60 0.37
63 0.15
64 0.15
65 0.15
66 0.15
7 -0.66
8 -0.66
9 -0.8

> <PUBCHEM_EFFECTIVE_ROTOR_COUNT>
14.4

> <PUBCHEM_PHARMACOPHORE_FEATURES>
11
1 1 acceptor
1 10 cation
1 2 acceptor
1 3 acceptor
1 4 acceptor
1 5 acceptor
1 6 donor
1 9 donor
6 11 12 13 15 16 17 rings
6 28 29 30 31 32 33 rings
6 7 8 19 20 22 23 rings

> <PUBCHEM_HEAVY_ATOM_COUNT>
36

> <PUBCHEM_ATOM_DEF_STEREO_COUNT>
2

> <PUBCHEM_ATOM_UDEF_STEREO_COUNT>
0

> <PUBCHEM_BOND_DEF_STEREO_COUNT>
0

> <PUBCHEM_BOND_UDEF_STEREO_COUNT>
0

> <PUBCHEM_ISOTOPIC_ATOM_COUNT>
0

> <PUBCHEM_COMPONENT_COUNT>
1

> <PUBCHEM_CACTVS_TAUTO_COUNT>
4

> <PUBCHEM_CONFORMER_ID>
0074EBEE00000001

> <PUBCHEM_MMFF94_ENERGY>
103.0349

> <PUBCHEM_FEATURE_SELFOVERLAP>
55.84

> <PUBCHEM_SHAPE_FINGERPRINT>
10074138 170 18335990834896732283
10554248 39 13470425348686468412
10674148 151 11746928807267735095
10930396 42 18335412491769947097
12422481 6 17679040205206611819
12633257 1 18335435585539675813
12788726 201 17823722860898030213
13782708 43 12396589571327120920
14844126 61 17749377174910265093
14904525 67 17702942686379398472
14951699 99 18059868263525617032
15513586 35 18051966219565423596
15950262 2 16341191818639753185
16114785 44 18263914472025528397
19377110 9 17386008399437110148
21033648 29 18264772051839601101
21223535 225 15913037725986605760
2132832 1 18124322863928947079
22122407 14 16988571173560087186
392239 28 18040991899703141098
439807 62 12468359067611980602
4938544 92 18131072679184219026
5171179 24 17469899783806590647
5951187 136 15186879294263743769

> <PUBCHEM_SHAPE_MULTIPOLES>
686.61
17.24
4.36
3.09
29.37
0.87
-0.76
-8.58
-15.26
-8.16
0.77
-0.76
-1.94
2.39

> <PUBCHEM_SHAPE_SELFOVERLAP>
1419.136

> <PUBCHEM_SHAPE_VOLUME>
389.2

> <PUBCHEM_COORDINATE_TYPE>
2
5
10

$$$$
