26745297
  -OEChem-12032416183D

 55 58  0     1  0  0  0  0  0999 V2000
    1.3879   -1.1845    2.2593 O   0  0  0  0  0  0  0  0  0  0  0  0
    5.8641    2.5362   -1.4759 O   0  0  0  0  0  0  0  0  0  0  0  0
   -5.6560    3.5772   -0.2296 O   0  0  0  0  0  0  0  0  0  0  0  0
   -7.0295    1.9819    0.6278 O   0  0  0  0  0  0  0  0  0  0  0  0
   -0.4792   -1.0294   -0.5613 N   0  0  1  0  0  0  0  0  0  0  0  0
    1.6807   -4.0016   -1.3663 N   0  0  0  0  0  0  0  0  0  0  0  0
    0.8148   -4.8941    0.4922 N   0  0  0  0  0  0  0  0  0  0  0  0
    0.4778    0.7527    1.3436 N   0  0  0  0  0  0  0  0  0  0  0  0
   -0.5623   -1.3597    0.8866 C   0  0  1  0  0  0  0  0  0  0  0  0
   -0.5146   -2.8702    1.2538 C   0  0  0  0  0  0  0  0  0  0  0  0
    0.6872   -1.6447   -1.2511 C   0  0  0  0  0  0  0  0  0  0  0  0
    0.9148   -3.0330   -0.7929 C   0  0  0  0  0  0  0  0  0  0  0  0
    0.3995   -3.6010    0.3457 C   0  0  0  0  0  0  0  0  0  0  0  0
   -1.7317   -1.3634   -1.2454 C   0  0  0  0  0  0  0  0  0  0  0  0
    0.5478   -0.6112    1.5708 C   0  0  0  0  0  0  0  0  0  0  0  0
   -2.8357   -0.4084   -0.8944 C   0  0  0  0  0  0  0  0  0  0  0  0
    1.5881   -5.1055   -0.5550 C   0  0  0  0  0  0  0  0  0  0  0  0
    1.4150    1.6973    1.9074 C   0  0  0  0  0  0  0  0  0  0  0  0
   -4.0043   -0.8827   -0.2986 C   0  0  0  0  0  0  0  0  0  0  0  0
   -2.6929    0.9527   -1.1640 C   0  0  0  0  0  0  0  0  0  0  0  0
    2.5971    1.9203    1.0091 C   0  0  0  0  0  0  0  0  0  0  0  0
   -5.0302    0.0042    0.0277 C   0  0  0  0  0  0  0  0  0  0  0  0
   -3.7189    1.8396   -0.8378 C   0  0  0  0  0  0  0  0  0  0  0  0
   -4.8875    1.3654   -0.2418 C   0  0  0  0  0  0  0  0  0  0  0  0
    3.8844    1.6381    1.4664 C   0  0  0  0  0  0  0  0  0  0  0  0
    2.4079    2.4097   -0.2833 C   0  0  0  0  0  0  0  0  0  0  0  0
   -5.9565    2.2906    0.0990 C   0  0  0  0  0  0  0  0  0  0  0  0
    4.9822    1.8454    0.6315 C   0  0  0  0  0  0  0  0  0  0  0  0
    3.5057    2.6170   -1.1183 C   0  0  0  0  0  0  0  0  0  0  0  0
    4.7929    2.3349   -0.6609 C   0  0  0  0  0  0  0  0  0  0  0  0
    7.1516    2.2260   -0.9444 C   0  0  0  0  0  0  0  0  0  0  0  0
   -1.4793   -0.9464    1.3286 H   0  0  0  0  0  0  0  0  0  0  0  0
   -0.2230   -3.0313    2.2973 H   0  0  0  0  0  0  0  0  0  0  0  0
   -1.5185   -3.2964    1.1342 H   0  0  0  0  0  0  0  0  0  0  0  0
    0.5777   -1.5975   -2.3408 H   0  0  0  0  0  0  0  0  0  0  0  0
    1.5776   -1.0486   -1.0152 H   0  0  0  0  0  0  0  0  0  0  0  0
   -2.0332   -2.4031   -1.0668 H   0  0  0  0  0  0  0  0  0  0  0  0
   -1.6035   -1.2806   -2.3337 H   0  0  0  0  0  0  0  0  0  0  0  0
    2.2173   -3.9272   -2.2206 H   0  0  0  0  0  0  0  0  0  0  0  0
    2.1068   -6.0253   -0.7849 H   0  0  0  0  0  0  0  0  0  0  0  0
   -0.2566    1.1158    0.7426 H   0  0  0  0  0  0  0  0  0  0  0  0
    0.8842    2.6439    2.0584 H   0  0  0  0  0  0  0  0  0  0  0  0
    1.7292    1.3351    2.8929 H   0  0  0  0  0  0  0  0  0  0  0  0
   -4.1284   -1.9402   -0.0812 H   0  0  0  0  0  0  0  0  0  0  0  0
   -1.7896    1.3358   -1.6317 H   0  0  0  0  0  0  0  0  0  0  0  0
   -5.9326   -0.3851    0.4919 H   0  0  0  0  0  0  0  0  0  0  0  0
   -3.5661    2.8908   -1.0657 H   0  0  0  0  0  0  0  0  0  0  0  0
    4.0460    1.2553    2.4707 H   0  0  0  0  0  0  0  0  0  0  0  0
    1.4108    2.6368   -0.6517 H   0  0  0  0  0  0  0  0  0  0  0  0
    5.9535    1.6051    1.0502 H   0  0  0  0  0  0  0  0  0  0  0  0
    3.3521    2.9987   -2.1240 H   0  0  0  0  0  0  0  0  0  0  0  0
   -6.3830    4.1929    0.0044 H   0  0  0  0  0  0  0  0  0  0  0  0
    7.3973    2.8627   -0.0876 H   0  0  0  0  0  0  0  0  0  0  0  0
    7.2439    1.1602   -0.7099 H   0  0  0  0  0  0  0  0  0  0  0  0
    7.8855    2.4458   -1.7267 H   0  0  0  0  0  0  0  0  0  0  0  0
  1 15  2  0  0  0  0
  2 30  1  0  0  0  0
  2 31  1  0  0  0  0
  3 27  1  0  0  0  0
  3 52  1  0  0  0  0
  4 27  2  0  0  0  0
  5  9  1  0  0  0  0
  5 11  1  0  0  0  0
  5 14  1  0  0  0  0
  6 12  1  0  0  0  0
  6 17  1  0  0  0  0
  6 39  1  0  0  0  0
  7 13  1  0  0  0  0
  7 17  2  0  0  0  0
  8 15  1  0  0  0  0
  8 18  1  0  0  0  0
  8 41  1  0  0  0  0
  9 10  1  0  0  0  0
  9 15  1  0  0  0  0
  9 32  1  0  0  0  0
 10 13  1  0  0  0  0
 10 33  1  0  0  0  0
 10 34  1  0  0  0  0
 11 12  1  0  0  0  0
 11 35  1  0  0  0  0
 11 36  1  0  0  0  0
 12 13  2  0  0  0  0
 14 16  1  0  0  0  0
 14 37  1  0  0  0  0
 14 38  1  0  0  0  0
 16 19  2  0  0  0  0
 16 20  1  0  0  0  0
 17 40  1  0  0  0  0
 18 21  1  0  0  0  0
 18 42  1  0  0  0  0
 18 43  1  0  0  0  0
 19 22  1  0  0  0  0
 19 44  1  0  0  0  0
 20 23  2  0  0  0  0
 20 45  1  0  0  0  0
 21 25  2  0  0  0  0
 21 26  1  0  0  0  0
 22 24  2  0  0  0  0
 22 46  1  0  0  0  0
 23 24  1  0  0  0  0
 23 47  1  0  0  0  0
 24 27  1  0  0  0  0
 25 28  1  0  0  0  0
 25 48  1  0  0  0  0
 26 29  2  0  0  0  0
 26 49  1  0  0  0  0
 28 30  2  0  0  0  0
 28 50  1  0  0  0  0
 29 30  1  0  0  0  0
 29 51  1  0  0  0  0
 31 53  1  0  0  0  0
 31 54  1  0  0  0  0
 31 55  1  0  0  0  0
M  END
> <PUBCHEM_COMPOUND_CID>
26745297

> <PUBCHEM_CONFORMER_RMSD>
1

> <PUBCHEM_CONFORMER_DIVERSEORDER>
2
59
23
57
10
64
47
8
31
55
27
63
80
52
48
34
62
51
73
56
67
16
60
35
50
49
79
54
19
69
37
29
61
30
68
4
70
45
14
53
41
78
9
32
65
28
42
26
71
75
15
76
21
25
58
13
39
43
38
12
7
40
74
6
72
24
17
22
20
33
77
36
46
44
18
3
66
11
1
5

> <PUBCHEM_MMFF94_PARTIAL_CHARGES>
43
1 -0.57
10 0.18
11 0.45
12 -0.33
13 0.05
14 0.41
15 0.57
16 -0.14
17 0.04
18 0.44
19 -0.15
2 -0.36
20 -0.15
21 -0.14
22 -0.15
23 -0.15
24 0.09
25 -0.15
26 -0.15
27 0.63
28 -0.15
29 -0.15
3 -0.65
30 0.08
31 0.28
39 0.27
4 -0.57
40 0.15
41 0.37
44 0.15
45 0.15
46 0.15
47 0.15
48 0.15
49 0.15
5 -0.81
50 0.15
51 0.15
52 0.5
6 0.03
7 -0.57
8 -0.73
9 0.33

> <PUBCHEM_EFFECTIVE_ROTOR_COUNT>
8.8

> <PUBCHEM_PHARMACOPHORE_FEATURES>
13
1 1 acceptor
1 2 acceptor
1 3 acceptor
1 4 acceptor
1 5 cation
1 6 donor
1 8 donor
3 3 4 27 anion
3 6 7 17 cation
5 6 7 12 13 17 rings
6 16 19 20 22 23 24 rings
6 21 25 26 28 29 30 rings
6 5 9 10 11 12 13 rings

> <PUBCHEM_HEAVY_ATOM_COUNT>
31

> <PUBCHEM_ATOM_DEF_STEREO_COUNT>
1

> <PUBCHEM_ATOM_UDEF_STEREO_COUNT>
0

> <PUBCHEM_BOND_DEF_STEREO_COUNT>
0

> <PUBCHEM_BOND_UDEF_STEREO_COUNT>
0

> <PUBCHEM_ISOTOPIC_ATOM_COUNT>
0

> <PUBCHEM_COMPONENT_COUNT>
1

> <PUBCHEM_CACTVS_TAUTO_COUNT>
4

> <PUBCHEM_CONFORMER_ID>
019819D100000002

> <PUBCHEM_MMFF94_ENERGY>
88.2047

> <PUBCHEM_FEATURE_SELFOVERLAP>
66.127

> <PUBCHEM_SHAPE_FINGERPRINT>
10190108 129 18125444365937172767
10369192 42 18334579078988489749
105312 117 18338236101964550292
10675989 125 18201158767733662480
10721379 63 18128264376094302510
107951 10 18270683198317729846
11200772 48 18270970162753371740
11488393 25 18264776458533614746
11578080 2 18339094717920627643
1200032 147 17988658346230453201
12156800 1 16227769672886748746
12160290 23 17468722601219788867
12788726 201 17395573248022827370
14114211 68 18412551985602035849
14251757 5 18194405726166354876
14675019 173 17406280923835524153
14713325 29 17973166411313902234
15163728 17 18409168830887419687
15230672 131 18336266830249469502
15297060 5 18341056293150026145
15439362 3 18338519634009224892
16991981 162 17687203283889155397
17809404 112 16771544251895811128
17899979 19 18267870489567865206
20642791 178 18339627980580440642
21033648 29 18270959175942360776
21133665 82 18341337764891468780
21458453 9 13768504144128923453
21641784 216 17334788478659086430
21756936 100 18263919006857143993
23559900 14 18044943364421240047
244849 19 17971217871109852467
24771750 20 18340209600455939487
3298306 158 18272369832196486006
3411729 13 18337390440284641389
3418910 222 17544476354784530514
3610482 184 17170404172304385188
3729539 64 18130518487265317310
4015057 19 16199032902030307672
4058900 60 18410864252105720938
5081480 168 17981878640962600141
508706 21 17981613968357238262
513532 50 15338249321725161209
5265222 85 18267590285131425604
5385378 56 18341335492199978465
58260988 587 18336837390088146363
6376802 90 17839735204201980848
6523845 18 17916310605349634059
6786 2 18336827584288003902

> <PUBCHEM_SHAPE_MULTIPOLES>
594.56
13.26
6.13
1.65
2.36
8.51
0.47
-21.32
-2.99
-1.98
-0.91
-1.3
0.04
-0.5

> <PUBCHEM_SHAPE_SELFOVERLAP>
1293.029

> <PUBCHEM_SHAPE_VOLUME>
322.9

> <PUBCHEM_COORDINATE_TYPE>
2
5
10

$$$$
