28960034
  -OEChem-12032416273D

 64 67  0     1  0  0  0  0  0999 V2000
   -2.7290   -3.1888    1.8426 O   0  0  0  0  0  0  0  0  0  0  0  0
   -5.0520    4.6295    0.4560 O   0  0  0  0  0  0  0  0  0  0  0  0
   -6.2937    2.7307    0.2741 O   0  0  0  0  0  0  0  0  0  0  0  0
   -3.2215   -1.6164    0.2114 N   0  0  0  0  0  0  0  0  0  0  0  0
    0.9701    1.0955   -0.6936 N   0  0  0  0  0  0  0  0  0  0  0  0
    3.7581    0.7499   -0.1770 N   0  0  0  0  0  0  0  0  0  0  0  0
    5.4449    0.7019    1.4832 N   0  0  0  0  0  0  0  0  0  0  0  0
   -2.7852    0.5400   -0.9392 C   0  0  2  0  0  0  0  0  0  0  0  0
   -3.9948    1.1456   -0.1819 C   0  0  1  0  0  0  0  0  0  0  0  0
   -2.9694   -0.9811   -1.0865 C   0  0  0  0  0  0  0  0  0  0  0  0
   -4.2527    0.4165    1.1478 C   0  0  0  0  0  0  0  0  0  0  0  0
   -1.4279    0.8523   -0.2965 C   0  0  0  0  0  0  0  0  0  0  0  0
   -4.3758   -1.0908    0.9399 C   0  0  0  0  0  0  0  0  0  0  0  0
   -1.2649   -3.1597   -0.0773 C   0  0  0  0  0  0  0  0  0  0  0  0
   -0.5554   -4.4445    0.3988 C   0  0  0  0  0  0  0  0  0  0  0  0
   -1.5677   -3.9060   -1.3932 C   0  0  0  0  0  0  0  0  0  0  0  0
   -2.4633   -2.6671    0.7493 C   0  0  0  0  0  0  0  0  0  0  0  0
   -3.8682    2.6517    0.0452 C   0  0  0  0  0  0  0  0  0  0  0  0
   -0.3343   -4.7822   -1.0905 C   0  0  0  0  0  0  0  0  0  0  0  0
   -0.3142    0.8122   -1.3331 C   0  0  0  0  0  0  0  0  0  0  0  0
    1.9667    1.4956   -1.6944 C   0  0  0  0  0  0  0  0  0  0  0  0
    1.4480   -0.0800    0.0448 C   0  0  0  0  0  0  0  0  0  0  0  0
   -5.2099    3.2946    0.2640 C   0  0  0  0  0  0  0  0  0  0  0  0
    3.3005    1.8495   -1.0321 C   0  0  0  0  0  0  0  0  0  0  0  0
    2.7638    0.2221    0.7657 C   0  0  0  0  0  0  0  0  0  0  0  0
    5.1096    0.6601    0.1742 C   0  0  0  0  0  0  0  0  0  0  0  0
    6.0257    0.5329   -0.8576 C   0  0  0  0  0  0  0  0  0  0  0  0
    7.3726    0.4426   -0.5243 C   0  0  0  0  0  0  0  0  0  0  0  0
    6.7632    0.6116    1.7685 C   0  0  0  0  0  0  0  0  0  0  0  0
    7.7567    0.4818    0.8115 C   0  0  0  0  0  0  0  0  0  0  0  0
   -2.7958    0.9744   -1.9486 H   0  0  0  0  0  0  0  0  0  0  0  0
   -4.8711    0.9651   -0.8221 H   0  0  0  0  0  0  0  0  0  0  0  0
   -3.8423   -1.1924   -1.7165 H   0  0  0  0  0  0  0  0  0  0  0  0
   -2.1078   -1.4052   -1.5942 H   0  0  0  0  0  0  0  0  0  0  0  0
   -5.1665    0.7837    1.6273 H   0  0  0  0  0  0  0  0  0  0  0  0
   -3.4276    0.6151    1.8437 H   0  0  0  0  0  0  0  0  0  0  0  0
   -1.2481    0.1677    0.5372 H   0  0  0  0  0  0  0  0  0  0  0  0
   -1.4270    1.8573    0.1388 H   0  0  0  0  0  0  0  0  0  0  0  0
   -4.4866   -1.5884    1.9083 H   0  0  0  0  0  0  0  0  0  0  0  0
   -5.2693   -1.3240    0.3489 H   0  0  0  0  0  0  0  0  0  0  0  0
   -0.5317   -2.3525   -0.2180 H   0  0  0  0  0  0  0  0  0  0  0  0
   -1.1988   -5.1651    0.9170 H   0  0  0  0  0  0  0  0  0  0  0  0
    0.3550   -4.2953    0.9855 H   0  0  0  0  0  0  0  0  0  0  0  0
   -1.4912   -3.3388   -2.3237 H   0  0  0  0  0  0  0  0  0  0  0  0
   -2.5141   -4.4595   -1.3920 H   0  0  0  0  0  0  0  0  0  0  0  0
   -3.2416    2.8702    0.9168 H   0  0  0  0  0  0  0  0  0  0  0  0
   -3.4278    3.1244   -0.8407 H   0  0  0  0  0  0  0  0  0  0  0  0
    0.6018   -4.3845   -1.4993 H   0  0  0  0  0  0  0  0  0  0  0  0
   -0.4224   -5.8379   -1.3584 H   0  0  0  0  0  0  0  0  0  0  0  0
   -0.5323    1.5872   -2.0800 H   0  0  0  0  0  0  0  0  0  0  0  0
   -0.2851   -0.1420   -1.8721 H   0  0  0  0  0  0  0  0  0  0  0  0
    1.6175    2.3790   -2.2430 H   0  0  0  0  0  0  0  0  0  0  0  0
    2.1213    0.6937   -2.4291 H   0  0  0  0  0  0  0  0  0  0  0  0
    1.5948   -0.9306   -0.6348 H   0  0  0  0  0  0  0  0  0  0  0  0
    0.7333   -0.3967    0.8102 H   0  0  0  0  0  0  0  0  0  0  0  0
    4.0244    2.0785   -1.8223 H   0  0  0  0  0  0  0  0  0  0  0  0
    3.1907    2.7564   -0.4236 H   0  0  0  0  0  0  0  0  0  0  0  0
    2.5962    0.9495    1.5704 H   0  0  0  0  0  0  0  0  0  0  0  0
    3.1241   -0.7073    1.2246 H   0  0  0  0  0  0  0  0  0  0  0  0
   -5.9100    5.0818    0.6026 H   0  0  0  0  0  0  0  0  0  0  0  0
    5.7266    0.4861   -1.8995 H   0  0  0  0  0  0  0  0  0  0  0  0
    8.1214    0.3382   -1.3037 H   0  0  0  0  0  0  0  0  0  0  0  0
    7.0104    0.6470    2.8244 H   0  0  0  0  0  0  0  0  0  0  0  0
    8.8007    0.4123    1.0946 H   0  0  0  0  0  0  0  0  0  0  0  0
  1 17  2  0  0  0  0
  2 23  1  0  0  0  0
  2 60  1  0  0  0  0
  3 23  2  0  0  0  0
  4 10  1  0  0  0  0
  4 13  1  0  0  0  0
  4 17  1  0  0  0  0
  5 20  1  0  0  0  0
  5 21  1  0  0  0  0
  5 22  1  0  0  0  0
  6 24  1  0  0  0  0
  6 25  1  0  0  0  0
  6 26  1  0  0  0  0
  7 26  1  0  0  0  0
  7 29  2  0  0  0  0
  8  9  1  0  0  0  0
  8 10  1  0  0  0  0
  8 12  1  0  0  0  0
  8 31  1  0  0  0  0
  9 11  1  0  0  0  0
  9 18  1  0  0  0  0
  9 32  1  0  0  0  0
 10 33  1  0  0  0  0
 10 34  1  0  0  0  0
 11 13  1  0  0  0  0
 11 35  1  0  0  0  0
 11 36  1  0  0  0  0
 12 20  1  0  0  0  0
 12 37  1  0  0  0  0
 12 38  1  0  0  0  0
 13 39  1  0  0  0  0
 13 40  1  0  0  0  0
 14 15  1  0  0  0  0
 14 16  1  0  0  0  0
 14 17  1  0  0  0  0
 14 41  1  0  0  0  0
 15 19  1  0  0  0  0
 15 42  1  0  0  0  0
 15 43  1  0  0  0  0
 16 19  1  0  0  0  0
 16 44  1  0  0  0  0
 16 45  1  0  0  0  0
 18 23  1  0  0  0  0
 18 46  1  0  0  0  0
 18 47  1  0  0  0  0
 19 48  1  0  0  0  0
 19 49  1  0  0  0  0
 20 50  1  0  0  0  0
 20 51  1  0  0  0  0
 21 24  1  0  0  0  0
 21 52  1  0  0  0  0
 21 53  1  0  0  0  0
 22 25  1  0  0  0  0
 22 54  1  0  0  0  0
 22 55  1  0  0  0  0
 24 56  1  0  0  0  0
 24 57  1  0  0  0  0
 25 58  1  0  0  0  0
 25 59  1  0  0  0  0
 26 27  2  0  0  0  0
 27 28  1  0  0  0  0
 27 61  1  0  0  0  0
 28 30  2  0  0  0  0
 28 62  1  0  0  0  0
 29 30  1  0  0  0  0
 29 63  1  0  0  0  0
 30 64  1  0  0  0  0
M  END
> <PUBCHEM_COMPOUND_CID>
28960034

> <PUBCHEM_CONFORMER_RMSD>
1

> <PUBCHEM_CONFORMER_DIVERSEORDER>
1
195
176
54
204
196
141
52
200
44
69
173
203
149
93
105
210
37
190
84
157
26
197
156
209
109
191
224
137
50
168
113
166
223
165
194
193
146
221
145
57
62
211
124
122
65
104
42
35
154
186
39
82
189
112
118
201
46
131
27
38
133
106
161
55
114
20
150
120
147
139
206
208
144
56
103
155
126
33
96
30
185
2
47
6
41
180
212
159
160
134
115
63
16
171
219
88
218
153
99
14
213
89
23
111
48
182
73
167
71
53
215
205
34
102
188
140
32
222
158
81
7
51
92
83
142
79
86
169
29
59
187
40
192
11
12
162
172
19
21
179
36
199
85
214
49
152
28
198
15
107
24
78
61
226
178
66
128
138
43
31
76
143
125
129
110
184
97
77
220
123
216
181
18
151
119
70
80
10
95
175
74
9
108
170
13
72
94
116
207
25
117
135
67
91
87
183
174
4
164
90
45
98
64
227
3
121
136
163
217
130
8
58
5
100
202
225
101
68
17
132
127
22
60
148
177
75

> <PUBCHEM_MMFF94_PARTIAL_CHARGES>
28
1 -0.57
10 0.3
13 0.3
14 0.05
17 0.58
18 0.06
2 -0.65
20 0.27
21 0.27
22 0.27
23 0.66
24 0.37
25 0.37
26 0.41
27 -0.15
28 -0.15
29 0.16
3 -0.57
30 -0.15
4 -0.66
5 -0.81
6 -0.84
60 0.5
61 0.15
62 0.15
63 0.15
64 0.15
7 -0.62

> <PUBCHEM_EFFECTIVE_ROTOR_COUNT>
11.2

> <PUBCHEM_PHARMACOPHORE_FEATURES>
11
1 1 acceptor
1 2 acceptor
1 3 acceptor
1 5 cation
1 6 cation
1 7 acceptor
3 2 3 23 anion
4 14 15 16 19 rings
6 4 8 9 10 11 13 rings
6 5 6 21 22 24 25 rings
6 7 26 27 28 29 30 rings

> <PUBCHEM_HEAVY_ATOM_COUNT>
30

> <PUBCHEM_ATOM_DEF_STEREO_COUNT>
2

> <PUBCHEM_ATOM_UDEF_STEREO_COUNT>
0

> <PUBCHEM_BOND_DEF_STEREO_COUNT>
0

> <PUBCHEM_BOND_UDEF_STEREO_COUNT>
0

> <PUBCHEM_ISOTOPIC_ATOM_COUNT>
0

> <PUBCHEM_COMPONENT_COUNT>
1

> <PUBCHEM_CACTVS_TAUTO_COUNT>
1

> <PUBCHEM_CONFORMER_ID>
01B9E52200000001

> <PUBCHEM_MMFF94_ENERGY>
77.8489

> <PUBCHEM_FEATURE_SELFOVERLAP>
55.882

> <PUBCHEM_SHAPE_FINGERPRINT>
10319926 262 18411979200104947856
11049842 53 18045814241105545493
11445158 3 14923956669163662406
11524674 6 18343300387718301999
12107183 9 18259984855922621636
12422481 6 18341053012649411470
12788726 201 18120666970507101351
14844126 61 18266175209218068691
14856354 85 17385731308909793440
15021287 119 17168137992770958860
15064986 96 18265059041870863635
15183329 4 17458617965555451618
15230672 131 18337957793054814646
15320294 125 18040716969665772062
15326921 28 18190728739944951405
15348495 7 18059006328493867216
15439362 3 17977950086270269557
15444296 121 18335145319013382156
15484559 13 14792146940532124174
15537594 2 17312814971000888208
15684973 49 18342174496891511175
15927050 60 18342736269924413303
16110190 28 18114173095635076706
20554085 129 18200297820159184593
20771845 65 11603411723843125741
21033648 29 18201425987450128392
229767 44 18333168358040147221
23516275 137 18044111064020794514
23522609 53 17532116976129843484
255183 451 8717668685411898585
3383291 50 18339640169761144343
3411729 13 18120938309408316545
397830 11 17843111761666481712
4017518 198 18342458123426025086
4073 2 18341328972998285668
484985 159 18117547646950053807
5080951 261 18043504275219526652
508706 21 18199478834115002110
5265222 85 18339931510039668348
5364581 5 17912069857816224600
5385378 56 18124325913292358569
58260988 114 16733274559531654603
6058803 2 17825961591480175116
9896288 288 18409173225066699547
9981440 41 18411424977904178603

> <PUBCHEM_SHAPE_MULTIPOLES>
579.85
17.11
5.45
1.45
30.7
5.16
-0.09
-14.07
-5.6
-10.92
0.36
0.77
0.37
-0.31

> <PUBCHEM_SHAPE_SELFOVERLAP>
1205.749

> <PUBCHEM_SHAPE_VOLUME>
326.2

> <PUBCHEM_COORDINATE_TYPE>
2
5
10

$$$$
