40777425
  -OEChem-12032416183D

 60 63  0     1  0  0  0  0  0999 V2000
   -4.6693    2.5095   -1.0468 F   0  0  0  0  0  0  0  0  0  0  0  0
    1.5472    1.4904    1.7403 O   0  0  0  0  0  0  0  0  0  0  0  0
    0.4502   -3.5300   -0.5328 O   0  0  0  0  0  0  0  0  0  0  0  0
   -5.5144   -2.2895    1.0415 O   0  0  0  0  0  0  0  0  0  0  0  0
    6.4179   -0.4159    0.2559 N   0  0  0  0  0  0  0  0  0  0  0  0
    1.5383    3.0222   -0.0075 N   0  0  0  0  0  0  0  0  0  0  0  0
    1.7727   -3.3825   -0.9333 N   0  0  0  0  0  0  0  0  0  0  0  0
    3.4958   -0.1323    0.5517 C   0  0  1  0  0  0  0  0  0  0  0  0
    4.1436   -1.1738   -0.3916 C   0  0  2  0  0  0  0  0  0  0  0  0
    4.4936    0.2245    1.6663 C   0  0  0  0  0  0  0  0  0  0  0  0
    5.5334   -0.7204   -0.8694 C   0  0  0  0  0  0  0  0  0  0  0  0
    5.8622    0.6255    1.1175 C   0  0  0  0  0  0  0  0  0  0  0  0
    3.2571   -1.5353   -1.5841 C   0  0  0  0  0  0  0  0  0  0  0  0
    2.9993    1.1313   -0.1610 C   0  0  0  0  0  0  0  0  0  0  0  0
    1.9284   -2.0710   -1.1353 C   0  0  0  0  0  0  0  0  0  0  0  0
    1.9570    1.8735    0.6479 C   0  0  0  0  0  0  0  0  0  0  0  0
    0.7499   -1.3482   -0.8809 C   0  0  0  0  0  0  0  0  0  0  0  0
   -0.1483   -2.3118   -0.5055 C   0  0  0  0  0  0  0  0  0  0  0  0
    0.5465    3.9226    0.5342 C   0  0  0  0  0  0  0  0  0  0  0  0
   -1.5261   -2.3054   -0.1075 C   0  0  0  0  0  0  0  0  0  0  0  0
   -0.8444    3.5458    0.1127 C   0  0  0  0  0  0  0  0  0  0  0  0
   -2.3918   -1.3320   -0.6064 C   0  0  0  0  0  0  0  0  0  0  0  0
   -2.0007   -3.2729    0.7781 C   0  0  0  0  0  0  0  0  0  0  0  0
   -1.3849    4.0741   -1.0596 C   0  0  0  0  0  0  0  0  0  0  0  0
   -1.5961    2.6674    0.8932 C   0  0  0  0  0  0  0  0  0  0  0  0
   -3.7318   -1.3260   -0.2196 C   0  0  0  0  0  0  0  0  0  0  0  0
   -3.3407   -3.2669    1.1650 C   0  0  0  0  0  0  0  0  0  0  0  0
   -4.2063   -2.2935    0.6662 C   0  0  0  0  0  0  0  0  0  0  0  0
   -2.6770    3.7244   -1.4513 C   0  0  0  0  0  0  0  0  0  0  0  0
   -2.8883    2.3177    0.5016 C   0  0  0  0  0  0  0  0  0  0  0  0
   -3.4288    2.8462   -0.6707 C   0  0  0  0  0  0  0  0  0  0  0  0
   -6.3446   -1.2677    0.4911 C   0  0  0  0  0  0  0  0  0  0  0  0
    2.6455   -0.6151    1.0499 H   0  0  0  0  0  0  0  0  0  0  0  0
    4.2921   -2.0902    0.2010 H   0  0  0  0  0  0  0  0  0  0  0  0
    4.1070    1.0287    2.3020 H   0  0  0  0  0  0  0  0  0  0  0  0
    4.6177   -0.6490    2.3208 H   0  0  0  0  0  0  0  0  0  0  0  0
    5.4524    0.1525   -1.5288 H   0  0  0  0  0  0  0  0  0  0  0  0
    5.9944   -1.5208   -1.4596 H   0  0  0  0  0  0  0  0  0  0  0  0
    6.5465    0.7810    1.9591 H   0  0  0  0  0  0  0  0  0  0  0  0
    5.8117    1.5781    0.5789 H   0  0  0  0  0  0  0  0  0  0  0  0
    3.1178   -0.6957   -2.2730 H   0  0  0  0  0  0  0  0  0  0  0  0
    3.7595   -2.3103   -2.1796 H   0  0  0  0  0  0  0  0  0  0  0  0
    3.8234    1.8206   -0.3748 H   0  0  0  0  0  0  0  0  0  0  0  0
    2.5303    0.9145   -1.1225 H   0  0  0  0  0  0  0  0  0  0  0  0
    7.3237   -0.1120   -0.0998 H   0  0  0  0  0  0  0  0  0  0  0  0
    0.5657   -0.2883   -0.9674 H   0  0  0  0  0  0  0  0  0  0  0  0
    1.9266    3.2427   -0.9202 H   0  0  0  0  0  0  0  0  0  0  0  0
    0.6235    3.9343    1.6279 H   0  0  0  0  0  0  0  0  0  0  0  0
    0.7936    4.9323    0.1872 H   0  0  0  0  0  0  0  0  0  0  0  0
   -2.0452   -0.5708   -1.3015 H   0  0  0  0  0  0  0  0  0  0  0  0
   -1.3469   -4.0388    1.1886 H   0  0  0  0  0  0  0  0  0  0  0  0
   -0.8086    4.7578   -1.6773 H   0  0  0  0  0  0  0  0  0  0  0  0
   -1.1895    2.2499    1.8102 H   0  0  0  0  0  0  0  0  0  0  0  0
   -4.3499   -0.5441   -0.6472 H   0  0  0  0  0  0  0  0  0  0  0  0
   -3.7046   -4.0223    1.8562 H   0  0  0  0  0  0  0  0  0  0  0  0
   -3.0979    4.1350   -2.3643 H   0  0  0  0  0  0  0  0  0  0  0  0
   -3.4749    1.6368    1.1110 H   0  0  0  0  0  0  0  0  0  0  0  0
   -6.0160   -0.2706    0.8033 H   0  0  0  0  0  0  0  0  0  0  0  0
   -6.4234   -1.3565   -0.5977 H   0  0  0  0  0  0  0  0  0  0  0  0
   -7.3506   -1.4146    0.8976 H   0  0  0  0  0  0  0  0  0  0  0  0
  1 31  1  0  0  0  0
  2 16  2  0  0  0  0
  3  7  1  0  0  0  0
  3 18  1  0  0  0  0
  4 28  1  0  0  0  0
  4 32  1  0  0  0  0
  5 11  1  0  0  0  0
  5 12  1  0  0  0  0
  5 45  1  0  0  0  0
  6 16  1  0  0  0  0
  6 19  1  0  0  0  0
  6 47  1  0  0  0  0
  7 15  2  0  0  0  0
  8  9  1  0  0  0  0
  8 10  1  0  0  0  0
  8 14  1  0  0  0  0
  8 33  1  0  0  0  0
  9 11  1  0  0  0  0
  9 13  1  0  0  0  0
  9 34  1  0  0  0  0
 10 12  1  0  0  0  0
 10 35  1  0  0  0  0
 10 36  1  0  0  0  0
 11 37  1  0  0  0  0
 11 38  1  0  0  0  0
 12 39  1  0  0  0  0
 12 40  1  0  0  0  0
 13 15  1  0  0  0  0
 13 41  1  0  0  0  0
 13 42  1  0  0  0  0
 14 16  1  0  0  0  0
 14 43  1  0  0  0  0
 14 44  1  0  0  0  0
 15 17  1  0  0  0  0
 17 18  2  0  0  0  0
 17 46  1  0  0  0  0
 18 20  1  0  0  0  0
 19 21  1  0  0  0  0
 19 48  1  0  0  0  0
 19 49  1  0  0  0  0
 20 22  2  0  0  0  0
 20 23  1  0  0  0  0
 21 24  2  0  0  0  0
 21 25  1  0  0  0  0
 22 26  1  0  0  0  0
 22 50  1  0  0  0  0
 23 27  2  0  0  0  0
 23 51  1  0  0  0  0
 24 29  1  0  0  0  0
 24 52  1  0  0  0  0
 25 30  2  0  0  0  0
 25 53  1  0  0  0  0
 26 28  2  0  0  0  0
 26 54  1  0  0  0  0
 27 28  1  0  0  0  0
 27 55  1  0  0  0  0
 29 31  2  0  0  0  0
 29 56  1  0  0  0  0
 30 31  1  0  0  0  0
 30 57  1  0  0  0  0
 32 58  1  0  0  0  0
 32 59  1  0  0  0  0
 32 60  1  0  0  0  0
M  END
> <PUBCHEM_COMPOUND_CID>
40777425

> <PUBCHEM_CONFORMER_RMSD>
1.2

> <PUBCHEM_CONFORMER_DIVERSEORDER>
1
24
2
49
77
108
94
28
7
81
18
69
13
98
66
72
87
58
106
86
43
90
67
100
89
93
5
10
74
26
101
103
47
75
50
85
6
60
61
9
79
78
96
70
35
97
30
4
55
92
16
102
73
99
80
22
82
3
44
63
64
41
31
11
23
52
48
38
39
95
8
91
45
51
71
36
46
21
104
53
37
17
32
59
42
33
68
40
88
84
56
29
83
27
19
14
12
65
76
57
25
107
54
34
105
15
62
20

> <PUBCHEM_MMFF94_PARTIAL_CHARGES>
40
1 -0.19
11 0.27
12 0.27
13 0.18
14 0.06
15 0.11
16 0.57
17 -0.15
18 0.09
19 0.44
2 -0.57
20 0.05
21 -0.14
22 -0.15
23 -0.15
24 -0.15
25 -0.15
26 -0.15
27 -0.15
28 0.08
29 -0.15
3 -0.02
30 -0.15
31 0.19
32 0.28
4 -0.36
45 0.36
46 0.15
47 0.37
5 -0.9
50 0.15
51 0.15
52 0.15
53 0.15
54 0.15
55 0.15
56 0.15
57 0.15
6 -0.73
7 -0.41

> <PUBCHEM_EFFECTIVE_ROTOR_COUNT>
10.2

> <PUBCHEM_PHARMACOPHORE_FEATURES>
10
1 2 acceptor
1 4 acceptor
1 5 cation
1 5 donor
1 6 donor
1 7 acceptor
5 3 7 15 17 18 rings
6 20 22 23 26 27 28 rings
6 21 24 25 29 30 31 rings
6 5 8 9 10 11 12 rings

> <PUBCHEM_HEAVY_ATOM_COUNT>
32

> <PUBCHEM_ATOM_DEF_STEREO_COUNT>
2

> <PUBCHEM_ATOM_UDEF_STEREO_COUNT>
0

> <PUBCHEM_BOND_DEF_STEREO_COUNT>
0

> <PUBCHEM_BOND_UDEF_STEREO_COUNT>
0

> <PUBCHEM_ISOTOPIC_ATOM_COUNT>
0

> <PUBCHEM_COMPONENT_COUNT>
1

> <PUBCHEM_CACTVS_TAUTO_COUNT>
2

> <PUBCHEM_CONFORMER_ID>
026E36D100000001

> <PUBCHEM_MMFF94_ENERGY>
66.8643

> <PUBCHEM_FEATURE_SELFOVERLAP>
50.747

> <PUBCHEM_SHAPE_FINGERPRINT>
10074138 170 18049683453458768176
10670039 82 18266201516414691422
10688039 33 18336269036865386890
108634 29 18127132974698318454
10864689 126 17834970672373436325
1100329 8 17617378377382308806
11828532 37 17752209650483065891
12422481 6 18270135590530659425
12788726 201 18187939420920732210
13122387 1 17764308340836163453
13402501 40 18342737416495206945
13561361 72 18410573985188621553
14117953 113 18342181098266975783
14363568 33 17907026427585249152
14725015 67 18336537317787188139
150020 26 17691695897511746811
15264996 44 18128835207381284653
16067689 391 16839961006236260406
17627616 140 17974279920340166691
19311894 1 15680277341751382527
20764821 26 18339091375850410933
21033648 29 17774709953074694274
21360443 126 18335136432520357629
23516275 137 16628841656361436701
3052486 1 18409450254873032116
463206 1 18268988683538507573
469060 322 18337128807866577299
484989 97 18200037227698426374
50150288 127 16054357791494083961
508706 21 18410570656720608605

> <PUBCHEM_SHAPE_MULTIPOLES>
618.72
12.01
6.29
1.37
4.25
3.89
0.05
-4.61
2.37
-6.4
-0.81
0.5
0.09
3.13

> <PUBCHEM_SHAPE_SELFOVERLAP>
1325.128

> <PUBCHEM_SHAPE_VOLUME>
343

> <PUBCHEM_COORDINATE_TYPE>
2
5
10

$$$$
