26743862
  -OEChem-12032416283D

 47 50  0     1  0  0  0  0  0999 V2000
   -2.4694    3.8075    0.2755 O   0  0  0  0  0  0  0  0  0  0  0  0
   -4.0291   -3.3550   -1.4193 O   0  0  0  0  0  0  0  0  0  0  0  0
    0.0845   -1.4711    2.0473 O   0  0  0  0  0  0  0  0  0  0  0  0
   -2.4113   -0.3358   -0.4002 N   0  0  1  0  0  0  0  0  0  0  0  0
    0.5303   -0.6347    0.0181 N   0  0  0  0  0  0  0  0  0  0  0  0
    1.4609   -1.2124    2.0265 N   0  0  0  0  0  0  0  0  0  0  0  0
   -2.7951    0.9485    0.1808 C   0  0  0  0  0  0  0  0  0  0  0  0
   -1.8708   -1.2861    0.5931 C   0  0  1  0  0  0  0  0  0  0  0  0
   -3.5385   -1.0071   -1.0446 C   0  0  0  0  0  0  0  0  0  0  0  0
   -2.2189   -2.6789    0.0355 C   0  0  0  0  0  0  0  0  0  0  0  0
   -2.9930   -2.4076   -1.2484 C   0  0  1  0  0  0  0  0  0  0  0  0
   -1.5866    1.6155    0.8438 C   0  0  0  0  0  0  0  0  0  0  0  0
   -3.3898    1.8783   -0.8815 C   0  0  0  0  0  0  0  0  0  0  0  0
   -0.3861   -1.1032    0.8269 C   0  0  0  0  0  0  0  0  0  0  0  0
   -1.9566    3.0085    1.3416 C   0  0  0  0  0  0  0  0  0  0  0  0
   -3.6600    3.2565   -0.2879 C   0  0  0  0  0  0  0  0  0  0  0  0
    1.6468   -0.7211    0.7978 C   0  0  0  0  0  0  0  0  0  0  0  0
    2.9343   -0.3091    0.3181 C   0  0  0  0  0  0  0  0  0  0  0  0
    3.0684    0.1968   -0.9748 C   0  0  0  0  0  0  0  0  0  0  0  0
    4.0523   -0.4130    1.1459 C   0  0  0  0  0  0  0  0  0  0  0  0
    4.3205    0.5991   -1.4402 C   0  0  0  0  0  0  0  0  0  0  0  0
    5.3044   -0.0110    0.6805 C   0  0  0  0  0  0  0  0  0  0  0  0
    5.4385    0.4952   -0.6124 C   0  0  0  0  0  0  0  0  0  0  0  0
    4.4644    1.1400   -2.8224 C   0  0  0  0  0  0  0  0  0  0  0  0
   -3.5615    0.7903    0.9539 H   0  0  0  0  0  0  0  0  0  0  0  0
   -2.3926   -1.1778    1.5547 H   0  0  0  0  0  0  0  0  0  0  0  0
   -3.8044   -0.5689   -2.0121 H   0  0  0  0  0  0  0  0  0  0  0  0
   -4.4391   -1.0277   -0.4165 H   0  0  0  0  0  0  0  0  0  0  0  0
   -1.3370   -3.2946   -0.1759 H   0  0  0  0  0  0  0  0  0  0  0  0
   -2.8358   -3.2323    0.7546 H   0  0  0  0  0  0  0  0  0  0  0  0
   -2.3257   -2.4433   -2.1183 H   0  0  0  0  0  0  0  0  0  0  0  0
   -0.7688    1.7166    0.1194 H   0  0  0  0  0  0  0  0  0  0  0  0
   -1.2301    1.0633    1.7168 H   0  0  0  0  0  0  0  0  0  0  0  0
   -4.3301    1.4901   -1.2865 H   0  0  0  0  0  0  0  0  0  0  0  0
   -2.6822    1.9834   -1.7144 H   0  0  0  0  0  0  0  0  0  0  0  0
   -2.6963    2.9611    2.1496 H   0  0  0  0  0  0  0  0  0  0  0  0
   -1.0679    3.5113    1.7366 H   0  0  0  0  0  0  0  0  0  0  0  0
   -4.0034    3.9386   -1.0722 H   0  0  0  0  0  0  0  0  0  0  0  0
   -4.4414    3.2148    0.4800 H   0  0  0  0  0  0  0  0  0  0  0  0
   -3.6161   -4.2341   -1.4669 H   0  0  0  0  0  0  0  0  0  0  0  0
    2.2087    0.2843   -1.6357 H   0  0  0  0  0  0  0  0  0  0  0  0
    3.9868   -0.8020    2.1589 H   0  0  0  0  0  0  0  0  0  0  0  0
    6.1751   -0.0923    1.3246 H   0  0  0  0  0  0  0  0  0  0  0  0
    6.4199    0.8031   -0.9633 H   0  0  0  0  0  0  0  0  0  0  0  0
    4.5818    0.3190   -3.5367 H   0  0  0  0  0  0  0  0  0  0  0  0
    3.5869    1.7314   -3.1052 H   0  0  0  0  0  0  0  0  0  0  0  0
    5.3348    1.7999   -2.9039 H   0  0  0  0  0  0  0  0  0  0  0  0
  1 15  1  0  0  0  0
  1 16  1  0  0  0  0
  2 11  1  0  0  0  0
  2 40  1  0  0  0  0
  3  6  1  0  0  0  0
  3 14  1  0  0  0  0
  4  7  1  0  0  0  0
  4  8  1  0  0  0  0
  4  9  1  0  0  0  0
  5 14  2  0  0  0  0
  5 17  1  0  0  0  0
  6 17  2  0  0  0  0
  7 12  1  0  0  0  0
  7 13  1  0  0  0  0
  7 25  1  0  0  0  0
  8 10  1  0  0  0  0
  8 14  1  0  0  0  0
  8 26  1  0  0  0  0
  9 11  1  0  0  0  0
  9 27  1  0  0  0  0
  9 28  1  0  0  0  0
 10 11  1  0  0  0  0
 10 29  1  0  0  0  0
 10 30  1  0  0  0  0
 11 31  1  0  0  0  0
 12 15  1  0  0  0  0
 12 32  1  0  0  0  0
 12 33  1  0  0  0  0
 13 16  1  0  0  0  0
 13 34  1  0  0  0  0
 13 35  1  0  0  0  0
 15 36  1  0  0  0  0
 15 37  1  0  0  0  0
 16 38  1  0  0  0  0
 16 39  1  0  0  0  0
 17 18  1  0  0  0  0
 18 19  1  0  0  0  0
 18 20  2  0  0  0  0
 19 21  2  0  0  0  0
 19 41  1  0  0  0  0
 20 22  1  0  0  0  0
 20 42  1  0  0  0  0
 21 23  1  0  0  0  0
 21 24  1  0  0  0  0
 22 23  2  0  0  0  0
 22 43  1  0  0  0  0
 23 44  1  0  0  0  0
 24 45  1  0  0  0  0
 24 46  1  0  0  0  0
 24 47  1  0  0  0  0
M  END
> <PUBCHEM_COMPOUND_CID>
26743862

> <PUBCHEM_CONFORMER_RMSD>
0.8

> <PUBCHEM_CONFORMER_DIVERSEORDER>
1
37
20
31
24
22
19
16
39
13
14
2
21
3
28
4
40
38
36
17
26
32
27
34
23
25
8
9
18
5
11
7
29
30
33
15
12
10
6
35

> <PUBCHEM_MMFF94_PARTIAL_CHARGES>
26
1 -0.56
11 0.28
14 0.3
15 0.28
16 0.28
17 0.46
18 0.05
19 -0.15
2 -0.68
20 -0.15
21 -0.14
22 -0.15
23 -0.15
24 0.14
3 -0.02
4 -0.81
40 0.4
41 0.15
42 0.15
43 0.15
44 0.15
5 -0.57
6 -0.41
7 0.27
8 0.45
9 0.27

> <PUBCHEM_EFFECTIVE_ROTOR_COUNT>
5.2

> <PUBCHEM_PHARMACOPHORE_FEATURES>
9
1 1 acceptor
1 2 acceptor
1 2 donor
1 4 cation
3 5 6 17 cation
5 3 5 6 14 17 rings
5 4 8 9 10 11 rings
6 1 7 12 13 15 16 rings
6 18 19 20 21 22 23 rings

> <PUBCHEM_HEAVY_ATOM_COUNT>
24

> <PUBCHEM_ATOM_DEF_STEREO_COUNT>
2

> <PUBCHEM_ATOM_UDEF_STEREO_COUNT>
0

> <PUBCHEM_BOND_DEF_STEREO_COUNT>
0

> <PUBCHEM_BOND_UDEF_STEREO_COUNT>
0

> <PUBCHEM_ISOTOPIC_ATOM_COUNT>
0

> <PUBCHEM_COMPONENT_COUNT>
1

> <PUBCHEM_CACTVS_TAUTO_COUNT>
1

> <PUBCHEM_CONFORMER_ID>
0198143600000001

> <PUBCHEM_MMFF94_ENERGY>
48.1664

> <PUBCHEM_FEATURE_SELFOVERLAP>
45.672

> <PUBCHEM_SHAPE_FINGERPRINT>
10673678 19 17612859406515665597
10871710 139 18260554415725015229
10906281 52 18122628254997690913
10937287 8 17838058104786890489
11049842 53 17911786990574017754
11370993 144 14201398218829660296
11477941 20 18128815425189803796
11582403 64 13119651512166789595
11640471 11 18115306644577745977
11725454 13 13840802483962827827
12173636 292 18197771107862252981
12788726 201 18336816568171695643
13583140 156 17632282463987052002
13828863 39 14710354562288310020
13994607 96 18114763571886081513
14142880 1 18041278773343233109
14187579 7 18267315398729544620
14251764 38 18338233894695167488
14790565 3 17984424032099331633
14910302 57 17846229851287196534
15463212 79 18335976463635122563
15475509 8 18060136596577940663
15534591 1 18261680276755326907
15842332 3 18043229289284890091
15961568 22 17981591973687732200
16994733 274 15430853498732196199
17818456 19 18051681162712037050
1813 80 17843121665228446447
21033650 10 18267043729462928420
21095088 737 18043825401065912244
21756936 100 17896343392547841448
21864079 5 17895492361879075444
22393880 68 18059021596949994238
22620623 9 18060418032150462767
22907989 373 18341881988180804943
235170 7 17561090224112309036
23557571 272 17989200473322268304
25147074 1 18042668547018427442
255183 451 17623839529141534655
266924 1 18188192226706373619
312425 83 18268455510982876318
3268164 11 18343301495946035830
341906 21 18411976954179683568
38570 142 17461192922818605396
4169191 19 17169001148570771596
46194498 28 17559957796034816528
469060 322 18115893887230353489
474 4 17676773063421709408
4921388 177 17704081672122227817
531348 171 18270689671329576558
5895379 119 18409173203876589108
621550 5 17417251090532555219
633830 44 17749119842161347258

> <PUBCHEM_SHAPE_MULTIPOLES>
461.36
10.61
3.61
1.87
12.31
1.63
-0.48
2.07
-4.39
-7.38
-0.23
1.57
-0.13
-2.48

> <PUBCHEM_SHAPE_SELFOVERLAP>
992.705

> <PUBCHEM_SHAPE_VOLUME>
256.2

> <PUBCHEM_COORDINATE_TYPE>
2
5
10

$$$$
