11912902
  -OEChem-12032416253D

 49 52  0     1  0  0  0  0  0999 V2000
   -5.1675   -1.7683    0.9106 S   0  0  0  0  0  0  0  0  0  0  0  0
    4.5732    0.8977    1.4593 S   0  0  0  0  0  0  0  0  0  0  0  0
   -0.2036    2.4050    1.1220 O   0  0  0  0  0  0  0  0  0  0  0  0
   -1.4838    2.8098   -1.6947 O   0  0  0  0  0  0  0  0  0  0  0  0
   -5.1422    1.2643    0.0999 O   0  0  0  0  0  0  0  0  0  0  0  0
   -2.4401   -4.4171    0.1037 O   0  0  0  0  0  0  0  0  0  0  0  0
   -4.3497   -3.8646   -0.9978 O   0  0  0  0  0  0  0  0  0  0  0  0
   -3.0989    1.2779    1.2082 N   0  0  0  0  0  0  0  0  0  0  0  0
    1.0005    0.9932   -2.0223 N   0  0  0  0  0  0  0  0  0  0  0  0
    2.6700    0.1573   -0.6412 N   0  0  0  0  0  0  0  0  0  0  0  0
    2.1491   -0.8896   -2.7482 N   0  0  0  0  0  0  0  0  0  0  0  0
   -1.6442    1.8097   -0.6750 C   0  0  1  0  0  0  0  0  0  0  0  0
   -0.2815    1.5784   -0.0516 C   0  0  1  0  0  0  0  0  0  0  0  0
   -2.4824    2.3479    0.4620 C   0  0  2  0  0  0  0  0  0  0  0  0
    0.6917    2.0639   -1.0999 C   0  0  2  0  0  0  0  0  0  0  0  0
   -1.4548    3.0846    1.3028 C   0  0  0  0  0  0  0  0  0  0  0  0
   -0.0947    3.1538   -1.8048 C   0  0  0  0  0  0  0  0  0  0  0  0
   -4.3858    0.8225    0.9633 C   0  0  0  0  0  0  0  0  0  0  0  0
    1.9827    0.0459   -1.7938 C   0  0  0  0  0  0  0  0  0  0  0  0
   -4.8056   -0.2927    1.8918 C   0  0  0  0  0  0  0  0  0  0  0  0
    3.6189   -0.7827   -0.4510 C   0  0  0  0  0  0  0  0  0  0  0  0
    3.1140   -1.7976   -2.4934 C   0  0  0  0  0  0  0  0  0  0  0  0
    3.8877   -1.7937   -1.3509 C   0  0  0  0  0  0  0  0  0  0  0  0
    4.3509   -0.6589    0.7813 C   0  0  0  0  0  0  0  0  0  0  0  0
   -3.4722   -2.3422    0.6520 C   0  0  0  0  0  0  0  0  0  0  0  0
    4.9344   -1.6444    1.5469 C   0  0  0  0  0  0  0  0  0  0  0  0
   -3.4907   -3.6015   -0.1658 C   0  0  0  0  0  0  0  0  0  0  0  0
    5.5724   -1.1144    2.7054 C   0  0  0  0  0  0  0  0  0  0  0  0
    5.4522    0.2557    2.7812 C   0  0  0  0  0  0  0  0  0  0  0  0
   -2.0534    0.9145   -1.1545 H   0  0  0  0  0  0  0  0  0  0  0  0
   -0.1339    0.5428    0.2712 H   0  0  0  0  0  0  0  0  0  0  0  0
   -3.2655    3.0343    0.1225 H   0  0  0  0  0  0  0  0  0  0  0  0
    1.6091    2.4967   -0.6846 H   0  0  0  0  0  0  0  0  0  0  0  0
   -1.6982    3.1195    2.3690 H   0  0  0  0  0  0  0  0  0  0  0  0
   -1.3207    4.1116    0.9458 H   0  0  0  0  0  0  0  0  0  0  0  0
    0.1648    3.2778   -2.8607 H   0  0  0  0  0  0  0  0  0  0  0  0
    0.0397    4.1187   -1.3036 H   0  0  0  0  0  0  0  0  0  0  0  0
   -2.5345    0.8055    1.9087 H   0  0  0  0  0  0  0  0  0  0  0  0
    0.4444    0.8838   -2.8627 H   0  0  0  0  0  0  0  0  0  0  0  0
   -4.0560   -0.5111    2.6577 H   0  0  0  0  0  0  0  0  0  0  0  0
   -5.7179    0.0270    2.4056 H   0  0  0  0  0  0  0  0  0  0  0  0
    3.2536   -2.5526   -3.2596 H   0  0  0  0  0  0  0  0  0  0  0  0
    4.6546   -2.5428   -1.1983 H   0  0  0  0  0  0  0  0  0  0  0  0
   -2.8797   -1.5938    0.1189 H   0  0  0  0  0  0  0  0  0  0  0  0
   -3.0208   -2.5535    1.6259 H   0  0  0  0  0  0  0  0  0  0  0  0
    4.9094   -2.6997    1.3048 H   0  0  0  0  0  0  0  0  0  0  0  0
    6.0918   -1.7080    3.4463 H   0  0  0  0  0  0  0  0  0  0  0  0
    5.8381    0.9104    3.5498 H   0  0  0  0  0  0  0  0  0  0  0  0
   -2.4601   -5.2322   -0.4417 H   0  0  0  0  0  0  0  0  0  0  0  0
  1 20  1  0  0  0  0
  1 25  1  0  0  0  0
  2 24  1  0  0  0  0
  2 29  1  0  0  0  0
  3 13  1  0  0  0  0
  3 16  1  0  0  0  0
  4 12  1  0  0  0  0
  4 17  1  0  0  0  0
  5 18  2  0  0  0  0
  6 27  1  0  0  0  0
  6 49  1  0  0  0  0
  7 27  2  0  0  0  0
  8 14  1  0  0  0  0
  8 18  1  0  0  0  0
  8 38  1  0  0  0  0
  9 15  1  0  0  0  0
  9 19  1  0  0  0  0
  9 39  1  0  0  0  0
 10 19  1  0  0  0  0
 10 21  2  0  0  0  0
 11 19  2  0  0  0  0
 11 22  1  0  0  0  0
 12 13  1  0  0  0  0
 12 14  1  0  0  0  0
 12 30  1  0  0  0  0
 13 15  1  0  0  0  0
 13 31  1  0  0  0  0
 14 16  1  0  0  0  0
 14 32  1  0  0  0  0
 15 17  1  0  0  0  0
 15 33  1  0  0  0  0
 16 34  1  0  0  0  0
 16 35  1  0  0  0  0
 17 36  1  0  0  0  0
 17 37  1  0  0  0  0
 18 20  1  0  0  0  0
 20 40  1  0  0  0  0
 20 41  1  0  0  0  0
 21 23  1  0  0  0  0
 21 24  1  0  0  0  0
 22 23  2  0  0  0  0
 22 42  1  0  0  0  0
 23 43  1  0  0  0  0
 24 26  2  0  0  0  0
 25 27  1  0  0  0  0
 25 44  1  0  0  0  0
 25 45  1  0  0  0  0
 26 28  1  0  0  0  0
 26 46  1  0  0  0  0
 28 29  2  0  0  0  0
 28 47  1  0  0  0  0
 29 48  1  0  0  0  0
M  END
> <PUBCHEM_COMPOUND_CID>
11912902

> <PUBCHEM_CONFORMER_RMSD>
1

> <PUBCHEM_CONFORMER_DIVERSEORDER>
3
139
103
80
69
85
52
140
99
93
112
124
95
127
32
89
128
126
59
84
137
63
107
120
129
119
39
50
97
125
92
58
116
121
56
36
136
81
87
102
115
132
141
79
96
134
28
110
17
105
2
61
117
82
14
133
101
74
27
47
41
64
9
35
98
49
73
29
62
34
72
123
68
75
113
60
138
30
22
106
88
104
45
44
46
48
71
55
65
108
51
31
130
135
86
90
18
67
24
57
16
94
23
122
118
40
131
38
114
70
76
10
20
37
42
7
77
26
53
13
33
109
21
5
78
66
12
100
54
111
4
1
83
91
15
25
43
8
6
11
19

> <PUBCHEM_MMFF94_PARTIAL_CHARGES>
37
1 -0.46
10 -0.62
11 -0.62
12 0.28
13 0.28
14 0.3
15 0.37
16 0.28
17 0.28
18 0.57
19 0.72
2 -0.08
20 0.29
21 0.36
22 0.16
23 -0.15
24 -0.01
25 0.29
26 -0.15
27 0.66
28 -0.15
29 -0.11
3 -0.56
38 0.37
39 0.4
4 -0.56
42 0.15
43 0.15
46 0.15
47 0.15
48 0.15
49 0.5
5 -0.57
6 -0.65
7 -0.57
8 -0.73
9 -0.87

> <PUBCHEM_EFFECTIVE_ROTOR_COUNT>
10.2

> <PUBCHEM_PHARMACOPHORE_FEATURES>
14
1 10 acceptor
1 3 acceptor
1 4 acceptor
1 5 acceptor
1 6 acceptor
1 7 acceptor
1 8 donor
1 9 donor
3 6 7 27 anion
4 9 10 11 19 cation
5 2 24 26 28 29 rings
5 3 12 13 14 16 rings
5 4 12 13 15 17 rings
6 10 11 19 21 22 23 rings

> <PUBCHEM_HEAVY_ATOM_COUNT>
29

> <PUBCHEM_ATOM_DEF_STEREO_COUNT>
4

> <PUBCHEM_ATOM_UDEF_STEREO_COUNT>
0

> <PUBCHEM_BOND_DEF_STEREO_COUNT>
0

> <PUBCHEM_BOND_UDEF_STEREO_COUNT>
0

> <PUBCHEM_ISOTOPIC_ATOM_COUNT>
0

> <PUBCHEM_COMPONENT_COUNT>
1

> <PUBCHEM_CACTVS_TAUTO_COUNT>
6

> <PUBCHEM_CONFORMER_ID>
00B5C6C600000003

> <PUBCHEM_MMFF94_ENERGY>
67.8695

> <PUBCHEM_FEATURE_SELFOVERLAP>
71.812

> <PUBCHEM_SHAPE_FINGERPRINT>
10319688 77 17822842177907083757
10462674 125 16842450635073368871
10556698 54 11603365625337333683
10622 236 16298666062840237768
10794284 68 17838336647033452908
11069576 57 16298682590175235106
11135609 149 14418121912604265930
11135926 11 14347518938290659662
12422481 6 18273209824588395662
12523318 42 18337666404327850625
12712778 12 18409442588240481307
13561361 72 18412546487853986106
13828863 39 15554440838238136512
14508693 111 18189063164585791594
14705955 166 16986052089061926601
14950920 106 17202494285805177450
15163728 17 11095888185014937209
161222 619 17489583485167677672
17349148 13 16878232948324302032
18603816 31 16592212504982859778
20775530 9 18050586315534801687
21458453 9 17773862276626972264
21585480 29 18337374046421048386
22122407 14 15266790909800069859
22440779 20 13750267429716627148
23536364 44 13046208468773389759
23572383 38 18202846552436398391
24941158 1 15912229536983536758
3383291 50 18341620313642073867
3459 110 17417518228528389562
3882209 13 17626647642946824263
4394409 98 18188756311291062943
463206 1 17313394413111872481
4756261 7 17479155910321602096
5085150 59 18335979750049962065
552612 73 17775010115970866438
563151 74 16487252149674003718

> <PUBCHEM_SHAPE_MULTIPOLES>
555.23
13.03
4.62
2.77
2.07
2.42
0.27
8.93
-9.35
-6.59
1.12
4.03
0.08
-0.07

> <PUBCHEM_SHAPE_SELFOVERLAP>
1165.019

> <PUBCHEM_SHAPE_VOLUME>
315

> <PUBCHEM_COORDINATE_TYPE>
2
5
10

$$$$
