38026473
  -OEChem-12032416223D

 50 53  0     1  0  0  0  0  0999 V2000
   -4.0222    1.6112   -0.9627 O   0  0  0  0  0  0  0  0  0  0  0  0
    2.8895    1.9230   -1.2249 O   0  0  0  0  0  0  0  0  0  0  0  0
   -1.5057    3.0415    1.0471 N   0  0  1  0  0  0  0  0  0  0  0  0
    1.2350    1.9658    0.3891 N   0  0  0  0  0  0  0  0  0  0  0  0
   -2.5322    0.2445    0.0009 N   0  0  0  0  0  0  0  0  0  0  0  0
    2.9157    0.4137    0.5727 N   0  0  0  0  0  0  0  0  0  0  0  0
   -4.6235    0.3470   -0.9209 N   0  0  0  0  0  0  0  0  0  0  0  0
   -5.0502   -2.3223   -0.4707 N   0  0  0  0  0  0  0  0  0  0  0  0
    0.4804    3.0603   -0.1737 C   0  0  1  0  0  0  0  0  0  0  0  0
   -1.9322    2.7048   -0.3246 C   0  0  1  0  0  0  0  0  0  0  0  0
   -0.6165    2.5623   -1.1148 C   0  0  0  0  0  0  0  0  0  0  0  0
   -0.2744    3.8245    0.9036 C   0  0  0  0  0  0  0  0  0  0  0  0
   -2.7940    1.4627   -0.4008 C   0  0  0  0  0  0  0  0  0  0  0  0
   -2.5229    3.7614    1.8040 C   0  0  0  0  0  0  0  0  0  0  0  0
    2.4073    1.4686   -0.1902 C   0  0  0  0  0  0  0  0  0  0  0  0
   -3.6835   -0.4040   -0.3392 C   0  0  0  0  0  0  0  0  0  0  0  0
   -3.8625   -1.8044   -0.0852 C   0  0  0  0  0  0  0  0  0  0  0  0
    4.0789   -0.3529    0.3279 C   0  0  0  0  0  0  0  0  0  0  0  0
    4.4363   -1.3776    1.2043 C   0  0  0  0  0  0  0  0  0  0  0  0
    4.8687   -0.0839   -0.7899 C   0  0  0  0  0  0  0  0  0  0  0  0
   -2.8555   -2.5391    0.5198 C   0  0  0  0  0  0  0  0  0  0  0  0
    5.5834   -2.1334    0.9627 C   0  0  0  0  0  0  0  0  0  0  0  0
    6.0159   -0.8397   -1.0314 C   0  0  0  0  0  0  0  0  0  0  0  0
    6.3732   -1.8646   -0.1552 C   0  0  0  0  0  0  0  0  0  0  0  0
   -3.0820   -3.8927    0.7431 C   0  0  0  0  0  0  0  0  0  0  0  0
   -5.2343   -3.6411   -0.2373 C   0  0  0  0  0  0  0  0  0  0  0  0
   -4.2915   -4.4619    0.3602 C   0  0  0  0  0  0  0  0  0  0  0  0
    7.5989   -2.6736   -0.4143 C   0  0  0  0  0  0  0  0  0  0  0  0
    1.1752    3.7194   -0.7059 H   0  0  0  0  0  0  0  0  0  0  0  0
   -2.4898    3.5460   -0.7613 H   0  0  0  0  0  0  0  0  0  0  0  0
   -0.4274    1.5407   -1.4649 H   0  0  0  0  0  0  0  0  0  0  0  0
   -0.6614    3.2102   -1.9992 H   0  0  0  0  0  0  0  0  0  0  0  0
    0.2803    3.8874    1.8459 H   0  0  0  0  0  0  0  0  0  0  0  0
   -0.4926    4.8419    0.5533 H   0  0  0  0  0  0  0  0  0  0  0  0
    0.8594    1.4893    1.2036 H   0  0  0  0  0  0  0  0  0  0  0  0
   -3.4234    3.1493    1.9221 H   0  0  0  0  0  0  0  0  0  0  0  0
   -2.8091    4.7050    1.3259 H   0  0  0  0  0  0  0  0  0  0  0  0
   -2.1584    3.9853    2.8126 H   0  0  0  0  0  0  0  0  0  0  0  0
    2.3923    0.1599    1.4070 H   0  0  0  0  0  0  0  0  0  0  0  0
    3.8292   -1.5977    2.0787 H   0  0  0  0  0  0  0  0  0  0  0  0
    4.6579    0.6911   -1.5130 H   0  0  0  0  0  0  0  0  0  0  0  0
   -1.9093   -2.1017    0.8211 H   0  0  0  0  0  0  0  0  0  0  0  0
    5.8503   -2.9304    1.6516 H   0  0  0  0  0  0  0  0  0  0  0  0
    6.6230   -0.6229   -1.9066 H   0  0  0  0  0  0  0  0  0  0  0  0
   -2.3177   -4.5031    1.2145 H   0  0  0  0  0  0  0  0  0  0  0  0
   -6.1938   -4.0363   -0.5543 H   0  0  0  0  0  0  0  0  0  0  0  0
   -4.4899   -5.5148    0.5244 H   0  0  0  0  0  0  0  0  0  0  0  0
    7.3524   -3.5407   -1.0349 H   0  0  0  0  0  0  0  0  0  0  0  0
    8.3628   -2.0799   -0.9279 H   0  0  0  0  0  0  0  0  0  0  0  0
    8.0444   -3.0272    0.5218 H   0  0  0  0  0  0  0  0  0  0  0  0
  1  7  1  0  0  0  0
  1 13  1  0  0  0  0
  2 15  2  0  0  0  0
  3 10  1  0  0  0  0
  3 12  1  0  0  0  0
  3 14  1  0  0  0  0
  4  9  1  0  0  0  0
  4 15  1  0  0  0  0
  4 35  1  0  0  0  0
  5 13  2  0  0  0  0
  5 16  1  0  0  0  0
  6 15  1  0  0  0  0
  6 18  1  0  0  0  0
  6 39  1  0  0  0  0
  7 16  2  0  0  0  0
  8 17  1  0  0  0  0
  8 26  2  0  0  0  0
  9 11  1  0  0  0  0
  9 12  1  0  0  0  0
  9 29  1  0  0  0  0
 10 11  1  0  0  0  0
 10 13  1  0  0  0  0
 10 30  1  0  0  0  0
 11 31  1  0  0  0  0
 11 32  1  0  0  0  0
 12 33  1  0  0  0  0
 12 34  1  0  0  0  0
 14 36  1  0  0  0  0
 14 37  1  0  0  0  0
 14 38  1  0  0  0  0
 16 17  1  0  0  0  0
 17 21  2  0  0  0  0
 18 19  2  0  0  0  0
 18 20  1  0  0  0  0
 19 22  1  0  0  0  0
 19 40  1  0  0  0  0
 20 23  2  0  0  0  0
 20 41  1  0  0  0  0
 21 25  1  0  0  0  0
 21 42  1  0  0  0  0
 22 24  2  0  0  0  0
 22 43  1  0  0  0  0
 23 24  1  0  0  0  0
 23 44  1  0  0  0  0
 24 28  1  0  0  0  0
 25 27  2  0  0  0  0
 25 45  1  0  0  0  0
 26 27  1  0  0  0  0
 26 46  1  0  0  0  0
 27 47  1  0  0  0  0
 28 48  1  0  0  0  0
 28 49  1  0  0  0  0
 28 50  1  0  0  0  0
M  END
> <PUBCHEM_COMPOUND_CID>
38026473

> <PUBCHEM_CONFORMER_RMSD>
0.8

> <PUBCHEM_CONFORMER_DIVERSEORDER>
1
282
153
87
203
183
168
292
170
297
176
165
195
142
10
55
24
253
198
223
175
113
237
138
162
276
221
114
222
174
44
172
259
268
85
23
72
157
118
263
98
90
190
42
211
109
141
50
283
18
280
97
82
14
206
230
216
220
77
33
99
286
120
288
214
255
27
277
185
32
143
15
166
254
240
121
270
243
156
126
188
202
81
186
94
38
236
8
294
78
9
100
226
182
51
95
68
199
83
159
129
219
261
179
208
135
269
59
147
22
88
105
108
264
291
209
41
281
37
49
70
256
296
117
241
227
258
58
134
107
279
119
247
245
225
11
171
64
287
293
285
43
60
224
194
289
295
229
167
149
262
79
284
102
133
244
178
212
35
164
248
2
66
200
28
86
136
123
232
272
275
140
17
158
192
267
84
74
112
189
61
62
278
148
19
106
89
127
299
205
273
52
265
131
215
180
218
242
56
228
217
234
196
271
31
249
75
122
238
96
40
207
246
104
73
63
193
298
128
130
235
155
91
92
71
197
301
181
65
45
116
7
29
47
250
145
184
115
213
132
54
160
69
252
210
146
302
274
101
201
3
177
257
5
67
260
30
125
12
266
161
151
204
111
191
53
152
124
57
233
163
231
46
173
290
76
20
26
93
110
251
4
137
139
154
6
103
239
300
36
48
187
25
16
144
13
21
80
34
169
150
39

> <PUBCHEM_MMFF94_PARTIAL_CHARGES>
37
1 -0.02
10 0.45
12 0.27
13 0.3
14 0.27
15 0.69
16 0.46
17 0.36
18 0.12
19 -0.15
2 -0.57
20 -0.15
21 -0.15
22 -0.15
23 -0.15
24 -0.14
25 -0.15
26 0.16
27 -0.15
28 0.14
3 -0.81
35 0.37
39 0.37
4 -0.73
40 0.15
41 0.15
42 0.15
43 0.15
44 0.15
45 0.15
46 0.15
47 0.15
5 -0.57
6 -0.55
7 -0.41
8 -0.62
9 0.3

> <PUBCHEM_EFFECTIVE_ROTOR_COUNT>
7

> <PUBCHEM_PHARMACOPHORE_FEATURES>
10
1 2 acceptor
1 3 cation
1 4 donor
1 6 donor
1 8 acceptor
3 5 7 16 cation
5 1 5 7 13 16 rings
5 3 9 10 11 12 rings
6 18 19 20 22 23 24 rings
6 8 17 21 25 26 27 rings

> <PUBCHEM_HEAVY_ATOM_COUNT>
28

> <PUBCHEM_ATOM_DEF_STEREO_COUNT>
2

> <PUBCHEM_ATOM_UDEF_STEREO_COUNT>
0

> <PUBCHEM_BOND_DEF_STEREO_COUNT>
0

> <PUBCHEM_BOND_UDEF_STEREO_COUNT>
0

> <PUBCHEM_ISOTOPIC_ATOM_COUNT>
0

> <PUBCHEM_COMPONENT_COUNT>
1

> <PUBCHEM_CACTVS_TAUTO_COUNT>
3

> <PUBCHEM_CONFORMER_ID>
02443CE900000001

> <PUBCHEM_MMFF94_ENERGY>
63.2981

> <PUBCHEM_FEATURE_SELFOVERLAP>
50.798

> <PUBCHEM_SHAPE_FINGERPRINT>
10042902 136 18408604751811371284
10391435 84 18338222809515529328
10571361 74 18045773495395178442
10622 236 18334290989708992894
10928967 22 17834974331279527295
11285246 1 17749951197157793275
11315621 246 18263651654602873438
11374522 301 17103711171964379922
117089 54 18337958998949042702
11756154 5 18411689998671826150
12107183 9 18198642089223769865
12645989 146 18269836574106717342
12969540 37 18048592921832920333
1361 4 18339082589207634398
13631057 29 18337679736470962988
13690498 29 17967812739037663205
13911852 28 18196933494940234527
14251757 5 18334573512520768442
14856354 85 18127978508120857524
14866123 147 18412549791358609041
15250474 111 18117272554800543138
15728490 83 18335993003512663643
15803439 3 17173741983999075381
16120349 21 18410863157701372411
17138139 8 18040711459871805634
17492 89 18337952423310888173
17627616 140 17970618589411713971
17909252 39 18194967576391624320
19246450 95 18126871325992611137
19319366 153 17618227651209102140
20775438 99 17402031796499686315
20775530 9 18262232330476847459
21196832 93 18410578401385718638
21307412 95 18337660958899598213
23379529 103 18337391646589832458
23466295 7 18410015442272715457
23559900 14 18192421082129364007
25025965 108 17343194374039629574
2835820 82 17763179542455455935
32027 91 18268140037050421773
325973 47 18263646340959182018
3383291 50 18340488860020185937
395649 100 18336268943342087590
44062 13 18335416881157594151
4435113 14 17629492882765639966
474144 1 17315329489025895378
484985 159 18339645538617424801
5372103 7 12462743746630300379
54324442 115 18189059857535392314
6371380 46 18198614454972677097
6441014 3 18339360880559089210
7970288 3 18410571816404508982
88748 71 18264208196127523831
9980921 52 17413011447133139903

> <PUBCHEM_SHAPE_MULTIPOLES>
534.6
16.34
6.41
1.16
24.59
0.9
-0.19
20.76
2.17
-8.52
-1.72
0.17
-0.63
-0.49

> <PUBCHEM_SHAPE_SELFOVERLAP>
1153.846

> <PUBCHEM_SHAPE_VOLUME>
294.4

> <PUBCHEM_COORDINATE_TYPE>
2
5
10

$$$$
