51137246
  -OEChem-12032416243D

 41 44  0     1  0  0  0  0  0999 V2000
    6.9382    3.1173   -0.0912 Cl  0  0  0  0  0  0  0  0  0  0  0  0
    1.5438   -0.7714    0.1322 O   0  0  0  0  0  0  0  0  0  0  0  0
   -2.4961   -0.5829   -0.1845 N   0  0  1  0  0  0  0  0  0  0  0  0
    1.6792   -2.9969   -0.0494 N   0  0  0  0  0  0  0  0  0  0  0  0
    2.9597   -2.4828   -0.1335 N   0  0  0  0  0  0  0  0  0  0  0  0
   -4.7745    1.8014    0.2892 N   0  0  0  0  0  0  0  0  0  0  0  0
   -0.6173   -1.9163    0.2532 C   0  0  1  0  0  0  0  0  0  0  0  0
   -1.1188   -1.2871    1.5647 C   0  0  0  0  0  0  0  0  0  0  0  0
   -1.3026   -1.1043   -0.8541 C   0  0  0  0  0  0  0  0  0  0  0  0
   -2.0296   -0.1457    1.1313 C   0  0  0  0  0  0  0  0  0  0  0  0
   -3.1279    0.4930   -0.9340 C   0  0  0  0  0  0  0  0  0  0  0  0
    0.8860   -1.9627    0.1053 C   0  0  0  0  0  0  0  0  0  0  0  0
   -4.5494    0.7230   -0.4943 C   0  0  0  0  0  0  0  0  0  0  0  0
    2.8324   -1.1811   -0.0229 C   0  0  0  0  0  0  0  0  0  0  0  0
   -5.5371   -0.1585   -0.9034 C   0  0  0  0  0  0  0  0  0  0  0  0
    3.8229   -0.1441   -0.0393 C   0  0  0  0  0  0  0  0  0  0  0  0
   -6.8398    0.0826   -0.4812 C   0  0  0  0  0  0  0  0  0  0  0  0
   -6.0529    2.0035    0.6799 C   0  0  0  0  0  0  0  0  0  0  0  0
   -7.1111    1.1821    0.3256 C   0  0  0  0  0  0  0  0  0  0  0  0
    5.1706   -0.4694   -0.1930 C   0  0  0  0  0  0  0  0  0  0  0  0
    3.4387    1.1898    0.0981 C   0  0  0  0  0  0  0  0  0  0  0  0
    6.1340    0.5391   -0.2092 C   0  0  0  0  0  0  0  0  0  0  0  0
    4.4020    2.1983    0.0820 C   0  0  0  0  0  0  0  0  0  0  0  0
    5.7497    1.8730   -0.0716 C   0  0  0  0  0  0  0  0  0  0  0  0
   -0.9835   -2.9516    0.2141 H   0  0  0  0  0  0  0  0  0  0  0  0
   -1.6938   -2.0330    2.1278 H   0  0  0  0  0  0  0  0  0  0  0  0
   -0.3127   -0.9302    2.2144 H   0  0  0  0  0  0  0  0  0  0  0  0
   -0.6602   -0.2908   -1.2162 H   0  0  0  0  0  0  0  0  0  0  0  0
   -1.5627   -1.7398   -1.7077 H   0  0  0  0  0  0  0  0  0  0  0  0
   -1.4499    0.7846    1.0730 H   0  0  0  0  0  0  0  0  0  0  0  0
   -2.8494   -0.0034    1.8424 H   0  0  0  0  0  0  0  0  0  0  0  0
   -2.5553    1.4281   -0.8715 H   0  0  0  0  0  0  0  0  0  0  0  0
   -3.1595    0.2389   -2.0027 H   0  0  0  0  0  0  0  0  0  0  0  0
   -5.3159   -1.0135   -1.5333 H   0  0  0  0  0  0  0  0  0  0  0  0
   -7.6422   -0.5850   -0.7803 H   0  0  0  0  0  0  0  0  0  0  0  0
   -6.2115    2.8739    1.3078 H   0  0  0  0  0  0  0  0  0  0  0  0
   -8.1189    1.3895    0.6665 H   0  0  0  0  0  0  0  0  0  0  0  0
    5.4929   -1.5022   -0.3019 H   0  0  0  0  0  0  0  0  0  0  0  0
    2.3988    1.4825    0.2197 H   0  0  0  0  0  0  0  0  0  0  0  0
    7.1806    0.2711   -0.3296 H   0  0  0  0  0  0  0  0  0  0  0  0
    4.0885    3.2335    0.1903 H   0  0  0  0  0  0  0  0  0  0  0  0
  1 24  1  0  0  0  0
  2 12  1  0  0  0  0
  2 14  1  0  0  0  0
  3  9  1  0  0  0  0
  3 10  1  0  0  0  0
  3 11  1  0  0  0  0
  4  5  1  0  0  0  0
  4 12  2  0  0  0  0
  5 14  2  0  0  0  0
  6 13  1  0  0  0  0
  6 18  2  0  0  0  0
  7  8  1  0  0  0  0
  7  9  1  0  0  0  0
  7 12  1  0  0  0  0
  7 25  1  0  0  0  0
  8 10  1  0  0  0  0
  8 26  1  0  0  0  0
  8 27  1  0  0  0  0
  9 28  1  0  0  0  0
  9 29  1  0  0  0  0
 10 30  1  0  0  0  0
 10 31  1  0  0  0  0
 11 13  1  0  0  0  0
 11 32  1  0  0  0  0
 11 33  1  0  0  0  0
 13 15  2  0  0  0  0
 14 16  1  0  0  0  0
 15 17  1  0  0  0  0
 15 34  1  0  0  0  0
 16 20  2  0  0  0  0
 16 21  1  0  0  0  0
 17 19  2  0  0  0  0
 17 35  1  0  0  0  0
 18 19  1  0  0  0  0
 18 36  1  0  0  0  0
 19 37  1  0  0  0  0
 20 22  1  0  0  0  0
 20 38  1  0  0  0  0
 21 23  2  0  0  0  0
 21 39  1  0  0  0  0
 22 24  2  0  0  0  0
 22 40  1  0  0  0  0
 23 24  1  0  0  0  0
 23 41  1  0  0  0  0
M  END
> <PUBCHEM_COMPOUND_CID>
51137246

> <PUBCHEM_CONFORMER_RMSD>
0.8

> <PUBCHEM_CONFORMER_DIVERSEORDER>
1
36
26
93
4
63
23
46
92
40
72
51
69
70
65
18
59
91
3
66
61
2
89
17
74
39
64
83
20
25
77
84
68
52
34
8
80
82
41
5
54
7
78
13
87
19
50
56
48
55
75
81
21
45
58
38
27
57
76
16
47
49
44
31
6
90
9
14
42
35
11
43
32
22
67
53
33
15
37
60
24
30
29
62
28
79
86
88
85
12
71
10
73

> <PUBCHEM_MMFF94_PARTIAL_CHARGES>
31
1 -0.18
10 0.27
11 0.41
12 0.3
13 0.17
14 0.43
15 -0.15
16 0.05
17 -0.15
18 0.16
19 -0.15
2 -0.28
20 -0.15
21 -0.15
22 -0.15
23 -0.15
24 0.18
3 -0.81
34 0.15
35 0.15
36 0.15
37 0.15
38 0.15
39 0.15
4 -0.34
40 0.15
41 0.15
5 -0.34
6 -0.62
7 0.18
9 0.27

> <PUBCHEM_EFFECTIVE_ROTOR_COUNT>
5

> <PUBCHEM_PHARMACOPHORE_FEATURES>
6
1 3 cation
1 6 acceptor
5 2 4 5 12 14 rings
5 3 7 8 9 10 rings
6 16 20 21 22 23 24 rings
6 6 13 15 17 18 19 rings

> <PUBCHEM_HEAVY_ATOM_COUNT>
24

> <PUBCHEM_ATOM_DEF_STEREO_COUNT>
1

> <PUBCHEM_ATOM_UDEF_STEREO_COUNT>
0

> <PUBCHEM_BOND_DEF_STEREO_COUNT>
0

> <PUBCHEM_BOND_UDEF_STEREO_COUNT>
0

> <PUBCHEM_ISOTOPIC_ATOM_COUNT>
0

> <PUBCHEM_COMPONENT_COUNT>
1

> <PUBCHEM_CACTVS_TAUTO_COUNT>
1

> <PUBCHEM_CONFORMER_ID>
030C4ADE00000001

> <PUBCHEM_MMFF94_ENERGY>
49.4455

> <PUBCHEM_FEATURE_SELFOVERLAP>
30.448

> <PUBCHEM_SHAPE_FINGERPRINT>
10 15 17530684329056735172
10074138 170 16443637912255700459
10411042 1 17834113044920422022
10595046 47 18342735192298447991
10673678 19 18272654536624437527
11273773 38 18189903187623163132
11273773 42 18342735264748611029
12236239 1 17988359282835059847
12633257 1 16153708773342991302
12730499 353 18334862683947251555
12788726 201 17059779910372169905
12821665 9 18340764949092349439
12895836 83 17704065226914056271
12895837 130 18198623426768364420
13402501 40 18260263057865143212
13533116 47 17241320262080708346
13540713 4 18264510493122594826
13685833 64 10087921882519016767
13690498 29 17344896637467588135
13885169 86 18335143145512153548
13955234 65 17970061145511479243
14251764 75 18262802985865835476
14257110 125 18410572907341584780
14394314 77 18341901753895763865
14528608 73 18343018878724360719
14681490 219 18343019956619396441
14931854 50 17845948415477101984
15183329 4 16988566801193728457
15419008 145 18117265974926606288
15475509 35 15937243379745541354
15475509 8 13901913297975860099
15519825 34 15575566906399820881
15685185 35 18267306619568432400
15840311 113 18267030449667285597
16126227 98 18339643455093887029
16760501 71 18334580148350625245
17980427 23 17459193039268204782
18335252 114 18341607084271870388
18608769 82 18338237188923923579
19438510 23 18188204411892251784
20157964 124 18411419479576328338
20567600 254 17676199165660025191
20691028 202 18193275424203253924
20715895 44 18411419549150308648
21033648 144 18261104163270612007
21033648 29 18265326391132368504
21298829 104 18412546535098801688
21304303 64 18408605868524434729
21401589 2 17968089858574501131
21521721 280 18410017603189865843
21585482 111 18263645069802025349
21641784 216 16271649979951017345
23522609 53 17631745863879356569
270888 7 18410292553710216224
2748736 6 18410851096958938600
2838139 119 18335975394124962196
2916195 48 18040996211755367245
3014063 24 8214140742174502657
3246875 12 18335140942478494475
335352 9 18410859846482268134
3472631 163 18272091616930823590
34797466 226 18131074788656635807
4073 2 18260833730090751891
4325135 7 18341891884133594759
445580 126 18412252935671390904
46194498 28 17987241027880412046
465052 167 8358252661611038640
5104073 3 18040151825032100978
513532 50 18271538511279932494
53794403 172 18262523731113261428
5385378 56 18333726893490069770
543368 44 18412543207136807757
56633871 153 11314302871369405504
5911458 16 17774454780746970217
59682541 35 17894920642140304753
59682541 52 17274556351763631252
5969126 39 18120654901660497307
6327066 14 18338797939827553028
6608658 132 16772969008037590305

> <PUBCHEM_SHAPE_MULTIPOLES>
469.99
19.85
2.93
0.93
7.56
0.01
-0.14
17.76
1.54
-3.66
-0.22
0.85
-0.1
-0.39

> <PUBCHEM_SHAPE_SELFOVERLAP>
1015.413

> <PUBCHEM_SHAPE_VOLUME>
260.9

> <PUBCHEM_COORDINATE_TYPE>
2
5
10

$$$$
