26744682
  -OEChem-12032416183D

 61 64  0     1  0  0  0  0  0999 V2000
    3.1085    1.9026    1.8515 Cl  0  0  0  0  0  0  0  0  0  0  0  0
   -2.4183    3.3757   -0.7374 S   0  0  0  0  0  0  0  0  0  0  0  0
   -3.2222   -0.9937   -0.7749 O   0  0  0  0  0  0  0  0  0  0  0  0
   -4.7633   -2.8556    1.8818 O   0  0  0  0  0  0  0  0  0  0  0  0
   -6.1117   -1.8048   -0.2737 O   0  0  0  0  0  0  0  0  0  0  0  0
   -1.3738   -3.2126   -1.5430 O   0  0  0  0  0  0  0  0  0  0  0  0
   -3.2157    4.0537    0.2667 O   0  0  0  0  0  0  0  0  0  0  0  0
   -2.1335    4.0245   -2.0030 O   0  0  0  0  0  0  0  0  0  0  0  0
    0.4040   -2.2927   -0.3626 N   0  0  0  0  0  0  0  0  0  0  0  0
   -3.0818    1.8377   -1.0393 N   0  0  0  0  0  0  0  0  0  0  0  0
    3.1366   -1.3488   -0.2146 N   0  0  0  0  0  0  0  0  0  0  0  0
    5.2559   -1.3125    0.8266 N   0  0  0  0  0  0  0  0  0  0  0  0
   -3.2516   -2.1127    0.1287 C   0  0  2  0  0  0  0  0  0  0  0  0
   -4.2239   -1.7256    1.2300 C   0  0  1  0  0  0  0  0  0  0  0  0
   -5.2552   -0.9288    0.4582 C   0  0  1  0  0  0  0  0  0  0  0  0
   -4.3881   -0.1709   -0.5410 C   0  0  1  0  0  0  0  0  0  0  0  0
   -1.8492   -2.3974    0.6359 C   0  0  0  0  0  0  0  0  0  0  0  0
   -3.9100    1.1754   -0.0146 C   0  0  0  0  0  0  0  0  0  0  0  0
   -0.9282   -2.6740   -0.5270 C   0  0  0  0  0  0  0  0  0  0  0  0
    1.3595   -2.5313   -1.4414 C   0  0  0  0  0  0  0  0  0  0  0  0
    0.9291   -1.6434    0.8407 C   0  0  0  0  0  0  0  0  0  0  0  0
    2.4375   -1.4512   -1.4987 C   0  0  0  0  0  0  0  0  0  0  0  0
    2.4416   -1.8087    0.9902 C   0  0  0  0  0  0  0  0  0  0  0  0
    4.4394   -0.8604   -0.1513 C   0  0  0  0  0  0  0  0  0  0  0  0
   -0.8622    2.9609   -0.0085 C   0  0  0  0  0  0  0  0  0  0  0  0
    4.8152    0.0690   -1.1078 C   0  0  0  0  0  0  0  0  0  0  0  0
    0.2630    2.7915   -0.8154 C   0  0  0  0  0  0  0  0  0  0  0  0
   -0.7593    2.8033    1.3737 C   0  0  0  0  0  0  0  0  0  0  0  0
    6.1129    0.5660   -1.0575 C   0  0  0  0  0  0  0  0  0  0  0  0
    6.5096   -0.8068    0.8437 C   0  0  0  0  0  0  0  0  0  0  0  0
    6.9824    0.1248   -0.0662 C   0  0  0  0  0  0  0  0  0  0  0  0
    1.4908    2.4643   -0.2403 C   0  0  0  0  0  0  0  0  0  0  0  0
    0.4685    2.4759    1.9488 C   0  0  0  0  0  0  0  0  0  0  0  0
    1.5935    2.3064    1.1419 C   0  0  0  0  0  0  0  0  0  0  0  0
   -3.6309   -2.9810   -0.4262 H   0  0  0  0  0  0  0  0  0  0  0  0
   -3.7357   -1.0868    1.9758 H   0  0  0  0  0  0  0  0  0  0  0  0
   -5.8832   -0.2979    1.0936 H   0  0  0  0  0  0  0  0  0  0  0  0
   -4.8922   -0.0417   -1.5060 H   0  0  0  0  0  0  0  0  0  0  0  0
   -1.8347   -3.2575    1.3128 H   0  0  0  0  0  0  0  0  0  0  0  0
   -1.5169   -1.5098    1.1812 H   0  0  0  0  0  0  0  0  0  0  0  0
   -3.2952    1.0365    0.8810 H   0  0  0  0  0  0  0  0  0  0  0  0
   -4.7664    1.8116    0.2296 H   0  0  0  0  0  0  0  0  0  0  0  0
    0.8359   -2.5906   -2.4016 H   0  0  0  0  0  0  0  0  0  0  0  0
    1.8105   -3.5135   -1.2540 H   0  0  0  0  0  0  0  0  0  0  0  0
    0.4455   -2.0581    1.7304 H   0  0  0  0  0  0  0  0  0  0  0  0
    0.6631   -0.5835    0.7698 H   0  0  0  0  0  0  0  0  0  0  0  0
   -5.4575   -2.5401    2.4851 H   0  0  0  0  0  0  0  0  0  0  0  0
    3.1321   -1.7161   -2.3054 H   0  0  0  0  0  0  0  0  0  0  0  0
    1.9769   -0.4858   -1.7416 H   0  0  0  0  0  0  0  0  0  0  0  0
    2.7676   -1.2442    1.8715 H   0  0  0  0  0  0  0  0  0  0  0  0
    2.6900   -2.8631    1.1625 H   0  0  0  0  0  0  0  0  0  0  0  0
   -6.7300   -1.2506   -0.7800 H   0  0  0  0  0  0  0  0  0  0  0  0
   -2.4559    1.1819   -1.5271 H   0  0  0  0  0  0  0  0  0  0  0  0
    4.1477    0.4414   -1.8769 H   0  0  0  0  0  0  0  0  0  0  0  0
    0.2043    2.9016   -1.8945 H   0  0  0  0  0  0  0  0  0  0  0  0
   -1.6243    2.9247    2.0194 H   0  0  0  0  0  0  0  0  0  0  0  0
    6.4447    1.2996   -1.7861 H   0  0  0  0  0  0  0  0  0  0  0  0
    7.1479   -1.1824    1.6366 H   0  0  0  0  0  0  0  0  0  0  0  0
    7.9978    0.4996   -0.0069 H   0  0  0  0  0  0  0  0  0  0  0  0
    2.3585    2.3337   -0.8815 H   0  0  0  0  0  0  0  0  0  0  0  0
    0.5335    2.3538    3.0269 H   0  0  0  0  0  0  0  0  0  0  0  0
  1 34  1  0  0  0  0
  2  7  2  0  0  0  0
  2  8  2  0  0  0  0
  2 10  1  0  0  0  0
  2 25  1  0  0  0  0
  3 13  1  0  0  0  0
  3 16  1  0  0  0  0
  4 14  1  0  0  0  0
  4 47  1  0  0  0  0
  5 15  1  0  0  0  0
  5 52  1  0  0  0  0
  6 19  2  0  0  0  0
  9 19  1  0  0  0  0
  9 20  1  0  0  0  0
  9 21  1  0  0  0  0
 10 18  1  0  0  0  0
 10 53  1  0  0  0  0
 11 22  1  0  0  0  0
 11 23  1  0  0  0  0
 11 24  1  0  0  0  0
 12 24  1  0  0  0  0
 12 30  2  0  0  0  0
 13 14  1  0  0  0  0
 13 17  1  0  0  0  0
 13 35  1  0  0  0  0
 14 15  1  0  0  0  0
 14 36  1  0  0  0  0
 15 16  1  0  0  0  0
 15 37  1  0  0  0  0
 16 18  1  0  0  0  0
 16 38  1  0  0  0  0
 17 19  1  0  0  0  0
 17 39  1  0  0  0  0
 17 40  1  0  0  0  0
 18 41  1  0  0  0  0
 18 42  1  0  0  0  0
 20 22  1  0  0  0  0
 20 43  1  0  0  0  0
 20 44  1  0  0  0  0
 21 23  1  0  0  0  0
 21 45  1  0  0  0  0
 21 46  1  0  0  0  0
 22 48  1  0  0  0  0
 22 49  1  0  0  0  0
 23 50  1  0  0  0  0
 23 51  1  0  0  0  0
 24 26  2  0  0  0  0
 25 27  2  0  0  0  0
 25 28  1  0  0  0  0
 26 29  1  0  0  0  0
 26 54  1  0  0  0  0
 27 32  1  0  0  0  0
 27 55  1  0  0  0  0
 28 33  2  0  0  0  0
 28 56  1  0  0  0  0
 29 31  2  0  0  0  0
 29 57  1  0  0  0  0
 30 31  1  0  0  0  0
 30 58  1  0  0  0  0
 31 59  1  0  0  0  0
 32 34  2  0  0  0  0
 32 60  1  0  0  0  0
 33 34  1  0  0  0  0
 33 61  1  0  0  0  0
M  END
> <PUBCHEM_COMPOUND_CID>
26744682

> <PUBCHEM_CONFORMER_RMSD>
1.2

> <PUBCHEM_CONFORMER_DIVERSEORDER>
2
27
215
88
191
62
82
139
76
219
116
160
233
49
103
23
167
89
166
128
203
72
48
231
44
121
186
39
143
187
90
214
213
69
4
42
20
109
207
129
19
94
135
67
149
84
105
142
225
85
150
134
130
144
75
112
77
221
83
158
102
7
11
53
70
232
234
41
111
31
45
170
194
146
227
162
228
202
81
178
22
190
117
222
118
193
14
183
177
98
172
132
196
205
74
87
36
192
66
198
153
173
9
123
185
113
8
174
220
210
145
73
60
175
120
180
115
30
209
29
188
224
208
133
56
200
65
51
212
101
211
93
218
168
33
58
99
152
199
15
97
229
57
17
63
159
64
122
223
80
92
148
137
157
28
108
106
226
154
43
18
26
156
55
125
114
100
96
216
182
201
71
235
184
61
161
131
136
163
204
25
86
176
107
140
5
95
32
179
21
147
164
34
3
91
50
195
127
141
40
52
79
13
124
189
138
37
47
230
206
181
59
119
126
217
110
169
6
104
155
54
38
10
165
171
24
151
35
68
78
46
12
16
1
197

> <PUBCHEM_MMFF94_PARTIAL_CHARGES>
45
1 -0.18
10 -0.91
11 -0.84
12 -0.62
13 0.28
14 0.28
15 0.28
16 0.28
17 0.06
18 0.36
19 0.57
2 1.45
20 0.3
21 0.3
22 0.37
23 0.37
24 0.41
25 -0.01
26 -0.15
27 -0.15
28 -0.15
29 -0.15
3 -0.56
30 0.16
31 -0.15
32 -0.15
33 -0.15
34 0.18
4 -0.68
47 0.4
5 -0.68
52 0.4
53 0.42
54 0.15
55 0.15
56 0.15
57 0.15
58 0.15
59 0.15
6 -0.57
60 0.15
61 0.15
7 -0.65
8 -0.65
9 -0.66

> <PUBCHEM_EFFECTIVE_ROTOR_COUNT>
10.2

> <PUBCHEM_PHARMACOPHORE_FEATURES>
15
1 10 donor
1 11 cation
1 12 acceptor
1 3 acceptor
1 4 acceptor
1 4 donor
1 5 acceptor
1 5 donor
1 6 acceptor
1 7 acceptor
1 8 acceptor
5 3 13 14 15 16 rings
6 12 24 26 29 30 31 rings
6 25 27 28 32 33 34 rings
6 9 11 20 21 22 23 rings

> <PUBCHEM_HEAVY_ATOM_COUNT>
34

> <PUBCHEM_ATOM_DEF_STEREO_COUNT>
4

> <PUBCHEM_ATOM_UDEF_STEREO_COUNT>
0

> <PUBCHEM_BOND_DEF_STEREO_COUNT>
0

> <PUBCHEM_BOND_UDEF_STEREO_COUNT>
0

> <PUBCHEM_ISOTOPIC_ATOM_COUNT>
0

> <PUBCHEM_COMPONENT_COUNT>
1

> <PUBCHEM_CACTVS_TAUTO_COUNT>
1

> <PUBCHEM_CONFORMER_ID>
0198176A00000002

> <PUBCHEM_MMFF94_ENERGY>
87.1545

> <PUBCHEM_FEATURE_SELFOVERLAP>
76.156

> <PUBCHEM_SHAPE_FINGERPRINT>
10290309 65 18268150859688351135
10670039 82 18266762232974790078
10939801 23 18337674252150907124
11135609 187 17906159669332275645
11421498 54 18186236234518306874
12107698 1 18336547226308667603
12293681 4 18188219796185959690
12422481 6 17983545732929915232
12596602 18 16877944987810109698
12788726 201 18409165498452046314
13122387 1 18052253995232075589
13402501 40 18342173375409128257
13726171 33 18267589018057876088
13947920 24 18271525299686112386
14028597 1 17604131693766951658
14363568 33 18122353637965050033
14725015 67 18409441488723643715
150020 26 17908716372661953339
15274700 232 16902438469573696382
15276724 80 18340768239137388412
15297060 5 17986955133413664160
15968369 153 18272083967863548956
16067689 391 16912578264493128110
161222 619 17128414827987537312
18336668 15 18261395571878833172
20721686 56 18265610060241190387
20764821 26 18196082459401053413
21344244 246 17910096239140215071
25223398 141 18335977598008219948
3052486 1 18262504928252036256
329604 57 18335423473974701812
3493558 16 17098076093625318366
354706 132 18117570539436315732
469060 322 18189072944020070008
484989 97 18343304726742481322
50150288 127 15910807747957226921
508706 21 18336251397651090453
77296 10 18116992183683207522

> <PUBCHEM_SHAPE_MULTIPOLES>
650.28
13.32
5.24
1.64
10.86
3.34
0.18
-5.47
0.52
-5.1
-0.48
0.15
0.37
1.7

> <PUBCHEM_SHAPE_SELFOVERLAP>
1358.531

> <PUBCHEM_SHAPE_VOLUME>
370

> <PUBCHEM_COORDINATE_TYPE>
2
5
10

$$$$
