40777837
  -OEChem-12032416193D

 49 50  0     1  0  0  0  0  0999 V2000
    8.2479   -0.0377    0.3382 F   0  0  0  0  0  0  0  0  0  0  0  0
   -1.6504    0.1931   -1.0385 O   0  0  0  0  0  0  0  0  0  0  0  0
   -0.3919    2.9596   -1.1828 O   0  0  0  0  0  0  0  0  0  0  0  0
   -1.6607    2.9543    1.2582 O   0  0  0  0  0  0  0  0  0  0  0  0
   -4.8001    0.3436   -1.2263 O   0  0  0  0  0  0  0  0  0  0  0  0
    1.9807   -0.2227   -0.4817 N   0  0  0  0  0  0  0  0  0  0  0  0
   -5.4868   -0.7818    0.6876 N   0  0  0  0  0  0  0  0  0  0  0  0
   -0.1268    1.8660   -0.3051 C   0  0  1  0  0  0  0  0  0  0  0  0
   -1.2432    1.7230    0.7085 C   0  0  2  0  0  0  0  0  0  0  0  0
   -0.2573    0.5747   -1.1052 C   0  0  1  0  0  0  0  0  0  0  0  0
   -2.3325    1.0733   -0.1278 C   0  0  2  0  0  0  0  0  0  0  0  0
    0.5669   -0.5689   -0.5299 C   0  0  0  0  0  0  0  0  0  0  0  0
   -3.3329    0.2820    0.6956 C   0  0  0  0  0  0  0  0  0  0  0  0
   -4.6025   -0.0320   -0.0739 C   0  0  0  0  0  0  0  0  0  0  0  0
    2.7659   -1.3142    0.0786 C   0  0  0  0  0  0  0  0  0  0  0  0
   -6.7750   -1.2180    0.1995 C   0  0  0  0  0  0  0  0  0  0  0  0
    4.2307   -0.9731    0.1482 C   0  0  0  0  0  0  0  0  0  0  0  0
   -7.7776   -1.2914    1.3438 C   0  0  0  0  0  0  0  0  0  0  0  0
   -6.6508   -2.5592   -0.5125 C   0  0  0  0  0  0  0  0  0  0  0  0
    5.0675   -1.2699   -0.9277 C   0  0  0  0  0  0  0  0  0  0  0  0
    4.7511   -0.3603    1.2881 C   0  0  0  0  0  0  0  0  0  0  0  0
    6.4246   -0.9543   -0.8636 C   0  0  0  0  0  0  0  0  0  0  0  0
    6.1083   -0.0446    1.3523 C   0  0  0  0  0  0  0  0  0  0  0  0
    6.9449   -0.3416    0.2765 C   0  0  0  0  0  0  0  0  0  0  0  0
    0.8460    2.0500    0.1577 H   0  0  0  0  0  0  0  0  0  0  0  0
   -0.9320    1.0581    1.5234 H   0  0  0  0  0  0  0  0  0  0  0  0
   -0.0090    0.7220   -2.1630 H   0  0  0  0  0  0  0  0  0  0  0  0
   -2.8502    1.8367   -0.7230 H   0  0  0  0  0  0  0  0  0  0  0  0
    0.4071   -1.4632   -1.1462 H   0  0  0  0  0  0  0  0  0  0  0  0
    0.2001   -0.8239    0.4725 H   0  0  0  0  0  0  0  0  0  0  0  0
   -3.6289    0.8556    1.5824 H   0  0  0  0  0  0  0  0  0  0  0  0
   -2.8929   -0.6669    1.0256 H   0  0  0  0  0  0  0  0  0  0  0  0
    0.3304    2.9916   -1.8333 H   0  0  0  0  0  0  0  0  0  0  0  0
   -0.8852    3.3638    1.6780 H   0  0  0  0  0  0  0  0  0  0  0  0
    2.3082   -0.0105   -1.4241 H   0  0  0  0  0  0  0  0  0  0  0  0
    2.6394   -2.2268   -0.5186 H   0  0  0  0  0  0  0  0  0  0  0  0
    2.4127   -1.5584    1.0890 H   0  0  0  0  0  0  0  0  0  0  0  0
   -5.1988   -1.0898    1.6122 H   0  0  0  0  0  0  0  0  0  0  0  0
   -7.1318   -0.4767   -0.5258 H   0  0  0  0  0  0  0  0  0  0  0  0
   -8.7672   -1.5860    0.9793 H   0  0  0  0  0  0  0  0  0  0  0  0
   -7.4638   -2.0166    2.1029 H   0  0  0  0  0  0  0  0  0  0  0  0
   -7.8743   -0.3184    1.8380 H   0  0  0  0  0  0  0  0  0  0  0  0
   -5.9529   -2.4928   -1.3544 H   0  0  0  0  0  0  0  0  0  0  0  0
   -7.6199   -2.8867   -0.9029 H   0  0  0  0  0  0  0  0  0  0  0  0
   -6.2754   -3.3345    0.1648 H   0  0  0  0  0  0  0  0  0  0  0  0
    4.6738   -1.7456   -1.8220 H   0  0  0  0  0  0  0  0  0  0  0  0
    4.1094   -0.1221    2.1322 H   0  0  0  0  0  0  0  0  0  0  0  0
    7.0763   -1.1848   -1.7011 H   0  0  0  0  0  0  0  0  0  0  0  0
    6.5138    0.4329    2.2394 H   0  0  0  0  0  0  0  0  0  0  0  0
  1 24  1  0  0  0  0
  2 10  1  0  0  0  0
  2 11  1  0  0  0  0
  3  8  1  0  0  0  0
  3 33  1  0  0  0  0
  4  9  1  0  0  0  0
  4 34  1  0  0  0  0
  5 14  2  0  0  0  0
  6 12  1  0  0  0  0
  6 15  1  0  0  0  0
  6 35  1  0  0  0  0
  7 14  1  0  0  0  0
  7 16  1  0  0  0  0
  7 38  1  0  0  0  0
  8  9  1  0  0  0  0
  8 10  1  0  0  0  0
  8 25  1  0  0  0  0
  9 11  1  0  0  0  0
  9 26  1  0  0  0  0
 10 12  1  0  0  0  0
 10 27  1  0  0  0  0
 11 13  1  0  0  0  0
 11 28  1  0  0  0  0
 12 29  1  0  0  0  0
 12 30  1  0  0  0  0
 13 14  1  0  0  0  0
 13 31  1  0  0  0  0
 13 32  1  0  0  0  0
 15 17  1  0  0  0  0
 15 36  1  0  0  0  0
 15 37  1  0  0  0  0
 16 18  1  0  0  0  0
 16 19  1  0  0  0  0
 16 39  1  0  0  0  0
 17 20  2  0  0  0  0
 17 21  1  0  0  0  0
 18 40  1  0  0  0  0
 18 41  1  0  0  0  0
 18 42  1  0  0  0  0
 19 43  1  0  0  0  0
 19 44  1  0  0  0  0
 19 45  1  0  0  0  0
 20 22  1  0  0  0  0
 20 46  1  0  0  0  0
 21 23  2  0  0  0  0
 21 47  1  0  0  0  0
 22 24  2  0  0  0  0
 22 48  1  0  0  0  0
 23 24  1  0  0  0  0
 23 49  1  0  0  0  0
M  END
> <PUBCHEM_COMPOUND_CID>
40777837

> <PUBCHEM_CONFORMER_RMSD>
1

> <PUBCHEM_CONFORMER_DIVERSEORDER>
1
75
115
120
22
33
112
6
85
60
109
94
28
122
121
80
73
118
39
4
79
58
64
24
88
107
74
10
87
90
15
63
29
103
27
81
78
89
98
43
32
106
19
56
125
124
7
59
102
51
47
110
77
123
17
108
48
65
54
26
104
86
11
50
117
14
99
30
31
35
37
8
38
69
84
113
66
72
92
55
13
3
101
18
71
20
95
52
9
96
45
100
119
105
97
25
83
5
61
67
70
49
57
44
21
12
46
68
111
114
23
36
116
40
53
91
41
42
16
62
93
76
82
2
34

> <PUBCHEM_MMFF94_PARTIAL_CHARGES>
30
1 -0.19
10 0.28
11 0.28
12 0.27
13 0.06
14 0.57
15 0.41
16 0.3
17 -0.14
2 -0.56
20 -0.15
21 -0.15
22 -0.15
23 -0.15
24 0.19
3 -0.68
33 0.4
34 0.4
35 0.36
38 0.37
4 -0.68
46 0.15
47 0.15
48 0.15
49 0.15
5 -0.57
6 -0.9
7 -0.73
8 0.28
9 0.28

> <PUBCHEM_EFFECTIVE_ROTOR_COUNT>
9

> <PUBCHEM_PHARMACOPHORE_FEATURES>
12
1 2 acceptor
1 3 acceptor
1 3 donor
1 4 acceptor
1 4 donor
1 5 acceptor
1 6 cation
1 6 donor
1 7 donor
3 16 18 19 hydrophobe
5 2 8 9 10 11 rings
6 17 20 21 22 23 24 rings

> <PUBCHEM_HEAVY_ATOM_COUNT>
24

> <PUBCHEM_ATOM_DEF_STEREO_COUNT>
4

> <PUBCHEM_ATOM_UDEF_STEREO_COUNT>
0

> <PUBCHEM_BOND_DEF_STEREO_COUNT>
0

> <PUBCHEM_BOND_UDEF_STEREO_COUNT>
0

> <PUBCHEM_ISOTOPIC_ATOM_COUNT>
0

> <PUBCHEM_COMPONENT_COUNT>
1

> <PUBCHEM_CACTVS_TAUTO_COUNT>
2

> <PUBCHEM_CONFORMER_ID>
026E386D00000001

> <PUBCHEM_MMFF94_ENERGY>
48.1495

> <PUBCHEM_FEATURE_SELFOVERLAP>
60.907

> <PUBCHEM_SHAPE_FINGERPRINT>
10 15 15482676780036111555
106641 1 18060137669275038506
11724838 91 18260266370123055206
11823591 26 10087643659265260721
12293681 160 12685085991223605213
12516196 113 18409167710022229207
12596602 18 18261387794389171568
12730499 353 17846779577801399054
12916748 109 18202281369479622102
12977781 61 16445901879284915241
13073987 5 18059290934628297914
13177829 20 17561364015065622283
13914758 101 12973595621685168646
15183329 4 12035442835438057150
15301273 46 17561089072944853431
15350500 55 12103301361170470899
15728490 51 18342455980353102398
18006028 8 18260548935246128783
18335252 114 9655301397630349091
18335252 98 18343304756517569710
18608769 82 18130783486784474750
20028762 73 18341615935984060055
20511986 3 14129066954260852072
20567600 70 18336266833874653587
20621476 66 10447919577702964274
20771845 171 17606687078147790597
21150785 3 15140679198342767083
21267235 1 18411425007209456686
21585482 111 10230940841299284987
22224240 67 17132113546237659799
2747138 104 18272091608214301266
2838139 119 10591759857933861827
3009799 131 13623531264189588158
3383291 50 18334582382256632379
3633792 109 12468624011417901704
4015057 19 14274036432199960460
5104073 3 18057321674505512674
5219985 9 18259985985567241589
559249 180 8430304745665420056
59682541 35 18411416250404091242
59682541 52 14418126322976470960
5969126 39 17168136832697188183
59755656 520 13542457653128789285
9689198 14 15052016779422747234
9953998 17 17418376909294032571

> <PUBCHEM_SHAPE_MULTIPOLES>
453.2
22.44
2.25
1.25
3.1
1.34
0.11
-15.23
5.2
-2.84
-0.12
0.05
0.15
0.54

> <PUBCHEM_SHAPE_SELFOVERLAP>
929.41

> <PUBCHEM_SHAPE_VOLUME>
263.6

> <PUBCHEM_COORDINATE_TYPE>
2
5
10

$$$$
