45360554
  -OEChem-12032416393D

 66 70  0     1  0  0  0  0  0999 V2000
    6.0022    2.8277   -2.2010 F   0  0  0  0  0  0  0  0  0  0  0  0
    6.6372    3.8801   -0.4075 F   0  0  0  0  0  0  0  0  0  0  0  0
    4.5958    4.0828   -1.1282 F   0  0  0  0  0  0  0  0  0  0  0  0
   -1.0271   -3.7041   -1.6805 O   0  0  0  0  0  0  0  0  0  0  0  0
   -2.0724   -5.2872   -0.3455 O   0  0  0  0  0  0  0  0  0  0  0  0
   -0.9611   -4.2436    2.0993 O   0  0  0  0  0  0  0  0  0  0  0  0
    2.6138   -2.3387    1.5997 O   0  0  0  0  0  0  0  0  0  0  0  0
   -2.1486   -1.5917   -0.0911 N   0  0  0  0  0  0  0  0  0  0  0  0
    1.1648   -2.4281   -0.1989 N   0  0  0  0  0  0  0  0  0  0  0  0
    2.7225   -0.7486   -0.1238 N   0  0  0  0  0  0  0  0  0  0  0  0
   -2.0621   -2.9778    0.3730 C   0  0  2  0  0  0  0  0  0  0  0  0
   -0.7397   -3.2001    1.1413 C   0  0  2  0  0  0  0  0  0  0  0  0
    0.4401   -3.6048    0.2304 C   0  0  1  0  0  0  0  0  0  0  0  0
   -2.1570   -3.9362   -0.8283 C   0  0  1  0  0  0  0  0  0  0  0  0
    0.0034   -4.4269   -0.9997 C   0  0  1  0  0  0  0  0  0  0  0  0
   -2.5617   -0.7070    1.0064 C   0  0  0  0  0  0  0  0  0  0  0  0
   -3.0692   -1.4878   -1.2312 C   0  0  0  0  0  0  0  0  0  0  0  0
   -3.5265    0.9327   -0.6598 C   0  0  0  0  0  0  0  0  0  0  0  0
   -0.7358   -5.7074   -0.6597 C   0  0  0  0  0  0  0  0  0  0  0  0
   -2.6053    0.7534    0.5517 C   0  0  0  0  0  0  0  0  0  0  0  0
   -3.1294   -0.0543   -1.7628 C   0  0  0  0  0  0  0  0  0  0  0  0
   -3.4880    2.3705   -1.1700 C   0  0  0  0  0  0  0  0  0  0  0  0
   -4.3330    3.2830   -0.3236 C   0  0  0  0  0  0  0  0  0  0  0  0
    2.2174   -1.8739    0.5335 C   0  0  0  0  0  0  0  0  0  0  0  0
   -5.6773    3.4801   -0.6391 C   0  0  0  0  0  0  0  0  0  0  0  0
   -3.7723    3.9317    0.7764 C   0  0  0  0  0  0  0  0  0  0  0  0
   -6.4611    4.3261    0.1456 C   0  0  0  0  0  0  0  0  0  0  0  0
   -4.5560    4.7777    1.5611 C   0  0  0  0  0  0  0  0  0  0  0  0
    3.7843    0.0917    0.2849 C   0  0  0  0  0  0  0  0  0  0  0  0
   -5.9004    4.9749    1.2457 C   0  0  0  0  0  0  0  0  0  0  0  0
    4.1549    1.1810   -0.5035 C   0  0  0  0  0  0  0  0  0  0  0  0
    4.4606   -0.1688    1.4767 C   0  0  0  0  0  0  0  0  0  0  0  0
    5.2019    2.0098   -0.1003 C   0  0  0  0  0  0  0  0  0  0  0  0
    5.5077    0.6601    1.8800 C   0  0  0  0  0  0  0  0  0  0  0  0
    5.8783    1.7493    1.0915 C   0  0  0  0  0  0  0  0  0  0  0  0
    5.5989    3.1745   -0.9429 C   0  0  0  0  0  0  0  0  0  0  0  0
   -2.9063   -3.2178    1.0358 H   0  0  0  0  0  0  0  0  0  0  0  0
   -0.4674   -2.3282    1.7442 H   0  0  0  0  0  0  0  0  0  0  0  0
    1.1419   -4.2226    0.8056 H   0  0  0  0  0  0  0  0  0  0  0  0
   -3.0931   -3.8910   -1.3906 H   0  0  0  0  0  0  0  0  0  0  0  0
    0.8472   -4.6059   -1.6741 H   0  0  0  0  0  0  0  0  0  0  0  0
   -1.8664   -0.7639    1.8499 H   0  0  0  0  0  0  0  0  0  0  0  0
   -3.5506   -0.9953    1.3878 H   0  0  0  0  0  0  0  0  0  0  0  0
   -4.0807   -1.8205   -0.9629 H   0  0  0  0  0  0  0  0  0  0  0  0
   -2.7346   -2.0474   -2.1089 H   0  0  0  0  0  0  0  0  0  0  0  0
   -4.5513    0.6805   -0.3515 H   0  0  0  0  0  0  0  0  0  0  0  0
   -0.8037   -6.3640   -1.5337 H   0  0  0  0  0  0  0  0  0  0  0  0
   -0.3013   -6.2673    0.1727 H   0  0  0  0  0  0  0  0  0  0  0  0
   -1.5881    1.0876    0.3086 H   0  0  0  0  0  0  0  0  0  0  0  0
   -2.9502    1.3594    1.3955 H   0  0  0  0  0  0  0  0  0  0  0  0
   -3.8512   -0.0032   -2.5872 H   0  0  0  0  0  0  0  0  0  0  0  0
   -2.1514    0.2242   -2.1778 H   0  0  0  0  0  0  0  0  0  0  0  0
    0.8423   -1.9408   -1.0294 H   0  0  0  0  0  0  0  0  0  0  0  0
   -2.4584    2.7476   -1.2218 H   0  0  0  0  0  0  0  0  0  0  0  0
   -3.8637    2.4155   -2.2012 H   0  0  0  0  0  0  0  0  0  0  0  0
   -0.1472   -4.3394    2.6228 H   0  0  0  0  0  0  0  0  0  0  0  0
   -6.1266    2.9786   -1.4921 H   0  0  0  0  0  0  0  0  0  0  0  0
   -2.7243    3.7952    1.0292 H   0  0  0  0  0  0  0  0  0  0  0  0
    2.2788   -0.4963   -1.0033 H   0  0  0  0  0  0  0  0  0  0  0  0
   -7.5079    4.4792   -0.0997 H   0  0  0  0  0  0  0  0  0  0  0  0
   -4.1190    5.2845    2.4165 H   0  0  0  0  0  0  0  0  0  0  0  0
   -6.5105    5.6339    1.8565 H   0  0  0  0  0  0  0  0  0  0  0  0
    3.6298    1.3873   -1.4335 H   0  0  0  0  0  0  0  0  0  0  0  0
    4.2327   -0.9911    2.1398 H   0  0  0  0  0  0  0  0  0  0  0  0
    6.0351    0.4581    2.8079 H   0  0  0  0  0  0  0  0  0  0  0  0
    6.6964    2.3824    1.4236 H   0  0  0  0  0  0  0  0  0  0  0  0
  1 36  1  0  0  0  0
  2 36  1  0  0  0  0
  3 36  1  0  0  0  0
  4 14  1  0  0  0  0
  4 15  1  0  0  0  0
  5 14  1  0  0  0  0
  5 19  1  0  0  0  0
  6 12  1  0  0  0  0
  6 56  1  0  0  0  0
  7 24  2  0  0  0  0
  8 11  1  0  0  0  0
  8 16  1  0  0  0  0
  8 17  1  0  0  0  0
  9 13  1  0  0  0  0
  9 24  1  0  0  0  0
  9 53  1  0  0  0  0
 10 24  1  0  0  0  0
 10 29  1  0  0  0  0
 10 59  1  0  0  0  0
 11 12  1  0  0  0  0
 11 14  1  0  0  0  0
 11 37  1  0  0  0  0
 12 13  1  0  0  0  0
 12 38  1  0  0  0  0
 13 15  1  0  0  0  0
 13 39  1  0  0  0  0
 14 40  1  0  0  0  0
 15 19  1  0  0  0  0
 15 41  1  0  0  0  0
 16 20  1  0  0  0  0
 16 42  1  0  0  0  0
 16 43  1  0  0  0  0
 17 21  1  0  0  0  0
 17 44  1  0  0  0  0
 17 45  1  0  0  0  0
 18 20  1  0  0  0  0
 18 21  1  0  0  0  0
 18 22  1  0  0  0  0
 18 46  1  0  0  0  0
 19 47  1  0  0  0  0
 19 48  1  0  0  0  0
 20 49  1  0  0  0  0
 20 50  1  0  0  0  0
 21 51  1  0  0  0  0
 21 52  1  0  0  0  0
 22 23  1  0  0  0  0
 22 54  1  0  0  0  0
 22 55  1  0  0  0  0
 23 25  2  0  0  0  0
 23 26  1  0  0  0  0
 25 27  1  0  0  0  0
 25 57  1  0  0  0  0
 26 28  2  0  0  0  0
 26 58  1  0  0  0  0
 27 30  2  0  0  0  0
 27 60  1  0  0  0  0
 28 30  1  0  0  0  0
 28 61  1  0  0  0  0
 29 31  1  0  0  0  0
 29 32  2  0  0  0  0
 30 62  1  0  0  0  0
 31 33  2  0  0  0  0
 31 63  1  0  0  0  0
 32 34  1  0  0  0  0
 32 64  1  0  0  0  0
 33 35  1  0  0  0  0
 33 36  1  0  0  0  0
 34 35  2  0  0  0  0
 34 65  1  0  0  0  0
 35 66  1  0  0  0  0
M  END
> <PUBCHEM_COMPOUND_CID>
45360554

> <PUBCHEM_CONFORMER_RMSD>
1

> <PUBCHEM_CONFORMER_DIVERSEORDER>
1
232
210
245
147
106
138
175
220
198
72
143
199
108
211
15
24
96
205
246
11
239
77
124
207
226
181
249
206
237
91
92
212
166
197
63
209
201
222
156
183
100
254
87
81
229
158
83
123
208
18
93
142
119
115
16
74
251
130
62
42
242
27
191
109
22
20
90
243
125
113
140
101
193
44
13
250
218
35
151
202
256
247
126
95
121
238
184
221
145
230
217
43
241
88
155
71
252
89
98
78
162
219
107
223
127
231
244
111
180
53
168
39
174
233
33
214
186
45
82
253
203
69
59
114
146
216
182
215
224
73
255
152
225
131
29
132
163
179
57
189
75
192
117
14
176
153
154
148
64
150
97
144
136
116
68
30
52
112
26
170
173
37
187
25
36
10
227
118
103
171
99
80
105
19
195
104
204
161
178
5
60
84
234
122
48
133
55
141
120
32
235
79
7
196
70
40
134
2
185
172
228
149
240
61
129
4
157
236
167
34
23
190
6
159
248
66
47
139
49
3
135
58
54
50
169
102
110
9
165
94
31
46
128
76
12
85
200
188
137
86
194
160
65
67
38
17
41
51
21
164
177
56
28
213
8

> <PUBCHEM_MMFF94_PARTIAL_CHARGES>
45
1 -0.34
10 -0.55
11 0.27
12 0.28
13 0.3
14 0.56
15 0.28
16 0.27
17 0.27
19 0.28
2 -0.34
22 0.14
23 -0.14
24 0.69
25 -0.15
26 -0.15
27 -0.15
28 -0.15
29 0.12
3 -0.34
30 -0.15
31 -0.15
32 -0.15
33 -0.14
34 -0.15
35 -0.15
36 1.16
4 -0.56
5 -0.56
53 0.37
56 0.4
57 0.15
58 0.15
59 0.37
6 -0.68
60 0.15
61 0.15
62 0.15
63 0.15
64 0.15
65 0.15
66 0.15
7 -0.57
8 -0.81
9 -0.73

> <PUBCHEM_EFFECTIVE_ROTOR_COUNT>
10.4

> <PUBCHEM_PHARMACOPHORE_FEATURES>
12
1 10 donor
1 4 acceptor
1 5 acceptor
1 6 acceptor
1 6 donor
1 7 acceptor
1 8 cation
1 9 donor
6 23 25 26 27 28 30 rings
6 29 31 32 33 34 35 rings
6 8 16 17 18 20 21 rings
8 4 5 11 12 13 14 15 19 rings

> <PUBCHEM_HEAVY_ATOM_COUNT>
36

> <PUBCHEM_ATOM_DEF_STEREO_COUNT>
5

> <PUBCHEM_ATOM_UDEF_STEREO_COUNT>
0

> <PUBCHEM_BOND_DEF_STEREO_COUNT>
0

> <PUBCHEM_BOND_UDEF_STEREO_COUNT>
0

> <PUBCHEM_ISOTOPIC_ATOM_COUNT>
0

> <PUBCHEM_COMPONENT_COUNT>
1

> <PUBCHEM_CACTVS_TAUTO_COUNT>
3

> <PUBCHEM_CONFORMER_ID>
02B425AA00000001

> <PUBCHEM_MMFF94_ENERGY>
95.4895

> <PUBCHEM_FEATURE_SELFOVERLAP>
60.999

> <PUBCHEM_SHAPE_FINGERPRINT>
100830 2 18261114118984263404
10439779 11 18267563828433199320
10673678 19 18125156040239107961
10675989 125 18053382098030347777
10917259 69 18409452484689838580
10937287 8 18341045208013124787
11059845 2 18195781086832585610
11374522 174 18263662683267708125
11477941 20 17623284292547722446
11479125 193 18269839705796726913
11761917 142 18196362852949215736
12107183 9 18190157046165492786
12655364 74 17467667074511054748
12788726 201 18191859243897810731
13398642 44 18266459793978123541
13761468 95 18127997362689241218
14251764 75 18337955584576292113
14664723 55 18115039592655682284
14849402 71 17764309440574832911
15064981 113 18059851805675396806
15320291 9 17401765220701417040
15400415 2 18411979126711247592
15439362 3 18270394972174889490
15448158 71 18408885144382425394
15513586 35 17315923436132961180
15961568 22 17044844488107651416
16728433 281 18191036784554739460
16988056 13 17474947623670843958
16992779 147 17838065810300857937
19302320 297 18120651327582036368
19309040 13 18058722499289633197
23516275 100 16971103549926276144
23576562 1 17840306619430759847
376196 1 18264772064919876859
4173938 77 17838626560872223005
44280116 191 18052550872036350108
4756261 7 18044399299428632705
5047190 36 18186807963258657492
5219985 13 18411981330297365449
53794403 172 18123193403008276157
57527585 21 18199164326613227439
5776283 40 18053678983956345774
5951187 136 17914336766638444245
6034566 193 18411421687658984657
6036956 94 18118405278761884277
6058803 2 18189316005532576282
6176135 31 18265326214459019224
6201320 215 18052249894151056432
9849439 229 18409453548643891669

> <PUBCHEM_SHAPE_MULTIPOLES>
680.62
15.61
10.04
1.67
1.27
6.18
-0.08
-35.21
-1.06
-2.08
1.03
0.66
-0.28
-3.83

> <PUBCHEM_SHAPE_SELFOVERLAP>
1469.927

> <PUBCHEM_SHAPE_VOLUME>
372.6

> <PUBCHEM_COORDINATE_TYPE>
2
5
10

$$$$
