51137959
  -OEChem-12032416223D

 51 54  0     1  0  0  0  0  0999 V2000
   -1.6611    1.5856   -1.7455 O   0  0  0  0  0  0  0  0  0  0  0  0
   -4.4584    0.2650    1.5290 O   0  0  0  0  0  0  0  0  0  0  0  0
    0.2186   -0.2710   -0.7284 N   0  0  0  0  0  0  0  0  0  0  0  0
    4.6504    2.0386   -0.0009 N   0  0  0  0  0  0  0  0  0  0  0  0
   -2.1349    1.7537    0.5275 N   0  0  0  0  0  0  0  0  0  0  0  0
    1.0150   -1.1887    0.0972 C   0  0  1  0  0  0  0  0  0  0  0  0
    0.0494    1.0613   -0.1662 C   0  0  1  0  0  0  0  0  0  0  0  0
    0.8626   -2.5593   -0.5867 C   0  0  0  0  0  0  0  0  0  0  0  0
    2.4812   -0.7977    0.3086 C   0  0  0  0  0  0  0  0  0  0  0  0
    3.0268    0.4974    0.0736 C   0  0  0  0  0  0  0  0  0  0  0  0
    1.0625    2.0472   -0.7448 C   0  0  0  0  0  0  0  0  0  0  0  0
    2.4766    1.7481   -0.3744 C   0  0  0  0  0  0  0  0  0  0  0  0
   -0.4918   -3.2189   -0.3094 C   0  0  0  0  0  0  0  0  0  0  0  0
    4.3852    0.7283    0.3202 C   0  0  0  0  0  0  0  0  0  0  0  0
    3.3686   -1.7608    0.8527 C   0  0  0  0  0  0  0  0  0  0  0  0
    3.5102    2.6621   -0.4136 C   0  0  0  0  0  0  0  0  0  0  0  0
   -1.3309    1.4843   -0.5669 C   0  0  0  0  0  0  0  0  0  0  0  0
   -0.5299   -4.5943   -0.9798 C   0  0  0  0  0  0  0  0  0  0  0  0
   -1.6696   -2.3737   -0.7966 C   0  0  0  0  0  0  0  0  0  0  0  0
    5.2538   -0.2471    0.8125 C   0  0  0  0  0  0  0  0  0  0  0  0
    4.7168   -1.4980    1.0881 C   0  0  0  0  0  0  0  0  0  0  0  0
   -3.5041    2.2013    0.4117 C   0  0  0  0  0  0  0  0  0  0  0  0
   -4.4729    1.0544    0.4229 C   0  0  0  0  0  0  0  0  0  0  0  0
   -5.4121    0.6077   -0.4774 C   0  0  0  0  0  0  0  0  0  0  0  0
   -6.0135   -0.5291    0.1135 C   0  0  0  0  0  0  0  0  0  0  0  0
   -5.3986   -0.6962    1.3328 C   0  0  0  0  0  0  0  0  0  0  0  0
    0.5674   -1.2485    1.0989 H   0  0  0  0  0  0  0  0  0  0  0  0
    0.1312    1.0401    0.9280 H   0  0  0  0  0  0  0  0  0  0  0  0
    1.0303   -2.4690   -1.6702 H   0  0  0  0  0  0  0  0  0  0  0  0
    1.6245   -3.2700   -0.2541 H   0  0  0  0  0  0  0  0  0  0  0  0
    0.9911    2.0825   -1.8409 H   0  0  0  0  0  0  0  0  0  0  0  0
    0.8106    3.0586   -0.3968 H   0  0  0  0  0  0  0  0  0  0  0  0
    0.5842   -0.2262   -1.6788 H   0  0  0  0  0  0  0  0  0  0  0  0
   -0.6023   -3.3732    0.7715 H   0  0  0  0  0  0  0  0  0  0  0  0
    3.0076   -2.7457    1.1398 H   0  0  0  0  0  0  0  0  0  0  0  0
    3.5270    3.7055   -0.6968 H   0  0  0  0  0  0  0  0  0  0  0  0
    5.5568    2.4792    0.0756 H   0  0  0  0  0  0  0  0  0  0  0  0
    0.2862   -5.2291   -0.6186 H   0  0  0  0  0  0  0  0  0  0  0  0
   -1.4709   -5.1095   -0.7587 H   0  0  0  0  0  0  0  0  0  0  0  0
   -0.4387   -4.5095   -2.0682 H   0  0  0  0  0  0  0  0  0  0  0  0
   -2.5929   -2.9652   -0.7780 H   0  0  0  0  0  0  0  0  0  0  0  0
   -1.5308   -2.0293   -1.8266 H   0  0  0  0  0  0  0  0  0  0  0  0
   -1.8574   -1.5201   -0.1397 H   0  0  0  0  0  0  0  0  0  0  0  0
    6.3015   -0.0344    0.9961 H   0  0  0  0  0  0  0  0  0  0  0  0
    5.3523   -2.2765    1.5018 H   0  0  0  0  0  0  0  0  0  0  0  0
   -1.7702    1.6215    1.4661 H   0  0  0  0  0  0  0  0  0  0  0  0
   -3.6189    2.7815   -0.5102 H   0  0  0  0  0  0  0  0  0  0  0  0
   -3.7074    2.8620    1.2607 H   0  0  0  0  0  0  0  0  0  0  0  0
   -5.6366    1.0449   -1.4398 H   0  0  0  0  0  0  0  0  0  0  0  0
   -6.7965   -1.1495   -0.2978 H   0  0  0  0  0  0  0  0  0  0  0  0
   -5.5096   -1.4118    2.1343 H   0  0  0  0  0  0  0  0  0  0  0  0
  1 17  2  0  0  0  0
  2 23  1  0  0  0  0
  2 26  1  0  0  0  0
  3  6  1  0  0  0  0
  3  7  1  0  0  0  0
  3 33  1  0  0  0  0
  4 14  1  0  0  0  0
  4 16  1  0  0  0  0
  4 37  1  0  0  0  0
  5 17  1  0  0  0  0
  5 22  1  0  0  0  0
  5 46  1  0  0  0  0
  6  8  1  0  0  0  0
  6  9  1  0  0  0  0
  6 27  1  0  0  0  0
  7 11  1  0  0  0  0
  7 17  1  0  0  0  0
  7 28  1  0  0  0  0
  8 13  1  0  0  0  0
  8 29  1  0  0  0  0
  8 30  1  0  0  0  0
  9 10  2  0  0  0  0
  9 15  1  0  0  0  0
 10 12  1  0  0  0  0
 10 14  1  0  0  0  0
 11 12  1  0  0  0  0
 11 31  1  0  0  0  0
 11 32  1  0  0  0  0
 12 16  2  0  0  0  0
 13 18  1  0  0  0  0
 13 19  1  0  0  0  0
 13 34  1  0  0  0  0
 14 20  2  0  0  0  0
 15 21  2  0  0  0  0
 15 35  1  0  0  0  0
 16 36  1  0  0  0  0
 18 38  1  0  0  0  0
 18 39  1  0  0  0  0
 18 40  1  0  0  0  0
 19 41  1  0  0  0  0
 19 42  1  0  0  0  0
 19 43  1  0  0  0  0
 20 21  1  0  0  0  0
 20 44  1  0  0  0  0
 21 45  1  0  0  0  0
 22 23  1  0  0  0  0
 22 47  1  0  0  0  0
 22 48  1  0  0  0  0
 23 24  2  0  0  0  0
 24 25  1  0  0  0  0
 24 49  1  0  0  0  0
 25 26  2  0  0  0  0
 25 50  1  0  0  0  0
 26 51  1  0  0  0  0
M  END
> <PUBCHEM_COMPOUND_CID>
51137959

> <PUBCHEM_CONFORMER_RMSD>
0.8

> <PUBCHEM_CONFORMER_DIVERSEORDER>
1
107
23
15
95
27
106
52
113
56
60
64
101
38
77
7
2
21
104
46
32
45
5
55
103
88
72
33
110
22
12
3
36
47
11
80
65
17
69
74
93
20
97
26
41
66
89
73
71
84
14
79
78
42
75
18
70
91
16
10
54
99
4
108
19
61
98
29
35
37
53
9
31
40
43
96
51
39
68
111
34
13
8
102
62
30
86
63
59
67
105
49
48
109
90
58
94
24
87
76
92
82
6
44
81
85
57
112
114
28
50
25
83
100

> <PUBCHEM_MMFF94_PARTIAL_CHARGES>
31
1 -0.57
11 0.18
12 -0.18
14 -0.15
15 -0.15
16 -0.3
17 0.57
2 -0.28
20 -0.15
21 -0.15
22 0.48
23 -0.04
24 -0.15
25 -0.15
26 -0.01
3 -0.9
33 0.36
35 0.15
36 0.15
37 0.27
4 0.03
44 0.15
45 0.15
46 0.37
49 0.15
5 -0.73
50 0.15
51 0.15
6 0.41
7 0.33
9 -0.14

> <PUBCHEM_EFFECTIVE_ROTOR_COUNT>
6.8

> <PUBCHEM_PHARMACOPHORE_FEATURES>
12
1 1 acceptor
1 2 acceptor
1 3 cation
1 3 donor
1 4 cation
1 4 donor
1 5 donor
3 13 18 19 hydrophobe
5 2 23 24 25 26 rings
5 4 10 12 14 16 rings
6 9 10 14 15 20 21 rings
7 3 6 7 9 10 11 12 rings

> <PUBCHEM_HEAVY_ATOM_COUNT>
26

> <PUBCHEM_ATOM_DEF_STEREO_COUNT>
2

> <PUBCHEM_ATOM_UDEF_STEREO_COUNT>
0

> <PUBCHEM_BOND_DEF_STEREO_COUNT>
0

> <PUBCHEM_BOND_UDEF_STEREO_COUNT>
0

> <PUBCHEM_ISOTOPIC_ATOM_COUNT>
0

> <PUBCHEM_COMPONENT_COUNT>
1

> <PUBCHEM_CACTVS_TAUTO_COUNT>
2

> <PUBCHEM_CONFORMER_ID>
030C4DA700000001

> <PUBCHEM_MMFF94_ENERGY>
47.5552

> <PUBCHEM_FEATURE_SELFOVERLAP>
61.026

> <PUBCHEM_SHAPE_FINGERPRINT>
1100329 8 18340483482046066672
11421498 54 17632018529213310017
11513181 2 18131358539449763903
11578080 2 17629750434684133008
11719270 70 18412539886799936327
12422481 6 18335136471069243027
12788726 201 18057878250147231063
128238 76 18342453798556974343
12839892 36 18339638949910401571
13583140 156 17169530948789915886
14341114 328 17989495104380119937
14787075 74 17989485234355337137
14790565 3 18411701031962359039
14866123 147 18340761632797789742
14955137 171 18268148652585960426
15219462 58 14998490376472827380
15475509 84 17539144152342812515
17138139 8 17629453523785143855
20028762 73 18273210885403562119
20261772 1 18409446990228447202
20739085 24 18261115162059215308
21197605 99 18335990873472570395
23559900 14 18051412864541846665
25147074 1 18116144649312557012
338550 245 18334860553737788308
350125 39 18409165528500680676
392239 28 18131074844375081769
465052 167 18114185215890062104
474229 33 18411981360472938835
6438718 38 17845649390461991582

> <PUBCHEM_SHAPE_MULTIPOLES>
508.39
12.14
4
1.12
9.27
3.91
0.05
-3.18
4.65
-0.65
-1.38
0.52
0.14
-0.9

> <PUBCHEM_SHAPE_SELFOVERLAP>
1100.328

> <PUBCHEM_SHAPE_VOLUME>
279.4

> <PUBCHEM_COORDINATE_TYPE>
2
5
10

$$$$
