40781520
  -OEChem-12032416393D

 43 44  0     1  0  0  0  0  0999 V2000
    3.0860   -2.5878    0.0264 S   0  0  0  0  0  0  0  0  0  0  0  0
    0.8020    0.8030   -0.8452 O   0  0  0  0  0  0  0  0  0  0  0  0
    0.1566    3.5014    1.4355 O   0  0  0  0  0  0  0  0  0  0  0  0
    1.8971    3.6376   -0.6907 O   0  0  0  0  0  0  0  0  0  0  0  0
   -2.1199    0.8686   -1.6902 O   0  0  0  0  0  0  0  0  0  0  0  0
    3.4314   -3.5662   -0.9861 O   0  0  0  0  0  0  0  0  0  0  0  0
    1.9422   -2.7909    0.8947 O   0  0  0  0  0  0  0  0  0  0  0  0
   -3.2705   -0.3875   -0.1294 N   0  0  0  0  0  0  0  0  0  0  0  0
    2.9882   -1.0276   -0.7091 N   0  0  0  0  0  0  0  0  0  0  0  0
   -0.1035    1.6212   -0.0837 C   0  0  2  0  0  0  0  0  0  0  0  0
    0.7503    2.3091    0.9679 C   0  0  1  0  0  0  0  0  0  0  0  0
    2.0406    2.5388    0.2086 C   0  0  1  0  0  0  0  0  0  0  0  0
    2.1540    1.2626   -0.6179 C   0  0  1  0  0  0  0  0  0  0  0  0
   -1.2030    0.7555    0.5051 C   0  0  0  0  0  0  0  0  0  0  0  0
    2.9088    0.1523    0.1004 C   0  0  0  0  0  0  0  0  0  0  0  0
   -2.2307    0.4232   -0.5468 C   0  0  0  0  0  0  0  0  0  0  0  0
   -4.3460   -0.7934   -1.0224 C   0  0  0  0  0  0  0  0  0  0  0  0
   -3.4575   -0.9494    1.2046 C   0  0  0  0  0  0  0  0  0  0  0  0
   -5.0621   -1.9069   -0.2740 C   0  0  0  0  0  0  0  0  0  0  0  0
   -4.8721   -1.5110    1.1847 C   0  0  0  0  0  0  0  0  0  0  0  0
    4.5080   -2.3526    1.0677 C   0  0  0  0  0  0  0  0  0  0  0  0
   -0.5225    2.3795   -0.7581 H   0  0  0  0  0  0  0  0  0  0  0  0
    0.9255    1.6424    1.8209 H   0  0  0  0  0  0  0  0  0  0  0  0
    2.8968    2.7447    0.8571 H   0  0  0  0  0  0  0  0  0  0  0  0
    2.6020    1.4496   -1.6009 H   0  0  0  0  0  0  0  0  0  0  0  0
   -1.7105    1.2982    1.3101 H   0  0  0  0  0  0  0  0  0  0  0  0
   -0.7875   -0.1780    0.9008 H   0  0  0  0  0  0  0  0  0  0  0  0
    2.3993   -0.0850    1.0407 H   0  0  0  0  0  0  0  0  0  0  0  0
    3.9221    0.4933    0.3384 H   0  0  0  0  0  0  0  0  0  0  0  0
   -3.9499   -1.1112   -1.9914 H   0  0  0  0  0  0  0  0  0  0  0  0
   -4.9979    0.0741   -1.1738 H   0  0  0  0  0  0  0  0  0  0  0  0
   -3.3200   -0.1907    1.9793 H   0  0  0  0  0  0  0  0  0  0  0  0
   -2.7134   -1.7416    1.3413 H   0  0  0  0  0  0  0  0  0  0  0  0
   -4.5673   -2.8669   -0.4644 H   0  0  0  0  0  0  0  0  0  0  0  0
   -6.1134   -1.9992   -0.5598 H   0  0  0  0  0  0  0  0  0  0  0  0
   -5.5911   -0.7271    1.4518 H   0  0  0  0  0  0  0  0  0  0  0  0
   -5.0034   -2.3473    1.8765 H   0  0  0  0  0  0  0  0  0  0  0  0
    0.8038    3.9427    2.0114 H   0  0  0  0  0  0  0  0  0  0  0  0
    2.7331    3.7236   -1.1800 H   0  0  0  0  0  0  0  0  0  0  0  0
    3.5356   -0.9127   -1.5723 H   0  0  0  0  0  0  0  0  0  0  0  0
    4.7331   -3.3091    1.5453 H   0  0  0  0  0  0  0  0  0  0  0  0
    5.3536   -2.0442    0.4500 H   0  0  0  0  0  0  0  0  0  0  0  0
    4.2841   -1.6083    1.8332 H   0  0  0  0  0  0  0  0  0  0  0  0
  1  6  2  0  0  0  0
  1  7  2  0  0  0  0
  1  9  1  0  0  0  0
  1 21  1  0  0  0  0
  2 10  1  0  0  0  0
  2 13  1  0  0  0  0
  3 11  1  0  0  0  0
  3 38  1  0  0  0  0
  4 12  1  0  0  0  0
  4 39  1  0  0  0  0
  5 16  2  0  0  0  0
  8 16  1  0  0  0  0
  8 17  1  0  0  0  0
  8 18  1  0  0  0  0
  9 15  1  0  0  0  0
  9 40  1  0  0  0  0
 10 11  1  0  0  0  0
 10 14  1  0  0  0  0
 10 22  1  0  0  0  0
 11 12  1  0  0  0  0
 11 23  1  0  0  0  0
 12 13  1  0  0  0  0
 12 24  1  0  0  0  0
 13 15  1  0  0  0  0
 13 25  1  0  0  0  0
 14 16  1  0  0  0  0
 14 26  1  0  0  0  0
 14 27  1  0  0  0  0
 15 28  1  0  0  0  0
 15 29  1  0  0  0  0
 17 19  1  0  0  0  0
 17 30  1  0  0  0  0
 17 31  1  0  0  0  0
 18 20  1  0  0  0  0
 18 32  1  0  0  0  0
 18 33  1  0  0  0  0
 19 20  1  0  0  0  0
 19 34  1  0  0  0  0
 19 35  1  0  0  0  0
 20 36  1  0  0  0  0
 20 37  1  0  0  0  0
 21 41  1  0  0  0  0
 21 42  1  0  0  0  0
 21 43  1  0  0  0  0
M  END
> <PUBCHEM_COMPOUND_CID>
40781520

> <PUBCHEM_CONFORMER_RMSD>
1

> <PUBCHEM_CONFORMER_DIVERSEORDER>
1
124
65
74
97
75
93
96
119
95
82
63
10
7
72
121
19
92
41
77
101
69
6
9
81
62
123
111
20
51
98
33
116
118
5
83
114
100
11
110
84
88
66
48
55
24
54
70
18
39
13
25
27
49
17
87
80
26
86
68
64
3
94
109
32
21
46
60
115
113
117
28
61
58
99
106
125
23
105
50
43
15
59
129
38
44
36
102
103
22
57
112
104
91
73
45
76
40
90
126
47
29
37
89
122
127
78
108
31
79
35
52
53
120
56
107
4
67
34
85
42
71
12
8
2
128
30
14
16

> <PUBCHEM_MMFF94_PARTIAL_CHARGES>
22
1 1.33
10 0.28
11 0.28
12 0.28
13 0.28
14 0.06
15 0.36
16 0.57
17 0.3
18 0.3
2 -0.56
21 0.11
3 -0.68
38 0.4
39 0.4
4 -0.68
40 0.42
5 -0.57
6 -0.65
7 -0.65
8 -0.66
9 -0.91

> <PUBCHEM_EFFECTIVE_ROTOR_COUNT>
8

> <PUBCHEM_PHARMACOPHORE_FEATURES>
11
1 2 acceptor
1 3 acceptor
1 3 donor
1 4 acceptor
1 4 donor
1 5 acceptor
1 6 acceptor
1 7 acceptor
1 9 donor
5 2 10 11 12 13 rings
5 8 17 18 19 20 rings

> <PUBCHEM_HEAVY_ATOM_COUNT>
21

> <PUBCHEM_ATOM_DEF_STEREO_COUNT>
4

> <PUBCHEM_ATOM_UDEF_STEREO_COUNT>
0

> <PUBCHEM_BOND_DEF_STEREO_COUNT>
0

> <PUBCHEM_BOND_UDEF_STEREO_COUNT>
0

> <PUBCHEM_ISOTOPIC_ATOM_COUNT>
0

> <PUBCHEM_COMPONENT_COUNT>
1

> <PUBCHEM_CACTVS_TAUTO_COUNT>
1

> <PUBCHEM_CONFORMER_ID>
026E46D000000001

> <PUBCHEM_MMFF94_ENERGY>
42.6226

> <PUBCHEM_FEATURE_SELFOVERLAP>
55.853

> <PUBCHEM_SHAPE_FINGERPRINT>
10730089 43 13039187000371912819
114674 6 18260548969363755218
12107183 9 18198921214668915657
12363563 72 18337395920309593534
12506688 2 18409164377154059250
12553582 1 18272934895052264806
12596602 18 17059781151359378707
12824470 246 18263647277324511352
13533116 47 18269278023180228691
13955234 65 18194684997408105177
14848160 33 18409727352682462943
14863182 85 18411420657130226814
14866123 147 17548701785814897827
15352361 1 18337388232212762090
15422964 175 18340197493259058044
17859628 70 18338524147856537087
18681886 176 15624833857777308985
20291156 8 18340489941650597046
20567600 70 18334007298735288690
20626108 58 17386555870017179562
20645477 70 18261947578577142335
20775530 9 18262803938947778434
21421861 104 18270701808447790481
21452121 199 18411411787600975512
2255824 54 18267869578037500268
23559900 14 18114452453266620389
33824 294 18266178520489803224
3421961 26 18411416232617605712
345986 75 17917439717675547929
458136 41 18121224443728672333
463206 1 18410293652800422667
5486654 36 18263937552963408051
59682541 52 18196909233155257439
621550 34 18118677966541462485
6433294 58 18265054806806450915
9709674 26 18187362168768569179

> <PUBCHEM_SHAPE_MULTIPOLES>
390.84
9.45
4.4
1.27
8.93
0.44
-0.06
-9.76
-0.46
-5.73
-0.58
0.47
0.04
0.18

> <PUBCHEM_SHAPE_SELFOVERLAP>
782.017

> <PUBCHEM_SHAPE_VOLUME>
232.2

> <PUBCHEM_COORDINATE_TYPE>
2
5
10

$$$$
