44716338
  -OEChem-12032416163D

 69 73  0     1  0  0  0  0  0999 V2000
    4.2093    1.5362    0.4849 O   0  0  0  0  0  0  0  0  0  0  0  0
   -4.0831    0.7574    0.7317 N   0  0  2  0  0  0  0  0  0  0  0  0
   -1.2641   -3.0627    1.0695 N   0  0  0  0  0  0  0  0  0  0  0  0
   -1.7483    3.3074   -0.7920 N   0  0  0  0  0  0  0  0  0  0  0  0
    0.0216   -3.4491    1.0067 N   0  0  0  0  0  0  0  0  0  0  0  0
   -3.4091   -0.8241   -1.2247 C   0  0  2  0  0  0  0  0  0  0  0  0
   -2.9636   -1.4239    0.1377 C   0  0  2  0  0  0  0  0  0  0  0  0
   -3.3766    1.5286   -0.3249 C   0  0  2  0  0  0  0  0  0  0  0  0
   -2.7891    0.5793   -1.3913 C   0  0  0  0  0  0  0  0  0  0  0  0
   -3.2157   -0.3410    1.2255 C   0  0  0  0  0  0  0  0  0  0  0  0
   -4.9398   -0.6378   -1.1498 C   0  0  0  0  0  0  0  0  0  0  0  0
   -5.2922    0.1537    0.1218 C   0  0  0  0  0  0  0  0  0  0  0  0
   -1.5697   -2.0273    0.2358 C   0  0  0  0  0  0  0  0  0  0  0  0
   -2.3139    2.4671    0.2507 C   0  0  0  0  0  0  0  0  0  0  0  0
   -0.4029   -1.7145   -0.4177 C   0  0  0  0  0  0  0  0  0  0  0  0
    0.5426   -2.6219    0.0964 C   0  0  0  0  0  0  0  0  0  0  0  0
    2.0108   -2.7351   -0.2720 C   0  0  0  0  0  0  0  0  0  0  0  0
    2.9012   -1.8984    0.6632 C   0  0  0  0  0  0  0  0  0  0  0  0
    2.2622   -2.3688   -1.7453 C   0  0  0  0  0  0  0  0  0  0  0  0
   -2.1621   -3.7446    1.9723 C   0  0  0  0  0  0  0  0  0  0  0  0
    4.3775   -2.0264    0.2907 C   0  0  0  0  0  0  0  0  0  0  0  0
    3.7409   -2.4952   -2.1076 C   0  0  0  0  0  0  0  0  0  0  0  0
    4.6220   -1.6715   -1.1730 C   0  0  0  0  0  0  0  0  0  0  0  0
   -0.7278    4.1970   -0.2515 C   0  0  0  0  0  0  0  0  0  0  0  0
    0.5865    3.4890   -0.0556 C   0  0  0  0  0  0  0  0  0  0  0  0
    1.1671    3.4342    1.2116 C   0  0  0  0  0  0  0  0  0  0  0  0
    1.2235    2.8878   -1.1413 C   0  0  0  0  0  0  0  0  0  0  0  0
    2.3844    2.7780    1.3932 C   0  0  0  0  0  0  0  0  0  0  0  0
    2.4411    2.2318   -0.9596 C   0  0  0  0  0  0  0  0  0  0  0  0
    3.0216    2.1768    0.3076 C   0  0  0  0  0  0  0  0  0  0  0  0
    4.7457    1.5177    1.8070 C   0  0  0  0  0  0  0  0  0  0  0  0
   -3.1340   -1.4747   -2.0615 H   0  0  0  0  0  0  0  0  0  0  0  0
   -3.6618   -2.2519    0.3320 H   0  0  0  0  0  0  0  0  0  0  0  0
   -4.1242    2.1727   -0.8123 H   0  0  0  0  0  0  0  0  0  0  0  0
   -1.7005    0.5403   -1.3346 H   0  0  0  0  0  0  0  0  0  0  0  0
   -3.0347    0.9650   -2.3891 H   0  0  0  0  0  0  0  0  0  0  0  0
   -2.2759    0.0602    1.6215 H   0  0  0  0  0  0  0  0  0  0  0  0
   -3.7023   -0.8099    2.0910 H   0  0  0  0  0  0  0  0  0  0  0  0
   -5.2941   -0.1029   -2.0393 H   0  0  0  0  0  0  0  0  0  0  0  0
   -5.4441   -1.6110   -1.1344 H   0  0  0  0  0  0  0  0  0  0  0  0
   -6.0226    0.9365   -0.1169 H   0  0  0  0  0  0  0  0  0  0  0  0
   -5.7895   -0.4991    0.8505 H   0  0  0  0  0  0  0  0  0  0  0  0
   -2.7744    3.0939    1.0255 H   0  0  0  0  0  0  0  0  0  0  0  0
   -1.5213    1.8838    0.7315 H   0  0  0  0  0  0  0  0  0  0  0  0
   -0.2440   -0.9516   -1.1624 H   0  0  0  0  0  0  0  0  0  0  0  0
    2.2949   -3.7907   -0.1472 H   0  0  0  0  0  0  0  0  0  0  0  0
   -2.4939    3.8685   -1.2042 H   0  0  0  0  0  0  0  0  0  0  0  0
    2.7620   -2.2178    1.7033 H   0  0  0  0  0  0  0  0  0  0  0  0
    2.5995   -0.8452    0.6192 H   0  0  0  0  0  0  0  0  0  0  0  0
    1.9451   -1.3373   -1.9451 H   0  0  0  0  0  0  0  0  0  0  0  0
    1.6699   -3.0158   -2.4040 H   0  0  0  0  0  0  0  0  0  0  0  0
   -2.6360   -3.0064    2.6228 H   0  0  0  0  0  0  0  0  0  0  0  0
   -1.5957   -4.4546    2.5814 H   0  0  0  0  0  0  0  0  0  0  0  0
   -2.9068   -4.2808    1.3794 H   0  0  0  0  0  0  0  0  0  0  0  0
    4.9802   -1.3782    0.9351 H   0  0  0  0  0  0  0  0  0  0  0  0
    4.7106   -3.0551    0.4761 H   0  0  0  0  0  0  0  0  0  0  0  0
    3.8955   -2.1685   -3.1422 H   0  0  0  0  0  0  0  0  0  0  0  0
    4.0401   -3.5493   -2.0574 H   0  0  0  0  0  0  0  0  0  0  0  0
    4.4214   -0.6055   -1.3315 H   0  0  0  0  0  0  0  0  0  0  0  0
    5.6766   -1.8372   -1.4203 H   0  0  0  0  0  0  0  0  0  0  0  0
   -0.5552    5.0076   -0.9713 H   0  0  0  0  0  0  0  0  0  0  0  0
   -1.0694    4.6882    0.6683 H   0  0  0  0  0  0  0  0  0  0  0  0
    0.6802    3.8971    2.0658 H   0  0  0  0  0  0  0  0  0  0  0  0
    0.7861    2.9256   -2.1355 H   0  0  0  0  0  0  0  0  0  0  0  0
    2.7782    2.7717    2.4038 H   0  0  0  0  0  0  0  0  0  0  0  0
    2.9324    1.7644   -1.8087 H   0  0  0  0  0  0  0  0  0  0  0  0
    4.9725    2.5280    2.1640 H   0  0  0  0  0  0  0  0  0  0  0  0
    4.0948    0.9696    2.4966 H   0  0  0  0  0  0  0  0  0  0  0  0
    5.6956    0.9751    1.7632 H   0  0  0  0  0  0  0  0  0  0  0  0
  1 30  1  0  0  0  0
  1 31  1  0  0  0  0
  2  8  1  0  0  0  0
  2 10  1  0  0  0  0
  2 12  1  0  0  0  0
  3  5  1  0  0  0  0
  3 13  1  0  0  0  0
  3 20  1  0  0  0  0
  4 14  1  0  0  0  0
  4 24  1  0  0  0  0
  4 47  1  0  0  0  0
  5 16  2  0  0  0  0
  6  7  1  0  0  0  0
  6  9  1  0  0  0  0
  6 11  1  0  0  0  0
  6 32  1  0  0  0  0
  7 10  1  0  0  0  0
  7 13  1  0  0  0  0
  7 33  1  0  0  0  0
  8  9  1  0  0  0  0
  8 14  1  0  0  0  0
  8 34  1  0  0  0  0
  9 35  1  0  0  0  0
  9 36  1  0  0  0  0
 10 37  1  0  0  0  0
 10 38  1  0  0  0  0
 11 12  1  0  0  0  0
 11 39  1  0  0  0  0
 11 40  1  0  0  0  0
 12 41  1  0  0  0  0
 12 42  1  0  0  0  0
 13 15  2  0  0  0  0
 14 43  1  0  0  0  0
 14 44  1  0  0  0  0
 15 16  1  0  0  0  0
 15 45  1  0  0  0  0
 16 17  1  0  0  0  0
 17 18  1  0  0  0  0
 17 19  1  0  0  0  0
 17 46  1  0  0  0  0
 18 21  1  0  0  0  0
 18 48  1  0  0  0  0
 18 49  1  0  0  0  0
 19 22  1  0  0  0  0
 19 50  1  0  0  0  0
 19 51  1  0  0  0  0
 20 52  1  0  0  0  0
 20 53  1  0  0  0  0
 20 54  1  0  0  0  0
 21 23  1  0  0  0  0
 21 55  1  0  0  0  0
 21 56  1  0  0  0  0
 22 23  1  0  0  0  0
 22 57  1  0  0  0  0
 22 58  1  0  0  0  0
 23 59  1  0  0  0  0
 23 60  1  0  0  0  0
 24 25  1  0  0  0  0
 24 61  1  0  0  0  0
 24 62  1  0  0  0  0
 25 26  2  0  0  0  0
 25 27  1  0  0  0  0
 26 28  1  0  0  0  0
 26 63  1  0  0  0  0
 27 29  2  0  0  0  0
 27 64  1  0  0  0  0
 28 30  2  0  0  0  0
 28 65  1  0  0  0  0
 29 30  1  0  0  0  0
 29 66  1  0  0  0  0
 31 67  1  0  0  0  0
 31 68  1  0  0  0  0
 31 69  1  0  0  0  0
M  END
> <PUBCHEM_COMPOUND_CID>
44716338

> <PUBCHEM_CONFORMER_RMSD>
1

> <PUBCHEM_CONFORMER_DIVERSEORDER>
1
85
16
65
22
9
97
46
67
44
14
12
107
36
62
71
104
56
63
55
8
5
88
45
100
108
25
2
95
74
30
15
13
48
37
75
51
18
34
27
82
39
77
61
10
96
70
99
41
54
32
35
93
31
28
80
52
53
102
69
59
40
47
42
78
60
106
20
33
86
21
83
101
26
29
58
11
23
50
94
17
49
19
81
84
72
64
87
90
105
24
68
6
89
38
79
7
4
103
57
43
66
98
76
91
3
73
92

> <PUBCHEM_MMFF94_PARTIAL_CHARGES>
29
1 -0.36
10 0.27
12 0.27
13 -0.33
14 0.27
15 -0.15
16 0.11
17 0.18
2 -0.81
20 0.26
24 0.41
25 -0.14
26 -0.15
27 -0.15
28 -0.15
29 -0.15
3 0.31
30 0.08
31 0.28
4 -0.9
45 0.15
47 0.36
5 -0.71
63 0.15
64 0.15
65 0.15
66 0.15
7 0.18
8 0.27

> <PUBCHEM_EFFECTIVE_ROTOR_COUNT>
9.4

> <PUBCHEM_PHARMACOPHORE_FEATURES>
9
1 1 acceptor
1 2 cation
1 4 cation
1 4 donor
1 5 acceptor
5 3 5 13 15 16 rings
6 17 18 19 21 22 23 rings
6 25 26 27 28 29 30 rings
8 2 6 7 8 9 10 11 12 rings

> <PUBCHEM_HEAVY_ATOM_COUNT>
31

> <PUBCHEM_ATOM_DEF_STEREO_COUNT>
3

> <PUBCHEM_ATOM_UDEF_STEREO_COUNT>
0

> <PUBCHEM_BOND_DEF_STEREO_COUNT>
0

> <PUBCHEM_BOND_UDEF_STEREO_COUNT>
0

> <PUBCHEM_ISOTOPIC_ATOM_COUNT>
0

> <PUBCHEM_COMPONENT_COUNT>
1

> <PUBCHEM_CACTVS_TAUTO_COUNT>
1

> <PUBCHEM_CONFORMER_ID>
02AA513200000001

> <PUBCHEM_MMFF94_ENERGY>
68.6625

> <PUBCHEM_FEATURE_SELFOVERLAP>
45.672

> <PUBCHEM_SHAPE_FINGERPRINT>
10006869 2 17185319738829591801
10670039 82 17974304127055838046
10864689 126 17548981057589651076
1100329 8 17908140980120079805
11513181 2 18060418015023439222
12645989 146 18271525278307228518
12788726 201 18193850236613162566
13122387 1 18194117404594646704
13140716 1 18194398883755970777
13402501 40 18411132541791295464
14647877 51 18342453691535946888
14725015 67 18264480685510470497
150020 26 18051699042391669992
19930381 70 18409443713569268449
20567600 299 18129942403069334674
20642791 35 18195522589752001229
20721686 56 18409445895228246634
20764821 26 18262813954895272150
21344244 246 18196916981091759671
21860390 5 18343866628064948190
238918 7 18271226310286546552
3027735 51 18339347635586355861
3052486 1 17975413517229297642
354706 35 17187833758643439869
392239 28 18194403295040168466
463206 1 18411986866215116337
469060 322 17683840642360552553
5047190 69 18196082241539921474
5081480 168 17699888152376129566
508706 21 18333730229893311358
513532 50 17775292694432081164
5171179 24 18129094533723137276
532947 4 18409722981201976829

> <PUBCHEM_SHAPE_MULTIPOLES>
612.17
9.45
6.18
1.67
0.85
2.26
0.02
-1.61
0.55
-2.66
-0.94
-0.72
-0.68
2.47

> <PUBCHEM_SHAPE_SELFOVERLAP>
1300.078

> <PUBCHEM_SHAPE_VOLUME>
339.3

> <PUBCHEM_COORDINATE_TYPE>
2
5
10

$$$$
