86769015
  -OEChem-12032416323D

 41 44  0     1  0  0  0  0  0999 V2000
   -1.4901   -2.3496    0.0052 O   0  0  0  0  0  0  0  0  0  0  0  0
    2.9441    0.0852    0.0665 N   0  0  2  0  0  0  0  0  0  0  0  0
    0.3419   -0.9334   -0.2617 N   0  0  0  0  0  0  0  0  0  0  0  0
   -1.7039    0.0297   -0.1436 N   0  0  0  0  0  0  0  0  0  0  0  0
    5.3811    0.0675    0.2159 C   0  0  0  0  0  0  0  0  0  0  0  0
    6.6494    0.8673    0.3293 C   0  0  0  0  0  0  0  0  0  0  0  0
    5.9771    0.7099   -1.0059 C   0  0  0  0  0  0  0  0  0  0  0  0
    4.1070    0.5910    0.7953 C   0  0  0  0  0  0  0  0  0  0  0  0
    0.5875    0.4614   -0.5311 C   0  0  2  0  0  0  0  0  0  0  0  0
    1.7782    0.9649    0.2837 C   0  0  0  0  0  0  0  0  0  0  0  0
    2.6405   -1.2998    0.4786 C   0  0  0  0  0  0  0  0  0  0  0  0
    1.4502   -1.8661   -0.2993 C   0  0  0  0  0  0  0  0  0  0  0  0
   -0.7437    1.1264   -0.2018 C   0  0  0  0  0  0  0  0  0  0  0  0
   -1.0247   -1.2249   -0.1233 C   0  0  0  0  0  0  0  0  0  0  0  0
   -3.1079    0.2481   -0.0379 C   0  0  0  0  0  0  0  0  0  0  0  0
   -3.9736   -0.8365    0.1030 C   0  0  0  0  0  0  0  0  0  0  0  0
   -3.6166    1.5463   -0.0755 C   0  0  0  0  0  0  0  0  0  0  0  0
   -5.3483   -0.6228    0.2063 C   0  0  0  0  0  0  0  0  0  0  0  0
   -4.9911    1.7600    0.0277 C   0  0  0  0  0  0  0  0  0  0  0  0
   -5.8570    0.6755    0.1686 C   0  0  0  0  0  0  0  0  0  0  0  0
    5.4918   -1.0042    0.3317 H   0  0  0  0  0  0  0  0  0  0  0  0
    7.5736    0.3270    0.4941 H   0  0  0  0  0  0  0  0  0  0  0  0
    6.6102    1.8413    0.8011 H   0  0  0  0  0  0  0  0  0  0  0  0
    5.4880    1.5792   -1.4281 H   0  0  0  0  0  0  0  0  0  0  0  0
    6.4480    0.0623   -1.7353 H   0  0  0  0  0  0  0  0  0  0  0  0
    4.1316    1.6875    0.7347 H   0  0  0  0  0  0  0  0  0  0  0  0
    4.0529    0.3498    1.8647 H   0  0  0  0  0  0  0  0  0  0  0  0
    0.7953    0.5476   -1.6060 H   0  0  0  0  0  0  0  0  0  0  0  0
    2.0071    1.9891   -0.0349 H   0  0  0  0  0  0  0  0  0  0  0  0
    1.5273    0.9989    1.3526 H   0  0  0  0  0  0  0  0  0  0  0  0
    2.4151   -1.3342    1.5531 H   0  0  0  0  0  0  0  0  0  0  0  0
    3.4950   -1.9616    0.3027 H   0  0  0  0  0  0  0  0  0  0  0  0
    1.1324   -2.8305    0.1094 H   0  0  0  0  0  0  0  0  0  0  0  0
    1.7138   -2.0153   -1.3528 H   0  0  0  0  0  0  0  0  0  0  0  0
   -0.7300    1.6266    0.7730 H   0  0  0  0  0  0  0  0  0  0  0  0
   -1.0092    1.8430   -0.9855 H   0  0  0  0  0  0  0  0  0  0  0  0
   -3.6478   -1.8669    0.1383 H   0  0  0  0  0  0  0  0  0  0  0  0
   -2.9801    2.4195   -0.1772 H   0  0  0  0  0  0  0  0  0  0  0  0
   -6.0235   -1.4666    0.3158 H   0  0  0  0  0  0  0  0  0  0  0  0
   -5.3878    2.7707   -0.0001 H   0  0  0  0  0  0  0  0  0  0  0  0
   -6.9272    0.8420    0.2492 H   0  0  0  0  0  0  0  0  0  0  0  0
  1 14  2  0  0  0  0
  2  8  1  0  0  0  0
  2 10  1  0  0  0  0
  2 11  1  0  0  0  0
  3  9  1  0  0  0  0
  3 12  1  0  0  0  0
  3 14  1  0  0  0  0
  4 13  1  0  0  0  0
  4 14  1  0  0  0  0
  4 15  1  0  0  0  0
  5  6  1  0  0  0  0
  5  7  1  0  0  0  0
  5  8  1  0  0  0  0
  5 21  1  0  0  0  0
  6  7  1  0  0  0  0
  6 22  1  0  0  0  0
  6 23  1  0  0  0  0
  7 24  1  0  0  0  0
  7 25  1  0  0  0  0
  8 26  1  0  0  0  0
  8 27  1  0  0  0  0
  9 10  1  0  0  0  0
  9 13  1  0  0  0  0
  9 28  1  0  0  0  0
 10 29  1  0  0  0  0
 10 30  1  0  0  0  0
 11 12  1  0  0  0  0
 11 31  1  0  0  0  0
 11 32  1  0  0  0  0
 12 33  1  0  0  0  0
 12 34  1  0  0  0  0
 13 35  1  0  0  0  0
 13 36  1  0  0  0  0
 15 16  2  0  0  0  0
 15 17  1  0  0  0  0
 16 18  1  0  0  0  0
 16 37  1  0  0  0  0
 17 19  2  0  0  0  0
 17 38  1  0  0  0  0
 18 20  2  0  0  0  0
 18 39  1  0  0  0  0
 19 20  1  0  0  0  0
 19 40  1  0  0  0  0
 20 41  1  0  0  0  0
M  END
> <PUBCHEM_COMPOUND_CID>
86769015

> <PUBCHEM_CONFORMER_RMSD>
0.6

> <PUBCHEM_CONFORMER_DIVERSEORDER>
1
20
19
18
2
3
8
6
21
4
11
7
12
17
15
14
5
13
16
9
10

> <PUBCHEM_MMFF94_PARTIAL_CHARGES>
30
1 -0.57
10 0.27
11 0.27
12 0.3
13 0.3
14 0.69
15 0.12
16 -0.15
17 -0.15
18 -0.15
19 -0.15
2 -0.81
20 -0.15
21 0.1
22 0.1
23 0.1
24 0.1
25 0.1
3 -0.66
37 0.15
38 0.15
39 0.15
4 -0.48
40 0.15
41 0.15
5 -0.19
6 -0.2
7 -0.2
8 0.37
9 0.3

> <PUBCHEM_EFFECTIVE_ROTOR_COUNT>
4.8

> <PUBCHEM_PHARMACOPHORE_FEATURES>
5
1 1 acceptor
1 2 cation
5 3 4 9 13 14 rings
6 15 16 17 18 19 20 rings
6 2 3 9 10 11 12 rings

> <PUBCHEM_HEAVY_ATOM_COUNT>
20

> <PUBCHEM_ATOM_DEF_STEREO_COUNT>
1

> <PUBCHEM_ATOM_UDEF_STEREO_COUNT>
0

> <PUBCHEM_BOND_DEF_STEREO_COUNT>
0

> <PUBCHEM_BOND_UDEF_STEREO_COUNT>
0

> <PUBCHEM_ISOTOPIC_ATOM_COUNT>
0

> <PUBCHEM_COMPONENT_COUNT>
1

> <PUBCHEM_CACTVS_TAUTO_COUNT>
1

> <PUBCHEM_CONFORMER_ID>
052BFD7700000001

> <PUBCHEM_MMFF94_ENERGY>
60.1054

> <PUBCHEM_FEATURE_SELFOVERLAP>
25.465

> <PUBCHEM_SHAPE_FINGERPRINT>
10 15 18334851762599493384
106641 1 17603873333713513641
10906281 52 18115325417895575348
11315181 36 17821731667390067625
12011746 2 18273495667356909928
12107183 9 17542498341058200201
12236239 1 17894631470065234588
12390115 104 18129391414399983441
12403259 415 18272360984284463545
12596602 18 17312820459505103033
12788726 201 17846218791704133584
13533116 47 17632297818447798862
13685833 64 9151164372844872757
14251764 18 18333452045568346721
14341114 328 17749102297045603890
14790565 3 18335707203894028844
15048467 5 18409166615022047912
15183329 4 14476964476108509180
15196674 1 18338516344117056171
1601671 61 18410009936266884700
1813 80 16515971371636842038
19784866 170 18407760326443304750
20281389 69 18334855013594343360
20645477 56 18412824694254517791
20681677 155 18335980956508699594
21267235 1 18338523035913447667
21279426 13 18199472060855850748
21709351 56 18340479054140675693
22224240 67 18334853939377460515
23198884 109 15482673481073596539
23402539 116 18272644667111279869
23559900 14 18130781299991896384
293599 30 18413388739709390678
300161 21 18260263019447281405
3004659 81 18337112272954948990
335352 9 18411981382295928748
34934 24 18410289203118955558
350125 39 18409449189199565829
3545911 37 18272089400500884003
4073 2 18113344114943241043
4340502 62 16443347563929082418
4463277 17 18409730673055984564
474229 33 18411418410408702255
5104073 3 18263651663108431667
542803 24 17749389273980986676
5486654 2 18412827988304510261
59682541 35 18335709386037550475
59682541 52 16988009284690136308
59755656 215 18272657818554322006
59755656 520 18410849975524088159
67856867 119 18114187496602586301

> <PUBCHEM_SHAPE_MULTIPOLES>
390.78
15.17
1.78
0.74
7.92
0.56
0.02
-5.74
-0.71
-0.96
0.03
0.53
-0.06
-0.01

> <PUBCHEM_SHAPE_SELFOVERLAP>
831.485

> <PUBCHEM_SHAPE_VOLUME>
217.8

> <PUBCHEM_COORDINATE_TYPE>
2
5
10

$$$$
