38026946
  -OEChem-12032416143D

 66 68  0     1  0  0  0  0  0999 V2000
    3.6178    2.8767    1.2662 O   0  0  0  0  0  0  0  0  0  0  0  0
   -1.0754   -2.8200    0.3658 O   0  0  0  0  0  0  0  0  0  0  0  0
   -6.2541    2.0785   -0.1556 O   0  0  0  0  0  0  0  0  0  0  0  0
    3.4272    1.6955   -0.7341 N   0  0  0  0  0  0  0  0  0  0  0  0
   -2.3703   -0.8952    0.2555 N   0  0  0  0  0  0  0  0  0  0  0  0
   -4.9854    0.1340   -0.1033 N   0  0  0  0  0  0  0  0  0  0  0  0
    2.7660   -0.8930    0.6464 C   0  0  1  0  0  0  0  0  0  0  0  0
    3.7774   -0.7080   -0.5125 C   0  0  1  0  0  0  0  0  0  0  0  0
    1.8454   -2.0910    0.3683 C   0  0  0  0  0  0  0  0  0  0  0  0
    1.0579   -1.9281   -0.9454 C   0  0  2  0  0  0  0  0  0  0  0  0
    3.4721   -1.0829    1.9925 C   0  0  0  0  0  0  0  0  0  0  0  0
    1.9507   -1.4819   -2.0855 C   0  0  0  0  0  0  0  0  0  0  0  0
    3.1682   -0.9514   -1.8733 C   0  0  0  0  0  0  0  0  0  0  0  0
    4.4087    0.6885   -0.4780 C   0  0  0  0  0  0  0  0  0  0  0  0
    2.0575    3.6538   -0.3137 C   0  0  0  0  0  0  0  0  0  0  0  0
   -0.1235   -0.9683   -0.7657 C   0  0  0  0  0  0  0  0  0  0  0  0
    0.7297    3.1064   -0.7481 C   0  0  0  0  0  0  0  0  0  0  0  0
    0.8400    3.8771    0.5348 C   0  0  0  0  0  0  0  0  0  0  0  0
    2.5537   -0.6693    3.1381 C   0  0  0  0  0  0  0  0  0  0  0  0
    3.9236   -2.5305    2.1569 C   0  0  0  0  0  0  0  0  0  0  0  0
    3.1116    2.7103    0.1626 C   0  0  0  0  0  0  0  0  0  0  0  0
    1.4305   -1.7017   -3.4788 C   0  0  0  0  0  0  0  0  0  0  0  0
   -1.2264   -1.6506    0.0034 C   0  0  0  0  0  0  0  0  0  0  0  0
   -3.4889   -1.4863    0.9942 C   0  0  0  0  0  0  0  0  0  0  0  0
   -2.5512    0.5194   -0.0963 C   0  0  0  0  0  0  0  0  0  0  0  0
   -4.8048   -1.2807    0.2485 C   0  0  0  0  0  0  0  0  0  0  0  0
   -3.8668    0.7247   -0.8423 C   0  0  0  0  0  0  0  0  0  0  0  0
   -6.1282    0.8902    0.1508 C   0  0  0  0  0  0  0  0  0  0  0  0
   -7.2629    0.1839    0.8486 C   0  0  0  0  0  0  0  0  0  0  0  0
    2.1420    0.0054    0.7147 H   0  0  0  0  0  0  0  0  0  0  0  0
    4.5918   -1.4358   -0.4079 H   0  0  0  0  0  0  0  0  0  0  0  0
    1.1666   -2.2629    1.2088 H   0  0  0  0  0  0  0  0  0  0  0  0
    2.4331   -3.0104    0.2477 H   0  0  0  0  0  0  0  0  0  0  0  0
    0.6865   -2.9262   -1.2182 H   0  0  0  0  0  0  0  0  0  0  0  0
    4.3584   -0.4429    2.0525 H   0  0  0  0  0  0  0  0  0  0  0  0
    3.7852   -0.6923   -2.7315 H   0  0  0  0  0  0  0  0  0  0  0  0
    5.1657    0.7807   -1.2664 H   0  0  0  0  0  0  0  0  0  0  0  0
    4.9186    0.8846    0.4691 H   0  0  0  0  0  0  0  0  0  0  0  0
    2.4368    4.5192   -0.8477 H   0  0  0  0  0  0  0  0  0  0  0  0
   -0.5377   -0.6706   -1.7348 H   0  0  0  0  0  0  0  0  0  0  0  0
    0.1805   -0.0707   -0.2241 H   0  0  0  0  0  0  0  0  0  0  0  0
    0.5537    2.0435   -0.6807 H   0  0  0  0  0  0  0  0  0  0  0  0
    0.2360    3.5872   -1.5838 H   0  0  0  0  0  0  0  0  0  0  0  0
    0.4188    4.8747    0.5612 H   0  0  0  0  0  0  0  0  0  0  0  0
    0.7396    3.3242    1.4609 H   0  0  0  0  0  0  0  0  0  0  0  0
    1.6477   -1.2809    3.1876 H   0  0  0  0  0  0  0  0  0  0  0  0
    2.2505    0.3785    3.0377 H   0  0  0  0  0  0  0  0  0  0  0  0
    3.0714   -0.7705    4.0984 H   0  0  0  0  0  0  0  0  0  0  0  0
    3.0957   -3.2204    2.3518 H   0  0  0  0  0  0  0  0  0  0  0  0
    4.5836   -2.6041    3.0302 H   0  0  0  0  0  0  0  0  0  0  0  0
    4.5022   -2.8928    1.3020 H   0  0  0  0  0  0  0  0  0  0  0  0
    2.9724    1.6988   -1.6427 H   0  0  0  0  0  0  0  0  0  0  0  0
    1.1631   -2.7535   -3.6234 H   0  0  0  0  0  0  0  0  0  0  0  0
    2.1754   -1.4465   -4.2403 H   0  0  0  0  0  0  0  0  0  0  0  0
    0.5456   -1.0879   -3.6692 H   0  0  0  0  0  0  0  0  0  0  0  0
   -3.5235   -0.9903    1.9716 H   0  0  0  0  0  0  0  0  0  0  0  0
   -3.3223   -2.5537    1.1695 H   0  0  0  0  0  0  0  0  0  0  0  0
   -1.7301    0.9048   -0.7017 H   0  0  0  0  0  0  0  0  0  0  0  0
   -2.5567    1.0808    0.8457 H   0  0  0  0  0  0  0  0  0  0  0  0
   -4.7994   -1.8423   -0.6934 H   0  0  0  0  0  0  0  0  0  0  0  0
   -5.6290   -1.6620    0.8537 H   0  0  0  0  0  0  0  0  0  0  0  0
   -4.0333    1.7918   -1.0193 H   0  0  0  0  0  0  0  0  0  0  0  0
   -3.8316    0.2277   -1.8192 H   0  0  0  0  0  0  0  0  0  0  0  0
   -6.9536   -0.1274    1.8498 H   0  0  0  0  0  0  0  0  0  0  0  0
   -7.5914   -0.6785    0.2626 H   0  0  0  0  0  0  0  0  0  0  0  0
   -8.1105    0.8688    0.9498 H   0  0  0  0  0  0  0  0  0  0  0  0
  1 21  2  0  0  0  0
  2 23  2  0  0  0  0
  3 28  2  0  0  0  0
  4 14  1  0  0  0  0
  4 21  1  0  0  0  0
  4 52  1  0  0  0  0
  5 23  1  0  0  0  0
  5 24  1  0  0  0  0
  5 25  1  0  0  0  0
  6 26  1  0  0  0  0
  6 27  1  0  0  0  0
  6 28  1  0  0  0  0
  7  8  1  0  0  0  0
  7  9  1  0  0  0  0
  7 11  1  0  0  0  0
  7 30  1  0  0  0  0
  8 13  1  0  0  0  0
  8 14  1  0  0  0  0
  8 31  1  0  0  0  0
  9 10  1  0  0  0  0
  9 32  1  0  0  0  0
  9 33  1  0  0  0  0
 10 12  1  0  0  0  0
 10 16  1  0  0  0  0
 10 34  1  0  0  0  0
 11 19  1  0  0  0  0
 11 20  1  0  0  0  0
 11 35  1  0  0  0  0
 12 13  2  0  0  0  0
 12 22  1  0  0  0  0
 13 36  1  0  0  0  0
 14 37  1  0  0  0  0
 14 38  1  0  0  0  0
 15 17  1  0  0  0  0
 15 18  1  0  0  0  0
 15 21  1  0  0  0  0
 15 39  1  0  0  0  0
 16 23  1  0  0  0  0
 16 40  1  0  0  0  0
 16 41  1  0  0  0  0
 17 18  1  0  0  0  0
 17 42  1  0  0  0  0
 17 43  1  0  0  0  0
 18 44  1  0  0  0  0
 18 45  1  0  0  0  0
 19 46  1  0  0  0  0
 19 47  1  0  0  0  0
 19 48  1  0  0  0  0
 20 49  1  0  0  0  0
 20 50  1  0  0  0  0
 20 51  1  0  0  0  0
 22 53  1  0  0  0  0
 22 54  1  0  0  0  0
 22 55  1  0  0  0  0
 24 26  1  0  0  0  0
 24 56  1  0  0  0  0
 24 57  1  0  0  0  0
 25 27  1  0  0  0  0
 25 58  1  0  0  0  0
 25 59  1  0  0  0  0
 26 60  1  0  0  0  0
 26 61  1  0  0  0  0
 27 62  1  0  0  0  0
 27 63  1  0  0  0  0
 28 29  1  0  0  0  0
 29 64  1  0  0  0  0
 29 65  1  0  0  0  0
 29 66  1  0  0  0  0
M  END
> <PUBCHEM_COMPOUND_CID>
38026946

> <PUBCHEM_CONFORMER_RMSD>
1

> <PUBCHEM_CONFORMER_DIVERSEORDER>
1
81
140
125
106
42
148
98
14
96
111
132
35
163
79
157
159
30
137
13
131
161
16
104
110
33
149
144
53
75
67
117
72
121
83
45
27
164
105
19
90
50
143
73
100
158
115
76
154
68
112
113
38
97
3
127
123
141
136
142
124
4
24
156
2
64
89
41
71
160
150
128
77
29
108
155
43
55
130
80
39
86
31
21
52
101
134
119
129
94
60
133
126
44
146
9
66
93
151
145
63
28
48
135
162
17
78
18
82
102
26
92
69
37
120
51
87
61
70
65
59
46
95
74
147
54
12
25
88
116
49
57
36
8
118
153
152
5
122
47
56
58
91
10
32
114
107
103
40
23
22
34
6
11
99
138
20
7
85
109
15
84
62
139

> <PUBCHEM_MMFF94_PARTIAL_CHARGES>
31
1 -0.57
10 0.14
12 -0.28
13 -0.29
14 0.3
15 -0.1
16 0.06
17 -0.2
18 -0.2
2 -0.57
21 0.63
22 0.14
23 0.57
24 0.3
25 0.3
26 0.3
27 0.3
28 0.57
29 0.06
3 -0.57
36 0.15
39 0.1
4 -0.73
42 0.1
43 0.1
44 0.1
45 0.1
5 -0.66
52 0.37
6 -0.66
8 0.14

> <PUBCHEM_EFFECTIVE_ROTOR_COUNT>
11.6

> <PUBCHEM_PHARMACOPHORE_FEATURES>
7
1 1 acceptor
1 2 acceptor
1 3 acceptor
1 4 donor
3 11 19 20 hydrophobe
6 5 6 24 25 26 27 rings
6 7 8 9 10 12 13 rings

> <PUBCHEM_HEAVY_ATOM_COUNT>
29

> <PUBCHEM_ATOM_DEF_STEREO_COUNT>
3

> <PUBCHEM_ATOM_UDEF_STEREO_COUNT>
0

> <PUBCHEM_BOND_DEF_STEREO_COUNT>
0

> <PUBCHEM_BOND_UDEF_STEREO_COUNT>
0

> <PUBCHEM_ISOTOPIC_ATOM_COUNT>
0

> <PUBCHEM_COMPONENT_COUNT>
1

> <PUBCHEM_CACTVS_TAUTO_COUNT>
2

> <PUBCHEM_CONFORMER_ID>
02443EC200000001

> <PUBCHEM_MMFF94_ENERGY>
60.0387

> <PUBCHEM_FEATURE_SELFOVERLAP>
35.522

> <PUBCHEM_SHAPE_FINGERPRINT>
10006869 2 18340476804052572208
12166972 35 17531814523909813879
12539773 59 12075192852768801788
12633257 1 18335973208002523451
12925494 130 18337954485977579769
13150687 139 11095301098284212738
13402501 40 18410016537109736973
13533116 47 17313104112236103955
13583140 156 17968924405212214855
15082195 135 17917704751628583247
15238133 3 18259984899145919016
15420108 30 17914597592108954852
15475509 84 17897994751517103440
15848702 68 18335974342206075604
17980427 23 18057580213876808046
1979834 28 17846495907199217925
21475661 188 18265618864997980700
21860390 5 18272942625787533157
22149856 69 17275116063644903283
23227448 37 18269839885873921591
23559900 14 18272378529157562319
3298306 158 18198912602811522493
3411729 13 18337392763297764380
345986 75 17388235872023281330
34797466 226 18059585676716937591
35225 105 16319144338390842984
3680242 22 18262521377691988689
394071 54 18272385156882339353
484985 159 15585931629143146562
5081480 168 17556059919201190388
5104073 3 17895202078288386115
5109719 28 18340218440505566731
5939293 188 18412543249648767404
7288768 16 17177140978526034664
8509985 295 18260542290694429483

> <PUBCHEM_SHAPE_MULTIPOLES>
564.26
12.61
4.09
2.28
27.79
4.53
0.26
2.33
-3.25
-3.59
-0.32
-3.31
-1.75
0.03

> <PUBCHEM_SHAPE_SELFOVERLAP>
1148.634

> <PUBCHEM_SHAPE_VOLUME>
325.9

> <PUBCHEM_COORDINATE_TYPE>
2
5
10

$$$$
