75536429
  -OEChem-12032416323D

 65 68  0     1  0  0  0  0  0999 V2000
    3.3681   -0.9382    0.6317 O   0  0  0  0  0  0  0  0  0  0  0  0
    6.0702   -1.4414    1.6967 O   0  0  0  0  0  0  0  0  0  0  0  0
   -0.8329   -0.9327   -1.1690 O   0  0  0  0  0  0  0  0  0  0  0  0
   -5.6730   -3.3281    0.3081 O   0  0  0  0  0  0  0  0  0  0  0  0
    1.8589    2.0676   -1.2605 O   0  0  0  0  0  0  0  0  0  0  0  0
   -2.1007    2.7075    1.8851 O   0  0  0  0  0  0  0  0  0  0  0  0
    2.5074    1.7394    0.9357 N   0  0  0  0  0  0  0  0  0  0  0  0
   -3.2373   -1.8572    0.2344 N   0  0  0  0  0  0  0  0  0  0  0  0
    0.3971   -1.1829   -1.7653 N   0  0  0  0  0  0  0  0  0  0  0  0
    0.3083    2.2753    0.4898 N   0  0  0  0  0  0  0  0  0  0  0  0
    3.5305   -1.2113   -0.7621 C   0  0  1  0  0  0  0  0  0  0  0  0
    4.2548    0.0536    1.1662 C   0  0  1  0  0  0  0  0  0  0  0  0
    5.7218   -0.3068    0.8990 C   0  0  2  0  0  0  0  0  0  0  0  0
    4.9519   -1.6888   -1.0557 C   0  0  0  0  0  0  0  0  0  0  0  0
    5.9746   -0.6696   -0.5618 C   0  0  0  0  0  0  0  0  0  0  0  0
    2.5105   -2.2775   -1.1421 C   0  0  0  0  0  0  0  0  0  0  0  0
    3.8834    1.4491    0.6690 C   0  0  0  0  0  0  0  0  0  0  0  0
    1.1036   -1.8368   -0.8388 C   0  0  0  0  0  0  0  0  0  0  0  0
    0.3786   -2.0260    0.3504 C   0  0  0  0  0  0  0  0  0  0  0  0
   -2.0632   -1.2622    0.8693 C   0  0  0  0  0  0  0  0  0  0  0  0
   -0.8317   -1.4394    0.0905 C   0  0  0  0  0  0  0  0  0  0  0  0
   -3.2498   -3.3145    0.4221 C   0  0  0  0  0  0  0  0  0  0  0  0
   -4.4736   -1.2700    0.7695 C   0  0  0  0  0  0  0  0  0  0  0  0
   -4.4894   -3.9109   -0.2384 C   0  0  0  0  0  0  0  0  0  0  0  0
   -5.6848   -1.9150    0.1018 C   0  0  0  0  0  0  0  0  0  0  0  0
    1.5676    2.0354   -0.0672 C   0  0  0  0  0  0  0  0  0  0  0  0
   -0.8910    2.6032   -0.1847 C   0  0  0  0  0  0  0  0  0  0  0  0
   -2.0727    2.8120    0.5262 C   0  0  0  0  0  0  0  0  0  0  0  0
   -0.8844    2.7151   -1.5750 C   0  0  0  0  0  0  0  0  0  0  0  0
   -3.2480    3.1327   -0.1531 C   0  0  0  0  0  0  0  0  0  0  0  0
   -2.0598    3.0356   -2.2545 C   0  0  0  0  0  0  0  0  0  0  0  0
   -3.2416    3.2445   -1.5435 C   0  0  0  0  0  0  0  0  0  0  0  0
   -3.3534    2.9381    2.5260 C   0  0  0  0  0  0  0  0  0  0  0  0
    3.3191   -0.3025   -1.3368 H   0  0  0  0  0  0  0  0  0  0  0  0
    4.0865    0.0236    2.2505 H   0  0  0  0  0  0  0  0  0  0  0  0
    6.3779    0.5145    1.2081 H   0  0  0  0  0  0  0  0  0  0  0  0
    5.0855   -1.8604   -2.1298 H   0  0  0  0  0  0  0  0  0  0  0  0
    5.1354   -2.6443   -0.5481 H   0  0  0  0  0  0  0  0  0  0  0  0
    6.9808   -1.0864   -0.6868 H   0  0  0  0  0  0  0  0  0  0  0  0
    5.9167    0.2314   -1.1835 H   0  0  0  0  0  0  0  0  0  0  0  0
    2.5984   -2.5281   -2.2065 H   0  0  0  0  0  0  0  0  0  0  0  0
    2.7030   -3.1998   -0.5781 H   0  0  0  0  0  0  0  0  0  0  0  0
    4.0854    1.5679   -0.3991 H   0  0  0  0  0  0  0  0  0  0  0  0
    4.4785    2.2026    1.1966 H   0  0  0  0  0  0  0  0  0  0  0  0
    7.0139   -1.6249    1.5505 H   0  0  0  0  0  0  0  0  0  0  0  0
    2.2046    1.7766    1.9042 H   0  0  0  0  0  0  0  0  0  0  0  0
    0.6878   -2.5158    1.2618 H   0  0  0  0  0  0  0  0  0  0  0  0
   -1.9317   -1.6354    1.8935 H   0  0  0  0  0  0  0  0  0  0  0  0
   -2.2111   -0.1793    0.9678 H   0  0  0  0  0  0  0  0  0  0  0  0
   -3.2564   -3.5620    1.4918 H   0  0  0  0  0  0  0  0  0  0  0  0
   -2.3628   -3.7750   -0.0270 H   0  0  0  0  0  0  0  0  0  0  0  0
   -4.4994   -0.1912    0.5771 H   0  0  0  0  0  0  0  0  0  0  0  0
   -4.5281   -1.4241    1.8551 H   0  0  0  0  0  0  0  0  0  0  0  0
   -4.5312   -4.9882   -0.0484 H   0  0  0  0  0  0  0  0  0  0  0  0
   -4.4780   -3.7661   -1.3256 H   0  0  0  0  0  0  0  0  0  0  0  0
   -5.7148   -1.7023   -0.9738 H   0  0  0  0  0  0  0  0  0  0  0  0
   -6.6066   -1.5221    0.5427 H   0  0  0  0  0  0  0  0  0  0  0  0
    0.2337    2.2066    1.5016 H   0  0  0  0  0  0  0  0  0  0  0  0
   -0.0149    2.5676   -2.1988 H   0  0  0  0  0  0  0  0  0  0  0  0
   -4.2030    3.3077    0.3298 H   0  0  0  0  0  0  0  0  0  0  0  0
   -2.0564    3.1221   -3.3372 H   0  0  0  0  0  0  0  0  0  0  0  0
   -4.1562    3.4934   -2.0738 H   0  0  0  0  0  0  0  0  0  0  0  0
   -3.1915    2.8143    3.6019 H   0  0  0  0  0  0  0  0  0  0  0  0
   -4.1009    2.1934    2.2312 H   0  0  0  0  0  0  0  0  0  0  0  0
   -3.7027    3.9651    2.3746 H   0  0  0  0  0  0  0  0  0  0  0  0
  1 11  1  0  0  0  0
  1 12  1  0  0  0  0
  2 13  1  0  0  0  0
  2 45  1  0  0  0  0
  3  9  1  0  0  0  0
  3 21  1  0  0  0  0
  4 24  1  0  0  0  0
  4 25  1  0  0  0  0
  5 26  2  0  0  0  0
  6 28  1  0  0  0  0
  6 33  1  0  0  0  0
  7 17  1  0  0  0  0
  7 26  1  0  0  0  0
  7 46  1  0  0  0  0
  8 20  1  0  0  0  0
  8 22  1  0  0  0  0
  8 23  1  0  0  0  0
  9 18  2  0  0  0  0
 10 26  1  0  0  0  0
 10 27  1  0  0  0  0
 10 58  1  0  0  0  0
 11 14  1  0  0  0  0
 11 16  1  0  0  0  0
 11 34  1  0  0  0  0
 12 13  1  0  0  0  0
 12 17  1  0  0  0  0
 12 35  1  0  0  0  0
 13 15  1  0  0  0  0
 13 36  1  0  0  0  0
 14 15  1  0  0  0  0
 14 37  1  0  0  0  0
 14 38  1  0  0  0  0
 15 39  1  0  0  0  0
 15 40  1  0  0  0  0
 16 18  1  0  0  0  0
 16 41  1  0  0  0  0
 16 42  1  0  0  0  0
 17 43  1  0  0  0  0
 17 44  1  0  0  0  0
 18 19  1  0  0  0  0
 19 21  2  0  0  0  0
 19 47  1  0  0  0  0
 20 21  1  0  0  0  0
 20 48  1  0  0  0  0
 20 49  1  0  0  0  0
 22 24  1  0  0  0  0
 22 50  1  0  0  0  0
 22 51  1  0  0  0  0
 23 25  1  0  0  0  0
 23 52  1  0  0  0  0
 23 53  1  0  0  0  0
 24 54  1  0  0  0  0
 24 55  1  0  0  0  0
 25 56  1  0  0  0  0
 25 57  1  0  0  0  0
 27 28  1  0  0  0  0
 27 29  2  0  0  0  0
 28 30  2  0  0  0  0
 29 31  1  0  0  0  0
 29 59  1  0  0  0  0
 30 32  1  0  0  0  0
 30 60  1  0  0  0  0
 31 32  2  0  0  0  0
 31 61  1  0  0  0  0
 32 62  1  0  0  0  0
 33 63  1  0  0  0  0
 33 64  1  0  0  0  0
 33 65  1  0  0  0  0
M  END
> <PUBCHEM_COMPOUND_CID>
75536429

> <PUBCHEM_CONFORMER_RMSD>
1.2

> <PUBCHEM_CONFORMER_DIVERSEORDER>
1
76
154
130
85
20
4
95
175
73
102
19
115
34
125
71
148
15
164
96
33
50
72
64
158
78
142
6
144
167
67
37
170
112
24
180
47
151
79
160
105
82
176
42
143
172
99
161
150
110
141
9
77
168
163
129
114
120
140
51
66
13
157
75
26
44
169
23
117
59
97
45
134
146
80
40
35
131
69
60
25
22
81
41
178
139
128
57
39
116
32
177
84
124
119
92
145
54
43
49
17
91
83
55
103
90
133
70
109
159
104
63
16
74
162
14
87
27
107
94
88
2
111
56
126
123
122
65
165
61
8
179
106
86
28
156
135
36
132
171
58
53
100
147
21
138
11
174
121
149
30
152
166
93
137
89
29
62
127
7
153
136
12
18
5
52
108
38
48
10
46
3
173
31
101
155
68
118
113
98

> <PUBCHEM_MMFF94_PARTIAL_CHARGES>
39
1 -0.56
10 -0.55
11 0.28
12 0.28
13 0.28
16 0.18
17 0.3
18 0.11
19 -0.15
2 -0.68
20 0.45
21 -0.04
22 0.27
23 0.27
24 0.28
25 0.28
26 0.69
27 0.12
28 0.08
29 -0.15
3 -0.02
30 -0.15
31 -0.15
32 -0.15
33 0.28
4 -0.56
45 0.4
46 0.37
47 0.15
5 -0.57
58 0.37
59 0.15
6 -0.36
60 0.15
61 0.15
62 0.15
7 -0.73
8 -0.81
9 -0.41

> <PUBCHEM_EFFECTIVE_ROTOR_COUNT>
12.4

> <PUBCHEM_PHARMACOPHORE_FEATURES>
14
1 1 acceptor
1 10 donor
1 2 acceptor
1 2 donor
1 4 acceptor
1 5 acceptor
1 6 acceptor
1 7 donor
1 8 cation
1 9 acceptor
5 3 9 18 19 21 rings
6 1 11 12 13 14 15 rings
6 27 28 29 30 31 32 rings
6 4 8 22 23 24 25 rings

> <PUBCHEM_HEAVY_ATOM_COUNT>
33

> <PUBCHEM_ATOM_DEF_STEREO_COUNT>
3

> <PUBCHEM_ATOM_UDEF_STEREO_COUNT>
0

> <PUBCHEM_BOND_DEF_STEREO_COUNT>
0

> <PUBCHEM_BOND_UDEF_STEREO_COUNT>
0

> <PUBCHEM_ISOTOPIC_ATOM_COUNT>
0

> <PUBCHEM_COMPONENT_COUNT>
1

> <PUBCHEM_CACTVS_TAUTO_COUNT>
3

> <PUBCHEM_CONFORMER_ID>
0480982D00000001

> <PUBCHEM_MMFF94_ENERGY>
72.6191

> <PUBCHEM_FEATURE_SELFOVERLAP>
71.101

> <PUBCHEM_SHAPE_FINGERPRINT>
10190206 1 17756459258560836076
10688039 33 18187640370478884564
12107698 1 18334288812561428930
12166972 35 17604993792102838951
12422481 6 18271821124359497097
13692114 37 18130233632339202929
13726171 33 18339093635868859176
14725015 67 18335689589737159187
15968369 153 18059845199240325812
20775438 99 17908959051320632663
21360443 126 18261950730783068485
22182313 1 17988084392338639358
23559900 14 17979631561957120819
27425 322 16480522936986272921
3052486 1 18260835847973157118
469060 322 17894918386359308245
508706 21 18337384937824744172
56638632 10 16987136418391917240
57527293 21 18188219684996604168

> <PUBCHEM_SHAPE_MULTIPOLES>
623.98
12.32
5.47
1.75
8.96
0.78
0.07
-8.62
3
-9.04
-0.55
-0.3
1.43
0.81

> <PUBCHEM_SHAPE_SELFOVERLAP>
1310.514

> <PUBCHEM_SHAPE_VOLUME>
350.6

> <PUBCHEM_COORDINATE_TYPE>
2
5
10

$$$$
