45361604
  -OEChem-12032416203D

 71 74  0     1  0  0  0  0  0999 V2000
    4.6161    1.9276   -2.5005 Cl  0  0  0  0  0  0  0  0  0  0  0  0
    0.2645   -2.2451   -1.5531 O   0  0  0  0  0  0  0  0  0  0  0  0
    5.1214   -2.4371    0.6704 O   0  0  0  0  0  0  0  0  0  0  0  0
   -5.0103    2.1109   -0.9716 O   0  0  0  0  0  0  0  0  0  0  0  0
   -4.3043    0.1665    0.0755 N   0  0  0  0  0  0  0  0  0  0  0  0
    4.6422   -1.1899   -1.2255 N   0  0  0  0  0  0  0  0  0  0  0  0
   -6.8571   -0.5823    0.3389 N   0  0  0  0  0  0  0  0  0  0  0  0
   -0.1736    0.2703    1.2853 C   0  0  1  0  0  0  0  0  0  0  0  0
   -0.5074   -0.4997   -0.0355 C   0  0  2  0  0  0  0  0  0  0  0  0
   -2.0391   -0.8404   -0.1121 C   0  0  1  0  0  0  0  0  0  0  0  0
    0.4562   -1.7030   -0.2456 C   0  0  2  0  0  0  0  0  0  0  0  0
    1.3158    0.6886    1.2763 C   0  0  0  0  0  0  0  0  0  0  0  0
   -1.0242    1.5600    1.3459 C   0  0  0  0  0  0  0  0  0  0  0  0
    1.9452   -1.2962   -0.1498 C   0  0  1  0  0  0  0  0  0  0  0  0
   -2.8865    0.4557    0.0253 C   0  0  2  0  0  0  0  0  0  0  0  0
    2.2637   -0.4918    1.1104 C   0  0  0  0  0  0  0  0  0  0  0  0
   -2.5198    1.2945    1.2492 C   0  0  0  0  0  0  0  0  0  0  0  0
   -0.4443   -0.5794    2.5528 C   0  0  0  0  0  0  0  0  0  0  0  0
    2.8740   -2.5140   -0.2287 C   0  0  2  0  0  0  0  0  0  0  0  0
   -2.4430   -1.5743   -1.4020 C   0  0  0  0  0  0  0  0  0  0  0  0
    2.5648   -3.4843    0.9060 C   0  0  0  0  0  0  0  0  0  0  0  0
    4.3301   -2.0606   -0.1915 C   0  0  0  0  0  0  0  0  0  0  0  0
   -5.2552    1.0334   -0.4353 C   0  0  0  0  0  0  0  0  0  0  0  0
   -6.6690    0.6036   -0.2822 C   0  0  0  0  0  0  0  0  0  0  0  0
    5.9597   -0.6235   -1.3991 C   0  0  0  0  0  0  0  0  0  0  0  0
   -7.6966    1.4007   -0.7602 C   0  0  0  0  0  0  0  0  0  0  0  0
    6.1290    0.6525   -0.6262 C   0  0  0  0  0  0  0  0  0  0  0  0
   -9.0014    0.9518   -0.5894 C   0  0  0  0  0  0  0  0  0  0  0  0
   -8.1389   -0.9860    0.4866 C   0  0  0  0  0  0  0  0  0  0  0  0
    5.5551    1.8495   -1.0542 C   0  0  0  0  0  0  0  0  0  0  0  0
    6.8826    0.6208    0.5472 C   0  0  0  0  0  0  0  0  0  0  0  0
   -9.2353   -0.2633    0.0449 C   0  0  0  0  0  0  0  0  0  0  0  0
    5.7346    3.0149   -0.3090 C   0  0  0  0  0  0  0  0  0  0  0  0
    7.0624    1.7862    1.2924 C   0  0  0  0  0  0  0  0  0  0  0  0
    6.4883    2.9832    0.8643 C   0  0  0  0  0  0  0  0  0  0  0  0
   -0.3195    0.1894   -0.8747 H   0  0  0  0  0  0  0  0  0  0  0  0
   -2.2941   -1.5146    0.7153 H   0  0  0  0  0  0  0  0  0  0  0  0
    0.1822   -2.4785    0.4716 H   0  0  0  0  0  0  0  0  0  0  0  0
    1.5663    1.2224    2.2022 H   0  0  0  0  0  0  0  0  0  0  0  0
    1.4958    1.3978    0.4570 H   0  0  0  0  0  0  0  0  0  0  0  0
   -0.7377    2.2296    0.5237 H   0  0  0  0  0  0  0  0  0  0  0  0
   -0.8174    2.1085    2.2737 H   0  0  0  0  0  0  0  0  0  0  0  0
    2.1423   -0.6418   -1.0095 H   0  0  0  0  0  0  0  0  0  0  0  0
   -2.7046    1.0719   -0.8662 H   0  0  0  0  0  0  0  0  0  0  0  0
    3.2816   -0.0874    1.0679 H   0  0  0  0  0  0  0  0  0  0  0  0
    2.2190   -1.0956    2.0192 H   0  0  0  0  0  0  0  0  0  0  0  0
   -2.8754    0.8046    2.1639 H   0  0  0  0  0  0  0  0  0  0  0  0
   -3.0472    2.2566    1.2120 H   0  0  0  0  0  0  0  0  0  0  0  0
    0.1149   -1.5191    2.5546 H   0  0  0  0  0  0  0  0  0  0  0  0
   -0.1555   -0.0275    3.4551 H   0  0  0  0  0  0  0  0  0  0  0  0
   -1.4978   -0.8466    2.6677 H   0  0  0  0  0  0  0  0  0  0  0  0
    2.7294   -3.0378   -1.1823 H   0  0  0  0  0  0  0  0  0  0  0  0
   -2.0761   -1.0490   -2.2898 H   0  0  0  0  0  0  0  0  0  0  0  0
   -3.5298   -1.6663   -1.4973 H   0  0  0  0  0  0  0  0  0  0  0  0
   -2.0626   -2.5996   -1.4085 H   0  0  0  0  0  0  0  0  0  0  0  0
   -4.6081   -0.6767    0.5545 H   0  0  0  0  0  0  0  0  0  0  0  0
    0.4512   -1.5448   -2.2013 H   0  0  0  0  0  0  0  0  0  0  0  0
    2.7072   -3.0664    1.9052 H   0  0  0  0  0  0  0  0  0  0  0  0
    3.2547   -4.3364    0.8462 H   0  0  0  0  0  0  0  0  0  0  0  0
    1.5649   -3.9187    0.8399 H   0  0  0  0  0  0  0  0  0  0  0  0
    3.9457   -0.9684   -1.9296 H   0  0  0  0  0  0  0  0  0  0  0  0
    6.7043   -1.3667   -1.0887 H   0  0  0  0  0  0  0  0  0  0  0  0
    6.1250   -0.4608   -2.4698 H   0  0  0  0  0  0  0  0  0  0  0  0
   -7.5151    2.3486   -1.2551 H   0  0  0  0  0  0  0  0  0  0  0  0
   -9.8346    1.5475   -0.9499 H   0  0  0  0  0  0  0  0  0  0  0  0
   -8.2674   -1.9399    0.9874 H   0  0  0  0  0  0  0  0  0  0  0  0
    7.3355   -0.3032    0.8966 H   0  0  0  0  0  0  0  0  0  0  0  0
  -10.2441   -0.6329    0.1889 H   0  0  0  0  0  0  0  0  0  0  0  0
    5.2937    3.9557   -0.6288 H   0  0  0  0  0  0  0  0  0  0  0  0
    7.6487    1.7615    2.2063 H   0  0  0  0  0  0  0  0  0  0  0  0
    6.6281    3.8904    1.4448 H   0  0  0  0  0  0  0  0  0  0  0  0
  1 30  1  0  0  0  0
  2 11  1  0  0  0  0
  2 57  1  0  0  0  0
  3 22  2  0  0  0  0
  4 23  2  0  0  0  0
  5 15  1  0  0  0  0
  5 23  1  0  0  0  0
  5 56  1  0  0  0  0
  6 22  1  0  0  0  0
  6 25  1  0  0  0  0
  6 61  1  0  0  0  0
  7 24  1  0  0  0  0
  7 29  2  0  0  0  0
  8  9  1  0  0  0  0
  8 12  1  0  0  0  0
  8 13  1  0  0  0  0
  8 18  1  0  0  0  0
  9 10  1  0  0  0  0
  9 11  1  0  0  0  0
  9 36  1  0  0  0  0
 10 15  1  0  0  0  0
 10 20  1  0  0  0  0
 10 37  1  0  0  0  0
 11 14  1  0  0  0  0
 11 38  1  0  0  0  0
 12 16  1  0  0  0  0
 12 39  1  0  0  0  0
 12 40  1  0  0  0  0
 13 17  1  0  0  0  0
 13 41  1  0  0  0  0
 13 42  1  0  0  0  0
 14 16  1  0  0  0  0
 14 19  1  0  0  0  0
 14 43  1  0  0  0  0
 15 17  1  0  0  0  0
 15 44  1  0  0  0  0
 16 45  1  0  0  0  0
 16 46  1  0  0  0  0
 17 47  1  0  0  0  0
 17 48  1  0  0  0  0
 18 49  1  0  0  0  0
 18 50  1  0  0  0  0
 18 51  1  0  0  0  0
 19 21  1  0  0  0  0
 19 22  1  0  0  0  0
 19 52  1  0  0  0  0
 20 53  1  0  0  0  0
 20 54  1  0  0  0  0
 20 55  1  0  0  0  0
 21 58  1  0  0  0  0
 21 59  1  0  0  0  0
 21 60  1  0  0  0  0
 23 24  1  0  0  0  0
 24 26  2  0  0  0  0
 25 27  1  0  0  0  0
 25 62  1  0  0  0  0
 25 63  1  0  0  0  0
 26 28  1  0  0  0  0
 26 64  1  0  0  0  0
 27 30  1  0  0  0  0
 27 31  2  0  0  0  0
 28 32  2  0  0  0  0
 28 65  1  0  0  0  0
 29 32  1  0  0  0  0
 29 66  1  0  0  0  0
 30 33  2  0  0  0  0
 31 34  1  0  0  0  0
 31 67  1  0  0  0  0
 32 68  1  0  0  0  0
 33 35  1  0  0  0  0
 33 69  1  0  0  0  0
 34 35  2  0  0  0  0
 34 70  1  0  0  0  0
 35 71  1  0  0  0  0
M  END
> <PUBCHEM_COMPOUND_CID>
45361604

> <PUBCHEM_CONFORMER_RMSD>
1.2

> <PUBCHEM_CONFORMER_DIVERSEORDER>
1
55
155
113
141
154
66
145
99
70
48
139
74
117
114
50
29
90
144
64
87
86
148
100
124
23
136
92
107
132
37
158
65
162
160
134
26
98
25
138
97
130
63
164
52
68
140
51
60
5
33
110
61
171
122
71
142
111
58
168
108
150
46
31
16
152
79
165
94
21
12
159
83
95
120
2
166
129
102
123
118
101
105
156
67
109
41
35
30
69
153
167
27
106
163
93
116
169
135
62
80
4
88
22
19
103
39
96
127
11
42
119
125
89
44
75
54
77
36
121
161
3
10
146
15
137
47
151
28
38
72
115
81
45
24
9
133
104
112
76
17
57
143
82
20
78
157
56
85
91
7
32
147
6
8
18
13
128
59
84
73
170
149
34
14
126
53
49
131
40
43

> <PUBCHEM_MMFF94_PARTIAL_CHARGES>
35
1 -0.18
11 0.28
15 0.3
19 0.06
2 -0.68
22 0.57
23 0.54
24 0.4
25 0.44
26 -0.15
27 -0.14
28 -0.15
29 0.16
3 -0.57
30 0.18
31 -0.15
32 -0.15
33 -0.15
34 -0.15
35 -0.15
4 -0.57
5 -0.73
56 0.37
57 0.4
6 -0.73
61 0.37
64 0.15
65 0.15
66 0.15
67 0.15
68 0.15
69 0.15
7 -0.62
70 0.15
71 0.15

> <PUBCHEM_EFFECTIVE_ROTOR_COUNT>
9.6

> <PUBCHEM_PHARMACOPHORE_FEATURES>
12
1 2 acceptor
1 2 donor
1 21 hydrophobe
1 3 acceptor
1 4 acceptor
1 5 donor
1 6 donor
1 7 acceptor
6 27 30 31 33 34 35 rings
6 7 24 26 28 29 32 rings
6 8 9 10 13 15 17 rings
6 8 9 11 12 14 16 rings

> <PUBCHEM_HEAVY_ATOM_COUNT>
35

> <PUBCHEM_ATOM_DEF_STEREO_COUNT>
6

> <PUBCHEM_ATOM_UDEF_STEREO_COUNT>
1

> <PUBCHEM_BOND_DEF_STEREO_COUNT>
0

> <PUBCHEM_BOND_UDEF_STEREO_COUNT>
0

> <PUBCHEM_ISOTOPIC_ATOM_COUNT>
0

> <PUBCHEM_COMPONENT_COUNT>
1

> <PUBCHEM_CACTVS_TAUTO_COUNT>
4

> <PUBCHEM_CONFORMER_ID>
02B429C400000001

> <PUBCHEM_MMFF94_ENERGY>
98.6674

> <PUBCHEM_FEATURE_SELFOVERLAP>
60.912

> <PUBCHEM_SHAPE_FINGERPRINT>
10533779 47 9655298185554228149
10673678 19 18413110550182507166
10677351 14 18271798026959140293
10816530 90 17917421060490536394
11007060 377 18335711524894425065
11135609 187 18198623431538273688
11211813 74 18411979148665592757
11456790 92 12829207759136487573
12522641 24 11023818479443339954
13150687 139 17988654004224037598
13165053 68 18117002298357764631
13617811 41 18272085011403868352
13811026 1 18259988184157863489
13947947 19 17632286905267884983
14117953 113 18410581704458571892
14675020 138 15719391711525602602
150020 25 18410019835649628303
15183329 4 17917997182550043433
15301273 46 12319736960310581665
15361156 5 18342453764930472119
15840311 113 18411420605311018942
15890870 6 18409451427927189620
16728300 4 7925372700631434016
16992787 43 18060701714730204153
17324776 126 15118490877785323580
17686467 74 18186803591925292085
18608769 82 18341048618665589627
19319366 153 18341326717503093918
20511986 3 18201430407419407596
20715895 44 18410291450383610628
20812841 46 7997972375292120525
21049683 271 18201999941494968393
21521721 280 18413112749416902147
21781055 127 14907916989780275267
22149856 69 17274548603115614915
23522609 53 17488203542240634593
23569914 2 17245220281322405100
25269216 80 16772939458477698045
3044373 193 17530966874012818678
34797466 226 17775290443589701422
3552219 110 17632306666265045897
4073 2 18333732429872018419
4098825 35 18333730204819735791
4149490 64 18259983756168583314
439807 62 12895081700175929004
44317340 157 18342458149474883454
4625314 4 18409451345579084303
5109719 28 18261402181965747072
5265222 85 18341611534449371799
5372103 7 15409750658328402560
9831232 110 12031791344485173684
9849439 229 18261397814785529332

> <PUBCHEM_SHAPE_MULTIPOLES>
689.6
25.58
3.1
1.67
40.67
0.66
0.02
-12.8
-4.16
-5.73
-0.14
-1.66
-0.32
0.45

> <PUBCHEM_SHAPE_SELFOVERLAP>
1453.368

> <PUBCHEM_SHAPE_VOLUME>
385.1

> <PUBCHEM_COORDINATE_TYPE>
2
5
10

$$$$
