11883035
  -OEChem-12032416313D

 58 61  0     1  0  0  0  0  0999 V2000
    8.7082   -0.6210   -1.1689 Cl  0  0  0  0  0  0  0  0  0  0  0  0
    0.4038    2.1670    0.1818 S   0  0  0  0  0  0  0  0  0  0  0  0
   -7.1556    0.3132   -0.8403 O   0  0  0  0  0  0  0  0  0  0  0  0
   -6.7367    2.1287    0.6674 O   0  0  0  0  0  0  0  0  0  0  0  0
    0.8491   -3.6594    1.0019 O   0  0  0  0  0  0  0  0  0  0  0  0
    0.5033   -2.9135   -1.1207 O   0  0  0  0  0  0  0  0  0  0  0  0
    3.5550   -1.2534   -0.0273 O   0  0  0  0  0  0  0  0  0  0  0  0
    0.7250   -0.3938    0.0032 N   0  0  0  0  0  0  0  0  0  0  0  0
    2.7243    0.9472    0.1227 N   0  0  0  0  0  0  0  0  0  0  0  0
    7.7172    1.3969    0.1217 N   0  0  0  0  0  0  0  0  0  0  0  0
   -3.0985   -0.7659    0.3360 C   0  0  2  0  0  0  0  0  0  0  0  0
   -3.3755    0.6306   -0.3772 C   0  0  1  0  0  0  0  0  0  0  0  0
   -4.8740    1.1193   -0.4365 C   0  0  1  0  0  0  0  0  0  0  0  0
   -1.6420   -1.2604   -0.0972 C   0  0  1  0  0  0  0  0  0  0  0  0
   -4.1349   -1.8100   -0.1545 C   0  0  0  0  0  0  0  0  0  0  0  0
   -5.7786   -0.0575   -0.8999 C   0  0  1  0  0  0  0  0  0  0  0  0
   -2.3781    1.7236    0.1060 C   0  0  0  0  0  0  0  0  0  0  0  0
   -5.5771   -1.3285   -0.0822 C   0  0  0  0  0  0  0  0  0  0  0  0
   -3.1742   -0.6780    1.8802 C   0  0  0  0  0  0  0  0  0  0  0  0
   -0.6350   -0.1447    0.0159 C   0  0  0  0  0  0  0  0  0  0  0  0
   -5.4001    1.7333    0.8797 C   0  0  0  0  0  0  0  0  0  0  0  0
   -4.9983    2.2453   -1.5018 C   0  0  0  0  0  0  0  0  0  0  0  0
   -0.9864    1.1879    0.0875 C   0  0  0  0  0  0  0  0  0  0  0  0
   -1.1590   -2.5280    0.6204 C   0  0  0  0  0  0  0  0  0  0  0  0
    0.1292   -3.0319    0.0365 C   0  0  0  0  0  0  0  0  0  0  0  0
    1.3693    0.7494    0.0932 C   0  0  0  0  0  0  0  0  0  0  0  0
    3.7194   -0.0417    0.0622 C   0  0  0  0  0  0  0  0  0  0  0  0
    5.1187    0.4613    0.0826 C   0  0  0  0  0  0  0  0  0  0  0  0
    6.1045   -0.2895   -0.5111 C   0  0  0  0  0  0  0  0  0  0  0  0
    5.3837    1.6625    0.6952 C   0  0  0  0  0  0  0  0  0  0  0  0
    7.3910    0.2231   -0.4645 C   0  0  0  0  0  0  0  0  0  0  0  0
    6.7023    2.0876    0.6879 C   0  0  0  0  0  0  0  0  0  0  0  0
   -3.1134    0.4442   -1.4333 H   0  0  0  0  0  0  0  0  0  0  0  0
   -1.6927   -1.4883   -1.1732 H   0  0  0  0  0  0  0  0  0  0  0  0
   -4.0522   -2.7369    0.4250 H   0  0  0  0  0  0  0  0  0  0  0  0
   -3.9177   -2.0808   -1.1963 H   0  0  0  0  0  0  0  0  0  0  0  0
   -5.5592   -0.2967   -1.9492 H   0  0  0  0  0  0  0  0  0  0  0  0
   -2.6200    2.0509    1.1227 H   0  0  0  0  0  0  0  0  0  0  0  0
   -2.4345    2.6014   -0.5463 H   0  0  0  0  0  0  0  0  0  0  0  0
   -6.2410   -2.1125   -0.4684 H   0  0  0  0  0  0  0  0  0  0  0  0
   -5.8934   -1.1769    0.9558 H   0  0  0  0  0  0  0  0  0  0  0  0
   -2.4290    0.0040    2.2993 H   0  0  0  0  0  0  0  0  0  0  0  0
   -4.1498   -0.3623    2.2418 H   0  0  0  0  0  0  0  0  0  0  0  0
   -3.0075   -1.6581    2.3406 H   0  0  0  0  0  0  0  0  0  0  0  0
   -4.8217    2.6048    1.2018 H   0  0  0  0  0  0  0  0  0  0  0  0
   -5.4196    1.0226    1.7011 H   0  0  0  0  0  0  0  0  0  0  0  0
   -4.4830    3.1586   -1.1860 H   0  0  0  0  0  0  0  0  0  0  0  0
   -4.5553    1.9304   -2.4540 H   0  0  0  0  0  0  0  0  0  0  0  0
   -6.0331    2.5270   -1.7187 H   0  0  0  0  0  0  0  0  0  0  0  0
   -0.9850   -2.3124    1.6814 H   0  0  0  0  0  0  0  0  0  0  0  0
   -1.8876   -3.3401    0.5439 H   0  0  0  0  0  0  0  0  0  0  0  0
   -7.3427    0.8972   -1.5936 H   0  0  0  0  0  0  0  0  0  0  0  0
   -6.7307    3.0333    0.3114 H   0  0  0  0  0  0  0  0  0  0  0  0
    2.9877    1.9271    0.1506 H   0  0  0  0  0  0  0  0  0  0  0  0
    1.7015   -4.0018    0.6577 H   0  0  0  0  0  0  0  0  0  0  0  0
    5.9000   -1.2354   -1.0007 H   0  0  0  0  0  0  0  0  0  0  0  0
    4.6464    2.2675    1.2077 H   0  0  0  0  0  0  0  0  0  0  0  0
    6.9878    3.0216    1.1609 H   0  0  0  0  0  0  0  0  0  0  0  0
  1 31  1  0  0  0  0
  2 23  1  0  0  0  0
  2 26  1  0  0  0  0
  3 16  1  0  0  0  0
  3 52  1  0  0  0  0
  4 21  1  0  0  0  0
  4 53  1  0  0  0  0
  5 25  1  0  0  0  0
  5 55  1  0  0  0  0
  6 25  2  0  0  0  0
  7 27  2  0  0  0  0
  8 20  1  0  0  0  0
  8 26  2  0  0  0  0
  9 26  1  0  0  0  0
  9 27  1  0  0  0  0
  9 54  1  0  0  0  0
 10 31  2  0  0  0  0
 10 32  1  0  0  0  0
 11 12  1  0  0  0  0
 11 14  1  0  0  0  0
 11 15  1  0  0  0  0
 11 19  1  0  0  0  0
 12 13  1  0  0  0  0
 12 17  1  0  0  0  0
 12 33  1  0  0  0  0
 13 16  1  0  0  0  0
 13 21  1  0  0  0  0
 13 22  1  0  0  0  0
 14 20  1  0  0  0  0
 14 24  1  0  0  0  0
 14 34  1  0  0  0  0
 15 18  1  0  0  0  0
 15 35  1  0  0  0  0
 15 36  1  0  0  0  0
 16 18  1  0  0  0  0
 16 37  1  0  0  0  0
 17 23  1  0  0  0  0
 17 38  1  0  0  0  0
 17 39  1  0  0  0  0
 18 40  1  0  0  0  0
 18 41  1  0  0  0  0
 19 42  1  0  0  0  0
 19 43  1  0  0  0  0
 19 44  1  0  0  0  0
 20 23  2  0  0  0  0
 21 45  1  0  0  0  0
 21 46  1  0  0  0  0
 22 47  1  0  0  0  0
 22 48  1  0  0  0  0
 22 49  1  0  0  0  0
 24 25  1  0  0  0  0
 24 50  1  0  0  0  0
 24 51  1  0  0  0  0
 27 28  1  0  0  0  0
 28 29  2  0  0  0  0
 28 30  1  0  0  0  0
 29 31  1  0  0  0  0
 29 56  1  0  0  0  0
 30 32  2  0  0  0  0
 30 57  1  0  0  0  0
 32 58  1  0  0  0  0
M  END
> <PUBCHEM_COMPOUND_CID>
11883035

> <PUBCHEM_CONFORMER_RMSD>
1

> <PUBCHEM_CONFORMER_DIVERSEORDER>
1
8
3
10
7
4
5
2
9
6

> <PUBCHEM_MMFF94_PARTIAL_CHARGES>
32
1 -0.18
10 -0.62
14 0.18
16 0.28
17 0.18
2 -0.08
20 0.05
21 0.28
23 -0.14
24 0.06
25 0.66
26 0.44
27 0.54
28 0.09
29 -0.15
3 -0.68
30 -0.15
31 0.49
32 0.16
4 -0.68
5 -0.65
52 0.4
53 0.4
54 0.37
55 0.5
56 0.15
57 0.15
58 0.15
6 -0.57
7 -0.57
8 -0.57
9 -0.49

> <PUBCHEM_EFFECTIVE_ROTOR_COUNT>
7.2

> <PUBCHEM_PHARMACOPHORE_FEATURES>
14
1 10 acceptor
1 3 acceptor
1 3 donor
1 4 acceptor
1 4 donor
1 5 acceptor
1 6 acceptor
1 7 acceptor
1 9 donor
3 5 6 25 anion
5 2 8 20 23 26 rings
6 10 28 29 30 31 32 rings
6 11 12 13 15 16 18 rings
6 11 12 14 17 20 23 rings

> <PUBCHEM_HEAVY_ATOM_COUNT>
32

> <PUBCHEM_ATOM_DEF_STEREO_COUNT>
5

> <PUBCHEM_ATOM_UDEF_STEREO_COUNT>
0

> <PUBCHEM_BOND_DEF_STEREO_COUNT>
0

> <PUBCHEM_BOND_UDEF_STEREO_COUNT>
0

> <PUBCHEM_ISOTOPIC_ATOM_COUNT>
0

> <PUBCHEM_COMPONENT_COUNT>
1

> <PUBCHEM_CACTVS_TAUTO_COUNT>
3

> <PUBCHEM_CONFORMER_ID>
00B5521B00000001

> <PUBCHEM_MMFF94_ENERGY>
104.7947

> <PUBCHEM_FEATURE_SELFOVERLAP>
71.251

> <PUBCHEM_SHAPE_FINGERPRINT>
10 15 17967816024819610673
10165383 225 18409449147231035665
10411042 1 17760649566046618107
10835480 77 18270676593291485672
10906281 52 18334871488967246769
11007060 377 18340488975114092482
11135926 11 18410290273024332725
11315181 36 18411702114716513417
11578080 2 17170375335709012215
12107698 1 15554451816480357738
12236239 1 17821725044634750432
12516196 113 18202280325344172656
12838862 33 18337654395936530400
13402501 40 18341894117120793580
13811026 1 18412825806508986734
14117953 113 18334016086422720196
14394314 77 18341055108372327985
14790565 3 18408886260699693525
14856354 85 16081091510553721011
15021287 119 16950564415004363749
15183329 4 18334008389239886336
15849732 13 18259702324262189148
15927050 60 18409725192741973498
18608769 82 18337955722368758123
18681886 176 18337382841981196681
20721686 146 14490733622017264927
21033648 29 18271513303980014248
21236236 1 18411698811849291193
21267235 1 18337677511054794235
21360443 120 18187085031899179906
23559900 14 18200304545582292816
249057 3 18335422392176057196
283562 15 18342178812848898625
3004659 81 18261109695246640752
335352 9 18410292527465639693
3383291 50 18263082278503528586
3633792 109 18272653424286021144
4017518 198 18059862779343634334
4073 2 18188775067328147162
4258327 124 17896053194851820900
5265222 85 18263368147774555820
5385378 56 18336270020502666259
5758199 1 18411983542364019033
59755656 215 18411702067614077310
6138700 20 18412263938997853230
6669772 16 18130793338875379102
7226269 152 18343585144023516504

> <PUBCHEM_SHAPE_MULTIPOLES>
619.97
21.25
3.04
1.05
30.52
1.88
-0.05
-8.66
4.09
-1.33
-0.31
-0.56
0
1.18

> <PUBCHEM_SHAPE_SELFOVERLAP>
1315.985

> <PUBCHEM_SHAPE_VOLUME>
349.5

> <PUBCHEM_COORDINATE_TYPE>
2
5
10

$$$$
