26742314
  -OEChem-12032416183D

 64 68  0     1  0  0  0  0  0999 V2000
    3.1726   -0.6855   -1.7286 S   0  0  0  0  0  0  0  0  0  0  0  0
   -1.4269   -4.5462    0.4625 O   0  0  0  0  0  0  0  0  0  0  0  0
    3.5368   -1.9707   -1.1626 O   0  0  0  0  0  0  0  0  0  0  0  0
    3.5310   -0.3617   -3.0966 O   0  0  0  0  0  0  0  0  0  0  0  0
   -2.3229    0.3838    0.8101 N   0  0  2  0  0  0  0  0  0  0  0  0
   -0.6644   -2.3463    0.7274 N   0  0  0  0  0  0  0  0  0  0  0  0
   -5.7065    1.8435   -1.3074 N   0  0  0  0  0  0  0  0  0  0  0  0
    1.5260   -0.4007   -1.4860 N   0  0  0  0  0  0  0  0  0  0  0  0
   -1.3507   -0.9009    2.7304 C   0  0  1  0  0  0  0  0  0  0  0  0
    0.1385    0.0190    1.0190 C   0  0  2  0  0  0  0  0  0  0  0  0
   -0.0001   -0.2387    2.5180 C   0  0  0  0  0  0  0  0  0  0  0  0
   -2.4817    0.0174    2.2227 C   0  0  0  0  0  0  0  0  0  0  0  0
   -0.9953    0.9612    0.5528 C   0  0  0  0  0  0  0  0  0  0  0  0
   -3.3817    1.2958    0.3833 C   0  0  0  0  0  0  0  0  0  0  0  0
   -1.3357   -2.2630    2.0316 C   0  0  0  0  0  0  0  0  0  0  0  0
    0.1106   -1.2839    0.2210 C   0  0  0  0  0  0  0  0  0  0  0  0
   -4.7553    0.6787    0.6585 C   0  0  0  0  0  0  0  0  0  0  0  0
   -3.2488    1.6318   -1.1050 C   0  0  0  0  0  0  0  0  0  0  0  0
   -5.8763    1.5762    0.1277 C   0  0  0  0  0  0  0  0  0  0  0  0
   -4.4189    2.4979   -1.5784 C   0  0  0  0  0  0  0  0  0  0  0  0
    0.7674   -1.4650   -0.9435 C   0  0  0  0  0  0  0  0  0  0  0  0
   -0.7749   -3.5823    0.0595 C   0  0  0  0  0  0  0  0  0  0  0  0
    0.7041   -2.7010   -1.6699 C   0  0  0  0  0  0  0  0  0  0  0  0
   -0.0300   -3.7197   -1.2190 C   0  0  0  0  0  0  0  0  0  0  0  0
   -6.8112    2.6599   -1.8101 C   0  0  0  0  0  0  0  0  0  0  0  0
    3.8705    0.5651   -0.6909 C   0  0  0  0  0  0  0  0  0  0  0  0
    4.1491    0.2861    0.6472 C   0  0  0  0  0  0  0  0  0  0  0  0
    4.1434    1.8304   -1.2110 C   0  0  0  0  0  0  0  0  0  0  0  0
    4.7008    1.2724    1.4650 C   0  0  0  0  0  0  0  0  0  0  0  0
    4.6948    2.8168   -0.3931 C   0  0  0  0  0  0  0  0  0  0  0  0
    4.9734    2.5377    0.9450 C   0  0  0  0  0  0  0  0  0  0  0  0
    5.5623    3.5920    1.8202 C   0  0  0  0  0  0  0  0  0  0  0  0
   -1.5140   -1.0649    3.8030 H   0  0  0  0  0  0  0  0  0  0  0  0
    1.0963    0.5332    0.8863 H   0  0  0  0  0  0  0  0  0  0  0  0
    0.8132   -0.8783    2.8832 H   0  0  0  0  0  0  0  0  0  0  0  0
    0.0569    0.7040    3.0759 H   0  0  0  0  0  0  0  0  0  0  0  0
   -3.4060   -0.5440    2.3897 H   0  0  0  0  0  0  0  0  0  0  0  0
   -2.5196    0.9159    2.8534 H   0  0  0  0  0  0  0  0  0  0  0  0
   -0.8893    1.9301    1.0593 H   0  0  0  0  0  0  0  0  0  0  0  0
   -0.8354    1.1330   -0.5154 H   0  0  0  0  0  0  0  0  0  0  0  0
   -3.3118    2.2352    0.9515 H   0  0  0  0  0  0  0  0  0  0  0  0
   -0.8105   -2.9796    2.6785 H   0  0  0  0  0  0  0  0  0  0  0  0
   -2.3566   -2.6510    1.9238 H   0  0  0  0  0  0  0  0  0  0  0  0
   -4.9486    0.5632    1.7300 H   0  0  0  0  0  0  0  0  0  0  0  0
   -4.8329   -0.3151    0.1973 H   0  0  0  0  0  0  0  0  0  0  0  0
   -3.2067    0.7129   -1.7049 H   0  0  0  0  0  0  0  0  0  0  0  0
   -2.3404    2.2051   -1.3168 H   0  0  0  0  0  0  0  0  0  0  0  0
   -6.8322    1.0657    0.2982 H   0  0  0  0  0  0  0  0  0  0  0  0
   -5.9012    2.5135    0.6994 H   0  0  0  0  0  0  0  0  0  0  0  0
   -4.3705    3.4815   -1.0924 H   0  0  0  0  0  0  0  0  0  0  0  0
   -4.3073    2.6622   -2.6572 H   0  0  0  0  0  0  0  0  0  0  0  0
    1.2349   -2.7980   -2.6112 H   0  0  0  0  0  0  0  0  0  0  0  0
   -0.1008   -4.6560   -1.7598 H   0  0  0  0  0  0  0  0  0  0  0  0
    1.2870    0.5298   -1.1242 H   0  0  0  0  0  0  0  0  0  0  0  0
   -6.7128    2.8175   -2.8899 H   0  0  0  0  0  0  0  0  0  0  0  0
   -6.8582    3.6396   -1.3211 H   0  0  0  0  0  0  0  0  0  0  0  0
   -7.7684    2.1501   -1.6542 H   0  0  0  0  0  0  0  0  0  0  0  0
    3.9369   -0.6898    1.0744 H   0  0  0  0  0  0  0  0  0  0  0  0
    3.9282    2.0709   -2.2482 H   0  0  0  0  0  0  0  0  0  0  0  0
    4.9130    1.0431    2.5059 H   0  0  0  0  0  0  0  0  0  0  0  0
    4.9029    3.7986   -0.8099 H   0  0  0  0  0  0  0  0  0  0  0  0
    6.6550    3.5388    1.7890 H   0  0  0  0  0  0  0  0  0  0  0  0
    5.2505    4.5918    1.4996 H   0  0  0  0  0  0  0  0  0  0  0  0
    5.2341    3.4719    2.8583 H   0  0  0  0  0  0  0  0  0  0  0  0
  1  3  2  0  0  0  0
  1  4  2  0  0  0  0
  1  8  1  0  0  0  0
  1 26  1  0  0  0  0
  2 22  2  0  0  0  0
  5 12  1  0  0  0  0
  5 13  1  0  0  0  0
  5 14  1  0  0  0  0
  6 15  1  0  0  0  0
  6 16  1  0  0  0  0
  6 22  1  0  0  0  0
  7 19  1  0  0  0  0
  7 20  1  0  0  0  0
  7 25  1  0  0  0  0
  8 21  1  0  0  0  0
  8 54  1  0  0  0  0
  9 11  1  0  0  0  0
  9 12  1  0  0  0  0
  9 15  1  0  0  0  0
  9 33  1  0  0  0  0
 10 11  1  0  0  0  0
 10 13  1  0  0  0  0
 10 16  1  0  0  0  0
 10 34  1  0  0  0  0
 11 35  1  0  0  0  0
 11 36  1  0  0  0  0
 12 37  1  0  0  0  0
 12 38  1  0  0  0  0
 13 39  1  0  0  0  0
 13 40  1  0  0  0  0
 14 17  1  0  0  0  0
 14 18  1  0  0  0  0
 14 41  1  0  0  0  0
 15 42  1  0  0  0  0
 15 43  1  0  0  0  0
 16 21  2  0  0  0  0
 17 19  1  0  0  0  0
 17 44  1  0  0  0  0
 17 45  1  0  0  0  0
 18 20  1  0  0  0  0
 18 46  1  0  0  0  0
 18 47  1  0  0  0  0
 19 48  1  0  0  0  0
 19 49  1  0  0  0  0
 20 50  1  0  0  0  0
 20 51  1  0  0  0  0
 21 23  1  0  0  0  0
 22 24  1  0  0  0  0
 23 24  2  0  0  0  0
 23 52  1  0  0  0  0
 24 53  1  0  0  0  0
 25 55  1  0  0  0  0
 25 56  1  0  0  0  0
 25 57  1  0  0  0  0
 26 27  2  0  0  0  0
 26 28  1  0  0  0  0
 27 29  1  0  0  0  0
 27 58  1  0  0  0  0
 28 30  2  0  0  0  0
 28 59  1  0  0  0  0
 29 31  2  0  0  0  0
 29 60  1  0  0  0  0
 30 31  1  0  0  0  0
 30 61  1  0  0  0  0
 31 32  1  0  0  0  0
 32 62  1  0  0  0  0
 32 63  1  0  0  0  0
 32 64  1  0  0  0  0
M  END
> <PUBCHEM_COMPOUND_CID>
26742314

> <PUBCHEM_CONFORMER_RMSD>
0.8

> <PUBCHEM_CONFORMER_DIVERSEORDER>
1
29
19
8
7
26
30
28
24
22
21
25
13
16
23
18
17
20
6
12
27
15
5
3
2
9
4
14
10
11

> <PUBCHEM_MMFF94_PARTIAL_CHARGES>
35
1 1.45
10 0.14
12 0.27
13 0.27
14 0.27
15 0.3
16 -0.03
19 0.27
2 -0.57
20 0.27
21 0.19
22 0.62
23 -0.15
24 -0.14
25 0.27
26 -0.01
27 -0.15
28 -0.15
29 -0.15
3 -0.65
30 -0.15
31 -0.14
32 0.14
4 -0.65
5 -0.81
52 0.15
53 0.15
54 0.42
58 0.15
59 0.15
6 -0.47
60 0.15
61 0.15
7 -0.81
8 -0.75

> <PUBCHEM_EFFECTIVE_ROTOR_COUNT>
6.2

> <PUBCHEM_PHARMACOPHORE_FEATURES>
11
1 2 acceptor
1 3 acceptor
1 4 acceptor
1 5 cation
1 7 cation
1 8 donor
6 26 27 28 29 30 31 rings
6 5 9 10 11 12 13 rings
6 6 16 21 22 23 24 rings
6 6 9 10 11 15 16 rings
6 7 14 17 18 19 20 rings

> <PUBCHEM_HEAVY_ATOM_COUNT>
32

> <PUBCHEM_ATOM_DEF_STEREO_COUNT>
2

> <PUBCHEM_ATOM_UDEF_STEREO_COUNT>
0

> <PUBCHEM_BOND_DEF_STEREO_COUNT>
0

> <PUBCHEM_BOND_UDEF_STEREO_COUNT>
0

> <PUBCHEM_ISOTOPIC_ATOM_COUNT>
0

> <PUBCHEM_COMPONENT_COUNT>
1

> <PUBCHEM_CACTVS_TAUTO_COUNT>
3

> <PUBCHEM_CONFORMER_ID>
01980E2A00000001

> <PUBCHEM_MMFF94_ENERGY>
69.914

> <PUBCHEM_FEATURE_SELFOVERLAP>
57.382

> <PUBCHEM_SHAPE_FINGERPRINT>
105312 117 18341329002135012472
10764073 3 12325058536391098263
10794284 68 8464479027645669259
11135609 127 18195790900585716005
11377469 6 13843404022958386570
11578080 2 18339088193690887246
11582403 64 18186517691845298811
11720765 8 17471561132679794495
11725454 13 18186809049541646771
12422481 6 14056989495534852087
12597179 24 18341891917585880632
12633257 1 15430037673329475432
131258 38 13119438223901024393
13911987 19 18272099321923395321
14251764 30 10303811003549969485
14468879 13 18337120050322752634
15219462 58 17681822244407808738
15324884 4 18192180206967046218
15721738 202 10087638239364524448
173720 79 16732989747354811281
17492 54 16845283960320354109
17974551 9 15430617154248717404
19319366 153 17702651164925017047
20578428 11 15767768067586113153
20775438 99 17703781505490407742
21033648 29 18333737922496749884
21304303 282 18188758582827524579
21521721 280 18131083644884540091
21859007 373 18187643557909354692
22440779 20 11311505752643482927
23559900 14 17749971954929997162
238 59 18056494858561635294
24941158 1 17685750455719591327
3388396 114 17203621393347508088
3737641 26 8862937265062799660
376196 1 18187928301202845923
4366758 6 17845916486784571402
4371632 12 16486120885474094608
469060 322 17763194935295517074
57527585 21 16127273249789196488
58260988 393 17975408337456456746
6201320 77 8934178003724762449
6669772 16 18341322332055972506
6677587 24 17759763050351785093
7918774 8 10231753388179421845

> <PUBCHEM_SHAPE_MULTIPOLES>
624.86
12.75
4.65
2.62
5.35
3.17
0.31
-18.58
-3.3
-0.15
-0.68
-0.29
0.19
4.22

> <PUBCHEM_SHAPE_SELFOVERLAP>
1332.724

> <PUBCHEM_SHAPE_VOLUME>
347.6

> <PUBCHEM_COORDINATE_TYPE>
2
5
10

$$$$
