25338464
  -OEChem-12032416213D

 51 55  0     1  0  0  0  0  0999 V2000
   -2.2383   -0.8553    1.8669 S   0  0  0  0  0  0  0  0  0  0  0  0
    3.4939    2.6183   -0.2537 O   0  0  0  0  0  0  0  0  0  0  0  0
   -2.1855   -0.2704    3.1932 O   0  0  0  0  0  0  0  0  0  0  0  0
   -2.1756   -2.2948    1.7014 O   0  0  0  0  0  0  0  0  0  0  0  0
    0.2499    1.6135   -1.1933 N   0  0  1  0  0  0  0  0  0  0  0  0
   -1.0519   -0.1422    0.8856 N   0  0  0  0  0  0  0  0  0  0  0  0
    2.9557    0.4537   -0.0505 N   0  0  0  0  0  0  0  0  0  0  0  0
    4.7055    1.9154   -0.2390 N   0  0  0  0  0  0  0  0  0  0  0  0
   -3.3221   -1.7062   -0.7852 N   0  0  0  0  0  0  0  0  0  0  0  0
    7.0223   -2.5902    0.0601 N   0  0  0  0  0  0  0  0  0  0  0  0
   -1.0052    1.2939    0.7450 C   0  0  1  0  0  0  0  0  0  0  0  0
    1.0905    2.1953   -0.1295 C   0  0  1  0  0  0  0  0  0  0  0  0
    0.3478    1.8580    1.1783 C   0  0  0  0  0  0  0  0  0  0  0  0
   -1.1317    1.7120   -0.7122 C   0  0  0  0  0  0  0  0  0  0  0  0
    2.5149    1.6832   -0.1380 C   0  0  0  0  0  0  0  0  0  0  0  0
    0.4242    2.2674   -2.4847 C   0  0  0  0  0  0  0  0  0  0  0  0
   -3.7302   -0.3111    1.0905 C   0  0  0  0  0  0  0  0  0  0  0  0
    4.3049    0.6463   -0.1170 C   0  0  0  0  0  0  0  0  0  0  0  0
   -4.1010   -0.8052   -0.1571 C   0  0  0  0  0  0  0  0  0  0  0  0
   -4.5141    0.6243    1.7703 C   0  0  0  0  0  0  0  0  0  0  0  0
   -5.3022   -0.3340   -0.7272 C   0  0  0  0  0  0  0  0  0  0  0  0
    5.2265   -0.4512   -0.0569 C   0  0  0  0  0  0  0  0  0  0  0  0
   -5.6960    1.0840    1.2031 C   0  0  0  0  0  0  0  0  0  0  0  0
   -6.0910    0.6066   -0.0434 C   0  0  0  0  0  0  0  0  0  0  0  0
   -5.6759   -0.8308   -1.9831 C   0  0  0  0  0  0  0  0  0  0  0  0
   -3.7186   -2.1609   -1.9959 C   0  0  0  0  0  0  0  0  0  0  0  0
    4.7544   -1.7527    0.0721 C   0  0  0  0  0  0  0  0  0  0  0  0
    6.5954   -0.2180   -0.1275 C   0  0  0  0  0  0  0  0  0  0  0  0
   -4.8754   -1.7593   -2.6327 C   0  0  0  0  0  0  0  0  0  0  0  0
    5.6851   -2.7779    0.1256 C   0  0  0  0  0  0  0  0  0  0  0  0
    7.4438   -1.3117   -0.0652 C   0  0  0  0  0  0  0  0  0  0  0  0
   -1.7922    1.7674    1.3408 H   0  0  0  0  0  0  0  0  0  0  0  0
    1.1106    3.2907   -0.2242 H   0  0  0  0  0  0  0  0  0  0  0  0
    0.8948    1.1581    1.8209 H   0  0  0  0  0  0  0  0  0  0  0  0
    0.1965    2.7811    1.7520 H   0  0  0  0  0  0  0  0  0  0  0  0
   -1.8048    1.0656   -1.2846 H   0  0  0  0  0  0  0  0  0  0  0  0
   -1.4994    2.7446   -0.7726 H   0  0  0  0  0  0  0  0  0  0  0  0
   -0.5245   -0.7114    0.2130 H   0  0  0  0  0  0  0  0  0  0  0  0
    1.4553    2.1591   -2.8377 H   0  0  0  0  0  0  0  0  0  0  0  0
    0.1841    3.3360   -2.4472 H   0  0  0  0  0  0  0  0  0  0  0  0
   -0.2186    1.7982   -3.2377 H   0  0  0  0  0  0  0  0  0  0  0  0
   -4.2271    1.0153    2.7418 H   0  0  0  0  0  0  0  0  0  0  0  0
   -6.3079    1.8116    1.7276 H   0  0  0  0  0  0  0  0  0  0  0  0
   -7.0180    0.9732   -0.4787 H   0  0  0  0  0  0  0  0  0  0  0  0
   -6.5934   -0.4967   -2.4621 H   0  0  0  0  0  0  0  0  0  0  0  0
   -3.0532   -2.8843   -2.4554 H   0  0  0  0  0  0  0  0  0  0  0  0
    3.6971   -1.9894    0.1315 H   0  0  0  0  0  0  0  0  0  0  0  0
    7.0215    0.7748   -0.2284 H   0  0  0  0  0  0  0  0  0  0  0  0
   -5.1491   -2.1539   -3.6041 H   0  0  0  0  0  0  0  0  0  0  0  0
    5.3686   -3.8109    0.2259 H   0  0  0  0  0  0  0  0  0  0  0  0
    8.5201   -1.1839   -0.1161 H   0  0  0  0  0  0  0  0  0  0  0  0
  1  3  2  0  0  0  0
  1  4  2  0  0  0  0
  1  6  1  0  0  0  0
  1 17  1  0  0  0  0
  2  8  1  0  0  0  0
  2 15  1  0  0  0  0
  5 12  1  0  0  0  0
  5 14  1  0  0  0  0
  5 16  1  0  0  0  0
  6 11  1  0  0  0  0
  6 38  1  0  0  0  0
  7 15  2  0  0  0  0
  7 18  1  0  0  0  0
  8 18  2  0  0  0  0
  9 19  1  0  0  0  0
  9 26  2  0  0  0  0
 10 30  2  0  0  0  0
 10 31  1  0  0  0  0
 11 13  1  0  0  0  0
 11 14  1  0  0  0  0
 11 32  1  0  0  0  0
 12 13  1  0  0  0  0
 12 15  1  0  0  0  0
 12 33  1  0  0  0  0
 13 34  1  0  0  0  0
 13 35  1  0  0  0  0
 14 36  1  0  0  0  0
 14 37  1  0  0  0  0
 16 39  1  0  0  0  0
 16 40  1  0  0  0  0
 16 41  1  0  0  0  0
 17 19  1  0  0  0  0
 17 20  2  0  0  0  0
 18 22  1  0  0  0  0
 19 21  2  0  0  0  0
 20 23  1  0  0  0  0
 20 42  1  0  0  0  0
 21 24  1  0  0  0  0
 21 25  1  0  0  0  0
 22 27  2  0  0  0  0
 22 28  1  0  0  0  0
 23 24  2  0  0  0  0
 23 43  1  0  0  0  0
 24 44  1  0  0  0  0
 25 29  2  0  0  0  0
 25 45  1  0  0  0  0
 26 29  1  0  0  0  0
 26 46  1  0  0  0  0
 27 30  1  0  0  0  0
 27 47  1  0  0  0  0
 28 31  2  0  0  0  0
 28 48  1  0  0  0  0
 29 49  1  0  0  0  0
 30 50  1  0  0  0  0
 31 51  1  0  0  0  0
M  END
> <PUBCHEM_COMPOUND_CID>
25338464

> <PUBCHEM_CONFORMER_RMSD>
0.8

> <PUBCHEM_CONFORMER_DIVERSEORDER>
1
145
291
266
241
202
165
185
242
222
223
124
172
270
224
186
171
281
208
229
96
279
104
175
8
126
217
167
240
262
298
142
250
9
181
59
82
94
275
283
92
174
29
218
255
294
70
237
164
67
243
286
161
299
192
89
144
151
45
210
153
205
276
55
74
233
289
290
231
246
280
203
244
93
32
25
292
247
302
12
267
277
269
284
251
46
170
264
204
239
274
228
201
127
256
200
265
177
10
155
105
76
3
152
111
232
49
272
187
162
259
209
102
27
249
83
293
137
183
130
300
219
287
37
254
31
288
118
253
26
297
150
72
125
227
90
263
190
38
159
85
52
123
248
2
48
62
295
160
261
193
258
197
39
194
88
268
238
149
23
133
113
120
226
225
173
13
106
135
252
235
14
220
20
54
212
24
99
116
166
81
109
58
139
215
6
206
257
214
245
188
230
101
4
184
273
43
40
69
191
213
301
110
196
146
141
119
178
179
107
182
195
44
207
198
147
131
63
65
211
95
136
60
103
30
138
236
115
41
73
168
156
282
108
221
91
296
15
278
121
271
22
5
98
11
97
234
86
129
57
19
143
36
199
17
117
64
163
132
285
66
34
42
216
180
157
21
47
158
51
114
189
53
112
35
71
128
260
176
61
80
18
140
148
75
7
33
169
79
68
56
134
77
78
122
87
84
100
50
154
28
16

> <PUBCHEM_MMFF94_PARTIAL_CHARGES>
40
1 1.45
10 -0.62
11 0.36
12 0.45
14 0.27
15 0.3
16 0.27
17 -0.01
18 0.46
19 0.31
2 -0.02
20 -0.15
22 0.05
23 -0.15
24 -0.15
25 -0.15
26 0.16
27 -0.15
28 -0.15
29 -0.15
3 -0.65
30 0.16
31 0.16
38 0.42
4 -0.65
42 0.15
43 0.15
44 0.15
45 0.15
46 0.15
47 0.15
48 0.15
49 0.15
5 -0.81
50 0.15
51 0.15
6 -0.91
7 -0.57
8 -0.41
9 -0.62

> <PUBCHEM_EFFECTIVE_ROTOR_COUNT>
6

> <PUBCHEM_PHARMACOPHORE_FEATURES>
12
1 10 acceptor
1 3 acceptor
1 4 acceptor
1 5 cation
1 6 donor
1 9 acceptor
3 7 8 18 cation
5 2 7 8 15 18 rings
5 5 11 12 13 14 rings
6 10 22 27 28 30 31 rings
6 17 19 20 21 23 24 rings
6 9 19 21 25 26 29 rings

> <PUBCHEM_HEAVY_ATOM_COUNT>
31

> <PUBCHEM_ATOM_DEF_STEREO_COUNT>
2

> <PUBCHEM_ATOM_UDEF_STEREO_COUNT>
0

> <PUBCHEM_BOND_DEF_STEREO_COUNT>
0

> <PUBCHEM_BOND_UDEF_STEREO_COUNT>
0

> <PUBCHEM_ISOTOPIC_ATOM_COUNT>
0

> <PUBCHEM_COMPONENT_COUNT>
1

> <PUBCHEM_CACTVS_TAUTO_COUNT>
1

> <PUBCHEM_CONFORMER_ID>
0182A26000000001

> <PUBCHEM_MMFF94_ENERGY>
63.4666

> <PUBCHEM_FEATURE_SELFOVERLAP>
60.951

> <PUBCHEM_SHAPE_FINGERPRINT>
10 15 14189567534366195602
10165383 225 16225766286541340521
10622 236 17772452724000457911
11135609 201 9439107725285871230
12107183 9 18201727215097419145
12342043 65 17098364148407699945
12373685 5 17203044085212258333
12596602 18 17060336349271195202
12712778 12 16630239290512064223
12760667 363 18409732824787016864
13761468 95 18192426378104790869
14068700 675 17989200447705569048
14840074 17 18409729530231063894
14930077 153 14201695155730893766
15052358 14 17385718097653649029
15064986 266 17822584789840035836
15183329 4 17749102288028355729
15188451 53 17060333050134853557
15320294 125 17704067417511012271
15361156 5 17967823790004281396
16120349 21 18131351865212146174
17349148 13 16557921159426310193
17857418 61 18201720656629077616
17913733 40 12895359888822170052
18603816 31 18413102861901195343
19958102 18 17240757346586835610
20028762 73 18060699481832780022
20511986 3 18060128864649882961
21033650 10 14923946747372301476
21307412 95 17967818240553451290
21458453 9 13685717481546279106
21987440 362 17690008830248689621
23198884 109 12251906992517969656
23522609 53 18126594342924566896
23559900 14 18115029722551692952
23569943 247 18262513680884397443
32027 91 18260548944184158512
3459 83 18409166623474611619
3729539 64 17241034393241736107
4015057 19 18336266859180305449
4098825 35 14996578316918966838
437815 12 18260831479780940180
444769 64 18409732824976836569
46194498 28 16807863310582333053
5081480 168 16226330420898297709
5085150 59 16917065564571767367
513202 73 18261669273044002581
5265222 85 14924242550465108202
531348 171 18341891875433117621
559249 180 18131913763283590879
57816373 69 17917155992705809414
96874 4 18059845182145015438

> <PUBCHEM_SHAPE_MULTIPOLES>
594.32
18.59
2.92
2.17
20.44
0.39
-0.03
11.01
1.64
2.57
0.86
-4
0.3
-2.58

> <PUBCHEM_SHAPE_SELFOVERLAP>
1298.891

> <PUBCHEM_SHAPE_VOLUME>
325.4

> <PUBCHEM_COORDINATE_TYPE>
2
5
10

$$$$
