51136881
  -OEChem-12032416333D

 65 69  0     1  0  0  0  0  0999 V2000
   -3.2686   -3.7708    0.8786 O   0  0  0  0  0  0  0  0  0  0  0  0
    3.5902    1.1383   -1.0142 O   0  0  0  0  0  0  0  0  0  0  0  0
    9.8094    1.0277   -0.0005 O   0  0  0  0  0  0  0  0  0  0  0  0
   -5.4282   -1.0193   -0.2488 N   0  0  1  0  0  0  0  0  0  0  0  0
   -2.5740   -1.8821   -0.1050 N   0  0  0  0  0  0  0  0  0  0  0  0
   -1.8780   -3.7349    1.0425 N   0  0  0  0  0  0  0  0  0  0  0  0
    2.1501   -2.4876    0.8648 N   0  0  0  0  0  0  0  0  0  0  0  0
    3.7462   -0.8893    0.1640 N   0  0  0  0  0  0  0  0  0  0  0  0
   -5.0650   -2.4442   -0.1146 C   0  0  1  0  0  0  0  0  0  0  0  0
   -5.4845   -3.0824   -1.4518 C   0  0  0  0  0  0  0  0  0  0  0  0
   -6.5548   -0.9658   -1.1805 C   0  0  0  0  0  0  0  0  0  0  0  0
   -6.1274   -1.9545   -2.2464 C   0  0  0  0  0  0  0  0  0  0  0  0
   -5.7393   -0.3834    1.0249 C   0  0  0  0  0  0  0  0  0  0  0  0
   -3.5959   -2.6441    0.1931 C   0  0  0  0  0  0  0  0  0  0  0  0
   -5.6429    1.1360    0.8968 C   0  0  0  0  0  0  0  0  0  0  0  0
   -4.2286    1.5671    0.4999 C   0  0  0  0  0  0  0  0  0  0  0  0
   -4.1271    3.0618    0.3332 C   0  0  0  0  0  0  0  0  0  0  0  0
   -1.5422   -2.5922    0.4364 C   0  0  0  0  0  0  0  0  0  0  0  0
   -4.3742    3.6438   -0.9101 C   0  0  0  0  0  0  0  0  0  0  0  0
   -3.7864    3.8630    1.4230 C   0  0  0  0  0  0  0  0  0  0  0  0
   -0.1860   -2.1326    0.3531 C   0  0  0  0  0  0  0  0  0  0  0  0
   -4.2806    5.0270   -1.0639 C   0  0  0  0  0  0  0  0  0  0  0  0
   -3.6929    5.2463    1.2693 C   0  0  0  0  0  0  0  0  0  0  0  0
    0.1281   -0.9387   -0.2868 C   0  0  0  0  0  0  0  0  0  0  0  0
    0.8520   -2.8636    0.9077 C   0  0  0  0  0  0  0  0  0  0  0  0
   -3.9400    5.8282    0.0259 C   0  0  0  0  0  0  0  0  0  0  0  0
    1.4520   -0.5185   -0.3516 C   0  0  0  0  0  0  0  0  0  0  0  0
    2.4169   -1.3217    0.2345 C   0  0  0  0  0  0  0  0  0  0  0  0
    4.2395    0.2742   -0.4348 C   0  0  0  0  0  0  0  0  0  0  0  0
    5.7082    0.4728   -0.3192 C   0  0  0  0  0  0  0  0  0  0  0  0
    6.2419    1.7613   -0.3453 C   0  0  0  0  0  0  0  0  0  0  0  0
    6.5527   -0.6293   -0.1857 C   0  0  0  0  0  0  0  0  0  0  0  0
    7.6200    1.9478   -0.2382 C   0  0  0  0  0  0  0  0  0  0  0  0
    7.9309   -0.4429   -0.0787 C   0  0  0  0  0  0  0  0  0  0  0  0
    8.4645    0.8455   -0.1049 C   0  0  0  0  0  0  0  0  0  0  0  0
   10.6143   -0.1428    0.1333 C   0  0  0  0  0  0  0  0  0  0  0  0
   -5.6564   -2.9145    0.6838 H   0  0  0  0  0  0  0  0  0  0  0  0
   -4.6535   -3.5269   -2.0101 H   0  0  0  0  0  0  0  0  0  0  0  0
   -6.2253   -3.8700   -1.2675 H   0  0  0  0  0  0  0  0  0  0  0  0
   -7.4921   -1.2965   -0.7153 H   0  0  0  0  0  0  0  0  0  0  0  0
   -6.7016    0.0307   -1.6076 H   0  0  0  0  0  0  0  0  0  0  0  0
   -6.9661   -2.3038   -2.8559 H   0  0  0  0  0  0  0  0  0  0  0  0
   -5.3857   -1.4998   -2.9149 H   0  0  0  0  0  0  0  0  0  0  0  0
   -6.7310   -0.6725    1.3947 H   0  0  0  0  0  0  0  0  0  0  0  0
   -5.0197   -0.6972    1.7922 H   0  0  0  0  0  0  0  0  0  0  0  0
   -6.3783    1.5135    0.1759 H   0  0  0  0  0  0  0  0  0  0  0  0
   -5.9058    1.5866    1.8625 H   0  0  0  0  0  0  0  0  0  0  0  0
   -3.5059    1.2332    1.2558 H   0  0  0  0  0  0  0  0  0  0  0  0
   -3.9164    1.0932   -0.4389 H   0  0  0  0  0  0  0  0  0  0  0  0
   -4.6426    3.0301   -1.7659 H   0  0  0  0  0  0  0  0  0  0  0  0
   -3.5933    3.4214    2.3970 H   0  0  0  0  0  0  0  0  0  0  0  0
   -4.4735    5.4802   -2.0318 H   0  0  0  0  0  0  0  0  0  0  0  0
   -3.4282    5.8703    2.1179 H   0  0  0  0  0  0  0  0  0  0  0  0
   -0.6389   -0.3171   -0.7421 H   0  0  0  0  0  0  0  0  0  0  0  0
    0.6918   -3.8054    1.4242 H   0  0  0  0  0  0  0  0  0  0  0  0
   -3.8674    6.9052   -0.0936 H   0  0  0  0  0  0  0  0  0  0  0  0
    1.6150    0.4157   -0.8628 H   0  0  0  0  0  0  0  0  0  0  0  0
    4.3872   -1.5066    0.6530 H   0  0  0  0  0  0  0  0  0  0  0  0
    5.6012    2.6337   -0.4433 H   0  0  0  0  0  0  0  0  0  0  0  0
    6.1859   -1.6512   -0.1987 H   0  0  0  0  0  0  0  0  0  0  0  0
    8.0300    2.9538   -0.2581 H   0  0  0  0  0  0  0  0  0  0  0  0
    8.5300   -1.3424    0.0139 H   0  0  0  0  0  0  0  0  0  0  0  0
   10.3862   -0.6849    1.0572 H   0  0  0  0  0  0  0  0  0  0  0  0
   10.5431   -0.7833   -0.7524 H   0  0  0  0  0  0  0  0  0  0  0  0
   11.6557    0.1877    0.2056 H   0  0  0  0  0  0  0  0  0  0  0  0
  1  6  1  0  0  0  0
  1 14  1  0  0  0  0
  2 29  2  0  0  0  0
  3 35  1  0  0  0  0
  3 36  1  0  0  0  0
  4  9  1  0  0  0  0
  4 11  1  0  0  0  0
  4 13  1  0  0  0  0
  5 14  2  0  0  0  0
  5 18  1  0  0  0  0
  6 18  2  0  0  0  0
  7 25  1  0  0  0  0
  7 28  2  0  0  0  0
  8 28  1  0  0  0  0
  8 29  1  0  0  0  0
  8 58  1  0  0  0  0
  9 10  1  0  0  0  0
  9 14  1  0  0  0  0
  9 37  1  0  0  0  0
 10 12  1  0  0  0  0
 10 38  1  0  0  0  0
 10 39  1  0  0  0  0
 11 12  1  0  0  0  0
 11 40  1  0  0  0  0
 11 41  1  0  0  0  0
 12 42  1  0  0  0  0
 12 43  1  0  0  0  0
 13 15  1  0  0  0  0
 13 44  1  0  0  0  0
 13 45  1  0  0  0  0
 15 16  1  0  0  0  0
 15 46  1  0  0  0  0
 15 47  1  0  0  0  0
 16 17  1  0  0  0  0
 16 48  1  0  0  0  0
 16 49  1  0  0  0  0
 17 19  2  0  0  0  0
 17 20  1  0  0  0  0
 18 21  1  0  0  0  0
 19 22  1  0  0  0  0
 19 50  1  0  0  0  0
 20 23  2  0  0  0  0
 20 51  1  0  0  0  0
 21 24  1  0  0  0  0
 21 25  2  0  0  0  0
 22 26  2  0  0  0  0
 22 52  1  0  0  0  0
 23 26  1  0  0  0  0
 23 53  1  0  0  0  0
 24 27  2  0  0  0  0
 24 54  1  0  0  0  0
 25 55  1  0  0  0  0
 26 56  1  0  0  0  0
 27 28  1  0  0  0  0
 27 57  1  0  0  0  0
 29 30  1  0  0  0  0
 30 31  2  0  0  0  0
 30 32  1  0  0  0  0
 31 33  1  0  0  0  0
 31 59  1  0  0  0  0
 32 34  2  0  0  0  0
 32 60  1  0  0  0  0
 33 35  2  0  0  0  0
 33 61  1  0  0  0  0
 34 35  1  0  0  0  0
 34 62  1  0  0  0  0
 36 63  1  0  0  0  0
 36 64  1  0  0  0  0
 36 65  1  0  0  0  0
M  END
> <PUBCHEM_COMPOUND_CID>
51136881

> <PUBCHEM_CONFORMER_RMSD>
1.2

> <PUBCHEM_CONFORMER_DIVERSEORDER>
1
27
11
29
50
57
55
51
40
39
58
30
49
48
19
14
15
45
12
33
38
8
37
21
46
24
43
36
35
41
23
3
56
4
20
6
28
22
5
32
26
16
18
52
9
53
42
47
34
2
17
54
25
44
7
10
13
31

> <PUBCHEM_MMFF94_PARTIAL_CHARGES>
46
1 -0.02
11 0.27
13 0.27
14 0.3
16 0.14
17 -0.14
18 0.46
19 -0.15
2 -0.57
20 -0.15
21 0.05
22 -0.15
23 -0.15
24 -0.15
25 0.16
26 -0.15
27 -0.15
28 0.43
29 0.54
3 -0.36
30 0.09
31 -0.15
32 -0.15
33 -0.15
34 -0.15
35 0.08
36 0.28
4 -0.81
5 -0.57
50 0.15
51 0.15
52 0.15
53 0.15
54 0.15
55 0.15
56 0.15
57 0.15
58 0.37
59 0.15
6 -0.41
60 0.15
61 0.15
62 0.15
7 -0.62
8 -0.55
9 0.45

> <PUBCHEM_EFFECTIVE_ROTOR_COUNT>
11

> <PUBCHEM_PHARMACOPHORE_FEATURES>
10
1 2 acceptor
1 3 acceptor
1 4 cation
1 8 donor
3 5 6 18 cation
5 1 5 6 14 18 rings
5 4 9 10 11 12 rings
6 17 19 20 22 23 26 rings
6 30 31 32 33 34 35 rings
6 7 21 24 25 27 28 rings

> <PUBCHEM_HEAVY_ATOM_COUNT>
36

> <PUBCHEM_ATOM_DEF_STEREO_COUNT>
1

> <PUBCHEM_ATOM_UDEF_STEREO_COUNT>
0

> <PUBCHEM_BOND_DEF_STEREO_COUNT>
0

> <PUBCHEM_BOND_UDEF_STEREO_COUNT>
0

> <PUBCHEM_ISOTOPIC_ATOM_COUNT>
0

> <PUBCHEM_COMPONENT_COUNT>
1

> <PUBCHEM_CACTVS_TAUTO_COUNT>
14

> <PUBCHEM_CONFORMER_ID>
030C497100000001

> <PUBCHEM_MMFF94_ENERGY>
95.426

> <PUBCHEM_FEATURE_SELFOVERLAP>
50.748

> <PUBCHEM_SHAPE_FINGERPRINT>
10050765 1 18338798893258129662
100830 39 18410294713714944728
10580692 12 18409731768710839346
10670039 82 18412259562647692387
10951579 204 18267044794699656572
10985338 8 18198050396453469834
11136131 41 17897725362710622970
11408170 253 18338812198977388688
11477941 20 18201709704937383031
11761917 142 18412258411707902856
12104220 1 18409165541359085863
12106331 60 18334010635908566569
12539745 222 16443920491160565907
13885169 127 18411139156468459078
14202776 33 18201995521856998175
14294032 229 18187083915365789420
14394314 77 18411142434008651529
15064981 113 17844793820630271143
15183329 4 18041552633464526338
15264996 163 18408315593792354669
15289351 153 18409441502236501114
15328684 2 18188195521510351128
15448158 71 18051694348546225491
155225 5 18410858720446813217
15604295 49 18129376176747691080
16728433 281 18339378366172356596
18603816 31 12685098137570310577
20771845 165 18130520660329462991
21772524 286 18409736141082946844
21792965 96 17968385538406123164
23516275 100 17910936256743584641
23522609 53 17532113699617799132
3388396 114 18339624708448117183
4169191 19 18260542338208842082
437795 83 18412257329154065349
44802255 64 17632577166930701159
4487111 67 18338517426855412777
563151 97 18336262362423672171
57591035 28 18264183917669859893
6036956 94 18335423410146954293
6201320 215 18343021064868106376
6371009 1 18260830435745159069
6475588 51 18340201998437808088
6608658 132 18342167904470593927

> <PUBCHEM_SHAPE_MULTIPOLES>
698.35
27.37
7
1.22
76.02
9.65
-0.25
9.37
-4.33
-18.22
0.86
-2.32
-0.09
-2.3

> <PUBCHEM_SHAPE_SELFOVERLAP>
1513.777

> <PUBCHEM_SHAPE_VOLUME>
381.9

> <PUBCHEM_COORDINATE_TYPE>
2
5
10

$$$$
