25389825
  -OEChem-12032416163D

 64 69  0     1  0  0  0  0  0999 V2000
    4.8386   -4.5592    0.3732 O   0  0  0  0  0  0  0  0  0  0  0  0
   -1.9096    3.1190    1.7278 O   0  0  0  0  0  0  0  0  0  0  0  0
   -0.3919    1.5220    2.4227 O   0  0  0  0  0  0  0  0  0  0  0  0
    0.1216    0.7334   -0.1463 N   0  0  2  0  0  0  0  0  0  0  0  0
    2.9561   -2.4705   -0.0686 N   0  0  0  0  0  0  0  0  0  0  0  0
   -2.3808   -2.0467    0.1955 N   0  0  0  0  0  0  0  0  0  0  0  0
   -0.3040   -0.5712    0.4485 C   0  0  2  0  0  0  0  0  0  0  0  0
    2.0722   -1.4033    0.3954 C   0  0  2  0  0  0  0  0  0  0  0  0
    1.5198    1.0785    0.2154 C   0  0  1  0  0  0  0  0  0  0  0  0
    0.6286   -1.7052   -0.0054 C   0  0  0  0  0  0  0  0  0  0  0  0
    2.4942   -0.0551   -0.1864 C   0  0  0  0  0  0  0  0  0  0  0  0
   -0.8682    1.8225    0.0781 C   0  0  1  0  0  0  0  0  0  0  0  0
   -1.7316   -0.8490    0.0837 C   0  0  0  0  0  0  0  0  0  0  0  0
   -2.2473    1.5125   -0.5580 C   0  0  0  0  0  0  0  0  0  0  0  0
   -2.6376    0.0900   -0.3587 C   0  0  0  0  0  0  0  0  0  0  0  0
    2.0273    2.3708   -0.4195 C   0  0  0  0  0  0  0  0  0  0  0  0
   -3.8816   -0.5672   -0.5594 C   0  0  0  0  0  0  0  0  0  0  0  0
    2.5486   -3.7663    0.4920 C   0  0  0  0  0  0  0  0  0  0  0  0
    4.3523   -2.1840    0.2890 C   0  0  0  0  0  0  0  0  0  0  0  0
   -1.0073    2.1131    1.5458 C   0  0  0  0  0  0  0  0  0  0  0  0
   -3.6928   -1.9068   -0.2052 C   0  0  0  0  0  0  0  0  0  0  0  0
    3.4925   -4.8618    0.0043 C   0  0  0  0  0  0  0  0  0  0  0  0
    5.2534   -3.3164   -0.1950 C   0  0  0  0  0  0  0  0  0  0  0  0
    2.9237    3.1834    0.2746 C   0  0  0  0  0  0  0  0  0  0  0  0
    1.5947    2.7390   -1.6934 C   0  0  0  0  0  0  0  0  0  0  0  0
   -5.1548   -0.1571   -1.0034 C   0  0  0  0  0  0  0  0  0  0  0  0
   -4.7182   -2.8567   -0.2754 C   0  0  0  0  0  0  0  0  0  0  0  0
    3.3876    4.3643   -0.3054 C   0  0  0  0  0  0  0  0  0  0  0  0
    2.0584    3.9197   -2.2733 C   0  0  0  0  0  0  0  0  0  0  0  0
   -6.1881   -1.0977   -1.0800 C   0  0  0  0  0  0  0  0  0  0  0  0
   -5.9709   -2.4263   -0.7212 C   0  0  0  0  0  0  0  0  0  0  0  0
    2.9549    4.7325   -1.5792 C   0  0  0  0  0  0  0  0  0  0  0  0
   -2.1398    3.4998    3.0879 C   0  0  0  0  0  0  0  0  0  0  0  0
   -0.2518   -0.5458    1.5426 H   0  0  0  0  0  0  0  0  0  0  0  0
    2.1199   -1.3329    1.4922 H   0  0  0  0  0  0  0  0  0  0  0  0
    1.6008    1.1914    1.3027 H   0  0  0  0  0  0  0  0  0  0  0  0
    0.2681   -2.6193    0.4759 H   0  0  0  0  0  0  0  0  0  0  0  0
    0.5477   -1.8559   -1.0912 H   0  0  0  0  0  0  0  0  0  0  0  0
    2.5615   -0.1229   -1.2818 H   0  0  0  0  0  0  0  0  0  0  0  0
    3.4850    0.2405    0.1770 H   0  0  0  0  0  0  0  0  0  0  0  0
   -0.5375    2.7619   -0.3735 H   0  0  0  0  0  0  0  0  0  0  0  0
   -2.1788    1.6894   -1.6397 H   0  0  0  0  0  0  0  0  0  0  0  0
   -3.0374    2.1689   -0.1778 H   0  0  0  0  0  0  0  0  0  0  0  0
   -1.9695   -2.9107    0.5204 H   0  0  0  0  0  0  0  0  0  0  0  0
    2.5580   -3.7338    1.5890 H   0  0  0  0  0  0  0  0  0  0  0  0
    1.5548   -4.0744    0.1583 H   0  0  0  0  0  0  0  0  0  0  0  0
    4.7298   -1.2811   -0.1982 H   0  0  0  0  0  0  0  0  0  0  0  0
    4.4574   -2.0681    1.3753 H   0  0  0  0  0  0  0  0  0  0  0  0
    3.2280   -5.8171    0.4690 H   0  0  0  0  0  0  0  0  0  0  0  0
    3.4325   -4.9944   -1.0830 H   0  0  0  0  0  0  0  0  0  0  0  0
    5.2526   -3.3961   -1.2891 H   0  0  0  0  0  0  0  0  0  0  0  0
    6.2852   -3.1344    0.1227 H   0  0  0  0  0  0  0  0  0  0  0  0
    3.2697    2.9075    1.2671 H   0  0  0  0  0  0  0  0  0  0  0  0
    0.9181    2.1132   -2.2692 H   0  0  0  0  0  0  0  0  0  0  0  0
   -5.3395    0.8755   -1.2855 H   0  0  0  0  0  0  0  0  0  0  0  0
   -4.5511   -3.8912    0.0052 H   0  0  0  0  0  0  0  0  0  0  0  0
    4.0861    4.9967    0.2348 H   0  0  0  0  0  0  0  0  0  0  0  0
    1.7265    4.2035   -3.2677 H   0  0  0  0  0  0  0  0  0  0  0  0
   -7.1713   -0.7863   -1.4229 H   0  0  0  0  0  0  0  0  0  0  0  0
   -6.7880   -3.1401   -0.7877 H   0  0  0  0  0  0  0  0  0  0  0  0
    3.3172    5.6510   -2.0315 H   0  0  0  0  0  0  0  0  0  0  0  0
   -2.8760    4.3079    3.0948 H   0  0  0  0  0  0  0  0  0  0  0  0
   -1.2130    3.8645    3.5409 H   0  0  0  0  0  0  0  0  0  0  0  0
   -2.5410    2.6542    3.6547 H   0  0  0  0  0  0  0  0  0  0  0  0
  1 22  1  0  0  0  0
  1 23  1  0  0  0  0
  2 20  1  0  0  0  0
  2 33  1  0  0  0  0
  3 20  2  0  0  0  0
  4  7  1  0  0  0  0
  4  9  1  0  0  0  0
  4 12  1  0  0  0  0
  5  8  1  0  0  0  0
  5 18  1  0  0  0  0
  5 19  1  0  0  0  0
  6 13  1  0  0  0  0
  6 21  1  0  0  0  0
  6 44  1  0  0  0  0
  7 10  1  0  0  0  0
  7 13  1  0  0  0  0
  7 34  1  0  0  0  0
  8 10  1  0  0  0  0
  8 11  1  0  0  0  0
  8 35  1  0  0  0  0
  9 11  1  0  0  0  0
  9 16  1  0  0  0  0
  9 36  1  0  0  0  0
 10 37  1  0  0  0  0
 10 38  1  0  0  0  0
 11 39  1  0  0  0  0
 11 40  1  0  0  0  0
 12 14  1  0  0  0  0
 12 20  1  0  0  0  0
 12 41  1  0  0  0  0
 13 15  2  0  0  0  0
 14 15  1  0  0  0  0
 14 42  1  0  0  0  0
 14 43  1  0  0  0  0
 15 17  1  0  0  0  0
 16 24  2  0  0  0  0
 16 25  1  0  0  0  0
 17 21  1  0  0  0  0
 17 26  2  0  0  0  0
 18 22  1  0  0  0  0
 18 45  1  0  0  0  0
 18 46  1  0  0  0  0
 19 23  1  0  0  0  0
 19 47  1  0  0  0  0
 19 48  1  0  0  0  0
 21 27  2  0  0  0  0
 22 49  1  0  0  0  0
 22 50  1  0  0  0  0
 23 51  1  0  0  0  0
 23 52  1  0  0  0  0
 24 28  1  0  0  0  0
 24 53  1  0  0  0  0
 25 29  2  0  0  0  0
 25 54  1  0  0  0  0
 26 30  1  0  0  0  0
 26 55  1  0  0  0  0
 27 31  1  0  0  0  0
 27 56  1  0  0  0  0
 28 32  2  0  0  0  0
 28 57  1  0  0  0  0
 29 32  1  0  0  0  0
 29 58  1  0  0  0  0
 30 31  2  0  0  0  0
 30 59  1  0  0  0  0
 31 60  1  0  0  0  0
 32 61  1  0  0  0  0
 33 62  1  0  0  0  0
 33 63  1  0  0  0  0
 33 64  1  0  0  0  0
M  END
> <PUBCHEM_COMPOUND_CID>
25389825

> <PUBCHEM_CONFORMER_RMSD>
0.8

> <PUBCHEM_CONFORMER_DIVERSEORDER>
1
7
9
8
3
6
10
2
5
4

> <PUBCHEM_MMFF94_PARTIAL_CHARGES>
40
1 -0.56
12 0.33
13 -0.33
14 0.18
15 -0.18
16 -0.14
18 0.27
19 0.27
2 -0.43
20 0.66
21 -0.15
22 0.28
23 0.28
24 -0.15
25 -0.15
26 -0.15
27 -0.15
28 -0.15
29 -0.15
3 -0.57
30 -0.15
31 -0.15
32 -0.15
33 0.28
4 -0.81
44 0.27
5 -0.81
53 0.15
54 0.15
55 0.15
56 0.15
57 0.15
58 0.15
59 0.15
6 0.03
60 0.15
61 0.15
7 0.45
8 0.27
9 0.41

> <PUBCHEM_EFFECTIVE_ROTOR_COUNT>
6.4

> <PUBCHEM_PHARMACOPHORE_FEATURES>
12
1 1 acceptor
1 3 acceptor
1 4 cation
1 5 cation
1 6 cation
1 6 donor
5 6 13 15 17 21 rings
6 1 5 18 19 22 23 rings
6 16 24 25 28 29 32 rings
6 17 21 26 27 30 31 rings
6 4 7 12 13 14 15 rings
6 4 7 8 9 10 11 rings

> <PUBCHEM_HEAVY_ATOM_COUNT>
33

> <PUBCHEM_ATOM_DEF_STEREO_COUNT>
4

> <PUBCHEM_ATOM_UDEF_STEREO_COUNT>
0

> <PUBCHEM_BOND_DEF_STEREO_COUNT>
0

> <PUBCHEM_BOND_UDEF_STEREO_COUNT>
0

> <PUBCHEM_ISOTOPIC_ATOM_COUNT>
0

> <PUBCHEM_COMPONENT_COUNT>
1

> <PUBCHEM_CACTVS_TAUTO_COUNT>
1

> <PUBCHEM_CONFORMER_ID>
01836B0100000001

> <PUBCHEM_MMFF94_ENERGY>
84.1619

> <PUBCHEM_FEATURE_SELFOVERLAP>
61.092

> <PUBCHEM_SHAPE_FINGERPRINT>
10010297 198 17977426907518733889
10290309 65 17614580554376052364
10319688 45 17977096860815062930
10411042 1 18265046942932315518
10554248 39 18264751295296199863
10721379 63 18337402620315644324
10940486 97 18124605179938389293
10985338 8 17462538900771110109
1100329 8 18198342849930448377
11045515 52 18117839893798661742
11069576 57 18340757256030527583
11093857 51 17758946413780903829
11315621 246 17837220273196112750
11719270 70 18121207938348584772
12058002 1 17557144995861376109
12107183 9 18197503926974436577
12293681 160 17767983277805500376
12788726 201 18059864939110127291
13009979 54 18272371919370880265
131258 43 18131079212699674102
133893 2 18116455741814366492
13540713 5 18272664445726023345
13757389 114 17623029897234421684
138480 1 18408319969646487238
13911987 19 17760100900615937293
14028597 1 17843425087186989689
140371 6 18411422799749890562
14068700 675 18342731875750570402
14114211 68 17973741442999628493
14400156 413 18337378462154019077
14790565 3 17687464985020512245
14866123 147 17912081656228231067
15420108 30 17117763545116165553
15439362 3 18262516008634735077
15775530 1 17606702458456936226
15878777 1 14220640690375672232
15927050 60 17979634859948633374
15968369 26 17977639220732268739
16090146 7 17688057583118100532
17686467 74 18268414760698168762
18365409 1 17556295065284544433
18681886 176 17683516613033145492
19319366 153 18053380182432118773
20600515 1 17769380426730091620
2132832 1 18342736278128537049
21927370 108 18191882123183549570
23559900 14 18336535071540605255
24771750 20 17970921174563582734
255183 313 17549270228794211673
3380486 145 17974017145820114464
394222 165 17535173764156602016
4280585 95 18190729848161824210
46194498 28 18041548248112714847
5080951 261 17192314896088120110
57527295 17 17986947656593084773
6669772 16 18123477343712914260
6695519 79 17690862467455514227
70251023 43 18408604751616459083
9981440 41 17829329438239172642

> <PUBCHEM_SHAPE_MULTIPOLES>
646.57
10.85
7.39
1.67
12.45
1.98
0.94
9.09
-3.93
-13
-0.02
0.49
-2.82
-3.33

> <PUBCHEM_SHAPE_SELFOVERLAP>
1422.593

> <PUBCHEM_SHAPE_VOLUME>
345.2

> <PUBCHEM_COORDINATE_TYPE>
2
5
10

$$$$
