40779311
  -OEChem-12032416253D

 67 71  0     1  0  0  0  0  0999 V2000
    1.6868   -0.3360    1.5307 O   0  0  0  0  0  0  0  0  0  0  0  0
    1.9607    0.8416   -2.7270 O   0  0  0  0  0  0  0  0  0  0  0  0
    4.1724    1.2458   -2.3721 O   0  0  0  0  0  0  0  0  0  0  0  0
   -1.7827   -3.6080    1.0949 O   0  0  0  0  0  0  0  0  0  0  0  0
   -1.6373    3.4903    1.5078 N   0  0  2  0  0  0  0  0  0  0  0  0
    1.8086    1.9863    1.4866 N   0  0  0  0  0  0  0  0  0  0  0  0
   -3.9223   -0.1576   -1.0595 N   0  0  0  0  0  0  0  0  0  0  0  0
   -3.9105   -1.5010   -1.0946 N   0  0  0  0  0  0  0  0  0  0  0  0
   -1.9116    2.5276   -0.8976 C   0  0  2  0  0  0  0  0  0  0  0  0
   -2.9204    1.8718    0.0815 C   0  0  2  0  0  0  0  0  0  0  0  0
   -0.3149    3.0689    0.9720 C   0  0  2  0  0  0  0  0  0  0  0  0
   -0.4773    2.3225   -0.3708 C   0  0  0  0  0  0  0  0  0  0  0  0
   -2.1904    4.0443   -0.8657 C   0  0  0  0  0  0  0  0  0  0  0  0
   -2.5768    2.3387    1.5204 C   0  0  0  0  0  0  0  0  0  0  0  0
   -2.1838    4.5270    0.5970 C   0  0  0  0  0  0  0  0  0  0  0  0
    0.4969    2.2617    1.9862 C   0  0  0  0  0  0  0  0  0  0  0  0
   -3.0728    0.3770   -0.1358 C   0  0  0  0  0  0  0  0  0  0  0  0
    4.0433   -0.5305   -0.0937 C   0  0  0  0  0  0  0  0  0  0  0  0
    5.4946   -0.4725   -0.6220 C   0  0  0  0  0  0  0  0  0  0  0  0
    3.9798   -1.8079    0.7778 C   0  0  0  0  0  0  0  0  0  0  0  0
    3.7248    0.7095    0.7536 C   0  0  0  0  0  0  0  0  0  0  0  0
    6.2814   -1.4181    0.2739 C   0  0  0  0  0  0  0  0  0  0  0  0
    5.2936   -2.5401    0.5329 C   0  0  0  0  0  0  0  0  0  0  0  0
    3.0496   -0.6099   -1.2591 C   0  0  0  0  0  0  0  0  0  0  0  0
   -2.4634   -0.6910    0.4762 C   0  0  0  0  0  0  0  0  0  0  0  0
    2.3073    0.6973    1.2955 C   0  0  0  0  0  0  0  0  0  0  0  0
   -3.0175   -1.8211   -0.1544 C   0  0  0  0  0  0  0  0  0  0  0  0
   -4.7907    0.5637   -1.9607 C   0  0  0  0  0  0  0  0  0  0  0  0
    3.1671    0.5848   -2.1593 C   0  0  0  0  0  0  0  0  0  0  0  0
   -2.6822   -3.2235    0.1516 C   0  0  0  0  0  0  0  0  0  0  0  0
   -3.2294   -4.3215   -0.4704 C   0  0  0  0  0  0  0  0  0  0  0  0
   -2.6277   -5.4535    0.1293 C   0  0  0  0  0  0  0  0  0  0  0  0
   -1.7553   -4.9665    1.0750 C   0  0  0  0  0  0  0  0  0  0  0  0
   -2.0057    2.1389   -1.9169 H   0  0  0  0  0  0  0  0  0  0  0  0
   -3.9078    2.3063   -0.1377 H   0  0  0  0  0  0  0  0  0  0  0  0
    0.2683    3.9818    0.7775 H   0  0  0  0  0  0  0  0  0  0  0  0
   -0.2749    1.2504   -0.2705 H   0  0  0  0  0  0  0  0  0  0  0  0
    0.2432    2.7181   -1.0975 H   0  0  0  0  0  0  0  0  0  0  0  0
   -3.1602    4.2656   -1.3265 H   0  0  0  0  0  0  0  0  0  0  0  0
   -1.4263    4.5777   -1.4441 H   0  0  0  0  0  0  0  0  0  0  0  0
   -3.5016    2.6409    2.0300 H   0  0  0  0  0  0  0  0  0  0  0  0
   -2.1756    1.5294    2.1378 H   0  0  0  0  0  0  0  0  0  0  0  0
   -1.5939    5.4481    0.6820 H   0  0  0  0  0  0  0  0  0  0  0  0
   -3.1994    4.7992    0.9116 H   0  0  0  0  0  0  0  0  0  0  0  0
    0.0011    1.3231    2.2515 H   0  0  0  0  0  0  0  0  0  0  0  0
    0.6248    2.8385    2.9093 H   0  0  0  0  0  0  0  0  0  0  0  0
    5.9305    0.5318   -0.6001 H   0  0  0  0  0  0  0  0  0  0  0  0
    5.5637   -0.8463   -1.6515 H   0  0  0  0  0  0  0  0  0  0  0  0
    3.1262   -2.4525    0.5422 H   0  0  0  0  0  0  0  0  0  0  0  0
    3.9244   -1.5668    1.8466 H   0  0  0  0  0  0  0  0  0  0  0  0
    3.8917    1.6312    0.1845 H   0  0  0  0  0  0  0  0  0  0  0  0
    4.3969    0.7631    1.6202 H   0  0  0  0  0  0  0  0  0  0  0  0
    6.5503   -0.9199    1.2128 H   0  0  0  0  0  0  0  0  0  0  0  0
    7.1998   -1.7733   -0.2023 H   0  0  0  0  0  0  0  0  0  0  0  0
    5.2077   -3.1827   -0.3514 H   0  0  0  0  0  0  0  0  0  0  0  0
    5.5849   -3.1651    1.3819 H   0  0  0  0  0  0  0  0  0  0  0  0
    2.4170    2.7798    1.3073 H   0  0  0  0  0  0  0  0  0  0  0  0
    3.2487   -1.4972   -1.8735 H   0  0  0  0  0  0  0  0  0  0  0  0
    2.0170   -0.7017   -0.9069 H   0  0  0  0  0  0  0  0  0  0  0  0
   -1.7209   -0.6570    1.2608 H   0  0  0  0  0  0  0  0  0  0  0  0
   -4.2020    1.3030   -2.5077 H   0  0  0  0  0  0  0  0  0  0  0  0
   -5.2412   -0.1366   -2.6695 H   0  0  0  0  0  0  0  0  0  0  0  0
   -5.5741    1.0461   -1.3712 H   0  0  0  0  0  0  0  0  0  0  0  0
    1.9948    1.6205   -3.3223 H   0  0  0  0  0  0  0  0  0  0  0  0
   -3.9699   -4.3253   -1.2585 H   0  0  0  0  0  0  0  0  0  0  0  0
   -2.8070   -6.4940   -0.0992 H   0  0  0  0  0  0  0  0  0  0  0  0
   -1.0790   -5.4306    1.7777 H   0  0  0  0  0  0  0  0  0  0  0  0
  1 26  2  0  0  0  0
  2 29  1  0  0  0  0
  2 64  1  0  0  0  0
  3 29  2  0  0  0  0
  4 30  1  0  0  0  0
  4 33  1  0  0  0  0
  5 11  1  0  0  0  0
  5 14  1  0  0  0  0
  5 15  1  0  0  0  0
  6 16  1  0  0  0  0
  6 26  1  0  0  0  0
  6 57  1  0  0  0  0
  7  8  1  0  0  0  0
  7 17  1  0  0  0  0
  7 28  1  0  0  0  0
  8 27  2  0  0  0  0
  9 10  1  0  0  0  0
  9 12  1  0  0  0  0
  9 13  1  0  0  0  0
  9 34  1  0  0  0  0
 10 14  1  0  0  0  0
 10 17  1  0  0  0  0
 10 35  1  0  0  0  0
 11 12  1  0  0  0  0
 11 16  1  0  0  0  0
 11 36  1  0  0  0  0
 12 37  1  0  0  0  0
 12 38  1  0  0  0  0
 13 15  1  0  0  0  0
 13 39  1  0  0  0  0
 13 40  1  0  0  0  0
 14 41  1  0  0  0  0
 14 42  1  0  0  0  0
 15 43  1  0  0  0  0
 15 44  1  0  0  0  0
 16 45  1  0  0  0  0
 16 46  1  0  0  0  0
 17 25  2  0  0  0  0
 18 19  1  0  0  0  0
 18 20  1  0  0  0  0
 18 21  1  0  0  0  0
 18 24  1  0  0  0  0
 19 22  1  0  0  0  0
 19 47  1  0  0  0  0
 19 48  1  0  0  0  0
 20 23  1  0  0  0  0
 20 49  1  0  0  0  0
 20 50  1  0  0  0  0
 21 26  1  0  0  0  0
 21 51  1  0  0  0  0
 21 52  1  0  0  0  0
 22 23  1  0  0  0  0
 22 53  1  0  0  0  0
 22 54  1  0  0  0  0
 23 55  1  0  0  0  0
 23 56  1  0  0  0  0
 24 29  1  0  0  0  0
 24 58  1  0  0  0  0
 24 59  1  0  0  0  0
 25 27  1  0  0  0  0
 25 60  1  0  0  0  0
 27 30  1  0  0  0  0
 28 61  1  0  0  0  0
 28 62  1  0  0  0  0
 28 63  1  0  0  0  0
 30 31  2  0  0  0  0
 31 32  1  0  0  0  0
 31 65  1  0  0  0  0
 32 33  2  0  0  0  0
 32 66  1  0  0  0  0
 33 67  1  0  0  0  0
M  END
> <PUBCHEM_COMPOUND_CID>
40779311

> <PUBCHEM_CONFORMER_RMSD>
1

> <PUBCHEM_CONFORMER_DIVERSEORDER>
1
18
202
74
39
58
131
193
114
64
94
113
133
98
118
177
203
199
108
158
186
200
87
168
115
107
209
84
4
63
128
76
99
104
110
185
147
140
61
214
188
196
9
69
173
49
20
165
154
56
60
41
66
15
85
19
27
43
52
44
121
93
137
171
91
57
101
141
40
146
79
77
139
5
21
191
22
42
96
34
45
153
201
55
12
160
75
14
8
73
32
189
47
103
17
102
16
183
38
197
130
187
13
88
163
198
181
170
127
215
169
122
192
136
164
152
95
190
210
194
148
157
124
175
178
151
150
159
166
144
182
109
81
111
37
174
212
25
161
54
106
149
126
129
138
89
10
207
112
67
68
184
36
216
156
29
71
80
195
180
83
72
82
123
46
78
117
217
24
206
155
11
213
28
218
90
145
50
205
176
134
33
143
208
86
26
97
48
100
53
142
167
62
132
211
105
35
125
7
65
30
3
116
120
172
204
59
179
51
119
92
6
2
31
135
70
162
23

> <PUBCHEM_MMFF94_PARTIAL_CHARGES>
31
1 -0.57
10 0.18
11 0.27
14 0.27
15 0.27
16 0.3
17 -0.33
2 -0.65
21 0.06
24 0.06
25 -0.15
26 0.57
27 0.29
28 0.26
29 0.66
3 -0.57
30 0.14
31 -0.15
32 -0.15
33 -0.01
4 -0.28
5 -0.81
57 0.37
6 -0.73
60 0.15
64 0.5
65 0.15
66 0.15
67 0.15
7 0.31
8 -0.71

> <PUBCHEM_EFFECTIVE_ROTOR_COUNT>
11.2

> <PUBCHEM_PHARMACOPHORE_FEATURES>
12
1 1 acceptor
1 2 acceptor
1 3 acceptor
1 4 acceptor
1 5 cation
1 6 donor
1 8 acceptor
3 2 3 29 anion
5 18 19 20 22 23 rings
5 4 30 31 32 33 rings
5 7 8 17 25 27 rings
8 5 9 10 11 12 13 14 15 rings

> <PUBCHEM_HEAVY_ATOM_COUNT>
33

> <PUBCHEM_ATOM_DEF_STEREO_COUNT>
3

> <PUBCHEM_ATOM_UDEF_STEREO_COUNT>
0

> <PUBCHEM_BOND_DEF_STEREO_COUNT>
0

> <PUBCHEM_BOND_UDEF_STEREO_COUNT>
0

> <PUBCHEM_ISOTOPIC_ATOM_COUNT>
0

> <PUBCHEM_COMPONENT_COUNT>
1

> <PUBCHEM_CACTVS_TAUTO_COUNT>
2

> <PUBCHEM_CONFORMER_ID>
026E3E2F00000001

> <PUBCHEM_MMFF94_ENERGY>
66.5529

> <PUBCHEM_FEATURE_SELFOVERLAP>
60.955

> <PUBCHEM_SHAPE_FINGERPRINT>
10653451 467 17117485914346694304
114674 6 16898225728913387055
12156800 1 14141157514035916405
12202916 173 17987215807684724207
12712778 12 18267565954378622810
13726171 33 17845114947030082960
14020679 6 17487909899458362273
14114207 22 17181082233114925263
14251757 5 18410291393689407466
14659021 117 18339910576479669338
14725015 67 18270664378071465225
15399243 27 18060135440272266470
15927050 60 17767394687751675501
15968369 26 17253414108186242051
17627616 140 17762613989260255299
19309040 13 16665200384125683044
19319366 153 17837776625620239745
19611394 137 18129924738602245794
19958102 18 18192990427110241286
20764821 26 18338234997773418162
20775438 99 17477719879569704791
20775530 9 18053395575890721935
21781051 124 17895190074271661023
22440779 20 15550280213804813052
3027735 51 18197768913323693185
4394409 98 18116699721678883597
463206 1 18410013264339181138
474144 1 17608345979232572995
49967989 163 18340502084431030686
508706 21 18200041642154829606
5265222 85 18265329512904250977
5309563 4 17838056266397917083
613672 6 18052230063442336979
6823239 73 18051408766789722643

> <PUBCHEM_SHAPE_MULTIPOLES>
635.72
10.95
7.02
1.94
15.19
6.68
0.78
5.2
2.97
-10.04
-2.2
0.76
-1.15
-0.66

> <PUBCHEM_SHAPE_SELFOVERLAP>
1367.407

> <PUBCHEM_SHAPE_VOLUME>
348

> <PUBCHEM_COORDINATE_TYPE>
2
5
10

$$$$
