11867064
  -OEChem-12032416123D

 74 77  0     1  0  0  0  0  0999 V2000
   -0.0823    2.8399   -0.4935 S   0  0  0  0  0  0  0  0  0  0  0  0
   -7.0058   -0.8079   -1.1142 O   0  0  0  0  0  0  0  0  0  0  0  0
   -7.1191    1.5583   -0.7497 O   0  0  0  0  0  0  0  0  0  0  0  0
    1.2540   -1.1946    2.8174 O   0  0  0  0  0  0  0  0  0  0  0  0
    3.4772    0.5169    1.4269 O   0  0  0  0  0  0  0  0  0  0  0  0
    5.8279    1.7840    1.2987 O   0  0  0  0  0  0  0  0  0  0  0  0
    4.5952   -0.3147   -3.1554 O   0  0  0  0  0  0  0  0  0  0  0  0
    0.5941    0.6622    0.7284 N   0  0  0  0  0  0  0  0  0  0  0  0
    0.5393   -2.6137    1.1213 N   0  0  0  0  0  0  0  0  0  0  0  0
    2.3444    2.2680    0.3190 N   0  0  0  0  0  0  0  0  0  0  0  0
   -3.1424   -0.2838    0.8371 C   0  0  2  0  0  0  0  0  0  0  0  0
   -3.4560    0.4791   -0.5249 C   0  0  1  0  0  0  0  0  0  0  0  0
   -4.9660    0.5482   -0.9755 C   0  0  1  0  0  0  0  0  0  0  0  0
   -1.5787   -0.6115    0.8699 C   0  0  1  0  0  0  0  0  0  0  0  0
   -3.9232   -1.6233    0.8695 C   0  0  0  0  0  0  0  0  0  0  0  0
   -5.6066   -0.8620   -0.8378 C   0  0  1  0  0  0  0  0  0  0  0  0
   -2.7181    1.8480   -0.5930 C   0  0  0  0  0  0  0  0  0  0  0  0
   -5.4025   -1.4830    0.5396 C   0  0  0  0  0  0  0  0  0  0  0  0
   -3.5215    0.5430    2.0905 C   0  0  0  0  0  0  0  0  0  0  0  0
   -0.7639    0.5943    0.4778 C   0  0  0  0  0  0  0  0  0  0  0  0
   -5.8078    1.6102   -0.2341 C   0  0  0  0  0  0  0  0  0  0  0  0
   -5.0291    0.9399   -2.4790 C   0  0  0  0  0  0  0  0  0  0  0  0
   -1.2912    1.6784   -0.1939 C   0  0  0  0  0  0  0  0  0  0  0  0
   -1.0821   -1.2206    2.1880 C   0  0  0  0  0  0  0  0  0  0  0  0
    0.3644   -1.6503    2.1040 C   0  0  0  0  0  0  0  0  0  0  0  0
    1.0568    1.8040    0.2674 C   0  0  0  0  0  0  0  0  0  0  0  0
    1.8213   -3.2067    0.8162 C   0  0  0  0  0  0  0  0  0  0  0  0
    3.4561    1.6152    0.8819 C   0  0  0  0  0  0  0  0  0  0  0  0
    2.5593   -2.4368   -0.2405 C   0  0  0  0  0  0  0  0  0  0  0  0
    4.7151    2.4521    0.7431 C   0  0  0  0  0  0  0  0  0  0  0  0
    1.8839   -2.0091   -1.3772 C   0  0  0  0  0  0  0  0  0  0  0  0
    3.9109   -2.1606   -0.0712 C   0  0  0  0  0  0  0  0  0  0  0  0
    2.5702   -1.2945   -2.3593 C   0  0  0  0  0  0  0  0  0  0  0  0
    4.5969   -1.4459   -1.0531 C   0  0  0  0  0  0  0  0  0  0  0  0
    3.9267   -1.0129   -2.1972 C   0  0  0  0  0  0  0  0  0  0  0  0
    7.0221    2.5517    1.1797 C   0  0  0  0  0  0  0  0  0  0  0  0
    5.9805   -0.0613   -2.9266 C   0  0  0  0  0  0  0  0  0  0  0  0
   -2.9761   -0.1485   -1.2961 H   0  0  0  0  0  0  0  0  0  0  0  0
   -1.4081   -1.3330    0.0586 H   0  0  0  0  0  0  0  0  0  0  0  0
   -3.8336   -2.0978    1.8538 H   0  0  0  0  0  0  0  0  0  0  0  0
   -3.4785   -2.3247    0.1511 H   0  0  0  0  0  0  0  0  0  0  0  0
   -5.1624   -1.5399   -1.5793 H   0  0  0  0  0  0  0  0  0  0  0  0
   -2.7618    2.2505   -1.6104 H   0  0  0  0  0  0  0  0  0  0  0  0
   -3.1893    2.5790    0.0725 H   0  0  0  0  0  0  0  0  0  0  0  0
   -5.8741   -2.4739    0.5598 H   0  0  0  0  0  0  0  0  0  0  0  0
   -5.9275   -0.9048    1.3080 H   0  0  0  0  0  0  0  0  0  0  0  0
   -3.3208   -0.0183    3.0098 H   0  0  0  0  0  0  0  0  0  0  0  0
   -4.5804    0.7852    2.1371 H   0  0  0  0  0  0  0  0  0  0  0  0
   -2.9636    1.4810    2.1594 H   0  0  0  0  0  0  0  0  0  0  0  0
   -5.8917    1.4166    0.8315 H   0  0  0  0  0  0  0  0  0  0  0  0
   -5.4184    2.6249   -0.3626 H   0  0  0  0  0  0  0  0  0  0  0  0
   -4.7054    1.9735   -2.6409 H   0  0  0  0  0  0  0  0  0  0  0  0
   -4.3762    0.2934   -3.0771 H   0  0  0  0  0  0  0  0  0  0  0  0
   -6.0313    0.8530   -2.9098 H   0  0  0  0  0  0  0  0  0  0  0  0
   -1.6719   -2.0980    2.4730 H   0  0  0  0  0  0  0  0  0  0  0  0
   -1.1479   -0.4958    3.0078 H   0  0  0  0  0  0  0  0  0  0  0  0
   -7.1196   -0.7302   -2.0757 H   0  0  0  0  0  0  0  0  0  0  0  0
   -7.1619    2.1440   -1.5244 H   0  0  0  0  0  0  0  0  0  0  0  0
   -0.2666   -2.9729    0.6190 H   0  0  0  0  0  0  0  0  0  0  0  0
    2.4884    3.1829   -0.1008 H   0  0  0  0  0  0  0  0  0  0  0  0
    1.6411   -4.2285    0.4647 H   0  0  0  0  0  0  0  0  0  0  0  0
    2.4048   -3.2650    1.7420 H   0  0  0  0  0  0  0  0  0  0  0  0
    4.5548    3.4051    1.2605 H   0  0  0  0  0  0  0  0  0  0  0  0
    4.8881    2.6401   -0.3230 H   0  0  0  0  0  0  0  0  0  0  0  0
    0.8300   -2.2262   -1.5267 H   0  0  0  0  0  0  0  0  0  0  0  0
    4.4436   -2.4928    0.8155 H   0  0  0  0  0  0  0  0  0  0  0  0
    2.0428   -0.9605   -3.2486 H   0  0  0  0  0  0  0  0  0  0  0  0
    5.6484   -1.2599   -0.8627 H   0  0  0  0  0  0  0  0  0  0  0  0
    7.8417    1.9831    1.6270 H   0  0  0  0  0  0  0  0  0  0  0  0
    6.9208    3.5012    1.7140 H   0  0  0  0  0  0  0  0  0  0  0  0
    7.2553    2.7332    0.1260 H   0  0  0  0  0  0  0  0  0  0  0  0
    6.1336    0.5666   -2.0421 H   0  0  0  0  0  0  0  0  0  0  0  0
    6.3524    0.5037   -3.7876 H   0  0  0  0  0  0  0  0  0  0  0  0
    6.5575   -0.9910   -2.8804 H   0  0  0  0  0  0  0  0  0  0  0  0
  1 23  1  0  0  0  0
  1 26  1  0  0  0  0
  2 16  1  0  0  0  0
  2 57  1  0  0  0  0
  3 21  1  0  0  0  0
  3 58  1  0  0  0  0
  4 25  2  0  0  0  0
  5 28  2  0  0  0  0
  6 30  1  0  0  0  0
  6 36  1  0  0  0  0
  7 35  1  0  0  0  0
  7 37  1  0  0  0  0
  8 20  1  0  0  0  0
  8 26  2  0  0  0  0
  9 25  1  0  0  0  0
  9 27  1  0  0  0  0
  9 59  1  0  0  0  0
 10 26  1  0  0  0  0
 10 28  1  0  0  0  0
 10 60  1  0  0  0  0
 11 12  1  0  0  0  0
 11 14  1  0  0  0  0
 11 15  1  0  0  0  0
 11 19  1  0  0  0  0
 12 13  1  0  0  0  0
 12 17  1  0  0  0  0
 12 38  1  0  0  0  0
 13 16  1  0  0  0  0
 13 21  1  0  0  0  0
 13 22  1  0  0  0  0
 14 20  1  0  0  0  0
 14 24  1  0  0  0  0
 14 39  1  0  0  0  0
 15 18  1  0  0  0  0
 15 40  1  0  0  0  0
 15 41  1  0  0  0  0
 16 18  1  0  0  0  0
 16 42  1  0  0  0  0
 17 23  1  0  0  0  0
 17 43  1  0  0  0  0
 17 44  1  0  0  0  0
 18 45  1  0  0  0  0
 18 46  1  0  0  0  0
 19 47  1  0  0  0  0
 19 48  1  0  0  0  0
 19 49  1  0  0  0  0
 20 23  2  0  0  0  0
 21 50  1  0  0  0  0
 21 51  1  0  0  0  0
 22 52  1  0  0  0  0
 22 53  1  0  0  0  0
 22 54  1  0  0  0  0
 24 25  1  0  0  0  0
 24 55  1  0  0  0  0
 24 56  1  0  0  0  0
 27 29  1  0  0  0  0
 27 61  1  0  0  0  0
 27 62  1  0  0  0  0
 28 30  1  0  0  0  0
 29 31  2  0  0  0  0
 29 32  1  0  0  0  0
 30 63  1  0  0  0  0
 30 64  1  0  0  0  0
 31 33  1  0  0  0  0
 31 65  1  0  0  0  0
 32 34  2  0  0  0  0
 32 66  1  0  0  0  0
 33 35  2  0  0  0  0
 33 67  1  0  0  0  0
 34 35  1  0  0  0  0
 34 68  1  0  0  0  0
 36 69  1  0  0  0  0
 36 70  1  0  0  0  0
 36 71  1  0  0  0  0
 37 72  1  0  0  0  0
 37 73  1  0  0  0  0
 37 74  1  0  0  0  0
M  END
> <PUBCHEM_COMPOUND_CID>
11867064

> <PUBCHEM_CONFORMER_RMSD>
1.2

> <PUBCHEM_CONFORMER_DIVERSEORDER>
1
6
26
23
30
14
25
29
3
7
17
4
18
28
5
9
20
10
24
13
12
8
2
21
27
15
16
19
11
22

> <PUBCHEM_MMFF94_PARTIAL_CHARGES>
38
1 -0.08
10 -0.49
14 0.18
16 0.28
17 0.18
2 -0.68
20 0.05
21 0.28
23 -0.14
24 0.06
25 0.57
26 0.44
27 0.44
28 0.57
29 -0.14
3 -0.68
30 0.34
31 -0.15
32 -0.15
33 -0.15
34 -0.15
35 0.08
36 0.28
37 0.28
4 -0.57
5 -0.57
57 0.4
58 0.4
59 0.37
6 -0.56
60 0.37
65 0.15
66 0.15
67 0.15
68 0.15
7 -0.36
8 -0.57
9 -0.73

> <PUBCHEM_EFFECTIVE_ROTOR_COUNT>
12.2

> <PUBCHEM_PHARMACOPHORE_FEATURES>
14
1 10 donor
1 2 acceptor
1 2 donor
1 3 acceptor
1 3 donor
1 4 acceptor
1 5 acceptor
1 6 acceptor
1 7 acceptor
1 9 donor
5 1 8 20 23 26 rings
6 11 12 13 15 16 18 rings
6 11 12 14 17 20 23 rings
6 29 31 32 33 34 35 rings

> <PUBCHEM_HEAVY_ATOM_COUNT>
37

> <PUBCHEM_ATOM_DEF_STEREO_COUNT>
5

> <PUBCHEM_ATOM_UDEF_STEREO_COUNT>
0

> <PUBCHEM_BOND_DEF_STEREO_COUNT>
0

> <PUBCHEM_BOND_UDEF_STEREO_COUNT>
0

> <PUBCHEM_ISOTOPIC_ATOM_COUNT>
0

> <PUBCHEM_COMPONENT_COUNT>
1

> <PUBCHEM_CACTVS_TAUTO_COUNT>
6

> <PUBCHEM_CONFORMER_ID>
00B513B800000001

> <PUBCHEM_MMFF94_ENERGY>
119.808

> <PUBCHEM_FEATURE_SELFOVERLAP>
71.203

> <PUBCHEM_SHAPE_FINGERPRINT>
10906281 52 18261401086701821696
11093857 51 18115896086565059806
11578080 2 16011523099551710287
12156800 1 12832268653574714378
12166972 35 17024862650552255226
12522641 33 18270394009780403500
12597179 24 18270118041257312170
13402501 40 18335979856965501344
1361 2 17988928894419680086
13617811 41 17458627775139781349
13636023 20 18271794757539617907
14931854 50 18190203238295849958
15001296 14 17916293000204834775
15082195 135 18186814577597106556
15721738 202 16630531713312725118
17492 54 18337687342383167310
17909252 39 18341334379381286842
20764821 26 17972909082833038710
20775438 99 18130220557968826342
22182313 1 18189911966002890819
23559900 14 18187939377681123772
4093350 32 17918273130446760249
513532 50 18411696582587399118
5265222 85 17975698608521557576
54039377 194 12966857767807964838
57527295 17 18339653217528138217
57828716 16 16081655602720575483
59755656 215 18411133666814420200
6669772 16 18410848893783043162
6823239 73 18412256208246598803

> <PUBCHEM_SHAPE_MULTIPOLES>
715.13
15.7
3.3
2.57
6.01
0.04
0.92
4.94
6.28
-3.34
-0.74
-2.36
-0.73
2.95

> <PUBCHEM_SHAPE_SELFOVERLAP>
1501.948

> <PUBCHEM_SHAPE_VOLUME>
406.6

> <PUBCHEM_COORDINATE_TYPE>
2
5
10

$$$$
