45783505
  -OEChem-12032416273D

 57 61  0     1  0  0  0  0  0999 V2000
   -2.4793   -1.6771    1.9775 O   0  0  0  0  0  0  0  0  0  0  0  0
    7.4805   -0.2650   -0.6463 O   0  0  0  0  0  0  0  0  0  0  0  0
    1.0253    3.6192   -0.6433 O   0  0  0  0  0  0  0  0  0  0  0  0
    0.4353    4.2337    1.4641 O   0  0  0  0  0  0  0  0  0  0  0  0
   -4.4281   -0.6482   -0.9633 N   0  0  1  0  0  0  0  0  0  0  0  0
   -1.6465   -1.2388   -0.0550 N   0  0  0  0  0  0  0  0  0  0  0  0
    4.7288   -0.7075   -0.2841 N   0  0  0  0  0  0  0  0  0  0  0  0
   -1.0897   -1.5984    2.1347 N   0  0  0  0  0  0  0  0  0  0  0  0
    3.0203   -1.1276    1.2988 N   0  0  0  0  0  0  0  0  0  0  0  0
   -4.1727   -1.4857    0.2257 C   0  0  1  0  0  0  0  0  0  0  0  0
   -4.6408   -2.8952   -0.1809 C   0  0  0  0  0  0  0  0  0  0  0  0
   -5.1985   -2.7385   -1.5884 C   0  0  0  0  0  0  0  0  0  0  0  0
   -5.5490   -1.2666   -1.6715 C   0  0  0  0  0  0  0  0  0  0  0  0
   -4.6888    0.7480   -0.6372 C   0  0  0  0  0  0  0  0  0  0  0  0
   -2.7222   -1.4539    0.6594 C   0  0  0  0  0  0  0  0  0  0  0  0
   -3.4175    1.5065   -0.3627 C   0  0  0  0  0  0  0  0  0  0  0  0
   -0.6701   -1.3374    0.8931 C   0  0  0  0  0  0  0  0  0  0  0  0
   -3.2320    2.1330    0.8698 C   0  0  0  0  0  0  0  0  0  0  0  0
   -2.4254    1.5828   -1.3403 C   0  0  0  0  0  0  0  0  0  0  0  0
    5.2072    0.5567   -0.8543 C   0  0  0  0  0  0  0  0  0  0  0  0
    5.7118   -1.4402    0.5257 C   0  0  0  0  0  0  0  0  0  0  0  0
    0.7167   -1.1711    0.5663 C   0  0  0  0  0  0  0  0  0  0  0  0
    6.5485    0.3355   -1.5449 C   0  0  0  0  0  0  0  0  0  0  0  0
    7.0256   -1.5553   -0.2392 C   0  0  0  0  0  0  0  0  0  0  0  0
    3.3728   -0.8664    0.0201 C   0  0  0  0  0  0  0  0  0  0  0  0
   -2.0544    2.8358    1.1244 C   0  0  0  0  0  0  0  0  0  0  0  0
   -1.2479    2.2857   -1.0855 C   0  0  0  0  0  0  0  0  0  0  0  0
   -1.0623    2.9120    0.1469 C   0  0  0  0  0  0  0  0  0  0  0  0
    1.1184   -0.9016   -0.7373 C   0  0  0  0  0  0  0  0  0  0  0  0
    2.4701   -0.7450   -1.0240 C   0  0  0  0  0  0  0  0  0  0  0  0
    1.6979   -1.2734    1.5393 C   0  0  0  0  0  0  0  0  0  0  0  0
    0.1661    3.6440    0.4123 C   0  0  0  0  0  0  0  0  0  0  0  0
   -4.7946   -1.1605    1.0716 H   0  0  0  0  0  0  0  0  0  0  0  0
   -3.8463   -3.6490   -0.1589 H   0  0  0  0  0  0  0  0  0  0  0  0
   -5.4386   -3.2276    0.4945 H   0  0  0  0  0  0  0  0  0  0  0  0
   -6.0620   -3.3863   -1.7659 H   0  0  0  0  0  0  0  0  0  0  0  0
   -4.4259   -2.9901   -2.3256 H   0  0  0  0  0  0  0  0  0  0  0  0
   -6.5049   -1.0741   -1.1678 H   0  0  0  0  0  0  0  0  0  0  0  0
   -5.6184   -0.9278   -2.7098 H   0  0  0  0  0  0  0  0  0  0  0  0
   -5.4034    0.8457    0.1905 H   0  0  0  0  0  0  0  0  0  0  0  0
   -5.1614    1.2489   -1.4940 H   0  0  0  0  0  0  0  0  0  0  0  0
   -3.9955    2.0800    1.6412 H   0  0  0  0  0  0  0  0  0  0  0  0
   -2.5577    1.1035   -2.3068 H   0  0  0  0  0  0  0  0  0  0  0  0
    4.5020    0.9782   -1.5786 H   0  0  0  0  0  0  0  0  0  0  0  0
    5.3243    1.2827   -0.0402 H   0  0  0  0  0  0  0  0  0  0  0  0
    5.8747   -0.8969    1.4647 H   0  0  0  0  0  0  0  0  0  0  0  0
    5.3533   -2.4480    0.7666 H   0  0  0  0  0  0  0  0  0  0  0  0
    6.9641    1.2950   -1.8686 H   0  0  0  0  0  0  0  0  0  0  0  0
    6.4402   -0.2967   -2.4346 H   0  0  0  0  0  0  0  0  0  0  0  0
    6.9197   -2.1991   -1.1208 H   0  0  0  0  0  0  0  0  0  0  0  0
    7.7943   -1.9964    0.4031 H   0  0  0  0  0  0  0  0  0  0  0  0
   -1.9285    3.3159    2.0913 H   0  0  0  0  0  0  0  0  0  0  0  0
   -0.5017    2.3191   -1.8743 H   0  0  0  0  0  0  0  0  0  0  0  0
    0.4013   -0.8113   -1.5491 H   0  0  0  0  0  0  0  0  0  0  0  0
    2.7833   -0.5493   -2.0443 H   0  0  0  0  0  0  0  0  0  0  0  0
    1.4682   -1.4812    2.5801 H   0  0  0  0  0  0  0  0  0  0  0  0
    1.8509    4.1141   -0.4537 H   0  0  0  0  0  0  0  0  0  0  0  0
  1  8  1  0  0  0  0
  1 15  1  0  0  0  0
  2 23  1  0  0  0  0
  2 24  1  0  0  0  0
  3 32  1  0  0  0  0
  3 57  1  0  0  0  0
  4 32  2  0  0  0  0
  5 10  1  0  0  0  0
  5 13  1  0  0  0  0
  5 14  1  0  0  0  0
  6 15  2  0  0  0  0
  6 17  1  0  0  0  0
  7 20  1  0  0  0  0
  7 21  1  0  0  0  0
  7 25  1  0  0  0  0
  8 17  2  0  0  0  0
  9 25  2  0  0  0  0
  9 31  1  0  0  0  0
 10 11  1  0  0  0  0
 10 15  1  0  0  0  0
 10 33  1  0  0  0  0
 11 12  1  0  0  0  0
 11 34  1  0  0  0  0
 11 35  1  0  0  0  0
 12 13  1  0  0  0  0
 12 36  1  0  0  0  0
 12 37  1  0  0  0  0
 13 38  1  0  0  0  0
 13 39  1  0  0  0  0
 14 16  1  0  0  0  0
 14 40  1  0  0  0  0
 14 41  1  0  0  0  0
 16 18  2  0  0  0  0
 16 19  1  0  0  0  0
 17 22  1  0  0  0  0
 18 26  1  0  0  0  0
 18 42  1  0  0  0  0
 19 27  2  0  0  0  0
 19 43  1  0  0  0  0
 20 23  1  0  0  0  0
 20 44  1  0  0  0  0
 20 45  1  0  0  0  0
 21 24  1  0  0  0  0
 21 46  1  0  0  0  0
 21 47  1  0  0  0  0
 22 29  1  0  0  0  0
 22 31  2  0  0  0  0
 23 48  1  0  0  0  0
 23 49  1  0  0  0  0
 24 50  1  0  0  0  0
 24 51  1  0  0  0  0
 25 30  1  0  0  0  0
 26 28  2  0  0  0  0
 26 52  1  0  0  0  0
 27 28  1  0  0  0  0
 27 53  1  0  0  0  0
 28 32  1  0  0  0  0
 29 30  2  0  0  0  0
 29 54  1  0  0  0  0
 30 55  1  0  0  0  0
 31 56  1  0  0  0  0
M  END
> <PUBCHEM_COMPOUND_CID>
45783505

> <PUBCHEM_CONFORMER_RMSD>
1

> <PUBCHEM_CONFORMER_DIVERSEORDER>
1
12
33
32
21
27
35
34
20
6
28
38
8
23
7
18
19
36
25
16
14
24
9
3
10
11
17
29
31
26
2
13
4
30
37
5
15
22

> <PUBCHEM_MMFF94_PARTIAL_CHARGES>
38
1 -0.02
10 0.45
13 0.27
14 0.41
15 0.3
16 -0.14
17 0.46
18 -0.15
19 -0.15
2 -0.56
20 0.37
21 0.37
22 0.05
23 0.28
24 0.28
25 0.41
26 -0.15
27 -0.15
28 0.09
29 -0.15
3 -0.65
30 -0.15
31 0.16
32 0.63
4 -0.57
42 0.15
43 0.15
5 -0.81
52 0.15
53 0.15
54 0.15
55 0.15
56 0.15
57 0.5
6 -0.57
7 -0.84
8 -0.41
9 -0.62

> <PUBCHEM_EFFECTIVE_ROTOR_COUNT>
8.2

> <PUBCHEM_PHARMACOPHORE_FEATURES>
12
1 2 acceptor
1 3 acceptor
1 4 acceptor
1 5 cation
3 3 4 32 anion
3 6 8 17 cation
3 7 9 25 cation
5 1 6 8 15 17 rings
5 5 10 11 12 13 rings
6 16 18 19 26 27 28 rings
6 2 7 20 21 23 24 rings
6 9 22 25 29 30 31 rings

> <PUBCHEM_HEAVY_ATOM_COUNT>
32

> <PUBCHEM_ATOM_DEF_STEREO_COUNT>
1

> <PUBCHEM_ATOM_UDEF_STEREO_COUNT>
0

> <PUBCHEM_BOND_DEF_STEREO_COUNT>
0

> <PUBCHEM_BOND_UDEF_STEREO_COUNT>
0

> <PUBCHEM_ISOTOPIC_ATOM_COUNT>
0

> <PUBCHEM_COMPONENT_COUNT>
1

> <PUBCHEM_CACTVS_TAUTO_COUNT>
1

> <PUBCHEM_CONFORMER_ID>
02BA99D100000001

> <PUBCHEM_MMFF94_ENERGY>
84.6117

> <PUBCHEM_FEATURE_SELFOVERLAP>
60.956

> <PUBCHEM_SHAPE_FINGERPRINT>
10454371 7 18410583860077986500
10670039 82 18334574621249753346
1100329 8 18411416186317717785
11477941 20 18342448266375424828
11578080 2 17344089384787760039
12107698 1 18413107290207091548
12156800 1 14423976734227724909
12166972 35 17895196644389586206
12645989 146 18342178869390290222
12788726 201 18262511485933815754
13782708 43 17632581526876257598
14068700 675 18202281446277330505
14787075 74 18333446530160666092
14931854 50 18114450215514780351
15021287 119 13398627260224265866
15183329 4 17968377854319707226
15419008 47 17917982872536366760
15876981 60 18410017632510611253
17492 54 18114451267992796389
18336668 15 18040724657673595653
19319366 153 17679860415427679699
20642791 35 18336245913584469485
20721686 56 18338234994232720776
20775438 99 17404274774661522983
21236236 1 18334581217908147750
21344244 246 17837201946290403303
23559900 14 18042399313072692749
255183 451 18052813943410409807
392239 28 18338808822984946488
5171179 24 18270955868564354905
531348 171 18200033915519531470
57527585 103 17533532030145545379

> <PUBCHEM_SHAPE_MULTIPOLES>
610.16
14.84
4.22
1.62
24.09
4.68
0.24
-9.47
-6.71
-3.83
0.77
-0.59
-0.3
-1.21

> <PUBCHEM_SHAPE_SELFOVERLAP>
1329.1

> <PUBCHEM_SHAPE_VOLUME>
331.3

> <PUBCHEM_COORDINATE_TYPE>
2
5
10

$$$$
