11941475
  -OEChem-12032416153D

 57 60  0     1  0  0  0  0  0999 V2000
    5.1852    4.5348    0.7770 Cl  0  0  0  0  0  0  0  0  0  0  0  0
   -2.5283   -3.2426    1.5698 O   0  0  0  0  0  0  0  0  0  0  0  0
    0.3358   -1.2762   -2.3911 O   0  0  0  0  0  0  0  0  0  0  0  0
   -6.2444   -0.0724    0.4161 O   0  0  0  0  0  0  0  0  0  0  0  0
    5.2606   -1.1305   -0.7739 O   0  0  0  0  0  0  0  0  0  0  0  0
   -1.4680   -1.4357   -0.9735 N   0  0  0  0  0  0  0  0  0  0  0  0
   -4.0246    0.2072   -0.2040 N   0  0  0  0  0  0  0  0  0  0  0  0
   -0.3813   -2.4828    1.5520 N   0  0  0  0  0  0  0  0  0  0  0  0
   -5.4576    2.0029   -0.2603 N   0  0  0  0  0  0  0  0  0  0  0  0
   -3.6029   -1.1590    0.0059 C   0  0  2  0  0  0  0  0  0  0  0  0
   -2.1011   -1.2281    0.3157 C   0  0  1  0  0  0  0  0  0  0  0  0
   -3.7409   -1.9838   -1.2754 C   0  0  0  0  0  0  0  0  0  0  0  0
   -2.4464   -1.6960   -2.0196 C   0  0  0  0  0  0  0  0  0  0  0  0
   -1.7031   -2.4227    1.1627 C   0  0  0  0  0  0  0  0  0  0  0  0
   -0.1312   -1.2486   -1.2526 C   0  0  0  0  0  0  0  0  0  0  0  0
    0.7971   -1.0260   -0.1136 C   0  0  0  0  0  0  0  0  0  0  0  0
    0.6982   -1.6780    1.1273 C   0  0  0  0  0  0  0  0  0  0  0  0
   -5.3267    0.6452    0.0204 C   0  0  0  0  0  0  0  0  0  0  0  0
    1.9266   -0.2343   -0.3906 C   0  0  0  0  0  0  0  0  0  0  0  0
    1.7670   -1.5733    2.0349 C   0  0  0  0  0  0  0  0  0  0  0  0
    2.9549   -0.1042    0.5415 C   0  0  0  0  0  0  0  0  0  0  0  0
    2.8812   -0.7843    1.7501 C   0  0  0  0  0  0  0  0  0  0  0  0
   -6.7046    2.7158   -0.1131 C   0  0  0  0  0  0  0  0  0  0  0  0
    4.1069    0.7180    0.2413 C   0  0  0  0  0  0  0  0  0  0  0  0
   -6.7987    3.8359   -1.1409 C   0  0  0  0  0  0  0  0  0  0  0  0
   -6.8487    3.2541    1.3050 C   0  0  0  0  0  0  0  0  0  0  0  0
    5.2220    0.1819   -0.4056 C   0  0  0  0  0  0  0  0  0  0  0  0
    4.0971    2.0655    0.6062 C   0  0  0  0  0  0  0  0  0  0  0  0
    6.3233    0.9904   -0.6866 C   0  0  0  0  0  0  0  0  0  0  0  0
    5.1984    2.8741    0.3253 C   0  0  0  0  0  0  0  0  0  0  0  0
    6.3114    2.3365   -0.3212 C   0  0  0  0  0  0  0  0  0  0  0  0
    6.4428   -1.5840   -1.4290 C   0  0  0  0  0  0  0  0  0  0  0  0
   -4.2219   -1.5793    0.8056 H   0  0  0  0  0  0  0  0  0  0  0  0
   -1.7326   -0.3109    0.7902 H   0  0  0  0  0  0  0  0  0  0  0  0
   -4.6249   -1.7390   -1.8718 H   0  0  0  0  0  0  0  0  0  0  0  0
   -3.7854   -3.0504   -1.0232 H   0  0  0  0  0  0  0  0  0  0  0  0
   -2.1197   -2.5262   -2.6529 H   0  0  0  0  0  0  0  0  0  0  0  0
   -2.5271   -0.7944   -2.6370 H   0  0  0  0  0  0  0  0  0  0  0  0
   -3.3591    0.8640   -0.6005 H   0  0  0  0  0  0  0  0  0  0  0  0
   -0.1771   -3.1393    2.3019 H   0  0  0  0  0  0  0  0  0  0  0  0
    2.0125    0.2752   -1.3497 H   0  0  0  0  0  0  0  0  0  0  0  0
    1.7290   -2.0887    2.9929 H   0  0  0  0  0  0  0  0  0  0  0  0
   -4.6237    2.5273   -0.5074 H   0  0  0  0  0  0  0  0  0  0  0  0
    3.6791   -0.7113    2.4852 H   0  0  0  0  0  0  0  0  0  0  0  0
   -7.5241    2.0105   -0.2966 H   0  0  0  0  0  0  0  0  0  0  0  0
   -7.7563    4.3609   -1.0619 H   0  0  0  0  0  0  0  0  0  0  0  0
   -5.9955    4.5690   -1.0060 H   0  0  0  0  0  0  0  0  0  0  0  0
   -6.7135    3.4375   -2.1579 H   0  0  0  0  0  0  0  0  0  0  0  0
   -6.8132    2.4412    2.0384 H   0  0  0  0  0  0  0  0  0  0  0  0
   -7.8014    3.7792    1.4296 H   0  0  0  0  0  0  0  0  0  0  0  0
   -6.0396    3.9517    1.5485 H   0  0  0  0  0  0  0  0  0  0  0  0
    3.2303    2.4888    1.1107 H   0  0  0  0  0  0  0  0  0  0  0  0
    7.2230    0.6468   -1.1848 H   0  0  0  0  0  0  0  0  0  0  0  0
    7.1762    2.9557   -0.5458 H   0  0  0  0  0  0  0  0  0  0  0  0
    6.5916   -1.0806   -2.3905 H   0  0  0  0  0  0  0  0  0  0  0  0
    6.2998   -2.6473   -1.6489 H   0  0  0  0  0  0  0  0  0  0  0  0
    7.3202   -1.5120   -0.7772 H   0  0  0  0  0  0  0  0  0  0  0  0
  1 30  1  0  0  0  0
  2 14  2  0  0  0  0
  3 15  2  0  0  0  0
  4 18  2  0  0  0  0
  5 27  1  0  0  0  0
  5 32  1  0  0  0  0
  6 11  1  0  0  0  0
  6 13  1  0  0  0  0
  6 15  1  0  0  0  0
  7 10  1  0  0  0  0
  7 18  1  0  0  0  0
  7 39  1  0  0  0  0
  8 14  1  0  0  0  0
  8 17  1  0  0  0  0
  8 40  1  0  0  0  0
  9 18  1  0  0  0  0
  9 23  1  0  0  0  0
  9 43  1  0  0  0  0
 10 11  1  0  0  0  0
 10 12  1  0  0  0  0
 10 33  1  0  0  0  0
 11 14  1  0  0  0  0
 11 34  1  0  0  0  0
 12 13  1  0  0  0  0
 12 35  1  0  0  0  0
 12 36  1  0  0  0  0
 13 37  1  0  0  0  0
 13 38  1  0  0  0  0
 15 16  1  0  0  0  0
 16 17  2  0  0  0  0
 16 19  1  0  0  0  0
 17 20  1  0  0  0  0
 19 21  2  0  0  0  0
 19 41  1  0  0  0  0
 20 22  2  0  0  0  0
 20 42  1  0  0  0  0
 21 22  1  0  0  0  0
 21 24  1  0  0  0  0
 22 44  1  0  0  0  0
 23 25  1  0  0  0  0
 23 26  1  0  0  0  0
 23 45  1  0  0  0  0
 24 27  2  0  0  0  0
 24 28  1  0  0  0  0
 25 46  1  0  0  0  0
 25 47  1  0  0  0  0
 25 48  1  0  0  0  0
 26 49  1  0  0  0  0
 26 50  1  0  0  0  0
 26 51  1  0  0  0  0
 27 29  1  0  0  0  0
 28 30  2  0  0  0  0
 28 52  1  0  0  0  0
 29 31  2  0  0  0  0
 29 53  1  0  0  0  0
 30 31  1  0  0  0  0
 31 54  1  0  0  0  0
 32 55  1  0  0  0  0
 32 56  1  0  0  0  0
 32 57  1  0  0  0  0
M  END
> <PUBCHEM_COMPOUND_CID>
11941475

> <PUBCHEM_CONFORMER_RMSD>
1

> <PUBCHEM_CONFORMER_DIVERSEORDER>
2
12
7
16
19
13
27
18
6
8
14
25
17
4
21
3
23
15
9
10
24
26
5
11
1
20
22

> <PUBCHEM_MMFF94_PARTIAL_CHARGES>
36
1 -0.18
10 0.3
11 0.36
13 0.3
14 0.57
15 0.54
16 0.09
17 0.12
18 0.69
19 -0.15
2 -0.57
20 -0.15
22 -0.15
23 0.3
27 0.08
28 -0.15
29 -0.15
3 -0.57
30 0.18
31 -0.15
32 0.28
39 0.37
4 -0.57
40 0.37
41 0.15
42 0.15
43 0.37
44 0.15
5 -0.36
52 0.15
53 0.15
54 0.15
6 -0.66
7 -0.73
8 -0.55
9 -0.73

> <PUBCHEM_EFFECTIVE_ROTOR_COUNT>
6.8

> <PUBCHEM_PHARMACOPHORE_FEATURES>
12
1 2 acceptor
1 3 acceptor
1 4 acceptor
1 5 acceptor
1 7 donor
1 8 donor
1 9 donor
3 23 25 26 hydrophobe
5 6 10 11 12 13 rings
6 16 17 19 20 21 22 rings
6 24 27 28 29 30 31 rings
7 6 8 11 14 15 16 17 rings

> <PUBCHEM_HEAVY_ATOM_COUNT>
32

> <PUBCHEM_ATOM_DEF_STEREO_COUNT>
2

> <PUBCHEM_ATOM_UDEF_STEREO_COUNT>
0

> <PUBCHEM_BOND_DEF_STEREO_COUNT>
0

> <PUBCHEM_BOND_UDEF_STEREO_COUNT>
0

> <PUBCHEM_ISOTOPIC_ATOM_COUNT>
0

> <PUBCHEM_COMPONENT_COUNT>
1

> <PUBCHEM_CACTVS_TAUTO_COUNT>
9

> <PUBCHEM_CONFORMER_ID>
00B6366300000002

> <PUBCHEM_MMFF94_ENERGY>
108.6129

> <PUBCHEM_FEATURE_SELFOVERLAP>
61.006

> <PUBCHEM_SHAPE_FINGERPRINT>
10006869 2 18190730939067699909
10190108 129 17531534148850796028
10554248 39 16988575593033715196
10622 236 9655571912177756321
10674148 151 18261960657380715478
11991303 11 17346310544632122703
12013929 29 18262524809693657564
12633257 1 14996580481788303379
13782708 43 15840696547573644119
13944108 23 18126002655191695361
14251751 18 8574708005787162105
14347329 18 17988640757795914289
15183329 4 16988573419706533394
15238133 3 18340751690016506858
15324884 4 15911328071015044347
15950262 2 18412828018438190957
19438510 23 18410013234712156137
20642791 268 17603309245783897127
20691028 202 18259984898529383861
20775438 99 11237700966088688605
21033648 29 18197492038304449368
21223535 225 18411130368538350644
21424621 283 18333733532754804019
21756936 100 18335980956382345603
23191077 185 18271229612810760263
23559900 14 14548457020197095162
23569914 152 17842293467058838220
23569914 2 17698686471724127344
249057 25 18194088933657745027
25025965 108 12534256034457023836
2838139 119 18343299275695941797
3004659 81 17131563829732410430
3472631 163 18340763754964535093
38570 142 18336552612107641619
392239 28 14345794984786907801
4098825 35 18201723985065903527
4144715 1 18263937694370586290
44802255 64 17631738304161779470
5104073 3 17458895046316454066
5223283 242 18197233455566905350
633830 44 18337663222221333510
636775 72 18193833962919365688
7970288 3 9871451137661600377
9689198 14 18409175393961438473

> <PUBCHEM_SHAPE_MULTIPOLES>
617.01
19.23
4.61
1.72
9.23
5.15
0.05
22.67
2.81
2.59
-0.83
0.17
-1.15
0.93

> <PUBCHEM_SHAPE_SELFOVERLAP>
1327.897

> <PUBCHEM_SHAPE_VOLUME>
340.2

> <PUBCHEM_COORDINATE_TYPE>
2
5
10

$$$$
