45361573
  -OEChem-12032416413D

 68 71  0     1  0  0  0  0  0999 V2000
    1.5153    1.5699   -1.0105 O   0  0  0  0  0  0  0  0  0  0  0  0
    5.7979   -1.4550   -0.8128 O   0  0  0  0  0  0  0  0  0  0  0  0
   -4.4852    0.4638    2.1370 O   0  0  0  0  0  0  0  0  0  0  0  0
   -3.5340   -0.0553    0.0872 N   0  0  0  0  0  0  0  0  0  0  0  0
    5.9081    0.6585    0.1141 N   0  0  0  0  0  0  0  0  0  0  0  0
   -8.3861    0.7976   -0.9693 N   0  0  0  0  0  0  0  0  0  0  0  0
    0.3925   -1.7925    0.4068 C   0  0  1  0  0  0  0  0  0  0  0  0
    0.3161   -0.2718    0.0457 C   0  0  2  0  0  0  0  0  0  0  0  0
   -1.1173    0.1085   -0.4723 C   0  0  1  0  0  0  0  0  0  0  0  0
    1.4944    0.1477   -0.8799 C   0  0  2  0  0  0  0  0  0  0  0  0
    1.7778   -2.1088    1.0183 C   0  0  0  0  0  0  0  0  0  0  0  0
    2.8725   -0.2643   -0.3118 C   0  0  1  0  0  0  0  0  0  0  0  0
   -0.6777   -2.1111    1.4764 C   0  0  0  0  0  0  0  0  0  0  0  0
   -2.1920   -0.2850    0.5798 C   0  0  2  0  0  0  0  0  0  0  0  0
    2.9327   -1.7357    0.0982 C   0  0  0  0  0  0  0  0  0  0  0  0
   -2.0876   -1.7387    1.0405 C   0  0  0  0  0  0  0  0  0  0  0  0
    0.1713   -2.7073   -0.8244 C   0  0  0  0  0  0  0  0  0  0  0  0
    4.0079    0.0399   -1.2968 C   0  0  2  0  0  0  0  0  0  0  0  0
   -1.2714    1.5990   -0.8194 C   0  0  0  0  0  0  0  0  0  0  0  0
    3.8293   -0.7290   -2.5932 C   0  0  0  0  0  0  0  0  0  0  0  0
    5.3187   -0.3315   -0.6509 C   0  0  0  0  0  0  0  0  0  0  0  0
   -4.5778    0.3042    0.9226 C   0  0  0  0  0  0  0  0  0  0  0  0
    7.1711    0.4554    0.8085 C   0  0  0  0  0  0  0  0  0  0  0  0
    5.3960    2.0062    0.3420 C   0  0  0  0  0  0  0  0  0  0  0  0
    7.6005    1.8513    1.2331 C   0  0  0  0  0  0  0  0  0  0  0  0
    6.2711    2.5609    1.4570 C   0  0  0  0  0  0  0  0  0  0  0  0
   -5.8994    0.4771    0.2666 C   0  0  0  0  0  0  0  0  0  0  0  0
   -7.0696    0.2777    0.9906 C   0  0  0  0  0  0  0  0  0  0  0  0
   -5.9711    0.8366   -1.0747 C   0  0  0  0  0  0  0  0  0  0  0  0
   -8.2767    0.4489    0.3323 C   0  0  0  0  0  0  0  0  0  0  0  0
   -7.2274    0.9829   -1.6406 C   0  0  0  0  0  0  0  0  0  0  0  0
    0.4486    0.2958    0.9809 H   0  0  0  0  0  0  0  0  0  0  0  0
   -1.3169   -0.4429   -1.3999 H   0  0  0  0  0  0  0  0  0  0  0  0
    1.3116   -0.2669   -1.8733 H   0  0  0  0  0  0  0  0  0  0  0  0
    1.8960   -1.5647    1.9652 H   0  0  0  0  0  0  0  0  0  0  0  0
    1.8483   -3.1753    1.2685 H   0  0  0  0  0  0  0  0  0  0  0  0
    3.0363    0.3207    0.6024 H   0  0  0  0  0  0  0  0  0  0  0  0
   -0.6527   -3.1778    1.7333 H   0  0  0  0  0  0  0  0  0  0  0  0
   -0.4469   -1.5674    2.4024 H   0  0  0  0  0  0  0  0  0  0  0  0
   -2.0482    0.3539    1.4621 H   0  0  0  0  0  0  0  0  0  0  0  0
    2.9249   -2.4171   -0.7547 H   0  0  0  0  0  0  0  0  0  0  0  0
    3.8512   -1.9482    0.6566 H   0  0  0  0  0  0  0  0  0  0  0  0
   -2.7739   -1.9128    1.8794 H   0  0  0  0  0  0  0  0  0  0  0  0
   -2.4263   -2.4130    0.2445 H   0  0  0  0  0  0  0  0  0  0  0  0
   -0.8228   -2.5940   -1.2644 H   0  0  0  0  0  0  0  0  0  0  0  0
    0.2773   -3.7620   -0.5445 H   0  0  0  0  0  0  0  0  0  0  0  0
    0.8886   -2.5108   -1.6262 H   0  0  0  0  0  0  0  0  0  0  0  0
    4.0115    1.1024   -1.5603 H   0  0  0  0  0  0  0  0  0  0  0  0
   -0.7142    1.8531   -1.7254 H   0  0  0  0  0  0  0  0  0  0  0  0
   -2.3119    1.8636   -1.0336 H   0  0  0  0  0  0  0  0  0  0  0  0
   -0.9303    2.2361    0.0031 H   0  0  0  0  0  0  0  0  0  0  0  0
   -3.7093   -0.2779   -0.8871 H   0  0  0  0  0  0  0  0  0  0  0  0
    1.6347    1.9529   -0.1247 H   0  0  0  0  0  0  0  0  0  0  0  0
    3.8066   -1.8156   -2.4818 H   0  0  0  0  0  0  0  0  0  0  0  0
    4.6798   -0.5215   -3.2561 H   0  0  0  0  0  0  0  0  0  0  0  0
    2.9403   -0.4187   -3.1481 H   0  0  0  0  0  0  0  0  0  0  0  0
    7.8986   -0.0402    0.1590 H   0  0  0  0  0  0  0  0  0  0  0  0
    6.9747   -0.1864    1.6744 H   0  0  0  0  0  0  0  0  0  0  0  0
    5.5337    2.5760   -0.5837 H   0  0  0  0  0  0  0  0  0  0  0  0
    4.3390    2.0134    0.6108 H   0  0  0  0  0  0  0  0  0  0  0  0
    8.1485    2.3403    0.4188 H   0  0  0  0  0  0  0  0  0  0  0  0
    8.2378    1.8447    2.1214 H   0  0  0  0  0  0  0  0  0  0  0  0
    5.8602    2.2766    2.4333 H   0  0  0  0  0  0  0  0  0  0  0  0
    6.3562    3.6504    1.4239 H   0  0  0  0  0  0  0  0  0  0  0  0
   -7.0576   -0.0077    2.0370 H   0  0  0  0  0  0  0  0  0  0  0  0
   -5.0971    1.0337   -1.6850 H   0  0  0  0  0  0  0  0  0  0  0  0
   -9.2182    0.3042    0.8520 H   0  0  0  0  0  0  0  0  0  0  0  0
   -7.3381    1.2691   -2.6814 H   0  0  0  0  0  0  0  0  0  0  0  0
  1 10  1  0  0  0  0
  1 53  1  0  0  0  0
  2 21  2  0  0  0  0
  3 22  2  0  0  0  0
  4 14  1  0  0  0  0
  4 22  1  0  0  0  0
  4 52  1  0  0  0  0
  5 21  1  0  0  0  0
  5 23  1  0  0  0  0
  5 24  1  0  0  0  0
  6 30  2  0  0  0  0
  6 31  1  0  0  0  0
  7  8  1  0  0  0  0
  7 11  1  0  0  0  0
  7 13  1  0  0  0  0
  7 17  1  0  0  0  0
  8  9  1  0  0  0  0
  8 10  1  0  0  0  0
  8 32  1  0  0  0  0
  9 14  1  0  0  0  0
  9 19  1  0  0  0  0
  9 33  1  0  0  0  0
 10 12  1  0  0  0  0
 10 34  1  0  0  0  0
 11 15  1  0  0  0  0
 11 35  1  0  0  0  0
 11 36  1  0  0  0  0
 12 15  1  0  0  0  0
 12 18  1  0  0  0  0
 12 37  1  0  0  0  0
 13 16  1  0  0  0  0
 13 38  1  0  0  0  0
 13 39  1  0  0  0  0
 14 16  1  0  0  0  0
 14 40  1  0  0  0  0
 15 41  1  0  0  0  0
 15 42  1  0  0  0  0
 16 43  1  0  0  0  0
 16 44  1  0  0  0  0
 17 45  1  0  0  0  0
 17 46  1  0  0  0  0
 17 47  1  0  0  0  0
 18 20  1  0  0  0  0
 18 21  1  0  0  0  0
 18 48  1  0  0  0  0
 19 49  1  0  0  0  0
 19 50  1  0  0  0  0
 19 51  1  0  0  0  0
 20 54  1  0  0  0  0
 20 55  1  0  0  0  0
 20 56  1  0  0  0  0
 22 27  1  0  0  0  0
 23 25  1  0  0  0  0
 23 57  1  0  0  0  0
 23 58  1  0  0  0  0
 24 26  1  0  0  0  0
 24 59  1  0  0  0  0
 24 60  1  0  0  0  0
 25 26  1  0  0  0  0
 25 61  1  0  0  0  0
 25 62  1  0  0  0  0
 26 63  1  0  0  0  0
 26 64  1  0  0  0  0
 27 28  2  0  0  0  0
 27 29  1  0  0  0  0
 28 30  1  0  0  0  0
 28 65  1  0  0  0  0
 29 31  2  0  0  0  0
 29 66  1  0  0  0  0
 30 67  1  0  0  0  0
 31 68  1  0  0  0  0
M  END
> <PUBCHEM_COMPOUND_CID>
45361573

> <PUBCHEM_CONFORMER_RMSD>
1

> <PUBCHEM_CONFORMER_DIVERSEORDER>
1
7
29
21
31
26
24
34
18
20
25
12
6
27
36
32
14
11
19
30
35
10
28
22
8
4
13
33
16
23
2
5
3
15
17
9

> <PUBCHEM_MMFF94_PARTIAL_CHARGES>
24
1 -0.68
10 0.28
14 0.3
18 0.06
2 -0.57
21 0.57
22 0.54
23 0.3
24 0.3
27 0.09
28 -0.15
29 -0.15
3 -0.57
30 0.16
31 0.16
4 -0.73
5 -0.66
52 0.37
53 0.4
6 -0.62
65 0.15
66 0.15
67 0.15
68 0.15

> <PUBCHEM_EFFECTIVE_ROTOR_COUNT>
8.6

> <PUBCHEM_PHARMACOPHORE_FEATURES>
11
1 1 acceptor
1 1 donor
1 2 acceptor
1 20 hydrophobe
1 3 acceptor
1 4 donor
1 6 acceptor
5 5 23 24 25 26 rings
6 6 27 28 29 30 31 rings
6 7 8 10 11 12 15 rings
6 7 8 9 13 14 16 rings

> <PUBCHEM_HEAVY_ATOM_COUNT>
31

> <PUBCHEM_ATOM_DEF_STEREO_COUNT>
6

> <PUBCHEM_ATOM_UDEF_STEREO_COUNT>
1

> <PUBCHEM_BOND_DEF_STEREO_COUNT>
0

> <PUBCHEM_BOND_UDEF_STEREO_COUNT>
0

> <PUBCHEM_ISOTOPIC_ATOM_COUNT>
0

> <PUBCHEM_COMPONENT_COUNT>
1

> <PUBCHEM_CACTVS_TAUTO_COUNT>
2

> <PUBCHEM_CONFORMER_ID>
02B429A500000001

> <PUBCHEM_MMFF94_ENERGY>
95.0909

> <PUBCHEM_FEATURE_SELFOVERLAP>
55.836

> <PUBCHEM_SHAPE_FINGERPRINT>
10 15 17603587460875076932
10006869 2 18261662684986039810
10533779 1 17487322988890452912
11136131 41 17314217870576479779
11331351 85 10737286853099482539
11719270 70 17603307029095462562
12166972 35 14979953666641819323
12592606 108 8286192843555914145
12838862 33 18186789293008518373
12925494 130 17985259931608798568
13150687 139 18060146435931330014
13383668 254 17846232076960724449
13540713 5 17170972636658080614
13673619 4 10663819667969296555
13782708 43 13973676184247807589
14040221 8 15267068013460130177
15183329 4 16298391232294224949
15238133 3 17530972418789386422
15289351 153 18336254636125120864
15419008 145 15936678290170393164
16994733 274 17346601850524982457
20157964 124 17917998269893758950
20511986 3 18334288777796015315
20554085 129 18261385663526314794
21033648 29 17676207970374604499
21150785 3 16487255478173008929
21403212 168 18260823808947802592
21521721 280 18201721755856050843
21792934 111 17822282445073667986
21859007 373 17821998805149299220
22224240 67 18408039619777199699
23522609 53 15697182693631689843
23559900 14 18343018939186368537
24771293 8 18413674616595810124
335352 9 18113628871733843142
34797466 226 17632303349684694061
4093350 32 17775289348225399716
4258327 124 17203046408325549116
4340502 62 17967814942329654642
445580 167 17418091023042855289
44880568 143 17346049852955060537
5104073 3 17896600587499681744
6004065 56 18130787910104937017
6201320 215 13190882188574180239

> <PUBCHEM_SHAPE_MULTIPOLES>
605.41
23.14
2.29
1.67
19.65
0.55
-0.33
-14.85
1.63
-3
0.52
-0.23
-0.02
2.53

> <PUBCHEM_SHAPE_SELFOVERLAP>
1277.16

> <PUBCHEM_SHAPE_VOLUME>
335.9

> <PUBCHEM_COORDINATE_TYPE>
2
5
10

$$$$
