45783910
  -OEChem-12032416253D

 67 70  0     1  0  0  0  0  0999 V2000
    3.4268   -0.0491    0.8199 O   0  0  0  0  0  0  0  0  0  0  0  0
   -6.7338    3.6413    0.8087 O   0  0  0  0  0  0  0  0  0  0  0  0
   -3.3619   -0.0215    0.4511 N   0  0  0  0  0  0  0  0  0  0  0  0
   -5.4909    1.8459    0.0170 N   0  0  0  0  0  0  0  0  0  0  0  0
    4.2104   -1.9883    0.0263 N   0  0  0  0  0  0  0  0  0  0  0  0
    5.0713   -0.9837   -0.3744 N   0  0  0  0  0  0  0  0  0  0  0  0
    5.9650    4.1137   -0.1834 N   0  0  0  0  0  0  0  0  0  0  0  0
   -1.0320   -1.2667   -0.8194 C   0  0  1  0  0  0  0  0  0  0  0  0
   -2.0167   -2.0514    0.0784 C   0  0  2  0  0  0  0  0  0  0  0  0
    0.2972   -1.0365   -0.0867 C   0  0  0  0  0  0  0  0  0  0  0  0
    0.9669   -2.3431    0.3904 C   0  0  2  0  0  0  0  0  0  0  0  0
   -0.8101   -1.9779   -2.1611 C   0  0  0  0  0  0  0  0  0  0  0  0
   -2.6903   -1.1408    1.1103 C   0  0  0  0  0  0  0  0  0  0  0  0
   -1.3576   -3.2049    0.7906 C   0  0  0  0  0  0  0  0  0  0  0  0
   -0.0281   -3.3595    0.9300 C   0  0  0  0  0  0  0  0  0  0  0  0
    2.0655   -1.9896    1.4006 C   0  0  0  0  0  0  0  0  0  0  0  0
   -2.0235   -1.7954   -3.0672 C   0  0  0  0  0  0  0  0  0  0  0  0
    0.4535   -1.4557   -2.8374 C   0  0  0  0  0  0  0  0  0  0  0  0
   -4.6269   -0.4627   -0.1546 C   0  0  0  0  0  0  0  0  0  0  0  0
   -3.6021    1.0707    1.4054 C   0  0  0  0  0  0  0  0  0  0  0  0
    0.5268   -4.5949    1.5846 C   0  0  0  0  0  0  0  0  0  0  0  0
   -5.3228    0.6941   -0.8741 C   0  0  0  0  0  0  0  0  0  0  0  0
   -4.2725    2.2569    0.7130 C   0  0  0  0  0  0  0  0  0  0  0  0
    3.2663   -1.3970    0.7205 C   0  0  0  0  0  0  0  0  0  0  0  0
   -6.6509    2.6096    0.1376 C   0  0  0  0  0  0  0  0  0  0  0  0
    4.5748    0.1301    0.1109 C   0  0  0  0  0  0  0  0  0  0  0  0
   -7.8646    2.1143   -0.6077 C   0  0  0  0  0  0  0  0  0  0  0  0
    5.0467    1.4807    0.0119 C   0  0  0  0  0  0  0  0  0  0  0  0
    6.2121    1.7632   -0.6921 C   0  0  0  0  0  0  0  0  0  0  0  0
    4.3398    2.5134    0.6182 C   0  0  0  0  0  0  0  0  0  0  0  0
    6.6251    3.0840   -0.7594 C   0  0  0  0  0  0  0  0  0  0  0  0
    4.8366    3.8007    0.4922 C   0  0  0  0  0  0  0  0  0  0  0  0
   -1.4316   -0.2717   -1.0521 H   0  0  0  0  0  0  0  0  0  0  0  0
   -2.7947   -2.5063   -0.5419 H   0  0  0  0  0  0  0  0  0  0  0  0
    0.9934   -0.4225   -0.6674 H   0  0  0  0  0  0  0  0  0  0  0  0
    0.0806   -0.4127    0.7923 H   0  0  0  0  0  0  0  0  0  0  0  0
    1.4398   -2.8332   -0.4705 H   0  0  0  0  0  0  0  0  0  0  0  0
   -0.6732   -3.0557   -2.0082 H   0  0  0  0  0  0  0  0  0  0  0  0
   -3.3916   -1.7096    1.7369 H   0  0  0  0  0  0  0  0  0  0  0  0
   -1.9217   -0.7619    1.7973 H   0  0  0  0  0  0  0  0  0  0  0  0
   -2.0279   -3.9608    1.1947 H   0  0  0  0  0  0  0  0  0  0  0  0
    2.4329   -2.8777    1.9258 H   0  0  0  0  0  0  0  0  0  0  0  0
    1.6924   -1.3086    2.1754 H   0  0  0  0  0  0  0  0  0  0  0  0
   -2.2350   -0.7351   -3.2443 H   0  0  0  0  0  0  0  0  0  0  0  0
   -2.9244   -2.2561   -2.6543 H   0  0  0  0  0  0  0  0  0  0  0  0
   -1.8483   -2.2633   -4.0425 H   0  0  0  0  0  0  0  0  0  0  0  0
    0.4485   -0.3628   -2.9169 H   0  0  0  0  0  0  0  0  0  0  0  0
    0.5154   -1.8448   -3.8612 H   0  0  0  0  0  0  0  0  0  0  0  0
    1.3778   -1.7749   -2.3514 H   0  0  0  0  0  0  0  0  0  0  0  0
   -5.3009   -0.8678    0.6123 H   0  0  0  0  0  0  0  0  0  0  0  0
   -4.4631   -1.2508   -0.8952 H   0  0  0  0  0  0  0  0  0  0  0  0
   -4.2316    0.7248    2.2362 H   0  0  0  0  0  0  0  0  0  0  0  0
   -2.6523    1.4163    1.8308 H   0  0  0  0  0  0  0  0  0  0  0  0
    0.9158   -4.3673    2.5816 H   0  0  0  0  0  0  0  0  0  0  0  0
   -0.2360   -5.3726    1.7022 H   0  0  0  0  0  0  0  0  0  0  0  0
    1.3306   -5.0226    0.9764 H   0  0  0  0  0  0  0  0  0  0  0  0
   -4.7191    1.0335   -1.7250 H   0  0  0  0  0  0  0  0  0  0  0  0
   -6.2778    0.3480   -1.2743 H   0  0  0  0  0  0  0  0  0  0  0  0
   -4.4919    3.0380    1.4482 H   0  0  0  0  0  0  0  0  0  0  0  0
   -3.6024    2.6934   -0.0379 H   0  0  0  0  0  0  0  0  0  0  0  0
   -8.1397    1.1150   -0.2600 H   0  0  0  0  0  0  0  0  0  0  0  0
   -7.6708    2.1067   -1.6836 H   0  0  0  0  0  0  0  0  0  0  0  0
   -8.7077    2.7856   -0.4173 H   0  0  0  0  0  0  0  0  0  0  0  0
    6.7948    0.9891   -1.1808 H   0  0  0  0  0  0  0  0  0  0  0  0
    3.4249    2.3548    1.1795 H   0  0  0  0  0  0  0  0  0  0  0  0
    7.5276    3.3572   -1.2963 H   0  0  0  0  0  0  0  0  0  0  0  0
    4.3226    4.6416    0.9463 H   0  0  0  0  0  0  0  0  0  0  0  0
  1 24  1  0  0  0  0
  1 26  1  0  0  0  0
  2 25  2  0  0  0  0
  3 13  1  0  0  0  0
  3 19  1  0  0  0  0
  3 20  1  0  0  0  0
  4 22  1  0  0  0  0
  4 23  1  0  0  0  0
  4 25  1  0  0  0  0
  5  6  1  0  0  0  0
  5 24  2  0  0  0  0
  6 26  2  0  0  0  0
  7 31  2  0  0  0  0
  7 32  1  0  0  0  0
  8  9  1  0  0  0  0
  8 10  1  0  0  0  0
  8 12  1  0  0  0  0
  8 33  1  0  0  0  0
  9 13  1  0  0  0  0
  9 14  1  0  0  0  0
  9 34  1  0  0  0  0
 10 11  1  0  0  0  0
 10 35  1  0  0  0  0
 10 36  1  0  0  0  0
 11 15  1  0  0  0  0
 11 16  1  0  0  0  0
 11 37  1  0  0  0  0
 12 17  1  0  0  0  0
 12 18  1  0  0  0  0
 12 38  1  0  0  0  0
 13 39  1  0  0  0  0
 13 40  1  0  0  0  0
 14 15  2  0  0  0  0
 14 41  1  0  0  0  0
 15 21  1  0  0  0  0
 16 24  1  0  0  0  0
 16 42  1  0  0  0  0
 16 43  1  0  0  0  0
 17 44  1  0  0  0  0
 17 45  1  0  0  0  0
 17 46  1  0  0  0  0
 18 47  1  0  0  0  0
 18 48  1  0  0  0  0
 18 49  1  0  0  0  0
 19 22  1  0  0  0  0
 19 50  1  0  0  0  0
 19 51  1  0  0  0  0
 20 23  1  0  0  0  0
 20 52  1  0  0  0  0
 20 53  1  0  0  0  0
 21 54  1  0  0  0  0
 21 55  1  0  0  0  0
 21 56  1  0  0  0  0
 22 57  1  0  0  0  0
 22 58  1  0  0  0  0
 23 59  1  0  0  0  0
 23 60  1  0  0  0  0
 25 27  1  0  0  0  0
 26 28  1  0  0  0  0
 27 61  1  0  0  0  0
 27 62  1  0  0  0  0
 27 63  1  0  0  0  0
 28 29  2  0  0  0  0
 28 30  1  0  0  0  0
 29 31  1  0  0  0  0
 29 64  1  0  0  0  0
 30 32  2  0  0  0  0
 30 65  1  0  0  0  0
 31 66  1  0  0  0  0
 32 67  1  0  0  0  0
M  END
> <PUBCHEM_COMPOUND_CID>
45783910

> <PUBCHEM_CONFORMER_RMSD>
1

> <PUBCHEM_CONFORMER_DIVERSEORDER>
43
119
161
71
152
140
17
145
102
61
111
166
188
133
260
74
167
85
255
245
242
97
257
99
198
10
104
239
185
72
68
134
113
156
77
223
174
11
204
221
135
194
250
227
164
39
69
37
142
121
149
100
262
178
168
65
258
70
128
157
36
35
219
192
78
189
259
208
96
63
138
125
169
106
76
171
201
232
103
7
212
237
210
22
247
209
50
231
211
105
226
6
98
195
132
21
18
4
214
14
120
92
52
58
38
141
205
165
248
116
82
199
203
200
57
25
26
31
29
238
170
122
109
95
207
28
172
229
254
60
180
233
176
175
115
49
234
197
217
51
101
148
93
54
123
252
139
215
91
202
144
177
27
160
246
126
158
179
147
41
32
143
206
59
243
94
118
13
216
56
9
107
154
108
67
228
241
33
155
146
30
191
89
84
42
55
224
90
190
47
186
62
256
240
162
73
159
112
173
34
88
150
117
19
261
8
193
3
75
23
235
181
244
24
20
182
196
213
53
183
220
80
110
86
64
83
66
12
129
124
230
151
81
79
45
137
130
15
222
225
46
5
136
114
2
249
236
44
127
1
48
40
218
184
163
253
153
187
251
131
87
16

> <PUBCHEM_MMFF94_PARTIAL_CHARGES>
32
1 -0.28
11 0.14
13 0.27
14 -0.29
15 -0.28
16 0.18
19 0.27
2 -0.57
20 0.27
21 0.14
22 0.3
23 0.3
24 0.3
25 0.57
26 0.43
27 0.06
28 0.05
29 -0.15
3 -0.81
30 -0.15
31 0.16
32 0.16
4 -0.66
41 0.15
5 -0.34
6 -0.34
64 0.15
65 0.15
66 0.15
67 0.15
7 -0.62
9 0.14

> <PUBCHEM_EFFECTIVE_ROTOR_COUNT>
9

> <PUBCHEM_PHARMACOPHORE_FEATURES>
8
1 2 acceptor
1 3 cation
1 7 acceptor
3 12 17 18 hydrophobe
5 1 5 6 24 26 rings
6 3 4 19 20 22 23 rings
6 7 28 29 30 31 32 rings
6 8 9 10 11 14 15 rings

> <PUBCHEM_HEAVY_ATOM_COUNT>
32

> <PUBCHEM_ATOM_DEF_STEREO_COUNT>
3

> <PUBCHEM_ATOM_UDEF_STEREO_COUNT>
0

> <PUBCHEM_BOND_DEF_STEREO_COUNT>
0

> <PUBCHEM_BOND_UDEF_STEREO_COUNT>
0

> <PUBCHEM_ISOTOPIC_ATOM_COUNT>
0

> <PUBCHEM_COMPONENT_COUNT>
1

> <PUBCHEM_CACTVS_TAUTO_COUNT>
1

> <PUBCHEM_CONFORMER_ID>
02BA9B660000002B

> <PUBCHEM_MMFF94_ENERGY>
65.4509

> <PUBCHEM_FEATURE_SELFOVERLAP>
40.597

> <PUBCHEM_SHAPE_FINGERPRINT>
10906281 52 17988369144728597353
10928967 22 9437195790498208520
11505856 67 18268420416510551775
11991303 11 17489582394510346743
12422481 6 16515684424787718591
12925494 130 18336546122253964400
13944108 23 18196372511639041592
14202776 33 17987230209221972151
14251764 30 9151167645620475677
14251764 75 18334857220774685800
14790565 3 18408885113858587944
14849402 71 18119245060758555458
15142526 21 18333168358093324059
15198563 99 17695623339882667079
15475509 35 11314609626607451023
19309040 13 18341614871459171534
20691028 202 18262518208038162212
20771845 171 17702658827484419431
20775438 99 10950321598566560229
21033648 29 17385733495116661001
21223535 225 18127692850083617492
21344244 181 12966830356952291205
21756936 100 18267582588776293146
21792965 215 18116459071284213441
22122407 14 18337398140728285649
27425 322 18412544288672651047
2748736 6 18336255821130087808
2838139 119 18341048528154291143
3388396 114 16758587756502512452
3472631 163 18341895143628864711
44802255 64 17416414362515822294
469060 322 16009859722990063026
50009960 94 11455341519217147668
5104073 3 17677041456350458874
56638632 10 18115299102747316565
5718773 13 10159706776473031580
57527585 21 17908971446796656582
58260988 647 11311764116833177367
5951187 136 18269844133543589414
633830 44 18410848867913382750
7288768 16 17968092100953949834
7970288 3 9727627302401478737

> <PUBCHEM_SHAPE_MULTIPOLES>
621.9
18
5.68
1.83
4.94
1.08
1.63
29.51
0.52
-2.09
-1.7
0.86
-1.57
-1.56

> <PUBCHEM_SHAPE_SELFOVERLAP>
1307.909

> <PUBCHEM_SHAPE_VOLUME>
347.6

> <PUBCHEM_COORDINATE_TYPE>
2
5
10

$$$$
