11866214
  -OEChem-12032416123D

 55 59  0     1  0  0  0  0  0999 V2000
   -8.3626    2.0348   -1.3151 Cl  0  0  0  0  0  0  0  0  0  0  0  0
   -0.8174   -2.3149    0.4030 S   0  0  0  0  0  0  0  0  0  0  0  0
   -9.1504   -0.3193    0.3079 F   0  0  0  0  0  0  0  0  0  0  0  0
    4.7010    1.8325    0.1778 O   0  0  0  0  0  0  0  0  0  0  0  0
    6.5857    3.1298    0.4129 O   0  0  0  0  0  0  0  0  0  0  0  0
   -3.2296    1.6283   -0.1456 O   0  0  0  0  0  0  0  0  0  0  0  0
   -0.6270    0.2294   -0.0214 N   0  0  0  0  0  0  0  0  0  0  0  0
   -2.8502   -0.6691    0.2198 N   0  0  0  0  0  0  0  0  0  0  0  0
    3.1795   -0.1764    0.1429 C   0  0  1  0  0  0  0  0  0  0  0  0
    3.1643   -1.6698   -0.4038 C   0  0  1  0  0  0  0  0  0  0  0  0
    4.4625    0.5229   -0.3387 C   0  0  2  0  0  0  0  0  0  0  0  0
    5.6857   -0.2300    0.1479 C   0  0  1  0  0  0  0  0  0  0  0  0
    4.4984   -2.3979   -0.0534 C   0  0  0  0  0  0  0  0  0  0  0  0
    5.7593   -1.6188   -0.4534 C   0  0  0  0  0  0  0  0  0  0  0  0
    1.8595    0.6059   -0.1946 C   0  0  1  0  0  0  0  0  0  0  0  0
    1.9930   -2.4479    0.2717 C   0  0  0  0  0  0  0  0  0  0  0  0
    6.7789    0.7662   -0.1889 C   0  0  1  0  0  0  0  0  0  0  0  0
    2.9770   -1.7285   -1.9437 C   0  0  0  0  0  0  0  0  0  0  0  0
    0.6579   -0.2811    0.0223 C   0  0  0  0  0  0  0  0  0  0  0  0
    0.7377   -1.6458    0.2195 C   0  0  0  0  0  0  0  0  0  0  0  0
    6.0612    2.0540    0.1709 C   0  0  0  0  0  0  0  0  0  0  0  0
    1.7202    1.8992    0.6196 C   0  0  0  0  0  0  0  0  0  0  0  0
    8.0477    0.5597    0.6167 C   0  0  0  0  0  0  0  0  0  0  0  0
   -1.4836   -0.7488    0.1764 C   0  0  0  0  0  0  0  0  0  0  0  0
   -3.6300    0.4879    0.0603 C   0  0  0  0  0  0  0  0  0  0  0  0
   -5.1008    0.2778    0.1239 C   0  0  0  0  0  0  0  0  0  0  0  0
   -5.9275    1.1541   -0.5466 C   0  0  0  0  0  0  0  0  0  0  0  0
   -5.5884   -0.7878    0.8504 C   0  0  0  0  0  0  0  0  0  0  0  0
   -7.3070    0.9552   -0.4879 C   0  0  0  0  0  0  0  0  0  0  0  0
   -6.9676   -0.9866    0.9091 C   0  0  0  0  0  0  0  0  0  0  0  0
   -7.8270   -0.1152    0.2399 C   0  0  0  0  0  0  0  0  0  0  0  0
    3.2306   -0.2334    1.2420 H   0  0  0  0  0  0  0  0  0  0  0  0
    4.4418    0.6161   -1.4321 H   0  0  0  0  0  0  0  0  0  0  0  0
    5.6370   -0.3281    1.2443 H   0  0  0  0  0  0  0  0  0  0  0  0
    4.5243   -3.3897   -0.5218 H   0  0  0  0  0  0  0  0  0  0  0  0
    4.5385   -2.5719    1.0305 H   0  0  0  0  0  0  0  0  0  0  0  0
    6.6457   -2.1465   -0.0839 H   0  0  0  0  0  0  0  0  0  0  0  0
    5.8523   -1.5693   -1.5439 H   0  0  0  0  0  0  0  0  0  0  0  0
    1.8727    0.8798   -1.2577 H   0  0  0  0  0  0  0  0  0  0  0  0
    2.2299   -2.6392    1.3265 H   0  0  0  0  0  0  0  0  0  0  0  0
    1.8559   -3.4236   -0.2105 H   0  0  0  0  0  0  0  0  0  0  0  0
    6.9974    0.7802   -1.2629 H   0  0  0  0  0  0  0  0  0  0  0  0
    2.9736   -2.7684   -2.2917 H   0  0  0  0  0  0  0  0  0  0  0  0
    2.0332   -1.2822   -2.2704 H   0  0  0  0  0  0  0  0  0  0  0  0
    3.7784   -1.2149   -2.4814 H   0  0  0  0  0  0  0  0  0  0  0  0
    2.4767    2.6371    0.3448 H   0  0  0  0  0  0  0  0  0  0  0  0
    0.7495    2.3774    0.4453 H   0  0  0  0  0  0  0  0  0  0  0  0
    1.8006    1.7030    1.6945 H   0  0  0  0  0  0  0  0  0  0  0  0
    8.4927   -0.4173    0.4047 H   0  0  0  0  0  0  0  0  0  0  0  0
    8.7874    1.3297    0.3724 H   0  0  0  0  0  0  0  0  0  0  0  0
    7.8565    0.6246    1.6936 H   0  0  0  0  0  0  0  0  0  0  0  0
   -3.3017   -1.5703    0.3389 H   0  0  0  0  0  0  0  0  0  0  0  0
   -5.5255    1.9852   -1.1199 H   0  0  0  0  0  0  0  0  0  0  0  0
   -4.9611   -1.4655    1.4192 H   0  0  0  0  0  0  0  0  0  0  0  0
   -7.3739   -1.8142    1.4832 H   0  0  0  0  0  0  0  0  0  0  0  0
  1 29  1  0  0  0  0
  2 20  1  0  0  0  0
  2 24  1  0  0  0  0
  3 31  1  0  0  0  0
  4 11  1  0  0  0  0
  4 21  1  0  0  0  0
  5 21  2  0  0  0  0
  6 25  2  0  0  0  0
  7 19  1  0  0  0  0
  7 24  2  0  0  0  0
  8 24  1  0  0  0  0
  8 25  1  0  0  0  0
  8 52  1  0  0  0  0
  9 10  1  0  0  0  0
  9 11  1  0  0  0  0
  9 15  1  0  0  0  0
  9 32  1  0  0  0  0
 10 13  1  0  0  0  0
 10 16  1  0  0  0  0
 10 18  1  0  0  0  0
 11 12  1  0  0  0  0
 11 33  1  0  0  0  0
 12 14  1  0  0  0  0
 12 17  1  0  0  0  0
 12 34  1  0  0  0  0
 13 14  1  0  0  0  0
 13 35  1  0  0  0  0
 13 36  1  0  0  0  0
 14 37  1  0  0  0  0
 14 38  1  0  0  0  0
 15 19  1  0  0  0  0
 15 22  1  0  0  0  0
 15 39  1  0  0  0  0
 16 20  1  0  0  0  0
 16 40  1  0  0  0  0
 16 41  1  0  0  0  0
 17 21  1  0  0  0  0
 17 23  1  0  0  0  0
 17 42  1  0  0  0  0
 18 43  1  0  0  0  0
 18 44  1  0  0  0  0
 18 45  1  0  0  0  0
 19 20  2  0  0  0  0
 22 46  1  0  0  0  0
 22 47  1  0  0  0  0
 22 48  1  0  0  0  0
 23 49  1  0  0  0  0
 23 50  1  0  0  0  0
 23 51  1  0  0  0  0
 25 26  1  0  0  0  0
 26 27  2  0  0  0  0
 26 28  1  0  0  0  0
 27 29  1  0  0  0  0
 27 53  1  0  0  0  0
 28 30  2  0  0  0  0
 28 54  1  0  0  0  0
 29 31  2  0  0  0  0
 30 31  1  0  0  0  0
 30 55  1  0  0  0  0
M  END
> <PUBCHEM_COMPOUND_CID>
11866214

> <PUBCHEM_CONFORMER_RMSD>
0.8

> <PUBCHEM_CONFORMER_DIVERSEORDER>
1
3
5
4
6
2

> <PUBCHEM_MMFF94_PARTIAL_CHARGES>
27
1 -0.18
11 0.28
15 0.18
16 0.18
17 0.06
19 0.05
2 -0.08
20 -0.14
21 0.66
24 0.44
25 0.54
26 0.09
27 -0.15
28 -0.15
29 0.18
3 -0.19
30 -0.15
31 0.19
4 -0.43
5 -0.57
52 0.37
53 0.15
54 0.15
55 0.15
6 -0.57
7 -0.57
8 -0.49

> <PUBCHEM_EFFECTIVE_ROTOR_COUNT>
4.2

> <PUBCHEM_PHARMACOPHORE_FEATURES>
8
1 5 acceptor
1 6 acceptor
1 8 donor
5 2 7 19 20 24 rings
5 4 11 12 17 21 rings
6 26 27 28 29 30 31 rings
6 9 10 11 12 13 14 rings
6 9 10 15 16 19 20 rings

> <PUBCHEM_HEAVY_ATOM_COUNT>
31

> <PUBCHEM_ATOM_DEF_STEREO_COUNT>
6

> <PUBCHEM_ATOM_UDEF_STEREO_COUNT>
0

> <PUBCHEM_BOND_DEF_STEREO_COUNT>
0

> <PUBCHEM_BOND_UDEF_STEREO_COUNT>
0

> <PUBCHEM_ISOTOPIC_ATOM_COUNT>
0

> <PUBCHEM_COMPONENT_COUNT>
1

> <PUBCHEM_CACTVS_TAUTO_COUNT>
6

> <PUBCHEM_CONFORMER_ID>
00B5106600000001

> <PUBCHEM_MMFF94_ENERGY>
81.2343

> <PUBCHEM_FEATURE_SELFOVERLAP>
40.759

> <PUBCHEM_SHAPE_FINGERPRINT>
10 15 18113899385510434778
10299344 5 17632577150367411783
10411042 1 17979637828546676430
10835480 77 18334009455325530373
11315181 36 18272371950485476337
11719270 70 18411979131042696530
125118 31 18113903749239886429
12838862 33 18342442756238182968
13811026 1 18334295357521713323
14117953 113 18272094899166974636
14118638 360 17632020749780109745
14170010 4 18408325492594602124
14400156 413 18410846655778651380
14461889 52 18113905991255058763
14849402 71 18201162139130119881
14856354 85 16128653064368569501
14933364 13 18408887326399689443
150020 25 18335704914639199031
15131766 46 14998565233062210918
15183329 4 16988843878318788117
15289351 153 18340482271324199520
15419008 91 18040704862728536813
15510794 2 18261114085114498891
15840311 113 18410295835360662492
15849732 13 18260268559765157117
15890870 6 18410577314969794180
16120349 18 18413105086810019904
18335252 98 18412831313422022507
18365409 1 16629952351941185014
18608769 82 18337954592860469787
19611394 137 17823713039162425345
20157964 124 18342741802042197878
20554085 129 16950280698170398905
21033648 29 17676205754398346271
21150785 3 16845573119146167669
21521721 280 18341899588756609515
21792934 111 18339069411994022282
22224240 67 18040996258773401187
23081809 10 16701745947773266611
23522609 53 16844471387305267259
23559900 14 18335416873201013081
255183 451 17629212507585679510
27425 322 17241332524813568624
335352 9 18412269420441785518
34797466 226 18060425685444795247
3633792 109 18341334396524018633
4073 2 18114749338053596619
4093350 32 17561368362068287750
4340502 62 18334296474635580102
444735 82 18260834812353964860
4625314 4 18413109458991963838
59682541 35 18187372060458008483
6086070 43 17060054921064858459
6201320 215 13334998480430328943

> <PUBCHEM_SHAPE_MULTIPOLES>
608.84
26.17
2.61
0.93
34.87
0.24
0.28
11.41
0.28
-3.29
0.02
0.32
-0.12
2.44

> <PUBCHEM_SHAPE_SELFOVERLAP>
1313.35

> <PUBCHEM_SHAPE_VOLUME>
341

> <PUBCHEM_COORDINATE_TYPE>
2
5
10

$$$$
