45361473
  -OEChem-12032416313D

 72 75  0     1  0  0  0  0  0999 V2000
   -0.0884    0.9580   -2.0745 O   0  0  0  0  0  0  0  0  0  0  0  0
   -4.7487    2.2648    0.1940 O   0  0  0  0  0  0  0  0  0  0  0  0
    5.5889   -2.2340    0.2143 O   0  0  0  0  0  0  0  0  0  0  0  0
    4.7683   -0.0584    0.0984 N   0  0  0  0  0  0  0  0  0  0  0  0
   -4.3317    0.1832   -0.7404 N   0  0  0  0  0  0  0  0  0  0  0  0
    0.7698    0.4525    1.6112 C   0  0  1  0  0  0  0  0  0  0  0  0
    0.9353    0.3646    0.0574 C   0  0  2  0  0  0  0  0  0  0  0  0
    2.4252    0.6331   -0.3621 C   0  0  1  0  0  0  0  0  0  0  0  0
   -0.1312    1.2304   -0.6730 C   0  0  2  0  0  0  0  0  0  0  0  0
   -0.6791    0.0726    1.9979 C   0  0  0  0  0  0  0  0  0  0  0  0
    1.7184   -0.5705    2.2779 C   0  0  0  0  0  0  0  0  0  0  0  0
   -1.5719    0.9184   -0.2058 C   0  0  1  0  0  0  0  0  0  0  0  0
    3.3774   -0.3525    0.3721 C   0  0  2  0  0  0  0  0  0  0  0  0
   -1.7245    0.9443    1.3149 C   0  0  0  0  0  0  0  0  0  0  0  0
    3.1764   -0.3763    1.8871 C   0  0  0  0  0  0  0  0  0  0  0  0
    1.0773    1.8679    2.1621 C   0  0  0  0  0  0  0  0  0  0  0  0
   -2.5943    1.8699   -0.8395 C   0  0  2  0  0  0  0  0  0  0  0  0
    2.6656    0.5337   -1.8779 C   0  0  0  0  0  0  0  0  0  0  0  0
   -2.2686    3.3127   -0.4691 C   0  0  0  0  0  0  0  0  0  0  0  0
    7.1101   -0.5017   -0.2538 C   0  0  0  0  0  0  0  0  0  0  0  0
   -4.0037    1.4872   -0.3989 C   0  0  0  0  0  0  0  0  0  0  0  0
    5.7467   -1.0305    0.0451 C   0  0  0  0  0  0  0  0  0  0  0  0
    7.3174    0.3281   -1.4868 C   0  0  0  0  0  0  0  0  0  0  0  0
    7.8728   -1.0643   -1.4171 C   0  0  0  0  0  0  0  0  0  0  0  0
   -5.6134   -0.4087   -0.4268 C   0  0  0  0  0  0  0  0  0  0  0  0
   -5.5999   -1.0455    0.9670 C   0  0  0  0  0  0  0  0  0  0  0  0
   -6.0279   -1.4238   -1.4973 C   0  0  0  0  0  0  0  0  0  0  0  0
   -4.7668   -2.3263    1.0168 C   0  0  0  0  0  0  0  0  0  0  0  0
   -5.1942   -2.7041   -1.4433 C   0  0  0  0  0  0  0  0  0  0  0  0
   -5.2054   -3.3250   -0.0498 C   0  0  0  0  0  0  0  0  0  0  0  0
    0.7328   -0.6779   -0.2367 H   0  0  0  0  0  0  0  0  0  0  0  0
    2.6946    1.6579   -0.0770 H   0  0  0  0  0  0  0  0  0  0  0  0
    0.1404    2.2785   -0.5369 H   0  0  0  0  0  0  0  0  0  0  0  0
   -0.8119    0.1389    3.0855 H   0  0  0  0  0  0  0  0  0  0  0  0
   -0.8706   -0.9754    1.7303 H   0  0  0  0  0  0  0  0  0  0  0  0
    1.4178   -1.5891    1.9978 H   0  0  0  0  0  0  0  0  0  0  0  0
    1.6303   -0.5147    3.3704 H   0  0  0  0  0  0  0  0  0  0  0  0
   -1.7862   -0.1072   -0.5345 H   0  0  0  0  0  0  0  0  0  0  0  0
    3.1743   -1.3642   -0.0057 H   0  0  0  0  0  0  0  0  0  0  0  0
   -1.6521    1.9519    1.7293 H   0  0  0  0  0  0  0  0  0  0  0  0
   -2.7086    0.5661    1.6143 H   0  0  0  0  0  0  0  0  0  0  0  0
    3.7711   -1.1871    2.3276 H   0  0  0  0  0  0  0  0  0  0  0  0
    3.5670    0.5456    2.3350 H   0  0  0  0  0  0  0  0  0  0  0  0
    2.1132    2.1730    1.9940 H   0  0  0  0  0  0  0  0  0  0  0  0
    0.9059    1.9054    3.2444 H   0  0  0  0  0  0  0  0  0  0  0  0
    0.4502    2.6398    1.7075 H   0  0  0  0  0  0  0  0  0  0  0  0
   -2.5682    1.7779   -1.9330 H   0  0  0  0  0  0  0  0  0  0  0  0
    2.2688   -0.4029   -2.2828 H   0  0  0  0  0  0  0  0  0  0  0  0
    3.7306    0.5771   -2.1273 H   0  0  0  0  0  0  0  0  0  0  0  0
    2.2089    1.3753   -2.4061 H   0  0  0  0  0  0  0  0  0  0  0  0
    5.0373    0.9164   -0.0018 H   0  0  0  0  0  0  0  0  0  0  0  0
   -0.2736    0.0123   -2.2047 H   0  0  0  0  0  0  0  0  0  0  0  0
   -2.2967    3.5180    0.6034 H   0  0  0  0  0  0  0  0  0  0  0  0
   -3.0240    3.9751   -0.9120 H   0  0  0  0  0  0  0  0  0  0  0  0
   -1.3135    3.6552   -0.8732 H   0  0  0  0  0  0  0  0  0  0  0  0
    7.6941   -0.2424    0.6236 H   0  0  0  0  0  0  0  0  0  0  0  0
    6.4849    0.4979   -2.1585 H   0  0  0  0  0  0  0  0  0  0  0  0
    8.0162    1.1537   -1.4264 H   0  0  0  0  0  0  0  0  0  0  0  0
    8.9453   -1.1744   -1.3119 H   0  0  0  0  0  0  0  0  0  0  0  0
    7.4038   -1.8228   -2.0319 H   0  0  0  0  0  0  0  0  0  0  0  0
   -3.6608   -0.3834   -1.2479 H   0  0  0  0  0  0  0  0  0  0  0  0
   -6.3530    0.4017   -0.4230 H   0  0  0  0  0  0  0  0  0  0  0  0
   -5.2195   -0.3362    1.7117 H   0  0  0  0  0  0  0  0  0  0  0  0
   -6.6306   -1.2858    1.2577 H   0  0  0  0  0  0  0  0  0  0  0  0
   -7.0839   -1.6849   -1.3511 H   0  0  0  0  0  0  0  0  0  0  0  0
   -5.9459   -0.9788   -2.4963 H   0  0  0  0  0  0  0  0  0  0  0  0
   -4.8581   -2.7843    2.0083 H   0  0  0  0  0  0  0  0  0  0  0  0
   -3.7063   -2.0831    0.8770 H   0  0  0  0  0  0  0  0  0  0  0  0
   -4.1608   -2.4942   -1.7431 H   0  0  0  0  0  0  0  0  0  0  0  0
   -5.5891   -3.4261   -2.1673 H   0  0  0  0  0  0  0  0  0  0  0  0
   -6.2162   -3.6833    0.1810 H   0  0  0  0  0  0  0  0  0  0  0  0
   -4.5452   -4.1994   -0.0302 H   0  0  0  0  0  0  0  0  0  0  0  0
  1  9  1  0  0  0  0
  1 52  1  0  0  0  0
  2 21  2  0  0  0  0
  3 22  2  0  0  0  0
  4 13  1  0  0  0  0
  4 22  1  0  0  0  0
  4 51  1  0  0  0  0
  5 21  1  0  0  0  0
  5 25  1  0  0  0  0
  5 61  1  0  0  0  0
  6  7  1  0  0  0  0
  6 10  1  0  0  0  0
  6 11  1  0  0  0  0
  6 16  1  0  0  0  0
  7  8  1  0  0  0  0
  7  9  1  0  0  0  0
  7 31  1  0  0  0  0
  8 13  1  0  0  0  0
  8 18  1  0  0  0  0
  8 32  1  0  0  0  0
  9 12  1  0  0  0  0
  9 33  1  0  0  0  0
 10 14  1  0  0  0  0
 10 34  1  0  0  0  0
 10 35  1  0  0  0  0
 11 15  1  0  0  0  0
 11 36  1  0  0  0  0
 11 37  1  0  0  0  0
 12 14  1  0  0  0  0
 12 17  1  0  0  0  0
 12 38  1  0  0  0  0
 13 15  1  0  0  0  0
 13 39  1  0  0  0  0
 14 40  1  0  0  0  0
 14 41  1  0  0  0  0
 15 42  1  0  0  0  0
 15 43  1  0  0  0  0
 16 44  1  0  0  0  0
 16 45  1  0  0  0  0
 16 46  1  0  0  0  0
 17 19  1  0  0  0  0
 17 21  1  0  0  0  0
 17 47  1  0  0  0  0
 18 48  1  0  0  0  0
 18 49  1  0  0  0  0
 18 50  1  0  0  0  0
 19 53  1  0  0  0  0
 19 54  1  0  0  0  0
 19 55  1  0  0  0  0
 20 22  1  0  0  0  0
 20 23  1  0  0  0  0
 20 24  1  0  0  0  0
 20 56  1  0  0  0  0
 23 24  1  0  0  0  0
 23 57  1  0  0  0  0
 23 58  1  0  0  0  0
 24 59  1  0  0  0  0
 24 60  1  0  0  0  0
 25 26  1  0  0  0  0
 25 27  1  0  0  0  0
 25 62  1  0  0  0  0
 26 28  1  0  0  0  0
 26 63  1  0  0  0  0
 26 64  1  0  0  0  0
 27 29  1  0  0  0  0
 27 65  1  0  0  0  0
 27 66  1  0  0  0  0
 28 30  1  0  0  0  0
 28 67  1  0  0  0  0
 28 68  1  0  0  0  0
 29 30  1  0  0  0  0
 29 69  1  0  0  0  0
 29 70  1  0  0  0  0
 30 71  1  0  0  0  0
 30 72  1  0  0  0  0
M  END
> <PUBCHEM_COMPOUND_CID>
45361473

> <PUBCHEM_CONFORMER_RMSD>
1

> <PUBCHEM_CONFORMER_DIVERSEORDER>
1
125
80
115
126
29
97
19
45
106
116
38
62
109
23
98
128
84
46
86
4
52
107
130
20
55
104
122
85
102
14
72
49
94
71
47
83
40
73
111
127
54
22
105
37
96
34
93
74
113
131
99
103
78
114
89
53
67
95
16
124
68
57
24
32
70
25
123
51
118
31
132
121
69
79
92
129
61
50
90
59
6
75
41
100
60
35
33
43
119
48
39
11
110
91
36
44
101
63
17
87
15
66
120
28
9
7
108
77
30
27
112
13
65
8
64
76
10
18
3
56
58
81
21
88
5
2
12
117
82
42
26

> <PUBCHEM_MMFF94_PARTIAL_CHARGES>
22
1 -0.68
13 0.3
17 0.06
2 -0.57
20 -0.1
21 0.57
22 0.63
23 -0.2
24 -0.2
25 0.3
3 -0.57
4 -0.73
5 -0.73
51 0.37
52 0.4
56 0.1
57 0.1
58 0.1
59 0.1
60 0.1
61 0.37
9 0.28

> <PUBCHEM_EFFECTIVE_ROTOR_COUNT>
10.4

> <PUBCHEM_PHARMACOPHORE_FEATURES>
10
1 1 acceptor
1 1 donor
1 19 hydrophobe
1 2 acceptor
1 3 acceptor
1 4 donor
1 5 donor
6 25 26 27 28 29 30 rings
6 6 7 8 11 13 15 rings
6 6 7 9 10 12 14 rings

> <PUBCHEM_HEAVY_ATOM_COUNT>
30

> <PUBCHEM_ATOM_DEF_STEREO_COUNT>
6

> <PUBCHEM_ATOM_UDEF_STEREO_COUNT>
1

> <PUBCHEM_BOND_DEF_STEREO_COUNT>
0

> <PUBCHEM_BOND_UDEF_STEREO_COUNT>
0

> <PUBCHEM_ISOTOPIC_ATOM_COUNT>
0

> <PUBCHEM_COMPONENT_COUNT>
1

> <PUBCHEM_CACTVS_TAUTO_COUNT>
4

> <PUBCHEM_CONFORMER_ID>
02B4294100000001

> <PUBCHEM_MMFF94_ENERGY>
70.9461

> <PUBCHEM_FEATURE_SELFOVERLAP>
50.76

> <PUBCHEM_SHAPE_FINGERPRINT>
10554248 39 15574714665257086970
11135609 201 8069486845816448479
11315621 246 18334009501979307559
117089 54 17974011940642324019
12166972 35 18343866623991805656
12422481 6 13973702619465624241
12553582 1 18187920751404616065
13257819 101 11891325456929062579
1361 4 18339078190676001894
13673619 4 18131630110173106721
13690498 29 18334853909940670709
13782708 43 18131346436199637598
13947920 75 17821445772469977554
14251751 18 18343301500394204611
14251764 30 18201995534172076907
14767858 380 17240482515845410570
14849402 71 13110379330931749066
14856354 85 18130791123020133749
14931854 50 17386835266588973731
14950920 106 16630242640861108291
14955137 171 17346593101692775320
15183329 4 17603299362710798874
15352257 5 18131634469702530086
15461852 350 18335431158309413886
15510800 12 18059855121274409943
18927931 339 18410852175301262839
20505436 4 17534060771038180689
20739085 24 15554449656048867905
21130935 74 12175608574217327292
21150785 3 18333454244749825414
21781051 124 17203618103570416060
21859007 373 10809611607235491410
22122407 14 9006761129960827758
22288116 15 18040442109134337082
22393880 68 16732971068774019541
2303208 19 17846771914914494034
23559900 14 18336537292138995521
23569914 2 10883942097482140670
24771293 8 17603588547992745324
2747138 104 17132116828014342290
2838139 119 11386368166241574470
3178227 256 16056878044507736950
392239 28 15985103054754003855
484989 97 16517111694539477329
5265222 85 18201718496624700638
58083652 198 14979662283154399338
6009941 240 17203053976437571025
7495541 125 18059571429318847641
8863177 126 17917138511229110842
999808 66 16988848267743833222

> <PUBCHEM_SHAPE_MULTIPOLES>
589.82
18.71
2.78
2.05
19.09
0.37
-0.56
13.53
7.86
-5.15
0.38
0.81
-0.09
0.02

> <PUBCHEM_SHAPE_SELFOVERLAP>
1214.996

> <PUBCHEM_SHAPE_VOLUME>
334.6

> <PUBCHEM_COORDINATE_TYPE>
2
5
10

$$$$
