51136978
  -OEChem-12032416233D

 62 65  0     1  0  0  0  0  0999 V2000
   -6.7651   -0.0732    1.1673 Cl  0  0  0  0  0  0  0  0  0  0  0  0
    8.7032    2.0373    0.5837 F   0  0  0  0  0  0  0  0  0  0  0  0
    6.8484    2.9875    1.2040 F   0  0  0  0  0  0  0  0  0  0  0  0
    7.5583    1.2205    2.2419 F   0  0  0  0  0  0  0  0  0  0  0  0
   -2.9578   -1.5504    0.9238 O   0  0  0  0  0  0  0  0  0  0  0  0
   -1.4089   -2.9509   -1.2228 O   0  0  0  0  0  0  0  0  0  0  0  0
   -4.8992   -3.5833    0.9812 O   0  0  0  0  0  0  0  0  0  0  0  0
   -4.6832   -0.3923   -1.1635 O   0  0  0  0  0  0  0  0  0  0  0  0
    0.5886   -1.3011    0.0063 N   0  0  0  0  0  0  0  0  0  0  0  0
    3.3491   -0.6426   -0.3175 N   0  0  0  0  0  0  0  0  0  0  0  0
   -3.0803    1.0186   -0.2556 N   0  0  0  0  0  0  0  0  0  0  0  0
   -0.5935   -1.7429    0.7253 C   0  0  1  0  0  0  0  0  0  0  0  0
   -1.7623   -0.7511    0.7832 C   0  0  1  0  0  0  0  0  0  0  0  0
   -1.2442   -3.0085    0.1882 C   0  0  1  0  0  0  0  0  0  0  0  0
   -2.5988   -2.9451    0.8839 C   0  0  2  0  0  0  0  0  0  0  0  0
    1.1380   -0.0843    0.6172 C   0  0  0  0  0  0  0  0  0  0  0  0
    1.6080   -2.3572   -0.0072 C   0  0  0  0  0  0  0  0  0  0  0  0
   -1.9589    0.1457   -0.4340 C   0  0  0  0  0  0  0  0  0  0  0  0
    2.3509    0.4236   -0.1657 C   0  0  0  0  0  0  0  0  0  0  0  0
    2.8375   -1.9251   -0.8101 C   0  0  0  0  0  0  0  0  0  0  0  0
   -3.7133   -3.7300    0.2167 C   0  0  0  0  0  0  0  0  0  0  0  0
    4.6707   -0.2718   -0.5897 C   0  0  0  0  0  0  0  0  0  0  0  0
    5.3676    0.5359    0.3088 C   0  0  0  0  0  0  0  0  0  0  0  0
   -4.3742    0.6752   -0.6404 C   0  0  0  0  0  0  0  0  0  0  0  0
    5.2910   -0.7100   -1.7597 C   0  0  0  0  0  0  0  0  0  0  0  0
    6.6850    0.9055    0.0375 C   0  0  0  0  0  0  0  0  0  0  0  0
    6.6084   -0.3404   -2.0310 C   0  0  0  0  0  0  0  0  0  0  0  0
   -5.4232    1.7018   -0.4113 C   0  0  0  0  0  0  0  0  0  0  0  0
    7.3054    0.4673   -1.1325 C   0  0  0  0  0  0  0  0  0  0  0  0
    7.4304    1.7691    0.9976 C   0  0  0  0  0  0  0  0  0  0  0  0
   -6.5371    1.4522    0.3902 C   0  0  0  0  0  0  0  0  0  0  0  0
   -5.2695    2.9452   -1.0243 C   0  0  0  0  0  0  0  0  0  0  0  0
   -7.4974    2.4461    0.5787 C   0  0  0  0  0  0  0  0  0  0  0  0
   -6.2299    3.9392   -0.8359 C   0  0  0  0  0  0  0  0  0  0  0  0
   -7.3438    3.6896   -0.0343 C   0  0  0  0  0  0  0  0  0  0  0  0
   -0.3187   -1.9582    1.7709 H   0  0  0  0  0  0  0  0  0  0  0  0
   -1.6813   -0.1253    1.6809 H   0  0  0  0  0  0  0  0  0  0  0  0
   -0.7029   -3.9254    0.4424 H   0  0  0  0  0  0  0  0  0  0  0  0
   -2.5017   -3.2569    1.9319 H   0  0  0  0  0  0  0  0  0  0  0  0
    1.4487   -0.2923    1.6512 H   0  0  0  0  0  0  0  0  0  0  0  0
    0.4215    0.7371    0.6801 H   0  0  0  0  0  0  0  0  0  0  0  0
    1.9119   -2.6189    1.0156 H   0  0  0  0  0  0  0  0  0  0  0  0
    1.2336   -3.2707   -0.4809 H   0  0  0  0  0  0  0  0  0  0  0  0
   -2.1454   -0.4582   -1.3287 H   0  0  0  0  0  0  0  0  0  0  0  0
   -1.1068    0.7904   -0.6498 H   0  0  0  0  0  0  0  0  0  0  0  0
    2.7611    1.2895    0.3665 H   0  0  0  0  0  0  0  0  0  0  0  0
    2.0398    0.7722   -1.1591 H   0  0  0  0  0  0  0  0  0  0  0  0
    2.5710   -1.8382   -1.8714 H   0  0  0  0  0  0  0  0  0  0  0  0
    3.5991   -2.7092   -0.7137 H   0  0  0  0  0  0  0  0  0  0  0  0
   -3.4621   -4.7930    0.1534 H   0  0  0  0  0  0  0  0  0  0  0  0
   -3.9290   -3.3445   -0.7848 H   0  0  0  0  0  0  0  0  0  0  0  0
   -1.7271   -3.8210   -1.5175 H   0  0  0  0  0  0  0  0  0  0  0  0
   -2.9159    1.9219    0.1796 H   0  0  0  0  0  0  0  0  0  0  0  0
   -5.5937   -4.0962    0.5338 H   0  0  0  0  0  0  0  0  0  0  0  0
    4.8979    0.8714    1.2307 H   0  0  0  0  0  0  0  0  0  0  0  0
    4.7744   -1.3279   -2.4885 H   0  0  0  0  0  0  0  0  0  0  0  0
    7.0906   -0.6788   -2.9436 H   0  0  0  0  0  0  0  0  0  0  0  0
    8.3304    0.7444   -1.3631 H   0  0  0  0  0  0  0  0  0  0  0  0
   -4.4104    3.1550   -1.6566 H   0  0  0  0  0  0  0  0  0  0  0  0
   -8.3713    2.2679    1.2002 H   0  0  0  0  0  0  0  0  0  0  0  0
   -6.1110    4.9070   -1.3142 H   0  0  0  0  0  0  0  0  0  0  0  0
   -8.0916    4.4636    0.1121 H   0  0  0  0  0  0  0  0  0  0  0  0
  1 31  1  0  0  0  0
  2 30  1  0  0  0  0
  3 30  1  0  0  0  0
  4 30  1  0  0  0  0
  5 13  1  0  0  0  0
  5 15  1  0  0  0  0
  6 14  1  0  0  0  0
  6 52  1  0  0  0  0
  7 21  1  0  0  0  0
  7 54  1  0  0  0  0
  8 24  2  0  0  0  0
  9 12  1  0  0  0  0
  9 16  1  0  0  0  0
  9 17  1  0  0  0  0
 10 19  1  0  0  0  0
 10 20  1  0  0  0  0
 10 22  1  0  0  0  0
 11 18  1  0  0  0  0
 11 24  1  0  0  0  0
 11 53  1  0  0  0  0
 12 13  1  0  0  0  0
 12 14  1  0  0  0  0
 12 36  1  0  0  0  0
 13 18  1  0  0  0  0
 13 37  1  0  0  0  0
 14 15  1  0  0  0  0
 14 38  1  0  0  0  0
 15 21  1  0  0  0  0
 15 39  1  0  0  0  0
 16 19  1  0  0  0  0
 16 40  1  0  0  0  0
 16 41  1  0  0  0  0
 17 20  1  0  0  0  0
 17 42  1  0  0  0  0
 17 43  1  0  0  0  0
 18 44  1  0  0  0  0
 18 45  1  0  0  0  0
 19 46  1  0  0  0  0
 19 47  1  0  0  0  0
 20 48  1  0  0  0  0
 20 49  1  0  0  0  0
 21 50  1  0  0  0  0
 21 51  1  0  0  0  0
 22 23  1  0  0  0  0
 22 25  2  0  0  0  0
 23 26  2  0  0  0  0
 23 55  1  0  0  0  0
 24 28  1  0  0  0  0
 25 27  1  0  0  0  0
 25 56  1  0  0  0  0
 26 29  1  0  0  0  0
 26 30  1  0  0  0  0
 27 29  2  0  0  0  0
 27 57  1  0  0  0  0
 28 31  1  0  0  0  0
 28 32  2  0  0  0  0
 29 58  1  0  0  0  0
 31 33  2  0  0  0  0
 32 34  1  0  0  0  0
 32 59  1  0  0  0  0
 33 35  1  0  0  0  0
 33 60  1  0  0  0  0
 34 35  2  0  0  0  0
 34 61  1  0  0  0  0
 35 62  1  0  0  0  0
M  END
> <PUBCHEM_COMPOUND_CID>
51136978

> <PUBCHEM_CONFORMER_RMSD>
1

> <PUBCHEM_CONFORMER_DIVERSEORDER>
1
46
108
65
126
75
127
138
76
79
119
87
51
32
120
6
99
45
88
58
64
142
112
139
117
134
21
94
129
72
83
69
110
78
50
89
130
96
133
90
25
77
91
135
4
115
145
56
57
103
132
84
85
128
7
41
95
16
104
11
113
106
97
63
62
18
131
54
111
122
48
82
20
34
15
98
121
107
9
92
101
13
114
144
74
38
19
143
47
22
80
140
44
124
73
86
67
66
118
28
136
137
52
33
10
102
105
35
43
61
8
141
39
2
93
24
31
37
116
53
30
109
59
55
81
17
3
100
12
27
29
23
125
70
68
40
60
14
42
36
26
49
5
71
123

> <PUBCHEM_MMFF94_PARTIAL_CHARGES>
46
1 -0.18
10 -0.84
11 -0.73
12 0.27
13 0.28
14 0.28
15 0.28
16 0.27
17 0.27
18 0.3
19 0.37
2 -0.34
20 0.37
21 0.28
22 0.1
23 -0.15
24 0.54
25 -0.15
26 -0.14
27 -0.15
28 0.09
29 -0.15
3 -0.34
30 1.16
31 0.18
32 -0.15
33 -0.15
34 -0.15
35 -0.15
4 -0.34
5 -0.56
52 0.4
53 0.37
54 0.4
55 0.15
56 0.15
57 0.15
58 0.15
59 0.15
6 -0.68
60 0.15
61 0.15
62 0.15
7 -0.68
8 -0.57
9 -0.81

> <PUBCHEM_EFFECTIVE_ROTOR_COUNT>
10.2

> <PUBCHEM_PHARMACOPHORE_FEATURES>
13
1 10 cation
1 11 donor
1 5 acceptor
1 6 acceptor
1 6 donor
1 7 acceptor
1 7 donor
1 8 acceptor
1 9 cation
5 5 12 13 14 15 rings
6 22 23 25 26 27 29 rings
6 28 31 32 33 34 35 rings
6 9 10 16 17 19 20 rings

> <PUBCHEM_HEAVY_ATOM_COUNT>
35

> <PUBCHEM_ATOM_DEF_STEREO_COUNT>
4

> <PUBCHEM_ATOM_UDEF_STEREO_COUNT>
0

> <PUBCHEM_BOND_DEF_STEREO_COUNT>
0

> <PUBCHEM_BOND_UDEF_STEREO_COUNT>
0

> <PUBCHEM_ISOTOPIC_ATOM_COUNT>
0

> <PUBCHEM_COMPONENT_COUNT>
1

> <PUBCHEM_CACTVS_TAUTO_COUNT>
2

> <PUBCHEM_CONFORMER_ID>
030C49D200000001

> <PUBCHEM_MMFF94_ENERGY>
101.0207

> <PUBCHEM_FEATURE_SELFOVERLAP>
65.98

> <PUBCHEM_SHAPE_FINGERPRINT>
10 15 17967822596541618609
10280341 67 18262789671356857509
10369192 42 18410294671471816333
10411042 1 17902802091966039643
10835480 77 18202285814559809504
11007060 377 18410016533547505395
11135609 187 18341894044069530537
11135609 201 18263077735498455117
11408170 108 11674883286636857105
11411753 3 18340506520652361766
11475781 23 18343301453597691300
11621639 254 18342169012856408485
12539747 72 18260263053490593977
12988421 55 17458618987436206719
14294032 229 17894915100693516109
14395042 24 17895491314761448043
15320295 198 18201158871129655160
15328684 2 17604694655961807176
15803439 3 17346588639569915223
16126227 98 18336268964325930365
16994733 274 18187649042588132753
18608769 82 18409735097236335595
19302320 297 18040441010055746164
19304671 126 18057330491572049079
21033648 29 18334580122417180635
21424621 283 18337110060213231337
21585481 104 16199597861448498825
21756936 100 18409164407878226543
21859007 373 18411697716553606892
23522609 53 17096104583672756606
23569914 152 17339574687229181022
249057 25 17168428297942415462
3918712 181 18339635633869602128
4073 2 18410857667931691326
44249763 50 18413106186390206694
44880568 143 18339367469671014860
474113 269 10737581540007038337
504579 68 13758078515192162754
563151 248 14418141711712931200
636775 72 18410853291307574553
6698420 124 18199763461850051483
9689198 14 18343304730093625637
9896288 288 18114468967253220779

> <PUBCHEM_SHAPE_MULTIPOLES>
661.91
25.87
4.55
1.37
22.01
0.97
0.04
-28.31
-2.25
-8.34
-0.44
2.06
-0.22
3.72

> <PUBCHEM_SHAPE_SELFOVERLAP>
1408.754

> <PUBCHEM_SHAPE_VOLUME>
369.2

> <PUBCHEM_COORDINATE_TYPE>
2
5
10

$$$$
