11885117
  -OEChem-12032416213D

 51 55  0     1  0  0  0  0  0999 V2000
   -3.7497   -3.3513   -0.0712 S   0  0  0  0  0  0  0  0  0  0  0  0
    1.0547    1.8502    1.4900 O   0  0  0  0  0  0  0  0  0  0  0  0
   -2.9592   -1.1666    2.4116 O   0  0  0  0  0  0  0  0  0  0  0  0
    6.7539   -0.5022    0.3896 O   0  0  0  0  0  0  0  0  0  0  0  0
   -3.5046    0.1177    0.5337 N   0  0  0  0  0  0  0  0  0  0  0  0
   -0.8162    1.7179    0.1036 N   0  0  0  0  0  0  0  0  0  0  0  0
   -3.1273    2.5580    0.8245 C   0  0  1  0  0  0  0  0  0  0  0  0
   -2.8323    1.5308   -1.3937 C   0  0  2  0  0  0  0  0  0  0  0  0
   -3.3617    2.7666   -0.6678 C   0  0  0  0  0  0  0  0  0  0  0  0
   -3.8693    1.3004    1.3132 C   0  0  0  0  0  0  0  0  0  0  0  0
   -1.6168    2.4730    1.0789 C   0  0  0  0  0  0  0  0  0  0  0  0
   -3.6095    0.2834   -0.9254 C   0  0  0  0  0  0  0  0  0  0  0  0
   -1.3520    1.3341   -1.1283 C   0  0  0  0  0  0  0  0  0  0  0  0
   -0.5699    0.7550   -2.0533 C   0  0  0  0  0  0  0  0  0  0  0  0
    0.5362    1.4971    0.4293 C   0  0  0  0  0  0  0  0  0  0  0  0
   -3.0476   -1.0261    1.1929 C   0  0  0  0  0  0  0  0  0  0  0  0
    1.3757    0.8032   -0.6091 C   0  0  0  0  0  0  0  0  0  0  0  0
    0.8130    0.4825   -1.7836 C   0  0  0  0  0  0  0  0  0  0  0  0
   -2.6065   -2.1622    0.3767 C   0  0  0  0  0  0  0  0  0  0  0  0
    2.7838    0.4619   -0.3472 C   0  0  0  0  0  0  0  0  0  0  0  0
   -1.3507   -2.4328   -0.1093 C   0  0  0  0  0  0  0  0  0  0  0  0
    3.7947    1.3649   -0.6778 C   0  0  0  0  0  0  0  0  0  0  0  0
    3.1084   -0.7656    0.2315 C   0  0  0  0  0  0  0  0  0  0  0  0
   -1.3236   -3.6401   -0.8652 C   0  0  0  0  0  0  0  0  0  0  0  0
   -2.5616   -4.2414   -0.9245 C   0  0  0  0  0  0  0  0  0  0  0  0
    5.1286    1.0408   -0.4302 C   0  0  0  0  0  0  0  0  0  0  0  0
    4.4424   -1.0896    0.4793 C   0  0  0  0  0  0  0  0  0  0  0  0
    5.4524   -0.1863    0.1484 C   0  0  0  0  0  0  0  0  0  0  0  0
    7.0145   -1.7734    0.9833 C   0  0  0  0  0  0  0  0  0  0  0  0
   -3.5239    3.4150    1.3825 H   0  0  0  0  0  0  0  0  0  0  0  0
   -3.0040    1.6643   -2.4696 H   0  0  0  0  0  0  0  0  0  0  0  0
   -2.8499    3.6723   -1.0167 H   0  0  0  0  0  0  0  0  0  0  0  0
   -4.4308    2.9025   -0.8720 H   0  0  0  0  0  0  0  0  0  0  0  0
   -3.6764    1.1378    2.3789 H   0  0  0  0  0  0  0  0  0  0  0  0
   -4.9515    1.4366    1.1979 H   0  0  0  0  0  0  0  0  0  0  0  0
   -1.2025    3.4906    1.0749 H   0  0  0  0  0  0  0  0  0  0  0  0
   -1.4190    2.0711    2.0806 H   0  0  0  0  0  0  0  0  0  0  0  0
   -4.6760    0.3964   -1.1561 H   0  0  0  0  0  0  0  0  0  0  0  0
   -3.2614   -0.6025   -1.4615 H   0  0  0  0  0  0  0  0  0  0  0  0
   -0.9652    0.4341   -3.0115 H   0  0  0  0  0  0  0  0  0  0  0  0
    1.3738   -0.0225   -2.5647 H   0  0  0  0  0  0  0  0  0  0  0  0
   -0.4876   -1.8059    0.0710 H   0  0  0  0  0  0  0  0  0  0  0  0
    3.5582    2.3258   -1.1285 H   0  0  0  0  0  0  0  0  0  0  0  0
    2.3313   -1.4793    0.4953 H   0  0  0  0  0  0  0  0  0  0  0  0
   -0.4405   -4.0475   -1.3399 H   0  0  0  0  0  0  0  0  0  0  0  0
   -2.8250   -5.1609   -1.4278 H   0  0  0  0  0  0  0  0  0  0  0  0
    5.9111    1.7486   -0.6899 H   0  0  0  0  0  0  0  0  0  0  0  0
    4.6233   -2.0591    0.9308 H   0  0  0  0  0  0  0  0  0  0  0  0
    6.7008   -2.5946    0.3300 H   0  0  0  0  0  0  0  0  0  0  0  0
    6.5752   -1.8478    1.9839 H   0  0  0  0  0  0  0  0  0  0  0  0
    8.0996   -1.8575    1.1037 H   0  0  0  0  0  0  0  0  0  0  0  0
  1 19  1  0  0  0  0
  1 25  1  0  0  0  0
  2 15  2  0  0  0  0
  3 16  2  0  0  0  0
  4 28  1  0  0  0  0
  4 29  1  0  0  0  0
  5 10  1  0  0  0  0
  5 12  1  0  0  0  0
  5 16  1  0  0  0  0
  6 11  1  0  0  0  0
  6 13  1  0  0  0  0
  6 15  1  0  0  0  0
  7  9  1  0  0  0  0
  7 10  1  0  0  0  0
  7 11  1  0  0  0  0
  7 30  1  0  0  0  0
  8  9  1  0  0  0  0
  8 12  1  0  0  0  0
  8 13  1  0  0  0  0
  8 31  1  0  0  0  0
  9 32  1  0  0  0  0
  9 33  1  0  0  0  0
 10 34  1  0  0  0  0
 10 35  1  0  0  0  0
 11 36  1  0  0  0  0
 11 37  1  0  0  0  0
 12 38  1  0  0  0  0
 12 39  1  0  0  0  0
 13 14  2  0  0  0  0
 14 18  1  0  0  0  0
 14 40  1  0  0  0  0
 15 17  1  0  0  0  0
 16 19  1  0  0  0  0
 17 18  2  0  0  0  0
 17 20  1  0  0  0  0
 18 41  1  0  0  0  0
 19 21  2  0  0  0  0
 20 22  2  0  0  0  0
 20 23  1  0  0  0  0
 21 24  1  0  0  0  0
 21 42  1  0  0  0  0
 22 26  1  0  0  0  0
 22 43  1  0  0  0  0
 23 27  2  0  0  0  0
 23 44  1  0  0  0  0
 24 25  2  0  0  0  0
 24 45  1  0  0  0  0
 25 46  1  0  0  0  0
 26 28  2  0  0  0  0
 26 47  1  0  0  0  0
 27 28  1  0  0  0  0
 27 48  1  0  0  0  0
 29 49  1  0  0  0  0
 29 50  1  0  0  0  0
 29 51  1  0  0  0  0
M  END
> <PUBCHEM_COMPOUND_CID>
11885117

> <PUBCHEM_CONFORMER_RMSD>
0.8

> <PUBCHEM_CONFORMER_DIVERSEORDER>
1
10
7
4
11
6
5
9
8
3
2

> <PUBCHEM_MMFF94_PARTIAL_CHARGES>
36
1 -0.08
10 0.3
11 0.3
12 0.3
13 -0.03
14 -0.15
15 0.62
16 0.71
17 -0.01
18 -0.15
19 -0.05
2 -0.57
20 0.03
21 -0.15
22 -0.15
23 -0.15
24 -0.15
25 -0.11
26 -0.15
27 -0.15
28 0.08
29 0.28
3 -0.57
4 -0.36
40 0.15
41 0.15
42 0.15
43 0.15
44 0.15
45 0.15
46 0.15
47 0.15
48 0.15
5 -0.66
6 -0.47
8 0.14

> <PUBCHEM_EFFECTIVE_ROTOR_COUNT>
5

> <PUBCHEM_PHARMACOPHORE_FEATURES>
8
1 2 acceptor
1 3 acceptor
1 4 acceptor
5 1 19 21 24 25 rings
6 20 22 23 26 27 28 rings
6 5 7 8 9 10 12 rings
6 6 13 14 15 17 18 rings
6 6 7 8 9 11 13 rings

> <PUBCHEM_HEAVY_ATOM_COUNT>
29

> <PUBCHEM_ATOM_DEF_STEREO_COUNT>
2

> <PUBCHEM_ATOM_UDEF_STEREO_COUNT>
0

> <PUBCHEM_BOND_DEF_STEREO_COUNT>
0

> <PUBCHEM_BOND_UDEF_STEREO_COUNT>
0

> <PUBCHEM_ISOTOPIC_ATOM_COUNT>
0

> <PUBCHEM_COMPONENT_COUNT>
1

> <PUBCHEM_CACTVS_TAUTO_COUNT>
1

> <PUBCHEM_CONFORMER_ID>
00B55A3D00000001

> <PUBCHEM_MMFF94_ENERGY>
88.3606

> <PUBCHEM_FEATURE_SELFOVERLAP>
42.192

> <PUBCHEM_SHAPE_FINGERPRINT>
10291535 26 9295290546972116847
10483366 6 18339907308896202623
10675989 125 17184464313713404364
11014199 57 17832991924642007058
11135609 149 17263532888613021423
11370993 70 18265053522742565573
11524674 6 18341326678520606743
11552529 35 18340486767606182484
12422481 6 17901141605578162273
12633257 1 17844270586117219707
13004483 165 18125718148147064359
13583140 156 18060132137858314848
13631057 29 18266178525217313468
14020679 6 17703521995345785385
14068700 675 17701534250285234687
14844126 61 18410575119334456899
14950920 106 17917438678130029600
15021287 119 17385445410797295732
15183329 4 8502655918372451440
15361156 5 17894923901946752638
16728300 4 18114741525961824515
16994733 274 16055767426421770513
20511986 3 18040426681854299272
20775530 9 17765719405149891303
23559900 14 18338223989851554385
23728640 28 18411141338079639499
3383291 50 18341607110232246935
397830 11 18129366246851036610
4409770 3 18410006633410426653
463206 1 17904205076448588763
484985 159 18336817663098192895
5104073 3 18341319068814342088
5924683 9 18411135878622259959
7970288 3 17609508472303189619
9981440 41 18268435625057721249

> <PUBCHEM_SHAPE_MULTIPOLES>
573.09
11.88
4.2
1.58
25.41
3.95
-0.04
3.78
-3.07
-5.78
0.35
-1.05
-0.3
-0.98

> <PUBCHEM_SHAPE_SELFOVERLAP>
1252.389

> <PUBCHEM_SHAPE_VOLUME>
312

> <PUBCHEM_COORDINATE_TYPE>
2
5
10

$$$$
