40778244
  -OEChem-12032416173D

 51 53  0     1  0  0  0  0  0999 V2000
   -2.1763   -0.3438    0.4857 O   0  0  0  0  0  0  0  0  0  0  0  0
   -5.5921    0.2363   -0.4605 O   0  0  0  0  0  0  0  0  0  0  0  0
   -4.8068   -1.2566    1.7127 O   0  0  0  0  0  0  0  0  0  0  0  0
   -2.4152    3.7081   -0.0448 O   0  0  0  0  0  0  0  0  0  0  0  0
   -0.0349   -0.8497   -1.4985 O   0  0  0  0  0  0  0  0  0  0  0  0
   -0.6215   -2.6500   -0.1574 N   0  0  0  0  0  0  0  0  0  0  0  0
   -0.5679    2.3100   -0.2285 N   0  0  0  0  0  0  0  0  0  0  0  0
    3.3296    1.0594    1.4002 N   0  0  0  0  0  0  0  0  0  0  0  0
   -4.3240   -0.3832   -0.4862 C   0  0  2  0  0  0  0  0  0  0  0  0
   -4.2156   -1.5677    0.4516 C   0  0  1  0  0  0  0  0  0  0  0  0
   -3.2328    0.5289    0.0480 C   0  0  2  0  0  0  0  0  0  0  0  0
   -2.7080   -1.6784    0.6502 C   0  0  1  0  0  0  0  0  0  0  0  0
   -2.6975    1.4995   -0.9895 C   0  0  0  0  0  0  0  0  0  0  0  0
   -2.0357   -2.5776   -0.3783 C   0  0  0  0  0  0  0  0  0  0  0  0
   -1.9083    2.6381   -0.3703 C   0  0  0  0  0  0  0  0  0  0  0  0
    0.2804   -1.7663   -0.7443 C   0  0  0  0  0  0  0  0  0  0  0  0
    0.4104    3.2132    0.3327 C   0  0  0  0  0  0  0  0  0  0  0  0
    1.7161   -1.9911   -0.4358 C   0  0  0  0  0  0  0  0  0  0  0  0
    1.7822    2.6040    0.3683 C   0  0  0  0  0  0  0  0  0  0  0  0
    2.6968   -1.5864   -1.3414 C   0  0  0  0  0  0  0  0  0  0  0  0
    2.0833   -2.6073    0.7604 C   0  0  0  0  0  0  0  0  0  0  0  0
    2.7599    2.9853   -0.5440 C   0  0  0  0  0  0  0  0  0  0  0  0
    2.1145    1.6456    1.3121 C   0  0  0  0  0  0  0  0  0  0  0  0
    4.0447   -1.7979   -1.0507 C   0  0  0  0  0  0  0  0  0  0  0  0
    3.4310   -2.8186    1.0513 C   0  0  0  0  0  0  0  0  0  0  0  0
    4.4116   -2.4140    0.1455 C   0  0  0  0  0  0  0  0  0  0  0  0
    4.0219    2.4047   -0.4853 C   0  0  0  0  0  0  0  0  0  0  0  0
    4.2541    1.4554    0.4967 C   0  0  0  0  0  0  0  0  0  0  0  0
   -4.1008   -0.6925   -1.5144 H   0  0  0  0  0  0  0  0  0  0  0  0
   -4.6964   -2.4722    0.0686 H   0  0  0  0  0  0  0  0  0  0  0  0
   -3.5884    1.0858    0.9248 H   0  0  0  0  0  0  0  0  0  0  0  0
   -2.4501   -2.0065    1.6640 H   0  0  0  0  0  0  0  0  0  0  0  0
   -3.5265    1.9623   -1.5392 H   0  0  0  0  0  0  0  0  0  0  0  0
   -2.0732    0.9834   -1.7282 H   0  0  0  0  0  0  0  0  0  0  0  0
   -2.2059   -2.2097   -1.3961 H   0  0  0  0  0  0  0  0  0  0  0  0
   -2.4299   -3.5969   -0.3111 H   0  0  0  0  0  0  0  0  0  0  0  0
   -6.2502   -0.4372   -0.7025 H   0  0  0  0  0  0  0  0  0  0  0  0
   -4.6807   -2.0283    2.2909 H   0  0  0  0  0  0  0  0  0  0  0  0
   -0.2898   -3.4206    0.4124 H   0  0  0  0  0  0  0  0  0  0  0  0
   -0.2571    1.3880   -0.5228 H   0  0  0  0  0  0  0  0  0  0  0  0
    0.0884    3.4865    1.3446 H   0  0  0  0  0  0  0  0  0  0  0  0
    0.3997    4.1356   -0.2597 H   0  0  0  0  0  0  0  0  0  0  0  0
    2.4309   -1.1067   -2.2797 H   0  0  0  0  0  0  0  0  0  0  0  0
    1.3543   -2.9080    1.5070 H   0  0  0  0  0  0  0  0  0  0  0  0
    2.5503    3.7317   -1.3053 H   0  0  0  0  0  0  0  0  0  0  0  0
    1.3935    1.3059    2.0493 H   0  0  0  0  0  0  0  0  0  0  0  0
    4.8083   -1.4818   -1.7553 H   0  0  0  0  0  0  0  0  0  0  0  0
    3.7179   -3.2907    1.9863 H   0  0  0  0  0  0  0  0  0  0  0  0
    5.4611   -2.5759    0.3731 H   0  0  0  0  0  0  0  0  0  0  0  0
    4.7993    2.6860   -1.1864 H   0  0  0  0  0  0  0  0  0  0  0  0
    5.2223    0.9740    0.5857 H   0  0  0  0  0  0  0  0  0  0  0  0
  1 11  1  0  0  0  0
  1 12  1  0  0  0  0
  2  9  1  0  0  0  0
  2 37  1  0  0  0  0
  3 10  1  0  0  0  0
  3 38  1  0  0  0  0
  4 15  2  0  0  0  0
  5 16  2  0  0  0  0
  6 14  1  0  0  0  0
  6 16  1  0  0  0  0
  6 39  1  0  0  0  0
  7 15  1  0  0  0  0
  7 17  1  0  0  0  0
  7 40  1  0  0  0  0
  8 23  1  0  0  0  0
  8 28  2  0  0  0  0
  9 10  1  0  0  0  0
  9 11  1  0  0  0  0
  9 29  1  0  0  0  0
 10 12  1  0  0  0  0
 10 30  1  0  0  0  0
 11 13  1  0  0  0  0
 11 31  1  0  0  0  0
 12 14  1  0  0  0  0
 12 32  1  0  0  0  0
 13 15  1  0  0  0  0
 13 33  1  0  0  0  0
 13 34  1  0  0  0  0
 14 35  1  0  0  0  0
 14 36  1  0  0  0  0
 16 18  1  0  0  0  0
 17 19  1  0  0  0  0
 17 41  1  0  0  0  0
 17 42  1  0  0  0  0
 18 20  2  0  0  0  0
 18 21  1  0  0  0  0
 19 22  1  0  0  0  0
 19 23  2  0  0  0  0
 20 24  1  0  0  0  0
 20 43  1  0  0  0  0
 21 25  2  0  0  0  0
 21 44  1  0  0  0  0
 22 27  2  0  0  0  0
 22 45  1  0  0  0  0
 23 46  1  0  0  0  0
 24 26  2  0  0  0  0
 24 47  1  0  0  0  0
 25 26  1  0  0  0  0
 25 48  1  0  0  0  0
 26 49  1  0  0  0  0
 27 28  1  0  0  0  0
 27 50  1  0  0  0  0
 28 51  1  0  0  0  0
M  END
> <PUBCHEM_COMPOUND_CID>
40778244

> <PUBCHEM_CONFORMER_RMSD>
1.2

> <PUBCHEM_CONFORMER_DIVERSEORDER>
1
55
129
102
165
43
21
139
137
63
8
101
46
103
26
73
105
7
96
100
89
75
106
152
94
10
88
11
82
104
9
65
91
120
162
126
54
14
50
111
159
167
144
132
70
27
80
2
107
95
157
150
56
164
24
114
76
156
77
98
67
84
140
81
23
142
166
119
127
115
12
90
85
51
39
161
122
112
130
30
158
109
71
113
22
163
135
145
151
38
59
41
29
44
61
131
124
58
34
40
20
133
93
37
3
136
125
160
168
116
154
87
117
35
155
141
66
83
69
60
52
19
121
6
36
147
18
15
153
32
17
123
53
31
92
148
45
68
110
128
28
138
149
72
57
42
146
79
49
47
16
33
143
97
48
134
108
118
64
25
78
99
86
74
62
13
4
5

> <PUBCHEM_MMFF94_PARTIAL_CHARGES>
41
1 -0.56
10 0.28
11 0.28
12 0.28
13 0.06
14 0.3
15 0.57
16 0.54
17 0.44
18 0.09
19 -0.14
2 -0.68
20 -0.15
21 -0.15
22 -0.15
23 0.16
24 -0.15
25 -0.15
26 -0.15
27 -0.15
28 0.16
3 -0.68
37 0.4
38 0.4
39 0.37
4 -0.57
40 0.37
43 0.15
44 0.15
45 0.15
46 0.15
47 0.15
48 0.15
49 0.15
5 -0.57
50 0.15
51 0.15
6 -0.73
7 -0.73
8 -0.62
9 0.28

> <PUBCHEM_EFFECTIVE_ROTOR_COUNT>
10

> <PUBCHEM_PHARMACOPHORE_FEATURES>
13
1 1 acceptor
1 2 acceptor
1 2 donor
1 3 acceptor
1 3 donor
1 4 acceptor
1 5 acceptor
1 6 donor
1 7 donor
1 8 acceptor
5 1 9 10 11 12 rings
6 18 20 21 24 25 26 rings
6 8 19 22 23 27 28 rings

> <PUBCHEM_HEAVY_ATOM_COUNT>
28

> <PUBCHEM_ATOM_DEF_STEREO_COUNT>
4

> <PUBCHEM_ATOM_UDEF_STEREO_COUNT>
0

> <PUBCHEM_BOND_DEF_STEREO_COUNT>
0

> <PUBCHEM_BOND_UDEF_STEREO_COUNT>
0

> <PUBCHEM_ISOTOPIC_ATOM_COUNT>
0

> <PUBCHEM_COMPONENT_COUNT>
1

> <PUBCHEM_CACTVS_TAUTO_COUNT>
4

> <PUBCHEM_CONFORMER_ID>
026E3A0400000001

> <PUBCHEM_MMFF94_ENERGY>
66.9478

> <PUBCHEM_FEATURE_SELFOVERLAP>
65.987

> <PUBCHEM_SHAPE_FINGERPRINT>
1100329 8 17979074886127635041
11513181 2 18131351903471460287
11578080 2 17459451317141847975
12422481 6 18126251252884150690
12633257 1 18197223538007299209
12645989 146 18200589173091801502
13122387 1 17908422455185883056
13140716 1 18197776592192981800
13402501 40 18411419548332468524
14114211 80 17764900238895533572
14251764 38 18338793425199967109
14725015 67 18194387914757123857
14790565 3 17043735612940363312
15420108 30 17987529267657629047
17093844 170 18340205314621766624
20721686 56 18409727382720756298
20764821 26 18337952272971533212
20905425 154 18342463659706726188
23227448 37 18270115841717689711
23559900 14 18335415738363970975
3298306 158 18339639069932433901
338550 245 18335702771535102772
392239 28 18408888421094539515
508706 21 18263073332286714381
57091435 65 18409727408938654088
5776283 40 17976843183363084732
59755656 215 18411139177573907316

> <PUBCHEM_SHAPE_MULTIPOLES>
531.94
9.72
4.98
1.2
5.17
2.14
-0.09
-2.05
-0.87
-2.85
-0.12
-0.3
-0.29
0.82

> <PUBCHEM_SHAPE_SELFOVERLAP>
1127.829

> <PUBCHEM_SHAPE_VOLUME>
295.4

> <PUBCHEM_COORDINATE_TYPE>
2
5
10

$$$$
