25389540
  -OEChem-12032416163D

 66 69  0     1  0  0  0  0  0999 V2000
   -3.6747    1.1802   -0.0458 O   0  0  0  0  0  0  0  0  0  0  0  0
   -3.4168    2.4664    1.8394 O   0  0  0  0  0  0  0  0  0  0  0  0
    3.5675    2.9815   -0.1594 O   0  0  0  0  0  0  0  0  0  0  0  0
    6.2060    2.1146   -0.2602 O   0  0  0  0  0  0  0  0  0  0  0  0
   -3.6349   -2.4921    0.5437 N   0  0  2  0  0  0  0  0  0  0  0  0
    1.0412   -3.3668    0.6718 N   0  0  0  0  0  0  0  0  0  0  0  0
    2.2373   -2.7632    0.7776 N   0  0  0  0  0  0  0  0  0  0  0  0
   -3.7455    3.4302   -0.2453 N   0  0  0  0  0  0  0  0  0  0  0  0
   -2.0476   -2.6278   -1.5167 C   0  0  2  0  0  0  0  0  0  0  0  0
   -1.3157   -3.1098   -0.2336 C   0  0  2  0  0  0  0  0  0  0  0  0
   -3.6542   -1.2040   -0.1985 C   0  0  2  0  0  0  0  0  0  0  0  0
   -2.5697   -1.1922   -1.2973 C   0  0  0  0  0  0  0  0  0  0  0  0
   -3.2824   -3.5375   -1.6931 C   0  0  0  0  0  0  0  0  0  0  0  0
   -2.2504   -2.8107    0.9732 C   0  0  0  0  0  0  0  0  0  0  0  0
   -4.0887   -3.5570   -0.3827 C   0  0  0  0  0  0  0  0  0  0  0  0
    0.1081   -2.6279    0.0055 C   0  0  0  0  0  0  0  0  0  0  0  0
   -3.5375    0.0060    0.7308 C   0  0  0  0  0  0  0  0  0  0  0  0
    0.7374   -1.4597   -0.3489 C   0  0  0  0  0  0  0  0  0  0  0  0
    2.0456   -1.5987    0.1522 C   0  0  0  0  0  0  0  0  0  0  0  0
    0.8597   -4.6792    1.2475 C   0  0  0  0  0  0  0  0  0  0  0  0
    3.1146   -0.6401    0.0464 C   0  0  0  0  0  0  0  0  0  0  0  0
   -3.5957    2.3746    0.6293 C   0  0  0  0  0  0  0  0  0  0  0  0
    2.8259    0.7235   -0.0060 C   0  0  0  0  0  0  0  0  0  0  0  0
    4.4390   -1.0752   -0.0044 C   0  0  0  0  0  0  0  0  0  0  0  0
   -3.7105    4.8170    0.1580 C   0  0  0  0  0  0  0  0  0  0  0  0
    3.8615    1.6523   -0.1090 C   0  0  0  0  0  0  0  0  0  0  0  0
    5.4745   -0.1464   -0.1077 C   0  0  0  0  0  0  0  0  0  0  0  0
    5.1859    1.2173   -0.1600 C   0  0  0  0  0  0  0  0  0  0  0  0
   -4.6182    5.6514   -0.7365 C   0  0  0  0  0  0  0  0  0  0  0  0
   -2.2809    5.3436    0.1385 C   0  0  0  0  0  0  0  0  0  0  0  0
    2.1888    3.3426   -0.1019 C   0  0  0  0  0  0  0  0  0  0  0  0
    7.5306    1.5872   -0.3065 C   0  0  0  0  0  0  0  0  0  0  0  0
   -1.3961   -2.6766   -2.3955 H   0  0  0  0  0  0  0  0  0  0  0  0
   -1.2483   -4.2037   -0.3322 H   0  0  0  0  0  0  0  0  0  0  0  0
   -4.6307   -1.1067   -0.6959 H   0  0  0  0  0  0  0  0  0  0  0  0
   -1.7595   -0.5064   -1.0457 H   0  0  0  0  0  0  0  0  0  0  0  0
   -3.0102   -0.8219   -2.2319 H   0  0  0  0  0  0  0  0  0  0  0  0
   -2.9737   -4.5561   -1.9557 H   0  0  0  0  0  0  0  0  0  0  0  0
   -3.9052   -3.1653   -2.5157 H   0  0  0  0  0  0  0  0  0  0  0  0
   -2.2802   -3.6900    1.6301 H   0  0  0  0  0  0  0  0  0  0  0  0
   -1.8513   -2.0077    1.6035 H   0  0  0  0  0  0  0  0  0  0  0  0
   -5.1567   -3.4336   -0.6008 H   0  0  0  0  0  0  0  0  0  0  0  0
   -3.9995   -4.5364    0.1043 H   0  0  0  0  0  0  0  0  0  0  0  0
   -2.5685    0.0275    1.2415 H   0  0  0  0  0  0  0  0  0  0  0  0
   -4.3333   -0.0265    1.4851 H   0  0  0  0  0  0  0  0  0  0  0  0
    0.3270   -0.6318   -0.9053 H   0  0  0  0  0  0  0  0  0  0  0  0
    0.6931   -5.3922    0.4366 H   0  0  0  0  0  0  0  0  0  0  0  0
    1.7578   -4.9591    1.8049 H   0  0  0  0  0  0  0  0  0  0  0  0
    0.0052   -4.6511    1.9270 H   0  0  0  0  0  0  0  0  0  0  0  0
   -3.8406    3.2148   -1.2335 H   0  0  0  0  0  0  0  0  0  0  0  0
    1.7847    1.0210    0.0514 H   0  0  0  0  0  0  0  0  0  0  0  0
    4.6939   -2.1319    0.0258 H   0  0  0  0  0  0  0  0  0  0  0  0
   -4.0849    4.8795    1.1870 H   0  0  0  0  0  0  0  0  0  0  0  0
    6.4780   -0.5563   -0.1442 H   0  0  0  0  0  0  0  0  0  0  0  0
   -4.2898    5.6161   -1.7814 H   0  0  0  0  0  0  0  0  0  0  0  0
   -5.6473    5.2773   -0.7020 H   0  0  0  0  0  0  0  0  0  0  0  0
   -4.6275    6.6986   -0.4172 H   0  0  0  0  0  0  0  0  0  0  0  0
   -1.8492    5.2825   -0.8668 H   0  0  0  0  0  0  0  0  0  0  0  0
   -1.6390    4.7594    0.8071 H   0  0  0  0  0  0  0  0  0  0  0  0
   -2.2439    6.3885    0.4634 H   0  0  0  0  0  0  0  0  0  0  0  0
    2.1401    4.4352   -0.1579 H   0  0  0  0  0  0  0  0  0  0  0  0
    1.7347    3.0549    0.8526 H   0  0  0  0  0  0  0  0  0  0  0  0
    1.6328    2.9571   -0.9635 H   0  0  0  0  0  0  0  0  0  0  0  0
    8.2139    2.4392   -0.3858 H   0  0  0  0  0  0  0  0  0  0  0  0
    7.6881    0.9697   -1.1973 H   0  0  0  0  0  0  0  0  0  0  0  0
    7.7873    1.0591    0.6180 H   0  0  0  0  0  0  0  0  0  0  0  0
  1 17  1  0  0  0  0
  1 22  1  0  0  0  0
  2 22  2  0  0  0  0
  3 26  1  0  0  0  0
  3 31  1  0  0  0  0
  4 28  1  0  0  0  0
  4 32  1  0  0  0  0
  5 11  1  0  0  0  0
  5 14  1  0  0  0  0
  5 15  1  0  0  0  0
  6  7  1  0  0  0  0
  6 16  1  0  0  0  0
  6 20  1  0  0  0  0
  7 19  2  0  0  0  0
  8 22  1  0  0  0  0
  8 25  1  0  0  0  0
  8 50  1  0  0  0  0
  9 10  1  0  0  0  0
  9 12  1  0  0  0  0
  9 13  1  0  0  0  0
  9 33  1  0  0  0  0
 10 14  1  0  0  0  0
 10 16  1  0  0  0  0
 10 34  1  0  0  0  0
 11 12  1  0  0  0  0
 11 17  1  0  0  0  0
 11 35  1  0  0  0  0
 12 36  1  0  0  0  0
 12 37  1  0  0  0  0
 13 15  1  0  0  0  0
 13 38  1  0  0  0  0
 13 39  1  0  0  0  0
 14 40  1  0  0  0  0
 14 41  1  0  0  0  0
 15 42  1  0  0  0  0
 15 43  1  0  0  0  0
 16 18  2  0  0  0  0
 17 44  1  0  0  0  0
 17 45  1  0  0  0  0
 18 19  1  0  0  0  0
 18 46  1  0  0  0  0
 19 21  1  0  0  0  0
 20 47  1  0  0  0  0
 20 48  1  0  0  0  0
 20 49  1  0  0  0  0
 21 23  2  0  0  0  0
 21 24  1  0  0  0  0
 23 26  1  0  0  0  0
 23 51  1  0  0  0  0
 24 27  2  0  0  0  0
 24 52  1  0  0  0  0
 25 29  1  0  0  0  0
 25 30  1  0  0  0  0
 25 53  1  0  0  0  0
 26 28  2  0  0  0  0
 27 28  1  0  0  0  0
 27 54  1  0  0  0  0
 29 55  1  0  0  0  0
 29 56  1  0  0  0  0
 29 57  1  0  0  0  0
 30 58  1  0  0  0  0
 30 59  1  0  0  0  0
 30 60  1  0  0  0  0
 31 61  1  0  0  0  0
 31 62  1  0  0  0  0
 31 63  1  0  0  0  0
 32 64  1  0  0  0  0
 32 65  1  0  0  0  0
 32 66  1  0  0  0  0
M  END
> <PUBCHEM_COMPOUND_CID>
25389540

> <PUBCHEM_CONFORMER_RMSD>
1

> <PUBCHEM_CONFORMER_DIVERSEORDER>
1
9
95
90
60
70
41
12
10
94
25
14
61
23
26
68
28
75
73
59
13
77
6
42
96
64
86
46
79
37
83
58
17
63
15
34
89
30
3
24
48
4
62
33
43
97
82
31
65
76
67
7
92
66
53
5
85
81
49
74
36
91
8
93
57
38
55
18
72
19
54
84
11
51
32
39
80
71
52
27
20
44
35
56
22
88
87
21
50
16
45
40
69
2
47
29
98
78

> <PUBCHEM_MMFF94_PARTIAL_CHARGES>
32
1 -0.43
10 0.18
11 0.27
14 0.27
15 0.27
16 -0.33
17 0.28
18 -0.15
19 0.23
2 -0.57
20 0.26
21 0.05
22 0.78
23 -0.15
24 -0.15
25 0.3
26 0.08
27 -0.15
28 0.08
3 -0.36
31 0.28
32 0.28
4 -0.36
46 0.15
5 -0.81
50 0.37
51 0.15
52 0.15
54 0.15
6 0.31
7 -0.71
8 -0.73

> <PUBCHEM_EFFECTIVE_ROTOR_COUNT>
10.2

> <PUBCHEM_PHARMACOPHORE_FEATURES>
10
1 2 acceptor
1 3 acceptor
1 4 acceptor
1 5 cation
1 7 acceptor
1 8 donor
3 25 29 30 hydrophobe
5 6 7 16 18 19 rings
6 21 23 24 26 27 28 rings
8 5 9 10 11 12 13 14 15 rings

> <PUBCHEM_HEAVY_ATOM_COUNT>
32

> <PUBCHEM_ATOM_DEF_STEREO_COUNT>
3

> <PUBCHEM_ATOM_UDEF_STEREO_COUNT>
0

> <PUBCHEM_BOND_DEF_STEREO_COUNT>
0

> <PUBCHEM_BOND_UDEF_STEREO_COUNT>
0

> <PUBCHEM_ISOTOPIC_ATOM_COUNT>
0

> <PUBCHEM_COMPONENT_COUNT>
1

> <PUBCHEM_CACTVS_TAUTO_COUNT>
2

> <PUBCHEM_CONFORMER_ID>
018369E400000001

> <PUBCHEM_MMFF94_ENERGY>
92.3562

> <PUBCHEM_FEATURE_SELFOVERLAP>
50.751

> <PUBCHEM_SHAPE_FINGERPRINT>
10439779 11 18266723702422088344
10670039 82 18269271421324617818
10864689 126 17978801108322935748
10937287 8 18123748660912621039
10951579 204 18338817684293899628
11477941 20 17984972949803116598
11478447 147 17034421680597498085
12107183 9 18119801418490967898
1361 2 17834390125607219929
13761468 95 17844832341684721136
14117953 113 17547567080992872780
14251764 75 18125165922669244817
14394314 77 18050857916434712377
14790565 3 18408609154327020284
15064981 113 17846488202444958966
15183329 4 18116141355257452182
15264996 163 18336262435664943581
15320467 1 18410293584091560249
15322535 138 18339911662801186832
15400415 2 18122906421874345492
15419008 42 17774169977223021590
15483637 11 18410573994021714244
155225 5 18410576227610358496
19304152 47 18188790395317476913
20580484 21 16465585959158706961
21033648 29 17389916153497941478
21033650 10 18126030328013720926
23516275 100 17693643128026065664
23559900 14 18050846925882401450
325973 47 17761493990327403212
3388396 114 17908693274127719636
4144715 1 18335993021309899298
4487111 67 18411418380170663664
6036956 94 18334581291018343421
6371009 1 18192980729015661698
653340 110 18339915017634673520
6608658 132 18270954773410829311
7288768 16 17967538947836884787
9980921 221 18265072369760908660

> <PUBCHEM_SHAPE_MULTIPOLES>
615.14
13.31
8.56
1.09
19.03
8.53
-0.05
11.66
-1.35
-12.59
0.12
-1.06
-0.69
-1.67

> <PUBCHEM_SHAPE_SELFOVERLAP>
1304.547

> <PUBCHEM_SHAPE_VOLUME>
343

> <PUBCHEM_COORDINATE_TYPE>
2
5
10

$$$$
