71693183
  -OEChem-12032416303D

 68 70  0     1  0  0  0  0  0999 V2000
    4.8702   -1.5925   -1.3250 O   0  0  0  0  0  0  0  0  0  0  0  0
   -6.9984    0.7002    0.1144 O   0  0  0  0  0  0  0  0  0  0  0  0
   -7.3153   -1.5158   -0.4221 O   0  0  0  0  0  0  0  0  0  0  0  0
    4.6797    0.0861    0.2719 N   0  0  0  0  0  0  0  0  0  0  0  0
   -2.0162    0.7142    1.4027 N   0  0  0  0  0  0  0  0  0  0  0  0
   -0.9690   -0.7527    0.1022 N   0  0  0  0  0  0  0  0  0  0  0  0
    3.9727   -3.4389    0.4909 N   0  0  0  0  0  0  0  0  0  0  0  0
    2.2547    1.2893   -1.0378 C   0  0  1  0  0  0  0  0  0  0  0  0
    3.4909    2.0642   -0.5169 C   0  0  1  0  0  0  0  0  0  0  0  0
    0.9592    1.9627   -0.5600 C   0  0  0  0  0  0  0  0  0  0  0  0
    0.8751    2.0401    0.9761 C   0  0  2  0  0  0  0  0  0  0  0  0
    2.2517    1.1844   -2.5660 C   0  0  0  0  0  0  0  0  0  0  0  0
    2.1662    2.5474    1.5859 C   0  0  0  0  0  0  0  0  0  0  0  0
    3.3223    2.5630    0.8991 C   0  0  0  0  0  0  0  0  0  0  0  0
    4.7595    1.2086   -0.6093 C   0  0  0  0  0  0  0  0  0  0  0  0
    0.4794    0.6865    1.5765 C   0  0  0  0  0  0  0  0  0  0  0  0
    1.7073    2.4673   -3.1862 C   0  0  0  0  0  0  0  0  0  0  0  0
    1.4342   -0.0227   -3.0150 C   0  0  0  0  0  0  0  0  0  0  0  0
    2.0886    3.0796    2.9898 C   0  0  0  0  0  0  0  0  0  0  0  0
   -0.8177    0.1907    1.0045 C   0  0  0  0  0  0  0  0  0  0  0  0
    4.7415   -1.2421   -0.1540 C   0  0  0  0  0  0  0  0  0  0  0  0
   -3.0069    0.0655    0.7110 C   0  0  0  0  0  0  0  0  0  0  0  0
   -2.3278   -0.8450   -0.0937 C   0  0  0  0  0  0  0  0  0  0  0  0
    4.5999   -2.2239    0.9911 C   0  0  0  0  0  0  0  0  0  0  0  0
   -4.3962    0.1932    0.7201 C   0  0  0  0  0  0  0  0  0  0  0  0
   -3.0624   -1.6864   -0.9463 C   0  0  0  0  0  0  0  0  0  0  0  0
   -5.1115   -0.6520   -0.1346 C   0  0  0  0  0  0  0  0  0  0  0  0
   -4.4585   -1.5758   -0.9538 C   0  0  0  0  0  0  0  0  0  0  0  0
    2.5223   -3.2656    0.3823 C   0  0  0  0  0  0  0  0  0  0  0  0
    4.2823   -4.5768    1.3596 C   0  0  0  0  0  0  0  0  0  0  0  0
   -6.5637   -0.5655   -0.1690 C   0  0  0  0  0  0  0  0  0  0  0  0
   -8.4141    0.9129    0.1117 C   0  0  0  0  0  0  0  0  0  0  0  0
    2.2738    0.2736   -0.6246 H   0  0  0  0  0  0  0  0  0  0  0  0
    3.6533    2.9547   -1.1370 H   0  0  0  0  0  0  0  0  0  0  0  0
    0.0722    1.4896   -0.9892 H   0  0  0  0  0  0  0  0  0  0  0  0
    0.9312    3.0067   -0.9010 H   0  0  0  0  0  0  0  0  0  0  0  0
    0.0849    2.7689    1.2074 H   0  0  0  0  0  0  0  0  0  0  0  0
    3.2692    1.0324   -2.9404 H   0  0  0  0  0  0  0  0  0  0  0  0
    4.2085    2.9825    1.3715 H   0  0  0  0  0  0  0  0  0  0  0  0
    4.9572    0.8783   -1.6326 H   0  0  0  0  0  0  0  0  0  0  0  0
    5.6329    1.7927   -0.2948 H   0  0  0  0  0  0  0  0  0  0  0  0
    0.3686    0.7640    2.6653 H   0  0  0  0  0  0  0  0  0  0  0  0
    1.2567   -0.0677    1.4023 H   0  0  0  0  0  0  0  0  0  0  0  0
    1.8841    2.4462   -4.2688 H   0  0  0  0  0  0  0  0  0  0  0  0
    2.2078    3.3643   -2.8097 H   0  0  0  0  0  0  0  0  0  0  0  0
    0.6248    2.5794   -3.0646 H   0  0  0  0  0  0  0  0  0  0  0  0
    0.3836    0.0518   -2.7178 H   0  0  0  0  0  0  0  0  0  0  0  0
    1.4612   -0.1183   -4.1061 H   0  0  0  0  0  0  0  0  0  0  0  0
    1.8405   -0.9489   -2.5945 H   0  0  0  0  0  0  0  0  0  0  0  0
    1.3344    3.8704    3.0553 H   0  0  0  0  0  0  0  0  0  0  0  0
    3.0412    3.5058    3.3222 H   0  0  0  0  0  0  0  0  0  0  0  0
    1.8221    2.2842    3.6921 H   0  0  0  0  0  0  0  0  0  0  0  0
    4.6344    0.2703    1.2700 H   0  0  0  0  0  0  0  0  0  0  0  0
   -2.1507    1.4492    2.0844 H   0  0  0  0  0  0  0  0  0  0  0  0
    4.0506   -1.7878    1.8340 H   0  0  0  0  0  0  0  0  0  0  0  0
    5.6249   -2.4204    1.3314 H   0  0  0  0  0  0  0  0  0  0  0  0
   -4.8768    0.9112    1.3757 H   0  0  0  0  0  0  0  0  0  0  0  0
   -2.5638   -2.4065   -1.5872 H   0  0  0  0  0  0  0  0  0  0  0  0
   -5.0258   -2.2256   -1.6167 H   0  0  0  0  0  0  0  0  0  0  0  0
    2.2700   -2.4459   -0.2993 H   0  0  0  0  0  0  0  0  0  0  0  0
    2.0549   -3.0608    1.3525 H   0  0  0  0  0  0  0  0  0  0  0  0
    2.0609   -4.1674   -0.0358 H   0  0  0  0  0  0  0  0  0  0  0  0
    5.3633   -4.7526    1.3940 H   0  0  0  0  0  0  0  0  0  0  0  0
    3.8294   -5.4945    0.9680 H   0  0  0  0  0  0  0  0  0  0  0  0
    3.9234   -4.4233    2.3838 H   0  0  0  0  0  0  0  0  0  0  0  0
   -8.8255    0.7000   -0.8794 H   0  0  0  0  0  0  0  0  0  0  0  0
   -8.8909    0.2860    0.8710 H   0  0  0  0  0  0  0  0  0  0  0  0
   -8.6012    1.9625    0.3530 H   0  0  0  0  0  0  0  0  0  0  0  0
  1 21  2  0  0  0  0
  2 31  1  0  0  0  0
  2 32  1  0  0  0  0
  3 31  2  0  0  0  0
  4 15  1  0  0  0  0
  4 21  1  0  0  0  0
  4 53  1  0  0  0  0
  5 20  1  0  0  0  0
  5 22  1  0  0  0  0
  5 54  1  0  0  0  0
  6 20  2  0  0  0  0
  6 23  1  0  0  0  0
  7 24  1  0  0  0  0
  7 29  1  0  0  0  0
  7 30  1  0  0  0  0
  8  9  1  0  0  0  0
  8 10  1  0  0  0  0
  8 12  1  0  0  0  0
  8 33  1  0  0  0  0
  9 14  1  0  0  0  0
  9 15  1  0  0  0  0
  9 34  1  0  0  0  0
 10 11  1  0  0  0  0
 10 35  1  0  0  0  0
 10 36  1  0  0  0  0
 11 13  1  0  0  0  0
 11 16  1  0  0  0  0
 11 37  1  0  0  0  0
 12 17  1  0  0  0  0
 12 18  1  0  0  0  0
 12 38  1  0  0  0  0
 13 14  2  0  0  0  0
 13 19  1  0  0  0  0
 14 39  1  0  0  0  0
 15 40  1  0  0  0  0
 15 41  1  0  0  0  0
 16 20  1  0  0  0  0
 16 42  1  0  0  0  0
 16 43  1  0  0  0  0
 17 44  1  0  0  0  0
 17 45  1  0  0  0  0
 17 46  1  0  0  0  0
 18 47  1  0  0  0  0
 18 48  1  0  0  0  0
 18 49  1  0  0  0  0
 19 50  1  0  0  0  0
 19 51  1  0  0  0  0
 19 52  1  0  0  0  0
 21 24  1  0  0  0  0
 22 23  2  0  0  0  0
 22 25  1  0  0  0  0
 23 26  1  0  0  0  0
 24 55  1  0  0  0  0
 24 56  1  0  0  0  0
 25 27  2  0  0  0  0
 25 57  1  0  0  0  0
 26 28  2  0  0  0  0
 26 58  1  0  0  0  0
 27 28  1  0  0  0  0
 27 31  1  0  0  0  0
 28 59  1  0  0  0  0
 29 60  1  0  0  0  0
 29 61  1  0  0  0  0
 29 62  1  0  0  0  0
 30 63  1  0  0  0  0
 30 64  1  0  0  0  0
 30 65  1  0  0  0  0
 32 66  1  0  0  0  0
 32 67  1  0  0  0  0
 32 68  1  0  0  0  0
M  END
> <PUBCHEM_COMPOUND_CID>
71693183

> <PUBCHEM_CONFORMER_RMSD>
1

> <PUBCHEM_CONFORMER_DIVERSEORDER>
1
55
45
60
48
69
70
49
15
38
35
36
37
61
68
2
56
73
71
25
31
47
28
8
63
52
67
17
29
59
11
41
74
24
40
30
54
26
58
33
6
18
64
65
62
66
51
7
19
43
14
57
22
72
27
13
53
32
12
16
46
20
5
9
3
39
4
21
50
44
23
42
34
10

> <PUBCHEM_MMFF94_PARTIAL_CHARGES>
33
1 -0.57
11 0.14
13 -0.28
14 -0.29
15 0.3
16 0.18
19 0.14
2 -0.43
20 0.01
21 0.57
22 -0.15
23 0.23
24 0.33
25 -0.15
26 -0.15
27 0.09
28 -0.15
29 0.27
3 -0.57
30 0.27
31 0.63
32 0.28
39 0.15
4 -0.73
5 0.03
53 0.37
54 0.27
57 0.15
58 0.15
59 0.15
6 -0.57
7 -0.81
9 0.14

> <PUBCHEM_EFFECTIVE_ROTOR_COUNT>
10.8

> <PUBCHEM_PHARMACOPHORE_FEATURES>
10
1 1 acceptor
1 3 acceptor
1 4 donor
1 5 donor
1 7 cation
3 12 17 18 hydrophobe
3 5 6 20 cation
5 5 6 20 22 23 rings
6 22 23 25 26 27 28 rings
6 8 9 10 11 13 14 rings

> <PUBCHEM_HEAVY_ATOM_COUNT>
32

> <PUBCHEM_ATOM_DEF_STEREO_COUNT>
3

> <PUBCHEM_ATOM_UDEF_STEREO_COUNT>
0

> <PUBCHEM_BOND_DEF_STEREO_COUNT>
0

> <PUBCHEM_BOND_UDEF_STEREO_COUNT>
0

> <PUBCHEM_ISOTOPIC_ATOM_COUNT>
0

> <PUBCHEM_COMPONENT_COUNT>
1

> <PUBCHEM_CACTVS_TAUTO_COUNT>
14

> <PUBCHEM_CONFORMER_ID>
0445F37F00000001

> <PUBCHEM_MMFF94_ENERGY>
68.8445

> <PUBCHEM_FEATURE_SELFOVERLAP>
50.852

> <PUBCHEM_SHAPE_FINGERPRINT>
10816530 23 17391367577481556356
11796584 16 17846222223308941655
13165053 137 13644887735386563531
13533116 47 18412262847954801827
13947947 73 18116140087551133575
14068700 675 18269844125713088858
14347332 77 18342453717126701689
14747281 78 16081956822294682638
15183329 4 17917720106511147145
17349148 13 16845580832733695969
17899979 129 17533233078873340708
18681886 176 15984268572911077920
20511986 3 17845927549918985076
20775530 9 17827365384888549738
21285901 2 17530959164609878246
21315764 119 18187083962451627893
23559900 14 18113900468618036907
25222932 49 17484515990351703022
3004659 81 17560810977870489041
345986 75 18270957922022433050
397830 11 10951759833691844991
4073 2 18196087978755859827
46194498 28 17530684337614885478
463206 1 18340208587191680514
57527306 92 17203327858397658728
70251023 43 17752200583685752146
8509985 295 18059857281151679812

> <PUBCHEM_SHAPE_MULTIPOLES>
621.01
16.06
4.08
2.37
36.7
3.45
-1.2
5.95
-0.22
-8.1
1.71
-2.69
-1.95
-1.55

> <PUBCHEM_SHAPE_SELFOVERLAP>
1298.854

> <PUBCHEM_SHAPE_VOLUME>
352.7

> <PUBCHEM_COORDINATE_TYPE>
2
5
10

$$$$
