75536987
  -OEChem-12032416303D

 46 49  0     1  0  0  0  0  0999 V2000
   -6.1874    2.3593    1.8679 F   0  0  0  0  0  0  0  0  0  0  0  0
   -2.1539   -2.9978   -0.3471 O   0  0  0  0  0  0  0  0  0  0  0  0
    4.4032   -1.5360    1.5711 O   0  0  0  0  0  0  0  0  0  0  0  0
   -0.0811   -1.8959   -0.2510 N   0  0  0  0  0  0  0  0  0  0  0  0
   -1.7839   -0.8736   -1.3017 N   0  0  0  0  0  0  0  0  0  0  0  0
    2.2553   -0.9158    0.8913 N   0  0  0  0  0  0  0  0  0  0  0  0
    0.5055   -0.6912   -0.8132 C   0  0  1  0  0  0  0  0  0  0  0  0
   -0.6980    0.0904   -1.3333 C   0  0  0  0  0  0  0  0  0  0  0  0
    1.3312    0.0354    0.2435 C   0  0  0  0  0  0  0  0  0  0  0  0
    0.7526   -2.8299    0.4860 C   0  0  0  0  0  0  0  0  0  0  0  0
    1.6023   -2.0783    1.5093 C   0  0  0  0  0  0  0  0  0  0  0  0
   -1.4295   -2.0451   -0.6037 C   0  0  0  0  0  0  0  0  0  0  0  0
   -3.0976   -0.5642   -1.8212 C   0  0  0  0  0  0  0  0  0  0  0  0
    3.6391   -0.7646    0.9931 C   0  0  0  0  0  0  0  0  0  0  0  0
   -3.9215    0.2154   -0.8374 C   0  0  0  0  0  0  0  0  0  0  0  0
    4.2563    0.4033    0.3513 C   0  0  0  0  0  0  0  0  0  0  0  0
   -4.7299   -0.4546    0.0810 C   0  0  0  0  0  0  0  0  0  0  0  0
   -3.8786    1.6095   -0.8419 C   0  0  0  0  0  0  0  0  0  0  0  0
    4.4054    1.5933    1.0632 C   0  0  0  0  0  0  0  0  0  0  0  0
    4.6949    0.3215   -0.9703 C   0  0  0  0  0  0  0  0  0  0  0  0
   -5.4953    0.2695    0.9948 C   0  0  0  0  0  0  0  0  0  0  0  0
   -4.6439    2.3337    0.0721 C   0  0  0  0  0  0  0  0  0  0  0  0
   -5.4524    1.6637    0.9904 C   0  0  0  0  0  0  0  0  0  0  0  0
    4.9930    2.7020    0.4536 C   0  0  0  0  0  0  0  0  0  0  0  0
    5.2825    1.4299   -1.5799 C   0  0  0  0  0  0  0  0  0  0  0  0
    5.4315    2.6202   -0.8679 C   0  0  0  0  0  0  0  0  0  0  0  0
    1.1454   -1.0103   -1.6458 H   0  0  0  0  0  0  0  0  0  0  0  0
   -0.9573    0.9346   -0.6870 H   0  0  0  0  0  0  0  0  0  0  0  0
   -0.5432    0.4470   -2.3560 H   0  0  0  0  0  0  0  0  0  0  0  0
    1.8563    0.8799   -0.2075 H   0  0  0  0  0  0  0  0  0  0  0  0
    0.6904    0.4354    1.0391 H   0  0  0  0  0  0  0  0  0  0  0  0
    1.3946   -3.3299   -0.2480 H   0  0  0  0  0  0  0  0  0  0  0  0
    0.1269   -3.5884    0.9661 H   0  0  0  0  0  0  0  0  0  0  0  0
    0.9704   -1.6940    2.3190 H   0  0  0  0  0  0  0  0  0  0  0  0
    2.3393   -2.7535    1.9548 H   0  0  0  0  0  0  0  0  0  0  0  0
   -3.6076   -1.5058   -2.0581 H   0  0  0  0  0  0  0  0  0  0  0  0
   -2.9857   -0.0194   -2.7658 H   0  0  0  0  0  0  0  0  0  0  0  0
   -4.7724   -1.5404    0.0957 H   0  0  0  0  0  0  0  0  0  0  0  0
   -3.2534    2.1434   -1.5526 H   0  0  0  0  0  0  0  0  0  0  0  0
    4.0668    1.6678    2.0934 H   0  0  0  0  0  0  0  0  0  0  0  0
    4.5828   -0.6009   -1.5342 H   0  0  0  0  0  0  0  0  0  0  0  0
   -6.1247   -0.2517    1.7101 H   0  0  0  0  0  0  0  0  0  0  0  0
   -4.6108    3.4191    0.0690 H   0  0  0  0  0  0  0  0  0  0  0  0
    5.1088    3.6288    1.0079 H   0  0  0  0  0  0  0  0  0  0  0  0
    5.6237    1.3665   -2.6090 H   0  0  0  0  0  0  0  0  0  0  0  0
    5.8889    3.4833   -1.3427 H   0  0  0  0  0  0  0  0  0  0  0  0
  1 23  1  0  0  0  0
  2 12  2  0  0  0  0
  3 14  2  0  0  0  0
  4  7  1  0  0  0  0
  4 10  1  0  0  0  0
  4 12  1  0  0  0  0
  5  8  1  0  0  0  0
  5 12  1  0  0  0  0
  5 13  1  0  0  0  0
  6  9  1  0  0  0  0
  6 11  1  0  0  0  0
  6 14  1  0  0  0  0
  7  8  1  0  0  0  0
  7  9  1  0  0  0  0
  7 27  1  0  0  0  0
  8 28  1  0  0  0  0
  8 29  1  0  0  0  0
  9 30  1  0  0  0  0
  9 31  1  0  0  0  0
 10 11  1  0  0  0  0
 10 32  1  0  0  0  0
 10 33  1  0  0  0  0
 11 34  1  0  0  0  0
 11 35  1  0  0  0  0
 13 15  1  0  0  0  0
 13 36  1  0  0  0  0
 13 37  1  0  0  0  0
 14 16  1  0  0  0  0
 15 17  2  0  0  0  0
 15 18  1  0  0  0  0
 16 19  2  0  0  0  0
 16 20  1  0  0  0  0
 17 21  1  0  0  0  0
 17 38  1  0  0  0  0
 18 22  2  0  0  0  0
 18 39  1  0  0  0  0
 19 24  1  0  0  0  0
 19 40  1  0  0  0  0
 20 25  2  0  0  0  0
 20 41  1  0  0  0  0
 21 23  2  0  0  0  0
 21 42  1  0  0  0  0
 22 23  1  0  0  0  0
 22 43  1  0  0  0  0
 24 26  2  0  0  0  0
 24 44  1  0  0  0  0
 25 26  1  0  0  0  0
 25 45  1  0  0  0  0
 26 46  1  0  0  0  0
M  END
> <PUBCHEM_COMPOUND_CID>
75536987

> <PUBCHEM_CONFORMER_RMSD>
0.8

> <PUBCHEM_CONFORMER_DIVERSEORDER>
1
23
22
20
52
21
39
7
51
29
49
50
30
47
41
42
33
43
9
32
16
15
3
36
26
5
37
31
13
14
46
35
8
10
48
6
40
25
19
34
45
44
2
12
38
11
24
4
28
18
17
27

> <PUBCHEM_MMFF94_PARTIAL_CHARGES>
35
1 -0.19
10 0.3
11 0.3
12 0.69
13 0.44
14 0.54
15 -0.14
16 0.09
17 -0.15
18 -0.15
19 -0.15
2 -0.57
20 -0.15
21 -0.15
22 -0.15
23 0.19
24 -0.15
25 -0.15
26 -0.15
3 -0.57
38 0.15
39 0.15
4 -0.66
40 0.15
41 0.15
42 0.15
43 0.15
44 0.15
45 0.15
46 0.15
5 -0.66
6 -0.66
7 0.3
8 0.3
9 0.3

> <PUBCHEM_EFFECTIVE_ROTOR_COUNT>
5.2

> <PUBCHEM_PHARMACOPHORE_FEATURES>
6
1 2 acceptor
1 3 acceptor
5 4 5 7 8 12 rings
6 15 17 18 21 22 23 rings
6 16 19 20 24 25 26 rings
6 4 6 7 9 10 11 rings

> <PUBCHEM_HEAVY_ATOM_COUNT>
26

> <PUBCHEM_ATOM_DEF_STEREO_COUNT>
1

> <PUBCHEM_ATOM_UDEF_STEREO_COUNT>
0

> <PUBCHEM_BOND_DEF_STEREO_COUNT>
0

> <PUBCHEM_BOND_UDEF_STEREO_COUNT>
0

> <PUBCHEM_ISOTOPIC_ATOM_COUNT>
0

> <PUBCHEM_COMPONENT_COUNT>
1

> <PUBCHEM_CACTVS_TAUTO_COUNT>
1

> <PUBCHEM_CONFORMER_ID>
04809A5B00000001

> <PUBCHEM_MMFF94_ENERGY>
68.7574

> <PUBCHEM_FEATURE_SELFOVERLAP>
30.546

> <PUBCHEM_SHAPE_FINGERPRINT>
10447042 23 10231751206483403954
105312 117 16558739131462482029
10794284 68 15652171019768415330
11135609 201 18264485264219940904
11720765 8 17916873405564638838
1200032 147 16198773224344849035
12390115 104 18336549425067938574
12422481 6 17458339698064658941
12596602 18 17967814938377345481
12616971 3 18338504262389831314
12788726 201 17917997139832570688
12892183 10 17603867733360794647
13398642 44 17097225058714696780
13782708 43 12035988176801778760
13828863 39 18335144198031776665
13885169 86 18042412502838800292
14251751 18 10881395460931201044
14251764 75 18335987566421527100
14341114 328 18410292489280139835
14347332 77 8430306940693881893
146900 427 18260267438694536888
14790565 3 18410573980904398476
14840074 17 18411146813994753977
14848178 5 7997971271322105381
14950920 106 16951112968116658433
15163728 17 17988928863954307447
15183329 4 13182741424827671405
15188451 53 8430329995735721620
15238133 3 17988352698592043282
15338160 23 18337679723717598651
15575132 122 18341614776838677533
16126227 98 17970076749902878652
1768 23 18271535221124356777
17857418 61 9007064573431064732
18222031 100 10087649217016050324
19377110 9 17458901668839499338
20621476 91 15647062594335128177
20739085 24 17894911776721072932
21120745 212 18052813943246749607
21458453 9 16879371093146469497
21585480 29 17313968423144151691
21756936 100 18271803561990453095
21774942 28 18059289972624832440
22061861 79 13614521874164130453
23536364 44 12247411046918219763
23559900 14 17988081085135116182
249057 25 18198317655035215367
25122255 55 10665489813083241760
2838139 119 16916773042933597329
312425 54 13118540927812507908
314194 84 9150885130892232726
3178227 256 17895753977275390498
3459 110 16806178790091444513
3552219 110 18267857454389212351
3680242 22 17968644013311061128
38570 142 18342471317316936156
4098825 35 18342184397192080702
437795 139 13480281478134001097
5104073 3 18042110098702266514
57724786 102 17985551053123506273
59682541 52 14261355691762327301
633830 44 18341322349557829334
636775 72 17981319307963524992
76465 3 8718830898570441750
7808743 9 18341609347672253211
8988823 20 11169918307714114414
960060 61 13830133940387812928

> <PUBCHEM_SHAPE_MULTIPOLES>
501.11
15.17
3.21
1.61
2.91
0.25
0
-13.53
2.92
-0.53
0.63
0.21
-0.14
-2.5

> <PUBCHEM_SHAPE_SELFOVERLAP>
1086.548

> <PUBCHEM_SHAPE_VOLUME>
274.8

> <PUBCHEM_COORDINATE_TYPE>
2
5
10

$$$$
