11912918
  -OEChem-12032416123D

 54 57  0     1  0  0  0  0  0999 V2000
   -0.2643    3.3740   -0.5479 O   0  0  0  0  0  0  0  0  0  0  0  0
   -0.1109    1.1850    1.6705 O   0  0  0  0  0  0  0  0  0  0  0  0
   -4.7824    1.5419    0.7610 O   0  0  0  0  0  0  0  0  0  0  0  0
    2.2961    1.7022   -1.0253 N   0  0  0  0  0  0  0  0  0  0  0  0
   -2.7264    0.7358    0.0525 N   0  0  0  0  0  0  0  0  0  0  0  0
    3.4030   -0.0742    0.0353 N   0  0  0  0  0  0  0  0  0  0  0  0
    3.7981    0.4179   -2.2905 N   0  0  0  0  0  0  0  0  0  0  0  0
    0.3246    1.2306    0.3013 C   0  0  1  0  0  0  0  0  0  0  0  0
   -0.7169    2.0117   -0.4761 C   0  0  1  0  0  0  0  0  0  0  0  0
    1.5789    2.0630    0.1779 C   0  0  2  0  0  0  0  0  0  0  0  0
   -1.9613    1.9154    0.3766 C   0  0  2  0  0  0  0  0  0  0  0  0
    1.0320    3.4738    0.0601 C   0  0  0  0  0  0  0  0  0  0  0  0
   -1.3878    1.8312    1.7800 C   0  0  0  0  0  0  0  0  0  0  0  0
    3.1925    0.6506   -1.0956 C   0  0  0  0  0  0  0  0  0  0  0  0
   -4.0931    0.6486    0.2760 C   0  0  0  0  0  0  0  0  0  0  0  0
    4.5256   -1.8978    1.1626 C   0  0  0  0  0  0  0  0  0  0  0  0
    4.2826   -1.0919   -0.0691 C   0  0  0  0  0  0  0  0  0  0  0  0
   -4.7301   -0.6434   -0.0874 C   0  0  0  0  0  0  0  0  0  0  0  0
    4.9499   -1.4123   -1.2337 C   0  0  0  0  0  0  0  0  0  0  0  0
    6.0257   -1.8429    1.5872 C   0  0  0  0  0  0  0  0  0  0  0  0
    4.1539   -3.3967    0.9401 C   0  0  0  0  0  0  0  0  0  0  0  0
    3.7182   -1.4519    2.4264 C   0  0  0  0  0  0  0  0  0  0  0  0
    4.6656   -0.6149   -2.3234 C   0  0  0  0  0  0  0  0  0  0  0  0
   -5.8764   -1.0318    0.5747 C   0  0  0  0  0  0  0  0  0  0  0  0
   -4.1555   -1.4131   -1.0775 C   0  0  0  0  0  0  0  0  0  0  0  0
   -6.4746   -2.2442    0.2314 C   0  0  0  0  0  0  0  0  0  0  0  0
   -4.7537   -2.6256   -1.4208 C   0  0  0  0  0  0  0  0  0  0  0  0
   -5.9134   -3.0411   -0.7664 C   0  0  0  0  0  0  0  0  0  0  0  0
    0.4226    0.1958   -0.0422 H   0  0  0  0  0  0  0  0  0  0  0  0
   -0.8449    1.6536   -1.5028 H   0  0  0  0  0  0  0  0  0  0  0  0
    2.2358    2.0043    1.0535 H   0  0  0  0  0  0  0  0  0  0  0  0
   -2.6103    2.7929    0.2833 H   0  0  0  0  0  0  0  0  0  0  0  0
    0.8909    3.9218    1.0499 H   0  0  0  0  0  0  0  0  0  0  0  0
    1.6593    4.1462   -0.5334 H   0  0  0  0  0  0  0  0  0  0  0  0
   -1.2110    2.8311    2.1912 H   0  0  0  0  0  0  0  0  0  0  0  0
   -2.0149    1.2756    2.4839 H   0  0  0  0  0  0  0  0  0  0  0  0
    2.1075    2.2023   -1.8867 H   0  0  0  0  0  0  0  0  0  0  0  0
   -2.2040   -0.0822   -0.2433 H   0  0  0  0  0  0  0  0  0  0  0  0
    5.6552   -2.2286   -1.3171 H   0  0  0  0  0  0  0  0  0  0  0  0
    6.1997   -2.4093    2.5094 H   0  0  0  0  0  0  0  0  0  0  0  0
    6.6842   -2.2648    0.8201 H   0  0  0  0  0  0  0  0  0  0  0  0
    6.3425   -0.8081    1.7628 H   0  0  0  0  0  0  0  0  0  0  0  0
    4.7648   -3.8583    0.1565 H   0  0  0  0  0  0  0  0  0  0  0  0
    4.3026   -3.9839    1.8538 H   0  0  0  0  0  0  0  0  0  0  0  0
    3.1034   -3.4966    0.6427 H   0  0  0  0  0  0  0  0  0  0  0  0
    3.9418   -2.0838    3.2935 H   0  0  0  0  0  0  0  0  0  0  0  0
    3.9553   -0.4163    2.6973 H   0  0  0  0  0  0  0  0  0  0  0  0
    2.6389   -1.5076    2.2413 H   0  0  0  0  0  0  0  0  0  0  0  0
    5.1416   -0.7897   -3.2824 H   0  0  0  0  0  0  0  0  0  0  0  0
   -6.3231   -0.4255    1.3569 H   0  0  0  0  0  0  0  0  0  0  0  0
   -3.2748   -1.1100   -1.6342 H   0  0  0  0  0  0  0  0  0  0  0  0
   -7.3770   -2.5682    0.7415 H   0  0  0  0  0  0  0  0  0  0  0  0
   -4.3217   -3.2427   -2.2032 H   0  0  0  0  0  0  0  0  0  0  0  0
   -6.3802   -3.9843   -1.0349 H   0  0  0  0  0  0  0  0  0  0  0  0
  1  9  1  0  0  0  0
  1 12  1  0  0  0  0
  2  8  1  0  0  0  0
  2 13  1  0  0  0  0
  3 15  2  0  0  0  0
  4 10  1  0  0  0  0
  4 14  1  0  0  0  0
  4 37  1  0  0  0  0
  5 11  1  0  0  0  0
  5 15  1  0  0  0  0
  5 38  1  0  0  0  0
  6 14  1  0  0  0  0
  6 17  2  0  0  0  0
  7 14  2  0  0  0  0
  7 23  1  0  0  0  0
  8  9  1  0  0  0  0
  8 10  1  0  0  0  0
  8 29  1  0  0  0  0
  9 11  1  0  0  0  0
  9 30  1  0  0  0  0
 10 12  1  0  0  0  0
 10 31  1  0  0  0  0
 11 13  1  0  0  0  0
 11 32  1  0  0  0  0
 12 33  1  0  0  0  0
 12 34  1  0  0  0  0
 13 35  1  0  0  0  0
 13 36  1  0  0  0  0
 15 18  1  0  0  0  0
 16 17  1  0  0  0  0
 16 20  1  0  0  0  0
 16 21  1  0  0  0  0
 16 22  1  0  0  0  0
 17 19  1  0  0  0  0
 18 24  2  0  0  0  0
 18 25  1  0  0  0  0
 19 23  2  0  0  0  0
 19 39  1  0  0  0  0
 20 40  1  0  0  0  0
 20 41  1  0  0  0  0
 20 42  1  0  0  0  0
 21 43  1  0  0  0  0
 21 44  1  0  0  0  0
 21 45  1  0  0  0  0
 22 46  1  0  0  0  0
 22 47  1  0  0  0  0
 22 48  1  0  0  0  0
 23 49  1  0  0  0  0
 24 26  1  0  0  0  0
 24 50  1  0  0  0  0
 25 27  2  0  0  0  0
 25 51  1  0  0  0  0
 26 28  2  0  0  0  0
 26 52  1  0  0  0  0
 27 28  1  0  0  0  0
 27 53  1  0  0  0  0
 28 54  1  0  0  0  0
M  END
> <PUBCHEM_COMPOUND_CID>
11912918

> <PUBCHEM_CONFORMER_RMSD>
0.8

> <PUBCHEM_CONFORMER_DIVERSEORDER>
1
39
158
67
184
47
157
145
22
200
28
174
60
154
35
195
48
134
26
199
20
90
112
11
183
54
176
123
57
120
87
109
114
79
45
106
142
83
38
181
14
162
75
81
168
135
164
107
119
171
94
34
102
189
24
116
177
192
103
51
100
46
36
18
127
9
187
166
77
197
23
32
42
138
63
129
43
76
99
88
179
170
64
198
191
130
126
132
52
98
49
108
140
204
150
96
104
188
201
30
72
137
7
180
159
66
41
115
97
152
85
147
153
118
33
80
31
146
86
16
92
95
19
160
144
13
10
56
125
190
151
193
89
182
65
12
61
133
8
155
58
4
163
70
78
122
169
173
149
131
148
59
117
68
194
101
73
17
136
121
156
69
55
161
175
111
202
167
91
62
178
141
40
105
143
84
203
50
196
124
128
113
82
21
44
3
93
37
185
15
53
29
172
27
186
71
25
139
6
165
5
2
110
74

> <PUBCHEM_MMFF94_PARTIAL_CHARGES>
34
1 -0.56
10 0.37
11 0.3
12 0.28
13 0.28
14 0.72
15 0.54
16 0.14
17 0.17
18 0.09
19 -0.15
2 -0.56
23 0.16
24 -0.15
25 -0.15
26 -0.15
27 -0.15
28 -0.15
3 -0.57
37 0.4
38 0.37
39 0.15
4 -0.87
49 0.15
5 -0.73
50 0.15
51 0.15
52 0.15
53 0.15
54 0.15
6 -0.62
7 -0.62
8 0.28
9 0.28

> <PUBCHEM_EFFECTIVE_ROTOR_COUNT>
7.2

> <PUBCHEM_PHARMACOPHORE_FEATURES>
12
1 1 acceptor
1 2 acceptor
1 3 acceptor
1 4 donor
1 5 donor
1 6 acceptor
4 16 20 21 22 hydrophobe
4 4 6 7 14 cation
5 1 8 9 10 12 rings
5 2 8 9 11 13 rings
6 18 24 25 26 27 28 rings
6 6 7 14 17 19 23 rings

> <PUBCHEM_HEAVY_ATOM_COUNT>
28

> <PUBCHEM_ATOM_DEF_STEREO_COUNT>
4

> <PUBCHEM_ATOM_UDEF_STEREO_COUNT>
0

> <PUBCHEM_BOND_DEF_STEREO_COUNT>
0

> <PUBCHEM_BOND_UDEF_STEREO_COUNT>
0

> <PUBCHEM_ISOTOPIC_ATOM_COUNT>
0

> <PUBCHEM_COMPONENT_COUNT>
1

> <PUBCHEM_CACTVS_TAUTO_COUNT>
6

> <PUBCHEM_CONFORMER_ID>
00B5C6D600000001

> <PUBCHEM_MMFF94_ENERGY>
87.4477

> <PUBCHEM_FEATURE_SELFOVERLAP>
61.602

> <PUBCHEM_SHAPE_FINGERPRINT>
10074138 170 17058384582967295705
10622 236 17679009410107120466
10928967 22 18409450293159037687
11069576 57 17822578197023427842
11497681 19 18116708510137318170
11796584 16 18272375230738346453
12047536 79 15913332407702642523
12107183 9 18271259240101940297
12342043 65 16844185441510110102
12422481 6 17275107223741664295
12633257 1 13254796819567985525
13627167 48 13262940855536104903
14251751 18 18412537687154175833
14347332 77 18410008862830781933
14480069 147 18113905966002316979
14848178 5 18272928315135642405
14848178 96 8646499530595500365
15001296 14 18267581506318206879
15163728 17 8646488565412520993
15728490 51 18411412909336558298
17134984 74 18042410290724582690
17138139 8 18334582351911597178
19303781 99 17533498928949075402
1979834 28 16845307054639041455
19841028 212 18054504979709831063
20567600 234 11312063149673110219
20567600 247 18334012808835035115
20567600 9 8718557150487621648
20626108 58 18342457057999405921
20691028 202 7925096753948072775
20775438 99 17972590254209633938
208703 8 18408601435764893974
21033648 29 13182205984978389115
21223535 225 15213573430250179718
21458453 9 16126937868314216170
21585480 29 16701155625481695566
21585483 132 18127117796701626407
21599406 157 16733266858740305115
21703447 108 18271240646234013145
25222932 49 18411977001297301204
2838139 119 11819270105032711997
3004659 81 18342748450340232181
3882209 13 14638491384498427298
392239 28 14979668854248497236
439807 62 18259704523792177599
44062 13 18409729530895533469
463206 1 18260833687140695842
5085150 59 17917426485556678439
5104073 3 17846223293283715681
5874358 3 16445018706309969306
59025328 239 17168145577662059380
59682541 52 15574985157042215451
613672 6 17917142806375813925
66674814 147 17749387040297813274
7970288 3 18337950095449838746

> <PUBCHEM_SHAPE_MULTIPOLES>
538.69
16.21
4.11
1.89
10.88
0.45
0.11
-18.02
0.62
0.91
-0.31
-2.83
-0.6
-3.1

> <PUBCHEM_SHAPE_SELFOVERLAP>
1160.967

> <PUBCHEM_SHAPE_VOLUME>
295.6

> <PUBCHEM_COORDINATE_TYPE>
2
5
10

$$$$
