11912171
  -OEChem-12032416213D

 53 57  0     1  0  0  0  0  0999 V2000
   -1.5042    2.1353   -1.5065 O   0  0  0  0  0  0  0  0  0  0  0  0
    2.3555   -2.0531   -0.4935 O   0  0  0  0  0  0  0  0  0  0  0  0
    0.4195   -3.2858    1.6004 O   0  0  0  0  0  0  0  0  0  0  0  0
    3.2033    0.5841   -0.7447 N   0  0  2  0  0  0  0  0  0  0  0  0
    0.4202    2.0411   -0.1929 N   0  0  0  0  0  0  0  0  0  0  0  0
   -5.3958   -3.1624   -1.5039 N   0  0  0  0  0  0  0  0  0  0  0  0
    2.6629    3.0237   -0.9505 C   0  0  1  0  0  0  0  0  0  0  0  0
    2.4909    1.9323    1.2345 C   0  0  2  0  0  0  0  0  0  0  0  0
    2.9098    3.2245    0.5387 C   0  0  0  0  0  0  0  0  0  0  0  0
    3.4914    1.8288   -1.4680 C   0  0  0  0  0  0  0  0  0  0  0  0
    3.3501    0.7603    0.7079 C   0  0  0  0  0  0  0  0  0  0  0  0
    1.1568    2.8411   -1.1820 C   0  0  0  0  0  0  0  0  0  0  0  0
    1.0167    1.6524    1.0089 C   0  0  0  0  0  0  0  0  0  0  0  0
    4.0442   -0.5090   -1.2268 C   0  0  0  0  0  0  0  0  0  0  0  0
    0.2931    1.0200    1.9464 C   0  0  0  0  0  0  0  0  0  0  0  0
   -0.9353    1.7791   -0.4730 C   0  0  0  0  0  0  0  0  0  0  0  0
   -1.7118    1.0382    0.5824 C   0  0  0  0  0  0  0  0  0  0  0  0
   -1.0894    0.7051    1.7231 C   0  0  0  0  0  0  0  0  0  0  0  0
    3.6751   -1.8084   -0.5648 C   0  0  0  0  0  0  0  0  0  0  0  0
   -3.1242    0.6727    0.3758 C   0  0  0  0  0  0  0  0  0  0  0  0
    4.4244   -2.7929   -0.0197 C   0  0  0  0  0  0  0  0  0  0  0  0
    2.2471   -3.2558    0.1293 C   0  0  0  0  0  0  0  0  0  0  0  0
    3.4915   -3.7523    0.4411 C   0  0  0  0  0  0  0  0  0  0  0  0
   -3.4514   -0.5490   -0.2138 C   0  0  0  0  0  0  0  0  0  0  0  0
   -4.1364    1.5480    0.7714 C   0  0  0  0  0  0  0  0  0  0  0  0
    0.8825   -3.7611    0.3348 C   0  0  0  0  0  0  0  0  0  0  0  0
   -4.7888   -0.8947   -0.4075 C   0  0  0  0  0  0  0  0  0  0  0  0
   -5.4739    1.2023    0.5775 C   0  0  0  0  0  0  0  0  0  0  0  0
   -5.8002   -0.0191   -0.0123 C   0  0  0  0  0  0  0  0  0  0  0  0
   -5.1236   -2.1454   -1.0122 C   0  0  0  0  0  0  0  0  0  0  0  0
    2.9902    3.9152   -1.4999 H   0  0  0  0  0  0  0  0  0  0  0  0
    2.6848    2.0468    2.3092 H   0  0  0  0  0  0  0  0  0  0  0  0
    2.3370    4.0799    0.9179 H   0  0  0  0  0  0  0  0  0  0  0  0
    3.9692    3.4368    0.7274 H   0  0  0  0  0  0  0  0  0  0  0  0
    3.2782    1.6899   -2.5353 H   0  0  0  0  0  0  0  0  0  0  0  0
    4.5581    2.0785   -1.3850 H   0  0  0  0  0  0  0  0  0  0  0  0
    4.4018    0.9487    0.9650 H   0  0  0  0  0  0  0  0  0  0  0  0
    3.0476   -0.1401    1.2553 H   0  0  0  0  0  0  0  0  0  0  0  0
    0.6802    3.8310   -1.1745 H   0  0  0  0  0  0  0  0  0  0  0  0
    0.9675    2.4237   -2.1790 H   0  0  0  0  0  0  0  0  0  0  0  0
    5.1082   -0.2985   -1.0583 H   0  0  0  0  0  0  0  0  0  0  0  0
    3.9039   -0.6409   -2.3071 H   0  0  0  0  0  0  0  0  0  0  0  0
    0.7337    0.7010    2.8852 H   0  0  0  0  0  0  0  0  0  0  0  0
   -1.6029    0.1684    2.5156 H   0  0  0  0  0  0  0  0  0  0  0  0
    5.5016   -2.8366    0.0493 H   0  0  0  0  0  0  0  0  0  0  0  0
    3.7024   -4.6881    0.9385 H   0  0  0  0  0  0  0  0  0  0  0  0
   -2.6620   -1.2323   -0.5230 H   0  0  0  0  0  0  0  0  0  0  0  0
   -3.8982    2.5039    1.2317 H   0  0  0  0  0  0  0  0  0  0  0  0
    0.2017   -3.4024   -0.4434 H   0  0  0  0  0  0  0  0  0  0  0  0
    0.8636   -4.8550    0.3454 H   0  0  0  0  0  0  0  0  0  0  0  0
   -6.2612    1.8843    0.8853 H   0  0  0  0  0  0  0  0  0  0  0  0
   -6.8473   -0.2742   -0.1570 H   0  0  0  0  0  0  0  0  0  0  0  0
   -0.4854   -3.6227    1.7152 H   0  0  0  0  0  0  0  0  0  0  0  0
  1 16  2  0  0  0  0
  2 19  1  0  0  0  0
  2 22  1  0  0  0  0
  3 26  1  0  0  0  0
  3 53  1  0  0  0  0
  4 10  1  0  0  0  0
  4 11  1  0  0  0  0
  4 14  1  0  0  0  0
  5 12  1  0  0  0  0
  5 13  1  0  0  0  0
  5 16  1  0  0  0  0
  6 30  3  0  0  0  0
  7  9  1  0  0  0  0
  7 10  1  0  0  0  0
  7 12  1  0  0  0  0
  7 31  1  0  0  0  0
  8  9  1  0  0  0  0
  8 11  1  0  0  0  0
  8 13  1  0  0  0  0
  8 32  1  0  0  0  0
  9 33  1  0  0  0  0
  9 34  1  0  0  0  0
 10 35  1  0  0  0  0
 10 36  1  0  0  0  0
 11 37  1  0  0  0  0
 11 38  1  0  0  0  0
 12 39  1  0  0  0  0
 12 40  1  0  0  0  0
 13 15  2  0  0  0  0
 14 19  1  0  0  0  0
 14 41  1  0  0  0  0
 14 42  1  0  0  0  0
 15 18  1  0  0  0  0
 15 43  1  0  0  0  0
 16 17  1  0  0  0  0
 17 18  2  0  0  0  0
 17 20  1  0  0  0  0
 18 44  1  0  0  0  0
 19 21  2  0  0  0  0
 20 24  1  0  0  0  0
 20 25  2  0  0  0  0
 21 23  1  0  0  0  0
 21 45  1  0  0  0  0
 22 23  2  0  0  0  0
 22 26  1  0  0  0  0
 23 46  1  0  0  0  0
 24 27  2  0  0  0  0
 24 47  1  0  0  0  0
 25 28  1  0  0  0  0
 25 48  1  0  0  0  0
 26 49  1  0  0  0  0
 26 50  1  0  0  0  0
 27 29  1  0  0  0  0
 27 30  1  0  0  0  0
 28 29  2  0  0  0  0
 28 51  1  0  0  0  0
 29 52  1  0  0  0  0
M  END
> <PUBCHEM_COMPOUND_CID>
11912171

> <PUBCHEM_CONFORMER_RMSD>
0.8

> <PUBCHEM_CONFORMER_DIVERSEORDER>
1
29
36
33
61
41
39
51
55
38
10
44
64
56
59
40
48
13
43
24
54
60
26
15
22
50
46
62
28
45
34
49
4
27
21
63
47
42
37
25
16
8
18
14
9
11
31
58
35
32
30
53
6
19
52
57
23
20
12
7
2
17
3
5

> <PUBCHEM_MMFF94_PARTIAL_CHARGES>
37
1 -0.57
10 0.27
11 0.27
12 0.3
13 -0.03
14 0.45
15 -0.15
16 0.62
17 -0.01
18 -0.15
19 -0.04
2 -0.28
20 0.03
21 -0.15
22 -0.04
23 -0.15
24 -0.15
25 -0.15
26 0.46
27 0.07
28 -0.15
29 -0.15
3 -0.68
30 0.48
4 -0.81
43 0.15
44 0.15
45 0.15
46 0.15
47 0.15
48 0.15
5 -0.47
51 0.15
52 0.15
53 0.4
6 -0.56
8 0.14

> <PUBCHEM_EFFECTIVE_ROTOR_COUNT>
5

> <PUBCHEM_PHARMACOPHORE_FEATURES>
11
1 1 acceptor
1 2 acceptor
1 3 acceptor
1 3 donor
1 4 cation
1 6 acceptor
5 2 19 21 22 23 rings
6 20 24 25 27 28 29 rings
6 4 7 8 9 10 11 rings
6 5 13 15 16 17 18 rings
6 5 7 8 9 12 13 rings

> <PUBCHEM_HEAVY_ATOM_COUNT>
30

> <PUBCHEM_ATOM_DEF_STEREO_COUNT>
2

> <PUBCHEM_ATOM_UDEF_STEREO_COUNT>
0

> <PUBCHEM_BOND_DEF_STEREO_COUNT>
0

> <PUBCHEM_BOND_UDEF_STEREO_COUNT>
0

> <PUBCHEM_ISOTOPIC_ATOM_COUNT>
0

> <PUBCHEM_COMPONENT_COUNT>
1

> <PUBCHEM_CACTVS_TAUTO_COUNT>
1

> <PUBCHEM_CONFORMER_ID>
00B5C3EB00000001

> <PUBCHEM_MMFF94_ENERGY>
65.0069

> <PUBCHEM_FEATURE_SELFOVERLAP>
57.376

> <PUBCHEM_SHAPE_FINGERPRINT>
10622 236 18200579385430734375
11186622 123 18271802471412105871
11796584 16 17846511330791054141
12107183 9 18054520101788182865
13165053 137 11900140379325955983
13533116 47 18342742923028811657
13583140 156 17632002144124948801
1361 2 18263084481868788429
13911987 19 17972635232183330732
14068700 675 18269839705922897922
14117953 113 17838338471793479223
15001296 14 18271802462895862191
15250474 111 18343580759484243487
17093844 170 18122620828048962130
17138139 8 17844246460864106870
17492 54 18116738278064399422
17818456 19 17914062997271744073
20764821 26 17904765831647230903
20775438 99 18265320880009579523
20775530 9 18048876299674925606
23559900 14 18340759352449321401
238 59 18261405450725542082
25222932 49 17130416011694936997
338550 245 18412259570921271543
4280585 95 18191573160431825866
444735 86 18057027215879985735
46194498 28 17749119876178357244
463206 1 18336555901804865466
5309563 4 18193559961063378158
5326457 24 18341334470234716725
66674814 147 18262788700313940043
7970288 3 17841723915398492846

> <PUBCHEM_SHAPE_MULTIPOLES>
584.83
11.42
5.13
1.49
15.36
3.99
0.14
5.44
-2.77
-4.69
-0.28
-0.14
-0.38
-1.82

> <PUBCHEM_SHAPE_SELFOVERLAP>
1289.947

> <PUBCHEM_SHAPE_VOLUME>
306.9

> <PUBCHEM_COORDINATE_TYPE>
2
5
10

$$$$
