11885878
  -OEChem-12032416283D

 54 58  0     1  0  0  0  0  0999 V2000
   -1.9713   -5.2670   -0.7633 F   0  0  0  0  0  0  0  0  0  0  0  0
    8.3836   -0.2074    1.0387 F   0  0  0  0  0  0  0  0  0  0  0  0
    0.6796    2.5446    1.2280 O   0  0  0  0  0  0  0  0  0  0  0  0
   -3.4299   -0.2593    2.6488 O   0  0  0  0  0  0  0  0  0  0  0  0
    2.6207   -1.1431   -1.2498 O   0  0  0  0  0  0  0  0  0  0  0  0
   -3.8897    0.6601    0.5469 N   0  0  0  0  0  0  0  0  0  0  0  0
   -1.1750    2.1510   -0.1375 N   0  0  0  0  0  0  0  0  0  0  0  0
    2.3267    0.9576   -0.2950 N   0  0  0  0  0  0  0  0  0  0  0  0
   -3.4956    3.1109    0.3687 C   0  0  1  0  0  0  0  0  0  0  0  0
   -3.1682    1.6730   -1.6026 C   0  0  2  0  0  0  0  0  0  0  0  0
   -3.7033    3.0271   -1.1396 C   0  0  0  0  0  0  0  0  0  0  0  0
   -4.2518    1.9735    1.0790 C   0  0  0  0  0  0  0  0  0  0  0  0
   -1.9906    3.0754    0.6629 C   0  0  0  0  0  0  0  0  0  0  0  0
   -3.9625    0.5423   -0.9185 C   0  0  0  0  0  0  0  0  0  0  0  0
   -1.6931    1.5296   -1.2785 C   0  0  0  0  0  0  0  0  0  0  0  0
   -0.8980    0.7804   -2.0606 C   0  0  0  0  0  0  0  0  0  0  0  0
    0.1742    2.0046    0.2429 C   0  0  0  0  0  0  0  0  0  0  0  0
   -3.4928   -0.3518    1.4242 C   0  0  0  0  0  0  0  0  0  0  0  0
    1.0198    1.1395   -0.6395 C   0  0  0  0  0  0  0  0  0  0  0  0
    0.4852    0.5825   -1.7312 C   0  0  0  0  0  0  0  0  0  0  0  0
   -3.0936   -1.6410    0.8504 C   0  0  0  0  0  0  0  0  0  0  0  0
   -1.7627   -1.8644    0.5073 C   0  0  0  0  0  0  0  0  0  0  0  0
   -4.0476   -2.6359    0.6516 C   0  0  0  0  0  0  0  0  0  0  0  0
    3.0531   -0.1792   -0.6225 C   0  0  0  0  0  0  0  0  0  0  0  0
   -1.3832   -3.0907   -0.0384 C   0  0  0  0  0  0  0  0  0  0  0  0
   -3.6682   -3.8622    0.1060 C   0  0  0  0  0  0  0  0  0  0  0  0
   -2.3358   -4.0898   -0.2389 C   0  0  0  0  0  0  0  0  0  0  0  0
    4.4719   -0.1868   -0.1804 C   0  0  0  0  0  0  0  0  0  0  0  0
    5.3871   -0.9335   -0.8924 C   0  0  0  0  0  0  0  0  0  0  0  0
    4.8277    0.5536    0.9276 C   0  0  0  0  0  0  0  0  0  0  0  0
    6.7187   -0.9405   -0.4773 C   0  0  0  0  0  0  0  0  0  0  0  0
    6.1593    0.5468    1.3427 C   0  0  0  0  0  0  0  0  0  0  0  0
    7.1050   -0.2003    0.6401 C   0  0  0  0  0  0  0  0  0  0  0  0
   -3.8978    4.0603    0.7432 H   0  0  0  0  0  0  0  0  0  0  0  0
   -3.3198    1.5970   -2.6871 H   0  0  0  0  0  0  0  0  0  0  0  0
   -4.7679    3.1231   -1.3853 H   0  0  0  0  0  0  0  0  0  0  0  0
   -3.1806    3.8470   -1.6480 H   0  0  0  0  0  0  0  0  0  0  0  0
   -5.3316    2.0911    0.9256 H   0  0  0  0  0  0  0  0  0  0  0  0
   -4.0737    2.0170    2.1586 H   0  0  0  0  0  0  0  0  0  0  0  0
   -1.8117    2.8693    1.7258 H   0  0  0  0  0  0  0  0  0  0  0  0
   -1.5731    4.0741    0.4753 H   0  0  0  0  0  0  0  0  0  0  0  0
   -5.0235    0.6121   -1.1888 H   0  0  0  0  0  0  0  0  0  0  0  0
   -3.6119   -0.4324   -1.2663 H   0  0  0  0  0  0  0  0  0  0  0  0
   -1.2795    0.2800   -2.9445 H   0  0  0  0  0  0  0  0  0  0  0  0
    1.0421   -0.0055   -2.4504 H   0  0  0  0  0  0  0  0  0  0  0  0
    2.7017    1.6446    0.3499 H   0  0  0  0  0  0  0  0  0  0  0  0
   -1.0112   -1.0972    0.6693 H   0  0  0  0  0  0  0  0  0  0  0  0
   -5.0881   -2.4681    0.9166 H   0  0  0  0  0  0  0  0  0  0  0  0
   -0.3456   -3.2680   -0.3057 H   0  0  0  0  0  0  0  0  0  0  0  0
   -4.4097   -4.6399   -0.0507 H   0  0  0  0  0  0  0  0  0  0  0  0
    5.1041   -1.5107   -1.7675 H   0  0  0  0  0  0  0  0  0  0  0  0
    4.1244    1.1142    1.5331 H   0  0  0  0  0  0  0  0  0  0  0  0
    7.4555   -1.5210   -1.0246 H   0  0  0  0  0  0  0  0  0  0  0  0
    6.4593    1.1149    2.2184 H   0  0  0  0  0  0  0  0  0  0  0  0
  1 27  1  0  0  0  0
  2 33  1  0  0  0  0
  3 17  2  0  0  0  0
  4 18  2  0  0  0  0
  5 24  2  0  0  0  0
  6 12  1  0  0  0  0
  6 14  1  0  0  0  0
  6 18  1  0  0  0  0
  7 13  1  0  0  0  0
  7 15  1  0  0  0  0
  7 17  1  0  0  0  0
  8 19  1  0  0  0  0
  8 24  1  0  0  0  0
  8 46  1  0  0  0  0
  9 11  1  0  0  0  0
  9 12  1  0  0  0  0
  9 13  1  0  0  0  0
  9 34  1  0  0  0  0
 10 11  1  0  0  0  0
 10 14  1  0  0  0  0
 10 15  1  0  0  0  0
 10 35  1  0  0  0  0
 11 36  1  0  0  0  0
 11 37  1  0  0  0  0
 12 38  1  0  0  0  0
 12 39  1  0  0  0  0
 13 40  1  0  0  0  0
 13 41  1  0  0  0  0
 14 42  1  0  0  0  0
 14 43  1  0  0  0  0
 15 16  2  0  0  0  0
 16 20  1  0  0  0  0
 16 44  1  0  0  0  0
 17 19  1  0  0  0  0
 18 21  1  0  0  0  0
 19 20  2  0  0  0  0
 20 45  1  0  0  0  0
 21 22  2  0  0  0  0
 21 23  1  0  0  0  0
 22 25  1  0  0  0  0
 22 47  1  0  0  0  0
 23 26  2  0  0  0  0
 23 48  1  0  0  0  0
 24 28  1  0  0  0  0
 25 27  2  0  0  0  0
 25 49  1  0  0  0  0
 26 27  1  0  0  0  0
 26 50  1  0  0  0  0
 28 29  2  0  0  0  0
 28 30  1  0  0  0  0
 29 31  1  0  0  0  0
 29 51  1  0  0  0  0
 30 32  2  0  0  0  0
 30 52  1  0  0  0  0
 31 33  2  0  0  0  0
 31 53  1  0  0  0  0
 32 33  1  0  0  0  0
 32 54  1  0  0  0  0
M  END
> <PUBCHEM_COMPOUND_CID>
11885878

> <PUBCHEM_CONFORMER_RMSD>
0.8

> <PUBCHEM_CONFORMER_DIVERSEORDER>
1
9
6
5
15
11
13
3
7
12
10
8
4
14
2

> <PUBCHEM_MMFF94_PARTIAL_CHARGES>
42
1 -0.19
10 0.14
12 0.3
13 0.3
14 0.3
15 -0.03
16 -0.15
17 0.62
18 0.54
19 0.12
2 -0.19
20 -0.15
21 0.09
22 -0.15
23 -0.15
24 0.54
25 -0.15
26 -0.15
27 0.19
28 0.09
29 -0.15
3 -0.57
30 -0.15
31 -0.15
32 -0.15
33 0.19
4 -0.57
44 0.15
45 0.15
46 0.37
47 0.15
48 0.15
49 0.15
5 -0.57
50 0.15
51 0.15
52 0.15
53 0.15
54 0.15
6 -0.66
7 -0.47
8 -0.54

> <PUBCHEM_EFFECTIVE_ROTOR_COUNT>
6

> <PUBCHEM_PHARMACOPHORE_FEATURES>
9
1 3 acceptor
1 4 acceptor
1 5 acceptor
1 8 donor
6 21 22 23 25 26 27 rings
6 28 29 30 31 32 33 rings
6 6 9 10 11 12 14 rings
6 7 15 16 17 19 20 rings
6 7 9 10 11 13 15 rings

> <PUBCHEM_HEAVY_ATOM_COUNT>
33

> <PUBCHEM_ATOM_DEF_STEREO_COUNT>
2

> <PUBCHEM_ATOM_UDEF_STEREO_COUNT>
0

> <PUBCHEM_BOND_DEF_STEREO_COUNT>
0

> <PUBCHEM_BOND_UDEF_STEREO_COUNT>
0

> <PUBCHEM_ISOTOPIC_ATOM_COUNT>
0

> <PUBCHEM_COMPONENT_COUNT>
1

> <PUBCHEM_CACTVS_TAUTO_COUNT>
2

> <PUBCHEM_CONFORMER_ID>
00B55D3600000001

> <PUBCHEM_MMFF94_ENERGY>
97.9079

> <PUBCHEM_FEATURE_SELFOVERLAP>
47.254

> <PUBCHEM_SHAPE_FINGERPRINT>
10290309 65 18265903453525949942
10483366 6 18337093654377379007
11014199 57 17977390760673660346
11112241 14 17986957353859060413
11135609 149 17405686556640315407
11135609 187 18119238464527474261
11524674 6 18336544915647417165
12633257 1 18056786375525110649
12712778 12 18408325496879039526
13004483 165 18193001650049345343
14068700 675 18115867567607362135
14114206 34 16226312807358813365
14659021 117 18342163493042814789
14674994 50 18263069050657904135
14844126 61 18335703870830368475
14856354 85 18413108368639853460
14950920 106 17988934417394377376
15021287 119 16805329881647959708
15183329 4 8790882978635505860
15348495 7 18342735230948041528
19611394 137 18272367608004644936
20511986 3 17531235111826847152
20775530 9 17762354904069410431
3383291 50 18411138048240491091
397830 11 18269545196031875464
4073 2 18341326718182763862
4409770 3 18335134289663446975
484985 159 18261944228524283479
5080951 261 17968919947478740492
5364581 5 18268704077889399464

> <PUBCHEM_SHAPE_MULTIPOLES>
632.03
14.73
4.79
1.65
38.67
5.27
-0.07
1.88
-4.43
-9.11
0.34
-0.66
-0.47
0.99

> <PUBCHEM_SHAPE_SELFOVERLAP>
1402.964

> <PUBCHEM_SHAPE_VOLUME>
334.7

> <PUBCHEM_COORDINATE_TYPE>
2
5
10

$$$$
