25338757
  -OEChem-12032416283D

 44 47  0     1  0  0  0  0  0999 V2000
    2.7560   -2.4657   -0.6447 O   0  0  0  0  0  0  0  0  0  0  0  0
   -3.8742   -0.7758   -1.7438 O   0  0  0  0  0  0  0  0  0  0  0  0
   -0.2493   -2.8364    1.1573 N   0  0  1  0  0  0  0  0  0  0  0  0
   -2.4603   -1.0991    0.0655 N   0  0  0  0  0  0  0  0  0  0  0  0
    1.6691   -0.6142   -0.0063 N   0  0  0  0  0  0  0  0  0  0  0  0
    3.7062   -1.4366   -0.6450 N   0  0  0  0  0  0  0  0  0  0  0  0
   -3.0775    1.3782    0.9285 N   0  0  0  0  0  0  0  0  0  0  0  0
   -4.8712    3.0407   -0.4443 N   0  0  0  0  0  0  0  0  0  0  0  0
   -2.0262   -2.4278   -0.2953 C   0  0  1  0  0  0  0  0  0  0  0  0
    0.3834   -2.8136   -0.1754 C   0  0  1  0  0  0  0  0  0  0  0  0
   -0.7486   -2.3941   -1.1338 C   0  0  0  0  0  0  0  0  0  0  0  0
   -1.6418   -3.2376    0.9337 C   0  0  0  0  0  0  0  0  0  0  0  0
    1.5847   -1.8963   -0.2575 C   0  0  0  0  0  0  0  0  0  0  0  0
    0.4271   -3.7205    2.0988 C   0  0  0  0  0  0  0  0  0  0  0  0
   -3.3609   -0.3765   -0.7020 C   0  0  0  0  0  0  0  0  0  0  0  0
    2.9892   -0.3774   -0.2579 C   0  0  0  0  0  0  0  0  0  0  0  0
   -3.6857    0.9867   -0.2088 C   0  0  0  0  0  0  0  0  0  0  0  0
    3.5606    0.9304   -0.1141 C   0  0  0  0  0  0  0  0  0  0  0  0
   -4.5668    1.8032   -0.8831 C   0  0  0  0  0  0  0  0  0  0  0  0
    2.7613    1.9990    0.2922 C   0  0  0  0  0  0  0  0  0  0  0  0
    4.9144    1.1339   -0.3806 C   0  0  0  0  0  0  0  0  0  0  0  0
    3.3161    3.2713    0.4319 C   0  0  0  0  0  0  0  0  0  0  0  0
    5.4692    2.4060   -0.2410 C   0  0  0  0  0  0  0  0  0  0  0  0
   -3.3819    2.6155    1.3672 C   0  0  0  0  0  0  0  0  0  0  0  0
    4.6700    3.4747    0.1653 C   0  0  0  0  0  0  0  0  0  0  0  0
   -4.2630    3.4322    0.6930 C   0  0  0  0  0  0  0  0  0  0  0  0
   -2.8365   -2.9177   -0.8471 H   0  0  0  0  0  0  0  0  0  0  0  0
    0.6970   -3.8286   -0.4593 H   0  0  0  0  0  0  0  0  0  0  0  0
   -0.5851   -1.4145   -1.5981 H   0  0  0  0  0  0  0  0  0  0  0  0
   -0.8218   -3.1330   -1.9417 H   0  0  0  0  0  0  0  0  0  0  0  0
   -2.2733   -3.0172    1.8010 H   0  0  0  0  0  0  0  0  0  0  0  0
   -1.7119   -4.3099    0.7087 H   0  0  0  0  0  0  0  0  0  0  0  0
   -2.0483   -0.6627    0.8857 H   0  0  0  0  0  0  0  0  0  0  0  0
    1.4562   -3.3878    2.2717 H   0  0  0  0  0  0  0  0  0  0  0  0
    0.4558   -4.7588    1.7495 H   0  0  0  0  0  0  0  0  0  0  0  0
   -0.0790   -3.6998    3.0701 H   0  0  0  0  0  0  0  0  0  0  0  0
   -5.0651    1.5049   -1.7978 H   0  0  0  0  0  0  0  0  0  0  0  0
    1.7031    1.8728    0.5073 H   0  0  0  0  0  0  0  0  0  0  0  0
    5.5681    0.3257   -0.6991 H   0  0  0  0  0  0  0  0  0  0  0  0
    2.6941    4.1036    0.7482 H   0  0  0  0  0  0  0  0  0  0  0  0
    6.5234    2.5651   -0.4485 H   0  0  0  0  0  0  0  0  0  0  0  0
   -2.8935    2.9308    2.2809 H   0  0  0  0  0  0  0  0  0  0  0  0
    5.1020    4.4652    0.2740 H   0  0  0  0  0  0  0  0  0  0  0  0
   -4.5071    4.4264    1.0463 H   0  0  0  0  0  0  0  0  0  0  0  0
  1  6  1  0  0  0  0
  1 13  1  0  0  0  0
  2 15  2  0  0  0  0
  3 10  1  0  0  0  0
  3 12  1  0  0  0  0
  3 14  1  0  0  0  0
  4  9  1  0  0  0  0
  4 15  1  0  0  0  0
  4 33  1  0  0  0  0
  5 13  2  0  0  0  0
  5 16  1  0  0  0  0
  6 16  2  0  0  0  0
  7 17  2  0  0  0  0
  7 24  1  0  0  0  0
  8 19  2  0  0  0  0
  8 26  1  0  0  0  0
  9 11  1  0  0  0  0
  9 12  1  0  0  0  0
  9 27  1  0  0  0  0
 10 11  1  0  0  0  0
 10 13  1  0  0  0  0
 10 28  1  0  0  0  0
 11 29  1  0  0  0  0
 11 30  1  0  0  0  0
 12 31  1  0  0  0  0
 12 32  1  0  0  0  0
 14 34  1  0  0  0  0
 14 35  1  0  0  0  0
 14 36  1  0  0  0  0
 15 17  1  0  0  0  0
 16 18  1  0  0  0  0
 17 19  1  0  0  0  0
 18 20  2  0  0  0  0
 18 21  1  0  0  0  0
 19 37  1  0  0  0  0
 20 22  1  0  0  0  0
 20 38  1  0  0  0  0
 21 23  2  0  0  0  0
 21 39  1  0  0  0  0
 22 25  2  0  0  0  0
 22 40  1  0  0  0  0
 23 25  1  0  0  0  0
 23 41  1  0  0  0  0
 24 26  2  0  0  0  0
 24 42  1  0  0  0  0
 25 43  1  0  0  0  0
 26 44  1  0  0  0  0
M  END
> <PUBCHEM_COMPOUND_CID>
25338757

> <PUBCHEM_CONFORMER_RMSD>
0.8

> <PUBCHEM_CONFORMER_DIVERSEORDER>
1
77
24
31
74
69
21
80
18
19
58
50
63
49
32
79
72
75
33
62
52
76
34
73
11
51
42
13
53
60
65
78
26
71
14
9
81
38
43
59
39
3
28
44
66
57
41
15
5
48
45
17
8
67
61
12
22
68
23
10
40
47
37
64
27
54
29
7
35
55
16
30
2
25
46
70
56
36
4
6
20

> <PUBCHEM_MMFF94_PARTIAL_CHARGES>
34
1 -0.02
10 0.45
12 0.27
13 0.3
14 0.27
15 0.54
16 0.46
17 0.4
18 0.05
19 0.16
2 -0.57
20 -0.15
21 -0.15
22 -0.15
23 -0.15
24 0.16
25 -0.15
26 0.16
3 -0.81
33 0.37
37 0.15
38 0.15
39 0.15
4 -0.73
40 0.15
41 0.15
42 0.15
43 0.15
44 0.15
5 -0.57
6 -0.41
7 -0.62
8 -0.62
9 0.3

> <PUBCHEM_EFFECTIVE_ROTOR_COUNT>
6

> <PUBCHEM_PHARMACOPHORE_FEATURES>
10
1 2 acceptor
1 3 cation
1 4 donor
1 7 acceptor
1 8 acceptor
3 5 6 16 cation
5 1 5 6 13 16 rings
5 3 9 10 11 12 rings
6 18 20 21 22 23 25 rings
6 7 8 17 19 24 26 rings

> <PUBCHEM_HEAVY_ATOM_COUNT>
26

> <PUBCHEM_ATOM_DEF_STEREO_COUNT>
2

> <PUBCHEM_ATOM_UDEF_STEREO_COUNT>
0

> <PUBCHEM_BOND_DEF_STEREO_COUNT>
0

> <PUBCHEM_BOND_UDEF_STEREO_COUNT>
0

> <PUBCHEM_ISOTOPIC_ATOM_COUNT>
0

> <PUBCHEM_COMPONENT_COUNT>
1

> <PUBCHEM_CACTVS_TAUTO_COUNT>
2

> <PUBCHEM_CONFORMER_ID>
0182A38500000001

> <PUBCHEM_MMFF94_ENERGY>
56.914

> <PUBCHEM_FEATURE_SELFOVERLAP>
50.751

> <PUBCHEM_SHAPE_FINGERPRINT>
10937287 8 18409729539020964723
1100329 8 18338237038563092858
11059048 146 18268447856792920260
11408170 253 17617674588761779124
12107183 9 18261374643400063890
12788726 201 18119798364500091099
13590594 115 17186447836995195203
13944108 23 17689160006475084804
13965767 371 17749662991893502086
14251764 38 18411978087533799082
14251764 75 18270690757708610017
14289585 56 16112090806268804155
14347329 18 18268709592642965424
14848178 96 18411413973401868213
14931854 50 18272365395305547573
15142526 21 18262241010959375555
16067690 210 17471543991180740544
16112460 7 18337951186946148768
16992787 43 18340198713915890039
20398071 114 18340482369449505824
21033648 144 17053025898633071292
21279426 13 18342471348378525388
21344244 78 17107047721919326899
21859007 373 17984696982135522144
21860390 5 17914337866234663134
21864079 5 18340485569590160963
22122407 14 17762632694323313025
23845131 108 18114186277248605651
245318 6 18261690219610457517
283562 15 18189049970805259699
2838139 119 18341608243992389030
312425 83 17846504729141334942
325973 47 16392679537843127420
376196 1 18411980260856264358
4144715 1 18262525909442226826
437795 96 17047657021445598680
474 4 18194399983937154099
5048184 11 18412827966977918977
59124914 9 18335703776362218986
7288768 16 18186519934023799539
9981440 41 18267296715595121658

> <PUBCHEM_SHAPE_MULTIPOLES>
493.44
11.45
5.89
1.24
4.16
0.09
-0.3
-14.58
1.83
-1.45
-1.98
-0.96
0.72
-0.1

> <PUBCHEM_SHAPE_SELFOVERLAP>
1073.168

> <PUBCHEM_SHAPE_VOLUME>
269.5

> <PUBCHEM_COORDINATE_TYPE>
2
5
10

$$$$
