11913087
  -OEChem-12032416123D

 47 50  0     1  0  0  0  0  0999 V2000
   -4.2077   -1.9129    0.6994 S   0  0  0  0  0  0  0  0  0  0  0  0
    1.9147    0.4305   -1.6416 O   0  0  0  0  0  0  0  0  0  0  0  0
    0.2703   -1.9531   -0.6279 O   0  0  0  0  0  0  0  0  0  0  0  0
    3.7711   -1.2246   -0.4107 O   0  0  0  0  0  0  0  0  0  0  0  0
    4.1620    0.5536    0.9894 O   0  0  0  0  0  0  0  0  0  0  0  0
   -0.9302    1.4915   -0.9729 N   0  0  0  0  0  0  0  0  0  0  0  0
   -2.9572    0.5762   -0.2241 N   0  0  0  0  0  0  0  0  0  0  0  0
   -2.4952    2.9285    0.0224 N   0  0  0  0  0  0  0  0  0  0  0  0
    5.8417   -0.3102   -0.3577 N   0  0  0  0  0  0  0  0  0  0  0  0
    0.2116   -0.5463   -0.3117 C   0  0  1  0  0  0  0  0  0  0  0  0
    1.6391   -0.0367   -0.3110 C   0  0  1  0  0  0  0  0  0  0  0  0
   -0.4460    0.2107   -1.4416 C   0  0  2  0  0  0  0  0  0  0  0  0
    2.4300   -1.2795    0.0202 C   0  0  1  0  0  0  0  0  0  0  0  0
    0.7044    0.4059   -2.4138 C   0  0  0  0  0  0  0  0  0  0  0  0
    1.6459   -2.3563   -0.6953 C   0  0  0  0  0  0  0  0  0  0  0  0
   -2.1646    1.6707   -0.3736 C   0  0  0  0  0  0  0  0  0  0  0  0
    4.5619   -0.2487    0.1521 C   0  0  0  0  0  0  0  0  0  0  0  0
   -4.1528    0.7873    0.3643 C   0  0  0  0  0  0  0  0  0  0  0  0
   -3.7050    3.0674    0.6033 C   0  0  0  0  0  0  0  0  0  0  0  0
    6.9058    0.5839    0.0368 C   0  0  0  0  0  0  0  0  0  0  0  0
   -4.5843    2.0228    0.8025 C   0  0  0  0  0  0  0  0  0  0  0  0
   -4.9693   -0.3884    0.5081 C   0  0  0  0  0  0  0  0  0  0  0  0
    7.6324   -0.0057    1.1995 C   0  0  0  0  0  0  0  0  0  0  0  0
   -6.3455   -0.4997    0.5182 C   0  0  0  0  0  0  0  0  0  0  0  0
   -6.7758   -1.8478    0.6845 C   0  0  0  0  0  0  0  0  0  0  0  0
   -5.7151   -2.7195    0.7957 C   0  0  0  0  0  0  0  0  0  0  0  0
    7.7576    0.6003    2.3856 C   0  0  0  0  0  0  0  0  0  0  0  0
   -0.2799   -0.4492    0.6615 H   0  0  0  0  0  0  0  0  0  0  0  0
    1.7878    0.8017    0.3746 H   0  0  0  0  0  0  0  0  0  0  0  0
   -1.2461   -0.3483   -1.9404 H   0  0  0  0  0  0  0  0  0  0  0  0
    2.3890   -1.4761    1.1001 H   0  0  0  0  0  0  0  0  0  0  0  0
    0.7805   -0.4418   -3.1037 H   0  0  0  0  0  0  0  0  0  0  0  0
    0.6350    1.3235   -3.0063 H   0  0  0  0  0  0  0  0  0  0  0  0
    1.7640   -3.3377   -0.2263 H   0  0  0  0  0  0  0  0  0  0  0  0
    1.9357   -2.4530   -1.7477 H   0  0  0  0  0  0  0  0  0  0  0  0
   -0.3267    2.3039   -1.0317 H   0  0  0  0  0  0  0  0  0  0  0  0
    6.0490   -1.0329   -1.0406 H   0  0  0  0  0  0  0  0  0  0  0  0
   -3.9557    4.0755    0.9161 H   0  0  0  0  0  0  0  0  0  0  0  0
    7.5846    0.6882   -0.8152 H   0  0  0  0  0  0  0  0  0  0  0  0
    6.4842    1.5677    0.2690 H   0  0  0  0  0  0  0  0  0  0  0  0
   -5.5419    2.1875    1.2802 H   0  0  0  0  0  0  0  0  0  0  0  0
    8.0983   -0.9785    1.0627 H   0  0  0  0  0  0  0  0  0  0  0  0
   -7.0234    0.3377    0.4071 H   0  0  0  0  0  0  0  0  0  0  0  0
   -7.8108   -2.1623    0.7195 H   0  0  0  0  0  0  0  0  0  0  0  0
   -5.7533   -3.7915    0.9283 H   0  0  0  0  0  0  0  0  0  0  0  0
    7.3193    1.5740    2.5743 H   0  0  0  0  0  0  0  0  0  0  0  0
    8.3052    0.1233    3.1911 H   0  0  0  0  0  0  0  0  0  0  0  0
  1 22  1  0  0  0  0
  1 26  1  0  0  0  0
  2 11  1  0  0  0  0
  2 14  1  0  0  0  0
  3 10  1  0  0  0  0
  3 15  1  0  0  0  0
  4 13  1  0  0  0  0
  4 17  1  0  0  0  0
  5 17  2  0  0  0  0
  6 12  1  0  0  0  0
  6 16  1  0  0  0  0
  6 36  1  0  0  0  0
  7 16  1  0  0  0  0
  7 18  2  0  0  0  0
  8 16  2  0  0  0  0
  8 19  1  0  0  0  0
  9 17  1  0  0  0  0
  9 20  1  0  0  0  0
  9 37  1  0  0  0  0
 10 11  1  0  0  0  0
 10 12  1  0  0  0  0
 10 28  1  0  0  0  0
 11 13  1  0  0  0  0
 11 29  1  0  0  0  0
 12 14  1  0  0  0  0
 12 30  1  0  0  0  0
 13 15  1  0  0  0  0
 13 31  1  0  0  0  0
 14 32  1  0  0  0  0
 14 33  1  0  0  0  0
 15 34  1  0  0  0  0
 15 35  1  0  0  0  0
 18 21  1  0  0  0  0
 18 22  1  0  0  0  0
 19 21  2  0  0  0  0
 19 38  1  0  0  0  0
 20 23  1  0  0  0  0
 20 39  1  0  0  0  0
 20 40  1  0  0  0  0
 21 41  1  0  0  0  0
 22 24  2  0  0  0  0
 23 27  2  0  0  0  0
 23 42  1  0  0  0  0
 24 25  1  0  0  0  0
 24 43  1  0  0  0  0
 25 26  2  0  0  0  0
 25 44  1  0  0  0  0
 26 45  1  0  0  0  0
 27 46  1  0  0  0  0
 27 47  1  0  0  0  0
M  END
> <PUBCHEM_COMPOUND_CID>
11913087

> <PUBCHEM_CONFORMER_RMSD>
1

> <PUBCHEM_CONFORMER_DIVERSEORDER>
1
51
22
100
56
85
28
77
79
101
37
111
20
67
60
114
7
49
87
110
75
83
52
95
121
78
116
97
104
69
102
8
96
58
25
82
39
63
59
124
109
120
71
72
17
73
53
9
76
43
31
18
89
54
19
26
84
44
103
88
41
65
105
112
86
29
32
40
45
34
118
81
91
30
115
99
113
62
93
61
46
80
23
33
47
122
90
74
117
106
6
27
38
64
119
12
68
55
42
21
13
24
123
11
94
66
48
57
50
2
35
70
4
3
92
15
36
5
98
14
10
16
107
108

> <PUBCHEM_MMFF94_PARTIAL_CHARGES>
37
1 -0.08
10 0.28
11 0.28
12 0.37
13 0.28
14 0.28
15 0.28
16 0.72
17 0.78
18 0.36
19 0.16
2 -0.56
20 0.44
21 -0.15
22 -0.01
23 -0.29
24 -0.15
25 -0.15
26 -0.11
27 -0.3
3 -0.56
36 0.4
37 0.37
38 0.15
4 -0.43
41 0.15
42 0.15
43 0.15
44 0.15
45 0.15
46 0.15
47 0.15
5 -0.57
6 -0.87
7 -0.62
8 -0.62
9 -0.73

> <PUBCHEM_EFFECTIVE_ROTOR_COUNT>
9.2

> <PUBCHEM_PHARMACOPHORE_FEATURES>
12
1 2 acceptor
1 27 hydrophobe
1 3 acceptor
1 5 acceptor
1 6 donor
1 7 acceptor
1 9 donor
4 6 7 8 16 cation
5 1 22 24 25 26 rings
5 2 10 11 12 14 rings
5 3 10 11 13 15 rings
6 7 8 16 18 19 21 rings

> <PUBCHEM_HEAVY_ATOM_COUNT>
27

> <PUBCHEM_ATOM_DEF_STEREO_COUNT>
4

> <PUBCHEM_ATOM_UDEF_STEREO_COUNT>
0

> <PUBCHEM_BOND_DEF_STEREO_COUNT>
0

> <PUBCHEM_BOND_UDEF_STEREO_COUNT>
0

> <PUBCHEM_ISOTOPIC_ATOM_COUNT>
0

> <PUBCHEM_COMPONENT_COUNT>
1

> <PUBCHEM_CACTVS_TAUTO_COUNT>
6

> <PUBCHEM_CONFORMER_ID>
00B5C77F00000001

> <PUBCHEM_MMFF94_ENERGY>
64.5375

> <PUBCHEM_FEATURE_SELFOVERLAP>
61.611

> <PUBCHEM_SHAPE_FINGERPRINT>
10 15 18341608253072622216
10369192 42 16630527349161929924
106641 1 18186519943156903432
11135609 99 17750242576387590859
11200772 48 10159696919285898980
11646440 116 17489868254780288136
12373685 5 17024286579679004547
12553582 1 18122375538920903927
12596602 18 18336544919974026816
12730499 353 17917997149134486022
128238 76 18335427910311805198
12838862 33 18334848408456712607
13947920 75 17749106716245386843
13964095 4 9655578517478163610
14251752 14 10015868673948614060
14461889 52 18412263935246555930
1454969 45 18114190769382899094
14849402 71 18339366391598014496
15188451 53 18113052752961824661
15519825 34 18113890607161875754
16992727 255 10807946976205634394
17349148 13 17676784127452493077
1768 4 17059766828265822248
18608769 82 18272366512197049594
19377110 9 18113329791849495546
20028762 73 18186806897874424922
21130935 74 18336826382414599282
21304303 282 13191161429444755671
21304303 64 15554443029067031536
21756936 100 18060123337591365308
22224240 67 18343579659556117958
22956985 138 17834113422681475513
23559900 14 17912111377312080317
249057 3 8862941675831065643
3004659 81 17894919563945413551
3009799 131 8214144053926304910
32027 91 17684361759280321759
38570 142 12535351194596047383
392239 28 18411708694279181737
397830 11 18343301444833787022
439807 62 17460328870395151491
4403749 210 18341040861458514741
444735 79 18412543249258468099
5104073 3 18339357440642797442
57035037 87 16128385827630419393
59682541 35 18059574732565293411
67856867 119 18187376470988878133
9689198 14 16917073256773589952
9953998 17 18272371966979550025

> <PUBCHEM_SHAPE_MULTIPOLES>
516.1
19.85
2.73
1.51
23.04
0.66
-0.19
-3.28
12.89
-5.34
0.4
2.06
0.22
1.09

> <PUBCHEM_SHAPE_SELFOVERLAP>
1098.535

> <PUBCHEM_SHAPE_VOLUME>
288.4

> <PUBCHEM_COORDINATE_TYPE>
2
5
10

$$$$
