45783736
  -OEChem-12032416363D

 48 51  0     1  0  0  0  0  0999 V2000
    2.7178   -2.2347    1.0439 O   0  0  0  0  0  0  0  0  0  0  0  0
   -0.8033   -2.5581    0.0428 N   0  0  1  0  0  0  0  0  0  0  0  0
    1.5524   -0.7339   -0.1420 N   0  0  0  0  0  0  0  0  0  0  0  0
    3.4957   -1.0702    1.0177 N   0  0  0  0  0  0  0  0  0  0  0  0
    2.6473    3.4222   -0.4494 N   0  0  0  0  0  0  0  0  0  0  0  0
    0.8748    1.9028   -0.0657 N   0  0  0  0  0  0  0  0  0  0  0  0
    4.9370    2.6736   -0.3856 N   0  0  0  0  0  0  0  0  0  0  0  0
    0.5727   -3.0646    0.2177 C   0  0  1  0  0  0  0  0  0  0  0  0
    0.8170   -3.9642   -1.0079 C   0  0  0  0  0  0  0  0  0  0  0  0
   -1.5213   -3.5709   -0.7312 C   0  0  0  0  0  0  0  0  0  0  0  0
   -0.4950   -3.9501   -1.7796 C   0  0  0  0  0  0  0  0  0  0  0  0
   -1.4693   -2.2575    1.3036 C   0  0  0  0  0  0  0  0  0  0  0  0
    1.5919   -1.9511    0.3381 C   0  0  0  0  0  0  0  0  0  0  0  0
   -2.6568   -1.3258    1.0673 C   0  0  0  0  0  0  0  0  0  0  0  0
   -2.2022    0.0031    0.4582 C   0  0  0  0  0  0  0  0  0  0  0  0
   -3.3676    0.9191    0.1845 C   0  0  0  0  0  0  0  0  0  0  0  0
    2.7415   -0.2318    0.3006 C   0  0  0  0  0  0  0  0  0  0  0  0
   -4.0164    0.8731   -1.0494 C   0  0  0  0  0  0  0  0  0  0  0  0
   -3.7970    1.8129    1.1654 C   0  0  0  0  0  0  0  0  0  0  0  0
    3.1474    1.1125    0.0075 C   0  0  0  0  0  0  0  0  0  0  0  0
   -5.0948    1.7210   -1.3025 C   0  0  0  0  0  0  0  0  0  0  0  0
   -4.8754    2.6607    0.9124 C   0  0  0  0  0  0  0  0  0  0  0  0
   -5.5242    2.6148   -0.3215 C   0  0  0  0  0  0  0  0  0  0  0  0
    2.2651    2.1580   -0.1732 C   0  0  0  0  0  0  0  0  0  0  0  0
    4.4845    1.4324   -0.1115 C   0  0  0  0  0  0  0  0  0  0  0  0
    3.9782    3.6065   -0.5402 C   0  0  0  0  0  0  0  0  0  0  0  0
    0.6355   -3.6945    1.1164 H   0  0  0  0  0  0  0  0  0  0  0  0
    1.6453   -3.6317   -1.6430 H   0  0  0  0  0  0  0  0  0  0  0  0
    1.0367   -4.9864   -0.6764 H   0  0  0  0  0  0  0  0  0  0  0  0
   -1.7806   -4.4478   -0.1247 H   0  0  0  0  0  0  0  0  0  0  0  0
   -2.4302   -3.1790   -1.1974 H   0  0  0  0  0  0  0  0  0  0  0  0
   -0.4549   -3.1891   -2.5688 H   0  0  0  0  0  0  0  0  0  0  0  0
   -0.7097   -4.9151   -2.2479 H   0  0  0  0  0  0  0  0  0  0  0  0
   -1.7965   -3.1683    1.8205 H   0  0  0  0  0  0  0  0  0  0  0  0
   -0.7780   -1.7461    1.9861 H   0  0  0  0  0  0  0  0  0  0  0  0
   -3.1518   -1.1377    2.0288 H   0  0  0  0  0  0  0  0  0  0  0  0
   -3.4079   -1.8064    0.4286 H   0  0  0  0  0  0  0  0  0  0  0  0
   -1.4965    0.5025    1.1342 H   0  0  0  0  0  0  0  0  0  0  0  0
   -1.6589   -0.1548   -0.4814 H   0  0  0  0  0  0  0  0  0  0  0  0
   -3.6922    0.1794   -1.8207 H   0  0  0  0  0  0  0  0  0  0  0  0
   -3.3006    1.8569    2.1311 H   0  0  0  0  0  0  0  0  0  0  0  0
   -5.6004    1.6848   -2.2630 H   0  0  0  0  0  0  0  0  0  0  0  0
   -5.2101    3.3565    1.6763 H   0  0  0  0  0  0  0  0  0  0  0  0
   -6.3640    3.2749   -0.5184 H   0  0  0  0  0  0  0  0  0  0  0  0
    5.2717    0.6929    0.0029 H   0  0  0  0  0  0  0  0  0  0  0  0
    0.2619    2.6994   -0.1927 H   0  0  0  0  0  0  0  0  0  0  0  0
    0.5250    1.0000   -0.3600 H   0  0  0  0  0  0  0  0  0  0  0  0
    4.3133    4.6125   -0.7612 H   0  0  0  0  0  0  0  0  0  0  0  0
  1  4  1  0  0  0  0
  1 13  1  0  0  0  0
  2  8  1  0  0  0  0
  2 10  1  0  0  0  0
  2 12  1  0  0  0  0
  3 13  2  0  0  0  0
  3 17  1  0  0  0  0
  4 17  2  0  0  0  0
  5 24  2  0  0  0  0
  5 26  1  0  0  0  0
  6 24  1  0  0  0  0
  6 46  1  0  0  0  0
  6 47  1  0  0  0  0
  7 25  1  0  0  0  0
  7 26  2  0  0  0  0
  8  9  1  0  0  0  0
  8 13  1  0  0  0  0
  8 27  1  0  0  0  0
  9 11  1  0  0  0  0
  9 28  1  0  0  0  0
  9 29  1  0  0  0  0
 10 11  1  0  0  0  0
 10 30  1  0  0  0  0
 10 31  1  0  0  0  0
 11 32  1  0  0  0  0
 11 33  1  0  0  0  0
 12 14  1  0  0  0  0
 12 34  1  0  0  0  0
 12 35  1  0  0  0  0
 14 15  1  0  0  0  0
 14 36  1  0  0  0  0
 14 37  1  0  0  0  0
 15 16  1  0  0  0  0
 15 38  1  0  0  0  0
 15 39  1  0  0  0  0
 16 18  2  0  0  0  0
 16 19  1  0  0  0  0
 17 20  1  0  0  0  0
 18 21  1  0  0  0  0
 18 40  1  0  0  0  0
 19 22  2  0  0  0  0
 19 41  1  0  0  0  0
 20 24  1  0  0  0  0
 20 25  2  0  0  0  0
 21 23  2  0  0  0  0
 21 42  1  0  0  0  0
 22 23  1  0  0  0  0
 22 43  1  0  0  0  0
 23 44  1  0  0  0  0
 25 45  1  0  0  0  0
 26 48  1  0  0  0  0
M  END
> <PUBCHEM_COMPOUND_CID>
45783736

> <PUBCHEM_CONFORMER_RMSD>
1

> <PUBCHEM_CONFORMER_DIVERSEORDER>
1
92
16
8
33
118
80
2
104
60
111
107
85
49
79
90
123
51
119
91
122
124
35
44
75
3
25
46
64
7
126
59
5
83
127
9
109
26
125
105
84
101
73
76
31
68
47
28
50
116
62
65
70
52
13
24
6
11
117
34
113
14
71
88
54
95
38
41
48
103
114
27
15
67
39
12
77
55
66
10
58
96
112
69
108
23
120
29
106
40
63
89
94
18
4
98
21
61
100
93
17
22
42
87
81
36
121
129
99
57
130
20
37
128
53
45
82
19
78
56
43
72
102
86
110
30
32
115
97
131
74

> <PUBCHEM_MMFF94_PARTIAL_CHARGES>
32
1 -0.02
10 0.27
12 0.27
13 0.3
15 0.14
16 -0.14
17 0.46
18 -0.15
19 -0.15
2 -0.81
20 0.05
21 -0.15
22 -0.15
23 -0.15
24 0.41
25 0.16
26 0.47
3 -0.57
4 -0.41
40 0.15
41 0.15
42 0.15
43 0.15
44 0.15
45 0.15
46 0.4
47 0.4
48 0.15
5 -0.62
6 -0.9
7 -0.62
8 0.45

> <PUBCHEM_EFFECTIVE_ROTOR_COUNT>
7

> <PUBCHEM_PHARMACOPHORE_FEATURES>
9
1 2 cation
1 6 donor
3 3 4 17 cation
3 5 6 24 cation
3 5 7 26 cation
5 1 3 4 13 17 rings
5 2 8 9 10 11 rings
6 16 18 19 21 22 23 rings
6 5 7 20 24 25 26 rings

> <PUBCHEM_HEAVY_ATOM_COUNT>
26

> <PUBCHEM_ATOM_DEF_STEREO_COUNT>
1

> <PUBCHEM_ATOM_UDEF_STEREO_COUNT>
0

> <PUBCHEM_BOND_DEF_STEREO_COUNT>
0

> <PUBCHEM_BOND_UDEF_STEREO_COUNT>
0

> <PUBCHEM_ISOTOPIC_ATOM_COUNT>
0

> <PUBCHEM_COMPONENT_COUNT>
1

> <PUBCHEM_CACTVS_TAUTO_COUNT>
11

> <PUBCHEM_CONFORMER_ID>
02BA9AB800000001

> <PUBCHEM_MMFF94_ENERGY>
57.807

> <PUBCHEM_FEATURE_SELFOVERLAP>
45.81

> <PUBCHEM_SHAPE_FINGERPRINT>
10483366 6 18053403024007741630
10871710 139 17833836345012946951
10937287 8 18411697724737366110
11135609 187 18337662101609708061
12100795 323 18261109699051017517
12107183 9 18335689560595073536
12633257 1 18042395855107087323
12788726 201 17983841548539267319
12978246 48 18337954596712358145
13590594 115 17330560843506986203
13761468 95 17837531722253410512
138480 1 17834398916929624659
13944108 23 17976267832900043692
14117953 113 18194958544201663228
14251751 93 18122912190077402448
14251764 38 18408884019217050707
14251764 75 18410865368966627089
15081414 286 17979079280036791385
15322535 138 17978782738041623888
16988056 13 17834961866861973548
17138139 8 17699820068717687909
21033648 144 18187640293676122565
21033650 10 17758983776086617852
21197605 99 18408329900054305667
21388113 180 18115300065084189317
21792964 463 17533498095666955879
21860390 5 18125159325425008743
22907989 373 18126273371438619335
23929065 36 17551775342064809600
245318 6 18187378648321129981
397830 11 18119833330873509121
474 4 18267581308891687939
5048184 11 18337953492721289173
5939293 188 18191867820926389066
6443956 14 17832990447056498333
6608658 132 16826725591824594564

> <PUBCHEM_SHAPE_MULTIPOLES>
499.31
10.55
6.1
1.22
6.47
3.06
-0.1
-14.45
-0.6
-2.52
-1.89
0.86
0.64
-0.83

> <PUBCHEM_SHAPE_SELFOVERLAP>
1076.865

> <PUBCHEM_SHAPE_VOLUME>
273.9

> <PUBCHEM_COORDINATE_TYPE>
2
5
10

$$$$
