45784039
  -OEChem-12032416353D

 75 79  0     1  0  0  0  0  0999 V2000
    3.0228    6.8028    1.6746 F   0  0  0  0  0  0  0  0  0  0  0  0
    3.6803   -1.0855   -0.9009 O   0  0  0  0  0  0  0  0  0  0  0  0
    2.7232    1.7359   -0.4330 O   0  0  0  0  0  0  0  0  0  0  0  0
   -1.5338   -0.6568    0.2171 N   0  0  0  0  0  0  0  0  0  0  0  0
   -4.1299    0.4666   -0.1797 N   0  0  0  0  0  0  0  0  0  0  0  0
    3.1598   -1.7637   -2.9681 N   0  0  0  0  0  0  0  0  0  0  0  0
    3.2869   -0.3873   -2.9894 N   0  0  0  0  0  0  0  0  0  0  0  0
   -6.3550    0.5243    0.5275 N   0  0  0  0  0  0  0  0  0  0  0  0
   -5.6627    1.6436   -1.4912 N   0  0  0  0  0  0  0  0  0  0  0  0
   -0.1016   -3.1970    0.5169 C   0  0  1  0  0  0  0  0  0  0  0  0
    0.2505   -1.9341    1.3369 C   0  0  2  0  0  0  0  0  0  0  0  0
    0.9683   -3.4599   -0.5521 C   0  0  0  0  0  0  0  0  0  0  0  0
    2.3910   -3.6053    0.0292 C   0  0  2  0  0  0  0  0  0  0  0  0
   -0.2902   -4.4194    1.4255 C   0  0  0  0  0  0  0  0  0  0  0  0
   -0.1187   -0.6506    0.5860 C   0  0  0  0  0  0  0  0  0  0  0  0
    1.7070   -1.8813    1.7222 C   0  0  0  0  0  0  0  0  0  0  0  0
    2.6752   -2.6274    1.1594 C   0  0  0  0  0  0  0  0  0  0  0  0
    3.4022   -3.4998   -1.1192 C   0  0  0  0  0  0  0  0  0  0  0  0
   -1.3309   -4.1269    2.5018 C   0  0  0  0  0  0  0  0  0  0  0  0
   -0.6923   -5.6380    0.6012 C   0  0  0  0  0  0  0  0  0  0  0  0
   -2.3677   -0.2898    1.3684 C   0  0  0  0  0  0  0  0  0  0  0  0
   -1.7806    0.2702   -0.8938 C   0  0  0  0  0  0  0  0  0  0  0  0
    4.0845   -2.5585    1.6803 C   0  0  0  0  0  0  0  0  0  0  0  0
   -3.8544   -0.3482    1.0104 C   0  0  0  0  0  0  0  0  0  0  0  0
   -3.2482    0.2317   -1.3273 C   0  0  0  0  0  0  0  0  0  0  0  0
    3.3980   -2.1276   -1.7298 C   0  0  0  0  0  0  0  0  0  0  0  0
   -5.4440    0.8984   -0.3910 C   0  0  0  0  0  0  0  0  0  0  0  0
    3.5909   -0.0353   -1.7621 C   0  0  0  0  0  0  0  0  0  0  0  0
    3.8438    1.3005   -1.2075 C   0  0  0  0  0  0  0  0  0  0  0  0
   -7.6112    0.9574    0.2927 C   0  0  0  0  0  0  0  0  0  0  0  0
   -6.9400    2.0425   -1.6640 C   0  0  0  0  0  0  0  0  0  0  0  0
   -7.9658    1.7266   -0.7967 C   0  0  0  0  0  0  0  0  0  0  0  0
    2.7977    2.9960    0.0911 C   0  0  0  0  0  0  0  0  0  0  0  0
    3.9259    3.7826   -0.1416 C   0  0  0  0  0  0  0  0  0  0  0  0
    1.7455    3.4955    0.8585 C   0  0  0  0  0  0  0  0  0  0  0  0
    4.0020    5.0685    0.3932 C   0  0  0  0  0  0  0  0  0  0  0  0
    1.8215    4.7813    1.3935 C   0  0  0  0  0  0  0  0  0  0  0  0
    2.9498    5.5679    1.1608 C   0  0  0  0  0  0  0  0  0  0  0  0
   -1.0529   -3.0517   -0.0103 H   0  0  0  0  0  0  0  0  0  0  0  0
   -0.2962   -1.9107    2.2800 H   0  0  0  0  0  0  0  0  0  0  0  0
    0.9246   -2.6216   -1.2583 H   0  0  0  0  0  0  0  0  0  0  0  0
    0.7278   -4.3339   -1.1668 H   0  0  0  0  0  0  0  0  0  0  0  0
    2.4831   -4.6157    0.4502 H   0  0  0  0  0  0  0  0  0  0  0  0
    0.6425   -4.6704    1.9448 H   0  0  0  0  0  0  0  0  0  0  0  0
    0.1347    0.2398    1.1784 H   0  0  0  0  0  0  0  0  0  0  0  0
    0.5024   -0.5867   -0.3177 H   0  0  0  0  0  0  0  0  0  0  0  0
    1.9615   -1.1953    2.5275 H   0  0  0  0  0  0  0  0  0  0  0  0
    3.1600   -4.2339   -1.8976 H   0  0  0  0  0  0  0  0  0  0  0  0
    4.4167   -3.7375   -0.7793 H   0  0  0  0  0  0  0  0  0  0  0  0
   -1.6664   -5.0569    2.9758 H   0  0  0  0  0  0  0  0  0  0  0  0
   -0.9297   -3.5151    3.3148 H   0  0  0  0  0  0  0  0  0  0  0  0
   -2.2184   -3.6354    2.0891 H   0  0  0  0  0  0  0  0  0  0  0  0
   -0.9801   -6.4691    1.2553 H   0  0  0  0  0  0  0  0  0  0  0  0
   -1.5458   -5.4222   -0.0505 H   0  0  0  0  0  0  0  0  0  0  0  0
    0.1321   -6.0096   -0.0140 H   0  0  0  0  0  0  0  0  0  0  0  0
   -2.1186    0.7208    1.7204 H   0  0  0  0  0  0  0  0  0  0  0  0
   -2.2101   -0.9725    2.2094 H   0  0  0  0  0  0  0  0  0  0  0  0
   -1.1662   -0.0060   -1.7596 H   0  0  0  0  0  0  0  0  0  0  0  0
   -1.5054    1.2953   -0.6106 H   0  0  0  0  0  0  0  0  0  0  0  0
    4.4145   -3.5576    1.9852 H   0  0  0  0  0  0  0  0  0  0  0  0
    4.1621   -1.9132    2.5626 H   0  0  0  0  0  0  0  0  0  0  0  0
    4.7950   -2.1776    0.9444 H   0  0  0  0  0  0  0  0  0  0  0  0
   -4.4080    0.0167    1.8843 H   0  0  0  0  0  0  0  0  0  0  0  0
   -4.1614   -1.3857    0.8260 H   0  0  0  0  0  0  0  0  0  0  0  0
   -3.4873   -0.7407   -1.7764 H   0  0  0  0  0  0  0  0  0  0  0  0
   -3.3827    0.9943   -2.1033 H   0  0  0  0  0  0  0  0  0  0  0  0
    4.7433    1.2511   -0.5812 H   0  0  0  0  0  0  0  0  0  0  0  0
    4.0073    1.9774   -2.0555 H   0  0  0  0  0  0  0  0  0  0  0  0
   -8.3495    0.6591    1.0293 H   0  0  0  0  0  0  0  0  0  0  0  0
   -7.1223    2.6432   -2.5487 H   0  0  0  0  0  0  0  0  0  0  0  0
   -8.9817    2.0602   -0.9601 H   0  0  0  0  0  0  0  0  0  0  0  0
    4.7838    3.4615   -0.7218 H   0  0  0  0  0  0  0  0  0  0  0  0
    0.8640    2.8874    1.0426 H   0  0  0  0  0  0  0  0  0  0  0  0
    4.8803    5.6817    0.2141 H   0  0  0  0  0  0  0  0  0  0  0  0
    1.0025    5.1705    1.9911 H   0  0  0  0  0  0  0  0  0  0  0  0
  1 38  1  0  0  0  0
  2 26  1  0  0  0  0
  2 28  1  0  0  0  0
  3 29  1  0  0  0  0
  3 33  1  0  0  0  0
  4 15  1  0  0  0  0
  4 21  1  0  0  0  0
  4 22  1  0  0  0  0
  5 24  1  0  0  0  0
  5 25  1  0  0  0  0
  5 27  1  0  0  0  0
  6  7  1  0  0  0  0
  6 26  2  0  0  0  0
  7 28  2  0  0  0  0
  8 27  2  0  0  0  0
  8 30  1  0  0  0  0
  9 27  1  0  0  0  0
  9 31  2  0  0  0  0
 10 11  1  0  0  0  0
 10 12  1  0  0  0  0
 10 14  1  0  0  0  0
 10 39  1  0  0  0  0
 11 15  1  0  0  0  0
 11 16  1  0  0  0  0
 11 40  1  0  0  0  0
 12 13  1  0  0  0  0
 12 41  1  0  0  0  0
 12 42  1  0  0  0  0
 13 17  1  0  0  0  0
 13 18  1  0  0  0  0
 13 43  1  0  0  0  0
 14 19  1  0  0  0  0
 14 20  1  0  0  0  0
 14 44  1  0  0  0  0
 15 45  1  0  0  0  0
 15 46  1  0  0  0  0
 16 17  2  0  0  0  0
 16 47  1  0  0  0  0
 17 23  1  0  0  0  0
 18 26  1  0  0  0  0
 18 48  1  0  0  0  0
 18 49  1  0  0  0  0
 19 50  1  0  0  0  0
 19 51  1  0  0  0  0
 19 52  1  0  0  0  0
 20 53  1  0  0  0  0
 20 54  1  0  0  0  0
 20 55  1  0  0  0  0
 21 24  1  0  0  0  0
 21 56  1  0  0  0  0
 21 57  1  0  0  0  0
 22 25  1  0  0  0  0
 22 58  1  0  0  0  0
 22 59  1  0  0  0  0
 23 60  1  0  0  0  0
 23 61  1  0  0  0  0
 23 62  1  0  0  0  0
 24 63  1  0  0  0  0
 24 64  1  0  0  0  0
 25 65  1  0  0  0  0
 25 66  1  0  0  0  0
 28 29  1  0  0  0  0
 29 67  1  0  0  0  0
 29 68  1  0  0  0  0
 30 32  2  0  0  0  0
 30 69  1  0  0  0  0
 31 32  1  0  0  0  0
 31 70  1  0  0  0  0
 32 71  1  0  0  0  0
 33 34  2  0  0  0  0
 33 35  1  0  0  0  0
 34 36  1  0  0  0  0
 34 72  1  0  0  0  0
 35 37  2  0  0  0  0
 35 73  1  0  0  0  0
 36 38  2  0  0  0  0
 36 74  1  0  0  0  0
 37 38  1  0  0  0  0
 37 75  1  0  0  0  0
M  END
> <PUBCHEM_COMPOUND_CID>
45784039

> <PUBCHEM_CONFORMER_RMSD>
1.4

> <PUBCHEM_CONFORMER_DIVERSEORDER>
13
4
125
120
28
112
9
137
143
93
33
77
132
78
31
21
8
150
121
158
108
79
82
168
55
161
47
42
26
68
113
119
148
165
44
169
152
115
153
131
25
114
67
70
172
100
45
39
107
38
124
72
10
69
134
155
157
90
154
139
22
35
170
83
73
48
104
140
110
167
16
81
147
145
97
101
138
24
66
75
135
151
54
11
85
15
58
129
136
102
41
62
27
149
126
98
144
34
141
40
43
59
166
171
160
32
92
173
106
52
163
127
156
18
122
23
51
50
61
29
60
142
53
49
87
36
162
46
88
64
111
128
12
123
56
1
84
74
118
96
95
20
94
71
17
5
164
116
117
6
7
105
57
2
80
65
86
99
14
19
30
146
3
109
63
130
89
76
37
133
91
103
159

> <PUBCHEM_MMFF94_PARTIAL_CHARGES>
41
1 -0.19
11 0.14
13 0.14
15 0.27
16 -0.29
17 -0.28
18 0.18
2 -0.28
21 0.27
22 0.27
23 0.14
24 0.37
25 0.37
26 0.3
27 0.72
28 0.3
29 0.46
3 -0.36
30 0.16
31 0.16
32 -0.15
33 0.08
34 -0.15
35 -0.15
36 -0.15
37 -0.15
38 0.19
4 -0.81
47 0.15
5 -0.84
6 -0.34
69 0.15
7 -0.34
70 0.15
71 0.15
72 0.15
73 0.15
74 0.15
75 0.15
8 -0.62
9 -0.62

> <PUBCHEM_EFFECTIVE_ROTOR_COUNT>
11

> <PUBCHEM_PHARMACOPHORE_FEATURES>
10
1 3 acceptor
1 4 cation
1 9 acceptor
3 14 19 20 hydrophobe
4 5 8 9 27 cation
5 2 6 7 26 28 rings
6 10 11 12 13 16 17 rings
6 33 34 35 36 37 38 rings
6 4 5 21 22 24 25 rings
6 8 9 27 30 31 32 rings

> <PUBCHEM_HEAVY_ATOM_COUNT>
38

> <PUBCHEM_ATOM_DEF_STEREO_COUNT>
3

> <PUBCHEM_ATOM_UDEF_STEREO_COUNT>
0

> <PUBCHEM_BOND_DEF_STEREO_COUNT>
0

> <PUBCHEM_BOND_UDEF_STEREO_COUNT>
0

> <PUBCHEM_ISOTOPIC_ATOM_COUNT>
0

> <PUBCHEM_COMPONENT_COUNT>
1

> <PUBCHEM_CACTVS_TAUTO_COUNT>
1

> <PUBCHEM_CONFORMER_ID>
02BA9BE70000000D

> <PUBCHEM_MMFF94_ENERGY>
97.7995

> <PUBCHEM_FEATURE_SELFOVERLAP>
50.748

> <PUBCHEM_SHAPE_FINGERPRINT>
10675989 125 18343585174152286265
10721379 63 18411413990692533585
12522641 24 18337955593999481517
15351339 4 18190747414625407856
15439362 3 18338506547534512000
15484559 13 18339362955133457359
16993438 75 17334489901212253888
21049683 118 17603864533325908099
21057603 308 18340503222908607276
21857420 4 17687441491391368380
27425 322 18340198683176184767
3388396 114 18053409642530654478
376196 1 18053661657968485192
5109719 28 18409168805835119185
57527306 92 18059566937590034678
59521099 67 18269829814022689600

> <PUBCHEM_SHAPE_MULTIPOLES>
733.12
14.09
9.17
2.23
38.48
7.66
0.83
13.06
5.58
-13.5
-5.79
-1.69
-0.81
3.83

> <PUBCHEM_SHAPE_SELFOVERLAP>
1561.45

> <PUBCHEM_SHAPE_VOLUME>
408.9

> <PUBCHEM_COORDINATE_TYPE>
2
5
10

$$$$
