26743636
  -OEChem-12032416183D

 47 50  0     1  0  0  0  0  0999 V2000
    6.5612    1.3754    0.0765 F   0  0  0  0  0  0  0  0  0  0  0  0
    6.0349    0.8884   -1.9763 F   0  0  0  0  0  0  0  0  0  0  0  0
    6.8319   -0.6470   -0.6589 F   0  0  0  0  0  0  0  0  0  0  0  0
   -3.1208    3.9130    0.1931 O   0  0  0  0  0  0  0  0  0  0  0  0
   -5.0602   -3.1233   -1.6330 O   0  0  0  0  0  0  0  0  0  0  0  0
   -1.0300   -1.5307    2.0696 O   0  0  0  0  0  0  0  0  0  0  0  0
   -3.3030   -0.2229   -0.5056 N   0  0  1  0  0  0  0  0  0  0  0  0
   -0.4161   -0.7204    0.0738 N   0  0  0  0  0  0  0  0  0  0  0  0
    0.3597   -1.3652    2.1272 N   0  0  0  0  0  0  0  0  0  0  0  0
   -3.6317    1.0827    0.0616 C   0  0  0  0  0  0  0  0  0  0  0  0
   -2.8840   -1.2102    0.5100 C   0  0  1  0  0  0  0  0  0  0  0  0
   -4.4349   -0.8149   -1.2161 C   0  0  0  0  0  0  0  0  0  0  0  0
   -3.2929   -2.5748   -0.0752 C   0  0  0  0  0  0  0  0  0  0  0  0
   -3.9741   -2.2484   -1.3984 C   0  0  1  0  0  0  0  0  0  0  0  0
   -2.4201    1.6649    0.7952 C   0  0  0  0  0  0  0  0  0  0  0  0
   -4.1022    2.0535   -1.0260 C   0  0  0  0  0  0  0  0  0  0  0  0
   -1.4058   -1.1284    0.8273 C   0  0  0  0  0  0  0  0  0  0  0  0
   -2.7232    3.0782    1.2808 C   0  0  0  0  0  0  0  0  0  0  0  0
   -4.3122    3.4451   -0.4393 C   0  0  0  0  0  0  0  0  0  0  0  0
    0.6466   -0.8840    0.9140 C   0  0  0  0  0  0  0  0  0  0  0  0
    1.9837   -0.5583    0.5094 C   0  0  0  0  0  0  0  0  0  0  0  0
    2.2232   -0.0604   -0.7714 C   0  0  0  0  0  0  0  0  0  0  0  0
    3.0444   -0.7388    1.3971 C   0  0  0  0  0  0  0  0  0  0  0  0
    3.5233    0.2567   -1.1647 C   0  0  0  0  0  0  0  0  0  0  0  0
    4.3446   -0.4216    1.0039 C   0  0  0  0  0  0  0  0  0  0  0  0
    4.5840    0.0760   -0.2770 C   0  0  0  0  0  0  0  0  0  0  0  0
    5.9740    0.4153   -0.6974 C   0  0  0  0  0  0  0  0  0  0  0  0
   -4.4491    0.9743    0.7898 H   0  0  0  0  0  0  0  0  0  0  0  0
   -3.4504   -1.0698    1.4417 H   0  0  0  0  0  0  0  0  0  0  0  0
   -4.6162   -0.3570   -2.1941 H   0  0  0  0  0  0  0  0  0  0  0  0
   -5.3686   -0.7765   -0.6393 H   0  0  0  0  0  0  0  0  0  0  0  0
   -2.4440   -3.2479   -0.2413 H   0  0  0  0  0  0  0  0  0  0  0  0
   -3.9850   -3.0874    0.6047 H   0  0  0  0  0  0  0  0  0  0  0  0
   -3.2630   -2.3265   -2.2301 H   0  0  0  0  0  0  0  0  0  0  0  0
   -1.5582    1.7127    0.1181 H   0  0  0  0  0  0  0  0  0  0  0  0
   -2.1511    1.0875    1.6830 H   0  0  0  0  0  0  0  0  0  0  0  0
   -5.0425    1.7306   -1.4854 H   0  0  0  0  0  0  0  0  0  0  0  0
   -3.3437    2.1131   -1.8175 H   0  0  0  0  0  0  0  0  0  0  0  0
   -3.5085    3.0785    2.0460 H   0  0  0  0  0  0  0  0  0  0  0  0
   -1.8263    3.5189    1.7280 H   0  0  0  0  0  0  0  0  0  0  0  0
   -4.5646    4.1510   -1.2370 H   0  0  0  0  0  0  0  0  0  0  0  0
   -5.1364    3.4539    0.2835 H   0  0  0  0  0  0  0  0  0  0  0  0
   -4.7051   -4.0281   -1.6633 H   0  0  0  0  0  0  0  0  0  0  0  0
    1.4177    0.0917   -1.4856 H   0  0  0  0  0  0  0  0  0  0  0  0
    2.8965   -1.1240    2.4028 H   0  0  0  0  0  0  0  0  0  0  0  0
    3.6887    0.6432   -2.1666 H   0  0  0  0  0  0  0  0  0  0  0  0
    5.1649   -0.5654    1.7021 H   0  0  0  0  0  0  0  0  0  0  0  0
  1 27  1  0  0  0  0
  2 27  1  0  0  0  0
  3 27  1  0  0  0  0
  4 18  1  0  0  0  0
  4 19  1  0  0  0  0
  5 14  1  0  0  0  0
  5 43  1  0  0  0  0
  6  9  1  0  0  0  0
  6 17  1  0  0  0  0
  7 10  1  0  0  0  0
  7 11  1  0  0  0  0
  7 12  1  0  0  0  0
  8 17  2  0  0  0  0
  8 20  1  0  0  0  0
  9 20  2  0  0  0  0
 10 15  1  0  0  0  0
 10 16  1  0  0  0  0
 10 28  1  0  0  0  0
 11 13  1  0  0  0  0
 11 17  1  0  0  0  0
 11 29  1  0  0  0  0
 12 14  1  0  0  0  0
 12 30  1  0  0  0  0
 12 31  1  0  0  0  0
 13 14  1  0  0  0  0
 13 32  1  0  0  0  0
 13 33  1  0  0  0  0
 14 34  1  0  0  0  0
 15 18  1  0  0  0  0
 15 35  1  0  0  0  0
 15 36  1  0  0  0  0
 16 19  1  0  0  0  0
 16 37  1  0  0  0  0
 16 38  1  0  0  0  0
 18 39  1  0  0  0  0
 18 40  1  0  0  0  0
 19 41  1  0  0  0  0
 19 42  1  0  0  0  0
 20 21  1  0  0  0  0
 21 22  2  0  0  0  0
 21 23  1  0  0  0  0
 22 24  1  0  0  0  0
 22 44  1  0  0  0  0
 23 25  2  0  0  0  0
 23 45  1  0  0  0  0
 24 26  2  0  0  0  0
 24 46  1  0  0  0  0
 25 26  1  0  0  0  0
 25 47  1  0  0  0  0
 26 27  1  0  0  0  0
M  END
> <PUBCHEM_COMPOUND_CID>
26743636

> <PUBCHEM_CONFORMER_RMSD>
0.8

> <PUBCHEM_CONFORMER_DIVERSEORDER>
1
15
13
10
20
16
18
9
2
11
12
8
19
5
14
3
21
4
17
6
7

> <PUBCHEM_MMFF94_PARTIAL_CHARGES>
29
1 -0.34
10 0.27
11 0.45
12 0.27
14 0.28
17 0.3
18 0.28
19 0.28
2 -0.34
20 0.46
21 0.05
22 -0.15
23 -0.15
24 -0.15
25 -0.15
26 -0.14
27 1.16
3 -0.34
4 -0.56
43 0.4
44 0.15
45 0.15
46 0.15
47 0.15
5 -0.68
6 -0.02
7 -0.81
8 -0.57
9 -0.41

> <PUBCHEM_EFFECTIVE_ROTOR_COUNT>
6.2

> <PUBCHEM_PHARMACOPHORE_FEATURES>
9
1 4 acceptor
1 5 acceptor
1 5 donor
1 7 cation
3 8 9 20 cation
5 6 8 9 17 20 rings
5 7 11 12 13 14 rings
6 21 22 23 24 25 26 rings
6 4 10 15 16 18 19 rings

> <PUBCHEM_HEAVY_ATOM_COUNT>
27

> <PUBCHEM_ATOM_DEF_STEREO_COUNT>
2

> <PUBCHEM_ATOM_UDEF_STEREO_COUNT>
0

> <PUBCHEM_BOND_DEF_STEREO_COUNT>
0

> <PUBCHEM_BOND_UDEF_STEREO_COUNT>
0

> <PUBCHEM_ISOTOPIC_ATOM_COUNT>
0

> <PUBCHEM_COMPONENT_COUNT>
1

> <PUBCHEM_CACTVS_TAUTO_COUNT>
1

> <PUBCHEM_CONFORMER_ID>
0198135400000001

> <PUBCHEM_MMFF94_ENERGY>
48.6793

> <PUBCHEM_FEATURE_SELFOVERLAP>
45.672

> <PUBCHEM_SHAPE_FINGERPRINT>
10087517 78 18334575754852665964
10595046 47 18409727378995488142
10871710 139 18260827056275751213
10937287 8 17694787320435401097
11049842 53 17839160940872458091
11089746 13 18187080689934507164
11101153 10 18195250133647683436
11370993 144 11386352751766862384
11477941 20 18200584920878596620
11640471 11 18043806477697981769
12107183 9 17901658268447826018
12107698 1 18340203102138401756
12788726 201 18336815464634119379
13540713 5 18116133494681518971
13673619 4 17417529254374615475
13690498 29 18130503136535269119
14187579 7 18411418457506442048
14251764 38 18336833112470329852
14251764 75 17834682595684722233
14294032 229 18341615859639480073
14556957 393 18335706108587419061
14713325 29 18130514067617232359
14739800 52 18263907965345663336
15064981 113 18055616348739154182
15163728 17 18268155262087273303
15183329 4 17676203564281789634
15289351 153 18116720811161258460
15463212 79 18263077734981211467
15876981 60 18409733992928704685
15961568 22 18053364776654369464
16992828 155 17823411587687127901
16994733 274 15503474008511344223
17818456 19 17979899528364348082
17844677 252 18343305903120597140
19489759 90 18410012160922774414
20511986 3 17895746292835293493
20775438 99 16682573020470218079
21033650 10 18266480757718159502
21756936 100 18113909234134195435
22393880 68 18131348596816211106
23516275 100 17979060915043237416
235170 7 17561082509902522396
23557571 272 18202561787345784259
25147074 1 18114730534886955506
255183 451 17695893811875676367
2838139 119 18260552229966281032
312425 54 8862672278829607084
312425 83 18269846332630330366
314194 84 13973971991525142734
3610482 184 18334587810397935548
38570 142 17897460392987041306
4169191 19 17169001135453637684
46194498 28 17631448033393128984
474 4 17677893435695001819
484985 159 14045449086394579069
5283173 99 18413390930285428992
531348 171 18271248218535389462
550186 7 18272931587800606197
6299153 45 17970060046837621082
633830 44 17822575980129161738
7237137 82 18412824694228306505
7288768 16 17241340070670077753
7808743 9 18338233748154199793
7970288 3 10951175936313684765

> <PUBCHEM_SHAPE_MULTIPOLES>
501.28
14.57
3.46
1.65
22.93
2.32
0.19
3.02
-6.97
-8.21
-0.21
0.24
-0.5
-1.95

> <PUBCHEM_SHAPE_SELFOVERLAP>
1084.841

> <PUBCHEM_SHAPE_VOLUME>
277.2

> <PUBCHEM_COORDINATE_TYPE>
2
5
10

$$$$
