45783622
  -OEChem-12032416203D

 56 59  0     1  0  0  0  0  0999 V2000
   -2.8064   -1.6301    1.8557 O   0  0  0  0  0  0  0  0  0  0  0  0
    0.0589    3.6449    0.9229 O   0  0  0  0  0  0  0  0  0  0  0  0
    7.5678   -0.0550   -1.4422 O   0  0  0  0  0  0  0  0  0  0  0  0
    4.9745   -0.1970   -1.6625 O   0  0  0  0  0  0  0  0  0  0  0  0
   -4.3332   -0.3863   -1.2470 N   0  0  1  0  0  0  0  0  0  0  0  0
   -1.7069   -1.1058   -0.0239 N   0  0  0  0  0  0  0  0  0  0  0  0
   -1.4477   -1.6003    2.1947 N   0  0  0  0  0  0  0  0  0  0  0  0
    2.7453   -1.2034    1.9234 N   0  0  0  0  0  0  0  0  0  0  0  0
    4.6554   -0.7466    0.6056 N   0  0  0  0  0  0  0  0  0  0  0  0
   -4.2529   -1.2945   -0.0855 C   0  0  1  0  0  0  0  0  0  0  0  0
   -4.6944   -2.6656   -0.6298 C   0  0  0  0  0  0  0  0  0  0  0  0
   -5.0607   -2.4163   -2.0860 C   0  0  0  0  0  0  0  0  0  0  0  0
   -5.3655   -0.9325   -2.1282 C   0  0  0  0  0  0  0  0  0  0  0  0
   -4.6040    0.9969   -0.8770 C   0  0  0  0  0  0  0  0  0  0  0  0
   -2.8708   -1.3284    0.5324 C   0  0  0  0  0  0  0  0  0  0  0  0
   -3.3631    1.7023   -0.3977 C   0  0  0  0  0  0  0  0  0  0  0  0
   -3.3250    2.2554    0.8823 C   0  0  0  0  0  0  0  0  0  0  0  0
   -2.2512    1.8021   -1.2339 C   0  0  0  0  0  0  0  0  0  0  0  0
   -0.8645   -1.2841    1.0346 C   0  0  0  0  0  0  0  0  0  0  0  0
   -2.1752    2.9084    1.3260 C   0  0  0  0  0  0  0  0  0  0  0  0
   -1.1013    2.4553   -0.7904 C   0  0  0  0  0  0  0  0  0  0  0  0
    0.5563   -1.1404    0.8992 C   0  0  0  0  0  0  0  0  0  0  0  0
   -1.0633    3.0085    0.4895 C   0  0  0  0  0  0  0  0  0  0  0  0
    1.1299   -0.8119   -0.3241 C   0  0  0  0  0  0  0  0  0  0  0  0
    1.4000   -1.3240    1.9828 C   0  0  0  0  0  0  0  0  0  0  0  0
    2.5105   -0.6790   -0.4249 C   0  0  0  0  0  0  0  0  0  0  0  0
    3.2668   -0.8833    0.7179 C   0  0  0  0  0  0  0  0  0  0  0  0
    1.1589    3.7106    0.0162 C   0  0  0  0  0  0  0  0  0  0  0  0
    5.3992   -0.4240   -0.5337 C   0  0  0  0  0  0  0  0  0  0  0  0
    6.8849   -0.3801   -0.2492 C   0  0  0  0  0  0  0  0  0  0  0  0
    8.9776    0.0040   -1.2472 C   0  0  0  0  0  0  0  0  0  0  0  0
   -4.9724   -0.9982    0.6907 H   0  0  0  0  0  0  0  0  0  0  0  0
   -3.9260   -3.4421   -0.5494 H   0  0  0  0  0  0  0  0  0  0  0  0
   -5.5803   -3.0111   -0.0831 H   0  0  0  0  0  0  0  0  0  0  0  0
   -5.9075   -3.0282   -2.4103 H   0  0  0  0  0  0  0  0  0  0  0  0
   -4.2043   -2.6495   -2.7309 H   0  0  0  0  0  0  0  0  0  0  0  0
   -5.2919   -0.5357   -3.1454 H   0  0  0  0  0  0  0  0  0  0  0  0
   -6.3745   -0.7402   -1.7415 H   0  0  0  0  0  0  0  0  0  0  0  0
   -4.9502    1.5573   -1.7570 H   0  0  0  0  0  0  0  0  0  0  0  0
   -5.4178    1.0699   -0.1437 H   0  0  0  0  0  0  0  0  0  0  0  0
   -4.1829    2.1831    1.5453 H   0  0  0  0  0  0  0  0  0  0  0  0
   -2.2680    1.3796   -2.2352 H   0  0  0  0  0  0  0  0  0  0  0  0
   -2.1509    3.3363    2.3244 H   0  0  0  0  0  0  0  0  0  0  0  0
   -0.2741    2.4957   -1.4908 H   0  0  0  0  0  0  0  0  0  0  0  0
    0.5250   -0.6534   -1.2133 H   0  0  0  0  0  0  0  0  0  0  0  0
    1.0323   -1.5815    2.9716 H   0  0  0  0  0  0  0  0  0  0  0  0
    2.8821   -0.4222   -1.4032 H   0  0  0  0  0  0  0  0  0  0  0  0
    1.5438    2.7132   -0.2221 H   0  0  0  0  0  0  0  0  0  0  0  0
    0.9064    4.2838   -0.8822 H   0  0  0  0  0  0  0  0  0  0  0  0
    1.9646    4.2506    0.5242 H   0  0  0  0  0  0  0  0  0  0  0  0
    5.1647   -0.9067    1.4714 H   0  0  0  0  0  0  0  0  0  0  0  0
    7.2044   -1.3631    0.1146 H   0  0  0  0  0  0  0  0  0  0  0  0
    7.0756    0.3808    0.5160 H   0  0  0  0  0  0  0  0  0  0  0  0
    9.2296    0.7774   -0.5153 H   0  0  0  0  0  0  0  0  0  0  0  0
    9.3582   -0.9673   -0.9172 H   0  0  0  0  0  0  0  0  0  0  0  0
    9.4460    0.2583   -2.2017 H   0  0  0  0  0  0  0  0  0  0  0  0
  1  7  1  0  0  0  0
  1 15  1  0  0  0  0
  2 23  1  0  0  0  0
  2 28  1  0  0  0  0
  3 30  1  0  0  0  0
  3 31  1  0  0  0  0
  4 29  2  0  0  0  0
  5 10  1  0  0  0  0
  5 13  1  0  0  0  0
  5 14  1  0  0  0  0
  6 15  2  0  0  0  0
  6 19  1  0  0  0  0
  7 19  2  0  0  0  0
  8 25  1  0  0  0  0
  8 27  2  0  0  0  0
  9 27  1  0  0  0  0
  9 29  1  0  0  0  0
  9 51  1  0  0  0  0
 10 11  1  0  0  0  0
 10 15  1  0  0  0  0
 10 32  1  0  0  0  0
 11 12  1  0  0  0  0
 11 33  1  0  0  0  0
 11 34  1  0  0  0  0
 12 13  1  0  0  0  0
 12 35  1  0  0  0  0
 12 36  1  0  0  0  0
 13 37  1  0  0  0  0
 13 38  1  0  0  0  0
 14 16  1  0  0  0  0
 14 39  1  0  0  0  0
 14 40  1  0  0  0  0
 16 17  2  0  0  0  0
 16 18  1  0  0  0  0
 17 20  1  0  0  0  0
 17 41  1  0  0  0  0
 18 21  2  0  0  0  0
 18 42  1  0  0  0  0
 19 22  1  0  0  0  0
 20 23  2  0  0  0  0
 20 43  1  0  0  0  0
 21 23  1  0  0  0  0
 21 44  1  0  0  0  0
 22 24  1  0  0  0  0
 22 25  2  0  0  0  0
 24 26  2  0  0  0  0
 24 45  1  0  0  0  0
 25 46  1  0  0  0  0
 26 27  1  0  0  0  0
 26 47  1  0  0  0  0
 28 48  1  0  0  0  0
 28 49  1  0  0  0  0
 28 50  1  0  0  0  0
 29 30  1  0  0  0  0
 30 52  1  0  0  0  0
 30 53  1  0  0  0  0
 31 54  1  0  0  0  0
 31 55  1  0  0  0  0
 31 56  1  0  0  0  0
M  END
> <PUBCHEM_COMPOUND_CID>
45783622

> <PUBCHEM_CONFORMER_RMSD>
1

> <PUBCHEM_CONFORMER_DIVERSEORDER>
1
23
9
43
39
15
13
38
41
20
3
26
22
4
37
30
29
2
21
17
8
11
19
12
27
6
16
24
10
25
14
36
18
33
5
32
34
28
35
42
31
7
40

> <PUBCHEM_MMFF94_PARTIAL_CHARGES>
37
1 -0.02
10 0.45
13 0.27
14 0.41
15 0.3
16 -0.14
17 -0.15
18 -0.15
19 0.46
2 -0.36
20 -0.15
21 -0.15
22 0.05
23 0.08
24 -0.15
25 0.16
26 -0.15
27 0.43
28 0.28
29 0.57
3 -0.56
30 0.34
31 0.28
4 -0.57
41 0.15
42 0.15
43 0.15
44 0.15
45 0.15
46 0.15
47 0.15
5 -0.81
51 0.37
6 -0.57
7 -0.41
8 -0.62
9 -0.55

> <PUBCHEM_EFFECTIVE_ROTOR_COUNT>
10

> <PUBCHEM_PHARMACOPHORE_FEATURES>
10
1 2 acceptor
1 3 acceptor
1 4 acceptor
1 5 cation
1 9 donor
3 6 7 19 cation
5 1 6 7 15 19 rings
5 5 10 11 12 13 rings
6 16 17 18 20 21 23 rings
6 8 22 24 25 26 27 rings

> <PUBCHEM_HEAVY_ATOM_COUNT>
31

> <PUBCHEM_ATOM_DEF_STEREO_COUNT>
1

> <PUBCHEM_ATOM_UDEF_STEREO_COUNT>
0

> <PUBCHEM_BOND_DEF_STEREO_COUNT>
0

> <PUBCHEM_BOND_UDEF_STEREO_COUNT>
0

> <PUBCHEM_ISOTOPIC_ATOM_COUNT>
0

> <PUBCHEM_COMPONENT_COUNT>
1

> <PUBCHEM_CACTVS_TAUTO_COUNT>
11

> <PUBCHEM_CONFORMER_ID>
02BA9A4600000001

> <PUBCHEM_MMFF94_ENERGY>
79.8859

> <PUBCHEM_FEATURE_SELFOVERLAP>
50.758

> <PUBCHEM_SHAPE_FINGERPRINT>
10454371 7 18411426094611876564
10670039 82 18335702728780225122
1100329 8 18339349787628514033
11477941 20 18342733031434318652
11578080 2 17487355749765724935
12107698 1 18412825815605070220
12788726 201 18263073345150134115
13782708 43 17561082484797935262
14931854 50 18187072940869318567
15183329 4 17968098574203095130
15876981 60 18411144631839553797
17492 54 18041828524988728085
19438510 23 13913146943762576679
20721686 56 18339079419210396952
20775438 99 17261561476954213143
21236236 1 18334021571095599018
21304303 64 17022898996479616229
21344244 246 17909257332567279095
255183 451 17982160425684157207
484985 159 13110670611239349525
5171179 24 18271801388510804385
531348 171 18129384791565908622
6608658 132 18336542737988182756
999808 66 14620801509233289878

> <PUBCHEM_SHAPE_MULTIPOLES>
589.58
16.03
3.72
1.93
38.44
4.03
0.19
-6.72
-11.34
-4.48
0.57
-0.55
-0.85
-1.41

> <PUBCHEM_SHAPE_SELFOVERLAP>
1265.541

> <PUBCHEM_SHAPE_VOLUME>
326.5

> <PUBCHEM_COORDINATE_TYPE>
2
5
10

$$$$
