26742810
  -OEChem-12032416173D

 59 62  0     1  0  0  0  0  0999 V2000
   -5.2268    0.0362    0.9919 O   0  0  0  0  0  0  0  0  0  0  0  0
    1.6852   -0.9075    1.5748 O   0  0  0  0  0  0  0  0  0  0  0  0
    6.8930    1.2875   -0.0245 O   0  0  0  0  0  0  0  0  0  0  0  0
    0.0001   -2.1444    0.5612 N   0  0  0  0  0  0  0  0  0  0  0  0
   -3.9763    0.2368   -0.9518 N   0  0  0  0  0  0  0  0  0  0  0  0
   -1.8086    2.9731    1.7587 N   0  0  0  0  0  0  0  0  0  0  0  0
   -1.9808   -2.3290   -0.9338 C   0  0  2  0  0  0  0  0  0  0  0  0
   -2.8732   -2.4063    0.3274 C   0  0  1  0  0  0  0  0  0  0  0  0
   -2.2213   -1.6946    1.5273 C   0  0  0  0  0  0  0  0  0  0  0  0
   -0.5665   -2.8452   -0.5983 C   0  0  0  0  0  0  0  0  0  0  0  0
   -1.8911   -0.9379   -1.5894 C   0  0  0  0  0  0  0  0  0  0  0  0
   -4.3268   -1.9752    0.0942 C   0  0  0  0  0  0  0  0  0  0  0  0
   -0.8096   -2.2202    1.7771 C   0  0  0  0  0  0  0  0  0  0  0  0
   -3.2406   -0.3943   -2.0452 C   0  0  0  0  0  0  0  0  0  0  0  0
   -4.5576   -0.4759    0.0908 C   0  0  0  0  0  0  0  0  0  0  0  0
    1.2191   -1.4674    0.5793 C   0  0  0  0  0  0  0  0  0  0  0  0
   -4.0766    1.6900   -0.9871 C   0  0  0  0  0  0  0  0  0  0  0  0
    1.9917   -1.4321   -0.7150 C   0  0  0  0  0  0  0  0  0  0  0  0
   -2.9096    2.3492   -0.3013 C   0  0  0  0  0  0  0  0  0  0  0  0
    3.2912   -0.7115   -0.5343 C   0  0  0  0  0  0  0  0  0  0  0  0
   -1.8822    2.9317   -1.0353 C   0  0  0  0  0  0  0  0  0  0  0  0
   -2.8263    2.3963    1.0811 C   0  0  0  0  0  0  0  0  0  0  0  0
    3.3593    0.6666   -0.7398 C   0  0  0  0  0  0  0  0  0  0  0  0
    4.4336   -1.4177   -0.1579 C   0  0  0  0  0  0  0  0  0  0  0  0
   -0.8182    3.5348   -0.3739 C   0  0  0  0  0  0  0  0  0  0  0  0
    4.5698    1.3383   -0.5690 C   0  0  0  0  0  0  0  0  0  0  0  0
    5.6441   -0.7461    0.0129 C   0  0  0  0  0  0  0  0  0  0  0  0
   -0.8285    3.5289    1.0116 C   0  0  0  0  0  0  0  0  0  0  0  0
    5.7122    0.6319   -0.1927 C   0  0  0  0  0  0  0  0  0  0  0  0
    8.0214    0.5039    0.3610 C   0  0  0  0  0  0  0  0  0  0  0  0
   -2.4020   -3.0127   -1.6842 H   0  0  0  0  0  0  0  0  0  0  0  0
   -2.9263   -3.4741    0.5900 H   0  0  0  0  0  0  0  0  0  0  0  0
   -2.8285   -1.8431    2.4279 H   0  0  0  0  0  0  0  0  0  0  0  0
   -2.1672   -0.6150    1.3500 H   0  0  0  0  0  0  0  0  0  0  0  0
   -0.6125   -3.9085   -0.3315 H   0  0  0  0  0  0  0  0  0  0  0  0
    0.0744   -2.7742   -1.4792 H   0  0  0  0  0  0  0  0  0  0  0  0
   -1.2532   -1.0288   -2.4784 H   0  0  0  0  0  0  0  0  0  0  0  0
   -1.3931   -0.2229   -0.9253 H   0  0  0  0  0  0  0  0  0  0  0  0
   -4.9416   -2.3850    0.9071 H   0  0  0  0  0  0  0  0  0  0  0  0
   -4.7286   -2.4121   -0.8265 H   0  0  0  0  0  0  0  0  0  0  0  0
   -0.3454   -1.6554    2.5917 H   0  0  0  0  0  0  0  0  0  0  0  0
   -0.8404   -3.2719    2.0853 H   0  0  0  0  0  0  0  0  0  0  0  0
   -3.0797    0.3445   -2.8386 H   0  0  0  0  0  0  0  0  0  0  0  0
   -3.8582   -1.1876   -2.4802 H   0  0  0  0  0  0  0  0  0  0  0  0
   -4.9977    2.0037   -0.4799 H   0  0  0  0  0  0  0  0  0  0  0  0
   -4.1791    2.0296   -2.0246 H   0  0  0  0  0  0  0  0  0  0  0  0
    1.3924   -0.9325   -1.4850 H   0  0  0  0  0  0  0  0  0  0  0  0
    2.1885   -2.4558   -1.0538 H   0  0  0  0  0  0  0  0  0  0  0  0
   -1.8988    2.9196   -2.1215 H   0  0  0  0  0  0  0  0  0  0  0  0
   -3.5971    1.9704    1.7140 H   0  0  0  0  0  0  0  0  0  0  0  0
    2.4755    1.2286   -1.0304 H   0  0  0  0  0  0  0  0  0  0  0  0
    4.3921   -2.4912    0.0075 H   0  0  0  0  0  0  0  0  0  0  0  0
   -0.0056    3.9936   -0.9255 H   0  0  0  0  0  0  0  0  0  0  0  0
    4.6164    2.4119   -0.7295 H   0  0  0  0  0  0  0  0  0  0  0  0
    6.4917   -1.3556    0.3068 H   0  0  0  0  0  0  0  0  0  0  0  0
   -0.0213    3.9854    1.5748 H   0  0  0  0  0  0  0  0  0  0  0  0
    8.8737    1.1857    0.4483 H   0  0  0  0  0  0  0  0  0  0  0  0
    8.2797   -0.2342   -0.4060 H   0  0  0  0  0  0  0  0  0  0  0  0
    7.8762    0.0463    1.3454 H   0  0  0  0  0  0  0  0  0  0  0  0
  1 15  2  0  0  0  0
  2 16  2  0  0  0  0
  3 29  1  0  0  0  0
  3 30  1  0  0  0  0
  4 10  1  0  0  0  0
  4 13  1  0  0  0  0
  4 16  1  0  0  0  0
  5 14  1  0  0  0  0
  5 15  1  0  0  0  0
  5 17  1  0  0  0  0
  6 22  1  0  0  0  0
  6 28  2  0  0  0  0
  7  8  1  0  0  0  0
  7 10  1  0  0  0  0
  7 11  1  0  0  0  0
  7 31  1  0  0  0  0
  8  9  1  0  0  0  0
  8 12  1  0  0  0  0
  8 32  1  0  0  0  0
  9 13  1  0  0  0  0
  9 33  1  0  0  0  0
  9 34  1  0  0  0  0
 10 35  1  0  0  0  0
 10 36  1  0  0  0  0
 11 14  1  0  0  0  0
 11 37  1  0  0  0  0
 11 38  1  0  0  0  0
 12 15  1  0  0  0  0
 12 39  1  0  0  0  0
 12 40  1  0  0  0  0
 13 41  1  0  0  0  0
 13 42  1  0  0  0  0
 14 43  1  0  0  0  0
 14 44  1  0  0  0  0
 16 18  1  0  0  0  0
 17 19  1  0  0  0  0
 17 45  1  0  0  0  0
 17 46  1  0  0  0  0
 18 20  1  0  0  0  0
 18 47  1  0  0  0  0
 18 48  1  0  0  0  0
 19 21  1  0  0  0  0
 19 22  2  0  0  0  0
 20 23  2  0  0  0  0
 20 24  1  0  0  0  0
 21 25  2  0  0  0  0
 21 49  1  0  0  0  0
 22 50  1  0  0  0  0
 23 26  1  0  0  0  0
 23 51  1  0  0  0  0
 24 27  2  0  0  0  0
 24 52  1  0  0  0  0
 25 28  1  0  0  0  0
 25 53  1  0  0  0  0
 26 29  2  0  0  0  0
 26 54  1  0  0  0  0
 27 29  1  0  0  0  0
 27 55  1  0  0  0  0
 28 56  1  0  0  0  0
 30 57  1  0  0  0  0
 30 58  1  0  0  0  0
 30 59  1  0  0  0  0
M  END
> <PUBCHEM_COMPOUND_CID>
26742810

> <PUBCHEM_CONFORMER_RMSD>
1.2

> <PUBCHEM_CONFORMER_DIVERSEORDER>
1
119
116
13
65
93
27
20
85
117
110
73
36
149
48
99
76
127
28
59
134
32
129
53
113
81
35
92
126
103
62
9
44
87
22
37
77
88
51
102
10
72
91
67
132
74
90
96
38
94
40
50
55
21
39
145
7
71
12
82
153
109
17
30
11
146
107
52
83
105
139
154
33
14
138
80
120
121
58
5
97
16
125
155
152
42
47
150
151
98
6
112
68
118
49
15
54
137
60
104
8
123
26
66
34
45
133
61
69
124
147
57
115
95
135
84
78
23
148
25
100
56
75
43
3
111
63
141
31
106
131
79
19
140
144
2
29
142
18
86
89
64
130
24
41
114
101
136
128
4
122
143
46
70
108

> <PUBCHEM_MMFF94_PARTIAL_CHARGES>
34
1 -0.57
10 0.3
12 0.06
13 0.3
14 0.3
15 0.57
16 0.57
17 0.44
18 0.2
19 -0.14
2 -0.57
20 -0.14
21 -0.15
22 0.16
23 -0.15
24 -0.15
25 -0.15
26 -0.15
27 -0.15
28 0.16
29 0.08
3 -0.36
30 0.28
4 -0.66
49 0.15
5 -0.66
50 0.15
51 0.15
52 0.15
53 0.15
54 0.15
55 0.15
56 0.15
6 -0.62

> <PUBCHEM_EFFECTIVE_ROTOR_COUNT>
7.6

> <PUBCHEM_PHARMACOPHORE_FEATURES>
8
1 1 acceptor
1 2 acceptor
1 3 acceptor
1 6 acceptor
6 20 23 24 26 27 29 rings
6 4 7 8 9 10 13 rings
6 6 19 21 22 25 28 rings
7 5 7 8 11 12 14 15 rings

> <PUBCHEM_HEAVY_ATOM_COUNT>
30

> <PUBCHEM_ATOM_DEF_STEREO_COUNT>
2

> <PUBCHEM_ATOM_UDEF_STEREO_COUNT>
0

> <PUBCHEM_BOND_DEF_STEREO_COUNT>
0

> <PUBCHEM_BOND_UDEF_STEREO_COUNT>
0

> <PUBCHEM_ISOTOPIC_ATOM_COUNT>
0

> <PUBCHEM_COMPONENT_COUNT>
1

> <PUBCHEM_CACTVS_TAUTO_COUNT>
2

> <PUBCHEM_CONFORMER_ID>
0198101A00000001

> <PUBCHEM_MMFF94_ENERGY>
85.4264

> <PUBCHEM_FEATURE_SELFOVERLAP>
40.625

> <PUBCHEM_SHAPE_FINGERPRINT>
100830 39 18409728431647487068
10087517 78 18410008858214080804
10291535 26 18409731781057307378
10454371 7 18341342162796035492
10670039 82 18410847764084811680
10816530 145 18338528550614936163
12104220 1 18333725811290329660
12156800 1 17547068126653730489
12788726 201 18411410683467378296
13402501 40 18412544331484731504
13947920 24 18342736299677246304
14114206 34 18196908051258996613
14251764 75 17766001601591800881
14279260 333 18337948979707784302
14394314 77 18411703145456508033
14713325 29 18412550885927020379
14931854 50 18338221692296824245
15119646 57 17203058365403758353
15297060 5 18201159862433046593
15876981 60 18337670948572022919
17492 54 18263344946646046469
18336668 15 18040999582941075157
19930381 70 16897364815751751999
20764821 26 18268430324783578752
20775438 99 16760522828490755615
21236236 1 18411419506015830796
22956985 138 16961841234378079795
373842 8 18192428791754883644
392239 28 18335428979906477913
445580 37 18335149709060276564
469060 322 17095532785611866765
5047190 69 18340477968068130024
5171179 24 17914040147802849976
6299153 45 18115016391526750146
6700243 42 17482867797168925926
7226269 152 18261669363675762182
7288768 16 17749956544560699275

> <PUBCHEM_SHAPE_MULTIPOLES>
584.83
13.85
4.19
1.51
29.26
2.82
0.14
2.44
-0.57
-3.98
0.75
-1.4
-0.06
-0.12

> <PUBCHEM_SHAPE_SELFOVERLAP>
1245.959

> <PUBCHEM_SHAPE_VOLUME>
320.1

> <PUBCHEM_COORDINATE_TYPE>
2
5
10

$$$$
