26745236
  -OEChem-12032416183D

 56 59  0     1  0  0  0  0  0999 V2000
   -0.6819   -1.4061   -2.4862 O   0  0  0  0  0  0  0  0  0  0  0  0
   -1.9091    2.3950   -0.0887 O   0  0  0  0  0  0  0  0  0  0  0  0
   -1.8186   -0.7060   -0.5736 N   0  0  0  0  0  0  0  0  0  0  0  0
   -0.1657   -2.4009   -0.4804 N   0  0  0  0  0  0  0  0  0  0  0  0
   -3.8929   -0.1614    2.5125 N   0  0  0  0  0  0  0  0  0  0  0  0
   -5.2873    0.9183    1.1421 N   0  0  0  0  0  0  0  0  0  0  0  0
   -0.5668    1.7730   -1.8863 N   0  0  0  0  0  0  0  0  0  0  0  0
    5.7446    1.4434    2.2280 N   0  0  0  0  0  0  0  0  0  0  0  0
    0.8411   -3.2802   -1.0320 C   0  0  0  0  0  0  0  0  0  0  0  0
    2.2138   -2.5995   -1.0553 C   0  0  0  0  0  0  0  0  0  0  0  0
    0.8922   -4.6073   -0.2675 C   0  0  0  0  0  0  0  0  0  0  0  0
    2.8170   -2.4511    0.3414 C   0  0  0  0  0  0  0  0  0  0  0  0
    1.4974   -4.4556    1.1280 C   0  0  0  0  0  0  0  0  0  0  0  0
    2.8674   -3.7863    1.0777 C   0  0  0  0  0  0  0  0  0  0  0  0
   -2.4593    0.4167   -1.3128 C   0  0  1  0  0  0  0  0  0  0  0  0
   -3.9503    0.6434   -0.9885 C   0  0  0  0  0  0  0  0  0  0  0  0
   -2.0439   -0.8297    0.8969 C   0  0  0  0  0  0  0  0  0  0  0  0
   -0.8756   -1.5006   -1.2703 C   0  0  0  0  0  0  0  0  0  0  0  0
   -3.3249   -0.2061    1.2738 C   0  0  0  0  0  0  0  0  0  0  0  0
   -4.1970    0.4644    0.4548 C   0  0  0  0  0  0  0  0  0  0  0  0
   -1.6285    1.6315   -1.0090 C   0  0  0  0  0  0  0  0  0  0  0  0
   -5.0734    0.5259    2.3820 C   0  0  0  0  0  0  0  0  0  0  0  0
    0.3698    2.8717   -1.8232 C   0  0  0  0  0  0  0  0  0  0  0  0
    1.5426    2.5600   -0.9393 C   0  0  0  0  0  0  0  0  0  0  0  0
    1.8095    3.3587    0.1728 C   0  0  0  0  0  0  0  0  0  0  0  0
    2.3655    1.4719   -1.2301 C   0  0  0  0  0  0  0  0  0  0  0  0
    2.8991    3.0692    0.9940 C   0  0  0  0  0  0  0  0  0  0  0  0
    3.4551    1.1824   -0.4089 C   0  0  0  0  0  0  0  0  0  0  0  0
    3.7219    1.9809    0.7033 C   0  0  0  0  0  0  0  0  0  0  0  0
    4.8381    1.6843    1.5446 C   0  0  0  0  0  0  0  0  0  0  0  0
    0.5541   -3.5008   -2.0676 H   0  0  0  0  0  0  0  0  0  0  0  0
    2.1465   -1.6159   -1.5320 H   0  0  0  0  0  0  0  0  0  0  0  0
    2.8970   -3.2002   -1.6695 H   0  0  0  0  0  0  0  0  0  0  0  0
    1.4970   -5.3241   -0.8376 H   0  0  0  0  0  0  0  0  0  0  0  0
   -0.1133   -5.0364   -0.1825 H   0  0  0  0  0  0  0  0  0  0  0  0
    2.2292   -1.7321    0.9248 H   0  0  0  0  0  0  0  0  0  0  0  0
    3.8304   -2.0422    0.2616 H   0  0  0  0  0  0  0  0  0  0  0  0
    1.5912   -5.4437    1.5932 H   0  0  0  0  0  0  0  0  0  0  0  0
    0.8263   -3.8713    1.7683 H   0  0  0  0  0  0  0  0  0  0  0  0
    3.5795   -4.4523    0.5750 H   0  0  0  0  0  0  0  0  0  0  0  0
    3.2404   -3.6320    2.0965 H   0  0  0  0  0  0  0  0  0  0  0  0
   -2.3993    0.2231   -2.3911 H   0  0  0  0  0  0  0  0  0  0  0  0
   -0.2327   -2.3482    0.5282 H   0  0  0  0  0  0  0  0  0  0  0  0
   -4.5500   -0.0995   -1.5288 H   0  0  0  0  0  0  0  0  0  0  0  0
   -4.2786    1.6355   -1.3177 H   0  0  0  0  0  0  0  0  0  0  0  0
   -1.2028   -0.3407    1.3998 H   0  0  0  0  0  0  0  0  0  0  0  0
   -2.0589   -1.8887    1.1726 H   0  0  0  0  0  0  0  0  0  0  0  0
   -3.5196   -0.5563    3.3657 H   0  0  0  0  0  0  0  0  0  0  0  0
   -5.7253    0.7035    3.2255 H   0  0  0  0  0  0  0  0  0  0  0  0
   -0.4148    1.0704   -2.6040 H   0  0  0  0  0  0  0  0  0  0  0  0
   -0.1604    3.7661   -1.4769 H   0  0  0  0  0  0  0  0  0  0  0  0
    0.7201    3.0705   -2.8423 H   0  0  0  0  0  0  0  0  0  0  0  0
    1.1768    4.2091    0.4123 H   0  0  0  0  0  0  0  0  0  0  0  0
    2.1731    0.8470   -2.0980 H   0  0  0  0  0  0  0  0  0  0  0  0
    3.0941    3.7007    1.8575 H   0  0  0  0  0  0  0  0  0  0  0  0
    4.0914    0.3354   -0.6527 H   0  0  0  0  0  0  0  0  0  0  0  0
  1 18  2  0  0  0  0
  2 21  2  0  0  0  0
  3 15  1  0  0  0  0
  3 17  1  0  0  0  0
  3 18  1  0  0  0  0
  4  9  1  0  0  0  0
  4 18  1  0  0  0  0
  4 43  1  0  0  0  0
  5 19  1  0  0  0  0
  5 22  1  0  0  0  0
  5 48  1  0  0  0  0
  6 20  1  0  0  0  0
  6 22  2  0  0  0  0
  7 21  1  0  0  0  0
  7 23  1  0  0  0  0
  7 50  1  0  0  0  0
  8 30  3  0  0  0  0
  9 10  1  0  0  0  0
  9 11  1  0  0  0  0
  9 31  1  0  0  0  0
 10 12  1  0  0  0  0
 10 32  1  0  0  0  0
 10 33  1  0  0  0  0
 11 13  1  0  0  0  0
 11 34  1  0  0  0  0
 11 35  1  0  0  0  0
 12 14  1  0  0  0  0
 12 36  1  0  0  0  0
 12 37  1  0  0  0  0
 13 14  1  0  0  0  0
 13 38  1  0  0  0  0
 13 39  1  0  0  0  0
 14 40  1  0  0  0  0
 14 41  1  0  0  0  0
 15 16  1  0  0  0  0
 15 21  1  0  0  0  0
 15 42  1  0  0  0  0
 16 20  1  0  0  0  0
 16 44  1  0  0  0  0
 16 45  1  0  0  0  0
 17 19  1  0  0  0  0
 17 46  1  0  0  0  0
 17 47  1  0  0  0  0
 19 20  2  0  0  0  0
 22 49  1  0  0  0  0
 23 24  1  0  0  0  0
 23 51  1  0  0  0  0
 23 52  1  0  0  0  0
 24 25  2  0  0  0  0
 24 26  1  0  0  0  0
 25 27  1  0  0  0  0
 25 53  1  0  0  0  0
 26 28  2  0  0  0  0
 26 54  1  0  0  0  0
 27 29  2  0  0  0  0
 27 55  1  0  0  0  0
 28 29  1  0  0  0  0
 28 56  1  0  0  0  0
 29 30  1  0  0  0  0
M  END
> <PUBCHEM_COMPOUND_CID>
26745236

> <PUBCHEM_CONFORMER_RMSD>
1

> <PUBCHEM_CONFORMER_DIVERSEORDER>
1
16
66
81
49
32
78
28
74
45
21
10
58
79
34
73
20
38
54
3
7
43
33
57
75
30
19
82
61
13
24
77
48
44
59
51
63
36
2
72
56
52
46
71
65
42
41
62
23
26
14
37
31
60
47
39
6
68
12
40
53
8
64
67
69
4
70
18
50
80
11
25
35
76
9
5
22
55
27
29
17
15

> <PUBCHEM_MMFF94_PARTIAL_CHARGES>
33
1 -0.57
15 0.36
16 0.18
17 0.48
18 0.69
19 -0.33
2 -0.57
20 0.05
21 0.57
22 0.04
23 0.44
24 -0.14
25 -0.15
26 -0.15
27 -0.15
28 -0.15
29 0.07
3 -0.66
30 0.48
4 -0.73
43 0.37
48 0.27
49 0.15
5 0.03
50 0.37
53 0.15
54 0.15
55 0.15
56 0.15
6 -0.57
7 -0.73
8 -0.56
9 0.3

> <PUBCHEM_EFFECTIVE_ROTOR_COUNT>
9

> <PUBCHEM_PHARMACOPHORE_FEATURES>
11
1 1 acceptor
1 2 acceptor
1 4 donor
1 5 donor
1 7 donor
1 8 acceptor
3 5 6 22 cation
5 5 6 19 20 22 rings
6 24 25 26 27 28 29 rings
6 3 15 16 17 19 20 rings
6 9 10 11 12 13 14 rings

> <PUBCHEM_HEAVY_ATOM_COUNT>
30

> <PUBCHEM_ATOM_DEF_STEREO_COUNT>
1

> <PUBCHEM_ATOM_UDEF_STEREO_COUNT>
0

> <PUBCHEM_BOND_DEF_STEREO_COUNT>
0

> <PUBCHEM_BOND_UDEF_STEREO_COUNT>
0

> <PUBCHEM_ISOTOPIC_ATOM_COUNT>
0

> <PUBCHEM_COMPONENT_COUNT>
1

> <PUBCHEM_CACTVS_TAUTO_COUNT>
8

> <PUBCHEM_CONFORMER_ID>
0198199400000001

> <PUBCHEM_MMFF94_ENERGY>
50.7258

> <PUBCHEM_FEATURE_SELFOVERLAP>
55.925

> <PUBCHEM_SHAPE_FINGERPRINT>
10006869 2 15384148035248115213
11070050 100 17405487385741160915
12156800 1 13411628044782686168
12160290 23 17477218583586507047
12422481 6 18335406951288333680
12633257 1 17677054675520849505
12788726 201 17188703468045783151
12839892 36 18047773764864862227
14363568 33 18196654000033455694
14765038 42 18270677697129605976
15420108 30 18201715162975997175
16112460 7 18125714836991263712
16120349 306 18197758076773000650
1979834 28 18335151898628745881
23419403 2 18042126462622298053
23559900 14 17387148485167588655
3493558 16 17196015839125638985
35225 105 17120898724806973570
4112364 45 17630343947889200377
4616759 239 16671607011154162330
5265222 85 18334858372755076716
58807428 26 18339930427718375085
79837 15 18122349248450639531

> <PUBCHEM_SHAPE_MULTIPOLES>
575.76
9.2
5.83
2.21
3.4
6.1
0.44
-5.13
7.73
-7.18
-0.13
0.88
-0.43
0.66

> <PUBCHEM_SHAPE_SELFOVERLAP>
1231.782

> <PUBCHEM_SHAPE_VOLUME>
312.5

> <PUBCHEM_COORDINATE_TYPE>
2
5
10

$$$$
