11942809
  -OEChem-12032416153D

 61 65  0     1  0  0  0  0  0999 V2000
   -5.4988   -1.8871    0.0523 S   0  0  0  0  0  0  0  0  0  0  0  0
   -7.2620    3.6928   -0.4691 F   0  0  0  0  0  0  0  0  0  0  0  0
   -2.6331    0.2795    1.8459 O   0  0  0  0  0  0  0  0  0  0  0  0
    1.0056   -2.4745   -0.8919 O   0  0  0  0  0  0  0  0  0  0  0  0
   -5.9620   -2.3188    1.3567 O   0  0  0  0  0  0  0  0  0  0  0  0
   -5.9815   -2.5115   -1.1639 O   0  0  0  0  0  0  0  0  0  0  0  0
    4.7506    2.2060   -0.9567 O   0  0  0  0  0  0  0  0  0  0  0  0
    9.0563    0.1802   -0.7978 O   0  0  0  0  0  0  0  0  0  0  0  0
   -0.8296   -1.1232   -0.5893 N   0  0  0  0  0  0  0  0  0  0  0  0
   -3.7879   -1.8820    0.0297 N   0  0  0  0  0  0  0  0  0  0  0  0
   -0.3632    0.2716    1.9701 N   0  0  0  0  0  0  0  0  0  0  0  0
   -3.1129   -1.3370   -1.1731 C   0  0  1  0  0  0  0  0  0  0  0  0
   -1.4384    0.1448   -0.2427 C   0  0  1  0  0  0  0  0  0  0  0  0
   -2.7848    0.1425   -0.9759 C   0  0  0  0  0  0  0  0  0  0  0  0
   -1.7448   -1.9788   -1.3356 C   0  0  0  0  0  0  0  0  0  0  0  0
   -1.5473    0.1918    1.2689 C   0  0  0  0  0  0  0  0  0  0  0  0
    0.5014   -1.4483   -0.4350 C   0  0  0  0  0  0  0  0  0  0  0  0
    1.3680   -0.5235    0.3396 C   0  0  0  0  0  0  0  0  0  0  0  0
    0.9591    0.1749    1.4870 C   0  0  0  0  0  0  0  0  0  0  0  0
    2.7248   -0.5031   -0.0344 C   0  0  0  0  0  0  0  0  0  0  0  0
   -6.0356   -0.1841   -0.1062 C   0  0  0  0  0  0  0  0  0  0  0  0
    1.9330    0.8214    2.2695 C   0  0  0  0  0  0  0  0  0  0  0  0
    3.6685    0.1830    0.7285 C   0  0  0  0  0  0  0  0  0  0  0  0
    3.2745    0.8351    1.8889 C   0  0  0  0  0  0  0  0  0  0  0  0
   -6.2457    0.3165   -1.3662 C   0  0  0  0  0  0  0  0  0  0  0  0
   -6.2162    0.5508    1.0381 C   0  0  0  0  0  0  0  0  0  0  0  0
    5.0578    0.1957    0.3252 C   0  0  0  0  0  0  0  0  0  0  0  0
   -6.6646    1.6412   -1.4902 C   0  0  0  0  0  0  0  0  0  0  0  0
   -6.6351    1.8755    0.9141 C   0  0  0  0  0  0  0  0  0  0  0  0
    5.5562    1.2038   -0.5019 C   0  0  0  0  0  0  0  0  0  0  0  0
    5.9069   -0.8174    0.7741 C   0  0  0  0  0  0  0  0  0  0  0  0
   -6.8594    2.4208   -0.3500 C   0  0  0  0  0  0  0  0  0  0  0  0
    6.8992    1.1990   -0.8787 C   0  0  0  0  0  0  0  0  0  0  0  0
    7.2499   -0.8224    0.3973 C   0  0  0  0  0  0  0  0  0  0  0  0
    7.7460    0.1859   -0.4290 C   0  0  0  0  0  0  0  0  0  0  0  0
    4.0800    1.9848   -2.1951 C   0  0  0  0  0  0  0  0  0  0  0  0
    9.8653   -0.8858   -0.3032 C   0  0  0  0  0  0  0  0  0  0  0  0
   -3.7266   -1.5160   -2.0608 H   0  0  0  0  0  0  0  0  0  0  0  0
   -0.8157    0.9807   -0.5818 H   0  0  0  0  0  0  0  0  0  0  0  0
   -3.5431    0.7256   -0.4538 H   0  0  0  0  0  0  0  0  0  0  0  0
   -2.6437    0.5995   -1.9642 H   0  0  0  0  0  0  0  0  0  0  0  0
   -1.6816   -3.0091   -0.9709 H   0  0  0  0  0  0  0  0  0  0  0  0
   -1.4218   -1.9590   -2.3830 H   0  0  0  0  0  0  0  0  0  0  0  0
   -3.2731   -1.8480    0.9174 H   0  0  0  0  0  0  0  0  0  0  0  0
   -0.4582    0.5293    2.9498 H   0  0  0  0  0  0  0  0  0  0  0  0
    3.0526   -1.0440   -0.9215 H   0  0  0  0  0  0  0  0  0  0  0  0
    1.6483    1.3496    3.1778 H   0  0  0  0  0  0  0  0  0  0  0  0
    3.9948    1.3633    2.5088 H   0  0  0  0  0  0  0  0  0  0  0  0
   -6.0911   -0.2689   -2.2660 H   0  0  0  0  0  0  0  0  0  0  0  0
   -6.0361    0.1452    2.0279 H   0  0  0  0  0  0  0  0  0  0  0  0
   -6.8370    2.0668   -2.4743 H   0  0  0  0  0  0  0  0  0  0  0  0
   -6.7843    2.4835    1.8015 H   0  0  0  0  0  0  0  0  0  0  0  0
    5.5367   -1.6113    1.4191 H   0  0  0  0  0  0  0  0  0  0  0  0
    7.2876    1.9842   -1.5226 H   0  0  0  0  0  0  0  0  0  0  0  0
    7.8516   -1.6387    0.7822 H   0  0  0  0  0  0  0  0  0  0  0  0
    3.8377    0.9300   -2.3570 H   0  0  0  0  0  0  0  0  0  0  0  0
    4.7122    2.3404   -3.0142 H   0  0  0  0  0  0  0  0  0  0  0  0
    3.1520    2.5632   -2.1922 H   0  0  0  0  0  0  0  0  0  0  0  0
   10.8763   -0.7329   -0.6948 H   0  0  0  0  0  0  0  0  0  0  0  0
    9.5221   -1.8573   -0.6749 H   0  0  0  0  0  0  0  0  0  0  0  0
    9.9388   -0.8618    0.7894 H   0  0  0  0  0  0  0  0  0  0  0  0
  1  5  2  0  0  0  0
  1  6  2  0  0  0  0
  1 10  1  0  0  0  0
  1 21  1  0  0  0  0
  2 32  1  0  0  0  0
  3 16  2  0  0  0  0
  4 17  2  0  0  0  0
  7 30  1  0  0  0  0
  7 36  1  0  0  0  0
  8 35  1  0  0  0  0
  8 37  1  0  0  0  0
  9 13  1  0  0  0  0
  9 15  1  0  0  0  0
  9 17  1  0  0  0  0
 10 12  1  0  0  0  0
 10 44  1  0  0  0  0
 11 16  1  0  0  0  0
 11 19  1  0  0  0  0
 11 45  1  0  0  0  0
 12 14  1  0  0  0  0
 12 15  1  0  0  0  0
 12 38  1  0  0  0  0
 13 14  1  0  0  0  0
 13 16  1  0  0  0  0
 13 39  1  0  0  0  0
 14 40  1  0  0  0  0
 14 41  1  0  0  0  0
 15 42  1  0  0  0  0
 15 43  1  0  0  0  0
 17 18  1  0  0  0  0
 18 19  2  0  0  0  0
 18 20  1  0  0  0  0
 19 22  1  0  0  0  0
 20 23  2  0  0  0  0
 20 46  1  0  0  0  0
 21 25  2  0  0  0  0
 21 26  1  0  0  0  0
 22 24  2  0  0  0  0
 22 47  1  0  0  0  0
 23 24  1  0  0  0  0
 23 27  1  0  0  0  0
 24 48  1  0  0  0  0
 25 28  1  0  0  0  0
 25 49  1  0  0  0  0
 26 29  2  0  0  0  0
 26 50  1  0  0  0  0
 27 30  2  0  0  0  0
 27 31  1  0  0  0  0
 28 32  2  0  0  0  0
 28 51  1  0  0  0  0
 29 32  1  0  0  0  0
 29 52  1  0  0  0  0
 30 33  1  0  0  0  0
 31 34  2  0  0  0  0
 31 53  1  0  0  0  0
 33 35  2  0  0  0  0
 33 54  1  0  0  0  0
 34 35  1  0  0  0  0
 34 55  1  0  0  0  0
 36 56  1  0  0  0  0
 36 57  1  0  0  0  0
 36 58  1  0  0  0  0
 37 59  1  0  0  0  0
 37 60  1  0  0  0  0
 37 61  1  0  0  0  0
M  END
> <PUBCHEM_COMPOUND_CID>
11942809

> <PUBCHEM_CONFORMER_RMSD>
1

> <PUBCHEM_CONFORMER_DIVERSEORDER>
1
39
42
4
41
23
15
22
10
36
35
34
19
16
30
27
33
9
43
20
8
14
40
5
37
25
38
2
18
26
17
24
29
13
7
31
6
28
44
32
21
45
3
12
11

> <PUBCHEM_MMFF94_PARTIAL_CHARGES>
46
1 1.45
10 -0.91
11 -0.55
12 0.36
13 0.36
15 0.3
16 0.57
17 0.54
18 0.09
19 0.12
2 -0.19
20 -0.15
21 -0.01
22 -0.15
24 -0.15
25 -0.15
26 -0.15
28 -0.15
29 -0.15
3 -0.57
30 0.08
31 -0.15
32 0.19
33 -0.15
34 -0.15
35 0.08
36 0.28
37 0.28
4 -0.57
44 0.42
45 0.37
46 0.15
47 0.15
48 0.15
49 0.15
5 -0.65
50 0.15
51 0.15
52 0.15
53 0.15
54 0.15
55 0.15
6 -0.65
7 -0.36
8 -0.36
9 -0.66

> <PUBCHEM_EFFECTIVE_ROTOR_COUNT>
6.8

> <PUBCHEM_PHARMACOPHORE_FEATURES>
13
1 10 donor
1 11 donor
1 3 acceptor
1 4 acceptor
1 5 acceptor
1 6 acceptor
1 7 acceptor
1 8 acceptor
5 9 12 13 14 15 rings
6 18 19 20 22 23 24 rings
6 21 25 26 28 29 32 rings
6 27 30 31 33 34 35 rings
7 9 11 13 16 17 18 19 rings

> <PUBCHEM_HEAVY_ATOM_COUNT>
37

> <PUBCHEM_ATOM_DEF_STEREO_COUNT>
2

> <PUBCHEM_ATOM_UDEF_STEREO_COUNT>
0

> <PUBCHEM_BOND_DEF_STEREO_COUNT>
0

> <PUBCHEM_BOND_UDEF_STEREO_COUNT>
0

> <PUBCHEM_ISOTOPIC_ATOM_COUNT>
0

> <PUBCHEM_COMPONENT_COUNT>
1

> <PUBCHEM_CACTVS_TAUTO_COUNT>
3

> <PUBCHEM_CONFORMER_ID>
00B63B9900000001

> <PUBCHEM_MMFF94_ENERGY>
133.2514

> <PUBCHEM_FEATURE_SELFOVERLAP>
66.048

> <PUBCHEM_SHAPE_FINGERPRINT>
10290309 65 13407060467475833225
10674148 151 18412258450752316498
11115154 58 18334017182146197932
11135926 11 17632585933243534387
11181472 205 18262241006922812400
11273773 118 18410858759522862369
11456790 92 15864338144105730884
12082328 90 18113901580661197075
12539745 222 18339088185544675355
12664476 115 18131071559073064771
13811026 1 17275102839086301056
14294032 229 18200038313529275728
14856354 85 18187925136234539359
15183329 4 16487255473688066183
15728490 51 8790879684079059372
1577012 14 18187358831568183834
16994733 274 18186798105986465560
19841028 212 18341894027682010770
20609170 92 17987523623906669348
21279426 13 17346310535867698139
21792961 116 17917431995651494018
21792965 78 17345474783141292558
2260408 40 15647897003480783491
23559900 14 16987705969630567738
23569914 152 15908562502965852613
23576562 1 17986941037194446093
24771293 8 14273732936931716966
2747138 104 13334733497093662878
335352 9 17632855334576143386
3383291 50 11891339737827703641
3633792 109 18412827976548418274
4058900 60 18341051831216991075
4093350 32 17676766488264921538
4098825 35 18259982656703648034
4107672 100 18412541029298134519
5080951 261 9439412354790211191
5265222 85 18269554012792716118
59682541 35 12396304764215372268
59755656 215 17275106124182608550
6086070 43 17203032054977161443

> <PUBCHEM_SHAPE_MULTIPOLES>
707.86
26.5
2.47
1.77
21.53
0.42
0.38
6.55
-5.88
-4.98
-0.83
-0.2
0.47
-0.58

> <PUBCHEM_SHAPE_SELFOVERLAP>
1547.384

> <PUBCHEM_SHAPE_VOLUME>
388.2

> <PUBCHEM_COORDINATE_TYPE>
2
5
10

$$$$
