38030027
  -OEChem-12032416223D

 59 61  0     1  0  0  0  0  0999 V2000
   -0.6242    2.0761   -1.6724 O   0  0  0  0  0  0  0  0  0  0  0  0
    1.0633    0.6275   -0.9984 N   0  0  0  0  0  0  0  0  0  0  0  0
    3.7974    0.1083   -0.2015 N   0  0  0  0  0  0  0  0  0  0  0  0
   -2.9594   -3.0451    1.7726 N   0  0  0  0  0  0  0  0  0  0  0  0
    5.5644   -1.3906    0.0424 N   0  0  0  0  0  0  0  0  0  0  0  0
    5.7683    0.9026    0.7542 N   0  0  0  0  0  0  0  0  0  0  0  0
   -3.7506    0.4630    0.8249 C   0  0  2  0  0  0  0  0  0  0  0  0
   -3.2262    1.2782   -0.3670 C   0  0  0  0  0  0  0  0  0  0  0  0
   -4.8744   -0.5006    0.3683 C   0  0  1  0  0  0  0  0  0  0  0  0
   -2.6727    0.3797   -1.4890 C   0  0  2  0  0  0  0  0  0  0  0  0
   -4.2275    1.4096    1.9310 C   0  0  0  0  0  0  0  0  0  0  0  0
   -3.6148   -0.7622   -1.8123 C   0  0  0  0  0  0  0  0  0  0  0  0
   -4.6011   -1.1326   -0.9764 C   0  0  0  0  0  0  0  0  0  0  0  0
   -1.2755   -0.1441   -1.1385 C   0  0  0  0  0  0  0  0  0  0  0  0
   -5.1175   -1.5995    1.4091 C   0  0  0  0  0  0  0  0  0  0  0  0
   -3.0440    1.8986    2.7597 C   0  0  0  0  0  0  0  0  0  0  0  0
   -4.9913    2.5860    1.3317 C   0  0  0  0  0  0  0  0  0  0  0  0
   -0.2589    0.9600   -1.2956 C   0  0  0  0  0  0  0  0  0  0  0  0
   -3.4260   -1.4402   -3.1408 C   0  0  0  0  0  0  0  0  0  0  0  0
    1.4953   -0.6986   -0.5511 C   0  0  0  0  0  0  0  0  0  0  0  0
    2.1057    1.6434   -1.1198 C   0  0  0  0  0  0  0  0  0  0  0  0
    2.9822   -0.9518   -0.7998 C   0  0  0  0  0  0  0  0  0  0  0  0
    3.2157    1.4489   -0.0891 C   0  0  0  0  0  0  0  0  0  0  0  0
   -3.9109   -2.4020    1.6068 C   0  0  0  0  0  0  0  0  0  0  0  0
    5.1028   -0.1378    0.2175 C   0  0  0  0  0  0  0  0  0  0  0  0
    6.8315   -1.5938    0.4592 C   0  0  0  0  0  0  0  0  0  0  0  0
    7.0291    0.6292    1.1491 C   0  0  0  0  0  0  0  0  0  0  0  0
    7.6190   -0.6123    1.0253 C   0  0  0  0  0  0  0  0  0  0  0  0
   -2.9113   -0.1196    1.2202 H   0  0  0  0  0  0  0  0  0  0  0  0
   -2.4724    2.0016   -0.0424 H   0  0  0  0  0  0  0  0  0  0  0  0
   -4.0380    1.8572   -0.8263 H   0  0  0  0  0  0  0  0  0  0  0  0
   -2.6188    1.0010   -2.3943 H   0  0  0  0  0  0  0  0  0  0  0  0
   -5.8137    0.0557    0.2557 H   0  0  0  0  0  0  0  0  0  0  0  0
   -4.8982    0.8854    2.6194 H   0  0  0  0  0  0  0  0  0  0  0  0
   -5.2774   -1.9284   -1.2825 H   0  0  0  0  0  0  0  0  0  0  0  0
   -1.2290   -0.5489   -0.1233 H   0  0  0  0  0  0  0  0  0  0  0  0
   -0.9928   -0.9403   -1.8348 H   0  0  0  0  0  0  0  0  0  0  0  0
   -5.4395   -1.1746    2.3649 H   0  0  0  0  0  0  0  0  0  0  0  0
   -5.9373   -2.2515    1.0812 H   0  0  0  0  0  0  0  0  0  0  0  0
   -2.3265    2.4716    2.1643 H   0  0  0  0  0  0  0  0  0  0  0  0
   -3.3888    2.5478    3.5722 H   0  0  0  0  0  0  0  0  0  0  0  0
   -2.5110    1.0576    3.2161 H   0  0  0  0  0  0  0  0  0  0  0  0
   -5.7864    2.2706    0.6496 H   0  0  0  0  0  0  0  0  0  0  0  0
   -5.4803    3.1455    2.1388 H   0  0  0  0  0  0  0  0  0  0  0  0
   -4.3423    3.3062    0.8224 H   0  0  0  0  0  0  0  0  0  0  0  0
   -2.4681   -1.9661   -3.1816 H   0  0  0  0  0  0  0  0  0  0  0  0
   -4.2117   -2.1768   -3.3410 H   0  0  0  0  0  0  0  0  0  0  0  0
   -3.4549   -0.7044   -3.9510 H   0  0  0  0  0  0  0  0  0  0  0  0
    0.9116   -1.4787   -1.0462 H   0  0  0  0  0  0  0  0  0  0  0  0
    1.2763   -0.7532    0.5224 H   0  0  0  0  0  0  0  0  0  0  0  0
    1.6700    2.6431   -1.0183 H   0  0  0  0  0  0  0  0  0  0  0  0
    2.5088    1.5643   -2.1370 H   0  0  0  0  0  0  0  0  0  0  0  0
    3.2217   -1.9346   -0.3772 H   0  0  0  0  0  0  0  0  0  0  0  0
    3.1852   -0.9929   -1.8768 H   0  0  0  0  0  0  0  0  0  0  0  0
    2.8206    1.5836    0.9250 H   0  0  0  0  0  0  0  0  0  0  0  0
    3.9668    2.2278   -0.2655 H   0  0  0  0  0  0  0  0  0  0  0  0
    7.2090   -2.6014    0.3208 H   0  0  0  0  0  0  0  0  0  0  0  0
    7.5703    1.4635    1.5824 H   0  0  0  0  0  0  0  0  0  0  0  0
    8.6327   -0.8033    1.3509 H   0  0  0  0  0  0  0  0  0  0  0  0
  1 18  2  0  0  0  0
  2 18  1  0  0  0  0
  2 20  1  0  0  0  0
  2 21  1  0  0  0  0
  3 22  1  0  0  0  0
  3 23  1  0  0  0  0
  3 25  1  0  0  0  0
  4 24  3  0  0  0  0
  5 25  2  0  0  0  0
  5 26  1  0  0  0  0
  6 25  1  0  0  0  0
  6 27  2  0  0  0  0
  7  8  1  0  0  0  0
  7  9  1  0  0  0  0
  7 11  1  0  0  0  0
  7 29  1  0  0  0  0
  8 10  1  0  0  0  0
  8 30  1  0  0  0  0
  8 31  1  0  0  0  0
  9 13  1  0  0  0  0
  9 15  1  0  0  0  0
  9 33  1  0  0  0  0
 10 12  1  0  0  0  0
 10 14  1  0  0  0  0
 10 32  1  0  0  0  0
 11 16  1  0  0  0  0
 11 17  1  0  0  0  0
 11 34  1  0  0  0  0
 12 13  2  0  0  0  0
 12 19  1  0  0  0  0
 13 35  1  0  0  0  0
 14 18  1  0  0  0  0
 14 36  1  0  0  0  0
 14 37  1  0  0  0  0
 15 24  1  0  0  0  0
 15 38  1  0  0  0  0
 15 39  1  0  0  0  0
 16 40  1  0  0  0  0
 16 41  1  0  0  0  0
 16 42  1  0  0  0  0
 17 43  1  0  0  0  0
 17 44  1  0  0  0  0
 17 45  1  0  0  0  0
 19 46  1  0  0  0  0
 19 47  1  0  0  0  0
 19 48  1  0  0  0  0
 20 22  1  0  0  0  0
 20 49  1  0  0  0  0
 20 50  1  0  0  0  0
 21 23  1  0  0  0  0
 21 51  1  0  0  0  0
 21 52  1  0  0  0  0
 22 53  1  0  0  0  0
 22 54  1  0  0  0  0
 23 55  1  0  0  0  0
 23 56  1  0  0  0  0
 26 28  2  0  0  0  0
 26 57  1  0  0  0  0
 27 28  1  0  0  0  0
 27 58  1  0  0  0  0
 28 59  1  0  0  0  0
M  END
> <PUBCHEM_COMPOUND_CID>
38030027

> <PUBCHEM_CONFORMER_RMSD>
1

> <PUBCHEM_CONFORMER_DIVERSEORDER>
1
110
145
108
132
76
26
106
155
139
128
122
62
38
120
186
89
185
24
116
180
57
86
53
93
56
19
47
31
126
39
173
99
34
59
157
102
112
37
42
28
27
175
45
144
32
10
136
134
130
64
69
160
148
143
127
154
20
95
49
166
117
98
133
167
35
84
87
142
158
29
66
104
82
16
97
149
67
54
181
184
91
152
77
182
153
90
138
46
48
118
92
96
135
146
65
159
43
85
23
80
22
79
40
121
101
168
88
13
61
83
78
177
129
114
74
109
55
162
36
179
100
44
150
123
163
25
5
17
147
2
11
111
107
73
41
178
171
137
165
113
52
176
71
18
51
60
15
72
115
6
103
151
170
174
125
68
4
75
94
119
50
124
58
164
141
14
105
183
3
21
161
63
9
81
30
169
8
131
12
7
156
33
172
140
70

> <PUBCHEM_MMFF94_PARTIAL_CHARGES>
27
1 -0.57
10 0.14
12 -0.28
13 -0.29
14 0.06
15 0.2
18 0.57
19 0.14
2 -0.66
20 0.3
21 0.3
22 0.37
23 0.37
24 0.36
25 0.72
26 0.16
27 0.16
28 -0.15
3 -0.84
35 0.15
4 -0.56
5 -0.62
57 0.15
58 0.15
59 0.15
6 -0.62
9 0.14

> <PUBCHEM_EFFECTIVE_ROTOR_COUNT>
8

> <PUBCHEM_PHARMACOPHORE_FEATURES>
8
1 1 acceptor
1 4 acceptor
1 6 acceptor
3 11 16 17 hydrophobe
4 3 5 6 25 cation
6 2 3 20 21 22 23 rings
6 5 6 25 26 27 28 rings
6 7 8 9 10 12 13 rings

> <PUBCHEM_HEAVY_ATOM_COUNT>
28

> <PUBCHEM_ATOM_DEF_STEREO_COUNT>
3

> <PUBCHEM_ATOM_UDEF_STEREO_COUNT>
0

> <PUBCHEM_BOND_DEF_STEREO_COUNT>
0

> <PUBCHEM_BOND_UDEF_STEREO_COUNT>
0

> <PUBCHEM_ISOTOPIC_ATOM_COUNT>
0

> <PUBCHEM_COMPONENT_COUNT>
1

> <PUBCHEM_CACTVS_TAUTO_COUNT>
1

> <PUBCHEM_CONFORMER_ID>
02444ACB00000001

> <PUBCHEM_MMFF94_ENERGY>
75.9079

> <PUBCHEM_FEATURE_SELFOVERLAP>
40.597

> <PUBCHEM_SHAPE_FINGERPRINT>
10 15 17704075100843480864
10291535 26 13326857742791325103
10554248 39 10879992480896749312
10674148 151 16081361956645532149
10816530 145 16415200122040285755
11036077 4 18261119569365456979
11315181 36 18272644658452903493
11443803 9 17988363651703211825
12104220 1 18408604747516501688
12596602 18 18343582936884775040
12633257 1 17968395497496089815
12988421 55 15984834713887589135
13690498 29 11819290983122452633
13782708 43 16515683355999718112
14347329 18 12175631650623187462
14844126 61 17631725093201722503
14849402 71 17987509494003134736
14950920 106 18339650039405294289
15021287 119 18271801350325142228
15183329 4 11602814692902008920
15348495 7 18408604777597220336
15461852 350 16056586664846468413
15799311 1 17968959534124067318
16114785 44 17971464110212458973
17686467 74 15983671537590273799
17780758 139 18409169917809551321
18927931 339 17168144511840171933
19377110 9 18201440315687685924
21033648 29 16844469162670800449
21130935 74 17846204550463361926
21307412 95 14346373371876405457
23522609 53 18270417065645357700
23559900 14 17676761088747245164
2838139 119 11455890252706771610
312425 54 18337395937626119578
3663271 9 17988915679121886210
4169191 19 10014995713847527154
484985 159 17748823021556397863
4938544 92 17704067370034444285
5104073 3 18200315420613234346
9981440 41 17416140399732323569

> <PUBCHEM_SHAPE_MULTIPOLES>
545.45
18.32
2.54
2.36
35.53
1.04
0.99
1.95
9.44
-4.46
-0.05
-2.55
-0.8
-0.82

> <PUBCHEM_SHAPE_SELFOVERLAP>
1132.031

> <PUBCHEM_SHAPE_VOLUME>
305.6

> <PUBCHEM_COORDINATE_TYPE>
2
5
10

$$$$
