7156243
  -OEChem-12032416363D

 61 65  0     1  0  0  0  0  0999 V2000
   -0.0950    3.0082    1.6789 O   0  0  0  0  0  0  0  0  0  0  0  0
   -4.1990   -0.3882    2.2273 O   0  0  0  0  0  0  0  0  0  0  0  0
   -3.4814   -2.4941    1.0272 O   0  0  0  0  0  0  0  0  0  0  0  0
    2.2848    0.0358   -1.2896 O   0  0  0  0  0  0  0  0  0  0  0  0
   -4.4648    0.9279    0.3309 N   0  0  0  0  0  0  0  0  0  0  0  0
   -1.8362    2.7385    0.1440 N   0  0  0  0  0  0  0  0  0  0  0  0
    1.7672    1.8991   -0.0101 N   0  0  0  0  0  0  0  0  0  0  0  0
    3.8888    1.0316    0.1048 N   0  0  0  0  0  0  0  0  0  0  0  0
    9.5499    0.2467    1.6235 N   0  0  0  0  0  0  0  0  0  0  0  0
   -4.2553    3.3948    0.6643 C   0  0  1  0  0  0  0  0  0  0  0  0
   -3.7006    2.4073   -1.5183 C   0  0  2  0  0  0  0  0  0  0  0  0
   -4.3769    3.5974   -0.8411 C   0  0  0  0  0  0  0  0  0  0  0  0
   -4.9426    2.0856    1.0895 C   0  0  0  0  0  0  0  0  0  0  0  0
   -2.7715    3.4184    1.0500 C   0  0  0  0  0  0  0  0  0  0  0  0
   -4.4307    1.1072   -1.1282 C   0  0  0  0  0  0  0  0  0  0  0  0
   -2.2380    2.3138   -1.1264 C   0  0  0  0  0  0  0  0  0  0  0  0
   -1.3391    1.7998   -1.9828 C   0  0  0  0  0  0  0  0  0  0  0  0
   -0.4992    2.6325    0.5776 C   0  0  0  0  0  0  0  0  0  0  0  0
   -4.1645   -0.2582    1.0009 C   0  0  0  0  0  0  0  0  0  0  0  0
    0.4661    2.0317   -0.3968 C   0  0  0  0  0  0  0  0  0  0  0  0
    0.0391    1.6560   -1.6071 C   0  0  0  0  0  0  0  0  0  0  0  0
   -3.7691   -1.4355    0.1460 C   0  0  0  0  0  0  0  0  0  0  0  0
    2.6250    0.8958   -0.4800 C   0  0  0  0  0  0  0  0  0  0  0  0
   -3.0418   -3.6760    0.4738 C   0  0  0  0  0  0  0  0  0  0  0  0
   -2.8980   -3.7876   -0.9091 C   0  0  0  0  0  0  0  0  0  0  0  0
   -2.7406   -4.7616    1.2961 C   0  0  0  0  0  0  0  0  0  0  0  0
    5.0326    0.2254   -0.1011 C   0  0  0  0  0  0  0  0  0  0  0  0
   -2.4526   -4.9848   -1.4697 C   0  0  0  0  0  0  0  0  0  0  0  0
   -2.2953   -5.9587    0.7356 C   0  0  0  0  0  0  0  0  0  0  0  0
   -2.1513   -6.0703   -0.6474 C   0  0  0  0  0  0  0  0  0  0  0  0
    6.2190    0.5116    0.5741 C   0  0  0  0  0  0  0  0  0  0  0  0
    4.9735   -0.8566   -0.9794 C   0  0  0  0  0  0  0  0  0  0  0  0
    7.3465   -0.2840    0.3708 C   0  0  0  0  0  0  0  0  0  0  0  0
    6.1010   -1.6523   -1.1827 C   0  0  0  0  0  0  0  0  0  0  0  0
    7.2875   -1.3659   -0.5076 C   0  0  0  0  0  0  0  0  0  0  0  0
    8.5625    0.0090    1.0620 C   0  0  0  0  0  0  0  0  0  0  0  0
   -4.7588    4.2172    1.1874 H   0  0  0  0  0  0  0  0  0  0  0  0
   -3.7851    2.5390   -2.6049 H   0  0  0  0  0  0  0  0  0  0  0  0
   -5.4316    3.6586   -1.1358 H   0  0  0  0  0  0  0  0  0  0  0  0
   -3.9030    4.5394   -1.1442 H   0  0  0  0  0  0  0  0  0  0  0  0
   -4.8146    1.9238    2.1651 H   0  0  0  0  0  0  0  0  0  0  0  0
   -6.0216    2.1569    0.9044 H   0  0  0  0  0  0  0  0  0  0  0  0
   -2.4361    4.4639    1.0893 H   0  0  0  0  0  0  0  0  0  0  0  0
   -2.6307    3.0192    2.0623 H   0  0  0  0  0  0  0  0  0  0  0  0
   -5.4745    1.1486   -1.4638 H   0  0  0  0  0  0  0  0  0  0  0  0
   -3.9735    0.2532   -1.6330 H   0  0  0  0  0  0  0  0  0  0  0  0
   -1.6278    1.4568   -2.9708 H   0  0  0  0  0  0  0  0  0  0  0  0
    0.6856    1.2694   -2.3857 H   0  0  0  0  0  0  0  0  0  0  0  0
   -4.6130   -1.6845   -0.5074 H   0  0  0  0  0  0  0  0  0  0  0  0
   -2.8700   -1.1496   -0.4119 H   0  0  0  0  0  0  0  0  0  0  0  0
    2.0501    2.3944    0.8312 H   0  0  0  0  0  0  0  0  0  0  0  0
    4.0089    1.8031    0.7563 H   0  0  0  0  0  0  0  0  0  0  0  0
   -3.1184   -2.9838   -1.6036 H   0  0  0  0  0  0  0  0  0  0  0  0
   -2.8509   -4.6802    2.3740 H   0  0  0  0  0  0  0  0  0  0  0  0
   -2.3410   -5.0730   -2.5466 H   0  0  0  0  0  0  0  0  0  0  0  0
   -2.0608   -6.8041    1.3758 H   0  0  0  0  0  0  0  0  0  0  0  0
   -1.8048   -7.0025   -1.0838 H   0  0  0  0  0  0  0  0  0  0  0  0
    6.2631    1.3562    1.2591 H   0  0  0  0  0  0  0  0  0  0  0  0
    4.0932   -1.1417   -1.5377 H   0  0  0  0  0  0  0  0  0  0  0  0
    6.0563   -2.4951   -1.8665 H   0  0  0  0  0  0  0  0  0  0  0  0
    8.1579   -1.9954   -0.6767 H   0  0  0  0  0  0  0  0  0  0  0  0
  1 18  2  0  0  0  0
  2 19  2  0  0  0  0
  3 22  1  0  0  0  0
  3 24  1  0  0  0  0
  4 23  2  0  0  0  0
  5 13  1  0  0  0  0
  5 15  1  0  0  0  0
  5 19  1  0  0  0  0
  6 14  1  0  0  0  0
  6 16  1  0  0  0  0
  6 18  1  0  0  0  0
  7 20  1  0  0  0  0
  7 23  1  0  0  0  0
  7 51  1  0  0  0  0
  8 23  1  0  0  0  0
  8 27  1  0  0  0  0
  8 52  1  0  0  0  0
  9 36  3  0  0  0  0
 10 12  1  0  0  0  0
 10 13  1  0  0  0  0
 10 14  1  0  0  0  0
 10 37  1  0  0  0  0
 11 12  1  0  0  0  0
 11 15  1  0  0  0  0
 11 16  1  0  0  0  0
 11 38  1  0  0  0  0
 12 39  1  0  0  0  0
 12 40  1  0  0  0  0
 13 41  1  0  0  0  0
 13 42  1  0  0  0  0
 14 43  1  0  0  0  0
 14 44  1  0  0  0  0
 15 45  1  0  0  0  0
 15 46  1  0  0  0  0
 16 17  2  0  0  0  0
 17 21  1  0  0  0  0
 17 47  1  0  0  0  0
 18 20  1  0  0  0  0
 19 22  1  0  0  0  0
 20 21  2  0  0  0  0
 21 48  1  0  0  0  0
 22 49  1  0  0  0  0
 22 50  1  0  0  0  0
 24 25  2  0  0  0  0
 24 26  1  0  0  0  0
 25 28  1  0  0  0  0
 25 53  1  0  0  0  0
 26 29  2  0  0  0  0
 26 54  1  0  0  0  0
 27 31  1  0  0  0  0
 27 32  2  0  0  0  0
 28 30  2  0  0  0  0
 28 55  1  0  0  0  0
 29 30  1  0  0  0  0
 29 56  1  0  0  0  0
 30 57  1  0  0  0  0
 31 33  2  0  0  0  0
 31 58  1  0  0  0  0
 32 34  1  0  0  0  0
 32 59  1  0  0  0  0
 33 35  1  0  0  0  0
 33 36  1  0  0  0  0
 34 35  2  0  0  0  0
 34 60  1  0  0  0  0
 35 61  1  0  0  0  0
M  END
> <PUBCHEM_COMPOUND_CID>
7156243

> <PUBCHEM_CONFORMER_RMSD>
1

> <PUBCHEM_CONFORMER_DIVERSEORDER>
1
146
161
170
240
137
229
199
74
159
32
201
104
138
21
187
49
219
140
169
209
136
57
167
212
133
84
62
88
105
142
59
155
154
207
234
208
203
157
118
196
60
103
218
144
202
222
223
242
226
176
233
215
152
131
4
123
236
115
86
130
132
224
175
19
55
220
58
26
121
193
195
225
18
244
109
85
211
10
63
194
200
101
134
166
14
235
117
34
230
188
206
239
27
7
81
185
87
15
151
9
174
238
241
29
106
12
190
40
114
197
143
24
147
82
171
102
227
99
120
96
116
228
177
44
126
217
90
48
91
122
93
33
156
107
83
173
25
125
11
94
113
214
204
92
135
16
145
149
129
128
198
50
61
70
45
153
158
77
39
182
237
66
168
180
162
35
216
47
231
183
141
160
28
17
179
23
41
163
20
64
98
3
52
192
191
213
164
148
111
71
127
43
95
110
97
37
80
205
31
124
13
221
30
119
51
67
75
73
100
42
78
54
232
6
139
186
89
76
184
53
178
72
243
189
69
2
56
112
165
38
22
210
108
36
181
5
150
8
65
79
172
46
68

> <PUBCHEM_MMFF94_PARTIAL_CHARGES>
47
1 -0.57
11 0.14
13 0.3
14 0.3
15 0.3
16 -0.03
17 -0.15
18 0.62
19 0.57
2 -0.57
20 0.12
21 -0.15
22 0.34
23 0.69
24 0.08
25 -0.15
26 -0.15
27 0.12
28 -0.15
29 -0.15
3 -0.36
30 -0.15
31 -0.15
32 -0.15
33 0.07
34 -0.15
35 -0.15
36 0.48
4 -0.57
47 0.15
48 0.15
5 -0.66
51 0.37
52 0.37
53 0.15
54 0.15
55 0.15
56 0.15
57 0.15
58 0.15
59 0.15
6 -0.47
60 0.15
61 0.15
7 -0.54
8 -0.55
9 -0.56

> <PUBCHEM_EFFECTIVE_ROTOR_COUNT>
9

> <PUBCHEM_PHARMACOPHORE_FEATURES>
12
1 1 acceptor
1 2 acceptor
1 3 acceptor
1 4 acceptor
1 7 donor
1 8 donor
1 9 acceptor
6 24 25 26 28 29 30 rings
6 27 31 32 33 34 35 rings
6 5 10 11 12 13 15 rings
6 6 10 11 12 14 16 rings
6 6 16 17 18 20 21 rings

> <PUBCHEM_HEAVY_ATOM_COUNT>
36

> <PUBCHEM_ATOM_DEF_STEREO_COUNT>
2

> <PUBCHEM_ATOM_UDEF_STEREO_COUNT>
0

> <PUBCHEM_BOND_DEF_STEREO_COUNT>
0

> <PUBCHEM_BOND_UDEF_STEREO_COUNT>
0

> <PUBCHEM_ISOTOPIC_ATOM_COUNT>
0

> <PUBCHEM_COMPONENT_COUNT>
1

> <PUBCHEM_CACTVS_TAUTO_COUNT>
3

> <PUBCHEM_CONFORMER_ID>
006D321300000001

> <PUBCHEM_MMFF94_ENERGY>
106.738

> <PUBCHEM_FEATURE_SELFOVERLAP>
62.53

> <PUBCHEM_SHAPE_FINGERPRINT>
10254770 206 18339644567913163579
10290309 65 18119814599470922143
10462674 296 17624124302342054398
11524674 6 18336548205740325213
12202916 173 18131349709608114271
12712778 12 18409737269745722615
14444916 359 18195262035423527561
14659021 117 18340761624354963623
14674994 50 18410020943713988427
14844126 61 18336270123771733547
14856354 85 18341896294564458956
15183329 4 12035738596130921020
15320294 125 18113907052296453815
15803439 3 17753576137245475365
16993438 75 18343295976971687470
18603816 31 18260261958463739688
19301676 85 18194959880370132903
19611394 137 18273213119493041352
20771845 38 18339369552946269467
20775530 9 17619085253530920471
21133410 52 16327093248581756180
229767 44 18338531789151969979
23516275 137 17685239186838682594
3383291 50 18410859863319258707
397830 11 18339634647007994112
4017518 198 18336541608839149703
4073 2 18342172238297706566
437795 96 18343311353150136734
4616759 239 18130496471357501352
484985 159 18335131025462071335
49967989 163 18339374036733935550
5080951 261 18041268907518420108
5265222 85 18192425282317943593
57527295 17 17841125790391313869
6441014 3 17976821205197973890
68570916 9 18260268590685107004

> <PUBCHEM_SHAPE_MULTIPOLES>
692.48
19.06
7.94
1.67
61.01
15.72
0.01
-0.24
-5.65
-16.47
-0.01
-0.69
-0.15
1.17

> <PUBCHEM_SHAPE_SELFOVERLAP>
1512.733

> <PUBCHEM_SHAPE_VOLUME>
364.3

> <PUBCHEM_COORDINATE_TYPE>
2
5
10

$$$$
