11882485
  -OEChem-12032416123D

 67 69  0     1  0  0  0  0  0999 V2000
   -2.9165    3.6579   -0.4195 S   0  0  0  0  0  0  0  0  0  0  0  0
   -4.5950    1.9494    1.2573 S   0  0  0  0  0  0  0  0  0  0  0  0
   -0.6110   -0.6161   -1.3594 O   0  0  0  0  0  0  0  0  0  0  0  0
    2.8074   -1.4588    0.8920 O   0  0  0  0  0  0  0  0  0  0  0  0
   -2.6139    3.7997   -1.8304 O   0  0  0  0  0  0  0  0  0  0  0  0
   -3.6555    4.6774    0.2993 O   0  0  0  0  0  0  0  0  0  0  0  0
    1.2353   -4.0957   -0.8527 O   0  0  0  0  0  0  0  0  0  0  0  0
    1.6314    0.4059    0.1422 N   0  0  0  0  0  0  0  0  0  0  0  0
   -1.4780    3.3104    0.4386 N   0  0  0  0  0  0  0  0  0  0  0  0
   -0.4295   -2.2390    0.2996 N   0  0  0  0  0  0  0  0  0  0  0  0
    5.2690   -0.1854    0.0477 N   0  0  0  0  0  0  0  0  0  0  0  0
    6.2920    0.6822   -0.0358 N   0  0  0  0  0  0  0  0  0  0  0  0
   -0.3785   -4.5154   -2.4320 N   0  0  0  0  0  0  0  0  0  0  0  0
   -0.6846    2.1880   -0.0035 C   0  0  2  0  0  0  0  0  0  0  0  0
    0.3602   -0.0199    0.7400 C   0  0  1  0  0  0  0  0  0  0  0  0
   -0.5696    1.1368    1.1030 C   0  0  0  0  0  0  0  0  0  0  0  0
    0.7071    2.6439   -0.4343 C   0  0  0  0  0  0  0  0  0  0  0  0
    1.5631    1.4640   -0.8809 C   0  0  0  0  0  0  0  0  0  0  0  0
   -0.2712   -0.9714   -0.2339 C   0  0  0  0  0  0  0  0  0  0  0  0
    2.8053   -0.2975    0.4842 C   0  0  0  0  0  0  0  0  0  0  0  0
   -1.0333   -3.3327   -0.4268 C   0  0  2  0  0  0  0  0  0  0  0  0
   -1.6933   -4.3560    0.5056 C   0  0  0  0  0  0  0  0  0  0  0  0
    4.0763    0.4032    0.3360 C   0  0  0  0  0  0  0  0  0  0  0  0
   -2.7852   -3.7792    1.4299 C   0  0  0  0  0  0  0  0  0  0  0  0
   -3.9679    2.2110   -0.2992 C   0  0  0  0  0  0  0  0  0  0  0  0
    0.0728   -3.9943   -1.2376 C   0  0  0  0  0  0  0  0  0  0  0  0
    4.3293    1.7448    0.4506 C   0  0  0  0  0  0  0  0  0  0  0  0
   -2.2658   -2.6361    2.3028 C   0  0  0  0  0  0  0  0  0  0  0  0
   -3.9677   -3.2895    0.5893 C   0  0  0  0  0  0  0  0  0  0  0  0
    5.7119    1.8597    0.2113 C   0  0  0  0  0  0  0  0  0  0  0  0
   -4.3540    1.2904   -1.2142 C   0  0  0  0  0  0  0  0  0  0  0  0
    5.5171   -1.5923   -0.1661 C   0  0  0  0  0  0  0  0  0  0  0  0
   -5.2082    0.3134   -0.6262 C   0  0  0  0  0  0  0  0  0  0  0  0
   -5.4220    0.5521    0.7135 C   0  0  0  0  0  0  0  0  0  0  0  0
    6.5225    3.0890    0.2097 C   0  0  0  0  0  0  0  0  0  0  0  0
   -1.1654    1.7226   -0.8702 H   0  0  0  0  0  0  0  0  0  0  0  0
    0.5909   -0.5506    1.6724 H   0  0  0  0  0  0  0  0  0  0  0  0
   -0.1818    1.6229    2.0091 H   0  0  0  0  0  0  0  0  0  0  0  0
   -1.5635    0.7545    1.3631 H   0  0  0  0  0  0  0  0  0  0  0  0
    0.6282    3.3693   -1.2531 H   0  0  0  0  0  0  0  0  0  0  0  0
    1.2032    3.1623    0.3963 H   0  0  0  0  0  0  0  0  0  0  0  0
    1.1222    1.0141   -1.7775 H   0  0  0  0  0  0  0  0  0  0  0  0
    2.5447    1.8001   -1.2130 H   0  0  0  0  0  0  0  0  0  0  0  0
   -1.0065    4.0575    0.9623 H   0  0  0  0  0  0  0  0  0  0  0  0
    0.0511   -2.4657    1.1648 H   0  0  0  0  0  0  0  0  0  0  0  0
   -1.7703   -2.9156   -1.1227 H   0  0  0  0  0  0  0  0  0  0  0  0
   -2.1173   -5.1743   -0.0909 H   0  0  0  0  0  0  0  0  0  0  0  0
   -0.9212   -4.8180    1.1366 H   0  0  0  0  0  0  0  0  0  0  0  0
   -3.1324   -4.5894    2.0832 H   0  0  0  0  0  0  0  0  0  0  0  0
    3.6380    2.5364    0.7007 H   0  0  0  0  0  0  0  0  0  0  0  0
   -2.9699   -2.4815    3.1306 H   0  0  0  0  0  0  0  0  0  0  0  0
   -2.2241   -1.6749    1.7857 H   0  0  0  0  0  0  0  0  0  0  0  0
   -1.3032   -2.8753    2.7647 H   0  0  0  0  0  0  0  0  0  0  0  0
   -4.3424   -4.0867   -0.0613 H   0  0  0  0  0  0  0  0  0  0  0  0
   -3.7042   -2.4321   -0.0371 H   0  0  0  0  0  0  0  0  0  0  0  0
   -4.7924   -2.9786    1.2402 H   0  0  0  0  0  0  0  0  0  0  0  0
   -4.0529    1.2938   -2.2535 H   0  0  0  0  0  0  0  0  0  0  0  0
    4.7808   -1.9786   -0.8751 H   0  0  0  0  0  0  0  0  0  0  0  0
    5.4453   -2.1050    0.7961 H   0  0  0  0  0  0  0  0  0  0  0  0
    6.5202   -1.7240   -0.5813 H   0  0  0  0  0  0  0  0  0  0  0  0
   -1.3470   -4.4443   -2.7271 H   0  0  0  0  0  0  0  0  0  0  0  0
    0.2548   -4.9957   -3.0626 H   0  0  0  0  0  0  0  0  0  0  0  0
   -5.6421   -0.5233   -1.1581 H   0  0  0  0  0  0  0  0  0  0  0  0
   -6.0229   -0.0285    1.3992 H   0  0  0  0  0  0  0  0  0  0  0  0
    7.3051    3.0374    0.9738 H   0  0  0  0  0  0  0  0  0  0  0  0
    7.0010    3.2360   -0.7641 H   0  0  0  0  0  0  0  0  0  0  0  0
    5.9087    3.9715    0.4176 H   0  0  0  0  0  0  0  0  0  0  0  0
  1  5  2  0  0  0  0
  1  6  2  0  0  0  0
  1  9  1  0  0  0  0
  1 25  1  0  0  0  0
  2 25  1  0  0  0  0
  2 34  1  0  0  0  0
  3 19  2  0  0  0  0
  4 20  2  0  0  0  0
  7 26  2  0  0  0  0
  8 15  1  0  0  0  0
  8 18  1  0  0  0  0
  8 20  1  0  0  0  0
  9 14  1  0  0  0  0
  9 44  1  0  0  0  0
 10 19  1  0  0  0  0
 10 21  1  0  0  0  0
 10 45  1  0  0  0  0
 11 12  1  0  0  0  0
 11 23  1  0  0  0  0
 11 32  1  0  0  0  0
 12 30  2  0  0  0  0
 13 26  1  0  0  0  0
 13 61  1  0  0  0  0
 13 62  1  0  0  0  0
 14 16  1  0  0  0  0
 14 17  1  0  0  0  0
 14 36  1  0  0  0  0
 15 16  1  0  0  0  0
 15 19  1  0  0  0  0
 15 37  1  0  0  0  0
 16 38  1  0  0  0  0
 16 39  1  0  0  0  0
 17 18  1  0  0  0  0
 17 40  1  0  0  0  0
 17 41  1  0  0  0  0
 18 42  1  0  0  0  0
 18 43  1  0  0  0  0
 20 23  1  0  0  0  0
 21 22  1  0  0  0  0
 21 26  1  0  0  0  0
 21 46  1  0  0  0  0
 22 24  1  0  0  0  0
 22 47  1  0  0  0  0
 22 48  1  0  0  0  0
 23 27  2  0  0  0  0
 24 28  1  0  0  0  0
 24 29  1  0  0  0  0
 24 49  1  0  0  0  0
 25 31  2  0  0  0  0
 27 30  1  0  0  0  0
 27 50  1  0  0  0  0
 28 51  1  0  0  0  0
 28 52  1  0  0  0  0
 28 53  1  0  0  0  0
 29 54  1  0  0  0  0
 29 55  1  0  0  0  0
 29 56  1  0  0  0  0
 30 35  1  0  0  0  0
 31 33  1  0  0  0  0
 31 57  1  0  0  0  0
 32 58  1  0  0  0  0
 32 59  1  0  0  0  0
 32 60  1  0  0  0  0
 33 34  2  0  0  0  0
 33 63  1  0  0  0  0
 34 64  1  0  0  0  0
 35 65  1  0  0  0  0
 35 66  1  0  0  0  0
 35 67  1  0  0  0  0
M  END
> <PUBCHEM_COMPOUND_CID>
11882485

> <PUBCHEM_CONFORMER_RMSD>
1.2

> <PUBCHEM_CONFORMER_DIVERSEORDER>
1
92
74
19
50
87
27
60
65
75
70
67
37
33
31
26
57
64
58
49
94
32
90
56
98
99
78
93
71
83
84
28
68
34
66
4
81
48
12
52
80
88
77
61
44
73
40
20
23
42
55
63
25
8
47
59
10
97
17
96
76
62
72
35
79
85
3
29
22
46
69
51
86
21
6
89
39
54
43
16
2
41
91
30
9
53
14
18
24
11
15
7
36
82
13
95
45
5
38

> <PUBCHEM_MMFF94_PARTIAL_CHARGES>
37
1 1.5
10 -0.73
11 0.31
12 -0.71
13 -0.8
14 0.36
15 0.36
18 0.3
19 0.57
2 -0.08
20 0.71
21 0.36
23 -0.24
25 -0.02
26 0.57
27 -0.15
3 -0.57
30 0.11
31 -0.15
32 0.26
33 -0.15
34 -0.11
35 0.18
4 -0.57
44 0.42
45 0.37
5 -0.65
50 0.15
57 0.15
6 -0.65
61 0.37
62 0.37
63 0.15
64 0.15
7 -0.57
8 -0.66
9 -0.91

> <PUBCHEM_EFFECTIVE_ROTOR_COUNT>
12.2

> <PUBCHEM_PHARMACOPHORE_FEATURES>
13
1 10 donor
1 12 acceptor
1 13 donor
1 3 acceptor
1 4 acceptor
1 5 acceptor
1 6 acceptor
1 7 acceptor
1 9 donor
3 24 28 29 hydrophobe
5 11 12 23 27 30 rings
5 2 25 31 33 34 rings
6 8 14 15 16 17 18 rings

> <PUBCHEM_HEAVY_ATOM_COUNT>
35

> <PUBCHEM_ATOM_DEF_STEREO_COUNT>
3

> <PUBCHEM_ATOM_UDEF_STEREO_COUNT>
0

> <PUBCHEM_BOND_DEF_STEREO_COUNT>
0

> <PUBCHEM_BOND_UDEF_STEREO_COUNT>
0

> <PUBCHEM_ISOTOPIC_ATOM_COUNT>
0

> <PUBCHEM_COMPONENT_COUNT>
1

> <PUBCHEM_CACTVS_TAUTO_COUNT>
4

> <PUBCHEM_CONFORMER_ID>
00B54FF500000001

> <PUBCHEM_MMFF94_ENERGY>
73.615

> <PUBCHEM_FEATURE_SELFOVERLAP>
65.991

> <PUBCHEM_SHAPE_FINGERPRINT>
10119406 146 18338803304242127950
10462674 296 17406266016068051374
11488393 25 17909551653348423978
12160290 23 17974812272803853998
12788726 201 18189885599456948010
13590594 115 17833550476437524066
14790565 3 18340484478647492308
15131766 46 15287354144510259972
15968369 26 17978785706106144526
20028762 73 18272644619755785639
20764821 26 18122091886100531503
21033648 29 17988353901003629434
21133410 38 18056205675168388801
21133410 90 17416131805460573731
21796203 349 16394118824981621467
23559900 14 17618780263080626537
4409770 3 18339359794269083507
5047190 48 18410018749033179031
5080951 261 18044908364521936472

> <PUBCHEM_SHAPE_MULTIPOLES>
668.75
12.54
6.99
1.43
16.17
3.9
0.17
-8.47
-1.74
-6.52
1.42
-1.28
1.03
1.51

> <PUBCHEM_SHAPE_SELFOVERLAP>
1370.78

> <PUBCHEM_SHAPE_VOLUME>
387.9

> <PUBCHEM_COORDINATE_TYPE>
2
5
10

$$$$
