7135474
  -OEChem-12032416133D

 61 65  0     1  0  0  0  0  0999 V2000
   -8.7188   -1.6152    0.1502 S   0  0  0  0  0  0  0  0  0  0  0  0
    3.7578   -0.7817    1.9585 O   0  0  0  0  0  0  0  0  0  0  0  0
    3.5768    2.7533   -0.8106 O   0  0  0  0  0  0  0  0  0  0  0  0
    4.8356    1.4775   -2.2136 O   0  0  0  0  0  0  0  0  0  0  0  0
    0.9228    1.6393    0.6592 O   0  0  0  0  0  0  0  0  0  0  0  0
   -2.4014   -1.5789   -1.9046 O   0  0  0  0  0  0  0  0  0  0  0  0
    2.0946   -1.0991    0.3655 N   0  0  0  0  0  0  0  0  0  0  0  0
   -0.6876   -1.0127   -0.4577 N   0  0  0  0  0  0  0  0  0  0  0  0
   -1.3368    1.7408    0.4083 N   0  0  0  0  0  0  0  0  0  0  0  0
    5.6493   -0.0826    0.0839 C   0  0  0  0  0  0  0  0  0  0  0  0
    6.7795   -0.1881   -0.9653 C   0  0  0  0  0  0  0  0  0  0  0  0
    6.2829   -0.5615    1.4122 C   0  0  0  0  0  0  0  0  0  0  0  0
    7.8339   -1.0806   -0.3266 C   0  0  0  0  0  0  0  0  0  0  0  0
    7.7766   -0.6811    1.1358 C   0  0  0  0  0  0  0  0  0  0  0  0
    4.4675   -0.9842   -0.2989 C   0  0  0  0  0  0  0  0  0  0  0  0
    5.1577    1.3654    0.2003 C   0  0  0  0  0  0  0  0  0  0  0  0
    3.4172   -0.9426    0.7843 C   0  0  0  0  0  0  0  0  0  0  0  0
    1.0156   -1.0737    1.3563 C   0  0  0  0  0  0  0  0  0  0  0  0
   -0.2788   -0.4483    0.8210 C   0  0  1  0  0  0  0  0  0  0  0  0
    1.7024   -1.2898   -1.0337 C   0  0  0  0  0  0  0  0  0  0  0  0
    4.5416    1.8377   -1.0838 C   0  0  0  0  0  0  0  0  0  0  0  0
    0.2891   -1.8367   -1.1708 C   0  0  0  0  0  0  0  0  0  0  0  0
   -0.1584    1.0505    0.5947 C   0  0  0  0  0  0  0  0  0  0  0  0
   -1.9959   -0.9470   -0.9275 C   0  0  0  0  0  0  0  0  0  0  0  0
   -2.9629   -0.0474   -0.2433 C   0  0  0  0  0  0  0  0  0  0  0  0
   -2.6402    1.2209    0.2661 C   0  0  0  0  0  0  0  0  0  0  0  0
   -4.3109   -0.4493   -0.2880 C   0  0  0  0  0  0  0  0  0  0  0  0
   -3.6810    2.0835    0.6525 C   0  0  0  0  0  0  0  0  0  0  0  0
   -5.3270    0.4013    0.1453 C   0  0  0  0  0  0  0  0  0  0  0  0
   -5.0130    1.6742    0.6029 C   0  0  0  0  0  0  0  0  0  0  0  0
   -6.6964   -0.0275    0.0936 C   0  0  0  0  0  0  0  0  0  0  0  0
   -7.8488    0.7876   -0.1126 C   0  0  0  0  0  0  0  0  0  0  0  0
   -7.0292   -1.3565    0.2514 C   0  0  0  0  0  0  0  0  0  0  0  0
   -9.0135    0.0522   -0.1050 C   0  0  0  0  0  0  0  0  0  0  0  0
    6.4492   -0.6023   -1.9237 H   0  0  0  0  0  0  0  0  0  0  0  0
    7.2333    0.7908   -1.1658 H   0  0  0  0  0  0  0  0  0  0  0  0
    5.9440   -1.5658    1.6953 H   0  0  0  0  0  0  0  0  0  0  0  0
    6.1045    0.1131    2.2565 H   0  0  0  0  0  0  0  0  0  0  0  0
    7.5638   -2.1364   -0.4464 H   0  0  0  0  0  0  0  0  0  0  0  0
    8.8256   -0.9278   -0.7617 H   0  0  0  0  0  0  0  0  0  0  0  0
    8.2663    0.2888    1.2842 H   0  0  0  0  0  0  0  0  0  0  0  0
    8.2635   -1.4122    1.7876 H   0  0  0  0  0  0  0  0  0  0  0  0
    4.7934   -2.0283   -0.3911 H   0  0  0  0  0  0  0  0  0  0  0  0
    4.0746   -0.6962   -1.2739 H   0  0  0  0  0  0  0  0  0  0  0  0
    5.9900    2.0409    0.4339 H   0  0  0  0  0  0  0  0  0  0  0  0
    4.4290    1.4755    1.0111 H   0  0  0  0  0  0  0  0  0  0  0  0
    1.3494   -0.5530    2.2609 H   0  0  0  0  0  0  0  0  0  0  0  0
    0.8337   -2.1190    1.6356 H   0  0  0  0  0  0  0  0  0  0  0  0
   -1.0673   -0.6213    1.5639 H   0  0  0  0  0  0  0  0  0  0  0  0
    2.3983   -1.9810   -1.5194 H   0  0  0  0  0  0  0  0  0  0  0  0
    1.7831   -0.3140   -1.5270 H   0  0  0  0  0  0  0  0  0  0  0  0
    0.0153   -1.9103   -2.2288 H   0  0  0  0  0  0  0  0  0  0  0  0
    0.2236   -2.8460   -0.7462 H   0  0  0  0  0  0  0  0  0  0  0  0
   -1.2660    2.7531    0.4801 H   0  0  0  0  0  0  0  0  0  0  0  0
    3.1465    3.0856   -1.6271 H   0  0  0  0  0  0  0  0  0  0  0  0
   -4.5518   -1.4261   -0.7035 H   0  0  0  0  0  0  0  0  0  0  0  0
   -3.4591    3.0804    1.0294 H   0  0  0  0  0  0  0  0  0  0  0  0
   -5.7781    2.3674    0.9428 H   0  0  0  0  0  0  0  0  0  0  0  0
   -7.8407    1.8594   -0.2678 H   0  0  0  0  0  0  0  0  0  0  0  0
   -6.3870   -2.2064    0.4386 H   0  0  0  0  0  0  0  0  0  0  0  0
  -10.0232    0.4140   -0.2389 H   0  0  0  0  0  0  0  0  0  0  0  0
  1 33  1  0  0  0  0
  1 34  1  0  0  0  0
  2 17  2  0  0  0  0
  3 21  1  0  0  0  0
  3 55  1  0  0  0  0
  4 21  2  0  0  0  0
  5 23  2  0  0  0  0
  6 24  2  0  0  0  0
  7 17  1  0  0  0  0
  7 18  1  0  0  0  0
  7 20  1  0  0  0  0
  8 19  1  0  0  0  0
  8 22  1  0  0  0  0
  8 24  1  0  0  0  0
  9 23  1  0  0  0  0
  9 26  1  0  0  0  0
  9 54  1  0  0  0  0
 10 11  1  0  0  0  0
 10 12  1  0  0  0  0
 10 15  1  0  0  0  0
 10 16  1  0  0  0  0
 11 13  1  0  0  0  0
 11 35  1  0  0  0  0
 11 36  1  0  0  0  0
 12 14  1  0  0  0  0
 12 37  1  0  0  0  0
 12 38  1  0  0  0  0
 13 14  1  0  0  0  0
 13 39  1  0  0  0  0
 13 40  1  0  0  0  0
 14 41  1  0  0  0  0
 14 42  1  0  0  0  0
 15 17  1  0  0  0  0
 15 43  1  0  0  0  0
 15 44  1  0  0  0  0
 16 21  1  0  0  0  0
 16 45  1  0  0  0  0
 16 46  1  0  0  0  0
 18 19  1  0  0  0  0
 18 47  1  0  0  0  0
 18 48  1  0  0  0  0
 19 23  1  0  0  0  0
 19 49  1  0  0  0  0
 20 22  1  0  0  0  0
 20 50  1  0  0  0  0
 20 51  1  0  0  0  0
 22 52  1  0  0  0  0
 22 53  1  0  0  0  0
 24 25  1  0  0  0  0
 25 26  2  0  0  0  0
 25 27  1  0  0  0  0
 26 28  1  0  0  0  0
 27 29  2  0  0  0  0
 27 56  1  0  0  0  0
 28 30  2  0  0  0  0
 28 57  1  0  0  0  0
 29 30  1  0  0  0  0
 29 31  1  0  0  0  0
 30 58  1  0  0  0  0
 31 32  1  0  0  0  0
 31 33  2  0  0  0  0
 32 34  2  0  0  0  0
 32 59  1  0  0  0  0
 33 60  1  0  0  0  0
 34 61  1  0  0  0  0
M  END
> <PUBCHEM_COMPOUND_CID>
7135474

> <PUBCHEM_CONFORMER_RMSD>
1

> <PUBCHEM_CONFORMER_DIVERSEORDER>
1
90
25
91
101
64
65
48
37
85
51
55
80
58
66
57
95
87
62
53
42
52
92
26
18
67
75
88
83
30
49
74
98
61
76
7
6
99
73
60
23
43
10
34
96
82
12
97
35
36
22
15
89
84
56
103
50
44
94
104
72
47
24
4
71
19
9
28
59
81
93
27
40
41
5
70
45
14
17
31
54
102
16
3
39
11
79
8
20
68
69
29
13
38
21
63
2
86
77
46
33
78
32
100

> <PUBCHEM_MMFF94_PARTIAL_CHARGES>
37
1 -0.08
15 0.06
16 0.06
17 0.57
18 0.3
19 0.36
2 -0.57
20 0.3
21 0.66
22 0.3
23 0.57
24 0.54
25 0.09
26 0.12
27 -0.15
28 -0.15
29 0.05
3 -0.65
30 -0.15
31 -0.05
32 -0.15
33 -0.11
34 -0.11
4 -0.57
5 -0.57
54 0.37
55 0.5
56 0.15
57 0.15
58 0.15
59 0.15
6 -0.57
60 0.15
61 0.15
7 -0.66
8 -0.66
9 -0.55

> <PUBCHEM_EFFECTIVE_ROTOR_COUNT>
8

> <PUBCHEM_PHARMACOPHORE_FEATURES>
12
1 2 acceptor
1 3 acceptor
1 4 acceptor
1 5 acceptor
1 6 acceptor
1 9 donor
3 3 4 21 anion
5 1 31 32 33 34 rings
5 10 11 12 13 14 rings
6 25 26 27 28 29 30 rings
6 7 8 18 19 20 22 rings
7 8 9 19 23 24 25 26 rings

> <PUBCHEM_HEAVY_ATOM_COUNT>
34

> <PUBCHEM_ATOM_DEF_STEREO_COUNT>
1

> <PUBCHEM_ATOM_UDEF_STEREO_COUNT>
0

> <PUBCHEM_BOND_DEF_STEREO_COUNT>
0

> <PUBCHEM_BOND_UDEF_STEREO_COUNT>
0

> <PUBCHEM_ISOTOPIC_ATOM_COUNT>
0

> <PUBCHEM_COMPONENT_COUNT>
1

> <PUBCHEM_CACTVS_TAUTO_COUNT>
3

> <PUBCHEM_CONFORMER_ID>
006CE0F200000001

> <PUBCHEM_MMFF94_ENERGY>
113.7365

> <PUBCHEM_FEATURE_SELFOVERLAP>
60.984

> <PUBCHEM_SHAPE_FINGERPRINT>
10 15 18201996612916282499
10050765 1 17983581797612224891
10076449 9 17489588961103326275
10162869 55 17967248719595206282
10299344 5 18334575737619425627
11135609 127 13398330422640096458
11135926 11 18201147794261059335
11181472 205 11239730698496934131
11724838 91 18408322177238448386
11796584 16 8358247163995312688
11828532 37 17917430985827686464
12236239 1 18408603652420861216
13617811 41 17918278649343066353
13811026 1 18410015442098609651
14294032 229 18127701426621715568
1454969 45 18342457045963381959
14747281 78 16056030394357996496
14856354 85 18342176696120988111
15131766 46 17244156125817560212
15183329 4 18131639992776992036
15840311 113 18334858350478023188
15849732 13 18202561778871810007
16090146 7 17703523154491342163
18335252 98 18201440250804474231
18608769 82 17846213384762482279
19611394 137 18337962315443958971
20105231 36 18131635586557745679
21033648 29 17130966777633436546
21267235 1 18272088301606447953
21781051 124 18342183314095800875
21792961 116 17346320358310788746
22149856 69 17702960145104198115
23559900 14 16343405285580054050
23569917 315 18271534108791708830
23569943 247 17832992642376520786
249057 3 18413107273428304742
255183 451 18120375350971508034
3009799 131 12757150169377857843
335507 130 18272651255754863215
3383291 50 18060420231374646039
34797466 226 16917351458806204256
350125 39 18201999937336708913
4325135 7 18408323272222967673
4625314 4 18186801375168311847
6081469 158 15936406724189154950

> <PUBCHEM_SHAPE_MULTIPOLES>
659.26
25.57
2.07
1.33
17.42
0.84
0.16
-3.82
-1.21
0.13
0.34
-1.93
-0.13
-1.49

> <PUBCHEM_SHAPE_SELFOVERLAP>
1431.458

> <PUBCHEM_SHAPE_VOLUME>
359.9

> <PUBCHEM_COORDINATE_TYPE>
2
5
10

$$$$
