45784228
  -OEChem-12032416203D

 43 46  0     1  0  0  0  0  0999 V2000
    8.4412   -0.4899   -0.0809 F   0  0  0  0  0  0  0  0  0  0  0  0
   -7.8874    1.0185    0.8631 O   0  0  0  0  0  0  0  0  0  0  0  0
   -8.0586   -1.1726    0.2829 O   0  0  0  0  0  0  0  0  0  0  0  0
   -0.9745   -0.2511   -0.2363 N   0  0  1  0  0  0  0  0  0  0  0  0
    3.6572   -1.3002    0.4014 N   0  0  0  0  0  0  0  0  0  0  0  0
    3.1099    0.8174    0.0061 N   0  0  0  0  0  0  0  0  0  0  0  0
    1.2028   -0.7782    0.4575 C   0  0  1  0  0  0  0  0  0  0  0  0
    0.4653   -0.0433    1.5904 C   0  0  0  0  0  0  0  0  0  0  0  0
    0.3539   -0.5148   -0.7936 C   0  0  0  0  0  0  0  0  0  0  0  0
   -0.7338    0.6135    0.9190 C   0  0  0  0  0  0  0  0  0  0  0  0
    2.6507   -0.3828    0.2810 C   0  0  0  0  0  0  0  0  0  0  0  0
   -1.8728    0.3575   -1.2063 C   0  0  0  0  0  0  0  0  0  0  0  0
   -3.3150    0.2265   -0.7941 C   0  0  0  0  0  0  0  0  0  0  0  0
    4.8450   -0.6485    0.1898 C   0  0  0  0  0  0  0  0  0  0  0  0
    4.4768    0.6715   -0.0548 C   0  0  0  0  0  0  0  0  0  0  0  0
   -3.9739   -0.9941   -0.9417 C   0  0  0  0  0  0  0  0  0  0  0  0
   -3.9920    1.3253   -0.2651 C   0  0  0  0  0  0  0  0  0  0  0  0
    6.1696   -1.0871    0.1913 C   0  0  0  0  0  0  0  0  0  0  0  0
    5.4761    1.6243   -0.3151 C   0  0  0  0  0  0  0  0  0  0  0  0
   -5.3099   -1.1157   -0.5600 C   0  0  0  0  0  0  0  0  0  0  0  0
   -5.3281    1.2035    0.1165 C   0  0  0  0  0  0  0  0  0  0  0  0
    7.1513   -0.1255   -0.0697 C   0  0  0  0  0  0  0  0  0  0  0  0
    6.8129    1.2067   -0.3186 C   0  0  0  0  0  0  0  0  0  0  0  0
   -5.9871   -0.0171   -0.0308 C   0  0  0  0  0  0  0  0  0  0  0  0
   -7.3798   -0.1437    0.3681 C   0  0  0  0  0  0  0  0  0  0  0  0
    1.1606   -1.8538    0.6832 H   0  0  0  0  0  0  0  0  0  0  0  0
    0.1265   -0.7726    2.3369 H   0  0  0  0  0  0  0  0  0  0  0  0
    1.0872    0.6957    2.1067 H   0  0  0  0  0  0  0  0  0  0  0  0
    0.3491   -1.3839   -1.4605 H   0  0  0  0  0  0  0  0  0  0  0  0
    0.7299    0.3491   -1.3578 H   0  0  0  0  0  0  0  0  0  0  0  0
   -1.5897    0.6558    1.5998 H   0  0  0  0  0  0  0  0  0  0  0  0
   -0.4725    1.6365    0.6188 H   0  0  0  0  0  0  0  0  0  0  0  0
   -1.6152    1.4062   -1.4077 H   0  0  0  0  0  0  0  0  0  0  0  0
   -1.7740   -0.1520   -2.1754 H   0  0  0  0  0  0  0  0  0  0  0  0
    3.5492   -2.2841    0.6091 H   0  0  0  0  0  0  0  0  0  0  0  0
   -3.4571   -1.8574   -1.3526 H   0  0  0  0  0  0  0  0  0  0  0  0
   -3.4892    2.2811   -0.1438 H   0  0  0  0  0  0  0  0  0  0  0  0
    6.4300   -2.1214    0.3848 H   0  0  0  0  0  0  0  0  0  0  0  0
    5.2235    2.6618   -0.5096 H   0  0  0  0  0  0  0  0  0  0  0  0
   -5.8054   -2.0753   -0.6828 H   0  0  0  0  0  0  0  0  0  0  0  0
   -5.8168    2.0839    0.5242 H   0  0  0  0  0  0  0  0  0  0  0  0
    7.5984    1.9309   -0.5182 H   0  0  0  0  0  0  0  0  0  0  0  0
   -8.8267    0.9224    1.1291 H   0  0  0  0  0  0  0  0  0  0  0  0
  1 22  1  0  0  0  0
  2 25  1  0  0  0  0
  2 43  1  0  0  0  0
  3 25  2  0  0  0  0
  4  9  1  0  0  0  0
  4 10  1  0  0  0  0
  4 12  1  0  0  0  0
  5 11  1  0  0  0  0
  5 14  1  0  0  0  0
  5 35  1  0  0  0  0
  6 11  2  0  0  0  0
  6 15  1  0  0  0  0
  7  8  1  0  0  0  0
  7  9  1  0  0  0  0
  7 11  1  0  0  0  0
  7 26  1  0  0  0  0
  8 10  1  0  0  0  0
  8 27  1  0  0  0  0
  8 28  1  0  0  0  0
  9 29  1  0  0  0  0
  9 30  1  0  0  0  0
 10 31  1  0  0  0  0
 10 32  1  0  0  0  0
 12 13  1  0  0  0  0
 12 33  1  0  0  0  0
 12 34  1  0  0  0  0
 13 16  2  0  0  0  0
 13 17  1  0  0  0  0
 14 15  2  0  0  0  0
 14 18  1  0  0  0  0
 15 19  1  0  0  0  0
 16 20  1  0  0  0  0
 16 36  1  0  0  0  0
 17 21  2  0  0  0  0
 17 37  1  0  0  0  0
 18 22  2  0  0  0  0
 18 38  1  0  0  0  0
 19 23  2  0  0  0  0
 19 39  1  0  0  0  0
 20 24  2  0  0  0  0
 20 40  1  0  0  0  0
 21 24  1  0  0  0  0
 21 41  1  0  0  0  0
 22 23  1  0  0  0  0
 23 42  1  0  0  0  0
 24 25  1  0  0  0  0
M  END
> <PUBCHEM_COMPOUND_CID>
45784228

> <PUBCHEM_CONFORMER_RMSD>
0.8

> <PUBCHEM_CONFORMER_DIVERSEORDER>
1
39
11
48
43
41
31
27
23
40
37
44
38
36
21
30
32
19
46
12
15
25
47
33
49
34
4
50
45
42
20
24
9
29
6
10
18
14
26
3
8
17
28
5
2
35
7
13
22
16

> <PUBCHEM_MMFF94_PARTIAL_CHARGES>
33
1 -0.19
10 0.27
11 0.01
12 0.41
13 -0.14
14 -0.15
15 0.23
16 -0.15
17 -0.15
18 -0.15
19 -0.15
2 -0.65
20 -0.15
21 -0.15
22 0.19
23 -0.15
24 0.09
25 0.63
3 -0.57
35 0.27
36 0.15
37 0.15
38 0.15
39 0.15
4 -0.81
40 0.15
41 0.15
42 0.15
43 0.5
5 0.03
6 -0.57
7 0.18
9 0.27

> <PUBCHEM_EFFECTIVE_ROTOR_COUNT>
5

> <PUBCHEM_PHARMACOPHORE_FEATURES>
10
1 2 acceptor
1 3 acceptor
1 4 cation
1 5 donor
3 2 3 25 anion
3 5 6 11 cation
5 4 7 8 9 10 rings
5 5 6 11 14 15 rings
6 13 16 17 20 21 24 rings
6 14 15 18 19 22 23 rings

> <PUBCHEM_HEAVY_ATOM_COUNT>
25

> <PUBCHEM_ATOM_DEF_STEREO_COUNT>
1

> <PUBCHEM_ATOM_UDEF_STEREO_COUNT>
0

> <PUBCHEM_BOND_DEF_STEREO_COUNT>
0

> <PUBCHEM_BOND_UDEF_STEREO_COUNT>
0

> <PUBCHEM_ISOTOPIC_ATOM_COUNT>
0

> <PUBCHEM_COMPONENT_COUNT>
1

> <PUBCHEM_CACTVS_TAUTO_COUNT>
2

> <PUBCHEM_CONFORMER_ID>
02BA9CA400000001

> <PUBCHEM_MMFF94_ENERGY>
55.213

> <PUBCHEM_FEATURE_SELFOVERLAP>
50.911

> <PUBCHEM_SHAPE_FINGERPRINT>
10 15 18343304760859613495
10299344 5 18342174475284960871
10595046 47 18336262362238263168
106641 1 13984665871586672052
11315181 36 18335421267078955833
11524674 6 16056596586653004079
11646440 116 16805325487453557460
12166972 35 18260267456397165396
12236239 1 18272367573233189612
12516196 113 16153425047555322573
12730499 353 17749387045104164906
13533116 47 16951115185168674194
14123256 10 16805322189002679875
14251752 14 17775846809221146392
14251764 18 18202281416349716151
14251764 46 16081368553530201219
14849402 71 18261398913306218277
14856354 85 17989489649876869911
14933364 13 18411136930820662661
15183329 4 18343013385197360604
15461852 350 12973892515731453569
15537594 2 16415474943848501822
15716309 27 18408039607045207063
15849732 13 11602542026528832210
18006028 8 11743840265735328026
18335252 98 18410578379040606251
19489759 90 10665225939225005143
20157964 124 18333450946257224322
21033648 29 17823415071727848176
21095086 128 18407758144816449563
21150785 3 12685094786836611095
21267235 1 18411420604899776108
21315763 28 18335420153780391620
21521721 280 18259987097441259226
21792961 116 17632295623017520245
22224240 67 16732701661964398819
23035841 295 18272368676823636647
23516275 137 18128274323577430443
23536379 177 18412260623456979036
23569943 247 17025704859490305202
2747138 104 16950289511480797621
28498 318 12031794656047091304
29717793 49 17917715695848467300
34797466 226 18341618122490782588
3545911 37 17822008709976171158
4073 2 18113903809617465410
4325135 7 18334575746040529085
5283156 175 17489872614308950550
5385378 56 15769507447746924255
5758199 1 18040716969602565994
59682541 35 16443069425699153717
59755656 215 14117806803603217613
59755656 520 18114175363014175458

> <PUBCHEM_SHAPE_MULTIPOLES>
480.53
24.87
1.32
0.97
3.01
0.17
-0.08
0.27
-0.88
-0.21
0.04
0.56
0
-0.74

> <PUBCHEM_SHAPE_SELFOVERLAP>
1058.964

> <PUBCHEM_SHAPE_VOLUME>
262.1

> <PUBCHEM_COORDINATE_TYPE>
2
5
10

$$$$
