7155440
  -OEChem-12032416233D

 54 58  0     1  0  0  0  0  0999 V2000
    1.2171   -1.8689    1.4107 S   0  0  0  0  0  0  0  0  0  0  0  0
    5.9195    1.8961   -0.7171 F   0  0  0  0  0  0  0  0  0  0  0  0
    3.8672    2.5753   -0.5415 F   0  0  0  0  0  0  0  0  0  0  0  0
    5.0162    2.1214    1.2481 F   0  0  0  0  0  0  0  0  0  0  0  0
    1.2943   -3.2858    1.6976 O   0  0  0  0  0  0  0  0  0  0  0  0
    0.9915   -0.9063    2.4684 O   0  0  0  0  0  0  0  0  0  0  0  0
   -4.6687   -2.9922    0.5773 O   0  0  0  0  0  0  0  0  0  0  0  0
    0.0697   -1.6106    0.1683 N   0  0  2  0  0  0  0  0  0  0  0  0
   -3.0422   -1.5606   -0.3124 N   0  0  0  0  0  0  0  0  0  0  0  0
   -1.1686   -2.4344   -1.8294 C   0  0  1  0  0  0  0  0  0  0  0  0
   -1.2599   -0.0520   -1.2443 C   0  0  2  0  0  0  0  0  0  0  0  0
   -1.1860   -1.0314   -2.4132 C   0  0  0  0  0  0  0  0  0  0  0  0
    0.0511   -2.6317   -0.9161 C   0  0  0  0  0  0  0  0  0  0  0  0
   -0.0095   -0.2169   -0.3584 C   0  0  0  0  0  0  0  0  0  0  0  0
   -2.4886   -2.6744   -1.0950 C   0  0  0  0  0  0  0  0  0  0  0  0
   -2.5369   -0.2498   -0.4226 C   0  0  0  0  0  0  0  0  0  0  0  0
   -3.1711    0.7744    0.2055 C   0  0  0  0  0  0  0  0  0  0  0  0
   -4.1773   -1.8693    0.4583 C   0  0  0  0  0  0  0  0  0  0  0  0
   -4.3427    0.4933    1.0134 C   0  0  0  0  0  0  0  0  0  0  0  0
    2.6976   -1.4090    0.5654 C   0  0  0  0  0  0  0  0  0  0  0  0
   -4.8275   -0.7394    1.1599 C   0  0  0  0  0  0  0  0  0  0  0  0
   -2.6903    2.1696    0.1025 C   0  0  0  0  0  0  0  0  0  0  0  0
    3.1222   -0.0915    0.6101 C   0  0  0  0  0  0  0  0  0  0  0  0
    3.4088   -2.3739   -0.1284 C   0  0  0  0  0  0  0  0  0  0  0  0
   -1.7593    2.6490    1.0190 C   0  0  0  0  0  0  0  0  0  0  0  0
   -3.1717    2.9933   -0.9106 C   0  0  0  0  0  0  0  0  0  0  0  0
    4.2915    0.2715   -0.0583 C   0  0  0  0  0  0  0  0  0  0  0  0
    4.5781   -2.0108   -0.7968 C   0  0  0  0  0  0  0  0  0  0  0  0
   -1.3053    3.9644    0.9217 C   0  0  0  0  0  0  0  0  0  0  0  0
   -2.7178    4.3086   -1.0081 C   0  0  0  0  0  0  0  0  0  0  0  0
    5.0195   -0.6882   -0.7616 C   0  0  0  0  0  0  0  0  0  0  0  0
   -1.7846    4.7942   -0.0919 C   0  0  0  0  0  0  0  0  0  0  0  0
    4.7635    1.6860   -0.0205 C   0  0  0  0  0  0  0  0  0  0  0  0
   -1.0906   -3.1668   -2.6428 H   0  0  0  0  0  0  0  0  0  0  0  0
   -1.2368    0.9537   -1.6790 H   0  0  0  0  0  0  0  0  0  0  0  0
   -2.0431   -0.9004   -3.0857 H   0  0  0  0  0  0  0  0  0  0  0  0
   -0.2819   -0.8526   -3.0080 H   0  0  0  0  0  0  0  0  0  0  0  0
    0.0124   -3.6374   -0.4847 H   0  0  0  0  0  0  0  0  0  0  0  0
    0.9614   -2.5518   -1.5196 H   0  0  0  0  0  0  0  0  0  0  0  0
    0.8729    0.0065   -0.9676 H   0  0  0  0  0  0  0  0  0  0  0  0
   -0.0382    0.4901    0.4742 H   0  0  0  0  0  0  0  0  0  0  0  0
   -3.2595   -2.9214   -1.8383 H   0  0  0  0  0  0  0  0  0  0  0  0
   -2.4095   -3.5545   -0.4441 H   0  0  0  0  0  0  0  0  0  0  0  0
   -4.8274    1.3218    1.5217 H   0  0  0  0  0  0  0  0  0  0  0  0
   -5.7003   -0.9408    1.7694 H   0  0  0  0  0  0  0  0  0  0  0  0
    2.5628    0.6650    1.1530 H   0  0  0  0  0  0  0  0  0  0  0  0
    3.0810   -3.4080   -0.1712 H   0  0  0  0  0  0  0  0  0  0  0  0
   -1.3823    2.0176    1.8196 H   0  0  0  0  0  0  0  0  0  0  0  0
   -3.8984    2.6283   -1.6320 H   0  0  0  0  0  0  0  0  0  0  0  0
    5.1443   -2.7580   -1.3453 H   0  0  0  0  0  0  0  0  0  0  0  0
   -0.5800    4.3428    1.6359 H   0  0  0  0  0  0  0  0  0  0  0  0
   -3.0907    4.9548   -1.7974 H   0  0  0  0  0  0  0  0  0  0  0  0
    5.9323   -0.4248   -1.2885 H   0  0  0  0  0  0  0  0  0  0  0  0
   -1.4314    5.8184   -0.1677 H   0  0  0  0  0  0  0  0  0  0  0  0
  1  5  2  0  0  0  0
  1  6  2  0  0  0  0
  1  8  1  0  0  0  0
  1 20  1  0  0  0  0
  2 33  1  0  0  0  0
  3 33  1  0  0  0  0
  4 33  1  0  0  0  0
  7 18  2  0  0  0  0
  8 13  1  0  0  0  0
  8 14  1  0  0  0  0
  9 15  1  0  0  0  0
  9 16  1  0  0  0  0
  9 18  1  0  0  0  0
 10 12  1  0  0  0  0
 10 13  1  0  0  0  0
 10 15  1  0  0  0  0
 10 34  1  0  0  0  0
 11 12  1  0  0  0  0
 11 14  1  0  0  0  0
 11 16  1  0  0  0  0
 11 35  1  0  0  0  0
 12 36  1  0  0  0  0
 12 37  1  0  0  0  0
 13 38  1  0  0  0  0
 13 39  1  0  0  0  0
 14 40  1  0  0  0  0
 14 41  1  0  0  0  0
 15 42  1  0  0  0  0
 15 43  1  0  0  0  0
 16 17  2  0  0  0  0
 17 19  1  0  0  0  0
 17 22  1  0  0  0  0
 18 21  1  0  0  0  0
 19 21  2  0  0  0  0
 19 44  1  0  0  0  0
 20 23  1  0  0  0  0
 20 24  2  0  0  0  0
 21 45  1  0  0  0  0
 22 25  2  0  0  0  0
 22 26  1  0  0  0  0
 23 27  2  0  0  0  0
 23 46  1  0  0  0  0
 24 28  1  0  0  0  0
 24 47  1  0  0  0  0
 25 29  1  0  0  0  0
 25 48  1  0  0  0  0
 26 30  2  0  0  0  0
 26 49  1  0  0  0  0
 27 31  1  0  0  0  0
 27 33  1  0  0  0  0
 28 31  2  0  0  0  0
 28 50  1  0  0  0  0
 29 32  2  0  0  0  0
 29 51  1  0  0  0  0
 30 32  1  0  0  0  0
 30 52  1  0  0  0  0
 31 53  1  0  0  0  0
 32 54  1  0  0  0  0
M  END
> <PUBCHEM_COMPOUND_CID>
7155440

> <PUBCHEM_CONFORMER_RMSD>
0.8

> <PUBCHEM_CONFORMER_DIVERSEORDER>
1
7
8
5
12
9
4
14
13
6
2
3
10
11

> <PUBCHEM_MMFF94_PARTIAL_CHARGES>
42
1 1.45
11 0.14
13 0.36
14 0.36
15 0.3
16 -0.03
17 -0.03
18 0.62
19 -0.15
2 -0.34
20 -0.01
21 -0.14
22 0.03
23 -0.15
24 -0.15
25 -0.15
26 -0.15
27 -0.14
28 -0.15
29 -0.15
3 -0.34
30 -0.15
31 -0.15
32 -0.15
33 1.16
4 -0.34
44 0.15
45 0.15
46 0.15
47 0.15
48 0.15
49 0.15
5 -0.65
50 0.15
51 0.15
52 0.15
53 0.15
54 0.15
6 -0.65
7 -0.57
8 -0.85
9 -0.47

> <PUBCHEM_EFFECTIVE_ROTOR_COUNT>
5

> <PUBCHEM_PHARMACOPHORE_FEATURES>
8
1 5 acceptor
1 6 acceptor
1 7 acceptor
6 20 23 24 27 28 31 rings
6 22 25 26 29 30 32 rings
6 8 10 11 12 13 14 rings
6 9 10 11 12 15 16 rings
6 9 16 17 18 19 21 rings

> <PUBCHEM_HEAVY_ATOM_COUNT>
33

> <PUBCHEM_ATOM_DEF_STEREO_COUNT>
2

> <PUBCHEM_ATOM_UDEF_STEREO_COUNT>
0

> <PUBCHEM_BOND_DEF_STEREO_COUNT>
0

> <PUBCHEM_BOND_UDEF_STEREO_COUNT>
0

> <PUBCHEM_ISOTOPIC_ATOM_COUNT>
0

> <PUBCHEM_COMPONENT_COUNT>
1

> <PUBCHEM_CACTVS_TAUTO_COUNT>
1

> <PUBCHEM_CONFORMER_ID>
006D2EF000000001

> <PUBCHEM_MMFF94_ENERGY>
77.3185

> <PUBCHEM_FEATURE_SELFOVERLAP>
42.199

> <PUBCHEM_SHAPE_FINGERPRINT>
10670039 82 18411704318272074428
10842077 115 18051375588627264616
11578080 2 17168689831332619239
12107698 1 18335986354844792682
12156800 1 15476538326639816603
12160290 23 17128979938114686551
12633257 1 17178552265797571827
12788726 201 18335412517270433010
12925494 130 18193837029204027533
12978246 48 18340484465841835216
13583140 156 17826233986800510347
13617811 41 17911495886391341199
13761468 95 17987817206386059624
14251751 93 18340770321436780624
14279260 333 18264209102893910666
14787075 74 18115589408013185307
14840074 17 18339935878343298497
14950920 106 17749946661551158666
15082195 135 17838313208912155101
15538507 32 17832717034209110916
15575132 122 18410013208826431069
17844677 252 18337961082339743534
17921350 177 17179115211561429852
19315092 285 17096903915023881635
19930381 70 16755773011019030622
20587220 46 14751613942337207285
21864079 5 18338784616469664142
22907989 373 18199451213243013829
23559900 14 17477762382281209359
392239 28 18261399978494037107
4098825 35 18342468054102244558
46194498 28 17987815055139896166
469060 322 17022620870923372508
5109719 28 17257095866407988521

> <PUBCHEM_SHAPE_MULTIPOLES>
633.58
10.7
5.46
1.63
10.76
5.1
0
2.72
0.62
-3.76
-0.33
-0.25
-0.74
0.24

> <PUBCHEM_SHAPE_SELFOVERLAP>
1387.025

> <PUBCHEM_SHAPE_VOLUME>
345.7

> <PUBCHEM_COORDINATE_TYPE>
2
5
10

$$$$
