7674751
  -OEChem-12032416223D

 55 59  0     1  0  0  0  0  0999 V2000
    3.8194    5.1128   -0.9926 F   0  0  0  0  0  0  0  0  0  0  0  0
   -6.3551    0.2793    1.6978 F   0  0  0  0  0  0  0  0  0  0  0  0
   -8.2439    0.8050    0.7325 F   0  0  0  0  0  0  0  0  0  0  0  0
   -6.7629    2.3685    1.1038 F   0  0  0  0  0  0  0  0  0  0  0  0
   -1.1055   -2.0959    1.2324 O   0  0  0  0  0  0  0  0  0  0  0  0
   -6.3699    0.8128   -0.5260 O   0  0  0  0  0  0  0  0  0  0  0  0
    3.7504   -0.8811    0.9300 N   0  0  2  0  0  0  0  0  0  0  0  0
    0.9332   -2.1259    0.1009 N   0  0  0  0  0  0  0  0  0  0  0  0
    3.0212   -3.2774    1.0408 C   0  0  1  0  0  0  0  0  0  0  0  0
    3.1288   -2.1505   -1.1303 C   0  0  2  0  0  0  0  0  0  0  0  0
    3.3891   -3.4778   -0.4233 C   0  0  0  0  0  0  0  0  0  0  0  0
    3.8817   -2.1519    1.6533 C   0  0  0  0  0  0  0  0  0  0  0  0
    4.0172   -1.0502   -0.5063 C   0  0  0  0  0  0  0  0  0  0  0  0
    1.5172   -2.9888    1.1379 C   0  0  0  0  0  0  0  0  0  0  0  0
    1.6638   -1.7671   -1.0344 C   0  0  0  0  0  0  0  0  0  0  0  0
    4.6191    0.1423    1.5065 C   0  0  0  0  0  0  0  0  0  0  0  0
    1.0763   -1.0729   -2.0218 C   0  0  0  0  0  0  0  0  0  0  0  0
   -0.4202   -1.7696    0.2616 C   0  0  0  0  0  0  0  0  0  0  0  0
   -1.0417   -0.9618   -0.8460 C   0  0  0  0  0  0  0  0  0  0  0  0
   -0.2951   -0.6612   -1.9192 C   0  0  0  0  0  0  0  0  0  0  0  0
    4.4057    1.4728    0.8378 C   0  0  0  0  0  0  0  0  0  0  0  0
   -2.4376   -0.4974   -0.7618 C   0  0  0  0  0  0  0  0  0  0  0  0
    5.1631    1.8085   -0.2762 C   0  0  0  0  0  0  0  0  0  0  0  0
    3.4534    2.3476    1.3435 C   0  0  0  0  0  0  0  0  0  0  0  0
   -3.4695   -1.2913   -1.2634 C   0  0  0  0  0  0  0  0  0  0  0  0
   -2.7286    0.7374   -0.1807 C   0  0  0  0  0  0  0  0  0  0  0  0
    4.9646    3.0421   -0.8963 C   0  0  0  0  0  0  0  0  0  0  0  0
    3.2549    3.5812    0.7233 C   0  0  0  0  0  0  0  0  0  0  0  0
    4.0104    3.9284   -0.3965 C   0  0  0  0  0  0  0  0  0  0  0  0
   -4.7907   -0.8510   -1.1841 C   0  0  0  0  0  0  0  0  0  0  0  0
   -4.0498    1.1776   -0.1013 C   0  0  0  0  0  0  0  0  0  0  0  0
   -5.0808    0.3834   -0.6031 C   0  0  0  0  0  0  0  0  0  0  0  0
   -6.9183    1.0721    0.7615 C   0  0  0  0  0  0  0  0  0  0  0  0
    3.2326   -4.1967    1.6010 H   0  0  0  0  0  0  0  0  0  0  0  0
    3.4116   -2.2662   -2.1851 H   0  0  0  0  0  0  0  0  0  0  0  0
    2.7942   -4.2850   -0.8686 H   0  0  0  0  0  0  0  0  0  0  0  0
    4.4436   -3.7639   -0.5190 H   0  0  0  0  0  0  0  0  0  0  0  0
    3.5817   -2.0108    2.6992 H   0  0  0  0  0  0  0  0  0  0  0  0
    4.9310   -2.4772    1.6627 H   0  0  0  0  0  0  0  0  0  0  0  0
    5.0722   -1.3020   -0.6804 H   0  0  0  0  0  0  0  0  0  0  0  0
    3.7916   -0.1395   -1.0688 H   0  0  0  0  0  0  0  0  0  0  0  0
    0.9740   -3.9415    1.0689 H   0  0  0  0  0  0  0  0  0  0  0  0
    1.2673   -2.5707    2.1211 H   0  0  0  0  0  0  0  0  0  0  0  0
    5.6782   -0.1427    1.4379 H   0  0  0  0  0  0  0  0  0  0  0  0
    4.4094    0.2527    2.5789 H   0  0  0  0  0  0  0  0  0  0  0  0
    1.6226   -0.7761   -2.9109 H   0  0  0  0  0  0  0  0  0  0  0  0
   -0.6942   -0.0799   -2.7453 H   0  0  0  0  0  0  0  0  0  0  0  0
    5.9215    1.1365   -0.6683 H   0  0  0  0  0  0  0  0  0  0  0  0
    2.8574    2.0865    2.2135 H   0  0  0  0  0  0  0  0  0  0  0  0
   -3.2595   -2.2564   -1.7183 H   0  0  0  0  0  0  0  0  0  0  0  0
   -1.9356    1.3681    0.2141 H   0  0  0  0  0  0  0  0  0  0  0  0
    5.5549    3.3142   -1.7663 H   0  0  0  0  0  0  0  0  0  0  0  0
    2.5114    4.2710    1.1114 H   0  0  0  0  0  0  0  0  0  0  0  0
   -5.5899   -1.4741   -1.5762 H   0  0  0  0  0  0  0  0  0  0  0  0
   -4.2609    2.1442    0.3477 H   0  0  0  0  0  0  0  0  0  0  0  0
  1 29  1  0  0  0  0
  2 33  1  0  0  0  0
  3 33  1  0  0  0  0
  4 33  1  0  0  0  0
  5 18  2  0  0  0  0
  6 32  1  0  0  0  0
  6 33  1  0  0  0  0
  7 12  1  0  0  0  0
  7 13  1  0  0  0  0
  7 16  1  0  0  0  0
  8 14  1  0  0  0  0
  8 15  1  0  0  0  0
  8 18  1  0  0  0  0
  9 11  1  0  0  0  0
  9 12  1  0  0  0  0
  9 14  1  0  0  0  0
  9 34  1  0  0  0  0
 10 11  1  0  0  0  0
 10 13  1  0  0  0  0
 10 15  1  0  0  0  0
 10 35  1  0  0  0  0
 11 36  1  0  0  0  0
 11 37  1  0  0  0  0
 12 38  1  0  0  0  0
 12 39  1  0  0  0  0
 13 40  1  0  0  0  0
 13 41  1  0  0  0  0
 14 42  1  0  0  0  0
 14 43  1  0  0  0  0
 15 17  2  0  0  0  0
 16 21  1  0  0  0  0
 16 44  1  0  0  0  0
 16 45  1  0  0  0  0
 17 20  1  0  0  0  0
 17 46  1  0  0  0  0
 18 19  1  0  0  0  0
 19 20  2  0  0  0  0
 19 22  1  0  0  0  0
 20 47  1  0  0  0  0
 21 23  2  0  0  0  0
 21 24  1  0  0  0  0
 22 25  2  0  0  0  0
 22 26  1  0  0  0  0
 23 27  1  0  0  0  0
 23 48  1  0  0  0  0
 24 28  2  0  0  0  0
 24 49  1  0  0  0  0
 25 30  1  0  0  0  0
 25 50  1  0  0  0  0
 26 31  2  0  0  0  0
 26 51  1  0  0  0  0
 27 29  2  0  0  0  0
 27 52  1  0  0  0  0
 28 29  1  0  0  0  0
 28 53  1  0  0  0  0
 30 32  2  0  0  0  0
 30 54  1  0  0  0  0
 31 32  1  0  0  0  0
 31 55  1  0  0  0  0
M  END
> <PUBCHEM_COMPOUND_CID>
7674751

> <PUBCHEM_CONFORMER_RMSD>
0.8

> <PUBCHEM_CONFORMER_DIVERSEORDER>
1
18
19
17
14
8
4
12
20
5
7
9
11
10
15
16
13
6
3
2

> <PUBCHEM_MMFF94_PARTIAL_CHARGES>
41
1 -0.19
10 0.14
12 0.27
13 0.27
14 0.3
15 -0.03
16 0.41
17 -0.15
18 0.62
19 -0.01
2 -0.34
20 -0.15
21 -0.14
22 0.03
23 -0.15
24 -0.15
25 -0.15
26 -0.15
27 -0.15
28 -0.15
29 0.19
3 -0.34
30 -0.15
31 -0.15
32 0.08
33 1.3
4 -0.34
46 0.15
47 0.15
48 0.15
49 0.15
5 -0.57
50 0.15
51 0.15
52 0.15
53 0.15
54 0.15
55 0.15
6 -0.36
7 -0.81
8 -0.47

> <PUBCHEM_EFFECTIVE_ROTOR_COUNT>
6

> <PUBCHEM_PHARMACOPHORE_FEATURES>
8
1 5 acceptor
1 6 acceptor
1 7 cation
6 21 23 24 27 28 29 rings
6 22 25 26 30 31 32 rings
6 7 9 10 11 12 13 rings
6 8 15 17 18 19 20 rings
6 8 9 10 11 14 15 rings

> <PUBCHEM_HEAVY_ATOM_COUNT>
33

> <PUBCHEM_ATOM_DEF_STEREO_COUNT>
2

> <PUBCHEM_ATOM_UDEF_STEREO_COUNT>
0

> <PUBCHEM_BOND_DEF_STEREO_COUNT>
0

> <PUBCHEM_BOND_UDEF_STEREO_COUNT>
0

> <PUBCHEM_ISOTOPIC_ATOM_COUNT>
0

> <PUBCHEM_COMPONENT_COUNT>
1

> <PUBCHEM_CACTVS_TAUTO_COUNT>
1

> <PUBCHEM_CONFORMER_ID>
00751B7F00000001

> <PUBCHEM_MMFF94_ENERGY>
97.4577

> <PUBCHEM_FEATURE_SELFOVERLAP>
42.151

> <PUBCHEM_SHAPE_FINGERPRINT>
10165383 225 18040160617763669862
10673678 19 17704070711518785979
10674148 151 18201724011917259076
10675989 125 18200871893941291816
10693767 8 10087643676123682229
10937287 8 17977092780901684084
11227150 75 12351766391396116700
11456790 92 18114454549358243850
11505856 67 17620471745945773582
11578080 2 18263374723100824803
12633257 1 17823671197527912162
13944108 23 18411984654945769028
14251764 75 18192714664308412072
14849402 71 18335416860031086018
151778 21 18190165953769148548
15840311 113 18340207397975849949
21475661 188 18337950199156177766
21641784 216 15482396370063663203
21716022 299 14690911760856706646
21860390 5 18342167840040692622
22122407 14 18342463646769109665
23559900 14 17560802078635319398
23569914 152 10805443255743903649
245318 6 18042969976735124276
3298306 158 18198897196573752080
3411729 13 18342176686860783205
394071 54 18334290972344500861
397830 11 18261401078892121955
3986486 107 18199767984825843156
474 4 18338504344326597430
5104073 3 18408042914518587531
513532 50 13110952120369836210
53794403 172 18335986462583108228
57527585 21 17404290189699133502
5951187 136 18271254901820695444
6086070 43 17755827897851014494
68570916 9 18272364283621057135

> <PUBCHEM_SHAPE_MULTIPOLES>
628.33
16.55
4.97
1.66
34.58
3.7
0.03
13.03
-4.61
-9.64
-0.12
-0.21
-0.39
-2.04

> <PUBCHEM_SHAPE_SELFOVERLAP>
1387.206

> <PUBCHEM_SHAPE_VOLUME>
337

> <PUBCHEM_COORDINATE_TYPE>
2
5
10

$$$$
