51137879
  -OEChem-12032416143D

 43 46  0     1  0  0  0  0  0999 V2000
   -1.8973    1.3289    0.1383 N   0  0  1  0  0  0  0  0  0  0  0  0
    2.2544   -0.6793    0.8975 N   0  0  0  0  0  0  0  0  0  0  0  0
    2.4151    1.1595   -0.3406 N   0  0  0  0  0  0  0  0  0  0  0  0
    0.2610    0.8630    0.9283 C   0  0  1  0  0  0  0  0  0  0  0  0
    0.0052    2.3788    0.9933 C   0  0  0  0  0  0  0  0  0  0  0  0
   -0.8419    0.3220    0.0085 C   0  0  0  0  0  0  0  0  0  0  0  0
   -1.2000    2.6141    0.0921 C   0  0  0  0  0  0  0  0  0  0  0  0
    1.6492    0.4721    0.4767 C   0  0  0  0  0  0  0  0  0  0  0  0
   -2.9092    1.2097   -0.9010 C   0  0  0  0  0  0  0  0  0  0  0  0
    3.4932   -0.7390    0.3126 C   0  0  0  0  0  0  0  0  0  0  0  0
   -3.9255    0.1478   -0.5748 C   0  0  0  0  0  0  0  0  0  0  0  0
    3.5697    0.4198   -0.4551 C   0  0  0  0  0  0  0  0  0  0  0  0
    1.6926   -1.6609    1.7978 C   0  0  0  0  0  0  0  0  0  0  0  0
    4.5221   -1.6785    0.3871 C   0  0  0  0  0  0  0  0  0  0  0  0
    4.7345    0.6727   -1.1993 C   0  0  0  0  0  0  0  0  0  0  0  0
   -3.7179   -1.1675   -0.9901 C   0  0  0  0  0  0  0  0  0  0  0  0
   -5.0747    0.4795    0.1426 C   0  0  0  0  0  0  0  0  0  0  0  0
    5.6740   -1.4109   -0.3601 C   0  0  0  0  0  0  0  0  0  0  0  0
    5.7804   -0.2569   -1.1398 C   0  0  0  0  0  0  0  0  0  0  0  0
   -4.6596   -2.1513   -0.6880 C   0  0  0  0  0  0  0  0  0  0  0  0
   -6.0164   -0.5041    0.4447 C   0  0  0  0  0  0  0  0  0  0  0  0
   -5.8089   -1.8195    0.0294 C   0  0  0  0  0  0  0  0  0  0  0  0
    0.0959    0.4785    1.9442 H   0  0  0  0  0  0  0  0  0  0  0  0
   -0.2408    2.6603    2.0253 H   0  0  0  0  0  0  0  0  0  0  0  0
    0.8583    2.9904    0.6831 H   0  0  0  0  0  0  0  0  0  0  0  0
   -1.1708   -0.6675    0.3418 H   0  0  0  0  0  0  0  0  0  0  0  0
   -0.4814    0.2371   -1.0255 H   0  0  0  0  0  0  0  0  0  0  0  0
   -1.8217    3.4362    0.4606 H   0  0  0  0  0  0  0  0  0  0  0  0
   -0.8636    2.8550   -0.9246 H   0  0  0  0  0  0  0  0  0  0  0  0
   -3.4529    2.1601   -0.9991 H   0  0  0  0  0  0  0  0  0  0  0  0
   -2.4719    1.0320   -1.8931 H   0  0  0  0  0  0  0  0  0  0  0  0
    2.3053   -2.5641    1.8064 H   0  0  0  0  0  0  0  0  0  0  0  0
    0.6882   -1.9210    1.4555 H   0  0  0  0  0  0  0  0  0  0  0  0
    1.6605   -1.2267    2.8002 H   0  0  0  0  0  0  0  0  0  0  0  0
    4.4490   -2.5754    0.9909 H   0  0  0  0  0  0  0  0  0  0  0  0
    4.8268    1.5664   -1.8081 H   0  0  0  0  0  0  0  0  0  0  0  0
   -2.8295   -1.4392   -1.5541 H   0  0  0  0  0  0  0  0  0  0  0  0
   -5.2479    1.4999    0.4742 H   0  0  0  0  0  0  0  0  0  0  0  0
    6.5021   -2.1149   -0.3324 H   0  0  0  0  0  0  0  0  0  0  0  0
    6.6884   -0.0763   -1.7094 H   0  0  0  0  0  0  0  0  0  0  0  0
   -4.4986   -3.1753   -1.0123 H   0  0  0  0  0  0  0  0  0  0  0  0
   -6.9111   -0.2460    1.0038 H   0  0  0  0  0  0  0  0  0  0  0  0
   -6.5423   -2.5853    0.2646 H   0  0  0  0  0  0  0  0  0  0  0  0
  1  6  1  0  0  0  0
  1  7  1  0  0  0  0
  1  9  1  0  0  0  0
  2  8  1  0  0  0  0
  2 10  1  0  0  0  0
  2 13  1  0  0  0  0
  3  8  2  0  0  0  0
  3 12  1  0  0  0  0
  4  5  1  0  0  0  0
  4  6  1  0  0  0  0
  4  8  1  0  0  0  0
  4 23  1  0  0  0  0
  5  7  1  0  0  0  0
  5 24  1  0  0  0  0
  5 25  1  0  0  0  0
  6 26  1  0  0  0  0
  6 27  1  0  0  0  0
  7 28  1  0  0  0  0
  7 29  1  0  0  0  0
  9 11  1  0  0  0  0
  9 30  1  0  0  0  0
  9 31  1  0  0  0  0
 10 12  1  0  0  0  0
 10 14  2  0  0  0  0
 11 16  2  0  0  0  0
 11 17  1  0  0  0  0
 12 15  2  0  0  0  0
 13 32  1  0  0  0  0
 13 33  1  0  0  0  0
 13 34  1  0  0  0  0
 14 18  1  0  0  0  0
 14 35  1  0  0  0  0
 15 19  1  0  0  0  0
 15 36  1  0  0  0  0
 16 20  1  0  0  0  0
 16 37  1  0  0  0  0
 17 21  2  0  0  0  0
 17 38  1  0  0  0  0
 18 19  2  0  0  0  0
 18 39  1  0  0  0  0
 19 40  1  0  0  0  0
 20 22  2  0  0  0  0
 20 41  1  0  0  0  0
 21 22  1  0  0  0  0
 21 42  1  0  0  0  0
 22 43  1  0  0  0  0
M  END
> <PUBCHEM_COMPOUND_CID>
51137879

> <PUBCHEM_CONFORMER_RMSD>
0.6

> <PUBCHEM_CONFORMER_DIVERSEORDER>
2
71
11
73
62
42
52
1
56
13
72
58
22
9
53
54
36
70
60
28
48
7
74
14
45
55
26
49
30
19
50
39
67
32
59
57
69
40
10
33
64
38
23
8
41
15
18
35
3
63
44
20
24
25
27
61
34
21
6
17
16
37
68
31
51
5
47
43
66
12
46
65
4
29

> <PUBCHEM_MMFF94_PARTIAL_CHARGES>
30
1 -0.81
10 -0.15
11 -0.14
12 0.23
13 0.26
14 -0.15
15 -0.15
16 -0.15
17 -0.15
18 -0.15
19 -0.15
2 0.05
20 -0.15
21 -0.15
22 -0.15
3 -0.57
35 0.15
36 0.15
37 0.15
38 0.15
39 0.15
4 0.18
40 0.15
41 0.15
42 0.15
43 0.15
6 0.27
7 0.27
8 0.01
9 0.41

> <PUBCHEM_EFFECTIVE_ROTOR_COUNT>
4

> <PUBCHEM_PHARMACOPHORE_FEATURES>
6
1 1 cation
3 2 3 8 cation
5 1 4 5 6 7 rings
5 2 3 8 10 12 rings
6 10 12 14 15 18 19 rings
6 11 16 17 20 21 22 rings

> <PUBCHEM_HEAVY_ATOM_COUNT>
22

> <PUBCHEM_ATOM_DEF_STEREO_COUNT>
1

> <PUBCHEM_ATOM_UDEF_STEREO_COUNT>
0

> <PUBCHEM_BOND_DEF_STEREO_COUNT>
0

> <PUBCHEM_BOND_UDEF_STEREO_COUNT>
0

> <PUBCHEM_ISOTOPIC_ATOM_COUNT>
0

> <PUBCHEM_COMPONENT_COUNT>
1

> <PUBCHEM_CACTVS_TAUTO_COUNT>
1

> <PUBCHEM_CONFORMER_ID>
030C4D5700000002

> <PUBCHEM_MMFF94_ENERGY>
49.412

> <PUBCHEM_FEATURE_SELFOVERLAP>
30.556

> <PUBCHEM_SHAPE_FINGERPRINT>
10299344 5 18409173212355474307
10595046 47 18334017172928080716
10622 236 17826214217140712754
10693767 8 18043532704036515690
10928967 22 18270380776933728999
11045515 52 18186800253507374845
11089746 13 7853566886197811590
11128504 68 17748828531113157133
11524674 6 16845573119726813735
11545043 162 16917064469407691355
12166972 35 17967537869910668452
12236239 1 18334298638956102116
12507557 5 11312051067782478467
12553582 1 18341034281906071291
12592606 108 18342175610026973039
12596602 18 12391504291578580847
12633257 1 14261343678353249661
12760667 363 18131346397987881325
12788726 201 18339077065109032617
12969540 114 15068623790068464440
13103583 49 17846228773788033385
13167823 11 18334573525516017781
13402501 40 18060143132674295911
13690498 29 18261105297394828367
13740256 8 18342175592013264097
14123255 352 8070028874102740959
14251757 5 18336265725483135627
14251764 18 12031781475013934537
14251764 30 18272089430893008247
14420673 8 18343588439091685343
14466204 15 9151179744311473991
14528608 73 17530685398735427884
14576447 43 18334293146072478666
14617045 38 18261114084724388027
14767858 380 18186810201114868436
14951699 99 8790299120681444526
15142383 8 14764353695546955058
15188451 53 15625644133991365037
15348495 7 15410604930511260719
15461852 350 12540708032510869760
15527383 91 13758069693213188170
15537594 2 18408040706678375243
16991981 162 16517908660054946605
17138139 8 18260820548757025434
17492 89 18197216936906939398
17780758 139 17632296766169722955
17980427 23 9871745806666626859
18222031 100 18059840797420703541
193927 3 17775288261356164916
19784866 140 18409165498013884065
200 152 18260549995908093024
20157964 124 8790616900794583689
21033648 29 11242258493071921710
21054139 6 18186516575739403146
21150785 3 18261402148428298718
21267235 1 18412269427844575727
21298829 104 8862681100909567795
21315763 191 18342179955652466717
21315764 268 9871745767458636715
21403212 168 12175630529667838901
21774942 28 13840802423838593679
221357 26 18335979852601890363
22393880 68 18114173082596992372
22950370 63 18413109480909547933
23016692 55 18343586252499261325
23035841 295 18412547600323901007
235170 7 16226316054575855935
23522609 53 18124065453042455801
23559900 14 18342165696087276745
23622692 88 11384115245720415368
238078 22 18410854361086220985
2767999 5 11386365954443667327
2838139 119 14490185020699714030
3004659 81 18334574638028780302
329604 57 18408887338852230630
33382 64 17203336555352816846
335352 9 18341610409436666893
351380 3 18412543219452036439
3737641 26 18130514011350517751
439807 62 18187364329248109715
465052 167 18202569505043306471
5104073 3 17846211121172078776
5207 217 14996288045780610161
59682541 52 15430303699330110426
7495541 125 17846493738731317896
7970288 3 18272645775102806807
8217 86 18261677068678578507
8863177 126 18267869578549294219
999808 66 18041856107617168699

> <PUBCHEM_SHAPE_MULTIPOLES>
437.81
15.05
2.31
1.18
3.31
0.42
-0.14
-8.57
3.87
1.18
-0.31
-0.65
-0.16
-0.78

> <PUBCHEM_SHAPE_SELFOVERLAP>
957.688

> <PUBCHEM_SHAPE_VOLUME>
238.8

> <PUBCHEM_COORDINATE_TYPE>
2
5
10

$$$$
