51137146
  -OEChem-12032416243D

 55 58  0     1  0  0  0  0  0999 V2000
   -6.4415    1.3169    0.0826 S   0  0  0  0  0  0  0  0  0  0  0  0
   -1.6793   -1.9193    0.9929 O   0  0  0  0  0  0  0  0  0  0  0  0
    8.6663    0.6368   -0.4294 O   0  0  0  0  0  0  0  0  0  0  0  0
   -7.3403    1.2347    1.2245 O   0  0  0  0  0  0  0  0  0  0  0  0
   -5.9648    2.6138   -0.3734 O   0  0  0  0  0  0  0  0  0  0  0  0
    2.7390   -0.9982   -0.3999 N   0  0  1  0  0  0  0  0  0  0  0  0
    6.4231    1.0270    0.0327 N   0  0  0  0  0  0  0  0  0  0  0  0
   -1.4479   -0.2127   -0.4803 N   0  0  0  0  0  0  0  0  0  0  0  0
    3.7309    0.0735   -0.4414 C   0  0  0  0  0  0  0  0  0  0  0  0
    0.5460   -1.7148    0.0212 C   0  0  2  0  0  0  0  0  0  0  0  0
    1.5790   -0.6542    0.4252 C   0  0  0  0  0  0  0  0  0  0  0  0
    2.1867   -1.2975   -1.7210 C   0  0  0  0  0  0  0  0  0  0  0  0
    0.9668   -2.1491   -1.3936 C   0  0  0  0  0  0  0  0  0  0  0  0
    4.2378    0.3770    0.9745 C   0  0  0  0  0  0  0  0  0  0  0  0
    4.8976   -0.3240   -1.3548 C   0  0  0  0  0  0  0  0  0  0  0  0
    5.3461    1.4295    0.9459 C   0  0  0  0  0  0  0  0  0  0  0  0
    5.9915    0.7422   -1.3374 C   0  0  0  0  0  0  0  0  0  0  0  0
   -0.8786   -1.2242    0.1375 C   0  0  0  0  0  0  0  0  0  0  0  0
    7.7744    0.9429    0.3662 C   0  0  0  0  0  0  0  0  0  0  0  0
   -2.7346   -0.2321    0.0007 C   0  0  0  0  0  0  0  0  0  0  0  0
   -2.8801   -1.2755    0.9028 C   0  0  0  0  0  0  0  0  0  0  0  0
    8.1375    1.2484    1.7975 C   0  0  0  0  0  0  0  0  0  0  0  0
   -3.8386    0.5895   -0.2691 C   0  0  0  0  0  0  0  0  0  0  0  0
   -4.0560   -1.5812    1.5770 C   0  0  0  0  0  0  0  0  0  0  0  0
   -5.0436    0.3120    0.3925 C   0  0  0  0  0  0  0  0  0  0  0  0
   -5.1476   -0.7522    1.2967 C   0  0  0  0  0  0  0  0  0  0  0  0
   -7.2596    0.5222   -1.2812 C   0  0  0  0  0  0  0  0  0  0  0  0
   -8.5101    1.2687   -1.6889 C   0  0  0  0  0  0  0  0  0  0  0  0
    3.2771    0.9901   -0.8460 H   0  0  0  0  0  0  0  0  0  0  0  0
    0.6616   -2.5858    0.6821 H   0  0  0  0  0  0  0  0  0  0  0  0
    1.2134    0.3590    0.2117 H   0  0  0  0  0  0  0  0  0  0  0  0
    1.7871   -0.7306    1.4978 H   0  0  0  0  0  0  0  0  0  0  0  0
    1.8737   -0.3888   -2.2512 H   0  0  0  0  0  0  0  0  0  0  0  0
    2.8742   -1.8625   -2.3577 H   0  0  0  0  0  0  0  0  0  0  0  0
    0.1772   -2.0179   -2.1411 H   0  0  0  0  0  0  0  0  0  0  0  0
    1.2404   -3.2116   -1.3813 H   0  0  0  0  0  0  0  0  0  0  0  0
    4.6258   -0.5392    1.4395 H   0  0  0  0  0  0  0  0  0  0  0  0
    3.4368    0.7576    1.6176 H   0  0  0  0  0  0  0  0  0  0  0  0
    5.3238   -1.2810   -1.0253 H   0  0  0  0  0  0  0  0  0  0  0  0
    4.5743   -0.4490   -2.3940 H   0  0  0  0  0  0  0  0  0  0  0  0
    4.9543    2.3866    0.5812 H   0  0  0  0  0  0  0  0  0  0  0  0
    5.7114    1.5975    1.9606 H   0  0  0  0  0  0  0  0  0  0  0  0
    6.8359    0.4141   -1.9517 H   0  0  0  0  0  0  0  0  0  0  0  0
    5.6204    1.6810   -1.7655 H   0  0  0  0  0  0  0  0  0  0  0  0
    9.2184    1.1393    1.9299 H   0  0  0  0  0  0  0  0  0  0  0  0
    7.8664    2.2781    2.0450 H   0  0  0  0  0  0  0  0  0  0  0  0
    7.6395    0.5467    2.4719 H   0  0  0  0  0  0  0  0  0  0  0  0
   -3.7469    1.4065   -0.9767 H   0  0  0  0  0  0  0  0  0  0  0  0
   -4.1261   -2.4077    2.2730 H   0  0  0  0  0  0  0  0  0  0  0  0
   -6.0892   -0.9625    1.7988 H   0  0  0  0  0  0  0  0  0  0  0  0
   -7.5093   -0.4972   -0.9723 H   0  0  0  0  0  0  0  0  0  0  0  0
   -6.5527    0.4809   -2.1153 H   0  0  0  0  0  0  0  0  0  0  0  0
   -8.9962    0.7654   -2.5302 H   0  0  0  0  0  0  0  0  0  0  0  0
   -8.2776    2.2940   -1.9941 H   0  0  0  0  0  0  0  0  0  0  0  0
   -9.2276    1.3210   -0.8637 H   0  0  0  0  0  0  0  0  0  0  0  0
  1  4  2  0  0  0  0
  1  5  2  0  0  0  0
  1 25  1  0  0  0  0
  1 27  1  0  0  0  0
  2 18  1  0  0  0  0
  2 21  1  0  0  0  0
  3 19  2  0  0  0  0
  6  9  1  0  0  0  0
  6 11  1  0  0  0  0
  6 12  1  0  0  0  0
  7 16  1  0  0  0  0
  7 17  1  0  0  0  0
  7 19  1  0  0  0  0
  8 18  2  0  0  0  0
  8 20  1  0  0  0  0
  9 14  1  0  0  0  0
  9 15  1  0  0  0  0
  9 29  1  0  0  0  0
 10 11  1  0  0  0  0
 10 13  1  0  0  0  0
 10 18  1  0  0  0  0
 10 30  1  0  0  0  0
 11 31  1  0  0  0  0
 11 32  1  0  0  0  0
 12 13  1  0  0  0  0
 12 33  1  0  0  0  0
 12 34  1  0  0  0  0
 13 35  1  0  0  0  0
 13 36  1  0  0  0  0
 14 16  1  0  0  0  0
 14 37  1  0  0  0  0
 14 38  1  0  0  0  0
 15 17  1  0  0  0  0
 15 39  1  0  0  0  0
 15 40  1  0  0  0  0
 16 41  1  0  0  0  0
 16 42  1  0  0  0  0
 17 43  1  0  0  0  0
 17 44  1  0  0  0  0
 19 22  1  0  0  0  0
 20 21  2  0  0  0  0
 20 23  1  0  0  0  0
 21 24  1  0  0  0  0
 22 45  1  0  0  0  0
 22 46  1  0  0  0  0
 22 47  1  0  0  0  0
 23 25  2  0  0  0  0
 23 48  1  0  0  0  0
 24 26  2  0  0  0  0
 24 49  1  0  0  0  0
 25 26  1  0  0  0  0
 26 50  1  0  0  0  0
 27 28  1  0  0  0  0
 27 51  1  0  0  0  0
 27 52  1  0  0  0  0
 28 53  1  0  0  0  0
 28 54  1  0  0  0  0
 28 55  1  0  0  0  0
M  END
> <PUBCHEM_COMPOUND_CID>
51137146

> <PUBCHEM_CONFORMER_RMSD>
0.8

> <PUBCHEM_CONFORMER_DIVERSEORDER>
1
191
102
159
188
187
155
199
55
116
45
183
129
168
158
162
124
107
165
151
167
171
48
56
80
186
170
184
118
79
144
182
31
152
86
15
185
160
113
111
141
143
85
194
174
91
73
105
150
16
136
128
198
121
92
63
178
120
196
21
131
169
148
98
109
132
108
8
67
54
195
58
145
172
66
12
101
77
180
192
95
61
70
140
176
75
93
197
64
38
126
81
65
78
74
175
69
37
47
177
190
89
42
90
103
52
25
30
147
104
133
149
181
110
88
106
114
76
51
139
97
20
40
138
34
23
84
153
137
122
135
164
60
179
112
32
96
2
163
123
154
11
3
43
134
28
115
125
49
146
6
18
193
130
14
62
13
33
46
17
142
72
36
19
82
26
83
39
68
94
4
41
57
71
119
173
99
24
166
29
9
100
59
161
127
117
22
189
44
35
7
10
87
27
5
157
53
156
50

> <PUBCHEM_MMFF94_PARTIAL_CHARGES>
27
1 1.2
10 0.18
11 0.27
12 0.27
16 0.3
17 0.3
18 0.3
19 0.57
2 -0.28
20 0.23
21 0.14
22 0.06
23 -0.15
24 -0.15
25 -0.01
26 -0.15
27 0.11
3 -0.57
4 -0.65
48 0.15
49 0.15
5 -0.65
50 0.15
6 -0.81
7 -0.66
8 -0.57
9 0.27

> <PUBCHEM_EFFECTIVE_ROTOR_COUNT>
7.2

> <PUBCHEM_PHARMACOPHORE_FEATURES>
8
1 3 acceptor
1 4 acceptor
1 5 acceptor
1 6 cation
5 2 8 18 20 21 rings
5 6 10 11 12 13 rings
6 20 21 23 24 25 26 rings
6 7 9 14 15 16 17 rings

> <PUBCHEM_HEAVY_ATOM_COUNT>
28

> <PUBCHEM_ATOM_DEF_STEREO_COUNT>
1

> <PUBCHEM_ATOM_UDEF_STEREO_COUNT>
0

> <PUBCHEM_BOND_DEF_STEREO_COUNT>
0

> <PUBCHEM_BOND_UDEF_STEREO_COUNT>
0

> <PUBCHEM_ISOTOPIC_ATOM_COUNT>
0

> <PUBCHEM_COMPONENT_COUNT>
1

> <PUBCHEM_CACTVS_TAUTO_COUNT>
1

> <PUBCHEM_CONFORMER_ID>
030C4A7A00000001

> <PUBCHEM_MMFF94_ENERGY>
38.2253

> <PUBCHEM_FEATURE_SELFOVERLAP>
40.733

> <PUBCHEM_SHAPE_FINGERPRINT>
10 15 16950568774812640109
10670039 82 14189582909895629771
11297750 10 16736628933106449250
11409948 35 18189616052544135562
11409948 41 15912777068863877644
12236239 1 16153713166920688834
12778500 126 18040994039034600888
12838862 33 18339629097023783508
13150687 139 17275110531198941078
13540713 5 15432033372586094435
13668630 136 8574719001109213888
13685833 64 10737285757686863446
14117953 113 17846788434245567828
14123256 34 10809341148633304898
14150023 24 18412539912628645774
14729087 3 18407478864456932609
14767858 380 15339122333561930646
14849402 71 16154566427321073964
15183329 4 15195289720327561714
15238133 3 18040723610471234180
15289351 153 18271805671541978234
15352257 5 9151173151447010137
15461852 350 18411134783848971247
1577012 14 16950573224441132558
16120349 21 8142076573069262593
17134984 74 11455900161529321972
1754911 235 17489583451251531717
17980427 23 17603875549964605351
1818759 1 9223230775549702624
18335252 114 17846778512401245192
18643901 69 10375872995839669185
18681886 176 12607401075031389066
195137 95 17822282453869740581
2026 5 10231492804282978460
20554085 129 18261103076032008379
20567600 254 18343302582662692234
21033648 29 18409174315787841518
21150785 3 15985104119620913373
21267235 1 10665224848234928246
21521239 73 15195576688968403678
21585481 151 12468642711542563337
23522609 53 16154296990678952814
23559900 14 17970367935510670319
23576562 1 17631159964998144557
246663 6 9799691510746739869
24771293 8 18335421232445418109
2838139 119 18342453794335697572
3103668 31 17057786680491281767
3663271 9 16588312743001637008
393628 179 18341040878549395313
437795 83 17775290417704678449
439807 62 11167944662271509221
504579 68 15626223515582493557
504843 32 17774723181379229238
5104073 3 17749114352855657083
5283384 27 18413668015235649509
5385378 56 18113617846716474002
54039377 194 8646773309381141984
5470011 282 13973965415661518216
5937810 71 17703514282086064673
6058803 2 15504939811059749239
636775 72 18408323272477156213
636775 8 13398626186814543517
6691757 9 17313387851140458883
8863177 126 8790587196515797981
9995097 26 10159694716494618688
999808 66 8142086459635260521

> <PUBCHEM_SHAPE_MULTIPOLES>
541.66
26.73
1.97
1.59
8.82
0.13
0.1
-19.76
0.78
-1.27
-0.01
-0.22
0.14
2.67

> <PUBCHEM_SHAPE_SELFOVERLAP>
1140.942

> <PUBCHEM_SHAPE_VOLUME>
307.2

> <PUBCHEM_COORDINATE_TYPE>
2
5
10

$$$$
