51137673
  -OEChem-12032416223D

 46 49  0     1  0  0  0  0  0999 V2000
    6.9878   -0.4588    0.3467 F   0  0  0  0  0  0  0  0  0  0  0  0
   -5.0817    1.3603    1.7498 F   0  0  0  0  0  0  0  0  0  0  0  0
   -6.6250    2.8258    1.2534 F   0  0  0  0  0  0  0  0  0  0  0  0
   -4.6197    3.0621    0.4174 F   0  0  0  0  0  0  0  0  0  0  0  0
    2.8301   -0.4697    0.2489 O   0  0  0  0  0  0  0  0  0  0  0  0
   -5.9703    1.3866   -0.3575 O   0  0  0  0  0  0  0  0  0  0  0  0
   -1.0699   -1.4860   -0.2135 N   0  0  1  0  0  0  0  0  0  0  0  0
    3.4861   -2.4547    1.0450 N   0  0  0  0  0  0  0  0  0  0  0  0
    4.6174   -1.7064    0.7783 N   0  0  0  0  0  0  0  0  0  0  0  0
    0.9859   -1.9835    0.7992 C   0  0  1  0  0  0  0  0  0  0  0  0
    0.1863   -1.0267    1.7006 C   0  0  0  0  0  0  0  0  0  0  0  0
    0.2883   -1.9056   -0.5654 C   0  0  0  0  0  0  0  0  0  0  0  0
   -0.8924   -0.4434    0.7972 C   0  0  0  0  0  0  0  0  0  0  0  0
   -1.8226   -1.0168   -1.3674 C   0  0  0  0  0  0  0  0  0  0  0  0
    2.4670   -1.6935    0.7213 C   0  0  0  0  0  0  0  0  0  0  0  0
   -3.3049   -1.0056   -1.1031 C   0  0  0  0  0  0  0  0  0  0  0  0
   -3.9589    0.1999   -0.8489 C   0  0  0  0  0  0  0  0  0  0  0  0
   -4.0241   -2.2008   -1.1134 C   0  0  0  0  0  0  0  0  0  0  0  0
    4.1868   -0.5561    0.3156 C   0  0  0  0  0  0  0  0  0  0  0  0
   -5.3322    0.2103   -0.6048 C   0  0  0  0  0  0  0  0  0  0  0  0
   -5.3973   -2.1904   -0.8693 C   0  0  0  0  0  0  0  0  0  0  0  0
    4.9114    0.6017   -0.1217 C   0  0  0  0  0  0  0  0  0  0  0  0
   -6.0514   -0.9849   -0.6150 C   0  0  0  0  0  0  0  0  0  0  0  0
    6.3058    0.6103   -0.0897 C   0  0  0  0  0  0  0  0  0  0  0  0
    4.2174    1.7218   -0.5789 C   0  0  0  0  0  0  0  0  0  0  0  0
    7.0063    1.7390   -0.5150 C   0  0  0  0  0  0  0  0  0  0  0  0
    4.9178    2.8507   -1.0043 C   0  0  0  0  0  0  0  0  0  0  0  0
    6.3122    2.8593   -0.9724 C   0  0  0  0  0  0  0  0  0  0  0  0
   -5.5563    2.1547    0.7668 C   0  0  0  0  0  0  0  0  0  0  0  0
    0.8708   -3.0001    1.2004 H   0  0  0  0  0  0  0  0  0  0  0  0
   -0.2753   -1.5978    2.5159 H   0  0  0  0  0  0  0  0  0  0  0  0
    0.7979   -0.2387    2.1526 H   0  0  0  0  0  0  0  0  0  0  0  0
    0.2935   -2.8786   -1.0688 H   0  0  0  0  0  0  0  0  0  0  0  0
    0.7733   -1.1755   -1.2268 H   0  0  0  0  0  0  0  0  0  0  0  0
   -1.8089   -0.2413    1.3604 H   0  0  0  0  0  0  0  0  0  0  0  0
   -0.5351    0.4972    0.3582 H   0  0  0  0  0  0  0  0  0  0  0  0
   -1.4774   -0.0335   -1.7146 H   0  0  0  0  0  0  0  0  0  0  0  0
   -1.6591   -1.6935   -2.2182 H   0  0  0  0  0  0  0  0  0  0  0  0
   -3.3988    1.1317   -0.8468 H   0  0  0  0  0  0  0  0  0  0  0  0
   -3.5259   -3.1464   -1.3104 H   0  0  0  0  0  0  0  0  0  0  0  0
   -5.9574   -3.1209   -0.8772 H   0  0  0  0  0  0  0  0  0  0  0  0
   -7.1213   -0.9830   -0.4254 H   0  0  0  0  0  0  0  0  0  0  0  0
    3.1315    1.7540   -0.6190 H   0  0  0  0  0  0  0  0  0  0  0  0
    8.0920    1.7455   -0.4902 H   0  0  0  0  0  0  0  0  0  0  0  0
    4.3778    3.7232   -1.3604 H   0  0  0  0  0  0  0  0  0  0  0  0
    6.8576    3.7382   -1.3036 H   0  0  0  0  0  0  0  0  0  0  0  0
  1 24  1  0  0  0  0
  2 29  1  0  0  0  0
  3 29  1  0  0  0  0
  4 29  1  0  0  0  0
  5 15  1  0  0  0  0
  5 19  1  0  0  0  0
  6 20  1  0  0  0  0
  6 29  1  0  0  0  0
  7 12  1  0  0  0  0
  7 13  1  0  0  0  0
  7 14  1  0  0  0  0
  8  9  1  0  0  0  0
  8 15  2  0  0  0  0
  9 19  2  0  0  0  0
 10 11  1  0  0  0  0
 10 12  1  0  0  0  0
 10 15  1  0  0  0  0
 10 30  1  0  0  0  0
 11 13  1  0  0  0  0
 11 31  1  0  0  0  0
 11 32  1  0  0  0  0
 12 33  1  0  0  0  0
 12 34  1  0  0  0  0
 13 35  1  0  0  0  0
 13 36  1  0  0  0  0
 14 16  1  0  0  0  0
 14 37  1  0  0  0  0
 14 38  1  0  0  0  0
 16 17  2  0  0  0  0
 16 18  1  0  0  0  0
 17 20  1  0  0  0  0
 17 39  1  0  0  0  0
 18 21  2  0  0  0  0
 18 40  1  0  0  0  0
 19 22  1  0  0  0  0
 20 23  2  0  0  0  0
 21 23  1  0  0  0  0
 21 41  1  0  0  0  0
 22 24  1  0  0  0  0
 22 25  2  0  0  0  0
 23 42  1  0  0  0  0
 24 26  2  0  0  0  0
 25 27  1  0  0  0  0
 25 43  1  0  0  0  0
 26 28  1  0  0  0  0
 26 44  1  0  0  0  0
 27 28  2  0  0  0  0
 27 45  1  0  0  0  0
 28 46  1  0  0  0  0
M  END
> <PUBCHEM_COMPOUND_CID>
51137673

> <PUBCHEM_CONFORMER_RMSD>
1.2

> <PUBCHEM_CONFORMER_DIVERSEORDER>
1
98
105
7
110
35
41
81
91
76
112
53
25
28
64
111
47
22
16
57
59
65
5
90
33
109
107
44
78
114
37
18
82
100
94
50
70
71
46
63
48
49
58
62
45
96
14
34
23
104
60
24
61
43
39
99
2
38
20
55
36
95
30
89
77
8
103
79
54
10
84
72
88
68
108
83
26
12
56
52
32
67
73
101
6
106
17
9
31
4
42
93
27
80
74
92
85
66
13
29
86
102
3
75
19
11
69
51
87
97
21
40
15
113

> <PUBCHEM_MMFF94_PARTIAL_CHARGES>
36
1 -0.19
10 0.18
12 0.27
13 0.27
14 0.41
15 0.3
16 -0.14
17 -0.15
18 -0.15
19 0.43
2 -0.34
20 0.08
21 -0.15
22 0.05
23 -0.15
24 0.19
25 -0.15
26 -0.15
27 -0.15
28 -0.15
29 1.3
3 -0.34
39 0.15
4 -0.34
40 0.15
41 0.15
42 0.15
43 0.15
44 0.15
45 0.15
46 0.15
5 -0.28
6 -0.36
7 -0.81
8 -0.34
9 -0.34

> <PUBCHEM_EFFECTIVE_ROTOR_COUNT>
7

> <PUBCHEM_PHARMACOPHORE_FEATURES>
6
1 6 acceptor
1 7 cation
5 5 8 9 15 19 rings
5 7 10 11 12 13 rings
6 16 17 18 20 21 23 rings
6 22 24 25 26 27 28 rings

> <PUBCHEM_HEAVY_ATOM_COUNT>
29

> <PUBCHEM_ATOM_DEF_STEREO_COUNT>
1

> <PUBCHEM_ATOM_UDEF_STEREO_COUNT>
0

> <PUBCHEM_BOND_DEF_STEREO_COUNT>
0

> <PUBCHEM_BOND_UDEF_STEREO_COUNT>
0

> <PUBCHEM_ISOTOPIC_ATOM_COUNT>
0

> <PUBCHEM_COMPONENT_COUNT>
1

> <PUBCHEM_CACTVS_TAUTO_COUNT>
1

> <PUBCHEM_CONFORMER_ID>
030C4C8900000001

> <PUBCHEM_MMFF94_ENERGY>
67.2348

> <PUBCHEM_FEATURE_SELFOVERLAP>
30.448

> <PUBCHEM_SHAPE_FINGERPRINT>
10 15 14345796067393362630
10074138 170 15141249913180127816
100830 2 18271255902226821841
10411042 1 17899681381808762586
10554248 39 18057025922915248103
10595046 47 18409722997765154775
10638233 991 18410853295480481924
10670039 82 18272926137919844365
11273773 118 17846230946788693203
11273773 42 18335988665779947100
11646440 116 16588021321049448292
12236239 1 18412821382856305758
12760667 363 11743573101705750582
12975358 362 17626967278929844449
13167372 99 18410571795366944316
13690498 29 17630317765446920831
14202776 33 18201432619306433831
14394314 77 18409452487919630821
14790565 3 18410854348027193695
14849402 71 18261114135530935125
14856354 85 18059011817372959695
15064981 194 17898587620529590366
15183329 4 18272652376213851972
15188451 53 11097858510057049067
15840311 113 18262805056192748045
1768 23 18130241350057863289
17913733 40 16443060582334839155
21298829 104 18336828688933310580
21315764 119 17704078387158244086
21585481 151 10809883182539847144
21774942 28 18343865537655028688
22061861 79 13686295785733171367
22122407 14 18337116756003975088
23569914 152 13538557509597642625
2748736 6 18189051048862721056
2838139 119 18260267451790409312
328310 630 18261111893710324813
397830 11 16950856893660574899
4058900 60 18341897380853827470
4073 2 17822008769774170954
4098825 35 18273218569358218638
4197921 191 18412822461425489899
4258327 124 18342177727361440769
44555599 121 18408603652178313656
445580 204 18412828014633866504
445580 37 18202566189650345895
4918590 53 17894914052690081074
497634 4 18335409189298922631
508180 173 18131075978183541016
5104073 3 17531241794664260266
543368 44 18334008428401013863
5911458 16 18413112740600315369
6328613 192 18411697673677780469
6608658 132 17774736263527580193

> <PUBCHEM_SHAPE_MULTIPOLES>
541.03
21.13
3.4
1.32
4.92
1.98
0.23
14.04
-2.08
-0.75
0.4
-1.13
0.03
-4.59

> <PUBCHEM_SHAPE_SELFOVERLAP>
1182.86

> <PUBCHEM_SHAPE_VOLUME>
296.1

> <PUBCHEM_COORDINATE_TYPE>
2
5
10

$$$$
