45783880
  -OEChem-12032416283D

 63 65  0     1  0  0  0  0  0999 V2000
    3.6124    2.0682   -1.2120 O   0  0  0  0  0  0  0  0  0  0  0  0
   -8.0661    0.9230   -0.3633 O   0  0  0  0  0  0  0  0  0  0  0  0
   -1.6502    0.0690    0.3971 N   0  0  0  0  0  0  0  0  0  0  0  0
   -4.4150    0.8718    0.1328 N   0  0  0  0  0  0  0  0  0  0  0  0
    3.4764    1.5185    0.9523 N   0  0  0  0  0  0  0  0  0  0  0  0
    3.1942    2.8668    0.8354 N   0  0  0  0  0  0  0  0  0  0  0  0
    0.4690   -1.6994   -0.5891 C   0  0  1  0  0  0  0  0  0  0  0  0
    0.2736   -1.3802    0.9114 C   0  0  2  0  0  0  0  0  0  0  0  0
    1.7062   -0.9739   -1.1367 C   0  0  0  0  0  0  0  0  0  0  0  0
    3.0020   -1.3089   -0.3673 C   0  0  2  0  0  0  0  0  0  0  0  0
    0.5600   -3.2121   -0.8321 C   0  0  0  0  0  0  0  0  0  0  0  0
   -0.3813   -0.0106    1.1180 C   0  0  0  0  0  0  0  0  0  0  0  0
    1.5645   -1.4346    1.6879 C   0  0  0  0  0  0  0  0  0  0  0  0
    2.7915   -1.4162    1.1355 C   0  0  0  0  0  0  0  0  0  0  0  0
    4.0762   -0.2821   -0.7473 C   0  0  0  0  0  0  0  0  0  0  0  0
   -2.7164   -0.6125    1.1415 C   0  0  0  0  0  0  0  0  0  0  0  0
   -2.0172    1.4670    0.1402 C   0  0  0  0  0  0  0  0  0  0  0  0
   -0.8192   -3.8534   -0.7166 C   0  0  0  0  0  0  0  0  0  0  0  0
    1.1755   -3.4952   -2.1987 C   0  0  0  0  0  0  0  0  0  0  0  0
   -4.0488   -0.5266    0.3890 C   0  0  0  0  0  0  0  0  0  0  0  0
   -3.3492    1.5518   -0.6130 C   0  0  0  0  0  0  0  0  0  0  0  0
    4.0140   -1.5630    1.9994 C   0  0  0  0  0  0  0  0  0  0  0  0
    3.7141    1.0940   -0.2668 C   0  0  0  0  0  0  0  0  0  0  0  0
   -5.6848    0.9523   -0.5864 C   0  0  0  0  0  0  0  0  0  0  0  0
   -6.8554    0.8222    0.3749 C   0  0  0  0  0  0  0  0  0  0  0  0
    3.2853    3.1435   -0.4444 C   0  0  0  0  0  0  0  0  0  0  0  0
    3.0887    4.4205   -1.1419 C   0  0  0  0  0  0  0  0  0  0  0  0
   -0.3852   -1.3375   -1.1750 H   0  0  0  0  0  0  0  0  0  0  0  0
   -0.3709   -2.1391    1.3660 H   0  0  0  0  0  0  0  0  0  0  0  0
    1.8494   -1.1253   -2.2122 H   0  0  0  0  0  0  0  0  0  0  0  0
    1.4921    0.1001   -1.0639 H   0  0  0  0  0  0  0  0  0  0  0  0
    3.3676   -2.2889   -0.6969 H   0  0  0  0  0  0  0  0  0  0  0  0
    1.2063   -3.6847   -0.0819 H   0  0  0  0  0  0  0  0  0  0  0  0
    0.3062    0.7632    0.7504 H   0  0  0  0  0  0  0  0  0  0  0  0
   -0.5174    0.2038    2.1873 H   0  0  0  0  0  0  0  0  0  0  0  0
    1.4666   -1.5129    2.7687 H   0  0  0  0  0  0  0  0  0  0  0  0
    4.2069   -0.2689   -1.8368 H   0  0  0  0  0  0  0  0  0  0  0  0
    5.0507   -0.5562   -0.3272 H   0  0  0  0  0  0  0  0  0  0  0  0
   -2.4838   -1.6741    1.2739 H   0  0  0  0  0  0  0  0  0  0  0  0
   -2.8354   -0.1783    2.1437 H   0  0  0  0  0  0  0  0  0  0  0  0
   -1.2470    1.9469   -0.4762 H   0  0  0  0  0  0  0  0  0  0  0  0
   -2.0850    2.0323    1.0796 H   0  0  0  0  0  0  0  0  0  0  0  0
   -0.7622   -4.9271   -0.9282 H   0  0  0  0  0  0  0  0  0  0  0  0
   -1.2436   -3.7515    0.2854 H   0  0  0  0  0  0  0  0  0  0  0  0
   -1.5253   -3.4144   -1.4300 H   0  0  0  0  0  0  0  0  0  0  0  0
    0.6578   -2.9515   -2.9970 H   0  0  0  0  0  0  0  0  0  0  0  0
    1.0828   -4.5626   -2.4344 H   0  0  0  0  0  0  0  0  0  0  0  0
    2.2446   -3.2799   -2.2531 H   0  0  0  0  0  0  0  0  0  0  0  0
   -4.8102   -1.0189    1.0038 H   0  0  0  0  0  0  0  0  0  0  0  0
   -3.9736   -1.0917   -0.5503 H   0  0  0  0  0  0  0  0  0  0  0  0
   -3.6006    2.6119   -0.7404 H   0  0  0  0  0  0  0  0  0  0  0  0
   -3.2365    1.1185   -1.6162 H   0  0  0  0  0  0  0  0  0  0  0  0
    4.6104   -0.6474    2.0192 H   0  0  0  0  0  0  0  0  0  0  0  0
    3.7560   -1.8035    3.0367 H   0  0  0  0  0  0  0  0  0  0  0  0
    4.6417   -2.3794    1.6267 H   0  0  0  0  0  0  0  0  0  0  0  0
   -5.7869    1.9299   -1.0779 H   0  0  0  0  0  0  0  0  0  0  0  0
   -5.7558    0.2153   -1.3973 H   0  0  0  0  0  0  0  0  0  0  0  0
   -6.8596   -0.1433    0.8890 H   0  0  0  0  0  0  0  0  0  0  0  0
   -6.8401    1.6211    1.1241 H   0  0  0  0  0  0  0  0  0  0  0  0
   -8.7964    0.8447    0.2740 H   0  0  0  0  0  0  0  0  0  0  0  0
    3.9995    4.7139   -1.6722 H   0  0  0  0  0  0  0  0  0  0  0  0
    2.2748    4.3404   -1.8685 H   0  0  0  0  0  0  0  0  0  0  0  0
    2.8360    5.2148   -0.4332 H   0  0  0  0  0  0  0  0  0  0  0  0
  1 23  1  0  0  0  0
  1 26  1  0  0  0  0
  2 25  1  0  0  0  0
  2 60  1  0  0  0  0
  3 12  1  0  0  0  0
  3 16  1  0  0  0  0
  3 17  1  0  0  0  0
  4 20  1  0  0  0  0
  4 21  1  0  0  0  0
  4 24  1  0  0  0  0
  5  6  1  0  0  0  0
  5 23  2  0  0  0  0
  6 26  2  0  0  0  0
  7  8  1  0  0  0  0
  7  9  1  0  0  0  0
  7 11  1  0  0  0  0
  7 28  1  0  0  0  0
  8 12  1  0  0  0  0
  8 13  1  0  0  0  0
  8 29  1  0  0  0  0
  9 10  1  0  0  0  0
  9 30  1  0  0  0  0
  9 31  1  0  0  0  0
 10 14  1  0  0  0  0
 10 15  1  0  0  0  0
 10 32  1  0  0  0  0
 11 18  1  0  0  0  0
 11 19  1  0  0  0  0
 11 33  1  0  0  0  0
 12 34  1  0  0  0  0
 12 35  1  0  0  0  0
 13 14  2  0  0  0  0
 13 36  1  0  0  0  0
 14 22  1  0  0  0  0
 15 23  1  0  0  0  0
 15 37  1  0  0  0  0
 15 38  1  0  0  0  0
 16 20  1  0  0  0  0
 16 39  1  0  0  0  0
 16 40  1  0  0  0  0
 17 21  1  0  0  0  0
 17 41  1  0  0  0  0
 17 42  1  0  0  0  0
 18 43  1  0  0  0  0
 18 44  1  0  0  0  0
 18 45  1  0  0  0  0
 19 46  1  0  0  0  0
 19 47  1  0  0  0  0
 19 48  1  0  0  0  0
 20 49  1  0  0  0  0
 20 50  1  0  0  0  0
 21 51  1  0  0  0  0
 21 52  1  0  0  0  0
 22 53  1  0  0  0  0
 22 54  1  0  0  0  0
 22 55  1  0  0  0  0
 24 25  1  0  0  0  0
 24 56  1  0  0  0  0
 24 57  1  0  0  0  0
 25 58  1  0  0  0  0
 25 59  1  0  0  0  0
 26 27  1  0  0  0  0
 27 61  1  0  0  0  0
 27 62  1  0  0  0  0
 27 63  1  0  0  0  0
M  END
> <PUBCHEM_COMPOUND_CID>
45783880

> <PUBCHEM_CONFORMER_RMSD>
1

> <PUBCHEM_CONFORMER_DIVERSEORDER>
4
80
60
103
117
131
136
128
105
120
48
150
129
77
130
92
156
125
144
149
91
35
161
124
153
47
83
137
14
74
59
111
19
146
18
97
138
63
109
152
10
108
69
9
49
78
95
17
68
123
55
70
154
81
73
22
148
58
94
24
28
72
160
126
33
165
99
3
162
132
71
41
38
133
89
102
98
84
113
57
64
79
96
36
164
62
13
90
27
67
50
26
116
119
42
118
75
40
107
29
15
85
139
100
56
140
8
52
30
51
112
5
45
1
39
93
143
127
101
46
158
104
61
147
88
134
82
11
135
115
110
159
7
151
43
65
142
86
16
87
163
2
12
34
66
20
121
157
53
25
145
141
44
106
37
31
114
122
76
6
32
155
54
23
21

> <PUBCHEM_MMFF94_PARTIAL_CHARGES>
24
1 -0.28
10 0.14
12 0.27
13 -0.29
14 -0.28
15 0.18
16 0.27
17 0.27
2 -0.68
20 0.27
21 0.27
22 0.14
23 0.3
24 0.27
25 0.28
26 0.3
27 0.18
3 -0.81
36 0.15
4 -0.81
5 -0.34
6 -0.34
60 0.4
8 0.14

> <PUBCHEM_EFFECTIVE_ROTOR_COUNT>
9

> <PUBCHEM_PHARMACOPHORE_FEATURES>
8
1 2 acceptor
1 2 donor
1 3 cation
1 4 cation
3 11 18 19 hydrophobe
5 1 5 6 23 26 rings
6 3 4 16 17 20 21 rings
6 7 8 9 10 13 14 rings

> <PUBCHEM_HEAVY_ATOM_COUNT>
27

> <PUBCHEM_ATOM_DEF_STEREO_COUNT>
3

> <PUBCHEM_ATOM_UDEF_STEREO_COUNT>
0

> <PUBCHEM_BOND_DEF_STEREO_COUNT>
0

> <PUBCHEM_BOND_UDEF_STEREO_COUNT>
0

> <PUBCHEM_ISOTOPIC_ATOM_COUNT>
0

> <PUBCHEM_COMPONENT_COUNT>
1

> <PUBCHEM_CACTVS_TAUTO_COUNT>
1

> <PUBCHEM_CONFORMER_ID>
02BA9B4800000004

> <PUBCHEM_MMFF94_ENERGY>
45.39

> <PUBCHEM_FEATURE_SELFOVERLAP>
40.598

> <PUBCHEM_SHAPE_FINGERPRINT>
10673678 19 18411985784585036153
10871710 139 17257383358353071900
11135609 127 18341316822283338237
12596602 18 13912905149318904036
13533116 47 17458623346669491011
13583140 156 17821995519678411882
1361 2 18411980286863276157
13836976 161 18272649017486168362
14251764 38 18334579035880736165
14790565 3 18341615958106794229
14955137 171 18188765047259642794
15849732 13 18341040819263651186
16728300 4 17536006898002854386
17980427 23 17914583225580421858
17980427 26 17749655403192867938
18681886 176 18339919316891382906
20715895 44 18341613732559406368
21344244 78 17898830389086619066
21475661 188 18115310102332556048
21860390 5 18265050237160870334
22149856 69 17989215820359099995
23227448 37 18195813083610991654
23559900 14 18271531883665885111
238 59 18339093639535767312
239999 70 18270118990192455079
249057 3 18412265017309314950
255183 451 17627238861952774087
3060560 45 18271530810498625974
3298306 158 18264211494235892785
340366 18 18342178878122603862
345986 75 7925649777239796085
34797466 226 18340493279646982901
394071 54 18337405855212540593
46194498 28 18339081484788551021
58260988 393 17830739012252216914

> <PUBCHEM_SHAPE_MULTIPOLES>
523.98
12.37
4.56
1.58
28.72
1.18
-0.1
8.9
-0.01
-5.47
2.42
-1.47
-0.93
-0.66

> <PUBCHEM_SHAPE_SELFOVERLAP>
1071.369

> <PUBCHEM_SHAPE_VOLUME>
302.8

> <PUBCHEM_COORDINATE_TYPE>
2
5
10

$$$$
