7135513
  -OEChem-12032416363D

 56 59  0     1  0  0  0  0  0999 V2000
    7.7534    2.4449    0.4651 F   0  0  0  0  0  0  0  0  0  0  0  0
    5.8623    3.1505   -0.3284 F   0  0  0  0  0  0  0  0  0  0  0  0
    6.0173    2.5886    1.7666 F   0  0  0  0  0  0  0  0  0  0  0  0
   -3.3585   -2.3427    0.2806 O   0  0  0  0  0  0  0  0  0  0  0  0
    0.0662    1.0341   -1.9129 O   0  0  0  0  0  0  0  0  0  0  0  0
   -6.0801   -0.1096    1.8596 O   0  0  0  0  0  0  0  0  0  0  0  0
   -1.6625    0.3669   -0.5275 N   0  0  0  0  0  0  0  0  0  0  0  0
   -4.4411    0.4305    0.3066 N   0  0  0  0  0  0  0  0  0  0  0  0
   -1.1038   -2.4893    0.0134 N   0  0  0  0  0  0  0  0  0  0  0  0
   -6.7205    0.3808   -0.2980 N   0  0  0  0  0  0  0  0  0  0  0  0
   -2.0883   -0.3281    0.6790 C   0  0  1  0  0  0  0  0  0  0  0  0
   -3.3625    0.2727    1.2869 C   0  0  0  0  0  0  0  0  0  0  0  0
   -2.6055    1.3138   -1.1230 C   0  0  0  0  0  0  0  0  0  0  0  0
   -4.0415    0.8145   -1.0521 C   0  0  0  0  0  0  0  0  0  0  0  0
   -2.2585   -1.7863    0.2816 C   0  0  0  0  0  0  0  0  0  0  0  0
   -0.3586    0.3095   -1.0113 C   0  0  0  0  0  0  0  0  0  0  0  0
    0.5791   -0.6935   -0.4396 C   0  0  0  0  0  0  0  0  0  0  0  0
    0.2156   -1.9997   -0.0744 C   0  0  0  0  0  0  0  0  0  0  0  0
   -5.7734    0.2131    0.7081 C   0  0  0  0  0  0  0  0  0  0  0  0
    1.9396   -0.3336   -0.4459 C   0  0  0  0  0  0  0  0  0  0  0  0
    1.2278   -2.9341    0.2074 C   0  0  0  0  0  0  0  0  0  0  0  0
    2.9278   -1.2603   -0.1163 C   0  0  0  0  0  0  0  0  0  0  0  0
    2.5725   -2.5654    0.1973 C   0  0  0  0  0  0  0  0  0  0  0  0
   -8.1401    0.1943   -0.0905 C   0  0  0  0  0  0  0  0  0  0  0  0
    4.3207   -0.8697   -0.1238 C   0  0  0  0  0  0  0  0  0  0  0  0
   -8.8376    1.4792    0.3397 C   0  0  0  0  0  0  0  0  0  0  0  0
    4.6793    0.4423    0.1862 C   0  0  0  0  0  0  0  0  0  0  0  0
    5.3056   -1.8052   -0.4411 C   0  0  0  0  0  0  0  0  0  0  0  0
   -8.7197    2.5879   -0.6965 C   0  0  0  0  0  0  0  0  0  0  0  0
    6.0224    0.8187    0.1789 C   0  0  0  0  0  0  0  0  0  0  0  0
    6.6486   -1.4288   -0.4485 C   0  0  0  0  0  0  0  0  0  0  0  0
    7.0070   -0.1169   -0.1385 C   0  0  0  0  0  0  0  0  0  0  0  0
    6.4068    2.2209    0.5112 C   0  0  0  0  0  0  0  0  0  0  0  0
   -1.2944   -0.2666    1.4337 H   0  0  0  0  0  0  0  0  0  0  0  0
   -3.7046   -0.3340    2.1325 H   0  0  0  0  0  0  0  0  0  0  0  0
   -3.1520    1.2770    1.6756 H   0  0  0  0  0  0  0  0  0  0  0  0
   -2.3291    1.5149   -2.1636 H   0  0  0  0  0  0  0  0  0  0  0  0
   -2.4989    2.2561   -0.5714 H   0  0  0  0  0  0  0  0  0  0  0  0
   -4.7085    1.6009   -1.4196 H   0  0  0  0  0  0  0  0  0  0  0  0
   -4.1733   -0.0698   -1.6864 H   0  0  0  0  0  0  0  0  0  0  0  0
   -1.2082   -3.5003   -0.0305 H   0  0  0  0  0  0  0  0  0  0  0  0
    2.2090    0.6733   -0.7587 H   0  0  0  0  0  0  0  0  0  0  0  0
    0.9729   -3.9580    0.4749 H   0  0  0  0  0  0  0  0  0  0  0  0
   -6.4290    0.5974   -1.2431 H   0  0  0  0  0  0  0  0  0  0  0  0
    3.3005   -3.3225    0.4749 H   0  0  0  0  0  0  0  0  0  0  0  0
   -8.2915   -0.5806    0.6687 H   0  0  0  0  0  0  0  0  0  0  0  0
   -8.5602   -0.1727   -1.0331 H   0  0  0  0  0  0  0  0  0  0  0  0
   -9.8984    1.2669    0.5154 H   0  0  0  0  0  0  0  0  0  0  0  0
   -8.4176    1.8334    1.2885 H   0  0  0  0  0  0  0  0  0  0  0  0
    3.9416    1.1897    0.4682 H   0  0  0  0  0  0  0  0  0  0  0  0
    5.0725   -2.8295   -0.7188 H   0  0  0  0  0  0  0  0  0  0  0  0
   -9.1243    2.2671   -1.6617 H   0  0  0  0  0  0  0  0  0  0  0  0
   -9.2813    3.4689   -0.3698 H   0  0  0  0  0  0  0  0  0  0  0  0
   -7.6783    2.8914   -0.8423 H   0  0  0  0  0  0  0  0  0  0  0  0
    7.4152   -2.1552   -0.7023 H   0  0  0  0  0  0  0  0  0  0  0  0
    8.0583    0.1573   -0.1512 H   0  0  0  0  0  0  0  0  0  0  0  0
  1 33  1  0  0  0  0
  2 33  1  0  0  0  0
  3 33  1  0  0  0  0
  4 15  2  0  0  0  0
  5 16  2  0  0  0  0
  6 19  2  0  0  0  0
  7 11  1  0  0  0  0
  7 13  1  0  0  0  0
  7 16  1  0  0  0  0
  8 12  1  0  0  0  0
  8 14  1  0  0  0  0
  8 19  1  0  0  0  0
  9 15  1  0  0  0  0
  9 18  1  0  0  0  0
  9 41  1  0  0  0  0
 10 19  1  0  0  0  0
 10 24  1  0  0  0  0
 10 44  1  0  0  0  0
 11 12  1  0  0  0  0
 11 15  1  0  0  0  0
 11 34  1  0  0  0  0
 12 35  1  0  0  0  0
 12 36  1  0  0  0  0
 13 14  1  0  0  0  0
 13 37  1  0  0  0  0
 13 38  1  0  0  0  0
 14 39  1  0  0  0  0
 14 40  1  0  0  0  0
 16 17  1  0  0  0  0
 17 18  2  0  0  0  0
 17 20  1  0  0  0  0
 18 21  1  0  0  0  0
 20 22  2  0  0  0  0
 20 42  1  0  0  0  0
 21 23  2  0  0  0  0
 21 43  1  0  0  0  0
 22 23  1  0  0  0  0
 22 25  1  0  0  0  0
 23 45  1  0  0  0  0
 24 26  1  0  0  0  0
 24 46  1  0  0  0  0
 24 47  1  0  0  0  0
 25 27  2  0  0  0  0
 25 28  1  0  0  0  0
 26 29  1  0  0  0  0
 26 48  1  0  0  0  0
 26 49  1  0  0  0  0
 27 30  1  0  0  0  0
 27 50  1  0  0  0  0
 28 31  2  0  0  0  0
 28 51  1  0  0  0  0
 29 52  1  0  0  0  0
 29 53  1  0  0  0  0
 29 54  1  0  0  0  0
 30 32  2  0  0  0  0
 30 33  1  0  0  0  0
 31 32  1  0  0  0  0
 31 55  1  0  0  0  0
 32 56  1  0  0  0  0
M  END
> <PUBCHEM_COMPOUND_CID>
7135513

> <PUBCHEM_CONFORMER_RMSD>
1

> <PUBCHEM_CONFORMER_DIVERSEORDER>
1
4
5
9
20
11
15
8
19
12
6
14
3
17
10
18
13
2
7
16

> <PUBCHEM_MMFF94_PARTIAL_CHARGES>
38
1 -0.34
10 -0.73
11 0.36
12 0.3
13 0.3
14 0.3
15 0.57
16 0.54
17 0.09
18 0.12
19 0.69
2 -0.34
20 -0.15
21 -0.15
23 -0.15
24 0.3
27 -0.15
28 -0.15
3 -0.34
30 -0.14
31 -0.15
32 -0.15
33 1.16
4 -0.57
41 0.37
42 0.15
43 0.15
44 0.37
45 0.15
5 -0.57
50 0.15
51 0.15
55 0.15
56 0.15
6 -0.57
7 -0.66
8 -0.66
9 -0.55

> <PUBCHEM_EFFECTIVE_ROTOR_COUNT>
7

> <PUBCHEM_PHARMACOPHORE_FEATURES>
10
1 10 donor
1 29 hydrophobe
1 4 acceptor
1 5 acceptor
1 6 acceptor
1 9 donor
6 17 18 20 21 22 23 rings
6 25 27 28 30 31 32 rings
6 7 8 11 12 13 14 rings
7 7 9 11 15 16 17 18 rings

> <PUBCHEM_HEAVY_ATOM_COUNT>
33

> <PUBCHEM_ATOM_DEF_STEREO_COUNT>
1

> <PUBCHEM_ATOM_UDEF_STEREO_COUNT>
0

> <PUBCHEM_BOND_DEF_STEREO_COUNT>
0

> <PUBCHEM_BOND_UDEF_STEREO_COUNT>
0

> <PUBCHEM_ISOTOPIC_ATOM_COUNT>
0

> <PUBCHEM_COMPONENT_COUNT>
1

> <PUBCHEM_CACTVS_TAUTO_COUNT>
6

> <PUBCHEM_CONFORMER_ID>
006CE11900000001

> <PUBCHEM_MMFF94_ENERGY>
96.0173

> <PUBCHEM_FEATURE_SELFOVERLAP>
50.774

> <PUBCHEM_SHAPE_FINGERPRINT>
10 15 18040715883455751400
10165383 225 18411418406520111746
11181472 205 17772477790199515569
12539765 74 17845942836182443271
12664476 115 18335139778974796012
12838862 33 18040705962413756647
12925494 130 18198057195718612656
14394314 77 18410293584982590725
14849402 71 18202285840135078161
14856354 85 16271922727897047309
15183329 4 11743851257136607908
15840311 113 18411422803996696748
15849732 13 18259990362255038919
16728433 110 18410295797370672721
19315958 150 18342182125075668623
21033648 29 18040432170758907517
21521721 280 18411981351698576371
21792934 111 18040995116043075260
22122407 14 17632308903615478752
22224240 67 18334858316260631163
24771293 8 18334574663993834901
2747138 104 17967825941672120225
34797466 226 18060142007403101838
3633792 109 18340771434308038105
4093350 32 17918276437191666742
4403749 210 18337111263405961483
444735 82 18335706026587998613
4625314 4 18342176635606324039
4760202 170 18341322328378982757
5104073 3 17896599475192562898
59682541 35 18186527609684154627
6201320 215 13046209556772175695

> <PUBCHEM_SHAPE_MULTIPOLES>
619.77
24.82
2.97
1.11
20.9
0.37
-0.09
18.38
-2.98
-3.9
-0.29
0.6
0.42
2.06

> <PUBCHEM_SHAPE_SELFOVERLAP>
1345.576

> <PUBCHEM_SHAPE_VOLUME>
336.9

> <PUBCHEM_COORDINATE_TYPE>
2
5
10

$$$$
