38031261
  -OEChem-12032416133D

 64 66  0     1  0  0  0  0  0999 V2000
   -0.9726    1.0512    0.9190 O   0  0  0  0  0  0  0  0  0  0  0  0
    2.4415   -3.3589   -0.8107 O   0  0  0  0  0  0  0  0  0  0  0  0
    1.9542   -4.2754    1.6733 O   0  0  0  0  0  0  0  0  0  0  0  0
   -6.4883   -1.5060   -0.7333 O   0  0  0  0  0  0  0  0  0  0  0  0
    3.7485   -1.5995   -0.0272 N   0  0  0  0  0  0  0  0  0  0  0  0
   -0.8334    3.1738    1.6115 N   0  0  0  0  0  0  0  0  0  0  0  0
   -2.1586    2.9042    1.3244 N   0  0  0  0  0  0  0  0  0  0  0  0
    2.0367    0.4822   -1.3612 C   0  0  1  0  0  0  0  0  0  0  0  0
    3.5845    0.4210   -1.3834 C   0  0  1  0  0  0  0  0  0  0  0  0
    1.5610    1.9039   -1.0256 C   0  0  0  0  0  0  0  0  0  0  0  0
    2.0882    2.3879    0.3384 C   0  0  2  0  0  0  0  0  0  0  0  0
    1.4305    0.0338   -2.6947 C   0  0  0  0  0  0  0  0  0  0  0  0
    3.5700    2.1146    0.4985 C   0  0  0  0  0  0  0  0  0  0  0  0
    4.2243    1.2424   -0.2888 C   0  0  0  0  0  0  0  0  0  0  0  0
    4.0821   -1.0261   -1.2932 C   0  0  0  0  0  0  0  0  0  0  0  0
    1.2886    1.7696    1.4906 C   0  0  0  0  0  0  0  0  0  0  0  0
    0.0053   -0.4694   -2.4890 C   0  0  0  0  0  0  0  0  0  0  0  0
    1.4602    1.1772   -3.7038 C   0  0  0  0  0  0  0  0  0  0  0  0
    4.2933    2.9015    1.5558 C   0  0  0  0  0  0  0  0  0  0  0  0
   -0.1783    2.0644    1.3607 C   0  0  0  0  0  0  0  0  0  0  0  0
    2.9468   -2.7315    0.1161 C   0  0  0  0  0  0  0  0  0  0  0  0
   -2.1926    1.6547    0.9239 C   0  0  0  0  0  0  0  0  0  0  0  0
    2.7583   -3.1199    1.5671 C   0  0  0  0  0  0  0  0  0  0  0  0
   -3.2959    0.8427    0.4994 C   0  0  0  0  0  0  0  0  0  0  0  0
   -4.5846    1.3760    0.4722 C   0  0  0  0  0  0  0  0  0  0  0  0
   -3.0803   -0.4801    0.1129 C   0  0  0  0  0  0  0  0  0  0  0  0
    1.7598   -4.6644    3.0299 C   0  0  0  0  0  0  0  0  0  0  0  0
   -5.6575    0.5865    0.0589 C   0  0  0  0  0  0  0  0  0  0  0  0
   -4.1533   -1.2698   -0.3002 C   0  0  0  0  0  0  0  0  0  0  0  0
   -5.4419   -0.7365   -0.3273 C   0  0  0  0  0  0  0  0  0  0  0  0
   -6.1964   -2.8499   -1.1144 C   0  0  0  0  0  0  0  0  0  0  0  0
    1.6670   -0.1863   -0.5742 H   0  0  0  0  0  0  0  0  0  0  0  0
    3.9542    0.8336   -2.3305 H   0  0  0  0  0  0  0  0  0  0  0  0
    0.4738    1.9972   -1.0935 H   0  0  0  0  0  0  0  0  0  0  0  0
    1.9646    2.6171   -1.7576 H   0  0  0  0  0  0  0  0  0  0  0  0
    1.9391    3.4771    0.3603 H   0  0  0  0  0  0  0  0  0  0  0  0
    2.0020   -0.8016   -3.1121 H   0  0  0  0  0  0  0  0  0  0  0  0
    5.2981    1.1212   -0.1596 H   0  0  0  0  0  0  0  0  0  0  0  0
    5.1757   -1.0549   -1.3717 H   0  0  0  0  0  0  0  0  0  0  0  0
    3.6950   -1.6438   -2.1082 H   0  0  0  0  0  0  0  0  0  0  0  0
    1.6226    2.1801    2.4511 H   0  0  0  0  0  0  0  0  0  0  0  0
    1.4425    0.6852    1.5484 H   0  0  0  0  0  0  0  0  0  0  0  0
   -0.4130   -0.8304   -3.4351 H   0  0  0  0  0  0  0  0  0  0  0  0
   -0.0175   -1.3044   -1.7804 H   0  0  0  0  0  0  0  0  0  0  0  0
   -0.6612    0.3130   -2.1135 H   0  0  0  0  0  0  0  0  0  0  0  0
    2.4523    1.6275   -3.8033 H   0  0  0  0  0  0  0  0  0  0  0  0
    1.1965    0.7883   -4.6953 H   0  0  0  0  0  0  0  0  0  0  0  0
    0.7271    1.9616   -3.4884 H   0  0  0  0  0  0  0  0  0  0  0  0
    4.1499    3.9750    1.3952 H   0  0  0  0  0  0  0  0  0  0  0  0
    5.3715    2.7091    1.5476 H   0  0  0  0  0  0  0  0  0  0  0  0
    3.9216    2.6450    2.5523 H   0  0  0  0  0  0  0  0  0  0  0  0
    4.1616   -1.1924    0.8073 H   0  0  0  0  0  0  0  0  0  0  0  0
    3.7445   -3.3089    2.0065 H   0  0  0  0  0  0  0  0  0  0  0  0
    2.2808   -2.2822    2.0888 H   0  0  0  0  0  0  0  0  0  0  0  0
   -4.7760    2.4045    0.7686 H   0  0  0  0  0  0  0  0  0  0  0  0
   -2.0907   -0.9302    0.1213 H   0  0  0  0  0  0  0  0  0  0  0  0
    1.1325   -5.5596    3.0439 H   0  0  0  0  0  0  0  0  0  0  0  0
    1.2510   -3.8708    3.5854 H   0  0  0  0  0  0  0  0  0  0  0  0
    2.7189   -4.9005    3.5007 H   0  0  0  0  0  0  0  0  0  0  0  0
   -6.6592    1.0073    0.0393 H   0  0  0  0  0  0  0  0  0  0  0  0
   -3.9152   -2.2883   -0.5872 H   0  0  0  0  0  0  0  0  0  0  0  0
   -7.1431   -3.3156   -1.4072 H   0  0  0  0  0  0  0  0  0  0  0  0
   -5.8015   -3.4299   -0.2733 H   0  0  0  0  0  0  0  0  0  0  0  0
   -5.5383   -2.8861   -1.9892 H   0  0  0  0  0  0  0  0  0  0  0  0
  1 20  1  0  0  0  0
  1 22  1  0  0  0  0
  2 21  2  0  0  0  0
  3 23  1  0  0  0  0
  3 27  1  0  0  0  0
  4 30  1  0  0  0  0
  4 31  1  0  0  0  0
  5 15  1  0  0  0  0
  5 21  1  0  0  0  0
  5 52  1  0  0  0  0
  6  7  1  0  0  0  0
  6 20  2  0  0  0  0
  7 22  2  0  0  0  0
  8  9  1  0  0  0  0
  8 10  1  0  0  0  0
  8 12  1  0  0  0  0
  8 32  1  0  0  0  0
  9 14  1  0  0  0  0
  9 15  1  0  0  0  0
  9 33  1  0  0  0  0
 10 11  1  0  0  0  0
 10 34  1  0  0  0  0
 10 35  1  0  0  0  0
 11 13  1  0  0  0  0
 11 16  1  0  0  0  0
 11 36  1  0  0  0  0
 12 17  1  0  0  0  0
 12 18  1  0  0  0  0
 12 37  1  0  0  0  0
 13 14  2  0  0  0  0
 13 19  1  0  0  0  0
 14 38  1  0  0  0  0
 15 39  1  0  0  0  0
 15 40  1  0  0  0  0
 16 20  1  0  0  0  0
 16 41  1  0  0  0  0
 16 42  1  0  0  0  0
 17 43  1  0  0  0  0
 17 44  1  0  0  0  0
 17 45  1  0  0  0  0
 18 46  1  0  0  0  0
 18 47  1  0  0  0  0
 18 48  1  0  0  0  0
 19 49  1  0  0  0  0
 19 50  1  0  0  0  0
 19 51  1  0  0  0  0
 21 23  1  0  0  0  0
 22 24  1  0  0  0  0
 23 53  1  0  0  0  0
 23 54  1  0  0  0  0
 24 25  2  0  0  0  0
 24 26  1  0  0  0  0
 25 28  1  0  0  0  0
 25 55  1  0  0  0  0
 26 29  2  0  0  0  0
 26 56  1  0  0  0  0
 27 57  1  0  0  0  0
 27 58  1  0  0  0  0
 27 59  1  0  0  0  0
 28 30  2  0  0  0  0
 28 60  1  0  0  0  0
 29 30  1  0  0  0  0
 29 61  1  0  0  0  0
 31 62  1  0  0  0  0
 31 63  1  0  0  0  0
 31 64  1  0  0  0  0
M  END
> <PUBCHEM_COMPOUND_CID>
38031261

> <PUBCHEM_CONFORMER_RMSD>
1

> <PUBCHEM_CONFORMER_DIVERSEORDER>
1
11
44
66
67
39
26
59
46
57
81
25
72
76
8
45
35
12
83
19
71
85
4
56
9
74
18
70
65
14
37
38
73
43
30
84
21
68
41
22
50
53
23
69
29
13
54
79
47
80
34
63
24
36
61
77
7
51
48
42
32
82
2
64
60
20
28
58
78
17
49
52
10
55
16
27
33
62
5
15
75
6
31
3
40

> <PUBCHEM_MMFF94_PARTIAL_CHARGES>
32
1 -0.28
11 0.14
13 -0.28
14 -0.29
15 0.3
16 0.18
19 0.14
2 -0.57
20 0.3
21 0.57
22 0.43
23 0.34
24 0.05
25 -0.15
26 -0.15
27 0.28
28 -0.15
29 -0.15
3 -0.56
30 0.08
31 0.28
38 0.15
4 -0.36
5 -0.73
52 0.37
55 0.15
56 0.15
6 -0.34
60 0.15
61 0.15
7 -0.34
9 0.14

> <PUBCHEM_EFFECTIVE_ROTOR_COUNT>
10.8

> <PUBCHEM_PHARMACOPHORE_FEATURES>
8
1 2 acceptor
1 3 acceptor
1 4 acceptor
1 5 donor
3 12 17 18 hydrophobe
5 1 6 7 20 22 rings
6 24 25 26 28 29 30 rings
6 8 9 10 11 13 14 rings

> <PUBCHEM_HEAVY_ATOM_COUNT>
31

> <PUBCHEM_ATOM_DEF_STEREO_COUNT>
3

> <PUBCHEM_ATOM_UDEF_STEREO_COUNT>
0

> <PUBCHEM_BOND_DEF_STEREO_COUNT>
0

> <PUBCHEM_BOND_UDEF_STEREO_COUNT>
0

> <PUBCHEM_ISOTOPIC_ATOM_COUNT>
0

> <PUBCHEM_COMPONENT_COUNT>
1

> <PUBCHEM_CACTVS_TAUTO_COUNT>
2

> <PUBCHEM_CONFORMER_ID>
02444F9D00000001

> <PUBCHEM_MMFF94_ENERGY>
69.1929

> <PUBCHEM_FEATURE_SELFOVERLAP>
40.604

> <PUBCHEM_SHAPE_FINGERPRINT>
11186622 123 18413670197390285403
11796584 16 18059020471288773333
12156800 1 15551596479209265870
12977781 61 17318973236806838180
131258 38 18337946780199478894
13165053 137 13283186897588269043
13402501 40 17702953663898431789
13583140 156 18268419158032276428
13761468 95 11375027945532203506
15003188 105 18410852149035996090
17138139 8 18340501014271588590
17492 89 17987809513909254638
19315092 285 18335126558226903010
20775530 9 16812936079751049994
21197605 99 17057806493011029669
23559900 14 17415862201145987589
25222932 49 18058160803582615727
404807 78 17607813012915525011
439807 62 18340772637273661303
444735 86 18270950367101411239
46194498 28 16011606786467252528
463206 1 18340210781766884219
484985 159 16458254433257109562
5104073 3 17417822733568414113
513532 50 16298390201137843156
59025328 239 17459750320064891158
66674814 147 17822300024465014506
6823239 73 16986898756123547572

> <PUBCHEM_SHAPE_MULTIPOLES>
599.55
11.95
5.01
2.71
20.91
6.08
-1.4
3.62
-1.75
-4.01
4.57
-2.3
0.65
-2.23

> <PUBCHEM_SHAPE_SELFOVERLAP>
1251.077

> <PUBCHEM_SHAPE_VOLUME>
340.4

> <PUBCHEM_COORDINATE_TYPE>
2
5
10

$$$$
