7050197
  -OEChem-12032416413D

 56 58  0     1  0  0  0  0  0999 V2000
   -1.1591    2.4008   -1.3316 O   0  0  0  0  0  0  0  0  0  0  0  0
    2.9295    3.6551    0.1576 O   0  0  0  0  0  0  0  0  0  0  0  0
    0.8001    5.0171    1.4684 O   0  0  0  0  0  0  0  0  0  0  0  0
   -2.9327    1.7615    1.3649 O   0  0  0  0  0  0  0  0  0  0  0  0
    2.5247   -0.1254   -2.0841 O   0  0  0  0  0  0  0  0  0  0  0  0
    4.6923   -0.8706    0.6385 O   0  0  0  0  0  0  0  0  0  0  0  0
   -4.6989    0.6547   -2.0285 O   0  0  0  0  0  0  0  0  0  0  0  0
    2.6189    0.7636    0.0317 N   0  0  0  0  0  0  0  0  0  0  0  0
   -2.5453    0.2551   -0.3672 N   0  0  0  0  0  0  0  0  0  0  0  0
   -6.0810   -0.1144   -0.3627 N   0  0  0  0  0  0  0  0  0  0  0  0
   -0.9712    2.0185    0.0260 C   0  0  1  0  0  0  0  0  0  0  0  0
    1.5424    1.7066   -0.1793 C   0  0  1  0  0  0  0  0  0  0  0  0
    0.2009    1.0431    0.1503 C   0  0  0  0  0  0  0  0  0  0  0  0
    1.7688    2.9786    0.6486 C   0  0  2  0  0  0  0  0  0  0  0  0
   -0.7425    3.2704    0.8703 C   0  0  0  0  0  0  0  0  0  0  0  0
    0.5892    3.9487    0.5450 C   0  0  1  0  0  0  0  0  0  0  0  0
   -2.2565    1.3538    0.4240 C   0  0  0  0  0  0  0  0  0  0  0  0
   -3.7149   -0.5716   -0.1755 C   0  0  2  0  0  0  0  0  0  0  0  0
    3.0432   -0.1090   -0.9663 C   0  0  0  0  0  0  0  0  0  0  0  0
   -3.4902   -2.0125   -0.6476 C   0  0  0  0  0  0  0  0  0  0  0  0
    4.1693   -0.9838   -0.6105 C   0  0  0  0  0  0  0  0  0  0  0  0
   -4.8509    0.0713   -0.9578 C   0  0  0  0  0  0  0  0  0  0  0  0
   -2.3532   -2.6930    0.0752 C   0  0  0  0  0  0  0  0  0  0  0  0
    4.8375   -1.9483   -1.3283 C   0  0  0  0  0  0  0  0  0  0  0  0
   -1.0562   -2.6111   -0.4315 C   0  0  0  0  0  0  0  0  0  0  0  0
   -2.5994   -3.4035    1.2502 C   0  0  0  0  0  0  0  0  0  0  0  0
    5.8351   -2.4606   -0.4649 C   0  0  0  0  0  0  0  0  0  0  0  0
    5.7054   -1.7728    0.7191 C   0  0  0  0  0  0  0  0  0  0  0  0
   -0.0054   -3.2398    0.2365 C   0  0  0  0  0  0  0  0  0  0  0  0
   -1.5484   -4.0321    1.9182 C   0  0  0  0  0  0  0  0  0  0  0  0
   -0.2514   -3.9502    1.4113 C   0  0  0  0  0  0  0  0  0  0  0  0
    1.5501    1.9777   -1.2434 H   0  0  0  0  0  0  0  0  0  0  0  0
    0.0758    0.1940   -0.5316 H   0  0  0  0  0  0  0  0  0  0  0  0
    0.2321    0.6225    1.1650 H   0  0  0  0  0  0  0  0  0  0  0  0
    1.9681    2.7346    1.6992 H   0  0  0  0  0  0  0  0  0  0  0  0
   -1.5498    4.0001    0.7195 H   0  0  0  0  0  0  0  0  0  0  0  0
   -0.7626    3.0252    1.9414 H   0  0  0  0  0  0  0  0  0  0  0  0
    0.5552    4.3957   -0.4559 H   0  0  0  0  0  0  0  0  0  0  0  0
    3.0501    0.7138    0.9507 H   0  0  0  0  0  0  0  0  0  0  0  0
   -1.8438    3.0907   -1.3650 H   0  0  0  0  0  0  0  0  0  0  0  0
    2.7814    3.8663   -0.7800 H   0  0  0  0  0  0  0  0  0  0  0  0
    0.0510    5.6311    1.3818 H   0  0  0  0  0  0  0  0  0  0  0  0
   -1.9851    0.0895   -1.1982 H   0  0  0  0  0  0  0  0  0  0  0  0
   -3.9630   -0.5608    0.8936 H   0  0  0  0  0  0  0  0  0  0  0  0
   -4.4092   -2.5990   -0.5161 H   0  0  0  0  0  0  0  0  0  0  0  0
   -3.2910   -2.0323   -1.7281 H   0  0  0  0  0  0  0  0  0  0  0  0
    4.6345   -2.2482   -2.3466 H   0  0  0  0  0  0  0  0  0  0  0  0
   -6.9259    0.2524   -0.7884 H   0  0  0  0  0  0  0  0  0  0  0  0
   -6.1939   -0.6184    0.5110 H   0  0  0  0  0  0  0  0  0  0  0  0
   -0.8502   -2.0679   -1.3497 H   0  0  0  0  0  0  0  0  0  0  0  0
   -3.6053   -3.4724    1.6558 H   0  0  0  0  0  0  0  0  0  0  0  0
    6.5580   -3.2345   -0.6788 H   0  0  0  0  0  0  0  0  0  0  0  0
    6.2279   -1.8053    1.6639 H   0  0  0  0  0  0  0  0  0  0  0  0
    1.0045   -3.1758   -0.1583 H   0  0  0  0  0  0  0  0  0  0  0  0
   -1.7397   -4.5846    2.8335 H   0  0  0  0  0  0  0  0  0  0  0  0
    0.5670   -4.4392    1.9315 H   0  0  0  0  0  0  0  0  0  0  0  0
  1 11  1  0  0  0  0
  1 40  1  0  0  0  0
  2 14  1  0  0  0  0
  2 41  1  0  0  0  0
  3 16  1  0  0  0  0
  3 42  1  0  0  0  0
  4 17  2  0  0  0  0
  5 19  2  0  0  0  0
  6 21  1  0  0  0  0
  6 28  1  0  0  0  0
  7 22  2  0  0  0  0
  8 12  1  0  0  0  0
  8 19  1  0  0  0  0
  8 39  1  0  0  0  0
  9 17  1  0  0  0  0
  9 18  1  0  0  0  0
  9 43  1  0  0  0  0
 10 22  1  0  0  0  0
 10 48  1  0  0  0  0
 10 49  1  0  0  0  0
 11 13  1  0  0  0  0
 11 15  1  0  0  0  0
 11 17  1  0  0  0  0
 12 13  1  0  0  0  0
 12 14  1  0  0  0  0
 12 32  1  0  0  0  0
 13 33  1  0  0  0  0
 13 34  1  0  0  0  0
 14 16  1  0  0  0  0
 14 35  1  0  0  0  0
 15 16  1  0  0  0  0
 15 36  1  0  0  0  0
 15 37  1  0  0  0  0
 16 38  1  0  0  0  0
 18 20  1  0  0  0  0
 18 22  1  0  0  0  0
 18 44  1  0  0  0  0
 19 21  1  0  0  0  0
 20 23  1  0  0  0  0
 20 45  1  0  0  0  0
 20 46  1  0  0  0  0
 21 24  2  0  0  0  0
 23 25  2  0  0  0  0
 23 26  1  0  0  0  0
 24 27  1  0  0  0  0
 24 47  1  0  0  0  0
 25 29  1  0  0  0  0
 25 50  1  0  0  0  0
 26 30  2  0  0  0  0
 26 51  1  0  0  0  0
 27 28  2  0  0  0  0
 27 52  1  0  0  0  0
 28 53  1  0  0  0  0
 29 31  2  0  0  0  0
 29 54  1  0  0  0  0
 30 31  1  0  0  0  0
 30 55  1  0  0  0  0
 31 56  1  0  0  0  0
M  END
> <PUBCHEM_COMPOUND_CID>
7050197

> <PUBCHEM_CONFORMER_RMSD>
1

> <PUBCHEM_CONFORMER_DIVERSEORDER>
1
145
140
49
119
25
22
163
180
179
170
169
142
90
182
79
124
161
66
132
55
81
104
18
144
101
120
134
174
168
27
29
154
93
44
33
165
65
152
92
91
184
40
10
87
20
11
151
85
160
157
54
71
39
113
109
107
181
83
127
148
131
141
122
100
171
135
86
64
47
74
12
137
102
21
95
69
53
177
164
117
97
19
23
106
13
72
35
139
96
28
176
6
67
149
5
89
116
125
34
59
136
153
60
128
50
112
172
143
126
167
103
123
138
156
133
78
99
58
37
115
175
46
43
130
111
32
4
8
51
30
98
75
118
173
3
94
52
178
62
48
17
105
14
24
146
42
73
162
26
108
9
121
2
88
114
158
15
76
70
166
77
57
110
84
7
38
36
61
41
68
63
82
80
147
159
150
56
129
31
183
155
45
16

> <PUBCHEM_MMFF94_PARTIAL_CHARGES>
44
1 -0.68
10 -0.8
11 0.34
12 0.3
14 0.28
16 0.28
17 0.57
18 0.36
19 0.71
2 -0.68
20 0.14
21 0.05
22 0.57
23 -0.14
24 -0.15
25 -0.15
26 -0.15
27 -0.15
28 -0.01
29 -0.15
3 -0.68
30 -0.15
31 -0.15
39 0.37
4 -0.57
40 0.4
41 0.4
42 0.4
43 0.37
47 0.15
48 0.37
49 0.37
5 -0.57
50 0.15
51 0.15
52 0.15
53 0.15
54 0.15
55 0.15
56 0.15
6 -0.28
7 -0.57
8 -0.73
9 -0.73

> <PUBCHEM_EFFECTIVE_ROTOR_COUNT>
10.2

> <PUBCHEM_PHARMACOPHORE_FEATURES>
16
1 1 acceptor
1 1 donor
1 10 donor
1 2 acceptor
1 2 donor
1 3 acceptor
1 3 donor
1 4 acceptor
1 5 acceptor
1 6 acceptor
1 7 acceptor
1 8 donor
1 9 donor
5 6 21 24 27 28 rings
6 11 12 13 14 15 16 rings
6 23 25 26 29 30 31 rings

> <PUBCHEM_HEAVY_ATOM_COUNT>
31

> <PUBCHEM_ATOM_DEF_STEREO_COUNT>
5

> <PUBCHEM_ATOM_UDEF_STEREO_COUNT>
0

> <PUBCHEM_BOND_DEF_STEREO_COUNT>
0

> <PUBCHEM_BOND_UDEF_STEREO_COUNT>
0

> <PUBCHEM_ISOTOPIC_ATOM_COUNT>
0

> <PUBCHEM_COMPONENT_COUNT>
1

> <PUBCHEM_CACTVS_TAUTO_COUNT>
8

> <PUBCHEM_CONFORMER_ID>
006B93D500000001

> <PUBCHEM_MMFF94_ENERGY>
64.049

> <PUBCHEM_FEATURE_SELFOVERLAP>
81.218

> <PUBCHEM_SHAPE_FINGERPRINT>
1100329 8 18410293627198865363
12202916 173 18271514313144640262
12553582 1 18270421424324175092
12712778 12 18261944198760251290
12788726 201 18338809914175444190
13140716 1 18339090383617981195
13402501 40 18412262818006543182
14251757 5 18262532437496994030
14394314 77 18268431226457685976
14659021 117 18339078186470101480
14725015 67 18410288091038651227
15351339 4 18117548531818278963
15420108 30 17195747571527012065
16112460 7 18342188786174163457
17627616 140 17828482466478739562
19315092 285 15768346487705591215
19611394 137 18342448216006637106
21133410 32 16374135648135114442
22440779 20 16809586202469833307
23559900 14 18270394022401450856
24893992 56 18335421262926647383
3027735 51 18192429667405108625
3298306 158 18261659390941354631
3383291 50 18409730655855718507
4394409 98 17897706700534369654
463206 1 18409453552748870347
474144 1 17460297872671774954
508706 21 18195265337995578270
6138700 20 18410009897512342183
7226269 152 18409167680010771182
9709674 26 18123467443470456943
9896288 288 17622182165095303488

> <PUBCHEM_SHAPE_MULTIPOLES>
581.94
10.57
6.46
1.47
6.09
2.24
-0.11
-6.66
-3.52
0.58
3.72
-0.37
-0.35
1.37

> <PUBCHEM_SHAPE_SELFOVERLAP>
1238.566

> <PUBCHEM_SHAPE_VOLUME>
320.5

> <PUBCHEM_COORDINATE_TYPE>
2
5
10

$$$$
