26761815
  -OEChem-12032416313D

 40 42  0     1  0  0  0  0  0999 V2000
    0.6808    2.6845   -0.1082 O   0  0  0  0  0  0  0  0  0  0  0  0
    2.6069    2.3626    1.1259 O   0  0  0  0  0  0  0  0  0  0  0  0
   -5.8254   -0.8740    1.3365 O   0  0  0  0  0  0  0  0  0  0  0  0
   -6.1028    0.6402   -0.3358 O   0  0  0  0  0  0  0  0  0  0  0  0
    0.9750    0.0792   -0.7909 N   0  0  1  0  0  0  0  0  0  0  0  0
    4.4795   -1.2573   -1.0737 N   0  0  0  0  0  0  0  0  0  0  0  0
    4.3887   -1.4328    1.1537 N   0  0  0  0  0  0  0  0  0  0  0  0
    1.1490    0.5079    0.6228 C   0  0  1  0  0  0  0  0  0  0  0  0
    2.1197   -0.3448    1.4881 C   0  0  0  0  0  0  0  0  0  0  0  0
    2.2558   -0.0743   -1.5332 C   0  0  0  0  0  0  0  0  0  0  0  0
    3.2964   -0.7032   -0.6902 C   0  0  0  0  0  0  0  0  0  0  0  0
    3.2658   -0.8175    0.6774 C   0  0  0  0  0  0  0  0  0  0  0  0
    0.1708   -1.1435   -0.8701 C   0  0  0  0  0  0  0  0  0  0  0  0
    1.5872    1.9460    0.5933 C   0  0  0  0  0  0  0  0  0  0  0  0
   -1.2805   -0.8806   -0.5682 C   0  0  0  0  0  0  0  0  0  0  0  0
    5.1022   -1.6837    0.0734 C   0  0  0  0  0  0  0  0  0  0  0  0
   -2.0001    0.0303   -1.3418 C   0  0  0  0  0  0  0  0  0  0  0  0
   -1.9061   -1.5488    0.4844 C   0  0  0  0  0  0  0  0  0  0  0  0
   -3.3451    0.2729   -1.0627 C   0  0  0  0  0  0  0  0  0  0  0  0
   -3.2511   -1.3061    0.7636 C   0  0  0  0  0  0  0  0  0  0  0  0
   -3.9705   -0.3951   -0.0099 C   0  0  0  0  0  0  0  0  0  0  0  0
    0.9766    4.0806   -0.2160 C   0  0  0  0  0  0  0  0  0  0  0  0
   -5.3728   -0.1423    0.2816 C   0  0  0  0  0  0  0  0  0  0  0  0
    0.1871    0.5348    1.1525 H   0  0  0  0  0  0  0  0  0  0  0  0
    1.5839   -1.2264    1.8615 H   0  0  0  0  0  0  0  0  0  0  0  0
    2.4780    0.2075    2.3637 H   0  0  0  0  0  0  0  0  0  0  0  0
    2.6012    0.9246   -1.8277 H   0  0  0  0  0  0  0  0  0  0  0  0
    2.1121   -0.6280   -2.4684 H   0  0  0  0  0  0  0  0  0  0  0  0
    0.5707   -1.9416   -0.2322 H   0  0  0  0  0  0  0  0  0  0  0  0
    0.1913   -1.5471   -1.8920 H   0  0  0  0  0  0  0  0  0  0  0  0
    4.8361   -1.3389   -2.0168 H   0  0  0  0  0  0  0  0  0  0  0  0
    6.0688   -2.1664    0.0498 H   0  0  0  0  0  0  0  0  0  0  0  0
   -1.5277    0.5547   -2.1683 H   0  0  0  0  0  0  0  0  0  0  0  0
   -1.3569   -2.2599    1.0959 H   0  0  0  0  0  0  0  0  0  0  0  0
   -3.8883    0.9855   -1.6778 H   0  0  0  0  0  0  0  0  0  0  0  0
   -3.6983   -1.8477    1.5924 H   0  0  0  0  0  0  0  0  0  0  0  0
    0.1791    4.5532   -0.7955 H   0  0  0  0  0  0  0  0  0  0  0  0
    1.9259    4.2266   -0.7403 H   0  0  0  0  0  0  0  0  0  0  0  0
    1.0083    4.5387    0.7772 H   0  0  0  0  0  0  0  0  0  0  0  0
   -6.7716   -0.6963    1.5246 H   0  0  0  0  0  0  0  0  0  0  0  0
  1 14  1  0  0  0  0
  1 22  1  0  0  0  0
  2 14  2  0  0  0  0
  3 23  1  0  0  0  0
  3 40  1  0  0  0  0
  4 23  2  0  0  0  0
  5  8  1  0  0  0  0
  5 10  1  0  0  0  0
  5 13  1  0  0  0  0
  6 11  1  0  0  0  0
  6 16  1  0  0  0  0
  6 31  1  0  0  0  0
  7 12  1  0  0  0  0
  7 16  2  0  0  0  0
  8  9  1  0  0  0  0
  8 14  1  0  0  0  0
  8 24  1  0  0  0  0
  9 12  1  0  0  0  0
  9 25  1  0  0  0  0
  9 26  1  0  0  0  0
 10 11  1  0  0  0  0
 10 27  1  0  0  0  0
 10 28  1  0  0  0  0
 11 12  2  0  0  0  0
 13 15  1  0  0  0  0
 13 29  1  0  0  0  0
 13 30  1  0  0  0  0
 15 17  2  0  0  0  0
 15 18  1  0  0  0  0
 16 32  1  0  0  0  0
 17 19  1  0  0  0  0
 17 33  1  0  0  0  0
 18 20  2  0  0  0  0
 18 34  1  0  0  0  0
 19 21  2  0  0  0  0
 19 35  1  0  0  0  0
 20 21  1  0  0  0  0
 20 36  1  0  0  0  0
 21 23  1  0  0  0  0
 22 37  1  0  0  0  0
 22 38  1  0  0  0  0
 22 39  1  0  0  0  0
M  END
> <PUBCHEM_COMPOUND_CID>
26761815

> <PUBCHEM_CONFORMER_RMSD>
0.8

> <PUBCHEM_CONFORMER_DIVERSEORDER>
1
23
26
7
28
18
31
20
30
29
21
19
4
14
27
15
22
10
8
16
32
25
11
3
6
24
2
12
5
17
13
9

> <PUBCHEM_MMFF94_PARTIAL_CHARGES>
30
1 -0.43
10 0.45
11 -0.33
12 0.05
13 0.41
14 0.66
15 -0.14
16 0.04
17 -0.15
18 -0.15
19 -0.15
2 -0.57
20 -0.15
21 0.09
22 0.28
23 0.63
3 -0.65
31 0.27
32 0.15
33 0.15
34 0.15
35 0.15
36 0.15
4 -0.57
40 0.5
5 -0.81
6 0.03
7 -0.57
8 0.33
9 0.18

> <PUBCHEM_EFFECTIVE_ROTOR_COUNT>
5.8

> <PUBCHEM_PHARMACOPHORE_FEATURES>
10
1 2 acceptor
1 3 acceptor
1 4 acceptor
1 5 cation
1 6 donor
3 3 4 23 anion
3 6 7 16 cation
5 6 7 11 12 16 rings
6 15 17 18 19 20 21 rings
6 5 8 9 10 11 12 rings

> <PUBCHEM_HEAVY_ATOM_COUNT>
23

> <PUBCHEM_ATOM_DEF_STEREO_COUNT>
1

> <PUBCHEM_ATOM_UDEF_STEREO_COUNT>
0

> <PUBCHEM_BOND_DEF_STEREO_COUNT>
0

> <PUBCHEM_BOND_UDEF_STEREO_COUNT>
0

> <PUBCHEM_ISOTOPIC_ATOM_COUNT>
0

> <PUBCHEM_COMPONENT_COUNT>
1

> <PUBCHEM_CACTVS_TAUTO_COUNT>
2

> <PUBCHEM_CONFORMER_ID>
01985A5700000001

> <PUBCHEM_MMFF94_ENERGY>
59.8476

> <PUBCHEM_FEATURE_SELFOVERLAP>
50.901

> <PUBCHEM_SHAPE_FINGERPRINT>
10366900 7 17676203576881621443
10369192 42 17610907064326775708
11045977 3 18186802504865874155
11405975 8 18270965751679546771
11545043 162 17967819362404663155
12166972 35 18131349730908857497
12236239 1 15936415524451024903
12403259 415 18113609089420036581
12553582 1 18338219493294822746
12616971 3 17846781849754280167
12633257 1 18340218444383997235
12788726 201 18263365781426878330
128620 24 8142087567678962691
13134695 92 18411978087639554196
13140716 1 18200307852654135471
14341114 176 18410578409463683953
14466204 15 18267868289905760753
14866123 147 16968007844746206258
14950920 106 18193867996719443083
15238133 3 18337400335641267669
15295992 7 18337114557344631907
15375358 24 11312058759863177439
15420108 30 17486470875603862292
15527383 91 18272366486321718104
15885798 251 18412543176523306446
17349148 13 17846784018227467835
17357779 13 17987784212415429044
17804303 29 18187082862665992479
1813 80 18202010893497328020
18785283 64 18338801242034956837
192875 21 17418097624222726483
20715895 44 13829865560856318947
20739085 24 18342744030787592904
21033648 29 17488727987806673235
21041028 32 18343582923652271569
21054139 6 7925333092543257337
21285901 2 17987809479781638190
21503847 285 18413387652882321889
22149856 69 10159138441416183317
22393880 68 7925372760507697442
23175994 123 18411140207901763215
23558518 356 17981594176415143614
23559900 14 17458348589169083591
3004659 81 17822013060931678962
3052486 1 18196097646437605592
312423 11 18198056091843328903
3411729 13 18268988868501507232
345986 75 17897427411912200394
5104073 3 18200036273915130003
5283268 108 18342738498843283576
57724786 102 18342742965815097321
6786 2 17178012891173112396
6913067 236 9871463180264309339
7495541 125 18334018323699708431
81228 2 18055927498066898576
8509985 295 18411420604857565127
8863177 126 18042135413171223187
9971528 1 17203615860911931446

> <PUBCHEM_SHAPE_MULTIPOLES>
434.91
11.2
2.67
1.34
11.17
3.99
0.04
-4.95
-1.69
-2.39
-0.3
-0.32
-0.17
0.74

> <PUBCHEM_SHAPE_SELFOVERLAP>
942.022

> <PUBCHEM_SHAPE_VOLUME>
237.5

> <PUBCHEM_COORDINATE_TYPE>
2
5
10

$$$$
