11913351
  -OEChem-12032416163D

 49 52  0     1  0  0  0  0  0999 V2000
    3.2560    3.4681   -1.6696 F   0  0  0  0  0  0  0  0  0  0  0  0
   -2.4190   -2.5886   -1.3693 O   0  0  0  0  0  0  0  0  0  0  0  0
   -1.1029    0.1481   -1.9952 O   0  0  0  0  0  0  0  0  0  0  0  0
   -5.7507   -0.1417    0.2442 O   0  0  0  0  0  0  0  0  0  0  0  0
   -6.2239    1.9654    1.8512 O   0  0  0  0  0  0  0  0  0  0  0  0
   -3.7215    0.7371   -0.4789 N   0  0  0  0  0  0  0  0  0  0  0  0
    0.3085   -2.4888    0.1034 N   0  0  0  0  0  0  0  0  0  0  0  0
    2.1084   -0.9919    0.2653 N   0  0  0  0  0  0  0  0  0  0  0  0
    1.7457   -2.6776    1.9488 N   0  0  0  0  0  0  0  0  0  0  0  0
   -1.0447   -0.7188   -0.8483 C   0  0  1  0  0  0  0  0  0  0  0  0
   -2.4241   -1.3255   -0.6809 C   0  0  1  0  0  0  0  0  0  0  0  0
   -0.1543   -1.9044   -1.1363 C   0  0  2  0  0  0  0  0  0  0  0  0
   -3.3459   -0.3503   -1.3800 C   0  0  2  0  0  0  0  0  0  0  0  0
   -1.0936   -2.8597   -1.8501 C   0  0  0  0  0  0  0  0  0  0  0  0
   -2.4512    0.1863   -2.4869 C   0  0  0  0  0  0  0  0  0  0  0  0
   -4.8986    0.7425    0.2567 C   0  0  0  0  0  0  0  0  0  0  0  0
    1.4206   -2.0393    0.7932 C   0  0  0  0  0  0  0  0  0  0  0  0
   -5.0264    1.9906    1.1038 C   0  0  0  0  0  0  0  0  0  0  0  0
    3.1869   -0.5798    0.9634 C   0  0  0  0  0  0  0  0  0  0  0  0
    2.8354   -2.2137    2.5951 C   0  0  0  0  0  0  0  0  0  0  0  0
    3.6017   -1.1580    2.1457 C   0  0  0  0  0  0  0  0  0  0  0  0
    3.9016    0.5335    0.3864 C   0  0  0  0  0  0  0  0  0  0  0  0
   -6.3705    3.1298    2.6588 C   0  0  0  0  0  0  0  0  0  0  0  0
    3.2206    1.4834   -0.3784 C   0  0  0  0  0  0  0  0  0  0  0  0
    5.2771    0.6651    0.5907 C   0  0  0  0  0  0  0  0  0  0  0  0
    3.9116    2.5593   -0.9359 C   0  0  0  0  0  0  0  0  0  0  0  0
    5.9679    1.7409    0.0332 C   0  0  0  0  0  0  0  0  0  0  0  0
    5.2852    2.6880   -0.7300 C   0  0  0  0  0  0  0  0  0  0  0  0
   -0.7402   -0.1078    0.0074 H   0  0  0  0  0  0  0  0  0  0  0  0
   -2.6827   -1.5208    0.3647 H   0  0  0  0  0  0  0  0  0  0  0  0
    0.6903   -1.6723   -1.7952 H   0  0  0  0  0  0  0  0  0  0  0  0
   -4.2521   -0.8136   -1.7825 H   0  0  0  0  0  0  0  0  0  0  0  0
   -0.8598   -3.9167   -1.6896 H   0  0  0  0  0  0  0  0  0  0  0  0
   -1.0973   -2.6699   -2.9292 H   0  0  0  0  0  0  0  0  0  0  0  0
   -2.6953    1.2068   -2.7977 H   0  0  0  0  0  0  0  0  0  0  0  0
   -2.4928   -0.4613   -3.3697 H   0  0  0  0  0  0  0  0  0  0  0  0
   -0.2264   -3.2354    0.5325 H   0  0  0  0  0  0  0  0  0  0  0  0
   -3.0609    1.4989   -0.3517 H   0  0  0  0  0  0  0  0  0  0  0  0
   -5.0189    2.8624    0.4391 H   0  0  0  0  0  0  0  0  0  0  0  0
   -4.1653    2.0405    1.7804 H   0  0  0  0  0  0  0  0  0  0  0  0
    3.0800   -2.7280    3.5185 H   0  0  0  0  0  0  0  0  0  0  0  0
    4.4504   -0.8219    2.7273 H   0  0  0  0  0  0  0  0  0  0  0  0
   -7.3117    3.0496    3.2092 H   0  0  0  0  0  0  0  0  0  0  0  0
   -5.5487    3.2019    3.3777 H   0  0  0  0  0  0  0  0  0  0  0  0
   -6.4054    4.0267    2.0330 H   0  0  0  0  0  0  0  0  0  0  0  0
    2.1488    1.4187   -0.5503 H   0  0  0  0  0  0  0  0  0  0  0  0
    5.8528   -0.0623    1.1567 H   0  0  0  0  0  0  0  0  0  0  0  0
    7.0386    1.8386    0.1882 H   0  0  0  0  0  0  0  0  0  0  0  0
    5.8231    3.5250   -1.1653 H   0  0  0  0  0  0  0  0  0  0  0  0
  1 26  1  0  0  0  0
  2 11  1  0  0  0  0
  2 14  1  0  0  0  0
  3 10  1  0  0  0  0
  3 15  1  0  0  0  0
  4 16  2  0  0  0  0
  5 18  1  0  0  0  0
  5 23  1  0  0  0  0
  6 13  1  0  0  0  0
  6 16  1  0  0  0  0
  6 38  1  0  0  0  0
  7 12  1  0  0  0  0
  7 17  1  0  0  0  0
  7 37  1  0  0  0  0
  8 17  1  0  0  0  0
  8 19  2  0  0  0  0
  9 17  2  0  0  0  0
  9 20  1  0  0  0  0
 10 11  1  0  0  0  0
 10 12  1  0  0  0  0
 10 29  1  0  0  0  0
 11 13  1  0  0  0  0
 11 30  1  0  0  0  0
 12 14  1  0  0  0  0
 12 31  1  0  0  0  0
 13 15  1  0  0  0  0
 13 32  1  0  0  0  0
 14 33  1  0  0  0  0
 14 34  1  0  0  0  0
 15 35  1  0  0  0  0
 15 36  1  0  0  0  0
 16 18  1  0  0  0  0
 18 39  1  0  0  0  0
 18 40  1  0  0  0  0
 19 21  1  0  0  0  0
 19 22  1  0  0  0  0
 20 21  2  0  0  0  0
 20 41  1  0  0  0  0
 21 42  1  0  0  0  0
 22 24  2  0  0  0  0
 22 25  1  0  0  0  0
 23 43  1  0  0  0  0
 23 44  1  0  0  0  0
 23 45  1  0  0  0  0
 24 26  1  0  0  0  0
 24 46  1  0  0  0  0
 25 27  2  0  0  0  0
 25 47  1  0  0  0  0
 26 28  2  0  0  0  0
 27 28  1  0  0  0  0
 27 48  1  0  0  0  0
 28 49  1  0  0  0  0
M  END
> <PUBCHEM_COMPOUND_CID>
11913351

> <PUBCHEM_CONFORMER_RMSD>
1

> <PUBCHEM_CONFORMER_DIVERSEORDER>
1
187
209
164
10
185
109
41
56
76
149
207
178
13
78
65
181
96
201
174
135
79
179
204
106
37
68
197
196
66
80
125
154
103
188
118
110
19
35
157
166
214
170
122
20
177
162
129
45
148
87
98
114
59
75
195
105
9
193
165
39
145
32
7
77
47
163
55
61
22
158
93
72
206
50
172
169
133
217
168
51
115
101
194
142
102
21
33
52
119
160
216
156
99
53
131
108
167
213
58
140
31
92
184
132
100
36
120
91
137
69
85
88
95
212
180
205
215
74
141
64
150
143
44
97
152
14
124
117
159
138
94
134
161
121
192
155
203
49
147
4
130
43
60
221
218
200
190
202
8
153
86
28
144
83
220
48
57
38
123
27
198
67
219
139
176
189
128
191
171
223
113
111
30
82
183
90
5
25
208
6
222
104
116
73
173
182
3
211
17
210
126
18
112
136
63
89
70
16
146
71
62
151
29
24
15
54
40
11
34
175
42
84
2
12
23
186
127
199
107
26
81
46

> <PUBCHEM_MMFF94_PARTIAL_CHARGES>
35
1 -0.19
10 0.28
11 0.28
12 0.37
13 0.3
14 0.28
15 0.28
16 0.57
17 0.72
18 0.34
19 0.31
2 -0.56
20 0.16
21 -0.15
23 0.28
24 -0.15
25 -0.15
26 0.19
27 -0.15
28 -0.15
3 -0.56
37 0.4
38 0.37
4 -0.57
41 0.15
42 0.15
46 0.15
47 0.15
48 0.15
49 0.15
5 -0.56
6 -0.73
7 -0.87
8 -0.62
9 -0.62

> <PUBCHEM_EFFECTIVE_ROTOR_COUNT>
8.2

> <PUBCHEM_PHARMACOPHORE_FEATURES>
12
1 2 acceptor
1 3 acceptor
1 4 acceptor
1 5 acceptor
1 6 donor
1 7 donor
1 8 acceptor
4 7 8 9 17 cation
5 2 10 11 12 14 rings
5 3 10 11 13 15 rings
6 22 24 25 26 27 28 rings
6 8 9 17 19 20 21 rings

> <PUBCHEM_HEAVY_ATOM_COUNT>
28

> <PUBCHEM_ATOM_DEF_STEREO_COUNT>
4

> <PUBCHEM_ATOM_UDEF_STEREO_COUNT>
0

> <PUBCHEM_BOND_DEF_STEREO_COUNT>
0

> <PUBCHEM_BOND_UDEF_STEREO_COUNT>
0

> <PUBCHEM_ISOTOPIC_ATOM_COUNT>
0

> <PUBCHEM_COMPONENT_COUNT>
1

> <PUBCHEM_CACTVS_TAUTO_COUNT>
6

> <PUBCHEM_CONFORMER_ID>
00B5C88700000001

> <PUBCHEM_MMFF94_ENERGY>
78.6667

> <PUBCHEM_FEATURE_SELFOVERLAP>
61.614

> <PUBCHEM_SHAPE_FINGERPRINT>
10674148 151 18272380767858552676
10917259 128 17987501758993804160
11049842 53 17774431690617950478
1200032 147 18341910562313238928
13398642 44 17314238949996172740
13583140 156 17315614232762809247
13782708 43 15575264373335478122
13828863 39 18335146422692967313
14341114 328 18410286995953963747
14765038 42 18263085564802362692
14848178 5 14129350546635431611
14950920 106 17749665174053107697
15163728 17 17846226527230318479
15183329 4 14333135165134558175
15238133 3 17846204523743609274
15297060 5 17703799106255446784
15475509 8 18337388246178988330
16067690 210 17632294622412324024
16120349 67 17775016669209744913
1768 23 18271533022158974193
19304671 126 14835829639681426955
21033650 10 17060048289714272775
21049683 118 15218703944779346447
21120745 212 17907571777106044463
21458453 9 16444490059120493289
21585480 29 17314247699145144491
21756936 100 17988920102431766599
21796203 349 17461705222044221642
23845131 108 17386553786615760778
3178227 256 17603300450191950096
3459 110 17458628972765217283
3680242 22 17823676699565647528
38570 142 18334586758721810942
392239 28 17458059395656204563
437795 70 14189306906807273801
474 4 17823958199953510926
5081480 168 18057043502416863854
5252454 2 18262783185918544228
57634706 229 17679316419170703416
57724786 102 18340205180886865307
7808743 9 18202561795872564807

> <PUBCHEM_SHAPE_MULTIPOLES>
525.55
14.68
3.94
2.5
10.11
0.88
-0.78
16.4
-6.42
-0.09
-0.41
1.39
-0.14
-6.6

> <PUBCHEM_SHAPE_SELFOVERLAP>
1134.892

> <PUBCHEM_SHAPE_VOLUME>
289.3

> <PUBCHEM_COORDINATE_TYPE>
2
5
10

$$$$
