51137402
  -OEChem-12032416143D

 46 49  0     1  0  0  0  0  0999 V2000
   -6.4284   -1.0806    0.7933 O   0  0  0  0  0  0  0  0  0  0  0  0
    1.0789    0.8197    0.3096 O   0  0  0  0  0  0  0  0  0  0  0  0
   -2.7910    0.2970   -0.7873 N   0  0  1  0  0  0  0  0  0  0  0  0
    1.2555    2.9068   -0.4760 N   0  0  0  0  0  0  0  0  0  0  0  0
    2.3831    2.6369    0.2769 N   0  0  0  0  0  0  0  0  0  0  0  0
   -3.7168   -0.4238    0.0832 C   0  0  0  0  0  0  0  0  0  0  0  0
   -0.8165    1.5310   -1.0668 C   0  0  2  0  0  0  0  0  0  0  0  0
   -1.9079    1.1960   -0.0413 C   0  0  0  0  0  0  0  0  0  0  0  0
   -1.8910   -0.6021   -1.5095 C   0  0  0  0  0  0  0  0  0  0  0  0
   -0.8249    0.3442   -2.0462 C   0  0  0  0  0  0  0  0  0  0  0  0
   -4.5540   -1.4287   -0.7142 C   0  0  0  0  0  0  0  0  0  0  0  0
   -4.6349    0.5595    0.8148 C   0  0  0  0  0  0  0  0  0  0  0  0
   -5.6040   -2.0740    0.1836 C   0  0  0  0  0  0  0  0  0  0  0  0
   -5.6805   -0.1960    1.6278 C   0  0  0  0  0  0  0  0  0  0  0  0
    0.5231    1.8186   -0.4291 C   0  0  0  0  0  0  0  0  0  0  0  0
    2.2370    1.4084    0.7155 C   0  0  0  0  0  0  0  0  0  0  0  0
    3.1298    0.6040    1.5590 C   0  0  0  0  0  0  0  0  0  0  0  0
    3.9535   -0.4355    0.8062 C   0  0  0  0  0  0  0  0  0  0  0  0
    3.3750   -1.6497    0.4366 C   0  0  0  0  0  0  0  0  0  0  0  0
    5.2856   -0.1719    0.4874 C   0  0  0  0  0  0  0  0  0  0  0  0
    4.1286   -2.6005   -0.2518 C   0  0  0  0  0  0  0  0  0  0  0  0
    6.0392   -1.1225   -0.2010 C   0  0  0  0  0  0  0  0  0  0  0  0
    5.4607   -2.3368   -0.5706 C   0  0  0  0  0  0  0  0  0  0  0  0
   -3.1516   -0.9875    0.8403 H   0  0  0  0  0  0  0  0  0  0  0  0
   -1.1145    2.4299   -1.6244 H   0  0  0  0  0  0  0  0  0  0  0  0
   -2.4153    2.1139    0.2748 H   0  0  0  0  0  0  0  0  0  0  0  0
   -1.4888    0.7082    0.8485 H   0  0  0  0  0  0  0  0  0  0  0  0
   -1.4285   -1.3421   -0.8436 H   0  0  0  0  0  0  0  0  0  0  0  0
   -2.3793   -1.1242   -2.3380 H   0  0  0  0  0  0  0  0  0  0  0  0
   -1.1065    0.7009   -3.0449 H   0  0  0  0  0  0  0  0  0  0  0  0
    0.1453   -0.1562   -2.1341 H   0  0  0  0  0  0  0  0  0  0  0  0
   -3.9376   -2.2239   -1.1465 H   0  0  0  0  0  0  0  0  0  0  0  0
   -5.0620   -0.9109   -1.5384 H   0  0  0  0  0  0  0  0  0  0  0  0
   -5.1481    1.1968    0.0826 H   0  0  0  0  0  0  0  0  0  0  0  0
   -4.0773    1.2127    1.4942 H   0  0  0  0  0  0  0  0  0  0  0  0
   -5.1398   -2.6908    0.9621 H   0  0  0  0  0  0  0  0  0  0  0  0
   -6.2525   -2.7252   -0.4111 H   0  0  0  0  0  0  0  0  0  0  0  0
   -6.3843    0.5114    2.0778 H   0  0  0  0  0  0  0  0  0  0  0  0
   -5.2182   -0.7663    2.4421 H   0  0  0  0  0  0  0  0  0  0  0  0
    3.8079    1.2705    2.1072 H   0  0  0  0  0  0  0  0  0  0  0  0
    2.5462    0.0900    2.3338 H   0  0  0  0  0  0  0  0  0  0  0  0
    2.3384   -1.8671    0.6801 H   0  0  0  0  0  0  0  0  0  0  0  0
    5.7476    0.7709    0.7678 H   0  0  0  0  0  0  0  0  0  0  0  0
    3.6783   -3.5460   -0.5395 H   0  0  0  0  0  0  0  0  0  0  0  0
    7.0762   -0.9172   -0.4497 H   0  0  0  0  0  0  0  0  0  0  0  0
    6.0476   -3.0770   -1.1067 H   0  0  0  0  0  0  0  0  0  0  0  0
  1 13  1  0  0  0  0
  1 14  1  0  0  0  0
  2 15  1  0  0  0  0
  2 16  1  0  0  0  0
  3  6  1  0  0  0  0
  3  8  1  0  0  0  0
  3  9  1  0  0  0  0
  4  5  1  0  0  0  0
  4 15  2  0  0  0  0
  5 16  2  0  0  0  0
  6 11  1  0  0  0  0
  6 12  1  0  0  0  0
  6 24  1  0  0  0  0
  7  8  1  0  0  0  0
  7 10  1  0  0  0  0
  7 15  1  0  0  0  0
  7 25  1  0  0  0  0
  8 26  1  0  0  0  0
  8 27  1  0  0  0  0
  9 10  1  0  0  0  0
  9 28  1  0  0  0  0
  9 29  1  0  0  0  0
 10 30  1  0  0  0  0
 10 31  1  0  0  0  0
 11 13  1  0  0  0  0
 11 32  1  0  0  0  0
 11 33  1  0  0  0  0
 12 14  1  0  0  0  0
 12 34  1  0  0  0  0
 12 35  1  0  0  0  0
 13 36  1  0  0  0  0
 13 37  1  0  0  0  0
 14 38  1  0  0  0  0
 14 39  1  0  0  0  0
 16 17  1  0  0  0  0
 17 18  1  0  0  0  0
 17 40  1  0  0  0  0
 17 41  1  0  0  0  0
 18 19  2  0  0  0  0
 18 20  1  0  0  0  0
 19 21  1  0  0  0  0
 19 42  1  0  0  0  0
 20 22  2  0  0  0  0
 20 43  1  0  0  0  0
 21 23  2  0  0  0  0
 21 44  1  0  0  0  0
 22 23  1  0  0  0  0
 22 45  1  0  0  0  0
 23 46  1  0  0  0  0
M  END
> <PUBCHEM_COMPOUND_CID>
51137402

> <PUBCHEM_CONFORMER_RMSD>
0.8

> <PUBCHEM_CONFORMER_DIVERSEORDER>
1
89
128
130
164
48
23
161
73
19
140
162
74
145
108
22
38
15
62
111
59
147
151
173
163
114
146
155
113
153
92
90
168
141
17
39
144
96
117
129
63
174
56
100
121
115
116
72
148
149
135
80
175
61
69
123
102
136
51
67
86
119
6
171
32
132
95
46
125
142
160
97
5
166
3
98
152
159
110
150
107
105
126
55
16
154
43
99
112
9
57
143
47
85
30
83
50
4
137
157
40
169
68
65
133
77
88
120
78
131
7
52
20
134
158
41
33
139
10
101
91
170
118
122
29
36
53
24
79
31
14
21
109
12
37
71
70
26
104
45
58
75
103
13
165
49
8
81
138
11
87
76
127
2
18
64
82
54
94
106
25
84
34
167
44
28
124
172
93
60
42
66
35
27
156

> <PUBCHEM_MMFF94_PARTIAL_CHARGES>
25
1 -0.56
13 0.28
14 0.28
15 0.3
16 0.3
17 0.32
18 -0.14
19 -0.15
2 -0.28
20 -0.15
21 -0.15
22 -0.15
23 -0.15
3 -0.81
4 -0.34
42 0.15
43 0.15
44 0.15
45 0.15
46 0.15
5 -0.34
6 0.27
7 0.18
8 0.27
9 0.27

> <PUBCHEM_EFFECTIVE_ROTOR_COUNT>
6.2

> <PUBCHEM_PHARMACOPHORE_FEATURES>
6
1 1 acceptor
1 3 cation
5 2 4 5 15 16 rings
5 3 7 8 9 10 rings
6 1 6 11 12 13 14 rings
6 18 19 20 21 22 23 rings

> <PUBCHEM_HEAVY_ATOM_COUNT>
23

> <PUBCHEM_ATOM_DEF_STEREO_COUNT>
1

> <PUBCHEM_ATOM_UDEF_STEREO_COUNT>
0

> <PUBCHEM_BOND_DEF_STEREO_COUNT>
0

> <PUBCHEM_BOND_UDEF_STEREO_COUNT>
0

> <PUBCHEM_ISOTOPIC_ATOM_COUNT>
0

> <PUBCHEM_COMPONENT_COUNT>
1

> <PUBCHEM_CACTVS_TAUTO_COUNT>
1

> <PUBCHEM_CONFORMER_ID>
030C4B7A00000001

> <PUBCHEM_MMFF94_ENERGY>
38.0964

> <PUBCHEM_FEATURE_SELFOVERLAP>
30.448

> <PUBCHEM_SHAPE_FINGERPRINT>
10042902 136 17749958881091941155
10319926 262 17274557481055173319
10666366 153 17458339763734379303
10692045 39 14764077713849117262
10928967 22 18189035560641284162
10981352 41 17751934755464714379
11089746 13 9007065673122066616
11954058 11 18334580187010437175
11961588 58 8070022242721007401
11991303 11 17389373819567266077
12107183 9 18269847432611541169
12422481 6 17560803186757122863
12553582 1 18268691871559837862
12596602 18 17418091061275568194
12633257 1 18131071549787174799
12670546 177 11963381943218641409
12778500 126 17418100900971641066
13103583 49 17917435302222326881
13402501 40 18335140877780081098
13533116 47 18268428108959658249
13551218 46 18342737433886339079
13673619 4 18113901550216390356
13690498 29 17967811613566301717
13911852 28 18339356362205248151
13914758 101 18342730807521804933
14123256 34 18333457538167282651
14211702 104 18044663238028246683
14251732 14 15647057075233489899
14251740 57 18188494704326148131
14251757 5 13912902967971364641
14251764 30 18335984168996848938
14341114 176 18272089391879294547
14420673 8 18198910210076804183
14528608 73 8142087558983169531
14951699 99 13541877158925359506
15238133 3 13758066429312486394
15350500 185 14635736232151765510
15475509 84 17632581513411269936
15537594 2 18201994413913840622
15728490 83 17691687779956160778
15799311 1 18337688510487437095
16991981 162 15866307231421692406
17959699 21 8358260345402463357
1813 80 17821445759421656036
193927 3 17967253113536595665
20554085 129 14836129832336810527
20567600 254 12319739141884805955
20715895 44 9583516521204726518
212916 134 14692569931428133125
21298829 104 8790890695848062310
21475661 188 10303801104098322778
21774942 28 11603085176947165742
22950370 63 18410576141752671364
23016692 55 17095242518984767911
23559900 14 18336254709129092885
2748736 6 10015576199350311666
2767999 5 11455890256484988931
2838139 119 9295291629404374987
3089732 80 18333168370941295667
3117164 225 18202563986463868449
3421961 26 18411696617000060496
3737641 26 18266459793862241370
3886686 26 17554065242422100763
4058900 60 17037525575698997205
46194498 28 17676767652100676420
465052 167 18413112779159568974
5104073 3 17987810730054957923
5352402 22 18335414690397309833
54039377 194 18128821846814926710
56633871 153 18131066013390013039
57724786 102 13398332617246720954
6422251 121 18118403934405822947
6669772 16 14998285922632621654
7918774 8 18186525388389691723
7970288 3 18336259042619654738
86090 222 17821728377107698291

> <PUBCHEM_SHAPE_MULTIPOLES>
446.65
15.5
2.72
1.4
5.28
0.34
0.19
-11.98
-4.6
-2.14
0.33
0.88
0.12
0.72

> <PUBCHEM_SHAPE_SELFOVERLAP>
953.051

> <PUBCHEM_SHAPE_VOLUME>
249.1

> <PUBCHEM_COORDINATE_TYPE>
2
5
10

$$$$
