MODEL 1
REMARK VINA RESULT:     -11.8      0.000      0.000
REMARK  Name = 
REMARK  4 active torsions:
REMARK  status: ('A' for Active; 'I' for Inactive)
REMARK    1  A    between atoms: C_4  and  C_8
REMARK    2  A    between atoms: C_11  and  C_13
REMARK    3  A    between atoms: N_18  and  C_19
REMARK    4  A    between atoms: C_19  and  C_20
REMARK                            x       y       z     vdW  Elec       q    Type
REMARK                         _______ _______ _______ _____ _____    ______ ____
ROOT
ATOM      8  C   UNL     1      -3.855   0.035  24.492  0.00  0.00    +0.203 A 
ATOM      9  N   UNL     1      -3.721   0.405  23.767  0.00  0.00    -0.056 NA
ATOM     10  O   UNL     1      -3.899   1.205  23.852  0.00  0.00    -0.336 OA
ATOM     11  C   UNL     1      -4.143   1.331  24.630  0.00  0.00    +0.251 A 
ATOM     12  N   UNL     1      -4.116   0.608  25.026  0.00  0.00    -0.190 NA
ENDROOT
BRANCH   8   4
ATOM      1  C   UNL     1      -4.184  -2.707  23.757  0.00  0.00    +0.031 C 
ATOM      2  C   UNL     1      -3.911  -2.137  24.289  0.00  0.00    -0.022 A 
ATOM      3  C   UNL     1      -4.019  -1.336  24.125  0.00  0.00    -0.001 A 
ATOM      4  C   UNL     1      -3.747  -0.766  24.656  0.00  0.00    +0.039 A 
ATOM      5  C   UNL     1      -3.366  -0.998  25.351  0.00  0.00    +0.003 A 
ATOM      6  C   UNL     1      -3.258  -1.799  25.514  0.00  0.00    -0.000 A 
ATOM      7  C   UNL     1      -3.531  -2.369  24.983  0.00  0.00    -0.004 A 
ENDBRANCH   8   4
BRANCH  11  13
ATOM     13  C   UNL     1      -4.374   2.054  24.955  0.00  0.00    +0.141 C 
ATOM     14  C   UNL     1      -5.133   2.250  25.210  0.00  0.00    +0.060 C 
ATOM     15  C   UNL     1      -5.114   3.024  25.494  0.00  0.00    +0.170 C 
ATOM     16  O   UNL     1      -5.754   3.443  25.803  0.00  0.00    -0.222 OA
ATOM     17  C   UNL     1      -4.342   3.307  25.414  0.00  0.00    +0.106 C 
ATOM     18  N   UNL     1      -3.885   2.707  25.081  0.00  0.00    -0.258 NA
BRANCH  18  19
ATOM     19  C   UNL     1      -3.080   2.751  24.905  0.00  0.00    +0.139 C 
BRANCH  19  20
ATOM     20  C   UNL     1      -2.639   3.401  25.156  0.00  0.00    +0.155 A 
ATOM     21  N   UNL     1      -2.224   3.459  25.867  0.00  0.00    -0.226 NA
ATOM     22  C   UNL     1      -1.863   4.202  25.891  0.00  0.00    +0.121 A 
ATOM     23  C   UNL     1      -2.055   4.601  25.195  0.00  0.00    +0.121 A 
ATOM     24  N   UNL     1      -2.534   4.107  24.741  0.00  0.00    -0.226 NA
ENDBRANCH  19  20
ENDBRANCH  18  19
ENDBRANCH  11  13
TORSDOF 4
ENDMDL
MODEL 2
REMARK VINA RESULT:     -10.8      2.013      2.848
REMARK  Name = 
REMARK  4 active torsions:
REMARK  status: ('A' for Active; 'I' for Inactive)
REMARK    1  A    between atoms: C_4  and  C_8
REMARK    2  A    between atoms: C_11  and  C_13
REMARK    3  A    between atoms: N_18  and  C_19
REMARK    4  A    between atoms: C_19  and  C_20
REMARK                            x       y       z     vdW  Elec       q    Type
REMARK                         _______ _______ _______ _____ _____    ______ ____
ROOT
ATOM      8  C   UNL     1      -2.473  -0.530  24.938  0.00  0.00    +0.203 A 
ATOM      9  N   UNL     1      -2.190  -0.547  25.712  0.00  0.00    -0.056 NA
ATOM     10  O   UNL     1      -1.599   0.024  25.779  0.00  0.00    -0.336 OA
ATOM     11  C   UNL     1      -1.516   0.394  25.046  0.00  0.00    +0.251 A 
ATOM     12  N   UNL     1      -2.057   0.052  24.526  0.00  0.00    -0.190 NA
ENDROOT
BRANCH   8   4
ATOM      1  C   UNL     1      -3.552  -3.132  24.452  0.00  0.00    +0.031 C 
ATOM      2  C   UNL     1      -3.608  -2.311  24.385  0.00  0.00    -0.022 A 
ATOM      3  C   UNL     1      -3.013  -1.831  24.695  0.00  0.00    -0.001 A 
ATOM      4  C   UNL     1      -3.068  -1.011  24.629  0.00  0.00    +0.039 A 
ATOM      5  C   UNL     1      -3.720  -0.670  24.253  0.00  0.00    +0.003 A 
ATOM      6  C   UNL     1      -4.315  -1.151  23.943  0.00  0.00    -0.000 A 
ATOM      7  C   UNL     1      -4.259  -1.971  24.010  0.00  0.00    -0.004 A 
ENDBRANCH   8   4
BRANCH  11  13
ATOM     13  C   UNL     1      -0.986   1.000  24.866  0.00  0.00    +0.141 C 
ATOM     14  C   UNL     1      -0.226   0.904  24.560  0.00  0.00    +0.060 C 
ATOM     15  C   UNL     1       0.106   1.653  24.465  0.00  0.00    +0.170 C 
ATOM     16  O   UNL     1       0.861   1.815  24.174  0.00  0.00    -0.222 OA
ATOM     17  C   UNL     1      -0.449   2.212  24.712  0.00  0.00    +0.106 C 
ATOM     18  N   UNL     1      -1.124   1.808  24.960  0.00  0.00    -0.258 NA
BRANCH  18  19
ATOM     19  C   UNL     1      -1.815   2.152  25.251  0.00  0.00    +0.139 C 
BRANCH  19  20
ATOM     20  C   UNL     1      -1.901   2.972  25.248  0.00  0.00    +0.155 A 
ATOM     21  N   UNL     1      -2.243   3.422  24.646  0.00  0.00    -0.226 NA
ATOM     22  C   UNL     1      -2.212   4.215  24.873  0.00  0.00    +0.121 A 
ATOM     23  C   UNL     1      -1.852   4.255  25.613  0.00  0.00    +0.121 A 
ATOM     24  N   UNL     1      -1.659   3.487  25.845  0.00  0.00    -0.226 NA
ENDBRANCH  19  20
ENDBRANCH  18  19
ENDBRANCH  11  13
TORSDOF 4
ENDMDL
MODEL 3
REMARK VINA RESULT:     -10.8      1.719      4.482
REMARK  Name = 
REMARK  4 active torsions:
REMARK  status: ('A' for Active; 'I' for Inactive)
REMARK    1  A    between atoms: C_4  and  C_8
REMARK    2  A    between atoms: C_11  and  C_13
REMARK    3  A    between atoms: N_18  and  C_19
REMARK    4  A    between atoms: C_19  and  C_20
REMARK                            x       y       z     vdW  Elec       q    Type
REMARK                         _______ _______ _______ _____ _____    ______ ____
ROOT
ATOM      8  C   UNL     1      -4.328   1.225  24.507  0.00  0.00    +0.203 A 
ATOM      9  N   UNL     1      -3.956   1.256  23.772  0.00  0.00    -0.056 NA
ATOM     10  O   UNL     1      -3.642   0.510  23.614  0.00  0.00    -0.336 OA
ATOM     11  C   UNL     1      -3.819   0.018  24.252  0.00  0.00    +0.251 A 
ATOM     12  N   UNL     1      -4.243   0.460  24.804  0.00  0.00    -0.190 NA
ENDROOT
BRANCH   8   4
ATOM      1  C   UNL     1      -4.264   3.822  25.697  0.00  0.00    +0.031 C 
ATOM      2  C   UNL     1      -4.685   3.149  25.476  0.00  0.00    -0.022 A 
ATOM      3  C   UNL     1      -4.297   2.524  25.102  0.00  0.00    -0.001 A 
ATOM      4  C   UNL     1      -4.717   1.850  24.880  0.00  0.00    +0.039 A 
ATOM      5  C   UNL     1      -5.527   1.800  25.032  0.00  0.00    +0.003 A 
ATOM      6  C   UNL     1      -5.915   2.425  25.406  0.00  0.00    -0.000 A 
ATOM      7  C   UNL     1      -5.494   3.099  25.627  0.00  0.00    -0.004 A 
ENDBRANCH   8   4
BRANCH  11  13
ATOM     13  C   UNL     1      -3.609  -0.777  24.325  0.00  0.00    +0.141 C 
ATOM     14  C   UNL     1      -4.082  -1.423  24.130  0.00  0.00    +0.060 C 
ATOM     15  C   UNL     1      -3.655  -2.110  24.290  0.00  0.00    +0.170 C 
ATOM     16  O   UNL     1      -3.918  -2.883  24.176  0.00  0.00    -0.222 OA
ATOM     17  C   UNL     1      -2.916  -1.888  24.583  0.00  0.00    +0.106 C 
ATOM     18  N   UNL     1      -2.888  -1.064  24.605  0.00  0.00    -0.258 NA
BRANCH  18  19
ATOM     19  C   UNL     1      -2.251  -0.606  24.861  0.00  0.00    +0.139 C 
BRANCH  19  20
ATOM     20  C   UNL     1      -1.503  -0.946  24.933  0.00  0.00    +0.155 A 
ATOM     21  N   UNL     1      -1.198  -1.308  25.609  0.00  0.00    -0.226 NA
ATOM     22  C   UNL     1      -0.434  -1.569  25.435  0.00  0.00    +0.121 A 
ATOM     23  C   UNL     1      -0.268  -1.368  24.653  0.00  0.00    +0.121 A 
ATOM     24  N   UNL     1      -0.927  -0.983  24.343  0.00  0.00    -0.226 NA
ENDBRANCH  19  20
ENDBRANCH  18  19
ENDBRANCH  11  13
TORSDOF 4
ENDMDL
MODEL 4
REMARK VINA RESULT:     -10.8      2.376      4.330
REMARK  Name = 
REMARK  4 active torsions:
REMARK  status: ('A' for Active; 'I' for Inactive)
REMARK    1  A    between atoms: C_4  and  C_8
REMARK    2  A    between atoms: C_11  and  C_13
REMARK    3  A    between atoms: N_18  and  C_19
REMARK    4  A    between atoms: C_19  and  C_20
REMARK                            x       y       z     vdW  Elec       q    Type
REMARK                         _______ _______ _______ _____ _____    ______ ____
ROOT
ATOM      8  C   UNL     1      -3.372   2.849  24.866  0.00  0.00    +0.203 A 
ATOM      9  N   UNL     1      -3.043   3.055  24.139  0.00  0.00    -0.056 NA
ATOM     10  O   UNL     1      -2.235   2.891  24.168  0.00  0.00    -0.336 OA
ATOM     11  C   UNL     1      -2.065   2.583  24.915  0.00  0.00    +0.251 A 
ATOM     12  N   UNL     1      -2.767   2.557  25.346  0.00  0.00    -0.190 NA
ENDROOT
BRANCH   8   4
ATOM      1  C   UNL     1      -6.001   1.740  25.032  0.00  0.00    +0.031 C 
ATOM      2  C   UNL     1      -5.481   2.368  25.161  0.00  0.00    -0.022 A 
ATOM      3  C   UNL     1      -4.687   2.295  24.950  0.00  0.00    -0.001 A 
ATOM      4  C   UNL     1      -4.166   2.922  25.077  0.00  0.00    +0.039 A 
ATOM      5  C   UNL     1      -4.440   3.623  25.417  0.00  0.00    +0.003 A 
ATOM      6  C   UNL     1      -5.234   3.696  25.628  0.00  0.00    -0.000 A 
ATOM      7  C   UNL     1      -5.754   3.068  25.500  0.00  0.00    -0.004 A 
ENDBRANCH   8   4
BRANCH  11  13
ATOM     13  C   UNL     1      -1.322   2.343  25.182  0.00  0.00    +0.141 C 
ATOM     14  C   UNL     1      -0.800   2.794  25.633  0.00  0.00    +0.060 C 
ATOM     15  C   UNL     1      -0.127   2.340  25.775  0.00  0.00    +0.170 C 
ATOM     16  O   UNL     1       0.536   2.576  26.205  0.00  0.00    -0.222 OA
ATOM     17  C   UNL     1      -0.233   1.607  25.411  0.00  0.00    +0.106 C 
ATOM     18  N   UNL     1      -0.971   1.609  25.045  0.00  0.00    -0.258 NA
BRANCH  18  19
ATOM     19  C   UNL     1      -1.302   0.986  24.616  0.00  0.00    +0.139 C 
BRANCH  19  20
ATOM     20  C   UNL     1      -0.915   0.259  24.580  0.00  0.00    +0.155 A 
ATOM     21  N   UNL     1      -0.368   0.029  24.006  0.00  0.00    -0.226 NA
ATOM     22  C   UNL     1      -0.121  -0.739  24.183  0.00  0.00    +0.121 A 
ATOM     23  C   UNL     1      -0.514  -0.982  24.866  0.00  0.00    +0.121 A 
ATOM     24  N   UNL     1      -1.004  -0.366  25.112  0.00  0.00    -0.226 NA
ENDBRANCH  19  20
ENDBRANCH  18  19
ENDBRANCH  11  13
TORSDOF 4
ENDMDL
MODEL 5
REMARK VINA RESULT:     -10.6      2.752      5.644
REMARK  Name = 
REMARK  4 active torsions:
REMARK  status: ('A' for Active; 'I' for Inactive)
REMARK    1  A    between atoms: C_4  and  C_8
REMARK    2  A    between atoms: C_11  and  C_13
REMARK    3  A    between atoms: N_18  and  C_19
REMARK    4  A    between atoms: C_19  and  C_20
REMARK                            x       y       z     vdW  Elec       q    Type
REMARK                         _______ _______ _______ _____ _____    ______ ____
ROOT
ATOM      8  C   UNL     1      -0.743   2.735  25.295  0.00  0.00    +0.203 A 
ATOM      9  N   UNL     1      -0.294   2.401  25.901  0.00  0.00    -0.056 NA
ATOM     10  O   UNL     1       0.006   1.683  25.629  0.00  0.00    -0.336 OA
ATOM     11  C   UNL     1      -0.257   1.573  24.855  0.00  0.00    +0.251 A 
ATOM     12  N   UNL     1      -0.721   2.223  24.649  0.00  0.00    -0.190 NA
ENDROOT
BRANCH   8   4
ATOM      1  C   UNL     1      -3.028   4.259  26.087  0.00  0.00    +0.031 C 
ATOM      2  C   UNL     1      -2.288   4.217  25.725  0.00  0.00    -0.022 A 
ATOM      3  C   UNL     1      -1.886   3.498  25.691  0.00  0.00    -0.001 A 
ATOM      4  C   UNL     1      -1.145   3.455  25.330  0.00  0.00    +0.039 A 
ATOM      5  C   UNL     1      -0.807   4.133  25.002  0.00  0.00    +0.003 A 
ATOM      6  C   UNL     1      -1.209   4.853  25.036  0.00  0.00    -0.000 A 
ATOM      7  C   UNL     1      -1.949   4.894  25.398  0.00  0.00    -0.004 A 
ENDBRANCH   8   4
BRANCH  11  13
ATOM     13  C   UNL     1      -0.087   0.925  24.373  0.00  0.00    +0.141 C 
ATOM     14  C   UNL     1       0.438   0.920  23.737  0.00  0.00    +0.060 C 
ATOM     15  C   UNL     1       0.438   0.161  23.413  0.00  0.00    +0.170 C 
ATOM     16  O   UNL     1       0.884  -0.090  22.767  0.00  0.00    -0.222 OA
ATOM     17  C   UNL     1      -0.088  -0.302  23.849  0.00  0.00    +0.106 C 
ATOM     18  N   UNL     1      -0.412   0.170  24.442  0.00  0.00    -0.258 NA
BRANCH  18  19
ATOM     19  C   UNL     1      -0.964  -0.070  25.007  0.00  0.00    +0.139 C 
BRANCH  19  20
ATOM     20  C   UNL     1      -1.343  -0.798  24.928  0.00  0.00    +0.155 A 
ATOM     21  N   UNL     1      -2.086  -0.923  24.589  0.00  0.00    -0.226 NA
ATOM     22  C   UNL     1      -2.249  -1.732  24.626  0.00  0.00    +0.121 A 
ATOM     23  C   UNL     1      -1.608  -2.105  24.987  0.00  0.00    +0.121 A 
ATOM     24  N   UNL     1      -1.049  -1.528  25.174  0.00  0.00    -0.226 NA
ENDBRANCH  19  20
ENDBRANCH  18  19
ENDBRANCH  11  13
TORSDOF 4
ENDMDL
