MODEL 1
REMARK VINA RESULT:      -9.3      0.000      0.000
REMARK  Name = 
REMARK  7 active torsions:
REMARK  status: ('A' for Active; 'I' for Inactive)
REMARK    1  A    between atoms: C_2  and  C_4
REMARK    2  A    between atoms: C_6  and  C_7
REMARK    3  A    between atoms: C_7  and  C_8
REMARK    4  A    between atoms: C_20  and  C_21
REMARK    5  A    between atoms: C_21  and  N_22
REMARK    6  A    between atoms: C_23  and  C_25
REMARK    7  A    between atoms: C_28  and  N_29
REMARK                            x       y       z     vdW  Elec       q    Type
REMARK                         _______ _______ _______ _____ _____    ______ ____
ROOT
ATOM      4  C   UNL     1      -1.021  -0.520  24.429  0.00  0.00    +0.006 C 
ATOM      5  C   UNL     1      -0.243  -0.349  24.211  0.00  0.00    +0.005 C 
ATOM      6  C   UNL     1      -0.057   0.388  23.893  0.00  0.00    +0.027 C 
ATOM     17  C   UNL     1      -0.648   0.956  23.793  0.00  0.00    -0.048 C 
ATOM     18  C   UNL     1      -0.461   1.694  23.476  0.00  0.00    +0.026 C 
ATOM     19  C   UNL     1      -1.425   0.785  24.012  0.00  0.00    -0.033 C 
ATOM     20  C   UNL     1      -1.612   0.048  24.329  0.00  0.00    +0.043 C 
ENDROOT
BRANCH   4   2
ATOM      1  C   UNL     1      -1.486  -1.859  24.256  0.00  0.00    +0.000 C 
ATOM      2  C   UNL     1      -1.207  -1.258  24.747  0.00  0.00    +0.000 C 
ATOM      3  C   UNL     1      -1.114  -1.394  25.556  0.00  0.00    +0.000 C 
ENDBRANCH   4   2
BRANCH   6   7
ATOM      7  C   UNL     1       0.720   0.559  23.675  0.00  0.00    +0.089 C 
BRANCH   7   8
ATOM      8  C   UNL     1       1.076   0.147  23.056  0.00  0.00    +0.226 C 
ATOM      9  O   UNL     1       0.635  -0.391  22.612  0.00  0.00    -0.275 OA
ATOM     10  N   UNL     1       1.871   0.272  22.880  0.00  0.00    -0.277 N 
ATOM     11  C   UNL     1       2.313   0.810  23.324  0.00  0.00    +0.111 C 
ATOM     12  C   UNL     1       3.109   0.935  23.149  0.00  0.00    +0.094 C 
ATOM     13  N   UNL     1       3.465   0.521  22.528  0.00  0.00    -0.269 NA
ATOM     14  C   UNL     1       4.261   0.647  22.353  0.00  0.00    +0.090 C 
ATOM     15  C   UNL     1       3.024  -0.016  22.085  0.00  0.00    +0.094 C 
ATOM     16  C   UNL     1       2.228  -0.142  22.260  0.00  0.00    +0.111 C 
ENDBRANCH   7   8
ENDBRANCH   6   7
BRANCH  20  21
ATOM     21  C   UNL     1      -2.388  -0.123  24.548  0.00  0.00    +0.120 C 
BRANCH  21  22
ATOM     22  N   UNL     1      -2.917   0.491  24.704  0.00  0.00    -0.201 NA
ATOM     23  C   UNL     1      -3.726   0.375  24.601  0.00  0.00    +0.265 C 
ATOM     24  O   UNL     1      -4.009  -0.356  24.342  0.00  0.00    -0.268 OA
BRANCH  23  25
ATOM     25  C   UNL     1      -4.254   0.990  24.757  0.00  0.00    +0.055 A 
ATOM     26  C   UNL     1      -4.259   1.661  24.278  0.00  0.00    +0.006 A 
ATOM     27  C   UNL     1      -4.787   2.275  24.434  0.00  0.00    +0.017 A 
ATOM     28  C   UNL     1      -5.311   2.218  25.069  0.00  0.00    +0.073 A 
ATOM     33  C   UNL     1      -5.306   1.547  25.548  0.00  0.00    +0.017 A 
ATOM     34  C   UNL     1      -4.778   0.932  25.392  0.00  0.00    +0.006 A 
BRANCH  28  29
ATOM     29  N   UNL     1      -5.838   2.832  25.225  0.00  0.00    -0.179 NA
ATOM     30  C   UNL     1      -5.568   3.533  25.566  0.00  0.00    +0.246 C 
ATOM     31  C   UNL     1      -6.096   4.147  25.722  0.00  0.00    +0.097 C 
ATOM     32  O   UNL     1      -4.769   3.620  25.751  0.00  0.00    -0.273 OA
ENDBRANCH  28  29
ENDBRANCH  23  25
ENDBRANCH  21  22
ENDBRANCH  20  21
TORSDOF 7
ENDMDL
MODEL 2
REMARK VINA RESULT:      -8.3      1.127      6.672
REMARK  Name = 
REMARK  7 active torsions:
REMARK  status: ('A' for Active; 'I' for Inactive)
REMARK    1  A    between atoms: C_2  and  C_4
REMARK    2  A    between atoms: C_6  and  C_7
REMARK    3  A    between atoms: C_7  and  C_8
REMARK    4  A    between atoms: C_20  and  C_21
REMARK    5  A    between atoms: C_21  and  N_22
REMARK    6  A    between atoms: C_23  and  C_25
REMARK    7  A    between atoms: C_28  and  N_29
REMARK                            x       y       z     vdW  Elec       q    Type
REMARK                         _______ _______ _______ _____ _____    ______ ____
ROOT
ATOM      4  C   UNL     1      -1.890   0.463  24.647  0.00  0.00    +0.006 C 
ATOM      5  C   UNL     1      -2.501   1.010  24.745  0.00  0.00    +0.005 C 
ATOM      6  C   UNL     1      -2.577   1.641  24.221  0.00  0.00    +0.027 C 
ATOM     17  C   UNL     1      -2.042   1.728  23.598  0.00  0.00    -0.048 C 
ATOM     18  C   UNL     1      -2.118   2.360  23.074  0.00  0.00    +0.026 C 
ATOM     19  C   UNL     1      -1.430   1.182  23.500  0.00  0.00    -0.033 C 
ATOM     20  C   UNL     1      -1.354   0.550  24.024  0.00  0.00    +0.043 C 
ENDROOT
BRANCH   4   2
ATOM      1  C   UNL     1      -2.168  -0.894  24.997  0.00  0.00    +0.000 C 
ATOM      2  C   UNL     1      -1.813  -0.169  25.171  0.00  0.00    +0.000 C 
ATOM      3  C   UNL     1      -1.383  -0.076  25.869  0.00  0.00    +0.000 C 
ENDBRANCH   4   2
BRANCH   6   7
ATOM      7  C   UNL     1      -3.187   2.187  24.318  0.00  0.00    +0.089 C 
BRANCH   7   8
ATOM      8  C   UNL     1      -3.963   1.926  24.418  0.00  0.00    +0.226 C 
ATOM      9  O   UNL     1      -4.187   1.184  24.137  0.00  0.00    -0.275 OA
ATOM     10  N   UNL     1      -4.515   2.407  24.798  0.00  0.00    -0.277 N 
ATOM     11  C   UNL     1      -4.291   3.150  25.079  0.00  0.00    +0.111 C 
ATOM     12  C   UNL     1      -4.842   3.631  25.459  0.00  0.00    +0.094 C 
ATOM     13  N   UNL     1      -5.619   3.369  25.559  0.00  0.00    -0.269 NA
ATOM     14  C   UNL     1      -6.171   3.851  25.939  0.00  0.00    +0.090 C 
ATOM     15  C   UNL     1      -5.843   2.627  25.278  0.00  0.00    +0.094 C 
ATOM     16  C   UNL     1      -5.292   2.145  24.897  0.00  0.00    +0.111 C 
ENDBRANCH   7   8
ENDBRANCH   6   7
BRANCH  20  21
ATOM     21  C   UNL     1      -0.744   0.004  23.926  0.00  0.00    +0.120 C 
BRANCH  21  22
ATOM     22  N   UNL     1       0.011   0.263  23.718  0.00  0.00    -0.201 NA
ATOM     23  C   UNL     1       0.538  -0.253  23.352  0.00  0.00    +0.265 C 
ATOM     24  O   UNL     1       0.312  -1.030  23.193  0.00  0.00    -0.268 OA
BRANCH  23  25
ATOM     25  C   UNL     1       1.294   0.007  23.144  0.00  0.00    +0.055 A 
ATOM     26  C   UNL     1       1.656   0.611  23.575  0.00  0.00    +0.006 A 
ATOM     27  C   UNL     1       2.410   0.870  23.367  0.00  0.00    +0.017 A 
ATOM     28  C   UNL     1       2.803   0.527  22.728  0.00  0.00    +0.073 A 
ATOM     33  C   UNL     1       2.442  -0.076  22.297  0.00  0.00    +0.017 A 
ATOM     34  C   UNL     1       1.686  -0.336  22.505  0.00  0.00    +0.006 A 
BRANCH  28  29
ATOM     29  N   UNL     1       3.558   0.787  22.520  0.00  0.00    -0.179 NA
ATOM     30  C   UNL     1       4.224   0.434  22.856  0.00  0.00    +0.246 C 
ATOM     31  C   UNL     1       4.978   0.694  22.648  0.00  0.00    +0.097 C 
ATOM     32  O   UNL     1       4.134  -0.179  23.400  0.00  0.00    -0.273 OA
ENDBRANCH  28  29
ENDBRANCH  23  25
ENDBRANCH  21  22
ENDBRANCH  20  21
TORSDOF 7
ENDMDL
MODEL 3
REMARK VINA RESULT:      -6.2     14.747     17.436
REMARK  Name = 
REMARK  7 active torsions:
REMARK  status: ('A' for Active; 'I' for Inactive)
REMARK    1  A    between atoms: C_2  and  C_4
REMARK    2  A    between atoms: C_6  and  C_7
REMARK    3  A    between atoms: C_7  and  C_8
REMARK    4  A    between atoms: C_20  and  C_21
REMARK    5  A    between atoms: C_21  and  N_22
REMARK    6  A    between atoms: C_23  and  C_25
REMARK    7  A    between atoms: C_28  and  N_29
REMARK                            x       y       z     vdW  Elec       q    Type
REMARK                         _______ _______ _______ _____ _____    ______ ____
ROOT
ATOM      4  C   UNL     1      12.862  -8.564  31.060  0.00  0.00    +0.006 C 
ATOM      5  C   UNL     1      13.368  -8.083  30.619  0.00  0.00    +0.005 C 
ATOM      6  C   UNL     1      13.157  -7.303  30.456  0.00  0.00    +0.027 C 
ATOM     17  C   UNL     1      12.440  -7.003  30.733  0.00  0.00    -0.048 C 
ATOM     18  C   UNL     1      12.229  -6.222  30.570  0.00  0.00    +0.026 C 
ATOM     19  C   UNL     1      11.934  -7.483  31.175  0.00  0.00    -0.033 C 
ATOM     20  C   UNL     1      12.145  -8.263  31.338  0.00  0.00    +0.043 C 
ENDROOT
BRANCH   4   2
ATOM      1  C   UNL     1      13.442  -9.531  31.938  0.00  0.00    +0.000 C 
ATOM      2  C   UNL     1      13.073  -9.345  31.224  0.00  0.00    +0.000 C 
ATOM      3  C   UNL     1      12.915  -9.938  30.673  0.00  0.00    +0.000 C 
ENDBRANCH   4   2
BRANCH   6   7
ATOM      7  C   UNL     1      13.663  -6.823  30.015  0.00  0.00    +0.089 C 
BRANCH   7   8
ATOM      8  C   UNL     1      14.437  -6.695  30.269  0.00  0.00    +0.226 C 
ATOM      9  O   UNL     1      14.606  -6.657  31.075  0.00  0.00    -0.275 OA
ATOM     10  N   UNL     1      15.042  -6.606  29.716  0.00  0.00    -0.277 N 
ATOM     11  C   UNL     1      14.874  -6.644  28.909  0.00  0.00    +0.111 C 
ATOM     12  C   UNL     1      15.479  -6.555  28.356  0.00  0.00    +0.094 C 
ATOM     13  N   UNL     1      16.255  -6.427  28.610  0.00  0.00    -0.269 NA
ATOM     14  C   UNL     1      16.860  -6.338  28.057  0.00  0.00    +0.090 C 
ATOM     15  C   UNL     1      16.423  -6.389  29.416  0.00  0.00    +0.094 C 
ATOM     16  C   UNL     1      15.818  -6.479  29.970  0.00  0.00    +0.111 C 
ENDBRANCH   7   8
ENDBRANCH   6   7
BRANCH  20  21
ATOM     21  C   UNL     1      11.640  -8.744  31.778  0.00  0.00    +0.120 C 
BRANCH  21  22
ATOM     22  N   UNL     1      10.823  -8.652  31.712  0.00  0.00    -0.201 NA
ATOM     23  C   UNL     1      10.322  -9.011  32.259  0.00  0.00    +0.265 C 
ATOM     24  O   UNL     1      10.636  -9.463  32.873  0.00  0.00    -0.268 OA
BRANCH  23  25
ATOM     25  C   UNL     1       9.504  -8.919  32.192  0.00  0.00    +0.055 A 
ATOM     26  C   UNL     1       9.139  -8.243  32.494  0.00  0.00    +0.006 A 
ATOM     27  C   UNL     1       8.322  -8.152  32.427  0.00  0.00    +0.017 A 
ATOM     28  C   UNL     1       7.870  -8.735  32.058  0.00  0.00    +0.073 A 
ATOM     33  C   UNL     1       8.235  -9.410  31.756  0.00  0.00    +0.017 A 
ATOM     34  C   UNL     1       9.052  -9.502  31.823  0.00  0.00    +0.006 A 
BRANCH  28  29
ATOM     29  N   UNL     1       7.053  -8.643  31.991  0.00  0.00    -0.179 NA
ATOM     30  C   UNL     1       6.726  -8.349  31.293  0.00  0.00    +0.246 C 
ATOM     31  C   UNL     1       5.910  -8.257  31.226  0.00  0.00    +0.097 C 
ATOM     32  O   UNL     1       7.217  -8.147  30.661  0.00  0.00    -0.273 OA
ENDBRANCH  28  29
ENDBRANCH  23  25
ENDBRANCH  21  22
ENDBRANCH  20  21
TORSDOF 7
ENDMDL
MODEL 4
REMARK VINA RESULT:      -6.1     18.151     19.572
REMARK  Name = 
REMARK  7 active torsions:
REMARK  status: ('A' for Active; 'I' for Inactive)
REMARK    1  A    between atoms: C_2  and  C_4
REMARK    2  A    between atoms: C_6  and  C_7
REMARK    3  A    between atoms: C_7  and  C_8
REMARK    4  A    between atoms: C_20  and  C_21
REMARK    5  A    between atoms: C_21  and  N_22
REMARK    6  A    between atoms: C_23  and  C_25
REMARK    7  A    between atoms: C_28  and  N_29
REMARK                            x       y       z     vdW  Elec       q    Type
REMARK                         _______ _______ _______ _____ _____    ______ ____
ROOT
ATOM      4  C   UNL     1      14.662  -6.668  29.706  0.00  0.00    +0.006 C 
ATOM      5  C   UNL     1      14.822  -7.079  29.008  0.00  0.00    +0.005 C 
ATOM      6  C   UNL     1      15.485  -6.885  28.559  0.00  0.00    +0.027 C 
ATOM     17  C   UNL     1      15.990  -6.281  28.807  0.00  0.00    -0.048 C 
ATOM     18  C   UNL     1      16.653  -6.087  28.357  0.00  0.00    +0.026 C 
ATOM     19  C   UNL     1      15.830  -5.870  29.505  0.00  0.00    -0.033 C 
ATOM     20  C   UNL     1      15.167  -6.064  29.954  0.00  0.00    +0.043 C 
ENDROOT
BRANCH   4   2
ATOM      1  C   UNL     1      13.275  -6.493  30.005  0.00  0.00    +0.000 C 
ATOM      2  C   UNL     1      13.998  -6.862  30.156  0.00  0.00    +0.000 C 
ATOM      3  C   UNL     1      14.057  -7.425  30.757  0.00  0.00    +0.000 C 
ENDBRANCH   4   2
BRANCH   6   7
ATOM      7  C   UNL     1      15.645  -7.295  27.861  0.00  0.00    +0.089 C 
BRANCH   7   8
ATOM      8  C   UNL     1      15.788  -8.107  27.882  0.00  0.00    +0.226 C 
ATOM      9  O   UNL     1      16.017  -8.466  28.588  0.00  0.00    -0.275 OA
ATOM     10  N   UNL     1      15.703  -8.559  27.198  0.00  0.00    -0.277 N 
ATOM     11  C   UNL     1      15.474  -8.199  26.491  0.00  0.00    +0.111 C 
ATOM     12  C   UNL     1      15.389  -8.651  25.807  0.00  0.00    +0.094 C 
ATOM     13  N   UNL     1      15.533  -9.464  25.828  0.00  0.00    -0.269 NA
ATOM     14  C   UNL     1      15.447  -9.916  25.143  0.00  0.00    +0.090 C 
ATOM     15  C   UNL     1      15.761  -9.823  26.534  0.00  0.00    +0.094 C 
ATOM     16  C   UNL     1      15.847  -9.372  27.219  0.00  0.00    +0.111 C 
ENDBRANCH   7   8
ENDBRANCH   6   7
BRANCH  20  21
ATOM     21  C   UNL     1      15.006  -5.654  30.652  0.00  0.00    +0.120 C 
BRANCH  21  22
ATOM     22  N   UNL     1      15.365  -4.925  30.792  0.00  0.00    -0.201 NA
ATOM     23  C   UNL     1      15.384  -4.614  31.555  0.00  0.00    +0.265 C 
ATOM     24  O   UNL     1      15.045  -5.032  32.180  0.00  0.00    -0.268 OA
BRANCH  23  25
ATOM     25  C   UNL     1      15.743  -3.884  31.695  0.00  0.00    +0.055 A 
ATOM     26  C   UNL     1      16.563  -3.834  31.766  0.00  0.00    +0.006 A 
ATOM     27  C   UNL     1      16.921  -3.104  31.905  0.00  0.00    +0.017 A 
ATOM     28  C   UNL     1      16.459  -2.424  31.974  0.00  0.00    +0.073 A 
ATOM     33  C   UNL     1      15.639  -2.474  31.903  0.00  0.00    +0.017 A 
ATOM     34  C   UNL     1      15.280  -3.204  31.764  0.00  0.00    +0.006 A 
BRANCH  28  29
ATOM     29  N   UNL     1      16.817  -1.694  32.114  0.00  0.00    -0.179 NA
ATOM     30  C   UNL     1      16.964  -1.179  31.486  0.00  0.00    +0.246 C 
ATOM     31  C   UNL     1      17.321  -0.450  31.625  0.00  0.00    +0.097 C 
ATOM     32  O   UNL     1      16.751  -1.394  30.718  0.00  0.00    -0.273 OA
ENDBRANCH  28  29
ENDBRANCH  23  25
ENDBRANCH  21  22
ENDBRANCH  20  21
TORSDOF 7
ENDMDL
