MODEL 1
REMARK VINA RESULT:     -14.0      0.000      0.000
REMARK  Name = 
REMARK  8 active torsions:
REMARK  status: ('A' for Active; 'I' for Inactive)
REMARK    1  A    between atoms: CG_2  and  CB_4
REMARK    2  A    between atoms: CB_4  and  CA_5
REMARK    3  A    between atoms: CA_5  and  C_6
REMARK    4  A    between atoms: CA_5  and  N_8
REMARK    5  A    between atoms: C_9  and  C_11
REMARK    6  A    between atoms: C_11  and  C_12
REMARK    7  A    between atoms: C_17  and  C_19
REMARK    8  A    between atoms: C_30  and  C_32
REMARK                            x       y       z     vdW  Elec       q    Type
REMARK                         _______ _______ _______ _____ _____    ______ ____
ROOT
ATOM     12  C   UNK A   0      -3.420   0.097  24.305  0.00  0.00    +0.050 C 
ATOM     13  C   UNK A   0      -2.728   0.515  24.476  0.00  0.00    +0.063 A 
ATOM     14  C   UNK A   0      -2.040   0.107  24.674  0.00  0.00    +0.023 A 
ATOM     15  C   UNK A   0      -2.042  -0.717  24.702  0.00  0.00    +0.034 C 
ATOM     16  C   UNK A   0      -2.732  -1.134  24.532  0.00  0.00    +0.010 C 
ATOM     17  C   UNK A   0      -2.734  -1.959  24.560  0.00  0.00    +0.059 C 
ATOM     18  C   UNK A   0      -1.949  -1.811  24.764  0.00  0.00    +0.005 C 
ATOM     21  C   UNK A   0      -3.426  -2.375  24.389  0.00  0.00    +0.154 C 
ATOM     22  O   UNK A   0      -3.428  -3.201  24.417  0.00  0.00    -0.223 OA
ATOM     23  C   UNK A   0      -4.115  -1.968  24.191  0.00  0.00    +0.033 C 
ATOM     24  C   UNK A   0      -4.113  -1.143  24.163  0.00  0.00    +0.003 C 
ATOM     25  C   UNK A   0      -3.422  -0.726  24.333  0.00  0.00    +0.006 C 
ATOM     26  C   UNK A   0      -4.111  -0.319  24.135  0.00  0.00    +0.000 C 
ATOM     27  S   UNK A   0      -1.446   0.663  24.814  0.00  0.00    -0.054 S 
ATOM     28  C   UNK A   0      -1.768   1.414  24.702  0.00  0.00    +0.185 A 
ATOM     29  N   UNK A   0      -1.368   2.131  24.784  0.00  0.00    -0.151 NA
ATOM     30  C   UNK A   0      -1.764   2.842  24.653  0.00  0.00    +0.271 C 
ATOM     31  O   UNK A   0      -2.561   2.837  24.440  0.00  0.00    -0.268 OA
ATOM     39  N   UNK A   0      -2.561   1.322  24.493  0.00  0.00    -0.227 NA
ENDROOT
BRANCH  30  32
ATOM     32  C   UNK A   0      -1.365   3.559  24.735  0.00  0.00    +0.058 A 
ATOM     33  C   UNK A   0      -0.598   3.641  24.442  0.00  0.00    +0.005 A 
ATOM     34  C   UNK A   0      -0.199   4.358  24.524  0.00  0.00    +0.002 A 
ATOM     35  C   UNK A   0      -0.566   4.994  24.900  0.00  0.00    +0.030 A 
ATOM     36  C   UNK A   0      -1.334   4.912  25.194  0.00  0.00    +0.140 A 
ATOM     37  F   UNK A   0      -1.701   5.548  25.570  0.00  0.00    -0.204 F 
ATOM     38  C   UNK A   0      -1.732   4.195  25.111  0.00  0.00    +0.034 A 
ENDBRANCH  30  32
BRANCH  17  19
ATOM     19  C   UNK A   0      -2.464  -2.731  24.659  0.00  0.00    +0.184 C 
ATOM     20  O   UNK A   0      -1.653  -2.886  24.675  0.00  0.00    -0.220 OA
ENDBRANCH  17  19
BRANCH  12  11
ATOM     11  C   UNK A   0      -4.109   0.506  24.107  0.00  0.00    +0.093 C 
BRANCH  11   9
ATOM      8  N   LEU A   1      -5.063   1.481  24.532  0.00  0.00    -0.204 NA
ATOM      9  C   UNK A   0      -4.578   0.836  24.701  0.00  0.00    +0.242 C 
ATOM     10  O   UNK A   0      -4.561   0.521  25.462  0.00  0.00    -0.273 OA
BRANCH   8   5
ATOM      5  CA  LEU A   1      -5.532   1.811  25.126  0.00  0.00    +0.128 C 
BRANCH   5   6
ATOM      6  C   LEU A   1      -6.328   1.608  25.183  0.00  0.00    +0.204 C 
ATOM      7  O   LEU A   1      -6.800   1.594  24.506  0.00  0.00    -0.219 OA
ENDBRANCH   5   6
BRANCH   5   4
ATOM      4  CB  LEU A   1      -5.202   2.345  25.662  0.00  0.00    +0.024 C 
BRANCH   4   2
ATOM      1  CD1 LEU A   1      -6.145   3.183  26.333  0.00  0.00    +0.000 C 
ATOM      2  CG  LEU A   1      -5.549   3.086  25.771  0.00  0.00    +0.002 C 
ATOM      3  CD2 LEU A   1      -5.299   3.728  25.320  0.00  0.00    +0.000 C 
ENDBRANCH   4   2
ENDBRANCH   5   4
ENDBRANCH   8   5
ENDBRANCH  11   9
ENDBRANCH  12  11
TORSDOF 8
ENDMDL
MODEL 2
REMARK VINA RESULT:     -13.2      1.873      4.901
REMARK  Name = 
REMARK  8 active torsions:
REMARK  status: ('A' for Active; 'I' for Inactive)
REMARK    1  A    between atoms: CG_2  and  CB_4
REMARK    2  A    between atoms: CB_4  and  CA_5
REMARK    3  A    between atoms: CA_5  and  C_6
REMARK    4  A    between atoms: CA_5  and  N_8
REMARK    5  A    between atoms: C_9  and  C_11
REMARK    6  A    between atoms: C_11  and  C_12
REMARK    7  A    between atoms: C_17  and  C_19
REMARK    8  A    between atoms: C_30  and  C_32
REMARK                            x       y       z     vdW  Elec       q    Type
REMARK                         _______ _______ _______ _____ _____    ______ ____
ROOT
ATOM     12  C   UNK A   0      -2.471   2.819  25.291  0.00  0.00    +0.050 C 
ATOM     13  C   UNK A   0      -2.274   2.081  24.979  0.00  0.00    +0.063 A 
ATOM     14  C   UNK A   0      -1.577   1.988  24.548  0.00  0.00    +0.023 A 
ATOM     15  C   UNK A   0      -1.078   2.633  24.428  0.00  0.00    +0.034 C 
ATOM     16  C   UNK A   0      -1.275   3.371  24.739  0.00  0.00    +0.010 C 
ATOM     17  C   UNK A   0      -0.775   4.016  24.619  0.00  0.00    +0.059 C 
ATOM     18  C   UNK A   0      -0.353   3.432  24.217  0.00  0.00    +0.005 C 
ATOM     21  C   UNK A   0      -0.972   4.754  24.931  0.00  0.00    +0.154 C 
ATOM     22  O   UNK A   0      -0.472   5.400  24.811  0.00  0.00    -0.223 OA
ATOM     23  C   UNK A   0      -1.669   4.847  25.362  0.00  0.00    +0.033 C 
ATOM     24  C   UNK A   0      -2.169   4.202  25.482  0.00  0.00    +0.003 C 
ATOM     25  C   UNK A   0      -1.972   3.464  25.171  0.00  0.00    +0.006 C 
ATOM     26  C   UNK A   0      -2.669   3.557  25.602  0.00  0.00    +0.000 C 
ATOM     27  S   UNK A   0      -1.529   1.199  24.309  0.00  0.00    -0.054 S 
ATOM     28  C   UNK A   0      -2.195   0.805  24.593  0.00  0.00    +0.185 A 
ATOM     29  N   UNK A   0      -2.370   0.007  24.483  0.00  0.00    -0.151 NA
ATOM     30  C   UNK A   0      -3.061  -0.312  24.801  0.00  0.00    +0.271 C 
ATOM     31  O   UNK A   0      -3.577   0.167  25.230  0.00  0.00    -0.268 OA
ATOM     39  N   UNK A   0      -2.656   1.350  25.007  0.00  0.00    -0.227 NA
ENDROOT
BRANCH  30  32
ATOM     32  C   UNK A   0      -3.236  -1.111  24.691  0.00  0.00    +0.058 A 
ATOM     33  C   UNK A   0      -2.826  -1.686  25.116  0.00  0.00    +0.005 A 
ATOM     34  C   UNK A   0      -3.002  -2.485  25.006  0.00  0.00    +0.002 A 
ATOM     35  C   UNK A   0      -3.588  -2.708  24.469  0.00  0.00    +0.030 A 
ATOM     36  C   UNK A   0      -3.998  -2.132  24.043  0.00  0.00    +0.140 A 
ATOM     37  F   UNK A   0      -4.584  -2.355  23.507  0.00  0.00    -0.204 F 
ATOM     38  C   UNK A   0      -3.822  -1.334  24.154  0.00  0.00    +0.034 A 
ENDBRANCH  30  32
BRANCH  17  19
ATOM     19  C   UNK A   0      -0.129   4.458  24.359  0.00  0.00    +0.184 C 
ATOM     20  O   UNK A   0       0.252   4.258  23.655  0.00  0.00    -0.220 OA
ENDBRANCH  17  19
BRANCH  12  11
ATOM     11  C   UNK A   0      -3.168   2.911  25.722  0.00  0.00    +0.093 C 
BRANCH  11   9
ATOM      8  N   LEU A   1      -4.597   2.885  25.737  0.00  0.00    -0.204 NA
ATOM      9  C   UNK A   0      -3.889   2.994  25.328  0.00  0.00    +0.242 C 
ATOM     10  O   UNK A   0      -3.901   3.184  24.526  0.00  0.00    -0.273 OA
BRANCH   8   5
ATOM      5  CA  LEU A   1      -5.318   2.967  25.343  0.00  0.00    +0.128 C 
BRANCH   5   6
ATOM      6  C   LEU A   1      -5.729   3.680  25.379  0.00  0.00    +0.204 C 
ATOM      7  O   LEU A   1      -5.735   4.118  26.080  0.00  0.00    -0.219 OA
ENDBRANCH   5   6
BRANCH   5   4
ATOM      4  CB  LEU A   1      -5.627   2.334  24.913  0.00  0.00    +0.024 C 
BRANCH   4   2
ATOM      1  CD1 LEU A   1      -6.890   1.707  24.682  0.00  0.00    +0.000 C 
ATOM      2  CG  LEU A   1      -6.284   1.923  25.198  0.00  0.00    +0.002 C 
ATOM      3  CD2 LEU A   1      -6.333   1.730  25.997  0.00  0.00    +0.000 C 
ENDBRANCH   4   2
ENDBRANCH   5   4
ENDBRANCH   8   5
ENDBRANCH  11   9
ENDBRANCH  12  11
TORSDOF 8
ENDMDL
MODEL 3
REMARK VINA RESULT:     -12.1      1.516      3.559
REMARK  Name = 
REMARK  8 active torsions:
REMARK  status: ('A' for Active; 'I' for Inactive)
REMARK    1  A    between atoms: CG_2  and  CB_4
REMARK    2  A    between atoms: CB_4  and  CA_5
REMARK    3  A    between atoms: CA_5  and  C_6
REMARK    4  A    between atoms: CA_5  and  N_8
REMARK    5  A    between atoms: C_9  and  C_11
REMARK    6  A    between atoms: C_11  and  C_12
REMARK    7  A    between atoms: C_17  and  C_19
REMARK    8  A    between atoms: C_30  and  C_32
REMARK                            x       y       z     vdW  Elec       q    Type
REMARK                         _______ _______ _______ _____ _____    ______ ____
ROOT
ATOM     12  C   UNK A   0      -2.722  -0.323  25.097  0.00  0.00    +0.050 C 
ATOM     13  C   UNK A   0      -3.383   0.152  24.957  0.00  0.00    +0.063 A 
ATOM     14  C   UNK A   0      -4.056  -0.172  24.606  0.00  0.00    +0.023 A 
ATOM     15  C   UNK A   0      -4.068  -0.968  24.395  0.00  0.00    +0.034 C 
ATOM     16  C   UNK A   0      -3.408  -1.443  24.534  0.00  0.00    +0.010 C 
ATOM     17  C   UNK A   0      -3.421  -2.240  24.323  0.00  0.00    +0.059 C 
ATOM     18  C   UNK A   0      -4.176  -2.016  24.080  0.00  0.00    +0.005 C 
ATOM     21  C   UNK A   0      -2.760  -2.714  24.462  0.00  0.00    +0.154 C 
ATOM     22  O   UNK A   0      -2.772  -3.512  24.251  0.00  0.00    -0.223 OA
ATOM     23  C   UNK A   0      -2.087  -2.391  24.813  0.00  0.00    +0.033 C 
ATOM     24  C   UNK A   0      -2.075  -1.594  25.025  0.00  0.00    +0.003 C 
ATOM     25  C   UNK A   0      -2.735  -1.119  24.885  0.00  0.00    +0.006 C 
ATOM     26  C   UNK A   0      -2.062  -0.797  25.236  0.00  0.00    +0.000 C 
ATOM     27  S   UNK A   0      -4.619   0.428  24.537  0.00  0.00    -0.054 S 
ATOM     28  C   UNK A   0      -4.295   1.120  24.845  0.00  0.00    +0.185 A 
ATOM     29  N   UNK A   0      -4.669   1.855  24.887  0.00  0.00    -0.151 NA
ATOM     30  C   UNK A   0      -4.273   2.501  25.212  0.00  0.00    +0.271 C 
ATOM     31  O   UNK A   0      -3.503   2.414  25.495  0.00  0.00    -0.268 OA
ATOM     39  N   UNK A   0      -3.530   0.950  25.105  0.00  0.00    -0.227 NA
ENDROOT
BRANCH  30  32
ATOM     32  C   UNK A   0      -4.647   3.236  25.254  0.00  0.00    +0.058 A 
ATOM     33  C   UNK A   0      -4.239   3.919  25.039  0.00  0.00    +0.005 A 
ATOM     34  C   UNK A   0      -4.613   4.654  25.081  0.00  0.00    +0.002 A 
ATOM     35  C   UNK A   0      -5.395   4.704  25.338  0.00  0.00    +0.030 A 
ATOM     36  C   UNK A   0      -5.804   4.019  25.553  0.00  0.00    +0.140 A 
ATOM     37  F   UNK A   0      -6.586   4.070  25.810  0.00  0.00    -0.204 F 
ATOM     38  C   UNK A   0      -5.429   3.286  25.511  0.00  0.00    +0.034 A 
ENDBRANCH  30  32
BRANCH  17  19
ATOM     19  C   UNK A   0      -3.696  -2.959  24.027  0.00  0.00    +0.184 C 
ATOM     20  O   UNK A   0      -4.406  -2.988  23.608  0.00  0.00    -0.220 OA
ENDBRANCH  17  19
BRANCH  12  11
ATOM     11  C   UNK A   0      -2.049   0.001  25.448  0.00  0.00    +0.093 C 
BRANCH  11   9
ATOM      8  N   LEU A   1      -0.976   0.940  25.362  0.00  0.00    -0.204 NA
ATOM      9  C   UNK A   0      -1.518   0.439  24.993  0.00  0.00    +0.242 C 
ATOM     10  O   UNK A   0      -1.528   0.376  24.171  0.00  0.00    -0.273 OA
BRANCH   8   5
ATOM      5  CA  LEU A   1      -0.444   1.379  24.907  0.00  0.00    +0.128 C 
BRANCH   5   6
ATOM      6  C   LEU A   1       0.190   1.003  24.539  0.00  0.00    +0.204 C 
ATOM      7  O   LEU A   1       0.441   1.252  23.793  0.00  0.00    -0.219 OA
ENDBRANCH   5   6
BRANCH   5   4
ATOM      4  CB  LEU A   1      -0.549   2.192  24.822  0.00  0.00    +0.024 C 
BRANCH   4   2
ATOM      1  CD1 LEU A   1      -0.584   3.485  25.430  0.00  0.00    +0.000 C 
ATOM      2  CG  LEU A   1      -0.321   2.703  25.429  0.00  0.00    +0.002 C 
ATOM      3  CD2 LEU A   1       0.168   2.432  26.034  0.00  0.00    +0.000 C 
ENDBRANCH   4   2
ENDBRANCH   5   4
ENDBRANCH   8   5
ENDBRANCH  11   9
ENDBRANCH  12  11
TORSDOF 8
ENDMDL
MODEL 4
REMARK VINA RESULT:     -12.1      2.005      4.003
REMARK  Name = 
REMARK  8 active torsions:
REMARK  status: ('A' for Active; 'I' for Inactive)
REMARK    1  A    between atoms: CG_2  and  CB_4
REMARK    2  A    between atoms: CB_4  and  CA_5
REMARK    3  A    between atoms: CA_5  and  C_6
REMARK    4  A    between atoms: CA_5  and  N_8
REMARK    5  A    between atoms: C_9  and  C_11
REMARK    6  A    between atoms: C_11  and  C_12
REMARK    7  A    between atoms: C_17  and  C_19
REMARK    8  A    between atoms: C_30  and  C_32
REMARK                            x       y       z     vdW  Elec       q    Type
REMARK                         _______ _______ _______ _____ _____    ______ ____
ROOT
ATOM     12  C   UNK A   0      -1.710  -0.294  24.725  0.00  0.00    +0.050 C 
ATOM     13  C   UNK A   0      -2.143   0.406  24.796  0.00  0.00    +0.063 A 
ATOM     14  C   UNK A   0      -2.966   0.386  24.756  0.00  0.00    +0.023 A 
ATOM     15  C   UNK A   0      -3.357  -0.331  24.644  0.00  0.00    +0.034 C 
ATOM     16  C   UNK A   0      -2.925  -1.030  24.573  0.00  0.00    +0.010 C 
ATOM     17  C   UNK A   0      -3.317  -1.748  24.462  0.00  0.00    +0.059 C 
ATOM     18  C   UNK A   0      -3.963  -1.237  24.499  0.00  0.00    +0.005 C 
ATOM     21  C   UNK A   0      -2.884  -2.446  24.391  0.00  0.00    +0.154 C 
ATOM     22  O   UNK A   0      -3.275  -3.165  24.279  0.00  0.00    -0.223 OA
ATOM     23  C   UNK A   0      -2.060  -2.428  24.432  0.00  0.00    +0.033 C 
ATOM     24  C   UNK A   0      -1.669  -1.710  24.543  0.00  0.00    +0.003 C 
ATOM     25  C   UNK A   0      -2.101  -1.011  24.614  0.00  0.00    +0.006 C 
ATOM     26  C   UNK A   0      -1.278  -0.992  24.654  0.00  0.00    +0.000 C 
ATOM     27  S   UNK A   0      -3.243   1.159  24.843  0.00  0.00    -0.054 S 
ATOM     28  C   UNK A   0      -2.591   1.655  24.938  0.00  0.00    +0.185 A 
ATOM     29  N   UNK A   0      -2.615   2.473  25.043  0.00  0.00    -0.151 NA
ATOM     30  C   UNK A   0      -1.914   2.898  25.131  0.00  0.00    +0.271 C 
ATOM     31  O   UNK A   0      -1.188   2.505  25.114  0.00  0.00    -0.268 OA
ATOM     39  N   UNK A   0      -1.910   1.189  24.909  0.00  0.00    -0.227 NA
ENDROOT
BRANCH  30  32
ATOM     32  C   UNK A   0      -1.937   3.716  25.236  0.00  0.00    +0.058 A 
ATOM     33  C   UNK A   0      -2.592   4.068  25.591  0.00  0.00    +0.005 A 
ATOM     34  C   UNK A   0      -2.615   4.886  25.696  0.00  0.00    +0.002 A 
ATOM     35  C   UNK A   0      -1.982   5.352  25.447  0.00  0.00    +0.030 A 
ATOM     36  C   UNK A   0      -1.325   4.999  25.092  0.00  0.00    +0.140 A 
ATOM     37  F   UNK A   0      -0.691   5.465  24.842  0.00  0.00    -0.204 F 
ATOM     38  C   UNK A   0      -1.303   4.181  24.987  0.00  0.00    +0.034 A 
ENDBRANCH  30  32
BRANCH  17  19
ATOM     19  C   UNK A   0      -3.932  -2.287  24.363  0.00  0.00    +0.184 C 
ATOM     20  O   UNK A   0      -4.613  -2.066  23.952  0.00  0.00    -0.220 OA
ENDBRANCH  17  19
BRANCH  12  11
ATOM     11  C   UNK A   0      -0.887  -0.275  24.766  0.00  0.00    +0.093 C 
BRANCH  11   9
ATOM      8  N   LEU A   1       0.368   0.059  24.169  0.00  0.00    -0.204 NA
ATOM      9  C   UNK A   0      -0.446  -0.051  24.104  0.00  0.00    +0.242 C 
ATOM     10  O   UNK A   0      -0.821   0.061  23.379  0.00  0.00    -0.273 OA
BRANCH   8   5
ATOM      5  CA  LEU A   1       0.808   0.283  23.507  0.00  0.00    +0.128 C 
BRANCH   5   6
ATOM      6  C   LEU A   1       1.040   1.068  23.412  0.00  0.00    +0.204 C 
ATOM      7  O   LEU A   1       1.257   1.517  24.070  0.00  0.00    -0.219 OA
ENDBRANCH   5   6
BRANCH   5   4
ATOM      4  CB  LEU A   1       1.016  -0.280  22.942  0.00  0.00    +0.024 C 
BRANCH   4   2
ATOM      1  CD1 LEU A   1       1.811  -0.177  21.759  0.00  0.00    +0.000 C 
ATOM      2  CG  LEU A   1       1.757  -0.247  22.579  0.00  0.00    +0.002 C 
ATOM      3  CD2 LEU A   1       2.441  -0.284  23.037  0.00  0.00    +0.000 C 
ENDBRANCH   4   2
ENDBRANCH   5   4
ENDBRANCH   8   5
ENDBRANCH  11   9
ENDBRANCH  12  11
TORSDOF 8
ENDMDL
MODEL 5
REMARK VINA RESULT:     -12.1      2.217      5.694
REMARK  Name = 
REMARK  8 active torsions:
REMARK  status: ('A' for Active; 'I' for Inactive)
REMARK    1  A    between atoms: CG_2  and  CB_4
REMARK    2  A    between atoms: CB_4  and  CA_5
REMARK    3  A    between atoms: CA_5  and  C_6
REMARK    4  A    between atoms: CA_5  and  N_8
REMARK    5  A    between atoms: C_9  and  C_11
REMARK    6  A    between atoms: C_11  and  C_12
REMARK    7  A    between atoms: C_17  and  C_19
REMARK    8  A    between atoms: C_30  and  C_32
REMARK                            x       y       z     vdW  Elec       q    Type
REMARK                         _______ _______ _______ _____ _____    ______ ____
ROOT
ATOM     12  C   UNK A   0      -3.517   2.293  24.570  0.00  0.00    +0.050 C 
ATOM     13  C   UNK A   0      -3.873   1.561  24.712  0.00  0.00    +0.063 A 
ATOM     14  C   UNK A   0      -4.622   1.528  25.057  0.00  0.00    +0.023 A 
ATOM     15  C   UNK A   0      -5.014   2.223  25.261  0.00  0.00    +0.034 C 
ATOM     16  C   UNK A   0      -4.658   2.954  25.120  0.00  0.00    +0.010 C 
ATOM     17  C   UNK A   0      -5.050   3.651  25.325  0.00  0.00    +0.059 C 
ATOM     18  C   UNK A   0      -5.610   3.095  25.566  0.00  0.00    +0.005 C 
ATOM     21  C   UNK A   0      -4.694   4.381  25.183  0.00  0.00    +0.154 C 
ATOM     22  O   UNK A   0      -5.086   5.078  25.388  0.00  0.00    -0.223 OA
ATOM     23  C   UNK A   0      -3.946   4.416  24.838  0.00  0.00    +0.033 C 
ATOM     24  C   UNK A   0      -3.554   3.719  24.634  0.00  0.00    +0.003 C 
ATOM     25  C   UNK A   0      -3.909   2.988  24.775  0.00  0.00    +0.006 C 
ATOM     26  C   UNK A   0      -3.161   3.023  24.429  0.00  0.00    +0.000 C 
ATOM     27  S   UNK A   0      -4.832   0.733  25.129  0.00  0.00    -0.054 S 
ATOM     28  C   UNK A   0      -4.215   0.277  24.828  0.00  0.00    +0.185 A 
ATOM     29  N   UNK A   0      -4.194  -0.548  24.791  0.00  0.00    -0.151 NA
ATOM     30  C   UNK A   0      -3.536  -0.930  24.474  0.00  0.00    +0.271 C 
ATOM     31  O   UNK A   0      -2.898  -0.488  24.193  0.00  0.00    -0.268 OA
ATOM     39  N   UNK A   0      -3.622   0.789  24.570  0.00  0.00    -0.227 NA
ENDROOT
BRANCH  30  32
ATOM     32  C   UNK A   0      -3.514  -1.754  24.438  0.00  0.00    +0.058 A 
ATOM     33  C   UNK A   0      -2.950  -2.172  24.869  0.00  0.00    +0.005 A 
ATOM     34  C   UNK A   0      -2.928  -2.996  24.832  0.00  0.00    +0.002 A 
ATOM     35  C   UNK A   0      -3.472  -3.402  24.363  0.00  0.00    +0.030 A 
ATOM     36  C   UNK A   0      -4.038  -2.983  23.931  0.00  0.00    +0.140 A 
ATOM     37  F   UNK A   0      -4.582  -3.389  23.462  0.00  0.00    -0.204 F 
ATOM     38  C   UNK A   0      -4.058  -2.160  23.968  0.00  0.00    +0.034 A 
ENDBRANCH  30  32
BRANCH  17  19
ATOM     19  C   UNK A   0      -5.637   4.154  25.613  0.00  0.00    +0.184 C 
ATOM     20  O   UNK A   0      -6.358   3.843  25.867  0.00  0.00    -0.220 OA
ENDBRANCH  17  19
BRANCH  12  11
ATOM     11  C   UNK A   0      -2.769   2.326  24.225  0.00  0.00    +0.093 C 
BRANCH  11   9
ATOM      8  N   LEU A   1      -1.362   2.096  24.327  0.00  0.00    -0.204 NA
ATOM      9  C   UNK A   0      -2.095   2.208  24.688  0.00  0.00    +0.242 C 
ATOM     10  O   UNK A   0      -2.156   2.203  25.510  0.00  0.00    -0.273 OA
BRANCH   8   5
ATOM      5  CA  LEU A   1      -0.689   1.978  24.790  0.00  0.00    +0.128 C 
BRANCH   5   6
ATOM      6  C   LEU A   1      -0.418   2.579  25.285  0.00  0.00    +0.204 C 
ATOM      7  O   LEU A   1      -0.060   2.391  26.005  0.00  0.00    -0.219 OA
ENDBRANCH   5   6
BRANCH   5   4
ATOM      4  CB  LEU A   1      -0.288   1.258  24.758  0.00  0.00    +0.024 C 
BRANCH   4   2
ATOM      1  CD1 LEU A   1       0.096   0.383  23.695  0.00  0.00    +0.000 C 
ATOM      2  CG  LEU A   1       0.200   1.086  24.114  0.00  0.00    +0.002 C 
ATOM      3  CD2 LEU A   1       0.788   1.617  23.890  0.00  0.00    +0.000 C 
ENDBRANCH   4   2
ENDBRANCH   5   4
ENDBRANCH   8   5
ENDBRANCH  11   9
ENDBRANCH  12  11
TORSDOF 8
ENDMDL
MODEL 6
REMARK VINA RESULT:     -11.9      2.057      4.359
REMARK  Name = 
REMARK  8 active torsions:
REMARK  status: ('A' for Active; 'I' for Inactive)
REMARK    1  A    between atoms: CG_2  and  CB_4
REMARK    2  A    between atoms: CB_4  and  CA_5
REMARK    3  A    between atoms: CA_5  and  C_6
REMARK    4  A    between atoms: CA_5  and  N_8
REMARK    5  A    between atoms: C_9  and  C_11
REMARK    6  A    between atoms: C_11  and  C_12
REMARK    7  A    between atoms: C_17  and  C_19
REMARK    8  A    between atoms: C_30  and  C_32
REMARK                            x       y       z     vdW  Elec       q    Type
REMARK                         _______ _______ _______ _____ _____    ______ ____
ROOT
ATOM     12  C   UNK A   0      -3.550   1.435  24.337  0.00  0.00    +0.050 C 
ATOM     13  C   UNK A   0      -2.745   1.615  24.360  0.00  0.00    +0.063 A 
ATOM     14  C   UNK A   0      -2.487   2.300  24.740  0.00  0.00    +0.023 A 
ATOM     15  C   UNK A   0      -3.032   2.805  25.095  0.00  0.00    +0.034 C 
ATOM     16  C   UNK A   0      -3.837   2.626  25.071  0.00  0.00    +0.010 C 
ATOM     17  C   UNK A   0      -4.384   3.132  25.427  0.00  0.00    +0.059 C 
ATOM     18  C   UNK A   0      -3.685   3.536  25.594  0.00  0.00    +0.005 C 
ATOM     21  C   UNK A   0      -5.188   2.952  25.403  0.00  0.00    +0.154 C 
ATOM     22  O   UNK A   0      -5.735   3.458  25.759  0.00  0.00    -0.223 OA
ATOM     23  C   UNK A   0      -5.447   2.267  25.024  0.00  0.00    +0.033 C 
ATOM     24  C   UNK A   0      -4.901   1.761  24.669  0.00  0.00    +0.003 C 
ATOM     25  C   UNK A   0      -4.096   1.940  24.692  0.00  0.00    +0.006 C 
ATOM     26  C   UNK A   0      -4.354   1.255  24.313  0.00  0.00    +0.000 C 
ATOM     27  S   UNK A   0      -1.665   2.333  24.674  0.00  0.00    -0.054 S 
ATOM     28  C   UNK A   0      -1.415   1.668  24.255  0.00  0.00    +0.185 A 
ATOM     29  N   UNK A   0      -0.635   1.479  24.063  0.00  0.00    -0.151 NA
ATOM     30  C   UNK A   0      -0.469   0.792  23.640  0.00  0.00    +0.271 C 
ATOM     31  O   UNK A   0      -1.083   0.292  23.407  0.00  0.00    -0.268 OA
ATOM     39  N   UNK A   0      -2.083   1.223  24.061  0.00  0.00    -0.227 NA
ENDROOT
BRANCH  30  32
ATOM     32  C   UNK A   0       0.311   0.603  23.448  0.00  0.00    +0.058 A 
ATOM     33  C   UNK A   0       0.495  -0.145  23.155  0.00  0.00    +0.005 A 
ATOM     34  C   UNK A   0       1.275  -0.334  22.963  0.00  0.00    +0.002 A 
ATOM     35  C   UNK A   0       1.871   0.227  23.064  0.00  0.00    +0.030 A 
ATOM     36  C   UNK A   0       1.688   0.976  23.358  0.00  0.00    +0.140 A 
ATOM     37  F   UNK A   0       2.284   1.537  23.459  0.00  0.00    -0.204 F 
ATOM     38  C   UNK A   0       0.908   1.164  23.549  0.00  0.00    +0.034 A 
ENDBRANCH  30  32
BRANCH  17  19
ATOM     19  C   UNK A   0      -4.687   3.778  25.840  0.00  0.00    +0.184 C 
ATOM     20  O   UNK A   0      -4.180   4.265  26.274  0.00  0.00    -0.220 OA
ENDBRANCH  17  19
BRANCH  12  11
ATOM     11  C   UNK A   0      -3.808   0.749  23.958  0.00  0.00    +0.093 C 
BRANCH  11   9
ATOM      8  N   LEU A   1      -3.711  -0.676  23.943  0.00  0.00    -0.204 NA
ATOM      9  C   UNK A   0      -3.804   0.029  24.361  0.00  0.00    +0.242 C 
ATOM     10  O   UNK A   0      -3.892   0.014  25.180  0.00  0.00    -0.273 OA
BRANCH   8   5
ATOM      5  CA  LEU A   1      -3.707  -1.397  24.347  0.00  0.00    +0.128 C 
BRANCH   5   6
ATOM      6  C   LEU A   1      -4.324  -1.933  24.240  0.00  0.00    +0.204 C 
ATOM      7  O   LEU A   1      -4.681  -2.009  23.500  0.00  0.00    -0.219 OA
ENDBRANCH   5   6
BRANCH   5   4
ATOM      4  CB  LEU A   1      -3.084  -1.580  24.856  0.00  0.00    +0.024 C 
BRANCH   4   2
ATOM      1  CD1 LEU A   1      -3.141  -2.930  25.321  0.00  0.00    +0.000 C 
ATOM      2  CG  LEU A   1      -2.774  -2.345  24.869  0.00  0.00    +0.002 C 
ATOM      3  CD2 LEU A   1      -2.099  -2.524  24.432  0.00  0.00    +0.000 C 
ENDBRANCH   4   2
ENDBRANCH   5   4
ENDBRANCH   8   5
ENDBRANCH  11   9
ENDBRANCH  12  11
TORSDOF 8
ENDMDL
MODEL 7
REMARK VINA RESULT:     -11.7      2.317      5.919
REMARK  Name = 
REMARK  8 active torsions:
REMARK  status: ('A' for Active; 'I' for Inactive)
REMARK    1  A    between atoms: CG_2  and  CB_4
REMARK    2  A    between atoms: CB_4  and  CA_5
REMARK    3  A    between atoms: CA_5  and  C_6
REMARK    4  A    between atoms: CA_5  and  N_8
REMARK    5  A    between atoms: C_9  and  C_11
REMARK    6  A    between atoms: C_11  and  C_12
REMARK    7  A    between atoms: C_17  and  C_19
REMARK    8  A    between atoms: C_30  and  C_32
REMARK                            x       y       z     vdW  Elec       q    Type
REMARK                         _______ _______ _______ _____ _____    ______ ____
ROOT
ATOM     12  C   UNK A   0      -2.155   2.048  25.227  0.00  0.00    +0.050 C 
ATOM     13  C   UNK A   0      -2.762   1.510  25.072  0.00  0.00    +0.063 A 
ATOM     14  C   UNK A   0      -3.542   1.773  25.021  0.00  0.00    +0.023 A 
ATOM     15  C   UNK A   0      -3.716   2.572  25.126  0.00  0.00    +0.034 C 
ATOM     16  C   UNK A   0      -3.109   3.109  25.281  0.00  0.00    +0.010 C 
ATOM     17  C   UNK A   0      -3.283   3.909  25.386  0.00  0.00    +0.059 C 
ATOM     18  C   UNK A   0      -4.041   3.615  25.251  0.00  0.00    +0.005 C 
ATOM     21  C   UNK A   0      -2.676   4.446  25.542  0.00  0.00    +0.154 C 
ATOM     22  O   UNK A   0      -2.850   5.246  25.647  0.00  0.00    -0.223 OA
ATOM     23  C   UNK A   0      -1.896   4.183  25.592  0.00  0.00    +0.033 C 
ATOM     24  C   UNK A   0      -1.722   3.384  25.487  0.00  0.00    +0.003 C 
ATOM     25  C   UNK A   0      -2.328   2.846  25.332  0.00  0.00    +0.006 C 
ATOM     26  C   UNK A   0      -1.549   2.584  25.382  0.00  0.00    +0.000 C 
ATOM     27  S   UNK A   0      -4.021   1.120  24.863  0.00  0.00    -0.054 S 
ATOM     28  C   UNK A   0      -3.537   0.454  24.815  0.00  0.00    +0.185 A 
ATOM     29  N   UNK A   0      -3.787  -0.318  24.665  0.00  0.00    -0.151 NA
ATOM     30  C   UNK A   0      -3.236  -0.931  24.633  0.00  0.00    +0.271 C 
ATOM     31  O   UNK A   0      -2.435  -0.773  24.752  0.00  0.00    -0.268 OA
ATOM     39  N   UNK A   0      -2.758   0.695  24.944  0.00  0.00    -0.227 NA
ENDROOT
BRANCH  30  32
ATOM     32  C   UNK A   0      -3.486  -1.703  24.483  0.00  0.00    +0.058 A 
ATOM     33  C   UNK A   0      -3.156  -2.332  24.901  0.00  0.00    +0.005 A 
ATOM     34  C   UNK A   0      -3.405  -3.105  24.751  0.00  0.00    +0.002 A 
ATOM     35  C   UNK A   0      -3.985  -3.247  24.182  0.00  0.00    +0.030 A 
ATOM     36  C   UNK A   0      -4.316  -2.616  23.763  0.00  0.00    +0.140 A 
ATOM     37  F   UNK A   0      -4.897  -2.758  23.194  0.00  0.00    -0.204 F 
ATOM     38  C   UNK A   0      -4.066  -1.845  23.914  0.00  0.00    +0.034 A 
ENDBRANCH  30  32
BRANCH  17  19
ATOM     19  C   UNK A   0      -3.720   4.606  25.444  0.00  0.00    +0.184 C 
ATOM     20  O   UNK A   0      -4.545   4.578  25.431  0.00  0.00    -0.220 OA
ENDBRANCH  17  19
BRANCH  12  11
ATOM     11  C   UNK A   0      -1.375   1.784  25.277  0.00  0.00    +0.093 C 
BRANCH  11   9
ATOM      8  N   LEU A   1      -0.241   1.217  24.618  0.00  0.00    -0.204 NA
ATOM      9  C   UNK A   0      -0.937   1.660  24.589  0.00  0.00    +0.242 C 
ATOM     10  O   UNK A   0      -1.194   1.978  23.873  0.00  0.00    -0.273 OA
BRANCH   8   5
ATOM      5  CA  LEU A   1       0.197   1.093  23.929  0.00  0.00    +0.128 C 
BRANCH   5   6
ATOM      6  C   LEU A   1       0.828   1.590  23.747  0.00  0.00    +0.204 C 
ATOM      7  O   LEU A   1       1.314   1.878  24.349  0.00  0.00    -0.219 OA
ENDBRANCH   5   6
BRANCH   5   4
ATOM      4  CB  LEU A   1       0.002   0.471  23.424  0.00  0.00    +0.024 C 
BRANCH   4   2
ATOM      1  CD1 LEU A   1       0.495  -0.811  23.819  0.00  0.00    +0.000 C 
ATOM      2  CG  LEU A   1       0.530  -0.156  23.319  0.00  0.00    +0.002 C 
ATOM      3  CD2 LEU A   1       1.091  -0.126  22.716  0.00  0.00    +0.000 C 
ENDBRANCH   4   2
ENDBRANCH   5   4
ENDBRANCH   8   5
ENDBRANCH  11   9
ENDBRANCH  12  11
TORSDOF 8
ENDMDL
MODEL 8
REMARK VINA RESULT:     -11.4      2.028      5.369
REMARK  Name = 
REMARK  8 active torsions:
REMARK  status: ('A' for Active; 'I' for Inactive)
REMARK    1  A    between atoms: CG_2  and  CB_4
REMARK    2  A    between atoms: CB_4  and  CA_5
REMARK    3  A    between atoms: CA_5  and  C_6
REMARK    4  A    between atoms: CA_5  and  N_8
REMARK    5  A    between atoms: C_9  and  C_11
REMARK    6  A    between atoms: C_11  and  C_12
REMARK    7  A    between atoms: C_17  and  C_19
REMARK    8  A    between atoms: C_30  and  C_32
REMARK                            x       y       z     vdW  Elec       q    Type
REMARK                         _______ _______ _______ _____ _____    ______ ____
ROOT
ATOM     12  C   UNK A   0      -3.761   2.201  24.702  0.00  0.00    +0.050 C 
ATOM     13  C   UNK A   0      -3.899   1.399  24.838  0.00  0.00    +0.063 A 
ATOM     14  C   UNK A   0      -4.593   1.158  25.214  0.00  0.00    +0.023 A 
ATOM     15  C   UNK A   0      -5.148   1.718  25.453  0.00  0.00    +0.034 C 
ATOM     16  C   UNK A   0      -5.011   2.520  25.317  0.00  0.00    +0.010 C 
ATOM     17  C   UNK A   0      -5.567   3.080  25.557  0.00  0.00    +0.059 C 
ATOM     18  C   UNK A   0      -5.943   2.390  25.806  0.00  0.00    +0.005 C 
ATOM     21  C   UNK A   0      -5.429   3.882  25.421  0.00  0.00    +0.154 C 
ATOM     22  O   UNK A   0      -5.985   4.444  25.661  0.00  0.00    -0.223 OA
ATOM     23  C   UNK A   0      -4.735   4.124  25.046  0.00  0.00    +0.033 C 
ATOM     24  C   UNK A   0      -4.179   3.563  24.806  0.00  0.00    +0.003 C 
ATOM     25  C   UNK A   0      -4.317   2.761  24.942  0.00  0.00    +0.006 C 
ATOM     26  C   UNK A   0      -3.623   3.003  24.566  0.00  0.00    +0.000 C 
ATOM     27  S   UNK A   0      -4.577   0.335  25.273  0.00  0.00    -0.054 S 
ATOM     28  C   UNK A   0      -3.875   0.068  24.934  0.00  0.00    +0.185 A 
ATOM     29  N   UNK A   0      -3.633  -0.719  24.874  0.00  0.00    -0.151 NA
ATOM     30  C   UNK A   0      -2.912  -0.903  24.519  0.00  0.00    +0.271 C 
ATOM     31  O   UNK A   0      -2.432  -0.301  24.224  0.00  0.00    -0.268 OA
ATOM     39  N   UNK A   0      -3.455   0.726  24.665  0.00  0.00    -0.227 NA
ENDROOT
BRANCH  30  32
ATOM     32  C   UNK A   0      -2.670  -1.690  24.459  0.00  0.00    +0.058 A 
ATOM     33  C   UNK A   0      -1.871  -1.882  24.525  0.00  0.00    +0.005 A 
ATOM     34  C   UNK A   0      -1.629  -2.669  24.465  0.00  0.00    +0.002 A 
ATOM     35  C   UNK A   0      -2.187  -3.263  24.338  0.00  0.00    +0.030 A 
ATOM     36  C   UNK A   0      -2.987  -3.071  24.272  0.00  0.00    +0.140 A 
ATOM     37  F   UNK A   0      -3.545  -3.665  24.145  0.00  0.00    -0.204 F 
ATOM     38  C   UNK A   0      -3.228  -2.284  24.332  0.00  0.00    +0.034 A 
ENDBRANCH  30  32
BRANCH  17  19
ATOM     19  C   UNK A   0      -6.253   3.401  25.883  0.00  0.00    +0.184 C 
ATOM     20  O   UNK A   0      -6.637   3.011  26.501  0.00  0.00    -0.220 OA
ENDBRANCH  17  19
BRANCH  12  11
ATOM     11  C   UNK A   0      -3.068   2.442  24.327  0.00  0.00    +0.093 C 
BRANCH  11   9
ATOM      8  N   LEU A   1      -1.719   2.908  24.417  0.00  0.00    -0.204 NA
ATOM      9  C   UNK A   0      -2.379   2.557  24.768  0.00  0.00    +0.242 C 
ATOM     10  O   UNK A   0      -2.351   2.323  25.557  0.00  0.00    -0.273 OA
BRANCH   8   5
ATOM      5  CA  LEU A   1      -1.031   3.023  24.858  0.00  0.00    +0.128 C 
BRANCH   5   6
ATOM      6  C   LEU A   1      -0.489   2.408  24.944  0.00  0.00    +0.204 C 
ATOM      7  O   LEU A   1      -0.154   2.253  25.683  0.00  0.00    -0.219 OA
ENDBRANCH   5   6
BRANCH   5   4
ATOM      4  CB  LEU A   1      -0.886   3.754  25.212  0.00  0.00    +0.024 C 
BRANCH   4   2
ATOM      1  CD1 LEU A   1      -0.082   4.237  24.134  0.00  0.00    +0.000 C 
ATOM      2  CG  LEU A   1      -0.601   4.382  24.758  0.00  0.00    +0.002 C 
ATOM      3  CD2 LEU A   1      -0.835   5.153  24.930  0.00  0.00    +0.000 C 
ENDBRANCH   4   2
ENDBRANCH   5   4
ENDBRANCH   8   5
ENDBRANCH  11   9
ENDBRANCH  12  11
TORSDOF 8
ENDMDL
MODEL 9
REMARK VINA RESULT:     -11.4      2.820      3.957
REMARK  Name = 
REMARK  8 active torsions:
REMARK  status: ('A' for Active; 'I' for Inactive)
REMARK    1  A    between atoms: CG_2  and  CB_4
REMARK    2  A    between atoms: CB_4  and  CA_5
REMARK    3  A    between atoms: CA_5  and  C_6
REMARK    4  A    between atoms: CA_5  and  N_8
REMARK    5  A    between atoms: C_9  and  C_11
REMARK    6  A    between atoms: C_11  and  C_12
REMARK    7  A    between atoms: C_17  and  C_19
REMARK    8  A    between atoms: C_30  and  C_32
REMARK                            x       y       z     vdW  Elec       q    Type
REMARK                         _______ _______ _______ _____ _____    ______ ____
ROOT
ATOM     12  C   UNK A   0      -1.657   0.338  24.457  0.00  0.00    +0.050 C 
ATOM     13  C   UNK A   0      -0.979  -0.053  24.194  0.00  0.00    +0.063 A 
ATOM     14  C   UNK A   0      -0.933  -0.875  24.241  0.00  0.00    +0.023 A 
ATOM     15  C   UNK A   0      -1.563  -1.306  24.549  0.00  0.00    +0.034 C 
ATOM     16  C   UNK A   0      -2.241  -0.917  24.812  0.00  0.00    +0.010 C 
ATOM     17  C   UNK A   0      -2.872  -1.349  25.122  0.00  0.00    +0.059 C 
ATOM     18  C   UNK A   0      -2.351  -1.963  24.945  0.00  0.00    +0.005 C 
ATOM     21  C   UNK A   0      -3.550  -0.958  25.384  0.00  0.00    +0.154 C 
ATOM     22  O   UNK A   0      -4.181  -1.391  25.694  0.00  0.00    -0.223 OA
ATOM     23  C   UNK A   0      -3.596  -0.136  25.338  0.00  0.00    +0.033 C 
ATOM     24  C   UNK A   0      -2.965   0.296  25.029  0.00  0.00    +0.003 C 
ATOM     25  C   UNK A   0      -2.288  -0.094  24.766  0.00  0.00    +0.006 C 
ATOM     26  C   UNK A   0      -2.334   0.728  24.719  0.00  0.00    +0.000 C 
ATOM     27  S   UNK A   0      -0.199  -1.106  23.940  0.00  0.00    -0.054 S 
ATOM     28  C   UNK A   0       0.207  -0.427  23.709  0.00  0.00    +0.185 A 
ATOM     29  N   UNK A   0       0.963  -0.402  23.378  0.00  0.00    -0.151 NA
ATOM     30  C   UNK A   0       1.300   0.322  23.173  0.00  0.00    +0.271 C 
ATOM     31  O   UNK A   0       0.882   1.022  23.298  0.00  0.00    -0.268 OA
ATOM     39  N   UNK A   0      -0.275   0.225  23.865  0.00  0.00    -0.227 NA
ENDROOT
BRANCH  30  32
ATOM     32  C   UNK A   0       2.056   0.346  22.843  0.00  0.00    +0.058 A 
ATOM     33  C   UNK A   0       2.213  -0.055  22.140  0.00  0.00    +0.005 A 
ATOM     34  C   UNK A   0       2.968  -0.030  21.810  0.00  0.00    +0.002 A 
ATOM     35  C   UNK A   0       3.567   0.397  22.183  0.00  0.00    +0.030 A 
ATOM     36  C   UNK A   0       3.411   0.799  22.887  0.00  0.00    +0.140 A 
ATOM     37  F   UNK A   0       4.010   1.226  23.260  0.00  0.00    -0.204 F 
ATOM     38  C   UNK A   0       2.655   0.774  23.216  0.00  0.00    +0.034 A 
ENDBRANCH  30  32
BRANCH  17  19
ATOM     19  C   UNK A   0      -3.322  -1.994  25.370  0.00  0.00    +0.184 C 
ATOM     20  O   UNK A   0      -3.170  -2.745  25.063  0.00  0.00    -0.220 OA
ENDBRANCH  17  19
BRANCH  12  11
ATOM     11  C   UNK A   0      -1.703   1.160  24.410  0.00  0.00    +0.093 C 
BRANCH  11   9
ATOM      8  N   LEU A   1      -1.296   2.443  24.890  0.00  0.00    -0.204 NA
ATOM      9  C   UNK A   0      -1.351   1.626  24.994  0.00  0.00    +0.242 C 
ATOM     10  O   UNK A   0      -1.056   1.276  25.678  0.00  0.00    -0.273 OA
BRANCH   8   5
ATOM      5  CA  LEU A   1      -0.944   2.909  25.474  0.00  0.00    +0.128 C 
BRANCH   5   6
ATOM      6  C   LEU A   1      -0.149   2.803  25.662  0.00  0.00    +0.204 C 
ATOM      7  O   LEU A   1       0.085   2.751  26.452  0.00  0.00    -0.219 OA
ENDBRANCH   5   6
BRANCH   5   4
ATOM      4  CB  LEU A   1      -1.389   3.481  25.868  0.00  0.00    +0.024 C 
BRANCH   4   2
ATOM      1  CD1 LEU A   1      -1.017   4.613  25.080  0.00  0.00    +0.000 C 
ATOM      2  CG  LEU A   1      -1.594   4.182  25.483  0.00  0.00    +0.002 C 
ATOM      3  CD2 LEU A   1      -2.373   4.450  25.500  0.00  0.00    +0.000 C 
ENDBRANCH   4   2
ENDBRANCH   5   4
ENDBRANCH   8   5
ENDBRANCH  11   9
ENDBRANCH  12  11
TORSDOF 8
ENDMDL
