REMARK  Name = 
REMARK  3 active torsions:
REMARK  status: ('A' for Active; 'I' for Inactive)
REMARK    1  A    between atoms: C_4  and  C_5
REMARK    2  A    between atoms: C_5  and  N_6
REMARK    3  A    between atoms: N_12  and  C_13
REMARK                            x       y       z     vdW  Elec       q    Type
REMARK                         _______ _______ _______ _____ _____    ______ ____
ROOT
ATOM      6  N   UNL     1       3.352   1.935   0.000  0.00  0.00    -0.266 NA
ATOM      7  C   UNL     1       3.352   1.110   0.000  0.00  0.00    +0.094 C 
ATOM      8  C   UNL     1       2.638   0.698   0.000  0.00  0.00    +0.112 C 
ATOM      9  N   UNL     1       1.923   1.110   0.000  0.00  0.00    -0.261 N 
ATOM     10  C   UNL     1       1.923   1.935   0.000  0.00  0.00    +0.113 C 
ATOM     11  C   UNL     1       1.139   2.190   0.000  0.00  0.00    +0.116 C 
ATOM     12  N   UNL     1       0.654   1.523   0.000  0.00  0.00    -0.264 N 
ATOM     19  C   UNL     1       1.139   0.856   0.000  0.00  0.00    +0.307 C 
ATOM     20  O   UNL     1       0.884   0.071   0.000  0.00  0.00    -0.252 OA
ATOM     21  C   UNL     1       2.638   2.348   0.000  0.00  0.00    +0.094 C 
ENDROOT
BRANCH  12  13
ATOM     13  C   UNL     1      -0.171   1.523   0.000  0.00  0.00    +0.077 C 
ATOM     14  C   UNL     1      -0.584   0.808   0.000  0.00  0.00    +0.020 C 
ATOM     15  C   UNL     1      -1.409   0.808   0.000  0.00  0.00    +0.002 C 
ATOM     16  C   UNL     1      -1.821   1.523   0.000  0.00  0.00    +0.000 C 
ATOM     17  C   UNL     1      -1.409   2.237   0.000  0.00  0.00    +0.002 C 
ATOM     18  C   UNL     1      -0.584   2.237   0.000  0.00  0.00    +0.020 C 
ENDBRANCH  12  13
BRANCH   6   5
ATOM      5  C   UNL     1       4.067   2.348   0.000  0.00  0.00    +0.102 C 
BRANCH   5   4
ATOM      1  C   UNL     1       6.010   0.190   0.000  0.00  0.00    +0.154 C 
ATOM      2  N   UNL     1       5.674   0.943   0.000  0.00  0.00    -0.248 N 
ATOM      3  C   UNL     1       4.867   1.115   0.000  0.00  0.00    +0.094 A 
ATOM      4  C   UNL     1       4.781   1.935   0.000  0.00  0.00    +0.033 A 
ATOM     22  C   UNL     1       5.535   2.271   0.000  0.00  0.00    +0.119 A 
ATOM     23  N   UNL     1       6.087   1.658   0.000  0.00  0.00    -0.168 NA
ENDBRANCH   5   4
ENDBRANCH   6   5
TORSDOF 3
