REMARK  Name = 
REMARK  6 active torsions:
REMARK  status: ('A' for Active; 'I' for Inactive)
REMARK    1  A    between atoms: S_2  and  N_4
REMARK    2  A    between atoms: S_2  and  C_29
REMARK    3  A    between atoms: N_4  and  C_5
REMARK    4  A    between atoms: C_9  and  N_13
REMARK    5  A    between atoms: C_16  and  C_20
REMARK    6  A    between atoms: C_34  and  C_35
REMARK                            x       y       z     vdW  Elec       q    Type
REMARK                         _______ _______ _______ _____ _____    ______ ____
ROOT
ATOM      5  C   UNL     1       5.193  -3.590   0.000  0.00  0.00    +0.157 C 
ATOM      6  C   UNL     1       4.439  -3.925   0.000  0.00  0.00    +0.164 C 
ATOM      7  O   UNL     1       3.887  -3.312   0.000  0.00  0.00    -0.350 OA
ATOM      8  C   UNL     1       4.300  -2.598   0.000  0.00  0.00    +0.166 C 
ATOM      9  C   UNL     1       4.213  -1.777   0.000  0.00  0.00    +0.154 C 
ATOM     10  C   UNL     1       4.967  -1.442   0.000  0.00  0.00    +0.166 C 
ATOM     11  O   UNL     1       5.519  -2.055   0.000  0.00  0.00    -0.350 OA
ATOM     12  C   UNL     1       5.107  -2.769   0.000  0.00  0.00    +0.164 C 
ENDROOT
BRANCH   9  13
ATOM     13  N   UNL     1       3.499  -1.365   0.000  0.00  0.00    -0.200 NA
ATOM     14  C   UNL     1       3.499  -0.540   0.000  0.00  0.00    +0.237 A 
ATOM     15  N   UNL     1       2.784  -0.127   0.000  0.00  0.00    -0.212 NA
ATOM     16  C   UNL     1       2.784   0.698   0.000  0.00  0.00    +0.086 A 
ATOM     17  C   UNL     1       3.499   1.110   0.000  0.00  0.00    +0.040 A 
ATOM     18  C   UNL     1       4.213   0.698   0.000  0.00  0.00    +0.103 A 
ATOM     19  N   UNL     1       4.213  -0.127   0.000  0.00  0.00    -0.211 NA
BRANCH  16  20
ATOM     20  C   UNL     1       2.070   1.110   0.000  0.00  0.00    +0.021 A 
ATOM     21  C   UNL     1       1.356   0.698   0.000  0.00  0.00    +0.042 A 
ATOM     22  C   UNL     1       0.641   1.110   0.000  0.00  0.00    +0.176 A 
ATOM     23  C   UNL     1       0.641   1.935   0.000  0.00  0.00    +0.176 A 
ATOM     24  O   UNL     1      -0.143   2.190   0.000  0.00  0.00    -0.435 OA
ATOM     25  C   UNL     1      -0.628   1.523   0.000  0.00  0.00    +0.429 C 
ATOM     26  O   UNL     1      -0.143   0.856   0.000  0.00  0.00    -0.435 OA
ATOM     27  C   UNL     1       1.356   2.348   0.000  0.00  0.00    +0.040 A 
ATOM     28  C   UNL     1       2.070   1.935   0.000  0.00  0.00    +0.005 A 
ENDBRANCH  16  20
ENDBRANCH   9  13
BRANCH   5   4
ATOM      4  N   UNL     1       5.907  -4.002   0.000  0.00  0.00    -0.074 NA
BRANCH   4   2
ATOM      1  O   UNL     1       5.082  -4.827   0.000  0.00  0.00    -0.152 OA
ATOM      2  S   UNL     1       5.907  -4.827   0.000  0.00  0.00    +0.078 S 
ATOM      3  O   UNL     1       6.732  -4.827   0.000  0.00  0.00    -0.152 OA
BRANCH   2  29
ATOM     29  C   UNL     1       5.907  -5.652   0.000  0.00  0.00    +0.133 A 
ATOM     30  C   UNL     1       6.622  -6.064   0.000  0.00  0.00    +0.021 A 
ATOM     31  C   UNL     1       6.622  -6.889   0.000  0.00  0.00    +0.001 A 
ATOM     32  C   UNL     1       5.907  -7.302   0.000  0.00  0.00    +0.001 A 
ATOM     33  C   UNL     1       5.193  -6.889   0.000  0.00  0.00    +0.012 A 
ATOM     34  C   UNL     1       5.193  -6.064   0.000  0.00  0.00    +0.087 A 
BRANCH  34  35
ATOM     35  C   UNL     1       4.478  -5.652   0.000  0.00  0.00    +0.102 C 
ATOM     36  N   UNL     1       3.764  -5.239   0.000  0.00  0.00    -0.191 NA
ENDBRANCH  34  35
ENDBRANCH   2  29
ENDBRANCH   4   2
ENDBRANCH   5   4
TORSDOF 6
