MODEL 1
REMARK VINA RESULT:     -11.8      0.000      0.000
REMARK  Name = 
REMARK  6 active torsions:
REMARK  status: ('A' for Active; 'I' for Inactive)
REMARK    1  A    between atoms: C_2  and  S_3
REMARK    2  A    between atoms: S_3  and  C_6
REMARK    3  A    between atoms: C_11  and  C_13
REMARK    4  A    between atoms: N_16  and  C_17
REMARK    5  A    between atoms: C_17  and  C_18
REMARK    6  A    between atoms: C_21  and  N_24
REMARK                            x       y       z     vdW  Elec       q    Type
REMARK                         _______ _______ _______ _____ _____    ______ ____
ROOT
ATOM     13  C   UNL     1      -4.800   1.453  25.139  0.00  0.00    +0.094 C 
ATOM     14  C   UNL     1      -5.540   1.629  25.458  0.00  0.00    +0.028 C 
ATOM     15  C   UNL     1      -5.582   2.445  25.572  0.00  0.00    +0.073 C 
ATOM     16  N   UNL     1      -4.867   2.774  25.322  0.00  0.00    -0.268 NA
ATOM     27  C   UNL     1      -4.384   2.160  25.055  0.00  0.00    +0.082 C 
ENDROOT
BRANCH  13  11
ATOM      6  C   UNL     1      -3.297  -1.702  24.533  0.00  0.00    +0.107 A 
ATOM      7  C   UNL     1      -3.210  -0.998  24.953  0.00  0.00    +0.041 A 
ATOM      8  C   UNL     1      -3.774  -0.401  24.879  0.00  0.00    +0.120 A 
ATOM      9  C   UNL     1      -4.426  -0.508  24.385  0.00  0.00    +0.164 A 
ATOM     10  O   UNL     1      -4.889   0.173  24.422  0.00  0.00    -0.438 OA
ATOM     11  C   UNL     1      -4.524   0.701  24.939  0.00  0.00    +0.207 A 
ATOM     12  N   UNL     1      -3.835   0.347  25.221  0.00  0.00    -0.212 NA
ATOM     28  C   UNL     1      -4.513  -1.213  23.964  0.00  0.00    +0.040 A 
ATOM     29  C   UNL     1      -3.948  -1.810  24.038  0.00  0.00    +0.022 A 
BRANCH   6   3
ATOM      3  S   UNL     1      -2.733  -2.299  24.607  0.00  0.00    +0.009 S 
ATOM      4  O   UNL     1      -2.194  -1.844  24.178  0.00  0.00    -0.169 OA
ATOM      5  O   UNL     1      -3.271  -2.755  25.036  0.00  0.00    -0.169 OA
BRANCH   3   2
ATOM      1  C   UNL     1      -1.378  -2.741  24.503  0.00  0.00    +0.028 C 
ATOM      2  C   UNL     1      -2.168  -2.897  24.681  0.00  0.00    +0.156 C 
ENDBRANCH   3   2
ENDBRANCH   6   3
ENDBRANCH  13  11
BRANCH  16  17
ATOM     17  C   UNL     1      -4.670   3.574  25.337  0.00  0.00    +0.099 C 
BRANCH  17  18
ATOM     18  C   UNL     1      -3.878   3.805  25.315  0.00  0.00    -0.006 A 
ATOM     19  C   UNL     1      -3.510   3.949  24.589  0.00  0.00    -0.002 A 
ATOM     20  C   UNL     1      -2.719   4.179  24.568  0.00  0.00    +0.014 A 
ATOM     21  C   UNL     1      -2.294   4.267  25.270  0.00  0.00    +0.048 A 
ATOM     22  C   UNL     1      -2.662   4.123  25.995  0.00  0.00    +0.014 A 
ATOM     23  C   UNL     1      -3.454   3.892  26.017  0.00  0.00    -0.002 A 
BRANCH  21  24
ATOM     24  N   UNL     1      -1.503   4.498  25.247  0.00  0.00    -0.304 N 
ATOM     25  C   UNL     1      -1.306   5.283  25.089  0.00  0.00    +0.112 C 
ATOM     26  C   UNL     1      -0.907   3.943  25.383  0.00  0.00    +0.112 C 
ENDBRANCH  21  24
ENDBRANCH  17  18
ENDBRANCH  16  17
TORSDOF 6
ENDMDL
MODEL 2
REMARK VINA RESULT:     -10.2      1.431      2.928
REMARK  Name = 
REMARK  6 active torsions:
REMARK  status: ('A' for Active; 'I' for Inactive)
REMARK    1  A    between atoms: C_2  and  S_3
REMARK    2  A    between atoms: S_3  and  C_6
REMARK    3  A    between atoms: C_11  and  C_13
REMARK    4  A    between atoms: N_16  and  C_17
REMARK    5  A    between atoms: C_17  and  C_18
REMARK    6  A    between atoms: C_21  and  N_24
REMARK                            x       y       z     vdW  Elec       q    Type
REMARK                         _______ _______ _______ _____ _____    ______ ____
ROOT
ATOM     13  C   UNL     1      -1.165   1.734  25.363  0.00  0.00    +0.094 C 
ATOM     14  C   UNL     1      -0.497   2.129  25.640  0.00  0.00    +0.028 C 
ATOM     15  C   UNL     1      -0.667   2.936  25.662  0.00  0.00    +0.073 C 
ATOM     16  N   UNL     1      -1.442   3.040  25.398  0.00  0.00    -0.268 NA
ATOM     27  C   UNL     1      -1.749   2.296  25.213  0.00  0.00    +0.082 C 
ENDROOT
BRANCH  13  11
ATOM      6  C   UNL     1      -1.875  -1.699  24.819  0.00  0.00    +0.107 A 
ATOM      7  C   UNL     1      -2.214  -0.948  24.831  0.00  0.00    +0.041 A 
ATOM      8  C   UNL     1      -1.750  -0.288  25.007  0.00  0.00    +0.120 A 
ATOM      9  C   UNL     1      -0.947  -0.380  25.170  0.00  0.00    +0.164 A 
ATOM     10  O   UNL     1      -0.630   0.365  25.324  0.00  0.00    -0.438 OA
ATOM     11  C   UNL     1      -1.237   0.919  25.255  0.00  0.00    +0.207 A 
ATOM     12  N   UNL     1      -1.929   0.515  25.059  0.00  0.00    -0.212 NA
ATOM     28  C   UNL     1      -0.607  -1.133  25.159  0.00  0.00    +0.040 A 
ATOM     29  C   UNL     1      -1.072  -1.792  24.983  0.00  0.00    +0.022 A 
BRANCH   6   3
ATOM      3  S   UNL     1      -2.338  -2.358  24.644  0.00  0.00    +0.009 S 
ATOM      4  O   UNL     1      -1.836  -2.545  24.017  0.00  0.00    -0.169 OA
ATOM      5  O   UNL     1      -2.842  -2.171  25.271  0.00  0.00    -0.169 OA
BRANCH   3   2
ATOM      1  C   UNL     1      -3.614  -2.930  24.348  0.00  0.00    +0.028 C 
ATOM      2  C   UNL     1      -2.803  -3.018  24.468  0.00  0.00    +0.156 C 
ENDBRANCH   3   2
ENDBRANCH   6   3
ENDBRANCH  13  11
BRANCH  16  17
ATOM     17  C   UNL     1      -1.839   3.759  25.330  0.00  0.00    +0.099 C 
BRANCH  17  18
ATOM     18  C   UNL     1      -2.663   3.782  25.374  0.00  0.00    -0.006 A 
ATOM     19  C   UNL     1      -3.035   3.852  26.108  0.00  0.00    -0.002 A 
ATOM     20  C   UNL     1      -3.858   3.875  26.151  0.00  0.00    +0.014 A 
ATOM     21  C   UNL     1      -4.310   3.828  25.463  0.00  0.00    +0.048 A 
ATOM     22  C   UNL     1      -3.938   3.758  24.730  0.00  0.00    +0.014 A 
ATOM     23  C   UNL     1      -3.114   3.735  24.685  0.00  0.00    -0.002 A 
BRANCH  21  24
ATOM     24  N   UNL     1      -5.133   3.851  25.508  0.00  0.00    -0.304 N 
ATOM     25  C   UNL     1      -5.531   4.567  25.418  0.00  0.00    +0.112 C 
ATOM     26  C   UNL     1      -5.558   3.156  25.641  0.00  0.00    +0.112 C 
ENDBRANCH  21  24
ENDBRANCH  17  18
ENDBRANCH  16  17
TORSDOF 6
ENDMDL
MODEL 3
REMARK VINA RESULT:     -10.2      2.354      5.421
REMARK  Name = 
REMARK  6 active torsions:
REMARK  status: ('A' for Active; 'I' for Inactive)
REMARK    1  A    between atoms: C_2  and  S_3
REMARK    2  A    between atoms: S_3  and  C_6
REMARK    3  A    between atoms: C_11  and  C_13
REMARK    4  A    between atoms: N_16  and  C_17
REMARK    5  A    between atoms: C_17  and  C_18
REMARK    6  A    between atoms: C_21  and  N_24
REMARK                            x       y       z     vdW  Elec       q    Type
REMARK                         _______ _______ _______ _____ _____    ______ ____
ROOT
ATOM     13  C   UNL     1      -4.323   1.782  25.005  0.00  0.00    +0.094 C 
ATOM     14  C   UNL     1      -5.078   1.811  24.674  0.00  0.00    +0.028 C 
ATOM     15  C   UNL     1      -5.372   1.041  24.639  0.00  0.00    +0.073 C 
ATOM     16  N   UNL     1      -4.798   0.536  24.949  0.00  0.00    -0.268 NA
ATOM     27  C   UNL     1      -4.150   0.994  25.175  0.00  0.00    +0.082 C 
ENDROOT
BRANCH  13  11
ATOM      6  C   UNL     1      -1.965   4.418  25.278  0.00  0.00    +0.107 A 
ATOM      7  C   UNL     1      -2.148   3.736  24.852  0.00  0.00    +0.041 A 
ATOM      8  C   UNL     1      -2.822   3.299  25.042  0.00  0.00    +0.120 A 
ATOM      9  C   UNL     1      -3.312   3.544  25.659  0.00  0.00    +0.164 A 
ATOM     10  O   UNL     1      -3.933   3.006  25.720  0.00  0.00    -0.438 OA
ATOM     11  C   UNL     1      -3.828   2.428  25.141  0.00  0.00    +0.207 A 
ATOM     12  N   UNL     1      -3.141   2.610  24.723  0.00  0.00    -0.212 NA
ATOM     28  C   UNL     1      -3.128   4.226  26.086  0.00  0.00    +0.040 A 
ATOM     29  C   UNL     1      -2.455   4.663  25.895  0.00  0.00    +0.022 A 
BRANCH   6   3
ATOM      3  S   UNL     1      -1.292   4.854  25.088  0.00  0.00    +0.009 S 
ATOM      4  O   UNL     1      -0.825   4.184  25.199  0.00  0.00    -0.169 OA
ATOM      5  O   UNL     1      -1.758   5.526  24.978  0.00  0.00    -0.169 OA
BRANCH   3   2
ATOM      1  C   UNL     1      -0.163   5.083  24.243  0.00  0.00    +0.028 C 
ATOM      2  C   UNL     1      -0.618   5.292  24.898  0.00  0.00    +0.156 C 
ENDBRANCH   3   2
ENDBRANCH   6   3
ENDBRANCH  13  11
BRANCH  16  17
ATOM     17  C   UNL     1      -4.861  -0.284  25.021  0.00  0.00    +0.099 C 
BRANCH  17  18
ATOM     18  C   UNL     1      -4.199  -0.761  24.896  0.00  0.00    -0.006 A 
ATOM     19  C   UNL     1      -3.708  -0.960  25.529  0.00  0.00    -0.002 A 
ATOM     20  C   UNL     1      -3.047  -1.437  25.403  0.00  0.00    +0.014 A 
ATOM     21  C   UNL     1      -2.877  -1.716  24.645  0.00  0.00    +0.048 A 
ATOM     22  C   UNL     1      -3.368  -1.517  24.013  0.00  0.00    +0.014 A 
ATOM     23  C   UNL     1      -4.030  -1.040  24.138  0.00  0.00    -0.002 A 
BRANCH  21  24
ATOM     24  N   UNL     1      -2.216  -2.193  24.520  0.00  0.00    -0.304 N 
ATOM     25  C   UNL     1      -2.312  -2.974  24.273  0.00  0.00    +0.112 C 
ATOM     26  C   UNL     1      -1.459  -1.889  24.642  0.00  0.00    +0.112 C 
ENDBRANCH  21  24
ENDBRANCH  17  18
ENDBRANCH  16  17
TORSDOF 6
ENDMDL
MODEL 4
REMARK VINA RESULT:     -10.2      1.998      3.187
REMARK  Name = 
REMARK  6 active torsions:
REMARK  status: ('A' for Active; 'I' for Inactive)
REMARK    1  A    between atoms: C_2  and  S_3
REMARK    2  A    between atoms: S_3  and  C_6
REMARK    3  A    between atoms: C_11  and  C_13
REMARK    4  A    between atoms: N_16  and  C_17
REMARK    5  A    between atoms: C_17  and  C_18
REMARK    6  A    between atoms: C_21  and  N_24
REMARK                            x       y       z     vdW  Elec       q    Type
REMARK                         _______ _______ _______ _____ _____    ______ ____
ROOT
ATOM     13  C   UNL     1      -0.417   0.651  24.684  0.00  0.00    +0.094 C 
ATOM     14  C   UNL     1       0.139   0.890  24.124  0.00  0.00    +0.028 C 
ATOM     15  C   UNL     1       0.425   1.631  24.346  0.00  0.00    +0.073 C 
ATOM     16  N   UNL     1       0.044   1.851  25.045  0.00  0.00    -0.268 NA
ATOM     27  C   UNL     1      -0.476   1.245  25.253  0.00  0.00    +0.082 C 
ENDROOT
BRANCH  13  11
ATOM      6  C   UNL     1      -2.574  -2.163  24.588  0.00  0.00    +0.107 A 
ATOM      7  C   UNL     1      -2.557  -1.341  24.530  0.00  0.00    +0.041 A 
ATOM      8  C   UNL     1      -1.841  -0.937  24.601  0.00  0.00    +0.120 A 
ATOM      9  C   UNL     1      -1.142  -1.356  24.730  0.00  0.00    +0.164 A 
ATOM     10  O   UNL     1      -0.524  -0.812  24.777  0.00  0.00    -0.438 OA
ATOM     11  C   UNL     1      -0.840  -0.057  24.677  0.00  0.00    +0.207 A 
ATOM     12  N   UNL     1      -1.654  -0.135  24.568  0.00  0.00    -0.212 NA
ATOM     28  C   UNL     1      -1.159  -2.179  24.788  0.00  0.00    +0.040 A 
ATOM     29  C   UNL     1      -1.875  -2.582  24.717  0.00  0.00    +0.022 A 
BRANCH   6   3
ATOM      3  S   UNL     1      -3.290  -2.567  24.517  0.00  0.00    +0.009 S 
ATOM      4  O   UNL     1      -3.458  -2.408  25.309  0.00  0.00    -0.169 OA
ATOM      5  O   UNL     1      -3.122  -2.726  23.725  0.00  0.00    -0.169 OA
BRANCH   3   2
ATOM      1  C   UNL     1      -4.488  -2.842  23.789  0.00  0.00    +0.028 C 
ATOM      2  C   UNL     1      -4.006  -2.971  24.446  0.00  0.00    +0.156 C 
ENDBRANCH   3   2
ENDBRANCH   6   3
ENDBRANCH  13  11
BRANCH  16  17
ATOM     17  C   UNL     1       0.163   2.553  25.461  0.00  0.00    +0.099 C 
BRANCH  17  18
ATOM     18  C   UNL     1      -0.416   3.141  25.452  0.00  0.00    -0.006 A 
ATOM     19  C   UNL     1      -0.365   3.762  24.910  0.00  0.00    -0.002 A 
ATOM     20  C   UNL     1      -0.943   4.350  24.902  0.00  0.00    +0.014 A 
ATOM     21  C   UNL     1      -1.572   4.318  25.434  0.00  0.00    +0.048 A 
ATOM     22  C   UNL     1      -1.623   3.698  25.976  0.00  0.00    +0.014 A 
ATOM     23  C   UNL     1      -1.045   3.109  25.985  0.00  0.00    -0.002 A 
BRANCH  21  24
ATOM     24  N   UNL     1      -2.150   4.906  25.425  0.00  0.00    -0.304 N 
ATOM     25  C   UNL     1      -2.913   4.740  25.692  0.00  0.00    +0.112 C 
ATOM     26  C   UNL     1      -1.966   5.662  25.150  0.00  0.00    +0.112 C 
ENDBRANCH  21  24
ENDBRANCH  17  18
ENDBRANCH  16  17
TORSDOF 6
ENDMDL
MODEL 5
REMARK VINA RESULT:      -9.6      3.034      6.325
REMARK  Name = 
REMARK  6 active torsions:
REMARK  status: ('A' for Active; 'I' for Inactive)
REMARK    1  A    between atoms: C_2  and  S_3
REMARK    2  A    between atoms: S_3  and  C_6
REMARK    3  A    between atoms: C_11  and  C_13
REMARK    4  A    between atoms: N_16  and  C_17
REMARK    5  A    between atoms: C_17  and  C_18
REMARK    6  A    between atoms: C_21  and  N_24
REMARK                            x       y       z     vdW  Elec       q    Type
REMARK                         _______ _______ _______ _____ _____    ______ ____
ROOT
ATOM     13  C   UNL     1      -0.617   0.258  24.963  0.00  0.00    +0.094 C 
ATOM     14  C   UNL     1      -0.139  -0.112  24.402  0.00  0.00    +0.028 C 
ATOM     15  C   UNL     1      -0.291  -0.923  24.431  0.00  0.00    +0.073 C 
ATOM     16  N   UNL     1      -0.863  -1.053  25.010  0.00  0.00    -0.268 NA
ATOM     27  C   UNL     1      -1.064  -0.323  25.339  0.00  0.00    +0.082 C 
ENDROOT
BRANCH  13  11
ATOM      6  C   UNL     1      -1.055   3.752  25.386  0.00  0.00    +0.107 A 
ATOM      7  C   UNL     1      -1.361   3.089  25.004  0.00  0.00    +0.041 A 
ATOM      8  C   UNL     1      -1.011   2.350  25.114  0.00  0.00    +0.120 A 
ATOM      9  C   UNL     1      -0.354   2.275  25.608  0.00  0.00    +0.164 A 
ATOM     10  O   UNL     1      -0.127   1.483  25.611  0.00  0.00    -0.438 OA
ATOM     11  C   UNL     1      -0.642   1.068  25.120  0.00  0.00    +0.207 A 
ATOM     12  N   UNL     1      -1.188   1.604  24.813  0.00  0.00    -0.212 NA
ATOM     28  C   UNL     1      -0.047   2.939  25.991  0.00  0.00    +0.040 A 
ATOM     29  C   UNL     1      -0.398   3.677  25.880  0.00  0.00    +0.022 A 
BRANCH   6   3
ATOM      3  S   UNL     1      -1.405   4.490  25.276  0.00  0.00    +0.009 S 
ATOM      4  O   UNL     1      -2.070   4.238  25.694  0.00  0.00    -0.169 OA
ATOM      5  O   UNL     1      -0.740   4.744  24.858  0.00  0.00    -0.169 OA
BRANCH   3   2
ATOM      1  C   UNL     1      -1.347   5.823  24.762  0.00  0.00    +0.028 C 
ATOM      2  C   UNL     1      -1.756   5.230  25.165  0.00  0.00    +0.156 C 
ENDBRANCH   3   2
ENDBRANCH   6   3
ENDBRANCH  13  11
BRANCH  16  17
ATOM     17  C   UNL     1      -1.179  -1.785  25.224  0.00  0.00    +0.099 C 
BRANCH  17  18
ATOM     18  C   UNL     1      -1.912  -2.021  24.928  0.00  0.00    -0.006 A 
ATOM     19  C   UNL     1      -2.606  -1.790  25.311  0.00  0.00    -0.002 A 
ATOM     20  C   UNL     1      -3.338  -2.027  25.015  0.00  0.00    +0.014 A 
ATOM     21  C   UNL     1      -3.378  -2.493  24.335  0.00  0.00    +0.048 A 
ATOM     22  C   UNL     1      -2.684  -2.723  23.952  0.00  0.00    +0.014 A 
ATOM     23  C   UNL     1      -1.951  -2.487  24.248  0.00  0.00    -0.002 A 
BRANCH  21  24
ATOM     24  N   UNL     1      -4.110  -2.729  24.039  0.00  0.00    -0.304 N 
ATOM     25  C   UNL     1      -4.644  -2.165  23.760  0.00  0.00    +0.112 C 
ATOM     26  C   UNL     1      -4.310  -3.529  24.022  0.00  0.00    +0.112 C 
ENDBRANCH  21  24
ENDBRANCH  17  18
ENDBRANCH  16  17
TORSDOF 6
ENDMDL
MODEL 6
REMARK VINA RESULT:      -9.3      3.042      4.389
REMARK  Name = 
REMARK  6 active torsions:
REMARK  status: ('A' for Active; 'I' for Inactive)
REMARK    1  A    between atoms: C_2  and  S_3
REMARK    2  A    between atoms: S_3  and  C_6
REMARK    3  A    between atoms: C_11  and  C_13
REMARK    4  A    between atoms: N_16  and  C_17
REMARK    5  A    between atoms: C_17  and  C_18
REMARK    6  A    between atoms: C_21  and  N_24
REMARK                            x       y       z     vdW  Elec       q    Type
REMARK                         _______ _______ _______ _____ _____    ______ ____
ROOT
ATOM     13  C   UNL     1      -1.182   2.566  24.813  0.00  0.00    +0.094 C 
ATOM     14  C   UNL     1      -1.090   2.929  25.548  0.00  0.00    +0.028 C 
ATOM     15  C   UNL     1      -1.735   3.429  25.668  0.00  0.00    +0.073 C 
ATOM     16  N   UNL     1      -2.226   3.375  25.007  0.00  0.00    -0.268 NA
ATOM     27  C   UNL     1      -1.883   2.842  24.479  0.00  0.00    +0.082 C 
ENDROOT
BRANCH  13  11
ATOM      6  C   UNL     1       1.305   0.550  23.285  0.00  0.00    +0.107 A 
ATOM      7  C   UNL     1       1.124   1.323  23.506  0.00  0.00    +0.041 A 
ATOM      8  C   UNL     1       0.405   1.491  23.875  0.00  0.00    +0.120 A 
ATOM      9  C   UNL     1      -0.133   0.884  24.022  0.00  0.00    +0.164 A 
ATOM     10  O   UNL     1      -0.793   1.212  24.392  0.00  0.00    -0.438 OA
ATOM     11  C   UNL     1      -0.663   2.023  24.472  0.00  0.00    +0.207 A 
ATOM     12  N   UNL     1       0.078   2.194  24.153  0.00  0.00    -0.212 NA
ATOM     28  C   UNL     1       0.047   0.109  23.801  0.00  0.00    +0.040 A 
ATOM     29  C   UNL     1       0.766  -0.058  23.433  0.00  0.00    +0.022 A 
BRANCH   6   3
ATOM      3  S   UNL     1       2.023   0.383  22.916  0.00  0.00    +0.009 S 
ATOM      4  O   UNL     1       2.403   0.922  23.411  0.00  0.00    -0.169 OA
ATOM      5  O   UNL     1       1.643  -0.157  22.420  0.00  0.00    -0.169 OA
BRANCH   3   2
ATOM      1  C   UNL     1       3.429   0.602  22.789  0.00  0.00    +0.028 C 
ATOM      2  C   UNL     1       2.742   0.215  22.547  0.00  0.00    +0.156 C 
ENDBRANCH   3   2
ENDBRANCH   6   3
ENDBRANCH  13  11
BRANCH  16  17
ATOM     17  C   UNL     1      -2.934   3.783  24.894  0.00  0.00    +0.099 C 
BRANCH  17  18
ATOM     18  C   UNL     1      -3.655   3.403  25.026  0.00  0.00    -0.006 A 
ATOM     19  C   UNL     1      -4.005   2.961  24.424  0.00  0.00    -0.002 A 
ATOM     20  C   UNL     1      -4.725   2.582  24.557  0.00  0.00    +0.014 A 
ATOM     21  C   UNL     1      -5.096   2.645  25.290  0.00  0.00    +0.048 A 
ATOM     22  C   UNL     1      -4.746   3.087  25.893  0.00  0.00    +0.014 A 
ATOM     23  C   UNL     1      -4.025   3.467  25.761  0.00  0.00    -0.002 A 
BRANCH  21  24
ATOM     24  N   UNL     1      -5.816   2.266  25.423  0.00  0.00    -0.304 N 
ATOM     25  C   UNL     1      -6.189   2.332  26.155  0.00  0.00    +0.112 C 
ATOM     26  C   UNL     1      -6.164   1.820  24.822  0.00  0.00    +0.112 C 
ENDBRANCH  21  24
ENDBRANCH  17  18
ENDBRANCH  16  17
TORSDOF 6
ENDMDL
