MODEL 1
REMARK VINA RESULT:      -9.6      0.000      0.000
REMARK  Name = 
REMARK  4 active torsions:
REMARK  status: ('A' for Active; 'I' for Inactive)
REMARK    1  A    between atoms: O_2  and  C_3
REMARK    2  A    between atoms: C_6  and  C_11
REMARK    3  A    between atoms: C_8  and  O_9
REMARK    4  A    between atoms: C_16  and  C_18
REMARK                            x       y       z     vdW  Elec       q    Type
REMARK                         _______ _______ _______ _____ _____    ______ ____
ROOT
ATOM     11  C   UNL     1      -3.678   1.497  24.061  0.00  0.00    +0.249 C 
ATOM     12  O   UNL     1      -3.204   1.566  23.390  0.00  0.00    -0.270 OA
ATOM     13  N   UNL     1      -3.882   0.750  24.346  0.00  0.00    -0.276 N 
ATOM     14  C   UNL     1      -4.350   0.594  25.008  0.00  0.00    +0.094 C 
ATOM     15  C   UNL     1      -4.410  -0.225  25.091  0.00  0.00    +0.033 C 
ATOM     16  C   UNL     1      -3.980  -0.575  24.480  0.00  0.00    +0.100 C 
ATOM     17  C   UNL     1      -3.654   0.027  24.020  0.00  0.00    +0.103 C 
ENDROOT
BRANCH  11   6
ATOM      3  C   UNL     1      -4.490   3.526  25.222  0.00  0.00    +0.172 A 
ATOM      4  C   UNL     1      -5.002   3.093  24.742  0.00  0.00    +0.040 A 
ATOM      5  C   UNL     1      -4.731   2.416  24.355  0.00  0.00    +0.008 A 
ATOM      6  C   UNL     1      -3.949   2.173  24.448  0.00  0.00    +0.057 A 
ATOM      7  C   UNL     1      -3.436   2.606  24.928  0.00  0.00    +0.045 A 
ATOM      8  C   UNL     1      -3.706   3.283  25.315  0.00  0.00    +0.173 A 
BRANCH   3   2
ATOM      1  C   UNL     1      -5.565   4.378  25.622  0.00  0.00    +0.253 C 
ATOM      2  O   UNL     1      -4.759   4.203  25.609  0.00  0.00    -0.468 OA
ENDBRANCH   3   2
BRANCH   8   9
ATOM      9  O   UNL     1      -3.193   3.716  25.795  0.00  0.00    -0.468 OA
ATOM     10  C   UNL     1      -2.380   3.685  25.662  0.00  0.00    +0.253 C 
ENDBRANCH   8   9
ENDBRANCH  11   6
BRANCH  16  18
ATOM     18  C   UNL     1      -3.892  -1.385  24.351  0.00  0.00    +0.227 A 
ATOM     19  N   UNL     1      -4.322  -1.840  23.814  0.00  0.00    -0.112 NA
ATOM     20  N   UNL     1      -4.054  -2.619  23.868  0.00  0.00    -0.112 NA
ATOM     21  C   UNL     1      -3.459  -2.645  24.438  0.00  0.00    +0.227 A 
ATOM     22  C   UNL     1      -3.038  -3.316  24.670  0.00  0.00    +0.097 C 
ATOM     23  O   UNL     1      -3.359  -1.882  24.737  0.00  0.00    -0.423 OA
ENDBRANCH  16  18
TORSDOF 4
ENDMDL
MODEL 2
REMARK VINA RESULT:      -9.6      0.706      1.460
REMARK  Name = 
REMARK  4 active torsions:
REMARK  status: ('A' for Active; 'I' for Inactive)
REMARK    1  A    between atoms: O_2  and  C_3
REMARK    2  A    between atoms: C_6  and  C_11
REMARK    3  A    between atoms: C_8  and  O_9
REMARK    4  A    between atoms: C_16  and  C_18
REMARK                            x       y       z     vdW  Elec       q    Type
REMARK                         _______ _______ _______ _____ _____    ______ ____
ROOT
ATOM     11  C   UNL     1      -3.346   1.638  23.782  0.00  0.00    +0.249 C 
ATOM     12  O   UNL     1      -3.503   1.683  22.974  0.00  0.00    -0.270 OA
ATOM     13  N   UNL     1      -3.389   0.911  24.171  0.00  0.00    -0.276 N 
ATOM     14  C   UNL     1      -3.247   0.782  24.974  0.00  0.00    +0.094 C 
ATOM     15  C   UNL     1      -3.351  -0.023  25.124  0.00  0.00    +0.033 C 
ATOM     16  C   UNL     1      -3.557  -0.391  24.414  0.00  0.00    +0.100 C 
ATOM     17  C   UNL     1      -3.580   0.187  23.825  0.00  0.00    +0.103 C 
ENDROOT
BRANCH  11   6
ATOM      3  C   UNL     1      -2.748   3.681  25.045  0.00  0.00    +0.172 A 
ATOM      4  C   UNL     1      -2.155   3.213  24.714  0.00  0.00    +0.040 A 
ATOM      5  C   UNL     1      -2.355   2.532  24.293  0.00  0.00    +0.008 A 
ATOM      6  C   UNL     1      -3.146   2.319  24.203  0.00  0.00    +0.057 A 
ATOM      7  C   UNL     1      -3.739   2.787  24.535  0.00  0.00    +0.045 A 
ATOM      8  C   UNL     1      -3.541   3.468  24.956  0.00  0.00    +0.173 A 
BRANCH   3   2
ATOM      1  C   UNL     1      -1.784   4.666  25.423  0.00  0.00    +0.253 C 
ATOM      2  O   UNL     1      -2.550   4.362  25.466  0.00  0.00    -0.468 OA
ENDBRANCH   3   2
BRANCH   8   9
ATOM      9  O   UNL     1      -4.134   3.936  25.287  0.00  0.00    -0.468 OA
ATOM     10  C   UNL     1      -4.897   3.635  25.372  0.00  0.00    +0.253 C 
ENDBRANCH   8   9
ENDBRANCH  11   6
BRANCH  16  18
ATOM     18  C   UNL     1      -3.713  -1.194  24.311  0.00  0.00    +0.227 A 
ATOM     19  N   UNL     1      -4.356  -1.515  23.906  0.00  0.00    -0.112 NA
ATOM     20  N   UNL     1      -4.293  -2.338  23.940  0.00  0.00    -0.112 NA
ATOM     21  C   UNL     1      -3.612  -2.524  24.365  0.00  0.00    +0.227 A 
ATOM     22  C   UNL     1      -3.337  -3.284  24.531  0.00  0.00    +0.097 C 
ATOM     23  O   UNL     1      -3.253  -1.817  24.595  0.00  0.00    -0.423 OA
ENDBRANCH  16  18
TORSDOF 4
ENDMDL
MODEL 3
REMARK VINA RESULT:      -9.3      1.853      4.927
REMARK  Name = 
REMARK  4 active torsions:
REMARK  status: ('A' for Active; 'I' for Inactive)
REMARK    1  A    between atoms: O_2  and  C_3
REMARK    2  A    between atoms: C_6  and  C_11
REMARK    3  A    between atoms: C_8  and  O_9
REMARK    4  A    between atoms: C_16  and  C_18
REMARK                            x       y       z     vdW  Elec       q    Type
REMARK                         _______ _______ _______ _____ _____    ______ ____
ROOT
ATOM     11  C   UNL     1      -4.072   0.980  25.003  0.00  0.00    +0.249 C 
ATOM     12  O   UNL     1      -4.796   1.292  25.245  0.00  0.00    -0.270 OA
ATOM     13  N   UNL     1      -3.409   1.469  24.955  0.00  0.00    -0.276 N 
ATOM     14  C   UNL     1      -2.652   1.237  24.723  0.00  0.00    +0.094 C 
ATOM     15  C   UNL     1      -2.161   1.900  24.755  0.00  0.00    +0.033 C 
ATOM     16  C   UNL     1      -2.615   2.541  25.006  0.00  0.00    +0.100 C 
ATOM     17  C   UNL     1      -3.386   2.274  25.130  0.00  0.00    +0.103 C 
ENDROOT
BRANCH  11   6
ATOM      3  C   UNL     1      -3.885  -1.419  24.423  0.00  0.00    +0.172 A 
ATOM      4  C   UNL     1      -4.071  -0.867  23.839  0.00  0.00    +0.040 A 
ATOM      5  C   UNL     1      -4.133  -0.067  24.033  0.00  0.00    +0.008 A 
ATOM      6  C   UNL     1      -4.010   0.181  24.809  0.00  0.00    +0.057 A 
ATOM      7  C   UNL     1      -3.824  -0.371  25.394  0.00  0.00    +0.045 A 
ATOM      8  C   UNL     1      -3.761  -1.171  25.201  0.00  0.00    +0.173 A 
BRANCH   3   2
ATOM      1  C   UNL     1      -4.191  -2.510  23.553  0.00  0.00    +0.253 C 
ATOM      2  O   UNL     1      -3.822  -2.218  24.231  0.00  0.00    -0.468 OA
ENDBRANCH   3   2
BRANCH   8   9
ATOM      9  O   UNL     1      -3.575  -1.723  25.785  0.00  0.00    -0.468 OA
ATOM     10  C   UNL     1      -3.133  -1.493  26.444  0.00  0.00    +0.253 C 
ENDBRANCH   8   9
ENDBRANCH  11   6
BRANCH  16  18
ATOM     18  C   UNL     1      -2.346   3.313  25.115  0.00  0.00    +0.227 A 
ATOM     19  N   UNL     1      -2.751   3.917  25.505  0.00  0.00    -0.112 NA
ATOM     20  N   UNL     1      -2.279   4.595  25.484  0.00  0.00    -0.112 NA
ATOM     21  C   UNL     1      -1.584   4.409  25.081  0.00  0.00    +0.227 A 
ATOM     22  C   UNL     1      -0.957   4.925  24.933  0.00  0.00    +0.097 C 
ATOM     23  O   UNL     1      -1.625   3.617  24.853  0.00  0.00    -0.423 OA
ENDBRANCH  16  18
TORSDOF 4
ENDMDL
MODEL 4
REMARK VINA RESULT:      -9.2      0.958      1.257
REMARK  Name = 
REMARK  4 active torsions:
REMARK  status: ('A' for Active; 'I' for Inactive)
REMARK    1  A    between atoms: O_2  and  C_3
REMARK    2  A    between atoms: C_6  and  C_11
REMARK    3  A    between atoms: C_8  and  O_9
REMARK    4  A    between atoms: C_16  and  C_18
REMARK                            x       y       z     vdW  Elec       q    Type
REMARK                         _______ _______ _______ _____ _____    ______ ____
ROOT
ATOM     11  C   UNL     1      -3.095   1.607  23.820  0.00  0.00    +0.249 C 
ATOM     12  O   UNL     1      -3.040   1.637  22.998  0.00  0.00    -0.270 OA
ATOM     13  N   UNL     1      -3.283   0.897  24.195  0.00  0.00    -0.276 N 
ATOM     14  C   UNL     1      -3.357   0.783  25.010  0.00  0.00    +0.094 C 
ATOM     15  C   UNL     1      -3.549  -0.009  25.140  0.00  0.00    +0.033 C 
ATOM     16  C   UNL     1      -3.593  -0.384  24.407  0.00  0.00    +0.100 C 
ATOM     17  C   UNL     1      -3.429   0.176  23.823  0.00  0.00    +0.103 C 
ENDROOT
BRANCH  11   6
ATOM      3  C   UNL     1      -2.699   3.648  25.164  0.00  0.00    +0.172 A 
ATOM      4  C   UNL     1      -3.470   3.417  24.982  0.00  0.00    +0.040 A 
ATOM      5  C   UNL     1      -3.601   2.737  24.534  0.00  0.00    +0.008 A 
ATOM      6  C   UNL     1      -2.963   2.288  24.268  0.00  0.00    +0.057 A 
ATOM      7  C   UNL     1      -2.193   2.518  24.450  0.00  0.00    +0.045 A 
ATOM      8  C   UNL     1      -2.059   3.198  24.898  0.00  0.00    +0.173 A 
BRANCH   3   2
ATOM      1  C   UNL     1      -3.140   4.592  26.142  0.00  0.00    +0.253 C 
ATOM      2  O   UNL     1      -2.566   4.328  25.612  0.00  0.00    -0.468 OA
ENDBRANCH   3   2
BRANCH   8   9
ATOM      9  O   UNL     1      -1.288   3.428  25.080  0.00  0.00    -0.468 OA
ATOM     10  C   UNL     1      -0.656   3.137  24.637  0.00  0.00    +0.253 C 
ENDBRANCH   8   9
ENDBRANCH  11   6
BRANCH  16  18
ATOM     18  C   UNL     1      -3.771  -1.180  24.279  0.00  0.00    +0.227 A 
ATOM     19  N   UNL     1      -4.428  -1.471  23.874  0.00  0.00    -0.112 NA
ATOM     20  N   UNL     1      -4.386  -2.295  23.879  0.00  0.00    -0.112 NA
ATOM     21  C   UNL     1      -3.703  -2.513  24.286  0.00  0.00    +0.227 A 
ATOM     22  C   UNL     1      -3.445  -3.285  24.422  0.00  0.00    +0.097 C 
ATOM     23  O   UNL     1      -3.322  -1.824  24.534  0.00  0.00    -0.423 OA
ENDBRANCH  16  18
TORSDOF 4
ENDMDL
MODEL 5
REMARK VINA RESULT:      -9.0      2.318      2.694
REMARK  Name = 
REMARK  4 active torsions:
REMARK  status: ('A' for Active; 'I' for Inactive)
REMARK    1  A    between atoms: O_2  and  C_3
REMARK    2  A    between atoms: C_6  and  C_11
REMARK    3  A    between atoms: C_8  and  O_9
REMARK    4  A    between atoms: C_16  and  C_18
REMARK                            x       y       z     vdW  Elec       q    Type
REMARK                         _______ _______ _______ _____ _____    ______ ____
ROOT
ATOM     11  C   UNL     1      -3.085   1.908  23.884  0.00  0.00    +0.249 C 
ATOM     12  O   UNL     1      -3.048   2.219  23.121  0.00  0.00    -0.270 OA
ATOM     13  N   UNL     1      -2.500   1.389  24.146  0.00  0.00    -0.276 N 
ATOM     14  C   UNL     1      -2.464   1.036  24.892  0.00  0.00    +0.094 C 
ATOM     15  C   UNL     1      -1.790   0.559  24.916  0.00  0.00    +0.033 C 
ATOM     16  C   UNL     1      -1.410   0.618  24.186  0.00  0.00    +0.100 C 
ATOM     17  C   UNL     1      -1.849   1.131  23.711  0.00  0.00    +0.103 C 
ENDROOT
BRANCH  11   6
ATOM      3  C   UNL     1      -4.948   2.534  25.389  0.00  0.00    +0.172 A 
ATOM      4  C   UNL     1      -4.996   1.846  24.937  0.00  0.00    +0.040 A 
ATOM      5  C   UNL     1      -4.375   1.638  24.435  0.00  0.00    +0.008 A 
ATOM      6  C   UNL     1      -3.706   2.117  24.386  0.00  0.00    +0.057 A 
ATOM      7  C   UNL     1      -3.657   2.805  24.838  0.00  0.00    +0.045 A 
ATOM      8  C   UNL     1      -4.277   3.014  25.340  0.00  0.00    +0.173 A 
BRANCH   3   2
ATOM      1  C   UNL     1      -6.186   2.214  26.026  0.00  0.00    +0.253 C 
ATOM      2  O   UNL     1      -5.568   2.744  25.891  0.00  0.00    -0.468 OA
ENDBRANCH   3   2
BRANCH   8   9
ATOM      9  O   UNL     1      -4.228   3.702  25.792  0.00  0.00    -0.468 OA
ATOM     10  C   UNL     1      -3.495   4.054  25.929  0.00  0.00    +0.253 C 
ENDBRANCH   8   9
ENDBRANCH  11   6
BRANCH  16  18
ATOM     18  C   UNL     1      -0.714   0.233  23.969  0.00  0.00    +0.227 A 
ATOM     19  N   UNL     1      -0.496  -0.533  24.186  0.00  0.00    -0.112 NA
ATOM     20  N   UNL     1       0.240  -0.694  23.847  0.00  0.00    -0.112 NA
ATOM     21  C   UNL     1       0.476  -0.028  23.422  0.00  0.00    +0.227 A 
ATOM     22  C   UNL     1       1.178   0.052  22.996  0.00  0.00    +0.097 C 
ATOM     23  O   UNL     1      -0.114   0.545  23.497  0.00  0.00    -0.423 OA
ENDBRANCH  16  18
TORSDOF 4
ENDMDL
MODEL 6
REMARK VINA RESULT:      -8.9      2.808      5.048
REMARK  Name = 
REMARK  4 active torsions:
REMARK  status: ('A' for Active; 'I' for Inactive)
REMARK    1  A    between atoms: O_2  and  C_3
REMARK    2  A    between atoms: C_6  and  C_11
REMARK    3  A    between atoms: C_8  and  O_9
REMARK    4  A    between atoms: C_16  and  C_18
REMARK                            x       y       z     vdW  Elec       q    Type
REMARK                         _______ _______ _______ _____ _____    ______ ____
ROOT
ATOM     11  C   UNL     1      -1.239   1.524  25.147  0.00  0.00    +0.249 C 
ATOM     12  O   UNL     1      -0.965   1.790  25.878  0.00  0.00    -0.270 OA
ATOM     13  N   UNL     1      -1.982   1.758  24.876  0.00  0.00    -0.276 N 
ATOM     14  C   UNL     1      -2.328   1.537  24.159  0.00  0.00    +0.094 C 
ATOM     15  C   UNL     1      -3.069   1.897  24.113  0.00  0.00    +0.033 C 
ATOM     16  C   UNL     1      -3.181   2.340  24.800  0.00  0.00    +0.100 C 
ATOM     17  C   UNL     1      -2.509   2.254  25.271  0.00  0.00    +0.103 C 
ENDROOT
BRANCH  11   6
ATOM      3  C   UNL     1       0.164   0.021  23.769  0.00  0.00    +0.172 A 
ATOM      4  C   UNL     1       0.207   0.838  23.662  0.00  0.00    +0.040 A 
ATOM      5  C   UNL     1      -0.261   1.338  24.122  0.00  0.00    +0.008 A 
ATOM      6  C   UNL     1      -0.771   1.023  24.688  0.00  0.00    +0.057 A 
ATOM      7  C   UNL     1      -0.814   0.206  24.795  0.00  0.00    +0.045 A 
ATOM      8  C   UNL     1      -0.347  -0.296  24.336  0.00  0.00    +0.173 A 
BRANCH   3   2
ATOM      1  C   UNL     1       1.162  -0.165  22.763  0.00  0.00    +0.253 C 
ATOM      2  O   UNL     1       0.631  -0.481  23.310  0.00  0.00    -0.468 OA
ENDBRANCH   3   2
BRANCH   8   9
ATOM      9  O   UNL     1      -0.390  -1.113  24.443  0.00  0.00    -0.468 OA
ATOM     10  C   UNL     1      -0.651  -1.421  25.162  0.00  0.00    +0.253 C 
ENDBRANCH   8   9
ENDBRANCH  11   6
BRANCH  16  18
ATOM     18  C   UNL     1      -3.848   2.789  24.984  0.00  0.00    +0.227 A 
ATOM     19  N   UNL     1      -3.933   3.602  24.865  0.00  0.00    -0.112 NA
ATOM     20  N   UNL     1      -4.684   3.820  25.127  0.00  0.00    -0.112 NA
ATOM     21  C   UNL     1      -5.063   3.144  25.408  0.00  0.00    +0.227 A 
ATOM     22  C   UNL     1      -5.826   3.110  25.722  0.00  0.00    +0.097 C 
ATOM     23  O   UNL     1      -4.546   2.506  25.319  0.00  0.00    -0.423 OA
ENDBRANCH  16  18
TORSDOF 4
ENDMDL
MODEL 7
REMARK VINA RESULT:      -8.8      1.389      4.840
REMARK  Name = 
REMARK  4 active torsions:
REMARK  status: ('A' for Active; 'I' for Inactive)
REMARK    1  A    between atoms: O_2  and  C_3
REMARK    2  A    between atoms: C_6  and  C_11
REMARK    3  A    between atoms: C_8  and  O_9
REMARK    4  A    between atoms: C_16  and  C_18
REMARK                            x       y       z     vdW  Elec       q    Type
REMARK                         _______ _______ _______ _____ _____    ______ ____
ROOT
ATOM     11  C   UNL     1      -3.634   0.303  24.035  0.00  0.00    +0.249 C 
ATOM     12  O   UNL     1      -3.283   0.694  23.399  0.00  0.00    -0.270 OA
ATOM     13  N   UNL     1      -4.114   0.720  24.560  0.00  0.00    -0.276 N 
ATOM     14  C   UNL     1      -4.500   0.405  25.218  0.00  0.00    +0.094 C 
ATOM     15  C   UNL     1      -4.918   1.016  25.585  0.00  0.00    +0.033 C 
ATOM     16  C   UNL     1      -4.790   1.707  25.154  0.00  0.00    +0.100 C 
ATOM     17  C   UNL     1      -4.293   1.524  24.520  0.00  0.00    +0.103 C 
ENDROOT
BRANCH  11   6
ATOM      3  C   UNL     1      -3.247  -2.118  24.369  0.00  0.00    +0.172 A 
ATOM      4  C   UNL     1      -3.942  -1.858  24.010  0.00  0.00    +0.040 A 
ATOM      5  C   UNL     1      -4.071  -1.051  23.899  0.00  0.00    +0.008 A 
ATOM      6  C   UNL     1      -3.505  -0.504  24.146  0.00  0.00    +0.057 A 
ATOM      7  C   UNL     1      -2.810  -0.765  24.505  0.00  0.00    +0.045 A 
ATOM      8  C   UNL     1      -2.680  -1.572  24.617  0.00  0.00    +0.173 A 
BRANCH   3   2
ATOM      1  C   UNL     1      -3.717  -3.467  24.316  0.00  0.00    +0.253 C 
ATOM      2  O   UNL     1      -3.117  -2.925  24.481  0.00  0.00    -0.468 OA
ENDBRANCH   3   2
BRANCH   8   9
ATOM      9  O   UNL     1      -1.984  -1.832  24.975  0.00  0.00    -0.468 OA
ATOM     10  C   UNL     1      -1.315  -1.350  24.975  0.00  0.00    +0.253 C 
ENDBRANCH   8   9
ENDBRANCH  11   6
BRANCH  16  18
ATOM     18  C   UNL     1      -5.103   2.451  25.325  0.00  0.00    +0.227 A 
ATOM     19  N   UNL     1      -5.829   2.599  25.687  0.00  0.00    -0.112 NA
ATOM     20  N   UNL     1      -5.920   3.417  25.750  0.00  0.00    -0.112 NA
ATOM     21  C   UNL     1      -5.250   3.774  25.428  0.00  0.00    +0.227 A 
ATOM     22  C   UNL     1      -5.109   4.585  25.378  0.00  0.00    +0.097 C 
ATOM     23  O   UNL     1      -4.744   3.176  25.165  0.00  0.00    -0.423 OA
ENDBRANCH  16  18
TORSDOF 4
ENDMDL
MODEL 8
REMARK VINA RESULT:      -8.8      1.524      2.365
REMARK  Name = 
REMARK  4 active torsions:
REMARK  status: ('A' for Active; 'I' for Inactive)
REMARK    1  A    between atoms: O_2  and  C_3
REMARK    2  A    between atoms: C_6  and  C_11
REMARK    3  A    between atoms: C_8  and  O_9
REMARK    4  A    between atoms: C_16  and  C_18
REMARK                            x       y       z     vdW  Elec       q    Type
REMARK                         _______ _______ _______ _____ _____    ______ ____
ROOT
ATOM     11  C   UNL     1      -1.660   1.539  25.316  0.00  0.00    +0.249 C 
ATOM     12  O   UNL     1      -1.149   1.113  25.804  0.00  0.00    -0.270 OA
ATOM     13  N   UNL     1      -2.261   1.148  24.908  0.00  0.00    -0.276 N 
ATOM     14  C   UNL     1      -2.812   1.500  24.403  0.00  0.00    +0.094 C 
ATOM     15  C   UNL     1      -3.309   0.907  24.116  0.00  0.00    +0.033 C 
ATOM     16  C   UNL     1      -3.066   0.190  24.444  0.00  0.00    +0.100 C 
ATOM     17  C   UNL     1      -2.419   0.339  24.933  0.00  0.00    +0.103 C 
ENDROOT
BRANCH  11   6
ATOM      3  C   UNL     1      -1.391   3.988  25.078  0.00  0.00    +0.172 A 
ATOM      4  C   UNL     1      -0.961   3.476  24.593  0.00  0.00    +0.040 A 
ATOM      5  C   UNL     1      -1.051   2.660  24.673  0.00  0.00    +0.008 A 
ATOM      6  C   UNL     1      -1.570   2.355  25.236  0.00  0.00    +0.057 A 
ATOM      7  C   UNL     1      -2.000   2.866  25.721  0.00  0.00    +0.045 A 
ATOM      8  C   UNL     1      -1.911   3.682  25.642  0.00  0.00    +0.173 A 
BRANCH   3   2
ATOM      1  C   UNL     1      -0.636   5.112  24.623  0.00  0.00    +0.253 C 
ATOM      2  O   UNL     1      -1.302   4.804  24.999  0.00  0.00    -0.468 OA
ENDBRANCH   3   2
BRANCH   8   9
ATOM      9  O   UNL     1      -2.341   4.193  26.126  0.00  0.00    -0.468 OA
ATOM     10  C   UNL     1      -3.132   4.032  26.296  0.00  0.00    +0.253 C 
ENDBRANCH   8   9
ENDBRANCH  11   6
BRANCH  16  18
ATOM     18  C   UNL     1      -3.410  -0.547  24.306  0.00  0.00    +0.227 A 
ATOM     19  N   UNL     1      -4.118  -0.685  23.906  0.00  0.00    -0.112 NA
ATOM     20  N   UNL     1      -4.252  -1.500  23.897  0.00  0.00    -0.112 NA
ATOM     21  C   UNL     1      -3.626  -1.865  24.292  0.00  0.00    +0.227 A 
ATOM     22  C   UNL     1      -3.537  -2.676  24.412  0.00  0.00    +0.097 C 
ATOM     23  O   UNL     1      -3.106  -1.276  24.545  0.00  0.00    -0.423 OA
ENDBRANCH  16  18
TORSDOF 4
ENDMDL
