REMARK  Name = 
REMARK  7 active torsions:
REMARK  status: ('A' for Active; 'I' for Inactive)
REMARK    1  A    between atoms: C_2  and  C_4
REMARK    2  A    between atoms: C_6  and  C_7
REMARK    3  A    between atoms: C_7  and  C_8
REMARK    4  A    between atoms: C_11  and  C_13
REMARK    5  A    between atoms: C_22  and  C_23
REMARK    6  A    between atoms: C_23  and  N_24
REMARK    7  A    between atoms: N_27  and  C_30
REMARK                            x       y       z     vdW  Elec       q    Type
REMARK                         _______ _______ _______ _____ _____    ______ ____
ROOT
ATOM      4  C   UNL     1       1.429  -4.950   0.000  0.00  0.00    +0.006 C 
ATOM      5  C   UNL     1       2.143  -5.362   0.000  0.00  0.00    +0.005 C 
ATOM      6  C   UNL     1       2.858  -4.950   0.000  0.00  0.00    +0.027 C 
ATOM     19  C   UNL     1       2.858  -4.125   0.000  0.00  0.00    -0.048 C 
ATOM     20  C   UNL     1       3.572  -3.712   0.000  0.00  0.00    +0.026 C 
ATOM     21  C   UNL     1       2.143  -3.712   0.000  0.00  0.00    -0.034 C 
ATOM     22  C   UNL     1       1.429  -4.125   0.000  0.00  0.00    +0.037 C 
ENDROOT
BRANCH   4   2
ATOM      1  C   UNL     1       0.000  -4.950   0.000  0.00  0.00    +0.000 C 
ATOM      2  C   UNL     1       0.715  -5.362   0.000  0.00  0.00    +0.000 C 
ATOM      3  C   UNL     1       0.715  -6.188   0.000  0.00  0.00    +0.000 C 
ENDBRANCH   4   2
BRANCH   6   7
ATOM      7  C   UNL     1       3.572  -5.362   0.000  0.00  0.00    +0.091 C 
BRANCH   7   8
ATOM      8  C   UNL     1       3.572  -6.188   0.000  0.00  0.00    +0.227 A 
ATOM      9  N   UNL     1       4.240  -6.672   0.000  0.00  0.00    -0.111 NA
ATOM     10  N   UNL     1       3.985  -7.457   0.000  0.00  0.00    -0.106 NA
ATOM     11  C   UNL     1       3.160  -7.457   0.000  0.00  0.00    +0.267 A 
ATOM     12  O   UNL     1       2.905  -6.672   0.000  0.00  0.00    -0.418 OA
BRANCH  11  13
ATOM     13  C   UNL     1       2.675  -8.124   0.000  0.00  0.00    +0.136 A 
ATOM     14  C   UNL     1       2.930  -8.909   0.000  0.00  0.00    +0.123 A 
ATOM     15  N   UNL     1       2.262  -9.394   0.000  0.00  0.00    -0.222 NA
ATOM     16  C   UNL     1       1.595  -8.909   0.000  0.00  0.00    +0.179 A 
ATOM     17  N   UNL     1       1.850  -8.124   0.000  0.00  0.00    -0.303 N 
ATOM     18  C   UNL     1       1.365  -7.457   0.000  0.00  0.00    +0.132 C 
ENDBRANCH  11  13
ENDBRANCH   7   8
ENDBRANCH   6   7
BRANCH  22  23
ATOM     23  C   UNL     1       0.715  -3.712   0.000  0.00  0.00    +0.076 C 
BRANCH  23  24
ATOM     24  N   UNL     1       0.715  -2.888   0.000  0.00  0.00    -0.269 NA
ATOM     25  C   UNL     1       0.000  -2.475   0.000  0.00  0.00    +0.094 C 
ATOM     26  C   UNL     1       0.000  -1.650   0.000  0.00  0.00    +0.110 C 
ATOM     27  N   UNL     1       0.715  -1.238   0.000  0.00  0.00    -0.289 N 
ATOM     28  C   UNL     1       1.429  -1.650   0.000  0.00  0.00    +0.110 C 
ATOM     29  C   UNL     1       1.429  -2.475   0.000  0.00  0.00    +0.094 C 
BRANCH  27  30
ATOM     30  C   UNL     1       0.715  -0.412   0.000  0.00  0.00    +0.151 A 
ATOM     31  C   UNL     1       0.000   0.000   0.000  0.00  0.00    +0.133 A 
ATOM     32  N   UNL     1       0.000   0.825   0.000  0.00  0.00    -0.238 NA
ATOM     33  C   UNL     1       0.715   1.238   0.000  0.00  0.00    +0.120 A 
ATOM     34  C   UNL     1       1.429   0.825   0.000  0.00  0.00    +0.121 A 
ATOM     35  N   UNL     1       1.429   0.000   0.000  0.00  0.00    -0.226 NA
ENDBRANCH  27  30
ENDBRANCH  23  24
ENDBRANCH  22  23
TORSDOF 7
