MODEL 1
REMARK VINA RESULT:      -8.3      0.000      0.000
REMARK  Name = 
REMARK  6 active torsions:
REMARK  status: ('A' for Active; 'I' for Inactive)
REMARK    1  A    between atoms: C_2  and  C_3
REMARK    2  A    between atoms: C_5  and  C_6
REMARK    3  A    between atoms: C_6  and  C_7
REMARK    4  A    between atoms: C_7  and  N_11
REMARK    5  A    between atoms: N_11  and  C_12
REMARK    6  A    between atoms: C_12  and  C_13
REMARK                            x       y       z     vdW  Elec       q    Type
REMARK                         _______ _______ _______ _____ _____    ______ ____
ROOT
ATOM      7  C   UNL     1      -4.744   2.161  24.999  0.00  0.00    +0.120 C 
ATOM      8  C   UNL     1      -5.380   1.807  25.388  0.00  0.00    +0.161 C 
ATOM      9  O   UNL     1      -5.800   2.516  25.347  0.00  0.00    -0.351 OA
ATOM     10  C   UNL     1      -5.165   2.870  24.958  0.00  0.00    +0.161 C 
ENDROOT
BRANCH   7   6
ATOM      6  C   UNL     1      -4.109   2.515  24.610  0.00  0.00    +0.070 C 
BRANCH   6   5
ATOM      3  C   UNL     1      -2.538   3.749  25.364  0.00  0.00    +0.187 A 
ATOM      4  C   UNL     1      -2.839   3.232  24.795  0.00  0.00    +0.056 A 
ATOM      5  C   UNL     1      -3.604   3.022  25.020  0.00  0.00    +0.102 A 
ATOM     19  N   UNL     1      -3.777   3.409  25.728  0.00  0.00    -0.082 NA
ATOM     20  O   UNL     1      -3.118   3.858  25.941  0.00  0.00    -0.355 OA
BRANCH   3   2
ATOM      1  O   UNL     1      -1.715   4.916  25.343  0.00  0.00    -0.212 OA
ATOM      2  C   UNL     1      -1.790   4.095  25.358  0.00  0.00    +0.249 C 
ENDBRANCH   3   2
ENDBRANCH   6   5
ENDBRANCH   7   6
BRANCH   7  11
ATOM     11  N   UNL     1      -4.324   1.452  25.040  0.00  0.00    -0.211 NA
BRANCH  11  12
ATOM     12  C   UNL     1      -4.703   0.739  24.869  0.00  0.00    +0.115 C 
BRANCH  12  13
ATOM     13  C   UNL     1      -4.267   0.039  24.833  0.00  0.00    -0.002 A 
ATOM     14  C   UNL     1      -4.128  -0.322  24.104  0.00  0.00    +0.018 A 
ATOM     15  C   UNL     1      -3.692  -1.021  24.066  0.00  0.00    +0.099 A 
ATOM     16  N   UNL     1      -3.395  -1.359  24.758  0.00  0.00    -0.242 NA
ATOM     17  C   UNL     1      -3.534  -0.998  25.487  0.00  0.00    +0.099 A 
ATOM     18  C   UNL     1      -3.970  -0.298  25.524  0.00  0.00    +0.018 A 
ENDBRANCH  12  13
ENDBRANCH  11  12
ENDBRANCH   7  11
TORSDOF 6
ENDMDL
MODEL 2
REMARK VINA RESULT:      -8.2      1.234      1.482
REMARK  Name = 
REMARK  6 active torsions:
REMARK  status: ('A' for Active; 'I' for Inactive)
REMARK    1  A    between atoms: C_2  and  C_3
REMARK    2  A    between atoms: C_5  and  C_6
REMARK    3  A    between atoms: C_6  and  C_7
REMARK    4  A    between atoms: C_7  and  N_11
REMARK    5  A    between atoms: N_11  and  C_12
REMARK    6  A    between atoms: C_12  and  C_13
REMARK                            x       y       z     vdW  Elec       q    Type
REMARK                         _______ _______ _______ _____ _____    ______ ____
ROOT
ATOM      7  C   UNL     1      -4.156   1.375  24.546  0.00  0.00    +0.120 C 
ATOM      8  C   UNL     1      -4.779   1.219  25.065  0.00  0.00    +0.161 C 
ATOM      9  O   UNL     1      -5.065   1.984  24.950  0.00  0.00    -0.351 OA
ATOM     10  C   UNL     1      -4.443   2.140  24.432  0.00  0.00    +0.161 C 
ENDROOT
BRANCH   7   6
ATOM      6  C   UNL     1      -3.534   1.531  24.028  0.00  0.00    +0.070 C 
BRANCH   6   5
ATOM      3  C   UNL     1      -1.645   2.470  24.357  0.00  0.00    +0.187 A 
ATOM      4  C   UNL     1      -2.151   2.012  23.894  0.00  0.00    +0.056 A 
ATOM      5  C   UNL     1      -2.870   1.943  24.292  0.00  0.00    +0.102 A 
ATOM     19  N   UNL     1      -2.809   2.359  25.002  0.00  0.00    -0.082 NA
ATOM     20  O   UNL     1      -2.052   2.685  25.042  0.00  0.00    -0.355 OA
BRANCH   3   2
ATOM      1  O   UNL     1      -0.613   3.455  24.275  0.00  0.00    -0.212 OA
ATOM      2  C   UNL     1      -0.869   2.678  24.169  0.00  0.00    +0.249 C 
ENDBRANCH   3   2
ENDBRANCH   6   5
ENDBRANCH   7   6
BRANCH   7  11
ATOM     11  N   UNL     1      -3.869   0.610  24.661  0.00  0.00    -0.211 NA
BRANCH  11  12
ATOM     12  C   UNL     1      -4.391  -0.030  24.658  0.00  0.00    +0.115 C 
BRANCH  12  13
ATOM     13  C   UNL     1      -4.097  -0.801  24.682  0.00  0.00    -0.002 A 
ATOM     14  C   UNL     1      -3.709  -1.073  25.357  0.00  0.00    +0.018 A 
ATOM     15  C   UNL     1      -3.414  -1.843  25.382  0.00  0.00    +0.099 A 
ATOM     16  N   UNL     1      -3.509  -2.341  24.730  0.00  0.00    -0.242 NA
ATOM     17  C   UNL     1      -3.897  -2.069  24.055  0.00  0.00    +0.099 A 
ATOM     18  C   UNL     1      -4.191  -1.298  24.032  0.00  0.00    +0.018 A 
ENDBRANCH  12  13
ENDBRANCH  11  12
ENDBRANCH   7  11
TORSDOF 6
ENDMDL
MODEL 3
REMARK VINA RESULT:      -8.0      1.629      3.990
REMARK  Name = 
REMARK  6 active torsions:
REMARK  status: ('A' for Active; 'I' for Inactive)
REMARK    1  A    between atoms: C_2  and  C_3
REMARK    2  A    between atoms: C_5  and  C_6
REMARK    3  A    between atoms: C_6  and  C_7
REMARK    4  A    between atoms: C_7  and  N_11
REMARK    5  A    between atoms: N_11  and  C_12
REMARK    6  A    between atoms: C_12  and  C_13
REMARK                            x       y       z     vdW  Elec       q    Type
REMARK                         _______ _______ _______ _____ _____    ______ ____
ROOT
ATOM      7  C   UNL     1      -4.938   1.915  25.014  0.00  0.00    +0.120 C 
ATOM      8  C   UNL     1      -5.364   2.393  25.536  0.00  0.00    +0.161 C 
ATOM      9  O   UNL     1      -6.058   1.994  25.334  0.00  0.00    -0.351 OA
ATOM     10  C   UNL     1      -5.633   1.518  24.812  0.00  0.00    +0.161 C 
ENDROOT
BRANCH   7   6
ATOM      6  C   UNL     1      -4.513   1.439  24.493  0.00  0.00    +0.070 C 
BRANCH   6   5
ATOM      3  C   UNL     1      -4.053  -0.644  24.592  0.00  0.00    +0.187 A 
ATOM      4  C   UNL     1      -4.176   0.047  24.158  0.00  0.00    +0.056 A 
ATOM      5  C   UNL     1      -4.351   0.654  24.689  0.00  0.00    +0.102 A 
ATOM     19  N   UNL     1      -4.336   0.339  25.451  0.00  0.00    -0.082 NA
ATOM     20  O   UNL     1      -4.152  -0.463  25.391  0.00  0.00    -0.355 OA
BRANCH   3   2
ATOM      1  O   UNL     1      -4.440  -1.828  23.892  0.00  0.00    -0.212 OA
ATOM      2  C   UNL     1      -3.864  -1.384  24.282  0.00  0.00    +0.249 C 
ENDBRANCH   3   2
ENDBRANCH   6   5
ENDBRANCH   7   6
BRANCH   7  11
ATOM     11  N   UNL     1      -4.244   2.314  25.217  0.00  0.00    -0.211 NA
BRANCH  11  12
ATOM     12  C   UNL     1      -4.191   3.130  25.107  0.00  0.00    +0.115 C 
BRANCH  12  13
ATOM     13  C   UNL     1      -3.484   3.522  25.269  0.00  0.00    -0.002 A 
ATOM     14  C   UNL     1      -3.346   3.829  26.023  0.00  0.00    +0.018 A 
ATOM     15  C   UNL     1      -2.639   4.221  26.186  0.00  0.00    +0.099 A 
ATOM     16  N   UNL     1      -2.069   4.306  25.595  0.00  0.00    -0.242 NA
ATOM     17  C   UNL     1      -2.207   3.999  24.842  0.00  0.00    +0.099 A 
ATOM     18  C   UNL     1      -2.914   3.607  24.680  0.00  0.00    +0.018 A 
ENDBRANCH  12  13
ENDBRANCH  11  12
ENDBRANCH   7  11
TORSDOF 6
ENDMDL
MODEL 4
REMARK VINA RESULT:      -8.0      1.482      2.266
REMARK  Name = 
REMARK  6 active torsions:
REMARK  status: ('A' for Active; 'I' for Inactive)
REMARK    1  A    between atoms: C_2  and  C_3
REMARK    2  A    between atoms: C_5  and  C_6
REMARK    3  A    between atoms: C_6  and  C_7
REMARK    4  A    between atoms: C_7  and  N_11
REMARK    5  A    between atoms: N_11  and  C_12
REMARK    6  A    between atoms: C_12  and  C_13
REMARK                            x       y       z     vdW  Elec       q    Type
REMARK                         _______ _______ _______ _____ _____    ______ ____
ROOT
ATOM      7  C   UNL     1      -3.129   1.441  23.925  0.00  0.00    +0.120 C 
ATOM      8  C   UNL     1      -2.335   1.215  23.897  0.00  0.00    +0.161 C 
ATOM      9  O   UNL     1      -2.153   1.909  23.489  0.00  0.00    -0.351 OA
ATOM     10  C   UNL     1      -2.946   2.134  23.517  0.00  0.00    +0.161 C 
ENDROOT
BRANCH   7   6
ATOM      6  C   UNL     1      -3.922   1.666  23.953  0.00  0.00    +0.070 C 
BRANCH   6   5
ATOM      3  C   UNL     1      -4.968   2.920  25.327  0.00  0.00    +0.187 A 
ATOM      4  C   UNL     1      -4.965   2.354  24.727  0.00  0.00    +0.056 A 
ATOM      5  C   UNL     1      -4.180   2.198  24.528  0.00  0.00    +0.102 A 
ATOM     19  N   UNL     1      -3.697   2.667  25.004  0.00  0.00    -0.082 NA
ATOM     20  O   UNL     1      -4.184   3.114  25.498  0.00  0.00    -0.355 OA
BRANCH   3   2
ATOM      1  O   UNL     1      -5.732   4.055  25.739  0.00  0.00    -0.212 OA
ATOM      2  C   UNL     1      -5.636   3.237  25.692  0.00  0.00    +0.249 C 
ENDBRANCH   3   2
ENDBRANCH   6   5
ENDBRANCH   7   6
BRANCH   7  11
ATOM     11  N   UNL     1      -3.311   0.747  24.333  0.00  0.00    -0.211 NA
BRANCH  11  12
ATOM     12  C   UNL     1      -3.024   0.022  24.061  0.00  0.00    +0.115 C 
BRANCH  12  13
ATOM     13  C   UNL     1      -3.280  -0.679  24.412  0.00  0.00    -0.002 A 
ATOM     14  C   UNL     1      -3.754  -1.203  23.986  0.00  0.00    +0.018 A 
ATOM     15  C   UNL     1      -4.011  -1.905  24.335  0.00  0.00    +0.099 A 
ATOM     16  N   UNL     1      -3.793  -2.082  25.112  0.00  0.00    -0.242 NA
ATOM     17  C   UNL     1      -3.319  -1.558  25.538  0.00  0.00    +0.099 A 
ATOM     18  C   UNL     1      -3.063  -0.857  25.187  0.00  0.00    +0.018 A 
ENDBRANCH  12  13
ENDBRANCH  11  12
ENDBRANCH   7  11
TORSDOF 6
ENDMDL
MODEL 5
REMARK VINA RESULT:      -7.8      2.328      3.710
REMARK  Name = 
REMARK  6 active torsions:
REMARK  status: ('A' for Active; 'I' for Inactive)
REMARK    1  A    between atoms: C_2  and  C_3
REMARK    2  A    between atoms: C_5  and  C_6
REMARK    3  A    between atoms: C_6  and  C_7
REMARK    4  A    between atoms: C_7  and  N_11
REMARK    5  A    between atoms: N_11  and  C_12
REMARK    6  A    between atoms: C_12  and  C_13
REMARK                            x       y       z     vdW  Elec       q    Type
REMARK                         _______ _______ _______ _____ _____    ______ ____
ROOT
ATOM      7  C   UNL     1      -2.982   1.530  23.845  0.00  0.00    +0.120 C 
ATOM      8  C   UNL     1      -2.955   2.271  23.481  0.00  0.00    +0.161 C 
ATOM      9  O   UNL     1      -2.464   1.963  22.893  0.00  0.00    -0.351 OA
ATOM     10  C   UNL     1      -2.491   1.224  23.257  0.00  0.00    +0.161 C 
ENDROOT
BRANCH   7   6
ATOM      6  C   UNL     1      -3.009   0.790  24.208  0.00  0.00    +0.070 C 
BRANCH   6   5
ATOM      3  C   UNL     1      -1.465  -0.293  25.209  0.00  0.00    +0.187 A 
ATOM      4  C   UNL     1      -2.149  -0.273  24.749  0.00  0.00    +0.056 A 
ATOM      5  C   UNL     1      -2.359   0.517  24.637  0.00  0.00    +0.102 A 
ATOM     19  N   UNL     1      -1.805   0.986  25.028  0.00  0.00    -0.082 NA
ATOM     20  O   UNL     1      -1.252   0.486  25.382  0.00  0.00    -0.355 OA
BRANCH   3   2
ATOM      1  O   UNL     1      -0.362  -1.192  25.082  0.00  0.00    -0.212 OA
ATOM      2  C   UNL     1      -1.064  -0.970  25.454  0.00  0.00    +0.249 C 
ENDBRANCH   3   2
ENDBRANCH   6   5
ENDBRANCH   7   6
BRANCH   7  11
ATOM     11  N   UNL     1      -3.473   1.837  24.433  0.00  0.00    -0.211 NA
BRANCH  11  12
ATOM     12  C   UNL     1      -4.181   2.206  24.226  0.00  0.00    +0.115 C 
BRANCH  12  13
ATOM     13  C   UNL     1      -4.705   2.450  24.814  0.00  0.00    -0.002 A 
ATOM     14  C   UNL     1      -4.588   3.172  25.196  0.00  0.00    +0.018 A 
ATOM     15  C   UNL     1      -5.111   3.418  25.785  0.00  0.00    +0.099 A 
ATOM     16  N   UNL     1      -5.752   2.941  25.992  0.00  0.00    -0.242 NA
ATOM     17  C   UNL     1      -5.870   2.219  25.610  0.00  0.00    +0.099 A 
ATOM     18  C   UNL     1      -5.346   1.974  25.021  0.00  0.00    +0.018 A 
ENDBRANCH  12  13
ENDBRANCH  11  12
ENDBRANCH   7  11
TORSDOF 6
ENDMDL
MODEL 6
REMARK VINA RESULT:      -7.7      2.550      4.219
REMARK  Name = 
REMARK  6 active torsions:
REMARK  status: ('A' for Active; 'I' for Inactive)
REMARK    1  A    between atoms: C_2  and  C_3
REMARK    2  A    between atoms: C_5  and  C_6
REMARK    3  A    between atoms: C_6  and  C_7
REMARK    4  A    between atoms: C_7  and  N_11
REMARK    5  A    between atoms: N_11  and  C_12
REMARK    6  A    between atoms: C_12  and  C_13
REMARK                            x       y       z     vdW  Elec       q    Type
REMARK                         _______ _______ _______ _____ _____    ______ ____
ROOT
ATOM      7  C   UNL     1      -3.793  -1.205  24.538  0.00  0.00    +0.120 C 
ATOM      8  C   UNL     1      -4.345  -1.164  23.925  0.00  0.00    +0.161 C 
ATOM      9  O   UNL     1      -4.368  -1.988  23.891  0.00  0.00    -0.351 OA
ATOM     10  C   UNL     1      -3.817  -2.029  24.503  0.00  0.00    +0.161 C 
ENDROOT
BRANCH   7   6
ATOM      6  C   UNL     1      -3.242  -1.247  25.150  0.00  0.00    +0.070 C 
BRANCH   6   5
ATOM      3  C   UNL     1      -1.133  -1.426  24.870  0.00  0.00    +0.187 A 
ATOM      4  C   UNL     1      -1.795  -0.991  25.102  0.00  0.00    +0.056 A 
ATOM      5  C   UNL     1      -2.462  -1.463  24.990  0.00  0.00    +0.102 A 
ATOM     19  N   UNL     1      -2.213  -2.189  24.689  0.00  0.00    -0.082 NA
ATOM     20  O   UNL     1      -1.392  -2.167  24.615  0.00  0.00    -0.355 OA
BRANCH   3   2
ATOM      1  O   UNL     1      -0.030  -0.770  24.242  0.00  0.00    -0.212 OA
ATOM      2  C   UNL     1      -0.351  -1.166  24.890  0.00  0.00    +0.249 C 
ENDBRANCH   3   2
ENDBRANCH   6   5
ENDBRANCH   7   6
BRANCH   7  11
ATOM     11  N   UNL     1      -3.769  -0.381  24.572  0.00  0.00    -0.211 NA
BRANCH  11  12
ATOM     12  C   UNL     1      -4.468   0.054  24.506  0.00  0.00    +0.115 C 
BRANCH  12  13
ATOM     13  C   UNL     1      -4.457   0.871  24.622  0.00  0.00    -0.002 A 
ATOM     14  C   UNL     1      -4.923   1.209  25.212  0.00  0.00    +0.018 A 
ATOM     15  C   UNL     1      -4.913   2.026  25.329  0.00  0.00    +0.099 A 
ATOM     16  N   UNL     1      -4.436   2.504  24.855  0.00  0.00    -0.242 NA
ATOM     17  C   UNL     1      -3.969   2.165  24.265  0.00  0.00    +0.099 A 
ATOM     18  C   UNL     1      -3.980   1.348  24.149  0.00  0.00    +0.018 A 
ENDBRANCH  12  13
ENDBRANCH  11  12
ENDBRANCH   7  11
TORSDOF 6
ENDMDL
