MODEL 1
REMARK VINA RESULT:     -12.6      0.000      0.000
REMARK  Name = 
REMARK  6 active torsions:
REMARK  status: ('A' for Active; 'I' for Inactive)
REMARK    1  A    between atoms: C_5  and  C_8
REMARK    2  A    between atoms: C_10  and  C_11
REMARK    3  A    between atoms: C_11  and  C_12
REMARK    4  A    between atoms: C_12  and  N_16
REMARK    5  A    between atoms: N_16  and  C_17
REMARK    6  A    between atoms: C_17  and  C_18
REMARK                            x       y       z     vdW  Elec       q    Type
REMARK                         _______ _______ _______ _____ _____    ______ ____
ROOT
ATOM     11  C   UNL     1      -4.165   2.271  24.570  0.00  0.00    +0.070 C 
ENDROOT
BRANCH  11  10
ATOM      8  C   UNL     1      -4.268   0.164  24.895  0.00  0.00    +0.177 A 
ATOM      9  C   UNL     1      -3.939   0.819  24.518  0.00  0.00    +0.058 A 
ATOM     10  C   UNL     1      -4.321   1.494  24.800  0.00  0.00    +0.102 A 
ATOM     24  N   UNL     1      -4.886   1.256  25.351  0.00  0.00    -0.081 NA
ATOM     25  O   UNL     1      -4.853   0.434  25.410  0.00  0.00    -0.354 OA
BRANCH   8   5
ATOM      1  F   UNL     1      -3.397  -2.985  24.430  0.00  0.00    -0.204 F 
ATOM      2  C   UNL     1      -3.615  -2.198  24.546  0.00  0.00    +0.140 A 
ATOM      3  C   UNL     1      -3.376  -1.800  25.229  0.00  0.00    +0.030 A 
ATOM      4  C   UNL     1      -3.594  -1.013  25.345  0.00  0.00    +0.005 A 
ATOM      5  C   UNL     1      -4.051  -0.623  24.779  0.00  0.00    +0.037 A 
ATOM      6  C   UNL     1      -4.289  -1.021  24.097  0.00  0.00    +0.005 A 
ATOM      7  C   UNL     1      -4.071  -1.808  23.981  0.00  0.00    +0.030 A 
ENDBRANCH   8   5
ENDBRANCH  11  10
BRANCH  11  12
ATOM     12  C   UNL     1      -4.287   2.890  25.101  0.00  0.00    +0.119 C 
ATOM     13  C   UNL     1      -4.410   3.510  25.633  0.00  0.00    +0.161 C 
ATOM     14  O   UNL     1      -5.222   3.466  25.497  0.00  0.00    -0.351 OA
ATOM     15  C   UNL     1      -5.100   2.846  24.966  0.00  0.00    +0.161 C 
BRANCH  12  16
ATOM     16  N   UNL     1      -3.475   2.935  25.237  0.00  0.00    -0.215 NA
BRANCH  16  17
ATOM     17  C   UNL     1      -3.121   3.667  25.377  0.00  0.00    +0.089 C 
BRANCH  17  18
ATOM     18  C   UNL     1      -2.298   3.732  25.383  0.00  0.00    +0.017 C 
ATOM     19  C   UNL     1      -1.930   4.346  24.974  0.00  0.00    +0.001 C 
ATOM     20  C   UNL     1      -1.108   4.412  24.979  0.00  0.00    +0.000 C 
ATOM     21  C   UNL     1      -0.654   3.863  25.395  0.00  0.00    +0.000 C 
ATOM     22  C   UNL     1      -1.021   3.248  25.805  0.00  0.00    +0.000 C 
ATOM     23  C   UNL     1      -1.844   3.183  25.798  0.00  0.00    +0.001 C 
ENDBRANCH  17  18
ENDBRANCH  16  17
ENDBRANCH  12  16
ENDBRANCH  11  12
TORSDOF 6
ENDMDL
MODEL 2
REMARK VINA RESULT:     -12.4      1.958      4.760
REMARK  Name = 
REMARK  6 active torsions:
REMARK  status: ('A' for Active; 'I' for Inactive)
REMARK    1  A    between atoms: C_5  and  C_8
REMARK    2  A    between atoms: C_10  and  C_11
REMARK    3  A    between atoms: C_11  and  C_12
REMARK    4  A    between atoms: C_12  and  N_16
REMARK    5  A    between atoms: N_16  and  C_17
REMARK    6  A    between atoms: C_17  and  C_18
REMARK                            x       y       z     vdW  Elec       q    Type
REMARK                         _______ _______ _______ _____ _____    ______ ____
ROOT
ATOM     11  C   UNL     1      -4.363   2.096  24.533  0.00  0.00    +0.070 C 
ENDROOT
BRANCH  11  10
ATOM      8  C   UNL     1      -2.913   3.519  25.188  0.00  0.00    +0.177 A 
ATOM      9  C   UNL     1      -3.198   2.987  24.625  0.00  0.00    +0.058 A 
ATOM     10  C   UNL     1      -3.894   2.656  24.917  0.00  0.00    +0.102 A 
ATOM     24  N   UNL     1      -4.040   2.981  25.660  0.00  0.00    -0.081 NA
ATOM     25  O   UNL     1      -3.434   3.515  25.828  0.00  0.00    -0.354 OA
BRANCH   8   5
ATOM      1  F   UNL     1      -0.171   5.337  24.929  0.00  0.00    -0.204 F 
ATOM      2  C   UNL     1      -0.857   4.883  24.994  0.00  0.00    +0.140 A 
ATOM      3  C   UNL     1      -0.813   4.060  24.941  0.00  0.00    +0.030 A 
ATOM      4  C   UNL     1      -1.499   3.606  25.006  0.00  0.00    +0.005 A 
ATOM      5  C   UNL     1      -2.228   3.973  25.123  0.00  0.00    +0.037 A 
ATOM      6  C   UNL     1      -2.272   4.795  25.176  0.00  0.00    +0.005 A 
ATOM      7  C   UNL     1      -1.586   5.250  25.111  0.00  0.00    +0.030 A 
ENDBRANCH   8   5
ENDBRANCH  11  10
BRANCH  11  12
ATOM     12  C   UNL     1      -4.957   1.701  24.947  0.00  0.00    +0.119 C 
ATOM     13  C   UNL     1      -5.552   1.306  25.361  0.00  0.00    +0.161 C 
ATOM     14  O   UNL     1      -6.044   1.964  25.280  0.00  0.00    -0.351 OA
ATOM     15  C   UNL     1      -5.450   2.358  24.867  0.00  0.00    +0.161 C 
BRANCH  12  16
ATOM     16  N   UNL     1      -4.465   1.044  25.027  0.00  0.00    -0.215 NA
BRANCH  16  17
ATOM     17  C   UNL     1      -4.756   0.289  24.864  0.00  0.00    +0.089 C 
BRANCH  17  18
ATOM     18  C   UNL     1      -4.247  -0.360  24.876  0.00  0.00    +0.017 C 
ATOM     19  C   UNL     1      -4.119  -0.795  24.186  0.00  0.00    +0.001 C 
ATOM     20  C   UNL     1      -3.610  -1.444  24.196  0.00  0.00    +0.000 C 
ATOM     21  C   UNL     1      -3.229  -1.658  24.896  0.00  0.00    +0.000 C 
ATOM     22  C   UNL     1      -3.358  -1.223  25.586  0.00  0.00    +0.000 C 
ATOM     23  C   UNL     1      -3.867  -0.574  25.575  0.00  0.00    +0.001 C 
ENDBRANCH  17  18
ENDBRANCH  16  17
ENDBRANCH  12  16
ENDBRANCH  11  12
TORSDOF 6
ENDMDL
MODEL 3
REMARK VINA RESULT:     -11.5      2.680      5.585
REMARK  Name = 
REMARK  6 active torsions:
REMARK  status: ('A' for Active; 'I' for Inactive)
REMARK    1  A    between atoms: C_5  and  C_8
REMARK    2  A    between atoms: C_10  and  C_11
REMARK    3  A    between atoms: C_11  and  C_12
REMARK    4  A    between atoms: C_12  and  N_16
REMARK    5  A    between atoms: N_16  and  C_17
REMARK    6  A    between atoms: C_17  and  C_18
REMARK                            x       y       z     vdW  Elec       q    Type
REMARK                         _______ _______ _______ _____ _____    ______ ____
ROOT
ATOM     11  C   UNL     1      -1.831   0.472  25.210  0.00  0.00    +0.070 C 
ENDROOT
BRANCH  11  10
ATOM      8  C   UNL     1      -1.611   2.538  24.720  0.00  0.00    +0.177 A 
ATOM      9  C   UNL     1      -1.715   1.936  25.274  0.00  0.00    +0.058 A 
ATOM     10  C   UNL     1      -1.736   1.217  24.870  0.00  0.00    +0.102 A 
ATOM     24  N   UNL     1      -1.645   1.374  24.066  0.00  0.00    -0.081 NA
ATOM     25  O   UNL     1      -1.567   2.190  23.973  0.00  0.00    -0.354 OA
BRANCH   8   5
ATOM      1  F   UNL     1      -1.405   5.766  25.373  0.00  0.00    -0.204 F 
ATOM      2  C   UNL     1      -1.456   4.959  25.210  0.00  0.00    +0.140 A 
ATOM      3  C   UNL     1      -2.159   4.551  25.358  0.00  0.00    +0.030 A 
ATOM      4  C   UNL     1      -2.210   3.744  25.194  0.00  0.00    +0.005 A 
ATOM      5  C   UNL     1      -1.559   3.344  24.883  0.00  0.00    +0.037 A 
ATOM      6  C   UNL     1      -0.857   3.751  24.735  0.00  0.00    +0.005 A 
ATOM      7  C   UNL     1      -0.806   4.558  24.899  0.00  0.00    +0.030 A 
ENDBRANCH   8   5
ENDBRANCH  11  10
BRANCH  11  12
ATOM     12  C   UNL     1      -1.401  -0.171  24.923  0.00  0.00    +0.119 C 
ATOM     13  C   UNL     1      -0.971  -0.815  24.635  0.00  0.00    +0.161 C 
ATOM     14  O   UNL     1      -0.278  -0.486  24.939  0.00  0.00    -0.351 OA
ATOM     15  C   UNL     1      -0.707   0.156  25.227  0.00  0.00    +0.161 C 
BRANCH  12  16
ATOM     16  N   UNL     1      -2.095  -0.499  24.619  0.00  0.00    -0.215 NA
BRANCH  16  17
ATOM     17  C   UNL     1      -2.467  -1.118  25.019  0.00  0.00    +0.089 C 
BRANCH  17  18
ATOM     18  C   UNL     1      -3.084  -1.529  24.658  0.00  0.00    +0.017 C 
ATOM     19  C   UNL     1      -3.062  -2.354  24.620  0.00  0.00    +0.001 C 
ATOM     20  C   UNL     1      -3.679  -2.767  24.259  0.00  0.00    +0.000 C 
ATOM     21  C   UNL     1      -4.316  -2.355  23.935  0.00  0.00    +0.000 C 
ATOM     22  C   UNL     1      -4.338  -1.531  23.972  0.00  0.00    +0.000 C 
ATOM     23  C   UNL     1      -3.721  -1.119  24.334  0.00  0.00    +0.001 C 
ENDBRANCH  17  18
ENDBRANCH  16  17
ENDBRANCH  12  16
ENDBRANCH  11  12
TORSDOF 6
ENDMDL
