MODEL 1
REMARK VINA RESULT:      -8.6      0.000      0.000
REMARK  Name = 
REMARK  6 active torsions:
REMARK  status: ('A' for Active; 'I' for Inactive)
REMARK    1  A    between atoms: O_2  and  C_3
REMARK    2  A    between atoms: C_3  and  C_4
REMARK    3  A    between atoms: N_6  and  C_7
REMARK    4  A    between atoms: C_7  and  C_8
REMARK    5  A    between atoms: C_11  and  N_12
REMARK    6  A    between atoms: N_12  and  C_13
REMARK                            x       y       z     vdW  Elec       q    Type
REMARK                         _______ _______ _______ _____ _____    ______ ____
ROOT
ATOM      8  C   UNL     1      -3.386   2.368  24.865  0.00  0.00    +0.169 C 
ATOM      9  O   UNL     1      -2.915   1.920  24.357  0.00  0.00    -0.350 OA
ATOM     10  C   UNL     1      -3.294   1.200  24.225  0.00  0.00    +0.162 C 
ATOM     11  C   UNL     1      -4.000   1.202  24.652  0.00  0.00    +0.135 C 
ATOM     22  C   UNL     1      -4.057   1.923  25.048  0.00  0.00    +0.199 C 
ATOM     23  O   UNL     1      -4.676   2.158  25.539  0.00  0.00    -0.219 OA
ENDROOT
BRANCH   8   7
ATOM      7  C   UNL     1      -3.217   3.126  25.144  0.00  0.00    +0.147 C 
BRANCH   7   6
ATOM      4  C   UNL     1      -2.247   4.134  25.434  0.00  0.00    +0.272 C 
ATOM      5  O   UNL     1      -2.782   4.501  25.945  0.00  0.00    -0.271 OA
ATOM      6  N   UNL     1      -2.464   3.447  25.034  0.00  0.00    -0.201 NA
BRANCH   4   3
ATOM      3  C   UNL     1      -1.495   4.456  25.325  0.00  0.00    +0.229 C 
BRANCH   3   2
ATOM      1  C   UNL     1      -0.723   5.504  24.737  0.00  0.00    +0.175 C 
ATOM      2  O   UNL     1      -1.412   5.248  25.111  0.00  0.00    -0.342 OA
ENDBRANCH   3   2
ENDBRANCH   4   3
ENDBRANCH   7   6
ENDBRANCH   8   7
BRANCH  11  12
ATOM     12  N   UNL     1      -4.552   0.590  24.678  0.00  0.00    -0.216 NA
BRANCH  12  13
ATOM     13  C   UNL     1      -4.297  -0.195  24.703  0.00  0.00    +0.076 C 
ATOM     14  C   UNL     1      -4.334  -0.664  24.024  0.00  0.00    +0.039 C 
ATOM     15  C   UNL     1      -4.079  -1.448  24.050  0.00  0.00    +0.095 C 
ATOM     16  N   UNL     1      -3.787  -1.763  24.754  0.00  0.00    -0.279 N 
ATOM     17  C   UNL     1      -3.749  -1.295  25.432  0.00  0.00    +0.095 C 
ATOM     18  C   UNL     1      -4.004  -0.511  25.407  0.00  0.00    +0.039 C 
ATOM     19  C   UNL     1      -3.532  -2.548  24.779  0.00  0.00    +0.226 C 
ATOM     20  C   UNL     1      -3.569  -3.016  24.101  0.00  0.00    +0.095 C 
ATOM     21  O   UNL     1      -3.239  -2.863  25.483  0.00  0.00    -0.275 OA
ENDBRANCH  12  13
ENDBRANCH  11  12
TORSDOF 6
ENDMDL
MODEL 2
REMARK VINA RESULT:      -7.4      1.896      5.805
REMARK  Name = 
REMARK  6 active torsions:
REMARK  status: ('A' for Active; 'I' for Inactive)
REMARK    1  A    between atoms: O_2  and  C_3
REMARK    2  A    between atoms: C_3  and  C_4
REMARK    3  A    between atoms: N_6  and  C_7
REMARK    4  A    between atoms: C_7  and  C_8
REMARK    5  A    between atoms: C_11  and  N_12
REMARK    6  A    between atoms: N_12  and  C_13
REMARK                            x       y       z     vdW  Elec       q    Type
REMARK                         _______ _______ _______ _____ _____    ______ ____
ROOT
ATOM      8  C   UNL     1      -1.309  -0.172  24.786  0.00  0.00    +0.169 C 
ATOM      9  O   UNL     1      -1.384   0.339  24.142  0.00  0.00    -0.350 OA
ATOM     10  C   UNL     1      -1.071   1.071  24.359  0.00  0.00    +0.162 C 
ATOM     11  C   UNL     1      -0.802   1.012  25.137  0.00  0.00    +0.135 C 
ATOM     22  C   UNL     1      -0.949   0.245  25.401  0.00  0.00    +0.199 C 
ATOM     23  O   UNL     1      -0.768  -0.054  26.149  0.00  0.00    -0.219 OA
ENDROOT
BRANCH   8   7
ATOM      7  C   UNL     1      -1.550  -0.960  24.811  0.00  0.00    +0.147 C 
BRANCH   7   6
ATOM      4  C   UNL     1      -2.586  -1.937  24.680  0.00  0.00    +0.272 C 
ATOM      5  O   UNL     1      -2.020  -2.537  24.684  0.00  0.00    -0.271 OA
ATOM      6  N   UNL     1      -2.352  -1.148  24.744  0.00  0.00    -0.201 NA
BRANCH   4   3
ATOM      3  C   UNL     1      -3.387  -2.124  24.613  0.00  0.00    +0.229 C 
BRANCH   3   2
ATOM      1  C   UNL     1      -4.442  -2.533  23.741  0.00  0.00    +0.175 C 
ATOM      2  O   UNL     1      -3.652  -2.576  23.975  0.00  0.00    -0.342 OA
ENDBRANCH   3   2
ENDBRANCH   4   3
ENDBRANCH   7   6
ENDBRANCH   8   7
BRANCH  11  12
ATOM     12  N   UNL     1      -0.449   1.616  25.574  0.00  0.00    -0.216 NA
BRANCH  12  13
ATOM     13  C   UNL     1      -0.715   2.393  25.493  0.00  0.00    +0.076 C 
ATOM     14  C   UNL     1      -0.299   2.924  25.017  0.00  0.00    +0.039 C 
ATOM     15  C   UNL     1      -0.565   3.701  24.937  0.00  0.00    +0.095 C 
ATOM     16  N   UNL     1      -1.246   3.947  25.333  0.00  0.00    -0.279 N 
ATOM     17  C   UNL     1      -1.661   3.416  25.808  0.00  0.00    +0.095 C 
ATOM     18  C   UNL     1      -1.395   2.639  25.889  0.00  0.00    +0.039 C 
ATOM     19  C   UNL     1      -1.511   4.724  25.253  0.00  0.00    +0.226 C 
ATOM     20  C   UNL     1      -1.096   5.255  24.777  0.00  0.00    +0.095 C 
ATOM     21  O   UNL     1      -2.192   4.970  25.648  0.00  0.00    -0.275 OA
ENDBRANCH  12  13
ENDBRANCH  11  12
TORSDOF 6
ENDMDL
MODEL 3
REMARK VINA RESULT:      -7.2      2.885      4.515
REMARK  Name = 
REMARK  6 active torsions:
REMARK  status: ('A' for Active; 'I' for Inactive)
REMARK    1  A    between atoms: O_2  and  C_3
REMARK    2  A    between atoms: C_3  and  C_4
REMARK    3  A    between atoms: N_6  and  C_7
REMARK    4  A    between atoms: C_7  and  C_8
REMARK    5  A    between atoms: C_11  and  N_12
REMARK    6  A    between atoms: N_12  and  C_13
REMARK                            x       y       z     vdW  Elec       q    Type
REMARK                         _______ _______ _______ _____ _____    ______ ____
ROOT
ATOM      8  C   UNL     1      -1.193   1.259  23.899  0.00  0.00    +0.169 C 
ATOM      9  O   UNL     1      -1.160   1.644  24.627  0.00  0.00    -0.350 OA
ATOM     10  C   UNL     1      -1.772   2.196  24.653  0.00  0.00    +0.162 C 
ATOM     11  C   UNL     1      -2.184   2.152  23.940  0.00  0.00    +0.135 C 
ATOM     22  C   UNL     1      -1.827   1.573  23.473  0.00  0.00    +0.199 C 
ATOM     23  O   UNL     1      -2.062   1.348  22.715  0.00  0.00    -0.219 OA
ENDROOT
BRANCH   8   7
ATOM      7  C   UNL     1      -0.684   0.664  23.640  0.00  0.00    +0.147 C 
BRANCH   7   6
ATOM      4  C   UNL     1       0.643   0.211  23.360  0.00  0.00    +0.272 C 
ATOM      5  O   UNL     1       0.361  -0.559  23.268  0.00  0.00    -0.271 OA
ATOM      6  N   UNL     1       0.121   0.823  23.545  0.00  0.00    -0.201 NA
BRANCH   4   3
ATOM      3  C   UNL     1       1.447   0.370  23.265  0.00  0.00    +0.229 C 
BRANCH   3   2
ATOM      1  C   UNL     1       2.670   0.179  22.553  0.00  0.00    +0.175 C 
ATOM      2  O   UNL     1       1.871   0.005  22.659  0.00  0.00    -0.342 OA
ENDBRANCH   3   2
ENDBRANCH   4   3
ENDBRANCH   7   6
ENDBRANCH   8   7
BRANCH  11  12
ATOM     12  N   UNL     1      -2.839   2.607  23.730  0.00  0.00    -0.216 NA
BRANCH  12  13
ATOM     13  C   UNL     1      -3.496   2.639  24.228  0.00  0.00    +0.076 C 
ATOM     14  C   UNL     1      -4.045   2.022  24.228  0.00  0.00    +0.039 C 
ATOM     15  C   UNL     1      -4.701   2.055  24.727  0.00  0.00    +0.095 C 
ATOM     16  N   UNL     1      -4.810   2.704  25.224  0.00  0.00    -0.279 N 
ATOM     17  C   UNL     1      -4.262   3.320  25.224  0.00  0.00    +0.095 C 
ATOM     18  C   UNL     1      -3.605   3.288  24.726  0.00  0.00    +0.039 C 
ATOM     19  C   UNL     1      -5.467   2.736  25.722  0.00  0.00    +0.226 C 
ATOM     20  C   UNL     1      -6.015   2.119  25.723  0.00  0.00    +0.095 C 
ATOM     21  O   UNL     1      -5.576   3.384  26.220  0.00  0.00    -0.275 OA
ENDBRANCH  12  13
ENDBRANCH  11  12
TORSDOF 6
ENDMDL
MODEL 4
REMARK VINA RESULT:      -7.2      2.050      2.534
REMARK  Name = 
REMARK  6 active torsions:
REMARK  status: ('A' for Active; 'I' for Inactive)
REMARK    1  A    between atoms: O_2  and  C_3
REMARK    2  A    between atoms: C_3  and  C_4
REMARK    3  A    between atoms: N_6  and  C_7
REMARK    4  A    between atoms: C_7  and  C_8
REMARK    5  A    between atoms: C_11  and  N_12
REMARK    6  A    between atoms: N_12  and  C_13
REMARK                            x       y       z     vdW  Elec       q    Type
REMARK                         _______ _______ _______ _____ _____    ______ ____
ROOT
ATOM      8  C   UNL     1      -0.642   1.207  25.251  0.00  0.00    +0.169 C 
ATOM      9  O   UNL     1      -1.066   0.855  25.864  0.00  0.00    -0.350 OA
ATOM     10  C   UNL     1      -1.197   0.065  25.665  0.00  0.00    +0.162 C 
ATOM     11  C   UNL     1      -0.854  -0.071  24.927  0.00  0.00    +0.135 C 
ATOM     22  C   UNL     1      -0.511   0.634  24.671  0.00  0.00    +0.199 C 
ATOM     23  O   UNL     1      -0.107   0.747  23.960  0.00  0.00    -0.219 OA
ENDROOT
BRANCH   8   7
ATOM      7  C   UNL     1      -0.392   1.992  25.221  0.00  0.00    +0.147 C 
BRANCH   7   6
ATOM      4  C   UNL     1      -0.685   3.386  25.338  0.00  0.00    +0.272 C 
ATOM      5  O   UNL     1       0.120   3.559  25.288  0.00  0.00    -0.271 OA
ATOM      6  N   UNL     1      -0.942   2.603  25.304  0.00  0.00    -0.201 NA
BRANCH   4   3
ATOM      3  C   UNL     1      -1.235   3.996  25.421  0.00  0.00    +0.229 C 
BRANCH   3   2
ATOM      1  C   UNL     1      -1.640   5.339  25.151  0.00  0.00    +0.175 C 
ATOM      2  O   UNL     1      -1.070   4.744  25.113  0.00  0.00    -0.342 OA
ENDBRANCH   3   2
ENDBRANCH   4   3
ENDBRANCH   7   6
ENDBRANCH   8   7
BRANCH  11  12
ATOM     12  N   UNL     1      -0.854  -0.787  24.517  0.00  0.00    -0.216 NA
BRANCH  12  13
ATOM     13  C   UNL     1      -1.541  -1.242  24.483  0.00  0.00    +0.076 C 
ATOM     14  C   UNL     1      -2.208  -0.955  24.089  0.00  0.00    +0.039 C 
ATOM     15  C   UNL     1      -2.894  -1.411  24.055  0.00  0.00    +0.095 C 
ATOM     16  N   UNL     1      -2.915  -2.153  24.414  0.00  0.00    -0.279 N 
ATOM     17  C   UNL     1      -2.249  -2.440  24.807  0.00  0.00    +0.095 C 
ATOM     18  C   UNL     1      -1.562  -1.985  24.841  0.00  0.00    +0.039 C 
ATOM     19  C   UNL     1      -3.602  -2.609  24.379  0.00  0.00    +0.226 C 
ATOM     20  C   UNL     1      -4.268  -2.322  23.986  0.00  0.00    +0.095 C 
ATOM     21  O   UNL     1      -3.623  -3.351  24.738  0.00  0.00    -0.275 OA
ENDBRANCH  12  13
ENDBRANCH  11  12
TORSDOF 6
ENDMDL
MODEL 5
REMARK VINA RESULT:      -7.2      1.029      5.299
REMARK  Name = 
REMARK  6 active torsions:
REMARK  status: ('A' for Active; 'I' for Inactive)
REMARK    1  A    between atoms: O_2  and  C_3
REMARK    2  A    between atoms: C_3  and  C_4
REMARK    3  A    between atoms: N_6  and  C_7
REMARK    4  A    between atoms: C_7  and  C_8
REMARK    5  A    between atoms: C_11  and  N_12
REMARK    6  A    between atoms: N_12  and  C_13
REMARK                            x       y       z     vdW  Elec       q    Type
REMARK                         _______ _______ _______ _____ _____    ______ ____
ROOT
ATOM      8  C   UNL     1      -4.021   0.471  24.263  0.00  0.00    +0.169 C 
ATOM      9  O   UNL     1      -3.511   0.816  23.715  0.00  0.00    -0.350 OA
ATOM     10  C   UNL     1      -3.426   1.613  23.910  0.00  0.00    +0.162 C 
ATOM     11  C   UNL     1      -3.884   1.761  24.580  0.00  0.00    +0.135 C 
ATOM     22  C   UNL     1      -4.252   1.056  24.798  0.00  0.00    +0.199 C 
ATOM     23  O   UNL     1      -4.762   0.953  25.439  0.00  0.00    -0.219 OA
ENDROOT
BRANCH   8   7
ATOM      7  C   UNL     1      -4.259  -0.318  24.275  0.00  0.00    +0.147 C 
BRANCH   7   6
ATOM      4  C   UNL     1      -3.877  -1.693  24.356  0.00  0.00    +0.272 C 
ATOM      5  O   UNL     1      -4.533  -1.902  23.901  0.00  0.00    -0.271 OA
ATOM      6  N   UNL     1      -3.740  -0.901  24.544  0.00  0.00    -0.201 NA
BRANCH   4   3
ATOM      3  C   UNL     1      -3.358  -2.276  24.624  0.00  0.00    +0.229 C 
BRANCH   3   2
ATOM      1  C   UNL     1      -2.112  -2.946  24.432  0.00  0.00    +0.175 C 
ATOM      2  O   UNL     1      -2.778  -2.575  24.119  0.00  0.00    -0.342 OA
ENDBRANCH   3   2
ENDBRANCH   4   3
ENDBRANCH   7   6
ENDBRANCH   8   7
BRANCH  11  12
ATOM     12  N   UNL     1      -3.961   2.487  24.963  0.00  0.00    -0.216 NA
BRANCH  12  13
ATOM     13  C   UNL     1      -3.310   2.991  25.027  0.00  0.00    +0.076 C 
ATOM     14  C   UNL     1      -3.336   3.743  24.686  0.00  0.00    +0.039 C 
ATOM     15  C   UNL     1      -2.685   4.246  24.749  0.00  0.00    +0.095 C 
ATOM     16  N   UNL     1      -2.010   3.998  25.153  0.00  0.00    -0.279 N 
ATOM     17  C   UNL     1      -1.985   3.248  25.494  0.00  0.00    +0.095 C 
ATOM     18  C   UNL     1      -2.635   2.744  25.431  0.00  0.00    +0.039 C 
ATOM     19  C   UNL     1      -1.359   4.503  25.217  0.00  0.00    +0.226 C 
ATOM     20  C   UNL     1      -1.385   5.253  24.876  0.00  0.00    +0.095 C 
ATOM     21  O   UNL     1      -0.684   4.255  25.621  0.00  0.00    -0.275 OA
ENDBRANCH  12  13
ENDBRANCH  11  12
TORSDOF 6
ENDMDL
MODEL 6
REMARK VINA RESULT:      -6.9      3.885      5.040
REMARK  Name = 
REMARK  6 active torsions:
REMARK  status: ('A' for Active; 'I' for Inactive)
REMARK    1  A    between atoms: O_2  and  C_3
REMARK    2  A    between atoms: C_3  and  C_4
REMARK    3  A    between atoms: N_6  and  C_7
REMARK    4  A    between atoms: C_7  and  C_8
REMARK    5  A    between atoms: C_11  and  N_12
REMARK    6  A    between atoms: N_12  and  C_13
REMARK                            x       y       z     vdW  Elec       q    Type
REMARK                         _______ _______ _______ _____ _____    ______ ____
ROOT
ATOM      8  C   UNL     1       0.297   0.485  23.583  0.00  0.00    +0.169 C 
ATOM      9  O   UNL     1       0.164   1.294  23.673  0.00  0.00    -0.350 OA
ATOM     10  C   UNL     1      -0.545   1.392  24.084  0.00  0.00    +0.162 C 
ATOM     11  C   UNL     1      -0.850   0.643  24.247  0.00  0.00    +0.135 C 
ATOM     22  C   UNL     1      -0.330   0.082  23.938  0.00  0.00    +0.199 C 
ATOM     23  O   UNL     1      -0.421  -0.737  23.976  0.00  0.00    -0.219 OA
ENDROOT
BRANCH   8   7
ATOM      7  C   UNL     1       0.943   0.138  23.205  0.00  0.00    +0.147 C 
BRANCH   7   6
ATOM      4  C   UNL     1       2.283   0.250  22.720  0.00  0.00    +0.272 C 
ATOM      5  O   UNL     1       2.156  -0.394  22.221  0.00  0.00    -0.271 OA
ATOM      6  N   UNL     1       1.677   0.517  23.212  0.00  0.00    -0.201 NA
BRANCH   4   3
ATOM      3  C   UNL     1       3.017   0.628  22.728  0.00  0.00    +0.229 C 
BRANCH   3   2
ATOM      1  C   UNL     1       4.435   0.557  22.879  0.00  0.00    +0.175 C 
ATOM      2  O   UNL     1       3.709   0.182  22.764  0.00  0.00    -0.342 OA
ENDBRANCH   3   2
ENDBRANCH   4   3
ENDBRANCH   7   6
ENDBRANCH   8   7
BRANCH  11  12
ATOM     12  N   UNL     1      -1.552   0.483  24.649  0.00  0.00    -0.216 NA
BRANCH  12  13
ATOM     13  C   UNL     1      -2.184   1.012  24.601  0.00  0.00    +0.076 C 
ATOM     14  C   UNL     1      -2.231   1.648  25.126  0.00  0.00    +0.039 C 
ATOM     15  C   UNL     1      -2.864   2.175  25.077  0.00  0.00    +0.095 C 
ATOM     16  N   UNL     1      -3.448   2.067  24.506  0.00  0.00    -0.279 N 
ATOM     17  C   UNL     1      -3.402   1.432  23.982  0.00  0.00    +0.095 C 
ATOM     18  C   UNL     1      -2.769   0.904  24.030  0.00  0.00    +0.039 C 
ATOM     19  C   UNL     1      -4.081   2.596  24.458  0.00  0.00    +0.226 C 
ATOM     20  C   UNL     1      -4.128   3.231  24.982  0.00  0.00    +0.095 C 
ATOM     21  O   UNL     1      -4.666   2.488  23.887  0.00  0.00    -0.275 OA
ENDBRANCH  12  13
ENDBRANCH  11  12
TORSDOF 6
ENDMDL
MODEL 7
REMARK VINA RESULT:      -6.8     17.869     19.294
REMARK  Name = 
REMARK  6 active torsions:
REMARK  status: ('A' for Active; 'I' for Inactive)
REMARK    1  A    between atoms: O_2  and  C_3
REMARK    2  A    between atoms: C_3  and  C_4
REMARK    3  A    between atoms: N_6  and  C_7
REMARK    4  A    between atoms: C_7  and  C_8
REMARK    5  A    between atoms: C_11  and  N_12
REMARK    6  A    between atoms: N_12  and  C_13
REMARK                            x       y       z     vdW  Elec       q    Type
REMARK                         _______ _______ _______ _____ _____    ______ ____
ROOT
ATOM      8  C   UNL     1      12.484   7.951  19.185  0.00  0.00    +0.169 C 
ATOM      9  O   UNL     1      13.140   8.448  19.238  0.00  0.00    -0.350 OA
ATOM     10  C   UNL     1      13.665   8.121  19.785  0.00  0.00    +0.162 C 
ATOM     11  C   UNL     1      13.332   7.422  20.069  0.00  0.00    +0.135 C 
ATOM     22  C   UNL     1      12.603   7.316  19.699  0.00  0.00    +0.199 C 
ATOM     23  O   UNL     1      12.083   6.687  19.821  0.00  0.00    -0.219 OA
ENDROOT
BRANCH   8   7
ATOM      7  C   UNL     1      11.824   8.067  18.703  0.00  0.00    +0.147 C 
BRANCH   7   6
ATOM      4  C   UNL     1      11.249   8.553  17.489  0.00  0.00    +0.272 C 
ATOM      5  O   UNL     1      10.503   8.311  17.745  0.00  0.00    -0.271 OA
ATOM      6  N   UNL     1      11.910   8.432  17.968  0.00  0.00    -0.201 NA
BRANCH   4   3
ATOM      3  C   UNL     1      11.335   8.918  16.753  0.00  0.00    +0.229 C 
BRANCH   3   2
ATOM      1  C   UNL     1      10.887   9.092  15.408  0.00  0.00    +0.175 C 
ATOM      2  O   UNL     1      10.887   8.660  16.111  0.00  0.00    -0.342 OA
ENDBRANCH   3   2
ENDBRANCH   4   3
ENDBRANCH   7   6
ENDBRANCH   8   7
BRANCH  11  12
ATOM     12  N   UNL     1      13.671   6.917  20.626  0.00  0.00    -0.216 NA
BRANCH  12  13
ATOM     13  C   UNL     1      14.491   6.887  20.711  0.00  0.00    +0.076 C 
ATOM     14  C   UNL     1      14.943   6.426  20.197  0.00  0.00    +0.039 C 
ATOM     15  C   UNL     1      15.763   6.396  20.283  0.00  0.00    +0.095 C 
ATOM     16  N   UNL     1      16.131   6.827  20.882  0.00  0.00    -0.279 N 
ATOM     17  C   UNL     1      15.679   7.287  21.396  0.00  0.00    +0.095 C 
ATOM     18  C   UNL     1      14.859   7.317  21.311  0.00  0.00    +0.039 C 
ATOM     19  C   UNL     1      16.951   6.797  20.968  0.00  0.00    +0.226 C 
ATOM     20  C   UNL     1      17.403   6.337  20.454  0.00  0.00    +0.095 C 
ATOM     21  O   UNL     1      17.319   7.228  21.567  0.00  0.00    -0.275 OA
ENDBRANCH  12  13
ENDBRANCH  11  12
TORSDOF 6
ENDMDL
MODEL 8
REMARK VINA RESULT:      -5.9     15.894     18.382
REMARK  Name = 
REMARK  6 active torsions:
REMARK  status: ('A' for Active; 'I' for Inactive)
REMARK    1  A    between atoms: O_2  and  C_3
REMARK    2  A    between atoms: C_3  and  C_4
REMARK    3  A    between atoms: N_6  and  C_7
REMARK    4  A    between atoms: C_7  and  C_8
REMARK    5  A    between atoms: C_11  and  N_12
REMARK    6  A    between atoms: N_12  and  C_13
REMARK                            x       y       z     vdW  Elec       q    Type
REMARK                         _______ _______ _______ _____ _____    ______ ____
ROOT
ATOM      8  C   UNL     1      13.277   7.173  18.543  0.00  0.00    +0.169 C 
ATOM      9  O   UNL     1      12.453   7.157  18.534  0.00  0.00    -0.350 OA
ATOM     10  C   UNL     1      12.191   6.990  19.298  0.00  0.00    +0.162 C 
ATOM     11  C   UNL     1      12.855   6.903  19.781  0.00  0.00    +0.135 C 
ATOM     22  C   UNL     1      13.527   7.016  19.314  0.00  0.00    +0.199 C 
ATOM     23  O   UNL     1      14.309   6.979  19.574  0.00  0.00    -0.219 OA
ENDROOT
BRANCH   8   7
ATOM      7  C   UNL     1      13.768   7.320  17.896  0.00  0.00    +0.147 C 
BRANCH   7   6
ATOM      4  C   UNL     1      14.008   7.985  16.654  0.00  0.00    +0.272 C 
ATOM      5  O   UNL     1      14.688   7.531  16.543  0.00  0.00    -0.271 OA
ATOM      6  N   UNL     1      13.548   7.880  17.331  0.00  0.00    -0.201 NA
BRANCH   4   3
ATOM      3  C   UNL     1      13.788   8.545  16.089  0.00  0.00    +0.229 C 
BRANCH   3   2
ATOM      1  C   UNL     1      12.783   9.094  15.236  0.00  0.00    +0.175 C 
ATOM      2  O   UNL     1      13.069   8.469  15.692  0.00  0.00    -0.342 OA
ENDBRANCH   3   2
ENDBRANCH   4   3
ENDBRANCH   7   6
ENDBRANCH   8   7
BRANCH  11  12
ATOM     12  N   UNL     1      12.849   6.734  20.587  0.00  0.00    -0.216 NA
BRANCH  12  13
ATOM     13  C   UNL     1      12.302   7.104  21.083  0.00  0.00    +0.076 C 
ATOM     14  C   UNL     1      12.467   7.851  21.393  0.00  0.00    +0.039 C 
ATOM     15  C   UNL     1      11.920   8.221  21.888  0.00  0.00    +0.095 C 
ATOM     16  N   UNL     1      11.210   7.845  22.072  0.00  0.00    -0.279 N 
ATOM     17  C   UNL     1      11.045   7.099  21.762  0.00  0.00    +0.095 C 
ATOM     18  C   UNL     1      11.592   6.728  21.267  0.00  0.00    +0.039 C 
ATOM     19  C   UNL     1      10.663   8.215  22.568  0.00  0.00    +0.226 C 
ATOM     20  C   UNL     1      10.828   8.961  22.878  0.00  0.00    +0.095 C 
ATOM     21  O   UNL     1       9.953   7.839  22.752  0.00  0.00    -0.275 OA
ENDBRANCH  12  13
ENDBRANCH  11  12
TORSDOF 6
ENDMDL
