MODEL 1
REMARK VINA RESULT:     -12.2      0.000      0.000
REMARK  Name = 
REMARK  5 active torsions:
REMARK  status: ('A' for Active; 'I' for Inactive)
REMARK    1  A    between atoms: O_2  and  C_3
REMARK    2  A    between atoms: C_3  and  C_4
REMARK    3  A    between atoms: C_4  and  C_5
REMARK    4  A    between atoms: C_16  and  N_17
REMARK    5  A    between atoms: C_18  and  C_20
REMARK                            x       y       z     vdW  Elec       q    Type
REMARK                         _______ _______ _______ _____ _____    ______ ____
ROOT
ATOM      5  C   UNL     1      -3.183   2.738  25.346  0.00  0.00    +0.228 C 
ATOM      6  O   UNL     1      -2.861   2.039  25.047  0.00  0.00    -0.275 OA
ATOM      7  N   UNL     1      -4.001   2.842  25.361  0.00  0.00    -0.279 N 
ATOM      8  C   UNL     1      -4.737   3.213  25.497  0.00  0.00    +0.095 C 
ATOM      9  C   UNL     1      -5.343   2.509  25.160  0.00  0.00    +0.043 C 
ATOM     10  C   UNL     1      -5.965   2.038  24.926  0.00  0.00    +0.011 C 
ATOM     11  C   UNL     1      -5.264   2.003  24.938  0.00  0.00    +0.058 C 
ATOM     12  C   UNL     1      -4.692   2.693  25.268  0.00  0.00    +0.099 C 
ATOM     13  C   UNL     1      -4.566   1.448  24.718  0.00  0.00    +0.041 A 
ATOM     14  C   UNL     1      -4.416   0.705  24.393  0.00  0.00    +0.014 A 
ATOM     15  C   UNL     1      -3.640   0.442  24.306  0.00  0.00    +0.023 A 
ATOM     16  C   UNL     1      -3.012   0.922  24.544  0.00  0.00    +0.130 A 
ATOM     25  C   UNL     1      -3.161   1.665  24.869  0.00  0.00    +0.276 A 
ATOM     26  O   UNL     1      -2.400   1.942  25.022  0.00  0.00    -0.266 OA
ATOM     27  N   UNL     1      -3.938   1.928  24.956  0.00  0.00    -0.298 N 
ATOM     28  C   UNL     1      -4.607   1.936  24.934  0.00  0.00    +0.110 C 
ENDROOT
BRANCH  16  17
ATOM     17  N   UNL     1      -2.236   0.658  24.456  0.00  0.00    -0.170 NA
ATOM     18  C   UNL     1      -2.037  -0.115  24.664  0.00  0.00    +0.275 C 
ATOM     19  O   UNL     1      -1.259  -0.379  24.576  0.00  0.00    -0.267 OA
BRANCH  18  20
ATOM     20  C   UNL     1      -2.614  -0.625  24.959  0.00  0.00    +0.085 A 
ATOM     21  C   UNL     1      -2.818  -0.719  25.753  0.00  0.00    +0.012 A 
ATOM     22  C   UNL     1      -3.419  -1.283  25.796  0.00  0.00    +0.008 A 
ATOM     23  C   UNL     1      -3.587  -1.537  25.029  0.00  0.00    +0.036 A 
ATOM     24  S   UNL     1      -3.089  -1.130  24.511  0.00  0.00    -0.082 S 
ENDBRANCH  18  20
ENDBRANCH  16  17
BRANCH   5   4
ATOM      4  C   UNL     1      -2.687   3.332  25.630  0.00  0.00    +0.117 C 
BRANCH   4   3
ATOM      3  C   UNL     1      -2.403   3.913  25.117  0.00  0.00    +0.152 C 
BRANCH   3   2
ATOM      1  C   UNL     1      -1.430   4.954  25.007  0.00  0.00    +0.174 C 
ATOM      2  O   UNL     1      -2.047   4.593  25.420  0.00  0.00    -0.351 OA
ENDBRANCH   3   2
ENDBRANCH   4   3
ENDBRANCH   5   4
TORSDOF 5
ENDMDL
MODEL 2
REMARK VINA RESULT:     -12.0      1.545      3.214
REMARK  Name = 
REMARK  5 active torsions:
REMARK  status: ('A' for Active; 'I' for Inactive)
REMARK    1  A    between atoms: O_2  and  C_3
REMARK    2  A    between atoms: C_3  and  C_4
REMARK    3  A    between atoms: C_4  and  C_5
REMARK    4  A    between atoms: C_16  and  N_17
REMARK    5  A    between atoms: C_18  and  C_20
REMARK                            x       y       z     vdW  Elec       q    Type
REMARK                         _______ _______ _______ _____ _____    ______ ____
ROOT
ATOM      5  C   UNL     1      -1.841   0.772  24.980  0.00  0.00    +0.228 C 
ATOM      6  O   UNL     1      -2.437   1.226  24.634  0.00  0.00    -0.275 OA
ATOM      7  N   UNL     1      -2.018   0.032  25.300  0.00  0.00    -0.279 N 
ATOM      8  C   UNL     1      -1.897  -0.702  25.680  0.00  0.00    +0.095 C 
ATOM      9  C   UNL     1      -2.819  -1.056  25.654  0.00  0.00    +0.043 C 
ATOM     10  C   UNL     1      -3.511  -1.483  25.711  0.00  0.00    +0.011 C 
ATOM     11  C   UNL     1      -3.303  -0.862  25.456  0.00  0.00    +0.058 C 
ATOM     12  C   UNL     1      -2.407  -0.534  25.490  0.00  0.00    +0.099 C 
ATOM     13  C   UNL     1      -3.624  -0.116  25.027  0.00  0.00    +0.041 A 
ATOM     14  C   UNL     1      -4.324   0.198  24.725  0.00  0.00    +0.014 A 
ATOM     15  C   UNL     1      -4.322   0.941  24.367  0.00  0.00    +0.023 A 
ATOM     16  C   UNL     1      -3.620   1.370  24.310  0.00  0.00    +0.130 A 
ATOM     25  C   UNL     1      -2.919   1.056  24.612  0.00  0.00    +0.276 A 
ATOM     26  O   UNL     1      -2.376   1.652  24.441  0.00  0.00    -0.266 OA
ATOM     27  N   UNL     1      -2.921   0.313  24.971  0.00  0.00    -0.298 N 
ATOM     28  C   UNL     1      -3.145  -0.272  25.205  0.00  0.00    +0.110 C 
ENDROOT
BRANCH  16  17
ATOM     17  N   UNL     1      -3.618   2.113  23.952  0.00  0.00    -0.170 NA
ATOM     18  C   UNL     1      -4.200   2.665  24.145  0.00  0.00    +0.275 C 
ATOM     19  O   UNL     1      -4.198   3.409  23.786  0.00  0.00    -0.267 OA
BRANCH  18  20
ATOM     20  C   UNL     1      -4.783   2.475  24.697  0.00  0.00    +0.085 A 
ATOM     21  C   UNL     1      -5.467   2.038  24.548  0.00  0.00    +0.012 A 
ATOM     22  C   UNL     1      -5.891   1.982  25.253  0.00  0.00    +0.008 A 
ATOM     23  C   UNL     1      -5.469   2.383  25.838  0.00  0.00    +0.036 A 
ATOM     24  S   UNL     1      -4.784   2.688  25.493  0.00  0.00    -0.082 S 
ENDBRANCH  18  20
ENDBRANCH  16  17
BRANCH   5   4
ATOM      4  C   UNL     1      -1.068   1.058  25.008  0.00  0.00    +0.117 C 
BRANCH   4   3
ATOM      3  C   UNL     1      -0.842   1.579  25.607  0.00  0.00    +0.152 C 
BRANCH   3   2
ATOM      1  C   UNL     1       0.146   2.419  26.208  0.00  0.00    +0.174 C 
ATOM      2  O   UNL     1      -0.069   1.869  25.632  0.00  0.00    -0.351 OA
ENDBRANCH   3   2
ENDBRANCH   4   3
ENDBRANCH   5   4
TORSDOF 5
ENDMDL
MODEL 3
REMARK VINA RESULT:     -11.9      1.551      3.279
REMARK  Name = 
REMARK  5 active torsions:
REMARK  status: ('A' for Active; 'I' for Inactive)
REMARK    1  A    between atoms: O_2  and  C_3
REMARK    2  A    between atoms: C_3  and  C_4
REMARK    3  A    between atoms: C_4  and  C_5
REMARK    4  A    between atoms: C_16  and  N_17
REMARK    5  A    between atoms: C_18  and  C_20
REMARK                            x       y       z     vdW  Elec       q    Type
REMARK                         _______ _______ _______ _____ _____    ______ ____
ROOT
ATOM      5  C   UNL     1      -4.283   0.891  24.563  0.00  0.00    +0.228 C 
ATOM      6  O   UNL     1      -3.642   1.340  24.300  0.00  0.00    -0.275 OA
ATOM      7  N   UNL     1      -4.921   1.260  24.935  0.00  0.00    -0.279 N 
ATOM      8  C   UNL     1      -5.658   1.341  25.319  0.00  0.00    +0.095 C 
ATOM      9  C   UNL     1      -5.666   2.320  25.457  0.00  0.00    +0.043 C 
ATOM     10  C   UNL     1      -5.824   3.097  25.643  0.00  0.00    +0.011 C 
ATOM     11  C   UNL     1      -5.311   2.731  25.333  0.00  0.00    +0.058 C 
ATOM     12  C   UNL     1      -5.318   1.785  25.208  0.00  0.00    +0.099 C 
ATOM     13  C   UNL     1      -4.491   2.837  24.933  0.00  0.00    +0.041 A 
ATOM     14  C   UNL     1      -3.945   3.424  24.737  0.00  0.00    +0.014 A 
ATOM     15  C   UNL     1      -3.242   3.222  24.355  0.00  0.00    +0.023 A 
ATOM     16  C   UNL     1      -3.086   2.434  24.168  0.00  0.00    +0.130 A 
ATOM     25  C   UNL     1      -3.632   1.847  24.364  0.00  0.00    +0.276 A 
ATOM     26  O   UNL     1      -3.261   1.166  24.083  0.00  0.00    -0.266 OA
ATOM     27  N   UNL     1      -4.334   2.049  24.746  0.00  0.00    -0.298 N 
ATOM     28  C   UNL     1      -4.809   2.421  25.037  0.00  0.00    +0.110 C 
ENDROOT
BRANCH  16  17
ATOM     17  N   UNL     1      -2.383   2.233  23.785  0.00  0.00    -0.170 NA
ATOM     18  C   UNL     1      -1.665   2.536  24.055  0.00  0.00    +0.275 C 
ATOM     19  O   UNL     1      -0.962   2.334  23.671  0.00  0.00    -0.267 OA
BRANCH  18  20
ATOM     20  C   UNL     1      -1.649   3.040  24.707  0.00  0.00    +0.085 A 
ATOM     21  C   UNL     1      -1.573   2.810  25.496  0.00  0.00    +0.012 A 
ATOM     22  C   UNL     1      -1.583   3.492  25.962  0.00  0.00    +0.008 A 
ATOM     23  C   UNL     1      -1.666   4.142  25.460  0.00  0.00    +0.036 A 
ATOM     24  S   UNL     1      -1.707   3.863  24.685  0.00  0.00    -0.082 S 
ENDBRANCH  18  20
ENDBRANCH  16  17
BRANCH   5   4
ATOM      4  C   UNL     1      -4.287   0.073  24.453  0.00  0.00    +0.117 C 
BRANCH   4   3
ATOM      3  C   UNL     1      -3.922  -0.419  25.006  0.00  0.00    +0.152 C 
BRANCH   3   2
ATOM      1  C   UNL     1      -3.540  -1.726  25.437  0.00  0.00    +0.174 C 
ATOM      2  O   UNL     1      -3.920  -1.237  24.893  0.00  0.00    -0.351 OA
ENDBRANCH   3   2
ENDBRANCH   4   3
ENDBRANCH   5   4
TORSDOF 5
ENDMDL
MODEL 4
REMARK VINA RESULT:     -11.3      1.983      3.354
REMARK  Name = 
REMARK  5 active torsions:
REMARK  status: ('A' for Active; 'I' for Inactive)
REMARK    1  A    between atoms: O_2  and  C_3
REMARK    2  A    between atoms: C_3  and  C_4
REMARK    3  A    between atoms: C_4  and  C_5
REMARK    4  A    between atoms: C_16  and  N_17
REMARK    5  A    between atoms: C_18  and  C_20
REMARK                            x       y       z     vdW  Elec       q    Type
REMARK                         _______ _______ _______ _____ _____    ______ ____
ROOT
ATOM      5  C   UNL     1      -3.893   0.262  24.562  0.00  0.00    +0.228 C 
ATOM      6  O   UNL     1      -3.137   0.354  24.882  0.00  0.00    -0.275 OA
ATOM      7  N   UNL     1      -4.156  -0.487  24.335  0.00  0.00    -0.279 N 
ATOM      8  C   UNL     1      -4.668  -1.075  24.034  0.00  0.00    +0.095 C 
ATOM      9  C   UNL     1      -4.089  -1.868  24.140  0.00  0.00    +0.043 C 
ATOM     10  C   UNL     1      -3.744  -2.606  24.160  0.00  0.00    +0.011 C 
ATOM     11  C   UNL     1      -3.573  -1.948  24.335  0.00  0.00    +0.058 C 
ATOM     12  C   UNL     1      -4.144  -1.191  24.226  0.00  0.00    +0.099 C 
ATOM     13  C   UNL     1      -2.886  -1.453  24.692  0.00  0.00    +0.041 A 
ATOM     14  C   UNL     1      -2.121  -1.539  24.987  0.00  0.00    +0.014 A 
ATOM     15  C   UNL     1      -1.708  -0.879  25.260  0.00  0.00    +0.023 A 
ATOM     16  C   UNL     1      -2.060  -0.133  25.238  0.00  0.00    +0.130 A 
ATOM     25  C   UNL     1      -2.826  -0.047  24.943  0.00  0.00    +0.276 A 
ATOM     26  O   UNL     1      -2.951   0.764  25.023  0.00  0.00    -0.266 OA
ATOM     27  N   UNL     1      -3.239  -0.707  24.670  0.00  0.00    -0.298 N 
ATOM     28  C   UNL     1      -3.377  -1.343  24.512  0.00  0.00    +0.110 C 
ENDROOT
BRANCH  16  17
ATOM     17  N   UNL     1      -1.647   0.526  25.511  0.00  0.00    -0.170 NA
ATOM     18  C   UNL     1      -0.879   0.670  25.248  0.00  0.00    +0.275 C 
ATOM     19  O   UNL     1      -0.465   1.331  25.522  0.00  0.00    -0.267 OA
BRANCH  18  20
ATOM     20  C   UNL     1      -0.523   0.154  24.711  0.00  0.00    +0.085 A 
ATOM     21  C   UNL     1      -0.202  -0.585  24.889  0.00  0.00    +0.012 A 
ATOM     22  C   UNL     1       0.093  -0.908  24.189  0.00  0.00    +0.008 A 
ATOM     23  C   UNL     1      -0.046  -0.370  23.580  0.00  0.00    +0.036 A 
ATOM     24  S   UNL     1      -0.427   0.287  23.903  0.00  0.00    -0.082 S 
ENDBRANCH  18  20
ENDBRANCH  16  17
BRANCH   5   4
ATOM      4  C   UNL     1      -4.384   0.917  24.469  0.00  0.00    +0.117 C 
BRANCH   4   3
ATOM      3  C   UNL     1      -4.873   1.158  25.090  0.00  0.00    +0.152 C 
BRANCH   3   2
ATOM      1  C   UNL     1      -5.833   2.073  25.621  0.00  0.00    +0.174 C 
ATOM      2  O   UNL     1      -5.400   1.784  24.981  0.00  0.00    -0.351 OA
ENDBRANCH   3   2
ENDBRANCH   4   3
ENDBRANCH   5   4
TORSDOF 5
ENDMDL
