MODEL 1
REMARK VINA RESULT:     -16.4      0.000      0.000
REMARK  Name = 
REMARK  3 active torsions:
REMARK  status: ('A' for Active; 'I' for Inactive)
REMARK    1  A    between atoms: O_2  and  C_3
REMARK    2  A    between atoms: C_6  and  C_9
REMARK    3  A    between atoms: C_18  and  C_25
REMARK                            x       y       z     vdW  Elec       q    Type
REMARK                         _______ _______ _______ _____ _____    ______ ____
ROOT
ATOM      9  C   UNL     1      -3.831   3.247  24.520  0.00  0.00    +0.249 C 
ATOM     10  O   UNL     1      -3.990   4.107  24.541  0.00  0.00    -0.270 OA
ATOM     11  N   UNL     1      -4.473   2.668  24.748  0.00  0.00    -0.276 N 
ATOM     12  C   UNL     1      -5.258   2.541  25.006  0.00  0.00    +0.096 C 
ATOM     13  C   UNL     1      -5.262   1.554  25.042  0.00  0.00    +0.043 C 
ATOM     14  C   UNL     1      -5.426   0.760  25.124  0.00  0.00    +0.011 C 
ATOM     15  C   UNL     1      -4.882   1.160  24.934  0.00  0.00    +0.058 C 
ATOM     16  C   UNL     1      -4.894   2.115  24.904  0.00  0.00    +0.099 C 
ATOM     17  C   UNL     1      -4.008   1.104  24.654  0.00  0.00    +0.041 A 
ATOM     18  C   UNL     1      -3.424   0.546  24.486  0.00  0.00    +0.012 A 
ATOM     19  C   UNL     1      -2.678   0.793  24.237  0.00  0.00    +0.006 A 
ATOM     20  C   UNL     1      -2.515   1.597  24.155  0.00  0.00    +0.061 A 
ATOM     21  C   UNL     1      -3.099   2.155  24.324  0.00  0.00    +0.261 A 
ATOM     22  O   UNL     1      -2.940   3.191  24.235  0.00  0.00    -0.267 OA
ATOM     23  N   UNL     1      -3.845   1.908  24.573  0.00  0.00    -0.299 N 
ATOM     24  C   UNL     1      -4.349   1.504  24.750  0.00  0.00    +0.110 C 
ENDROOT
BRANCH   9   6
ATOM      3  C   UNL     1      -1.764   1.734  24.127  0.00  0.00    +0.139 A 
ATOM      4  C   UNL     1      -2.299   1.612  23.530  0.00  0.00    +0.037 A 
ATOM      5  C   UNL     1      -3.049   2.156  23.665  0.00  0.00    +0.008 A 
ATOM      6  C   UNL     1      -3.112   2.667  24.310  0.00  0.00    +0.054 A 
ATOM      7  C   UNL     1      -2.503   2.712  24.863  0.00  0.00    +0.008 A 
ATOM      8  C   UNL     1      -1.828   2.245  24.771  0.00  0.00    +0.037 A 
BRANCH   3   2
ATOM      1  C   UNL     1      -0.342   1.616  24.050  0.00  0.00    +0.252 C 
ATOM      2  O   UNL     1      -1.090   1.267  24.036  0.00  0.00    -0.471 OA
ENDBRANCH   3   2
ENDBRANCH   9   6
BRANCH  18  25
ATOM     25  C   UNL     1      -3.587  -0.259  24.568  0.00  0.00    +0.001 A 
ATOM     26  C   UNL     1      -3.440  -0.639  25.285  0.00  0.00    +0.000 A 
ATOM     27  C   UNL     1      -3.603  -1.444  25.366  0.00  0.00    +0.000 A 
ATOM     28  C   UNL     1      -3.913  -1.869  24.731  0.00  0.00    +0.000 A 
ATOM     29  C   UNL     1      -4.060  -1.489  24.014  0.00  0.00    +0.000 A 
ATOM     30  C   UNL     1      -3.897  -0.684  23.932  0.00  0.00    +0.000 A 
ENDBRANCH  18  25
TORSDOF 3
ENDMDL
MODEL 2
REMARK VINA RESULT:     -16.0      0.961      2.551
REMARK  Name = 
REMARK  3 active torsions:
REMARK  status: ('A' for Active; 'I' for Inactive)
REMARK    1  A    between atoms: O_2  and  C_3
REMARK    2  A    between atoms: C_6  and  C_9
REMARK    3  A    between atoms: C_18  and  C_25
REMARK                            x       y       z     vdW  Elec       q    Type
REMARK                         _______ _______ _______ _____ _____    ______ ____
ROOT
ATOM      9  C   UNL     1      -3.547   3.310  24.315  0.00  0.00    +0.249 C 
ATOM     10  O   UNL     1      -3.342   4.148  24.174  0.00  0.00    -0.270 OA
ATOM     11  N   UNL     1      -2.968   2.664  24.097  0.00  0.00    -0.276 N 
ATOM     12  C   UNL     1      -2.224   2.453  23.781  0.00  0.00    +0.096 C 
ATOM     13  C   UNL     1      -2.282   1.470  23.865  0.00  0.00    +0.043 C 
ATOM     14  C   UNL     1      -2.174   0.663  23.865  0.00  0.00    +0.011 C 
ATOM     15  C   UNL     1      -2.670   1.120  24.057  0.00  0.00    +0.058 C 
ATOM     16  C   UNL     1      -2.600   2.068  23.970  0.00  0.00    +0.099 C 
ATOM     17  C   UNL     1      -3.511   1.158  24.426  0.00  0.00    +0.041 A 
ATOM     18  C   UNL     1      -4.105   0.665  24.718  0.00  0.00    +0.012 A 
ATOM     19  C   UNL     1      -4.805   0.991  25.008  0.00  0.00    +0.006 A 
ATOM     20  C   UNL     1      -4.911   1.810  25.007  0.00  0.00    +0.061 A 
ATOM     21  C   UNL     1      -4.317   2.302  24.715  0.00  0.00    +0.261 A 
ATOM     22  O   UNL     1      -4.405   3.349  24.692  0.00  0.00    -0.267 OA
ATOM     23  N   UNL     1      -3.617   1.976  24.425  0.00  0.00    -0.299 N 
ATOM     24  C   UNL     1      -3.160   1.520  24.250  0.00  0.00    +0.110 C 
ENDROOT
BRANCH   9   6
ATOM      3  C   UNL     1      -5.483   2.030  25.471  0.00  0.00    +0.139 A 
ATOM      4  C   UNL     1      -5.471   1.838  24.683  0.00  0.00    +0.037 A 
ATOM      5  C   UNL     1      -4.774   2.296  24.258  0.00  0.00    +0.008 A 
ATOM      6  C   UNL     1      -4.272   2.809  24.665  0.00  0.00    +0.054 A 
ATOM      7  C   UNL     1      -4.375   2.933  25.474  0.00  0.00    +0.008 A 
ATOM      8  C   UNL     1      -4.981   2.543  25.877  0.00  0.00    +0.037 A 
BRANCH   3   2
ATOM      1  C   UNL     1      -6.552   2.052  26.418  0.00  0.00    +0.252 C 
ATOM      2  O   UNL     1      -6.088   1.641  25.873  0.00  0.00    -0.471 OA
ENDBRANCH   3   2
ENDBRANCH   9   6
BRANCH  18  25
ATOM     25  C   UNL     1      -3.999  -0.153  24.720  0.00  0.00    +0.001 A 
ATOM     26  C   UNL     1      -4.236  -0.601  24.069  0.00  0.00    +0.000 A 
ATOM     27  C   UNL     1      -4.130  -1.419  24.070  0.00  0.00    +0.000 A 
ATOM     28  C   UNL     1      -3.787  -1.790  24.723  0.00  0.00    +0.000 A 
ATOM     29  C   UNL     1      -3.550  -1.342  25.374  0.00  0.00    +0.000 A 
ATOM     30  C   UNL     1      -3.656  -0.523  25.372  0.00  0.00    +0.000 A 
ENDBRANCH  18  25
TORSDOF 3
ENDMDL
MODEL 3
REMARK VINA RESULT:     -15.1      1.248      2.958
REMARK  Name = 
REMARK  3 active torsions:
REMARK  status: ('A' for Active; 'I' for Inactive)
REMARK    1  A    between atoms: O_2  and  C_3
REMARK    2  A    between atoms: C_6  and  C_9
REMARK    3  A    between atoms: C_18  and  C_25
REMARK                            x       y       z     vdW  Elec       q    Type
REMARK                         _______ _______ _______ _____ _____    ______ ____
ROOT
ATOM      9  C   UNL     1      -5.352   1.962  24.951  0.00  0.00    +0.249 C 
ATOM     10  O   UNL     1      -6.227   1.951  24.979  0.00  0.00    -0.270 OA
ATOM     11  N   UNL     1      -4.906   2.699  25.190  0.00  0.00    -0.276 N 
ATOM     12  C   UNL     1      -4.931   3.488  25.464  0.00  0.00    +0.096 C 
ATOM     13  C   UNL     1      -3.962   3.682  25.496  0.00  0.00    +0.043 C 
ATOM     14  C   UNL     1      -3.215   3.995  25.577  0.00  0.00    +0.011 C 
ATOM     15  C   UNL     1      -3.504   3.388  25.377  0.00  0.00    +0.058 C 
ATOM     16  C   UNL     1      -4.443   3.215  25.352  0.00  0.00    +0.099 C 
ATOM     17  C   UNL     1      -3.282   2.548  25.077  0.00  0.00    +0.041 A 
ATOM     18  C   UNL     1      -2.623   2.087  24.893  0.00  0.00    +0.012 A 
ATOM     19  C   UNL     1      -2.724   1.312  24.628  0.00  0.00    +0.006 A 
ATOM     20  C   UNL     1      -3.483   0.998  24.547  0.00  0.00    +0.061 A 
ATOM     21  C   UNL     1      -4.141   1.459  24.732  0.00  0.00    +0.261 A 
ATOM     22  O   UNL     1      -5.127   1.105  24.645  0.00  0.00    -0.267 OA
ATOM     23  N   UNL     1      -4.041   2.234  24.996  0.00  0.00    -0.299 N 
ATOM     24  C   UNL     1      -3.740   2.802  25.182  0.00  0.00    +0.110 C 
ENDROOT
BRANCH   9   6
ATOM      3  C   UNL     1      -3.476   0.232  24.499  0.00  0.00    +0.139 A 
ATOM      4  C   UNL     1      -3.449   0.807  23.928  0.00  0.00    +0.037 A 
ATOM      5  C   UNL     1      -4.124   1.437  24.085  0.00  0.00    +0.008 A 
ATOM      6  C   UNL     1      -4.646   1.374  24.721  0.00  0.00    +0.054 A 
ATOM      7  C   UNL     1      -4.583   0.742  25.246  0.00  0.00    +0.008 A 
ATOM      8  C   UNL     1      -3.998   0.170  25.135  0.00  0.00    +0.037 A 
BRANCH   3   2
ATOM      1  C   UNL     1      -3.097  -1.137  24.347  0.00  0.00    +0.252 C 
ATOM      2  O   UNL     1      -2.891  -0.339  24.388  0.00  0.00    -0.471 OA
ENDBRANCH   3   2
ENDBRANCH   9   6
BRANCH  18  25
ATOM     25  C   UNL     1      -1.865   2.401  24.974  0.00  0.00    +0.001 A 
ATOM     26  C   UNL     1      -1.508   2.788  24.339  0.00  0.00    +0.000 A 
ATOM     27  C   UNL     1      -0.750   3.101  24.420  0.00  0.00    +0.000 A 
ATOM     28  C   UNL     1      -0.347   3.028  25.136  0.00  0.00    +0.000 A 
ATOM     29  C   UNL     1      -0.703   2.641  25.771  0.00  0.00    +0.000 A 
ATOM     30  C   UNL     1      -1.462   2.327  25.690  0.00  0.00    +0.000 A 
ENDBRANCH  18  25
TORSDOF 3
ENDMDL
MODEL 4
REMARK VINA RESULT:     -15.1      1.233      2.069
REMARK  Name = 
REMARK  3 active torsions:
REMARK  status: ('A' for Active; 'I' for Inactive)
REMARK    1  A    between atoms: O_2  and  C_3
REMARK    2  A    between atoms: C_6  and  C_9
REMARK    3  A    between atoms: C_18  and  C_25
REMARK                            x       y       z     vdW  Elec       q    Type
REMARK                         _______ _______ _______ _____ _____    ______ ____
ROOT
ATOM      9  C   UNL     1      -5.080   3.279  25.322  0.00  0.00    +0.249 C 
ATOM     10  O   UNL     1      -5.831   3.699  25.480  0.00  0.00    -0.270 OA
ATOM     11  N   UNL     1      -5.076   2.391  25.224  0.00  0.00    -0.276 N 
ATOM     12  C   UNL     1      -5.506   1.675  25.210  0.00  0.00    +0.096 C 
ATOM     13  C   UNL     1      -4.769   1.042  25.030  0.00  0.00    +0.043 C 
ATOM     14  C   UNL     1      -4.284   0.403  24.888  0.00  0.00    +0.011 C 
ATOM     15  C   UNL     1      -4.219   1.099  24.955  0.00  0.00    +0.058 C 
ATOM     16  C   UNL     1      -4.943   1.698  25.128  0.00  0.00    +0.099 C 
ATOM     17  C   UNL     1      -3.591   1.769  24.935  0.00  0.00    +0.041 A 
ATOM     18  C   UNL     1      -2.782   1.886  24.827  0.00  0.00    +0.012 A 
ATOM     19  C   UNL     1      -2.467   2.647  24.863  0.00  0.00    +0.006 A 
ATOM     20  C   UNL     1      -2.961   3.292  25.008  0.00  0.00    +0.061 A 
ATOM     21  C   UNL     1      -3.770   3.176  25.115  0.00  0.00    +0.261 A 
ATOM     22  O   UNL     1      -4.439   3.965  25.302  0.00  0.00    -0.267 OA
ATOM     23  N   UNL     1      -4.085   2.414  25.079  0.00  0.00    -0.299 N 
ATOM     24  C   UNL     1      -4.120   1.749  25.011  0.00  0.00    +0.110 C 
ENDROOT
BRANCH   9   6
ATOM      3  C   UNL     1      -2.567   3.912  25.228  0.00  0.00    +0.139 A 
ATOM      4  C   UNL     1      -2.807   3.667  24.492  0.00  0.00    +0.037 A 
ATOM      5  C   UNL     1      -3.715   3.437  24.518  0.00  0.00    +0.008 A 
ATOM      6  C   UNL     1      -4.162   3.491  25.208  0.00  0.00    +0.054 A 
ATOM      7  C   UNL     1      -3.814   3.754  25.908  0.00  0.00    +0.008 A 
ATOM      8  C   UNL     1      -3.016   3.965  25.917  0.00  0.00    +0.037 A 
BRANCH   3   2
ATOM      1  C   UNL     1      -1.554   4.918  25.271  0.00  0.00    +0.252 C 
ATOM      2  O   UNL     1      -1.770   4.122  25.236  0.00  0.00    -0.471 OA
ENDBRANCH   3   2
ENDBRANCH   9   6
BRANCH  18  25
ATOM     25  C   UNL     1      -2.288   1.241  24.683  0.00  0.00    +0.001 A 
ATOM     26  C   UNL     1      -2.133   1.006  23.908  0.00  0.00    +0.000 A 
ATOM     27  C   UNL     1      -1.639   0.361  23.763  0.00  0.00    +0.000 A 
ATOM     28  C   UNL     1      -1.300  -0.049  24.394  0.00  0.00    +0.000 A 
ATOM     29  C   UNL     1      -1.455   0.187  25.169  0.00  0.00    +0.000 A 
ATOM     30  C   UNL     1      -1.949   0.832  25.313  0.00  0.00    +0.000 A 
ENDBRANCH  18  25
TORSDOF 3
ENDMDL
MODEL 5
REMARK VINA RESULT:     -14.9      1.977      4.026
REMARK  Name = 
REMARK  3 active torsions:
REMARK  status: ('A' for Active; 'I' for Inactive)
REMARK    1  A    between atoms: O_2  and  C_3
REMARK    2  A    between atoms: C_6  and  C_9
REMARK    3  A    between atoms: C_18  and  C_25
REMARK                            x       y       z     vdW  Elec       q    Type
REMARK                         _______ _______ _______ _____ _____    ______ ____
ROOT
ATOM      9  C   UNL     1      -3.434  -1.953  24.463  0.00  0.00    +0.249 C 
ATOM     10  O   UNL     1      -3.849  -2.719  24.379  0.00  0.00    -0.270 OA
ATOM     11  N   UNL     1      -2.545  -1.934  24.557  0.00  0.00    -0.276 N 
ATOM     12  C   UNL     1      -1.826  -2.356  24.609  0.00  0.00    +0.096 C 
ATOM     13  C   UNL     1      -1.198  -1.601  24.716  0.00  0.00    +0.043 C 
ATOM     14  C   UNL     1      -0.562  -1.100  24.809  0.00  0.00    +0.011 C 
ATOM     15  C   UNL     1      -1.258  -1.047  24.739  0.00  0.00    +0.058 C 
ATOM     16  C   UNL     1      -1.852  -1.788  24.637  0.00  0.00    +0.099 C 
ATOM     17  C   UNL     1      -1.933  -0.425  24.702  0.00  0.00    +0.041 A 
ATOM     18  C   UNL     1      -2.055   0.391  24.733  0.00  0.00    +0.012 A 
ATOM     19  C   UNL     1      -2.819   0.696  24.669  0.00  0.00    +0.006 A 
ATOM     20  C   UNL     1      -3.461   0.186  24.575  0.00  0.00    +0.061 A 
ATOM     21  C   UNL     1      -3.339  -0.629  24.544  0.00  0.00    +0.261 A 
ATOM     22  O   UNL     1      -4.123  -1.319  24.425  0.00  0.00    -0.267 OA
ATOM     23  N   UNL     1      -2.575  -0.935  24.607  0.00  0.00    -0.299 N 
ATOM     24  C   UNL     1      -1.910  -0.958  24.676  0.00  0.00    +0.110 C 
ENDROOT
BRANCH   9   6
ATOM      3  C   UNL     1      -4.122   0.531  24.735  0.00  0.00    +0.139 A 
ATOM      4  C   UNL     1      -3.739   0.438  24.026  0.00  0.00    +0.037 A 
ATOM      5  C   UNL     1      -3.487  -0.458  23.921  0.00  0.00    +0.008 A 
ATOM      6  C   UNL     1      -3.651  -1.031  24.490  0.00  0.00    +0.054 A 
ATOM      7  C   UNL     1      -4.050  -0.825  25.181  0.00  0.00    +0.008 A 
ATOM      8  C   UNL     1      -4.286  -0.043  25.304  0.00  0.00    +0.037 A 
BRANCH   3   2
ATOM      1  C   UNL     1      -5.157   1.491  24.954  0.00  0.00    +0.252 C 
ATOM      2  O   UNL     1      -4.357   1.312  24.857  0.00  0.00    -0.471 OA
ENDBRANCH   3   2
ENDBRANCH   9   6
BRANCH  18  25
ATOM     25  C   UNL     1      -1.414   0.901  24.827  0.00  0.00    +0.001 A 
ATOM     26  C   UNL     1      -1.166   1.117  25.584  0.00  0.00    +0.000 A 
ATOM     27  C   UNL     1      -0.525   1.627  25.678  0.00  0.00    +0.000 A 
ATOM     28  C   UNL     1      -0.130   1.921  25.016  0.00  0.00    +0.000 A 
ATOM     29  C   UNL     1      -0.377   1.704  24.259  0.00  0.00    +0.000 A 
ATOM     30  C   UNL     1      -1.019   1.194  24.165  0.00  0.00    +0.000 A 
ENDBRANCH  18  25
TORSDOF 3
ENDMDL
MODEL 6
REMARK VINA RESULT:     -14.8      1.736      3.451
REMARK  Name = 
REMARK  3 active torsions:
REMARK  status: ('A' for Active; 'I' for Inactive)
REMARK    1  A    between atoms: O_2  and  C_3
REMARK    2  A    between atoms: C_6  and  C_9
REMARK    3  A    between atoms: C_18  and  C_25
REMARK                            x       y       z     vdW  Elec       q    Type
REMARK                         _______ _______ _______ _____ _____    ______ ____
ROOT
ATOM      9  C   UNL     1      -1.768  -2.012  24.727  0.00  0.00    +0.249 C 
ATOM     10  O   UNL     1      -1.349  -2.779  24.689  0.00  0.00    -0.270 OA
ATOM     11  N   UNL     1      -2.633  -1.963  24.507  0.00  0.00    -0.276 N 
ATOM     12  C   UNL     1      -3.324  -2.353  24.247  0.00  0.00    +0.096 C 
ATOM     13  C   UNL     1      -3.950  -1.589  24.229  0.00  0.00    +0.043 C 
ATOM     14  C   UNL     1      -4.578  -1.075  24.163  0.00  0.00    +0.011 C 
ATOM     15  C   UNL     1      -3.902  -1.046  24.348  0.00  0.00    +0.058 C 
ATOM     16  C   UNL     1      -3.309  -1.795  24.360  0.00  0.00    +0.099 C 
ATOM     17  C   UNL     1      -3.257  -0.457  24.634  0.00  0.00    +0.041 A 
ATOM     18  C   UNL     1      -3.154   0.341  24.817  0.00  0.00    +0.012 A 
ATOM     19  C   UNL     1      -2.417   0.615  25.066  0.00  0.00    +0.006 A 
ATOM     20  C   UNL     1      -1.783   0.091  25.133  0.00  0.00    +0.061 A 
ATOM     21  C   UNL     1      -1.886  -0.707  24.950  0.00  0.00    +0.261 A 
ATOM     22  O   UNL     1      -1.109  -1.412  25.019  0.00  0.00    -0.267 OA
ATOM     23  N   UNL     1      -2.623  -0.980  24.701  0.00  0.00    -0.299 N 
ATOM     24  C   UNL     1      -3.270  -0.981  24.529  0.00  0.00    +0.110 C 
ENDROOT
BRANCH   9   6
ATOM      3  C   UNL     1      -1.113   0.458  25.164  0.00  0.00    +0.139 A 
ATOM      4  C   UNL     1      -1.604   0.205  25.757  0.00  0.00    +0.037 A 
ATOM      5  C   UNL     1      -1.845  -0.687  25.606  0.00  0.00    +0.008 A 
ATOM      6  C   UNL     1      -1.574  -1.112  24.954  0.00  0.00    +0.054 A 
ATOM      7  C   UNL     1      -1.073  -0.754  24.406  0.00  0.00    +0.008 A 
ATOM      8  C   UNL     1      -0.842   0.032  24.511  0.00  0.00    +0.037 A 
BRANCH   3   2
ATOM      1  C   UNL     1      -0.087   1.452  25.196  0.00  0.00    +0.252 C 
ATOM      2  O   UNL     1      -0.882   1.242  25.269  0.00  0.00    -0.471 OA
ENDBRANCH   3   2
ENDBRANCH   9   6
BRANCH  18  25
ATOM     25  C   UNL     1      -3.788   0.864  24.751  0.00  0.00    +0.001 A 
ATOM     26  C   UNL     1      -3.864   1.337  24.079  0.00  0.00    +0.000 A 
ATOM     27  C   UNL     1      -4.498   1.861  24.012  0.00  0.00    +0.000 A 
ATOM     28  C   UNL     1      -5.057   1.912  24.617  0.00  0.00    +0.000 A 
ATOM     29  C   UNL     1      -4.981   1.439  25.289  0.00  0.00    +0.000 A 
ATOM     30  C   UNL     1      -4.347   0.915  25.356  0.00  0.00    +0.000 A 
ENDBRANCH  18  25
TORSDOF 3
ENDMDL
