REMARK  Name = 
REMARK  5 active torsions:
REMARK  status: ('A' for Active; 'I' for Inactive)
REMARK    1  A    between atoms: O_2  and  C_3
REMARK    2  A    between atoms: C_8  and  C_9
REMARK    3  A    between atoms: C_9  and  C_10
REMARK    4  A    between atoms: N_12  and  C_13
REMARK    5  A    between atoms: C_25  and  C_27
REMARK                            x       y       z     vdW  Elec       q    Type
REMARK                         _______ _______ _______ _____ _____    ______ ____
ROOT
ATOM     13  C   UNL     1       4.635   1.645   0.000  0.00  0.00    +0.117 C 
ATOM     14  C   UNL     1       4.311   2.404   0.000  0.00  0.00    +0.053 C 
ATOM     15  C   UNL     1       3.489   2.330   0.000  0.00  0.00    +0.155 C 
ATOM     16  N   UNL     1       3.305   1.525   0.000  0.00  0.00    -0.270 N 
ATOM     17  C   UNL     1       4.014   1.102   0.000  0.00  0.00    +0.115 C 
ATOM     18  C   UNL     1       2.562   1.167   0.000  0.00  0.00    +0.246 C 
ATOM     19  O   UNL     1       2.562   0.342   0.000  0.00  0.00    -0.273 OA
ATOM     20  C   UNL     1       1.819   1.525   0.000  0.00  0.00    +0.172 C 
ATOM     21  C   UNL     1       1.635   2.330   0.000  0.00  0.00    +0.124 C 
ATOM     22  C   UNL     1       0.814   2.404   0.000  0.00  0.00    +0.045 C 
ATOM     23  C   UNL     1       0.489   1.645   0.000  0.00  0.00    +0.096 C 
ATOM     24  N   UNL     1       1.111   1.102   0.000  0.00  0.00    -0.268 N 
ATOM     25  C   UNL     1       1.037   0.281   0.000  0.00  0.00    +0.255 C 
ATOM     26  O   UNL     1       1.711  -0.194   0.000  0.00  0.00    -0.269 OA
ATOM     32  N   UNL     1       2.150   2.975   0.000  0.00  0.00    -0.204 NA
ATOM     33  C   UNL     1       2.975   2.975   0.000  0.00  0.00    +0.260 C 
ATOM     34  O   UNL     1       3.333   3.718   0.000  0.00  0.00    -0.272 OA
ENDROOT
BRANCH  25  27
ATOM     27  C   UNL     1       0.288  -0.066   0.000  0.00  0.00    +0.083 A 
ATOM     28  C   UNL     1       0.129  -0.876   0.000  0.00  0.00    +0.012 A 
ATOM     29  C   UNL     1      -0.691  -0.974   0.000  0.00  0.00    +0.008 A 
ATOM     30  C   UNL     1      -1.037  -0.226   0.000  0.00  0.00    +0.036 A 
ATOM     31  S   UNL     1      -0.432   0.335   0.000  0.00  0.00    -0.082 S 
ENDBRANCH  25  27
BRANCH  13  12
ATOM     10  C   UNL     1       6.000   2.066   0.000  0.00  0.00    +0.246 C 
ATOM     11  O   UNL     1       5.757   2.854   0.000  0.00  0.00    -0.273 OA
ATOM     12  N   UNL     1       5.439   1.461   0.000  0.00  0.00    -0.205 NA
BRANCH  10   9
ATOM      9  C   UNL     1       6.805   1.883   0.000  0.00  0.00    +0.116 C 
BRANCH   9   8
ATOM      3  C   UNL     1       7.123   3.276   0.000  0.00  0.00    +0.135 A 
ATOM      4  C   UNL     1       7.684   3.880   0.000  0.00  0.00    +0.037 A 
ATOM      5  C   UNL     1       8.488   3.697   0.000  0.00  0.00    +0.003 A 
ATOM      6  C   UNL     1       8.731   2.909   0.000  0.00  0.00    -0.000 A 
ATOM      7  C   UNL     1       8.170   2.304   0.000  0.00  0.00    -0.001 A 
ATOM      8  C   UNL     1       7.366   2.487   0.000  0.00  0.00    +0.021 A 
BRANCH   3   2
ATOM      1  C   UNL     1       6.075   4.248   0.000  0.00  0.00    +0.252 C 
ATOM      2  O   UNL     1       6.318   3.459   0.000  0.00  0.00    -0.472 OA
ENDBRANCH   3   2
ENDBRANCH   9   8
ENDBRANCH  10   9
ENDBRANCH  13  12
TORSDOF 5
