MODEL 1
REMARK VINA RESULT:      -9.2      0.000      0.000
REMARK  Name = 
REMARK  6 active torsions:
REMARK  status: ('A' for Active; 'I' for Inactive)
REMARK    1  A    between atoms: N_2  and  C_4
REMARK    2  A    between atoms: C_7  and  C_10
REMARK    3  A    between atoms: N_12  and  C_13
REMARK    4  A    between atoms: C_17  and  N_21
REMARK    5  A    between atoms: C_23  and  C_24
REMARK    6  A    between atoms: C_24  and  C_25
REMARK                            x       y       z     vdW  Elec       q    Type
REMARK                         _______ _______ _______ _____ _____    ______ ____
ROOT
ATOM     13  C   UNL     1       0.828   0.336  23.483  0.00  0.00    +0.155 C 
ATOM     14  C   UNL     1       0.406  -0.193  23.012  0.00  0.00    +0.166 C 
ATOM     15  O   UNL     1      -0.397  -0.033  23.106  0.00  0.00    -0.350 OA
ATOM     16  C   UNL     1      -0.472   0.595  23.634  0.00  0.00    +0.169 C 
ATOM     17  C   UNL     1      -1.014   1.084  24.020  0.00  0.00    +0.166 C 
ATOM     18  C   UNL     1      -0.592   1.613  24.491  0.00  0.00    +0.169 C 
ATOM     19  O   UNL     1       0.211   1.452  24.397  0.00  0.00    -0.350 OA
ATOM     20  C   UNL     1       0.286   0.823  23.867  0.00  0.00    +0.167 C 
ENDROOT
BRANCH  17  21
ATOM     21  N   UNL     1      -1.835   1.048  23.946  0.00  0.00    -0.227 N 
ATOM     22  C   UNL     1      -2.344   0.585  24.403  0.00  0.00    +0.113 A 
ATOM     23  C   UNL     1      -3.115   0.721  24.142  0.00  0.00    +0.101 A 
ATOM     31  N   UNL     1      -3.083   1.266  23.525  0.00  0.00    -0.133 NA
ATOM     32  N   UNL     1      -2.292   1.468  23.404  0.00  0.00    -0.064 NA
BRANCH  23  24
ATOM     24  C   UNL     1      -3.798   0.371  24.446  0.00  0.00    +0.049 C 
BRANCH  24  25
ATOM     25  C   UNL     1      -3.866  -0.451  24.468  0.00  0.00    +0.006 C 
ATOM     26  C   UNL     1      -4.136  -0.860  23.806  0.00  0.00    +0.000 C 
ATOM     27  C   UNL     1      -4.204  -1.682  23.828  0.00  0.00    +0.000 C 
ATOM     28  C   UNL     1      -4.002  -2.095  24.513  0.00  0.00    +0.000 C 
ATOM     29  C   UNL     1      -3.731  -1.685  25.176  0.00  0.00    +0.000 C 
ATOM     30  C   UNL     1      -3.663  -0.863  25.154  0.00  0.00    +0.000 C 
ENDBRANCH  24  25
ENDBRANCH  23  24
ENDBRANCH  17  21
BRANCH  13  12
ATOM     10  C   UNL     1       2.131   0.122  22.934  0.00  0.00    +0.265 C 
ATOM     11  O   UNL     1       1.790  -0.164  22.239  0.00  0.00    -0.268 OA
ATOM     12  N   UNL     1       1.650   0.372  23.556  0.00  0.00    -0.198 NA
BRANCH  10   7
ATOM      4  C   UNL     1       4.593   0.228  23.153  0.00  0.00    +0.048 A 
ATOM      5  C   UNL     1       4.177   0.878  22.863  0.00  0.00    +0.015 A 
ATOM      6  C   UNL     1       3.356   0.843  22.790  0.00  0.00    +0.006 A 
ATOM      7  C   UNL     1       2.951   0.157  23.007  0.00  0.00    +0.055 A 
ATOM      8  C   UNL     1       3.368  -0.493  23.297  0.00  0.00    +0.006 A 
ATOM      9  C   UNL     1       4.189  -0.458  23.371  0.00  0.00    +0.015 A 
BRANCH   4   2
ATOM      1  C   UNL     1       5.757   0.730  23.814  0.00  0.00    +0.112 C 
ATOM      2  N   UNL     1       5.414   0.263  23.227  0.00  0.00    -0.304 N 
ATOM      3  C   UNL     1       5.894  -0.170  22.712  0.00  0.00    +0.112 C 
ENDBRANCH   4   2
ENDBRANCH  10   7
ENDBRANCH  13  12
TORSDOF 6
ENDMDL
MODEL 2
REMARK VINA RESULT:      -9.0      1.524      2.026
REMARK  Name = 
REMARK  6 active torsions:
REMARK  status: ('A' for Active; 'I' for Inactive)
REMARK    1  A    between atoms: N_2  and  C_4
REMARK    2  A    between atoms: C_7  and  C_10
REMARK    3  A    between atoms: N_12  and  C_13
REMARK    4  A    between atoms: C_17  and  N_21
REMARK    5  A    between atoms: C_23  and  C_24
REMARK    6  A    between atoms: C_24  and  C_25
REMARK                            x       y       z     vdW  Elec       q    Type
REMARK                         _______ _______ _______ _____ _____    ______ ____
ROOT
ATOM     13  C   UNL     1       0.752   0.510  23.502  0.00  0.00    +0.155 C 
ATOM     14  C   UNL     1       0.299   0.066  22.975  0.00  0.00    +0.166 C 
ATOM     15  O   UNL     1      -0.493   0.265  23.090  0.00  0.00    -0.350 OA
ATOM     16  C   UNL     1      -0.530   0.832  23.687  0.00  0.00    +0.169 C 
ATOM     17  C   UNL     1      -1.041   1.306  24.128  0.00  0.00    +0.166 C 
ATOM     18  C   UNL     1      -0.588   1.751  24.654  0.00  0.00    +0.169 C 
ATOM     19  O   UNL     1       0.204   1.552  24.539  0.00  0.00    -0.350 OA
ATOM     20  C   UNL     1       0.240   0.984  23.941  0.00  0.00    +0.167 C 
ENDROOT
BRANCH  17  21
ATOM     21  N   UNL     1      -1.863   1.331  24.054  0.00  0.00    -0.227 N 
ATOM     22  C   UNL     1      -2.311   1.990  23.839  0.00  0.00    +0.113 A 
ATOM     23  C   UNL     1      -3.105   1.767  23.835  0.00  0.00    +0.101 A 
ATOM     31  N   UNL     1      -3.148   0.972  24.047  0.00  0.00    -0.133 NA
ATOM     32  N   UNL     1      -2.380   0.702  24.182  0.00  0.00    -0.064 NA
BRANCH  23  24
ATOM     24  C   UNL     1      -3.745   2.255  23.651  0.00  0.00    +0.049 C 
BRANCH  24  25
ATOM     25  C   UNL     1      -4.218   2.561  24.254  0.00  0.00    +0.006 C 
ATOM     26  C   UNL     1      -4.040   3.295  24.585  0.00  0.00    +0.000 C 
ATOM     27  C   UNL     1      -4.513   3.600  25.188  0.00  0.00    +0.000 C 
ATOM     28  C   UNL     1      -5.163   3.172  25.460  0.00  0.00    +0.000 C 
ATOM     29  C   UNL     1      -5.341   2.437  25.128  0.00  0.00    +0.000 C 
ATOM     30  C   UNL     1      -4.868   2.132  24.525  0.00  0.00    +0.000 C 
ENDBRANCH  24  25
ENDBRANCH  23  24
ENDBRANCH  17  21
BRANCH  13  12
ATOM     10  C   UNL     1       2.038   0.233  22.941  0.00  0.00    +0.265 C 
ATOM     11  O   UNL     1       1.679   0.005  22.233  0.00  0.00    -0.268 OA
ATOM     12  N   UNL     1       1.574   0.485  23.575  0.00  0.00    -0.198 NA
BRANCH  10   7
ATOM      4  C   UNL     1       4.501   0.158  23.161  0.00  0.00    +0.048 A 
ATOM      5  C   UNL     1       4.133   0.839  22.875  0.00  0.00    +0.015 A 
ATOM      6  C   UNL     1       3.312   0.864  22.801  0.00  0.00    +0.006 A 
ATOM      7  C   UNL     1       2.859   0.208  23.014  0.00  0.00    +0.055 A 
ATOM      8  C   UNL     1       3.227  -0.472  23.301  0.00  0.00    +0.006 A 
ATOM      9  C   UNL     1       4.048  -0.498  23.374  0.00  0.00    +0.015 A 
BRANCH   4   2
ATOM      1  C   UNL     1       5.780  -0.212  22.640  0.00  0.00    +0.112 C 
ATOM      2  N   UNL     1       5.323   0.133  23.234  0.00  0.00    -0.304 N 
ATOM      3  C   UNL     1       5.688   0.453  23.902  0.00  0.00    +0.112 C 
ENDBRANCH   4   2
ENDBRANCH  10   7
ENDBRANCH  13  12
TORSDOF 6
ENDMDL
MODEL 3
REMARK VINA RESULT:      -8.9      1.682      6.982
REMARK  Name = 
REMARK  6 active torsions:
REMARK  status: ('A' for Active; 'I' for Inactive)
REMARK    1  A    between atoms: N_2  and  C_4
REMARK    2  A    between atoms: C_7  and  C_10
REMARK    3  A    between atoms: N_12  and  C_13
REMARK    4  A    between atoms: C_17  and  N_21
REMARK    5  A    between atoms: C_23  and  C_24
REMARK    6  A    between atoms: C_24  and  C_25
REMARK                            x       y       z     vdW  Elec       q    Type
REMARK                         _______ _______ _______ _____ _____    ______ ____
ROOT
ATOM     13  C   UNL     1      -0.831   1.732  24.353  0.00  0.00    +0.155 C 
ATOM     14  C   UNL     1      -0.323   2.370  24.472  0.00  0.00    +0.166 C 
ATOM     15  O   UNL     1       0.423   2.156  24.192  0.00  0.00    -0.350 OA
ATOM     16  C   UNL     1       0.376   1.387  23.900  0.00  0.00    +0.169 C 
ATOM     17  C   UNL     1       0.806   0.779  23.546  0.00  0.00    +0.166 C 
ATOM     18  C   UNL     1       0.297   0.141  23.426  0.00  0.00    +0.169 C 
ATOM     19  O   UNL     1      -0.448   0.354  23.707  0.00  0.00    -0.350 OA
ATOM     20  C   UNL     1      -0.400   1.125  23.999  0.00  0.00    +0.167 C 
ENDROOT
BRANCH  17  21
ATOM     21  N   UNL     1       1.607   0.805  23.346  0.00  0.00    -0.227 N 
ATOM     22  C   UNL     1       2.047   0.185  23.024  0.00  0.00    +0.113 A 
ATOM     23  C   UNL     1       2.819   0.452  22.913  0.00  0.00    +0.101 A 
ATOM     31  N   UNL     1       2.856   1.236  23.165  0.00  0.00    -0.133 NA
ATOM     32  N   UNL     1       2.107   1.454  23.433  0.00  0.00    -0.064 NA
BRANCH  23  24
ATOM     24  C   UNL     1       3.445   0.012  22.603  0.00  0.00    +0.049 C 
BRANCH  24  25
ATOM     25  C   UNL     1       4.128  -0.106  23.050  0.00  0.00    +0.006 C 
ATOM     26  C   UNL     1       4.206  -0.786  23.510  0.00  0.00    +0.000 C 
ATOM     27  C   UNL     1       4.889  -0.904  23.958  0.00  0.00    +0.000 C 
ATOM     28  C   UNL     1       5.493  -0.343  23.945  0.00  0.00    +0.000 C 
ATOM     29  C   UNL     1       5.414   0.338  23.485  0.00  0.00    +0.000 C 
ATOM     30  C   UNL     1       4.731   0.456  23.037  0.00  0.00    +0.000 C 
ENDBRANCH  24  25
ENDBRANCH  23  24
ENDBRANCH  17  21
BRANCH  13  12
ATOM     10  C   UNL     1      -2.108   2.370  24.438  0.00  0.00    +0.265 C 
ATOM     11  O   UNL     1      -1.782   3.060  24.123  0.00  0.00    -0.268 OA
ATOM     12  N   UNL     1      -1.632   1.706  24.553  0.00  0.00    -0.198 NA
BRANCH  10   7
ATOM      4  C   UNL     1      -4.507   2.293  25.036  0.00  0.00    +0.048 A 
ATOM      5  C   UNL     1      -4.034   2.910  25.310  0.00  0.00    +0.015 A 
ATOM      6  C   UNL     1      -3.234   2.936  25.111  0.00  0.00    +0.006 A 
ATOM      7  C   UNL     1      -2.907   2.344  24.637  0.00  0.00    +0.055 A 
ATOM      8  C   UNL     1      -3.381   1.727  24.363  0.00  0.00    +0.006 A 
ATOM      9  C   UNL     1      -4.182   1.702  24.562  0.00  0.00    +0.015 A 
BRANCH   4   2
ATOM      1  C   UNL     1      -5.806   1.719  24.872  0.00  0.00    +0.112 C 
ATOM      2  N   UNL     1      -5.308   2.267  25.235  0.00  0.00    -0.304 N 
ATOM      3  C   UNL     1      -5.610   2.789  25.798  0.00  0.00    +0.112 C 
ENDBRANCH   4   2
ENDBRANCH  10   7
ENDBRANCH  13  12
TORSDOF 6
ENDMDL
MODEL 4
REMARK VINA RESULT:      -8.7      2.181      2.962
REMARK  Name = 
REMARK  6 active torsions:
REMARK  status: ('A' for Active; 'I' for Inactive)
REMARK    1  A    between atoms: N_2  and  C_4
REMARK    2  A    between atoms: C_7  and  C_10
REMARK    3  A    between atoms: N_12  and  C_13
REMARK    4  A    between atoms: C_17  and  N_21
REMARK    5  A    between atoms: C_23  and  C_24
REMARK    6  A    between atoms: C_24  and  C_25
REMARK                            x       y       z     vdW  Elec       q    Type
REMARK                         _______ _______ _______ _____ _____    ______ ____
ROOT
ATOM     13  C   UNL     1      -0.471   1.795  24.502  0.00  0.00    +0.155 C 
ATOM     14  C   UNL     1      -1.047   1.268  24.764  0.00  0.00    +0.166 C 
ATOM     15  O   UNL     1      -1.698   1.707  25.017  0.00  0.00    -0.350 OA
ATOM     16  C   UNL     1      -1.524   2.505  24.911  0.00  0.00    +0.169 C 
ATOM     17  C   UNL     1      -1.817   3.271  25.002  0.00  0.00    +0.166 C 
ATOM     18  C   UNL     1      -1.240   3.799  24.740  0.00  0.00    +0.169 C 
ATOM     19  O   UNL     1      -0.590   3.360  24.487  0.00  0.00    -0.350 OA
ATOM     20  C   UNL     1      -0.765   2.560  24.593  0.00  0.00    +0.167 C 
ENDROOT
BRANCH  17  21
ATOM     21  N   UNL     1      -2.559   3.473  25.303  0.00  0.00    -0.227 N 
ATOM     22  C   UNL     1      -3.280   3.397  24.909  0.00  0.00    +0.113 A 
ATOM     23  C   UNL     1      -3.875   3.664  25.413  0.00  0.00    +0.101 A 
ATOM     31  N   UNL     1      -3.523   3.904  26.118  0.00  0.00    -0.133 NA
ATOM     32  N   UNL     1      -2.709   3.787  26.050  0.00  0.00    -0.064 NA
BRANCH  23  24
ATOM     24  C   UNL     1      -4.682   3.685  25.241  0.00  0.00    +0.049 C 
BRANCH  24  25
ATOM     25  C   UNL     1      -5.139   3.003  25.319  0.00  0.00    +0.006 C 
ATOM     26  C   UNL     1      -5.537   2.852  26.025  0.00  0.00    +0.000 C 
ATOM     27  C   UNL     1      -5.994   2.169  26.103  0.00  0.00    +0.000 C 
ATOM     28  C   UNL     1      -6.053   1.638  25.475  0.00  0.00    +0.000 C 
ATOM     29  C   UNL     1      -5.654   1.789  24.768  0.00  0.00    +0.000 C 
ATOM     30  C   UNL     1      -5.197   2.472  24.690  0.00  0.00    +0.000 C 
ENDBRANCH  24  25
ENDBRANCH  23  24
ENDBRANCH  17  21
BRANCH  13  12
ATOM     10  C   UNL     1       0.349   0.944  23.697  0.00  0.00    +0.265 C 
ATOM     11  O   UNL     1      -0.315   0.497  23.495  0.00  0.00    -0.268 OA
ATOM     12  N   UNL     1       0.271   1.593  24.201  0.00  0.00    -0.198 NA
BRANCH  10   7
ATOM      4  C   UNL     1       2.572   0.338  22.795  0.00  0.00    +0.048 A 
ATOM      5  C   UNL     1       2.488   1.008  23.268  0.00  0.00    +0.015 A 
ATOM      6  C   UNL     1       1.747   1.210  23.569  0.00  0.00    +0.006 A 
ATOM      7  C   UNL     1       1.090   0.742  23.397  0.00  0.00    +0.055 A 
ATOM      8  C   UNL     1       1.174   0.072  22.923  0.00  0.00    +0.006 A 
ATOM      9  C   UNL     1       1.915  -0.131  22.622  0.00  0.00    +0.015 A 
BRANCH   4   2
ATOM      1  C   UNL     1       3.474   0.237  21.691  0.00  0.00    +0.112 C 
ATOM      2  N   UNL     1       3.313   0.135  22.494  0.00  0.00    -0.304 N 
ATOM      3  C   UNL     1       3.894  -0.169  22.995  0.00  0.00    +0.112 C 
ENDBRANCH   4   2
ENDBRANCH  10   7
ENDBRANCH  13  12
TORSDOF 6
ENDMDL
MODEL 5
REMARK VINA RESULT:      -5.8     17.414     18.325
REMARK  Name = 
REMARK  6 active torsions:
REMARK  status: ('A' for Active; 'I' for Inactive)
REMARK    1  A    between atoms: N_2  and  C_4
REMARK    2  A    between atoms: C_7  and  C_10
REMARK    3  A    between atoms: N_12  and  C_13
REMARK    4  A    between atoms: C_17  and  N_21
REMARK    5  A    between atoms: C_23  and  C_24
REMARK    6  A    between atoms: C_24  and  C_25
REMARK                            x       y       z     vdW  Elec       q    Type
REMARK                         _______ _______ _______ _____ _____    ______ ____
ROOT
ATOM     13  C   UNL     1      15.617  -6.757  28.507  0.00  0.00    +0.155 C 
ATOM     14  C   UNL     1      16.303  -6.300  28.501  0.00  0.00    +0.166 C 
ATOM     15  O   UNL     1      16.284  -5.803  29.159  0.00  0.00    -0.350 OA
ATOM     16  C   UNL     1      15.586  -5.952  29.571  0.00  0.00    +0.169 C 
ATOM     17  C   UNL     1      15.141  -5.737  30.232  0.00  0.00    +0.166 C 
ATOM     18  C   UNL     1      14.455  -6.194  30.238  0.00  0.00    +0.169 C 
ATOM     19  O   UNL     1      14.474  -6.691  29.580  0.00  0.00    -0.350 OA
ATOM     20  C   UNL     1      15.173  -6.542  29.168  0.00  0.00    +0.167 C 
ENDROOT
BRANCH  17  21
ATOM     21  N   UNL     1      15.348  -5.165  30.790  0.00  0.00    -0.227 N 
ATOM     22  C   UNL     1      15.091  -4.381  30.799  0.00  0.00    +0.113 A 
ATOM     23  C   UNL     1      15.432  -4.009  31.451  0.00  0.00    +0.101 A 
ATOM     31  N   UNL     1      15.900  -4.562  31.845  0.00  0.00    -0.133 NA
ATOM     32  N   UNL     1      15.848  -5.277  31.436  0.00  0.00    -0.064 NA
BRANCH  23  24
ATOM     24  C   UNL     1      15.324  -3.220  31.671  0.00  0.00    +0.049 C 
BRANCH  24  25
ATOM     25  C   UNL     1      15.911  -2.664  31.511  0.00  0.00    +0.006 C 
ATOM     26  C   UNL     1      16.008  -2.376  30.744  0.00  0.00    +0.000 C 
ATOM     27  C   UNL     1      16.595  -1.819  30.584  0.00  0.00    +0.000 C 
ATOM     28  C   UNL     1      17.086  -1.550  31.191  0.00  0.00    +0.000 C 
ATOM     29  C   UNL     1      16.988  -1.838  31.958  0.00  0.00    +0.000 C 
ATOM     30  C   UNL     1      16.401  -2.395  32.118  0.00  0.00    +0.000 C 
ENDBRANCH  24  25
ENDBRANCH  23  24
ENDBRANCH  17  21
BRANCH  13  12
ATOM     10  C   UNL     1      15.998  -7.752  27.554  0.00  0.00    +0.265 C 
ATOM     11  O   UNL     1      16.794  -7.602  27.717  0.00  0.00    -0.268 OA
ATOM     12  N   UNL     1      15.410  -7.329  27.949  0.00  0.00    -0.198 NA
BRANCH  10   7
ATOM      4  C   UNL     1      15.379  -9.466  25.881  0.00  0.00    +0.048 A 
ATOM      5  C   UNL     1      15.551  -9.690  26.656  0.00  0.00    +0.015 A 
ATOM      6  C   UNL     1      15.757  -9.118  27.214  0.00  0.00    +0.006 A 
ATOM      7  C   UNL     1      15.792  -8.323  26.997  0.00  0.00    +0.055 A 
ATOM      8  C   UNL     1      15.620  -8.100  26.221  0.00  0.00    +0.006 A 
ATOM      9  C   UNL     1      15.414  -8.671  25.663  0.00  0.00    +0.015 A 
BRANCH   4   2
ATOM      1  C   UNL     1      15.761 -10.456  24.924  0.00  0.00    +0.112 C 
ATOM      2  N   UNL     1      15.173 -10.038  25.323  0.00  0.00    -0.304 N 
ATOM      3  C   UNL     1      14.378 -10.192  25.164  0.00  0.00    +0.112 C 
ENDBRANCH   4   2
ENDBRANCH  10   7
ENDBRANCH  13  12
TORSDOF 6
ENDMDL
