MODEL 1
REMARK VINA RESULT:     -10.6      0.000      0.000
REMARK  Name = 
REMARK  4 active torsions:
REMARK  status: ('A' for Active; 'I' for Inactive)
REMARK    1  A    between atoms: O_2  and  C_3
REMARK    2  A    between atoms: C_5  and  C_9
REMARK    3  A    between atoms: C_16  and  O_18
REMARK    4  A    between atoms: O_18  and  C_19
REMARK                            x       y       z     vdW  Elec       q    Type
REMARK                         _______ _______ _______ _____ _____    ______ ____
ROOT
ATOM      9  C   UNL     1      -4.099   0.272  24.743  0.00  0.00    +0.249 C 
ATOM     10  O   UNL     1      -4.572   0.469  25.390  0.00  0.00    -0.270 OA
ATOM     11  N   UNL     1      -3.790   0.867  24.262  0.00  0.00    -0.270 N 
ATOM     12  C   UNL     1      -3.325   0.612  23.631  0.00  0.00    +0.126 C 
ATOM     13  C   UNL     1      -2.942   1.064  23.058  0.00  0.00    +0.164 C 
ATOM     14  O   UNL     1      -2.930   1.885  22.974  0.00  0.00    -0.348 OA
ATOM     15  C   UNL     1      -3.298   2.456  23.442  0.00  0.00    +0.187 C 
ATOM     16  C   UNL     1      -3.769   2.345  24.111  0.00  0.00    +0.217 C 
ATOM     17  C   UNL     1      -3.988   1.639  24.476  0.00  0.00    +0.140 C 
ENDROOT
BRANCH   9   5
ATOM      3  C   UNL     1      -3.110  -1.674  24.747  0.00  0.00    +0.139 A 
ATOM      4  C   UNL     1      -3.274  -0.883  24.912  0.00  0.00    +0.041 A 
ATOM      5  C   UNL     1      -3.934  -0.520  24.577  0.00  0.00    +0.057 A 
ATOM      6  C   UNL     1      -4.430  -0.947  24.076  0.00  0.00    +0.005 A 
ATOM      7  C   UNL     1      -4.266  -1.739  23.910  0.00  0.00    +0.003 A 
ATOM      8  C   UNL     1      -3.606  -2.102  24.245  0.00  0.00    +0.037 A 
BRANCH   3   2
ATOM      1  C   UNL     1      -1.931  -2.471  24.608  0.00  0.00    +0.252 C 
ATOM      2  O   UNL     1      -2.449  -2.037  25.082  0.00  0.00    -0.471 OA
ENDBRANCH   3   2
ENDBRANCH   9   5
BRANCH  16  18
ATOM     18  O   UNL     1      -4.059   3.034  24.462  0.00  0.00    -0.459 OA
BRANCH  18  19
ATOM     19  C   UNL     1      -3.578   3.474  24.966  0.00  0.00    +0.245 A 
ATOM     20  C   UNL     1      -3.764   3.531  25.768  0.00  0.00    +0.156 A 
ATOM     21  N   UNL     1      -3.283   3.972  26.273  0.00  0.00    -0.236 NA
ATOM     22  C   UNL     1      -2.616   4.355  25.977  0.00  0.00    +0.120 A 
ATOM     23  C   UNL     1      -2.430   4.298  25.175  0.00  0.00    +0.123 A 
ATOM     24  N   UNL     1      -2.911   3.858  24.670  0.00  0.00    -0.207 NA
ENDBRANCH  18  19
ENDBRANCH  16  18
TORSDOF 4
ENDMDL
MODEL 2
REMARK VINA RESULT:     -10.3      0.966      1.276
REMARK  Name = 
REMARK  4 active torsions:
REMARK  status: ('A' for Active; 'I' for Inactive)
REMARK    1  A    between atoms: O_2  and  C_3
REMARK    2  A    between atoms: C_5  and  C_9
REMARK    3  A    between atoms: C_16  and  O_18
REMARK    4  A    between atoms: O_18  and  C_19
REMARK                            x       y       z     vdW  Elec       q    Type
REMARK                         _______ _______ _______ _____ _____    ______ ____
ROOT
ATOM      9  C   UNL     1      -3.906   0.360  24.853  0.00  0.00    +0.249 C 
ATOM     10  O   UNL     1      -4.608   0.721  25.093  0.00  0.00    -0.270 OA
ATOM     11  N   UNL     1      -3.290   0.817  24.551  0.00  0.00    -0.270 N 
ATOM     12  C   UNL     1      -2.613   0.403  24.327  0.00  0.00    +0.126 C 
ATOM     13  C   UNL     1      -1.911   0.698  24.009  0.00  0.00    +0.164 C 
ATOM     14  O   UNL     1      -1.713   1.480  23.837  0.00  0.00    -0.348 OA
ATOM     15  C   UNL     1      -2.167   2.161  23.940  0.00  0.00    +0.187 C 
ATOM     16  C   UNL     1      -2.933   2.227  24.241  0.00  0.00    +0.217 C 
ATOM     17  C   UNL     1      -3.432   1.629  24.513  0.00  0.00    +0.140 C 
ENDROOT
BRANCH   9   5
ATOM      3  C   UNL     1      -4.001  -1.766  24.368  0.00  0.00    +0.139 A 
ATOM      4  C   UNL     1      -4.086  -0.948  24.307  0.00  0.00    +0.041 A 
ATOM      5  C   UNL     1      -3.820  -0.459  24.915  0.00  0.00    +0.057 A 
ATOM      6  C   UNL     1      -3.468  -0.787  25.585  0.00  0.00    +0.005 A 
ATOM      7  C   UNL     1      -3.382  -1.605  25.646  0.00  0.00    +0.003 A 
ATOM      8  C   UNL     1      -3.648  -2.095  25.039  0.00  0.00    +0.037 A 
BRANCH   3   2
ATOM      1  C   UNL     1      -4.006  -3.038  23.716  0.00  0.00    +0.252 C 
ATOM      2  O   UNL     1      -4.267  -2.256  23.760  0.00  0.00    -0.471 OA
ENDBRANCH   3   2
ENDBRANCH   9   5
BRANCH  16  18
ATOM     18  O   UNL     1      -3.239   2.992  24.275  0.00  0.00    -0.459 OA
BRANCH  18  19
ATOM     19  C   UNL     1      -2.969   3.520  24.848  0.00  0.00    +0.245 A 
ATOM     20  C   UNL     1      -2.318   4.001  24.692  0.00  0.00    +0.156 A 
ATOM     21  N   UNL     1      -2.048   4.529  25.265  0.00  0.00    -0.236 NA
ATOM     22  C   UNL     1      -2.429   4.576  25.995  0.00  0.00    +0.120 A 
ATOM     23  C   UNL     1      -3.080   4.095  26.151  0.00  0.00    +0.123 A 
ATOM     24  N   UNL     1      -3.350   3.567  25.578  0.00  0.00    -0.207 NA
ENDBRANCH  18  19
ENDBRANCH  16  18
TORSDOF 4
ENDMDL
MODEL 3
REMARK VINA RESULT:      -9.6      1.319      4.720
REMARK  Name = 
REMARK  4 active torsions:
REMARK  status: ('A' for Active; 'I' for Inactive)
REMARK    1  A    between atoms: O_2  and  C_3
REMARK    2  A    between atoms: C_5  and  C_9
REMARK    3  A    between atoms: C_16  and  O_18
REMARK    4  A    between atoms: O_18  and  C_19
REMARK                            x       y       z     vdW  Elec       q    Type
REMARK                         _______ _______ _______ _____ _____    ______ ____
ROOT
ATOM      9  C   UNL     1      -3.188   1.853  23.850  0.00  0.00    +0.249 C 
ATOM     10  O   UNL     1      -2.700   1.661  23.213  0.00  0.00    -0.270 OA
ATOM     11  N   UNL     1      -3.652   1.271  24.205  0.00  0.00    -0.270 N 
ATOM     12  C   UNL     1      -4.119   1.520  24.837  0.00  0.00    +0.126 C 
ATOM     13  C   UNL     1      -4.637   1.077  25.300  0.00  0.00    +0.164 C 
ATOM     14  O   UNL     1      -4.815   0.273  25.247  0.00  0.00    -0.348 OA
ATOM     15  C   UNL     1      -4.520  -0.286  24.717  0.00  0.00    +0.187 C 
ATOM     16  C   UNL     1      -3.973  -0.178  24.108  0.00  0.00    +0.217 C 
ATOM     17  C   UNL     1      -3.586   0.515  23.881  0.00  0.00    +0.140 C 
ENDROOT
BRANCH   9   5
ATOM      3  C   UNL     1      -2.661   3.668  24.943  0.00  0.00    +0.139 A 
ATOM      4  C   UNL     1      -2.637   2.893  24.660  0.00  0.00    +0.041 A 
ATOM      5  C   UNL     1      -3.212   2.629  24.133  0.00  0.00    +0.057 A 
ATOM      6  C   UNL     1      -3.812   3.138  23.886  0.00  0.00    +0.005 A 
ATOM      7  C   UNL     1      -3.837   3.913  24.169  0.00  0.00    +0.003 A 
ATOM      8  C   UNL     1      -3.262   4.178  24.696  0.00  0.00    +0.037 A 
BRANCH   3   2
ATOM      1  C   UNL     1      -1.659   4.620  25.306  0.00  0.00    +0.252 C 
ATOM      2  O   UNL     1      -2.086   3.933  25.471  0.00  0.00    -0.471 OA
ENDBRANCH   3   2
ENDBRANCH   9   5
BRANCH  16  18
ATOM     18  O   UNL     1      -3.787  -0.851  23.670  0.00  0.00    -0.459 OA
BRANCH  18  19
ATOM     19  C   UNL     1      -3.458  -1.509  24.043  0.00  0.00    +0.245 A 
ATOM     20  C   UNL     1      -3.925  -2.171  24.201  0.00  0.00    +0.156 A 
ATOM     21  N   UNL     1      -3.597  -2.828  24.574  0.00  0.00    -0.236 NA
ATOM     22  C   UNL     1      -2.801  -2.825  24.790  0.00  0.00    +0.120 A 
ATOM     23  C   UNL     1      -2.334  -2.164  24.633  0.00  0.00    +0.123 A 
ATOM     24  N   UNL     1      -2.662  -1.506  24.259  0.00  0.00    -0.207 NA
ENDBRANCH  18  19
ENDBRANCH  16  18
TORSDOF 4
ENDMDL
MODEL 4
REMARK VINA RESULT:      -9.4      2.430      5.168
REMARK  Name = 
REMARK  4 active torsions:
REMARK  status: ('A' for Active; 'I' for Inactive)
REMARK    1  A    between atoms: O_2  and  C_3
REMARK    2  A    between atoms: C_5  and  C_9
REMARK    3  A    between atoms: C_16  and  O_18
REMARK    4  A    between atoms: O_18  and  C_19
REMARK                            x       y       z     vdW  Elec       q    Type
REMARK                         _______ _______ _______ _____ _____    ______ ____
ROOT
ATOM      9  C   UNL     1      -0.896   2.713  25.460  0.00  0.00    +0.249 C 
ATOM     10  O   UNL     1      -0.437   2.480  26.105  0.00  0.00    -0.270 OA
ATOM     11  N   UNL     1      -0.995   2.204  24.818  0.00  0.00    -0.270 N 
ATOM     12  C   UNL     1      -1.464   2.490  24.203  0.00  0.00    +0.126 C 
ATOM     13  C   UNL     1      -1.665   2.119  23.495  0.00  0.00    +0.164 C 
ATOM     14  O   UNL     1      -1.448   1.370  23.227  0.00  0.00    -0.348 OA
ATOM     15  C   UNL     1      -0.975   0.806  23.600  0.00  0.00    +0.187 C 
ATOM     16  C   UNL     1      -0.603   0.854  24.335  0.00  0.00    +0.217 C 
ATOM     17  C   UNL     1      -0.612   1.475  24.877  0.00  0.00    +0.140 C 
ENDROOT
BRANCH   9   5
ATOM      3  C   UNL     1      -2.345   4.304  25.824  0.00  0.00    +0.139 A 
ATOM      4  C   UNL     1      -1.984   3.562  25.828  0.00  0.00    +0.041 A 
ATOM      5  C   UNL     1      -1.256   3.456  25.456  0.00  0.00    +0.057 A 
ATOM      6  C   UNL     1      -0.887   4.091  25.081  0.00  0.00    +0.005 A 
ATOM      7  C   UNL     1      -1.248   4.834  25.078  0.00  0.00    +0.003 A 
ATOM      8  C   UNL     1      -1.975   4.940  25.449  0.00  0.00    +0.037 A 
BRANCH   3   2
ATOM      1  C   UNL     1      -3.767   4.161  25.825  0.00  0.00    +0.252 C 
ATOM      2  O   UNL     1      -3.073   4.411  26.196  0.00  0.00    -0.471 OA
ENDBRANCH   3   2
ENDBRANCH   9   5
BRANCH  16  18
ATOM     18  O   UNL     1      -0.164   0.192  24.558  0.00  0.00    -0.459 OA
BRANCH  18  19
ATOM     19  C   UNL     1      -0.546  -0.519  24.726  0.00  0.00    +0.245 A 
ATOM     20  C   UNL     1      -0.579  -1.116  24.156  0.00  0.00    +0.156 A 
ATOM     21  N   UNL     1      -0.961  -1.827  24.325  0.00  0.00    -0.236 NA
ATOM     22  C   UNL     1      -1.311  -1.942  25.063  0.00  0.00    +0.120 A 
ATOM     23  C   UNL     1      -1.279  -1.346  25.632  0.00  0.00    +0.123 A 
ATOM     24  N   UNL     1      -0.897  -0.635  25.464  0.00  0.00    -0.207 NA
ENDBRANCH  18  19
ENDBRANCH  16  18
TORSDOF 4
ENDMDL
MODEL 5
REMARK VINA RESULT:      -9.3      2.026      4.542
REMARK  Name = 
REMARK  4 active torsions:
REMARK  status: ('A' for Active; 'I' for Inactive)
REMARK    1  A    between atoms: O_2  and  C_3
REMARK    2  A    between atoms: C_5  and  C_9
REMARK    3  A    between atoms: C_16  and  O_18
REMARK    4  A    between atoms: O_18  and  C_19
REMARK                            x       y       z     vdW  Elec       q    Type
REMARK                         _______ _______ _______ _____ _____    ______ ____
ROOT
ATOM      9  C   UNL     1      -3.123   1.782  24.182  0.00  0.00    +0.249 C 
ATOM     10  O   UNL     1      -3.420   1.269  23.609  0.00  0.00    -0.270 OA
ATOM     11  N   UNL     1      -2.378   1.649  24.510  0.00  0.00    -0.270 N 
ATOM     12  C   UNL     1      -2.133   2.194  25.078  0.00  0.00    +0.126 C 
ATOM     13  C   UNL     1      -1.426   2.214  25.502  0.00  0.00    +0.164 C 
ATOM     14  O   UNL     1      -0.789   1.691  25.463  0.00  0.00    -0.348 OA
ATOM     15  C   UNL     1      -0.700   1.021  24.990  0.00  0.00    +0.187 C 
ATOM     16  C   UNL     1      -1.229   0.708  24.439  0.00  0.00    +0.217 C 
ATOM     17  C   UNL     1      -1.975   0.987  24.225  0.00  0.00    +0.140 C 
ENDROOT
BRANCH   9   5
ATOM      3  C   UNL     1      -4.557   2.995  25.295  0.00  0.00    +0.139 A 
ATOM      4  C   UNL     1      -4.108   2.348  25.049  0.00  0.00    +0.041 A 
ATOM      5  C   UNL     1      -3.572   2.430  24.429  0.00  0.00    +0.057 A 
ATOM      6  C   UNL     1      -3.482   3.159  24.054  0.00  0.00    +0.005 A 
ATOM      7  C   UNL     1      -3.931   3.807  24.300  0.00  0.00    +0.003 A 
ATOM      8  C   UNL     1      -4.468   3.725  24.920  0.00  0.00    +0.037 A 
BRANCH   3   2
ATOM      1  C   UNL     1      -5.876   2.698  25.759  0.00  0.00    +0.252 C 
ATOM      2  O   UNL     1      -5.094   2.913  25.916  0.00  0.00    -0.471 OA
ENDBRANCH   3   2
ENDBRANCH   9   5
BRANCH  16  18
ATOM     18  O   UNL     1      -0.978   0.025  24.051  0.00  0.00    -0.459 OA
BRANCH  18  19
ATOM     19  C   UNL     1      -1.015  -0.705  24.433  0.00  0.00    +0.245 A 
ATOM     20  C   UNL     1      -0.368  -0.976  24.869  0.00  0.00    +0.156 A 
ATOM     21  N   UNL     1      -0.405  -1.705  25.252  0.00  0.00    -0.236 NA
ATOM     22  C   UNL     1      -1.088  -2.165  25.200  0.00  0.00    +0.120 A 
ATOM     23  C   UNL     1      -1.735  -1.894  24.764  0.00  0.00    +0.123 A 
ATOM     24  N   UNL     1      -1.698  -1.164  24.381  0.00  0.00    -0.207 NA
ENDBRANCH  18  19
ENDBRANCH  16  18
TORSDOF 4
ENDMDL
MODEL 6
REMARK VINA RESULT:      -8.3     17.994     19.539
REMARK  Name = 
REMARK  4 active torsions:
REMARK  status: ('A' for Active; 'I' for Inactive)
REMARK    1  A    between atoms: O_2  and  C_3
REMARK    2  A    between atoms: C_5  and  C_9
REMARK    3  A    between atoms: C_16  and  O_18
REMARK    4  A    between atoms: O_18  and  C_19
REMARK                            x       y       z     vdW  Elec       q    Type
REMARK                         _______ _______ _______ _____ _____    ______ ____
ROOT
ATOM      9  C   UNL     1      14.586   7.998  19.014  0.00  0.00    +0.249 C 
ATOM     10  O   UNL     1      14.842   8.694  18.652  0.00  0.00    -0.270 OA
ATOM     11  N   UNL     1      13.782   7.818  19.040  0.00  0.00    -0.270 N 
ATOM     12  C   UNL     1      13.585   7.110  19.413  0.00  0.00    +0.126 C 
ATOM     13  C   UNL     1      12.839   6.778  19.528  0.00  0.00    +0.164 C 
ATOM     14  O   UNL     1      12.104   7.074  19.297  0.00  0.00    -0.348 OA
ATOM     15  C   UNL     1      11.934   7.773  18.894  0.00  0.00    +0.187 C 
ATOM     16  C   UNL     1      12.458   8.350  18.623  0.00  0.00    +0.217 C 
ATOM     17  C   UNL     1      13.280   8.370  18.687  0.00  0.00    +0.140 C 
ENDROOT
BRANCH   9   5
ATOM      3  C   UNL     1      16.054   6.396  19.220  0.00  0.00    +0.139 A 
ATOM      4  C   UNL     1      15.505   6.912  18.884  0.00  0.00    +0.041 A 
ATOM      5  C   UNL     1      15.135   7.482  19.351  0.00  0.00    +0.057 A 
ATOM      6  C   UNL     1      15.314   7.538  20.154  0.00  0.00    +0.005 A 
ATOM      7  C   UNL     1      15.863   7.021  20.491  0.00  0.00    +0.003 A 
ATOM      8  C   UNL     1      16.233   6.451  20.024  0.00  0.00    +0.037 A 
BRANCH   3   2
ATOM      1  C   UNL     1      17.241   5.714  18.807  0.00  0.00    +0.252 C 
ATOM      2  O   UNL     1      16.424   5.826  18.753  0.00  0.00    -0.471 OA
ENDBRANCH   3   2
ENDBRANCH   9   5
BRANCH  16  18
ATOM     18  O   UNL     1      12.114   8.992  18.235  0.00  0.00    -0.459 OA
BRANCH  18  19
ATOM     19  C   UNL     1      11.745   8.884  17.505  0.00  0.00    +0.245 A 
ATOM     20  C   UNL     1      12.160   9.031  16.808  0.00  0.00    +0.156 A 
ATOM     21  N   UNL     1      11.792   8.923  16.078  0.00  0.00    -0.236 NA
ATOM     22  C   UNL     1      11.007   8.669  16.045  0.00  0.00    +0.120 A 
ATOM     23  C   UNL     1      10.592   8.523  16.743  0.00  0.00    +0.123 A 
ATOM     24  N   UNL     1      10.961   8.631  17.472  0.00  0.00    -0.207 NA
ENDBRANCH  18  19
ENDBRANCH  16  18
TORSDOF 4
ENDMDL
MODEL 7
REMARK VINA RESULT:      -7.8     17.288     18.895
REMARK  Name = 
REMARK  4 active torsions:
REMARK  status: ('A' for Active; 'I' for Inactive)
REMARK    1  A    between atoms: O_2  and  C_3
REMARK    2  A    between atoms: C_5  and  C_9
REMARK    3  A    between atoms: C_16  and  O_18
REMARK    4  A    between atoms: O_18  and  C_19
REMARK                            x       y       z     vdW  Elec       q    Type
REMARK                         _______ _______ _______ _____ _____    ______ ____
ROOT
ATOM      9  C   UNL     1      13.093   7.341  21.071  0.00  0.00    +0.249 C 
ATOM     10  O   UNL     1      13.666   7.477  21.649  0.00  0.00    -0.270 OA
ATOM     11  N   UNL     1      13.303   7.347  20.273  0.00  0.00    -0.270 N 
ATOM     12  C   UNL     1      12.690   7.205  19.740  0.00  0.00    +0.126 C 
ATOM     13  C   UNL     1      12.720   7.175  18.917  0.00  0.00    +0.164 C 
ATOM     14  O   UNL     1      13.373   7.279  18.422  0.00  0.00    -0.348 OA
ATOM     15  C   UNL     1      14.155   7.439  18.629  0.00  0.00    +0.187 C 
ATOM     16  C   UNL     1      14.478   7.534  19.383  0.00  0.00    +0.217 C 
ATOM     17  C   UNL     1      14.099   7.493  20.114  0.00  0.00    +0.140 C 
ENDROOT
BRANCH   9   5
ATOM      3  C   UNL     1      11.021   7.691  21.661  0.00  0.00    +0.139 A 
ATOM      4  C   UNL     1      11.803   7.832  21.441  0.00  0.00    +0.041 A 
ATOM      5  C   UNL     1      12.310   7.199  21.290  0.00  0.00    +0.057 A 
ATOM      6  C   UNL     1      12.035   6.425  21.358  0.00  0.00    +0.005 A 
ATOM      7  C   UNL     1      11.251   6.283  21.577  0.00  0.00    +0.003 A 
ATOM      8  C   UNL     1      10.745   6.915  21.728  0.00  0.00    +0.037 A 
BRANCH   3   2
ATOM      1  C   UNL     1      10.501   8.673  22.560  0.00  0.00    +0.252 C 
ATOM      2  O   UNL     1      10.514   8.324  21.812  0.00  0.00    -0.471 OA
ENDBRANCH   3   2
ENDBRANCH   9   5
BRANCH  16  18
ATOM     18  O   UNL     1      15.288   7.692  19.407  0.00  0.00    -0.459 OA
BRANCH  18  19
ATOM     19  C   UNL     1      15.829   7.070  19.402  0.00  0.00    +0.245 A 
ATOM     20  C   UNL     1      15.916   6.604  18.726  0.00  0.00    +0.156 A 
ATOM     21  N   UNL     1      16.457   5.982  18.721  0.00  0.00    -0.236 NA
ATOM     22  C   UNL     1      16.913   5.825  19.390  0.00  0.00    +0.120 A 
ATOM     23  C   UNL     1      16.826   6.291  20.065  0.00  0.00    +0.123 A 
ATOM     24  N   UNL     1      16.285   6.913  20.071  0.00  0.00    -0.207 NA
ENDBRANCH  18  19
ENDBRANCH  16  18
TORSDOF 4
ENDMDL
MODEL 8
REMARK VINA RESULT:      -7.6     17.961     19.505
REMARK  Name = 
REMARK  4 active torsions:
REMARK  status: ('A' for Active; 'I' for Inactive)
REMARK    1  A    between atoms: O_2  and  C_3
REMARK    2  A    between atoms: C_5  and  C_9
REMARK    3  A    between atoms: C_16  and  O_18
REMARK    4  A    between atoms: O_18  and  C_19
REMARK                            x       y       z     vdW  Elec       q    Type
REMARK                         _______ _______ _______ _____ _____    ______ ____
ROOT
ATOM      9  C   UNL     1      15.315   7.047  21.177  0.00  0.00    +0.249 C 
ATOM     10  O   UNL     1      15.194   6.586  21.851  0.00  0.00    -0.270 OA
ATOM     11  N   UNL     1      14.772   7.634  20.975  0.00  0.00    -0.270 N 
ATOM     12  C   UNL     1      14.945   8.063  20.293  0.00  0.00    +0.126 C 
ATOM     13  C   UNL     1      14.517   8.678  19.949  0.00  0.00    +0.164 C 
ATOM     14  O   UNL     1      13.809   9.018  20.205  0.00  0.00    -0.348 OA
ATOM     15  C   UNL     1      13.356   8.826  20.867  0.00  0.00    +0.187 C 
ATOM     16  C   UNL     1      13.498   8.246  21.436  0.00  0.00    +0.217 C 
ATOM     17  C   UNL     1      14.128   7.716  21.485  0.00  0.00    +0.140 C 
ENDROOT
BRANCH   9   5
ATOM      3  C   UNL     1      16.606   6.262  19.601  0.00  0.00    +0.139 A 
ATOM      4  C   UNL     1      15.942   6.389  20.074  0.00  0.00    +0.041 A 
ATOM      5  C   UNL     1      15.980   6.920  20.704  0.00  0.00    +0.057 A 
ATOM      6  C   UNL     1      16.681   7.324  20.861  0.00  0.00    +0.005 A 
ATOM      7  C   UNL     1      17.345   7.197  20.388  0.00  0.00    +0.003 A 
ATOM      8  C   UNL     1      17.308   6.666  19.759  0.00  0.00    +0.037 A 
BRANCH   3   2
ATOM      1  C   UNL     1      17.223   5.627  18.479  0.00  0.00    +0.252 C 
ATOM      2  O   UNL     1      16.568   5.730  18.971  0.00  0.00    -0.471 OA
ENDBRANCH   3   2
ENDBRANCH   9   5
BRANCH  16  18
ATOM     18  O   UNL     1      12.935   8.189  22.037  0.00  0.00    -0.459 OA
BRANCH  18  19
ATOM     19  C   UNL     1      12.167   7.948  21.861  0.00  0.00    +0.245 A 
ATOM     20  C   UNL     1      11.984   7.144  21.826  0.00  0.00    +0.156 A 
ATOM     21  N   UNL     1      11.215   6.903  21.650  0.00  0.00    -0.236 NA
ATOM     22  C   UNL     1      10.629   7.465  21.508  0.00  0.00    +0.120 A 
ATOM     23  C   UNL     1      10.812   8.269  21.542  0.00  0.00    +0.123 A 
ATOM     24  N   UNL     1      11.580   8.510  21.719  0.00  0.00    -0.207 NA
ENDBRANCH  18  19
ENDBRANCH  16  18
TORSDOF 4
ENDMDL
MODEL 9
REMARK VINA RESULT:      -7.3     17.557     19.257
REMARK  Name = 
REMARK  4 active torsions:
REMARK  status: ('A' for Active; 'I' for Inactive)
REMARK    1  A    between atoms: O_2  and  C_3
REMARK    2  A    between atoms: C_5  and  C_9
REMARK    3  A    between atoms: C_16  and  O_18
REMARK    4  A    between atoms: O_18  and  C_19
REMARK                            x       y       z     vdW  Elec       q    Type
REMARK                         _______ _______ _______ _____ _____    ______ ____
ROOT
ATOM      9  C   UNL     1      12.781   7.105  20.350  0.00  0.00    +0.249 C 
ATOM     10  O   UNL     1      12.784   6.351  20.016  0.00  0.00    -0.270 OA
ATOM     11  N   UNL     1      13.442   7.378  20.761  0.00  0.00    -0.270 N 
ATOM     12  C   UNL     1      13.382   8.139  21.073  0.00  0.00    +0.126 C 
ATOM     13  C   UNL     1      13.940   8.563  21.506  0.00  0.00    +0.164 C 
ATOM     14  O   UNL     1      14.698   8.331  21.734  0.00  0.00    -0.348 OA
ATOM     15  C   UNL     1      15.085   7.618  21.586  0.00  0.00    +0.187 C 
ATOM     16  C   UNL     1      14.808   6.960  21.172  0.00  0.00    +0.217 C 
ATOM     17  C   UNL     1      14.077   6.853  20.805  0.00  0.00    +0.140 C 
ENDROOT
BRANCH   9   5
ATOM      3  C   UNL     1      11.357   8.540  19.526  0.00  0.00    +0.139 A 
ATOM      4  C   UNL     1      12.022   8.058  19.603  0.00  0.00    +0.041 A 
ATOM      5  C   UNL     1      12.115   7.588  20.273  0.00  0.00    +0.057 A 
ATOM      6  C   UNL     1      11.544   7.598  20.868  0.00  0.00    +0.005 A 
ATOM      7  C   UNL     1      10.878   8.081  20.791  0.00  0.00    +0.003 A 
ATOM      8  C   UNL     1      10.785   8.551  20.121  0.00  0.00    +0.037 A 
BRANCH   3   2
ATOM      1  C   UNL     1      11.228   8.663  18.108  0.00  0.00    +0.252 C 
ATOM      2  O   UNL     1      11.264   9.011  18.856  0.00  0.00    -0.471 OA
ENDBRANCH   3   2
ENDBRANCH   9   5
BRANCH  16  18
ATOM     18  O   UNL     1      15.332   6.325  21.118  0.00  0.00    -0.459 OA
BRANCH  18  19
ATOM     19  C   UNL     1      16.008   6.386  20.650  0.00  0.00    +0.245 A 
ATOM     20  C   UNL     1      16.729   6.595  20.992  0.00  0.00    +0.156 A 
ATOM     21  N   UNL     1      17.405   6.655  20.524  0.00  0.00    -0.236 NA
ATOM     22  C   UNL     1      17.361   6.508  19.714  0.00  0.00    +0.120 A 
ATOM     23  C   UNL     1      16.640   6.299  19.372  0.00  0.00    +0.123 A 
ATOM     24  N   UNL     1      15.963   6.238  19.840  0.00  0.00    -0.207 NA
ENDBRANCH  18  19
ENDBRANCH  16  18
TORSDOF 4
ENDMDL
