MODEL 1
REMARK VINA RESULT:     -12.1      0.000      0.000
REMARK  Name = 
REMARK  6 active torsions:
REMARK  status: ('A' for Active; 'I' for Inactive)
REMARK    1  A    between atoms: C_1  and  C_2
REMARK    2  A    between atoms: C_1  and  C_23
REMARK    3  A    between atoms: C_2  and  N_3
REMARK    4  A    between atoms: C_8  and  C_9
REMARK    5  A    between atoms: C_11  and  C_14
REMARK    6  A    between atoms: C_23  and  C_24
REMARK                            x       y       z     vdW  Elec       q    Type
REMARK                         _______ _______ _______ _____ _____    ______ ____
ROOT
ATOM      3  N   UNL     1      -4.238   1.338  24.538  0.00  0.00    -0.261 NA
ATOM      4  C   UNL     1      -4.974   1.286  24.906  0.00  0.00    +0.120 C 
ATOM      5  C   UNL     1      -5.301   1.950  25.272  0.00  0.00    +0.090 A 
ATOM      6  C   UNL     1      -4.891   2.666  25.269  0.00  0.00    +0.077 A 
ATOM      7  C   UNL     1      -4.154   2.718  24.900  0.00  0.00    +0.073 C 
ATOM      8  C   UNL     1      -3.828   2.054  24.535  0.00  0.00    +0.144 C 
ATOM     20  N   UNL     1      -5.347   3.223  25.671  0.00  0.00    -0.227 NA
ATOM     21  C   UNL     1      -6.039   2.852  25.922  0.00  0.00    +0.198 A 
ATOM     22  N   UNL     1      -6.010   2.065  25.675  0.00  0.00    -0.226 NA
ENDROOT
BRANCH   8   9
ATOM      9  C   UNL     1      -3.092   2.106  24.167  0.00  0.00    +0.251 A 
ATOM     10  N   UNL     1      -2.361   1.958  24.519  0.00  0.00    -0.188 NA
ATOM     11  C   UNL     1      -1.774   2.076  23.951  0.00  0.00    +0.223 A 
ATOM     12  N   UNL     1      -2.143   2.298  23.248  0.00  0.00    -0.054 NA
ATOM     13  O   UNL     1      -2.957   2.317  23.380  0.00  0.00    -0.336 OA
BRANCH  11  14
ATOM     14  C   UNL     1      -0.962   1.988  24.067  0.00  0.00    +0.139 A 
ATOM     15  C   UNL     1      -0.512   2.626  24.332  0.00  0.00    +0.121 A 
ATOM     16  N   UNL     1       0.301   2.537  24.448  0.00  0.00    -0.239 NA
ATOM     17  C   UNL     1       0.661   1.811  24.299  0.00  0.00    +0.120 A 
ATOM     18  C   UNL     1       0.211   1.173  24.034  0.00  0.00    +0.120 A 
ATOM     19  N   UNL     1      -0.601   1.261  23.918  0.00  0.00    -0.237 NA
ENDBRANCH  11  14
ENDBRANCH   8   9
BRANCH   3   2
ATOM      2  C   UNL     1      -3.912   0.674  24.173  0.00  0.00    +0.073 C 
BRANCH   2   1
ATOM      1  C   UNL     1      -4.147  -0.081  24.407  0.00  0.00    +0.022 C 
BRANCH   1  23
ATOM     23  C   UNL     1      -4.035  -0.723  23.899  0.00  0.00    +0.028 C 
BRANCH  23  24
ATOM     24  C   UNL     1      -3.856  -1.467  24.208  0.00  0.00    -0.022 A 
ATOM     25  C   UNL     1      -3.352  -1.533  24.856  0.00  0.00    -0.004 A 
ATOM     26  C   UNL     1      -3.173  -2.277  25.165  0.00  0.00    -0.000 A 
ATOM     27  C   UNL     1      -3.497  -2.955  24.825  0.00  0.00    -0.000 A 
ATOM     28  C   UNL     1      -4.002  -2.888  24.175  0.00  0.00    -0.000 A 
ATOM     29  C   UNL     1      -4.181  -2.144  23.866  0.00  0.00    -0.004 A 
ENDBRANCH  23  24
ENDBRANCH   1  23
ENDBRANCH   2   1
ENDBRANCH   3   2
TORSDOF 6
ENDMDL
MODEL 2
REMARK VINA RESULT:     -11.5      0.857      3.748
REMARK  Name = 
REMARK  6 active torsions:
REMARK  status: ('A' for Active; 'I' for Inactive)
REMARK    1  A    between atoms: C_1  and  C_2
REMARK    2  A    between atoms: C_1  and  C_23
REMARK    3  A    between atoms: C_2  and  N_3
REMARK    4  A    between atoms: C_8  and  C_9
REMARK    5  A    between atoms: C_11  and  C_14
REMARK    6  A    between atoms: C_23  and  C_24
REMARK                            x       y       z     vdW  Elec       q    Type
REMARK                         _______ _______ _______ _____ _____    ______ ____
ROOT
ATOM      3  N   UNL     1      -1.965   0.930  24.452  0.00  0.00    -0.261 NA
ATOM      4  C   UNL     1      -1.224   0.575  24.520  0.00  0.00    +0.120 C 
ATOM      5  C   UNL     1      -0.540   1.017  24.388  0.00  0.00    +0.090 A 
ATOM      6  C   UNL     1      -0.598   1.815  24.187  0.00  0.00    +0.077 A 
ATOM      7  C   UNL     1      -1.340   2.171  24.118  0.00  0.00    +0.073 C 
ATOM      8  C   UNL     1      -2.023   1.728  24.250  0.00  0.00    +0.144 C 
ATOM     20  N   UNL     1       0.166   2.110  24.089  0.00  0.00    -0.227 NA
ATOM     21  C   UNL     1       0.697   1.495  24.230  0.00  0.00    +0.198 A 
ATOM     22  N   UNL     1       0.260   0.820  24.415  0.00  0.00    -0.226 NA
ENDROOT
BRANCH   8   9
ATOM      9  C   UNL     1      -2.764   2.083  24.182  0.00  0.00    +0.251 A 
ATOM     10  N   UNL     1      -3.240   2.339  24.805  0.00  0.00    -0.188 NA
ATOM     11  C   UNL     1      -3.930   2.660  24.485  0.00  0.00    +0.223 A 
ATOM     12  N   UNL     1      -3.880   2.602  23.664  0.00  0.00    -0.054 NA
ATOM     13  O   UNL     1      -3.159   2.246  23.476  0.00  0.00    -0.336 OA
BRANCH  11  14
ATOM     14  C   UNL     1      -4.558   2.981  24.912  0.00  0.00    +0.139 A 
ATOM     15  C   UNL     1      -4.542   3.775  25.135  0.00  0.00    +0.121 A 
ATOM     16  N   UNL     1      -5.171   4.095  25.563  0.00  0.00    -0.239 NA
ATOM     17  C   UNL     1      -5.815   3.622  25.766  0.00  0.00    +0.120 A 
ATOM     18  C   UNL     1      -5.831   2.828  25.543  0.00  0.00    +0.120 A 
ATOM     19  N   UNL     1      -5.202   2.507  25.116  0.00  0.00    -0.237 NA
ENDBRANCH  11  14
ENDBRANCH   8   9
BRANCH   3   2
ATOM      2  C   UNL     1      -2.647   0.487  24.584  0.00  0.00    +0.073 C 
BRANCH   2   1
ATOM      1  C   UNL     1      -2.605  -0.336  24.623  0.00  0.00    +0.022 C 
BRANCH   1  23
ATOM     23  C   UNL     1      -3.202  -0.763  25.002  0.00  0.00    +0.028 C 
BRANCH  23  24
ATOM     24  C   UNL     1      -3.442  -1.492  24.700  0.00  0.00    -0.022 A 
ATOM     25  C   UNL     1      -4.026  -1.525  24.119  0.00  0.00    -0.004 A 
ATOM     26  C   UNL     1      -4.266  -2.254  23.817  0.00  0.00    -0.000 A 
ATOM     27  C   UNL     1      -3.923  -2.950  24.096  0.00  0.00    -0.000 A 
ATOM     28  C   UNL     1      -3.338  -2.917  24.678  0.00  0.00    -0.000 A 
ATOM     29  C   UNL     1      -3.098  -2.188  24.980  0.00  0.00    -0.004 A 
ENDBRANCH  23  24
ENDBRANCH   1  23
ENDBRANCH   2   1
ENDBRANCH   3   2
TORSDOF 6
ENDMDL
MODEL 3
REMARK VINA RESULT:     -11.3      1.811      4.094
REMARK  Name = 
REMARK  6 active torsions:
REMARK  status: ('A' for Active; 'I' for Inactive)
REMARK    1  A    between atoms: C_1  and  C_2
REMARK    2  A    between atoms: C_1  and  C_23
REMARK    3  A    between atoms: C_2  and  N_3
REMARK    4  A    between atoms: C_8  and  C_9
REMARK    5  A    between atoms: C_11  and  C_14
REMARK    6  A    between atoms: C_23  and  C_24
REMARK                            x       y       z     vdW  Elec       q    Type
REMARK                         _______ _______ _______ _____ _____    ______ ____
ROOT
ATOM      3  N   UNL     1      -3.678   2.133  25.075  0.00  0.00    -0.261 NA
ATOM      4  C   UNL     1      -4.295   2.617  25.330  0.00  0.00    +0.120 C 
ATOM      5  C   UNL     1      -5.076   2.356  25.271  0.00  0.00    +0.090 A 
ATOM      6  C   UNL     1      -5.239   1.610  24.958  0.00  0.00    +0.077 A 
ATOM      7  C   UNL     1      -4.621   1.126  24.703  0.00  0.00    +0.073 C 
ATOM      8  C   UNL     1      -3.841   1.388  24.762  0.00  0.00    +0.144 C 
ATOM     20  N   UNL     1      -6.056   1.502  24.969  0.00  0.00    -0.227 NA
ATOM     21  C   UNL     1      -6.399   2.180  25.289  0.00  0.00    +0.198 A 
ATOM     22  N   UNL     1      -5.793   2.708  25.476  0.00  0.00    -0.226 NA
ENDROOT
BRANCH   8   9
ATOM      9  C   UNL     1      -3.224   0.903  24.507  0.00  0.00    +0.251 A 
ATOM     10  N   UNL     1      -2.887   0.281  24.932  0.00  0.00    -0.188 NA
ATOM     11  C   UNL     1      -2.290  -0.051  24.469  0.00  0.00    +0.223 A 
ATOM     12  N   UNL     1      -2.257   0.366  23.759  0.00  0.00    -0.054 NA
ATOM     13  O   UNL     1      -2.834   0.956  23.781  0.00  0.00    -0.336 OA
BRANCH  11  14
ATOM     14  C   UNL     1      -1.810  -0.688  24.681  0.00  0.00    +0.139 A 
ATOM     15  C   UNL     1      -1.045  -0.554  24.958  0.00  0.00    +0.121 A 
ATOM     16  N   UNL     1      -0.566  -1.192  25.170  0.00  0.00    -0.239 NA
ATOM     17  C   UNL     1      -0.852  -1.962  25.104  0.00  0.00    +0.120 A 
ATOM     18  C   UNL     1      -1.617  -2.096  24.827  0.00  0.00    +0.120 A 
ATOM     19  N   UNL     1      -2.097  -1.459  24.616  0.00  0.00    -0.237 NA
ENDBRANCH  11  14
ENDBRANCH   8   9
BRANCH   3   2
ATOM      2  C   UNL     1      -2.898   2.395  25.133  0.00  0.00    +0.073 C 
BRANCH   2   1
ATOM      1  C   UNL     1      -2.740   3.194  25.259  0.00  0.00    +0.022 C 
BRANCH   1  23
ATOM     23  C   UNL     1      -2.036   3.423  25.625  0.00  0.00    +0.028 C 
BRANCH  23  24
ATOM     24  C   UNL     1      -1.610   4.067  25.334  0.00  0.00    -0.022 A 
ATOM     25  C   UNL     1      -0.873   3.949  24.983  0.00  0.00    -0.004 A 
ATOM     26  C   UNL     1      -0.447   4.593  24.692  0.00  0.00    -0.000 A 
ATOM     27  C   UNL     1      -0.758   5.354  24.751  0.00  0.00    -0.000 A 
ATOM     28  C   UNL     1      -1.496   5.472  25.103  0.00  0.00    -0.000 A 
ATOM     29  C   UNL     1      -1.922   4.829  25.394  0.00  0.00    -0.004 A 
ENDBRANCH  23  24
ENDBRANCH   1  23
ENDBRANCH   2   1
ENDBRANCH   3   2
TORSDOF 6
ENDMDL
MODEL 4
REMARK VINA RESULT:     -11.3      2.136      4.108
REMARK  Name = 
REMARK  6 active torsions:
REMARK  status: ('A' for Active; 'I' for Inactive)
REMARK    1  A    between atoms: C_1  and  C_2
REMARK    2  A    between atoms: C_1  and  C_23
REMARK    3  A    between atoms: C_2  and  N_3
REMARK    4  A    between atoms: C_8  and  C_9
REMARK    5  A    between atoms: C_11  and  C_14
REMARK    6  A    between atoms: C_23  and  C_24
REMARK                            x       y       z     vdW  Elec       q    Type
REMARK                         _______ _______ _______ _____ _____    ______ ____
ROOT
ATOM      3  N   UNL     1      -0.606   0.445  24.353  0.00  0.00    -0.261 NA
ATOM      4  C   UNL     1      -0.320  -0.144  23.852  0.00  0.00    +0.120 C 
ATOM      5  C   UNL     1       0.395  -0.039  23.455  0.00  0.00    +0.090 A 
ATOM      6  C   UNL     1       0.825   0.658  23.560  0.00  0.00    +0.077 A 
ATOM      7  C   UNL     1       0.540   1.248  24.062  0.00  0.00    +0.073 C 
ATOM      8  C   UNL     1      -0.176   1.141  24.458  0.00  0.00    +0.144 C 
ATOM     20  N   UNL     1       1.508   0.608  23.100  0.00  0.00    -0.227 NA
ATOM     21  C   UNL     1       1.500  -0.119  22.710  0.00  0.00    +0.198 A 
ATOM     22  N   UNL     1       0.812  -0.518  22.930  0.00  0.00    -0.226 NA
ENDROOT
BRANCH   8   9
ATOM      9  C   UNL     1      -0.461   1.731  24.959  0.00  0.00    +0.251 A 
ATOM     10  N   UNL     1      -0.833   2.428  24.725  0.00  0.00    -0.188 NA
ATOM     11  C   UNL     1      -1.026   2.855  25.404  0.00  0.00    +0.223 A 
ATOM     12  N   UNL     1      -0.773   2.421  26.058  0.00  0.00    -0.054 NA
ATOM     13  O   UNL     1      -0.424   1.726  25.783  0.00  0.00    -0.336 OA
BRANCH  11  14
ATOM     14  C   UNL     1      -1.406   3.588  25.425  0.00  0.00    +0.139 A 
ATOM     15  C   UNL     1      -2.161   3.652  25.750  0.00  0.00    +0.121 A 
ATOM     16  N   UNL     1      -2.540   4.385  25.771  0.00  0.00    -0.239 NA
ATOM     17  C   UNL     1      -2.163   5.053  25.466  0.00  0.00    +0.120 A 
ATOM     18  C   UNL     1      -1.408   4.988  25.141  0.00  0.00    +0.120 A 
ATOM     19  N   UNL     1      -1.029   4.256  25.120  0.00  0.00    -0.237 NA
ENDBRANCH  11  14
ENDBRANCH   8   9
BRANCH   3   2
ATOM      2  C   UNL     1      -1.321   0.338  24.749  0.00  0.00    +0.073 C 
BRANCH   2   1
ATOM      1  C   UNL     1      -1.795  -0.315  24.577  0.00  0.00    +0.022 C 
BRANCH   1  23
ATOM     23  C   UNL     1      -2.510  -0.423  24.975  0.00  0.00    +0.028 C 
BRANCH  23  24
ATOM     24  C   UNL     1      -3.030  -1.017  24.736  0.00  0.00    -0.022 A 
ATOM     25  C   UNL     1      -3.658  -0.837  24.233  0.00  0.00    -0.004 A 
ATOM     26  C   UNL     1      -4.178  -1.431  23.994  0.00  0.00    -0.000 A 
ATOM     27  C   UNL     1      -4.070  -2.205  24.257  0.00  0.00    -0.000 A 
ATOM     28  C   UNL     1      -3.441  -2.386  24.760  0.00  0.00    -0.000 A 
ATOM     29  C   UNL     1      -2.921  -1.792  24.999  0.00  0.00    -0.004 A 
ENDBRANCH  23  24
ENDBRANCH   1  23
ENDBRANCH   2   1
ENDBRANCH   3   2
TORSDOF 6
ENDMDL
MODEL 5
REMARK VINA RESULT:     -10.9      1.558      3.692
REMARK  Name = 
REMARK  6 active torsions:
REMARK  status: ('A' for Active; 'I' for Inactive)
REMARK    1  A    between atoms: C_1  and  C_2
REMARK    2  A    between atoms: C_1  and  C_23
REMARK    3  A    between atoms: C_2  and  N_3
REMARK    4  A    between atoms: C_8  and  C_9
REMARK    5  A    between atoms: C_11  and  C_14
REMARK    6  A    between atoms: C_23  and  C_24
REMARK                            x       y       z     vdW  Elec       q    Type
REMARK                         _______ _______ _______ _____ _____    ______ ____
ROOT
ATOM      3  N   UNL     1      -3.288  -0.246  24.361  0.00  0.00    -0.261 NA
ATOM      4  C   UNL     1      -3.832  -0.865  24.386  0.00  0.00    +0.120 C 
ATOM      5  C   UNL     1      -3.570  -1.642  24.483  0.00  0.00    +0.090 A 
ATOM      6  C   UNL     1      -2.763  -1.799  24.554  0.00  0.00    +0.077 A 
ATOM      7  C   UNL     1      -2.218  -1.179  24.529  0.00  0.00    +0.073 C 
ATOM      8  C   UNL     1      -2.481  -0.403  24.432  0.00  0.00    +0.144 C 
ATOM     20  N   UNL     1      -2.668  -2.613  24.643  0.00  0.00    -0.227 NA
ATOM     21  C   UNL     1      -3.416  -2.960  24.627  0.00  0.00    +0.198 A 
ATOM     22  N   UNL     1      -3.973  -2.359  24.528  0.00  0.00    -0.226 NA
ENDROOT
BRANCH   8   9
ATOM      9  C   UNL     1      -1.936   0.216  24.407  0.00  0.00    +0.251 A 
ATOM     10  N   UNL     1      -1.632   0.622  25.057  0.00  0.00    -0.188 NA
ATOM     11  C   UNL     1      -1.107   1.195  24.778  0.00  0.00    +0.223 A 
ATOM     12  N   UNL     1      -1.088   1.143  23.956  0.00  0.00    -0.054 NA
ATOM     13  O   UNL     1      -1.600   0.537  23.725  0.00  0.00    -0.336 OA
BRANCH  11  14
ATOM     14  C   UNL     1      -0.679   1.726  25.241  0.00  0.00    +0.139 A 
ATOM     15  C   UNL     1       0.139   1.785  25.151  0.00  0.00    +0.121 A 
ATOM     16  N   UNL     1       0.567   2.317  25.615  0.00  0.00    -0.239 NA
ATOM     17  C   UNL     1       0.178   2.788  26.169  0.00  0.00    +0.120 A 
ATOM     18  C   UNL     1      -0.640   2.729  26.259  0.00  0.00    +0.120 A 
ATOM     19  N   UNL     1      -1.069   2.198  25.795  0.00  0.00    -0.237 NA
ENDBRANCH  11  14
ENDBRANCH   8   9
BRANCH   3   2
ATOM      2  C   UNL     1      -3.550   0.529  24.264  0.00  0.00    +0.073 C 
BRANCH   2   1
ATOM      1  C   UNL     1      -4.281   0.759  24.571  0.00  0.00    +0.022 C 
BRANCH   1  23
ATOM     23  C   UNL     1      -4.654   1.437  24.285  0.00  0.00    +0.028 C 
BRANCH  23  24
ATOM     24  C   UNL     1      -4.998   1.972  24.810  0.00  0.00    -0.022 A 
ATOM     25  C   UNL     1      -4.645   2.705  24.942  0.00  0.00    -0.004 A 
ATOM     26  C   UNL     1      -4.989   3.240  25.467  0.00  0.00    -0.000 A 
ATOM     27  C   UNL     1      -5.686   3.042  25.861  0.00  0.00    -0.000 A 
ATOM     28  C   UNL     1      -6.040   2.307  25.729  0.00  0.00    -0.000 A 
ATOM     29  C   UNL     1      -5.696   1.772  25.204  0.00  0.00    -0.004 A 
ENDBRANCH  23  24
ENDBRANCH   1  23
ENDBRANCH   2   1
ENDBRANCH   3   2
TORSDOF 6
ENDMDL
MODEL 6
REMARK VINA RESULT:      -9.1     15.826     18.656
REMARK  Name = 
REMARK  6 active torsions:
REMARK  status: ('A' for Active; 'I' for Inactive)
REMARK    1  A    between atoms: C_1  and  C_2
REMARK    2  A    between atoms: C_1  and  C_23
REMARK    3  A    between atoms: C_2  and  N_3
REMARK    4  A    between atoms: C_8  and  C_9
REMARK    5  A    between atoms: C_11  and  C_14
REMARK    6  A    between atoms: C_23  and  C_24
REMARK                            x       y       z     vdW  Elec       q    Type
REMARK                         _______ _______ _______ _____ _____    ______ ____
ROOT
ATOM      3  N   UNL     1      12.815   7.187  19.900  0.00  0.00    -0.261 NA
ATOM      4  C   UNL     1      12.783   6.702  20.566  0.00  0.00    +0.120 C 
ATOM      5  C   UNL     1      12.087   6.650  21.006  0.00  0.00    +0.090 A 
ATOM      6  C   UNL     1      11.423   7.084  20.780  0.00  0.00    +0.077 A 
ATOM      7  C   UNL     1      11.455   7.570  20.113  0.00  0.00    +0.073 C 
ATOM      8  C   UNL     1      12.151   7.621  19.674  0.00  0.00    +0.144 C 
ATOM     20  N   UNL     1      10.819   6.924  21.317  0.00  0.00    -0.227 NA
ATOM     21  C   UNL     1      11.108   6.391  21.875  0.00  0.00    +0.198 A 
ATOM     22  N   UNL     1      11.892   6.222  21.683  0.00  0.00    -0.226 NA
ENDROOT
BRANCH   8   9
ATOM      9  C   UNL     1      12.183   8.106  19.007  0.00  0.00    +0.251 A 
ATOM     10  N   UNL     1      11.752   8.005  18.312  0.00  0.00    -0.188 NA
ATOM     11  C   UNL     1      11.954   8.615  17.794  0.00  0.00    +0.223 A 
ATOM     12  N   UNL     1      12.510   9.094  18.170  0.00  0.00    -0.054 NA
ATOM     13  O   UNL     1      12.652   8.780  18.921  0.00  0.00    -0.336 OA
BRANCH  11  14
ATOM     14  C   UNL     1      11.652   8.727  17.035  0.00  0.00    +0.139 A 
ATOM     15  C   UNL     1      12.148   8.981  16.427  0.00  0.00    +0.121 A 
ATOM     16  N   UNL     1      11.845   9.093  15.667  0.00  0.00    -0.239 NA
ATOM     17  C   UNL     1      11.047   8.949  15.516  0.00  0.00    +0.120 A 
ATOM     18  C   UNL     1      10.551   8.694  16.124  0.00  0.00    +0.120 A 
ATOM     19  N   UNL     1      10.853   8.583  16.884  0.00  0.00    -0.237 NA
ENDBRANCH  11  14
ENDBRANCH   8   9
BRANCH   3   2
ATOM      2  C   UNL     1      13.511   7.238  19.460  0.00  0.00    +0.073 C 
BRANCH   2   1
ATOM      1  C   UNL     1      14.230   7.021  19.800  0.00  0.00    +0.022 C 
BRANCH   1  23
ATOM     23  C   UNL     1      14.903   6.943  19.328  0.00  0.00    +0.028 C 
BRANCH  23  24
ATOM     24  C   UNL     1      15.652   6.937  19.674  0.00  0.00    -0.022 A 
ATOM     25  C   UNL     1      16.030   6.221  19.827  0.00  0.00    -0.004 A 
ATOM     26  C   UNL     1      16.779   6.215  20.173  0.00  0.00    -0.000 A 
ATOM     27  C   UNL     1      17.150   6.926  20.367  0.00  0.00    -0.000 A 
ATOM     28  C   UNL     1      16.771   7.644  20.214  0.00  0.00    -0.000 A 
ATOM     29  C   UNL     1      16.022   7.649  19.868  0.00  0.00    -0.004 A 
ENDBRANCH  23  24
ENDBRANCH   1  23
ENDBRANCH   2   1
ENDBRANCH   3   2
TORSDOF 6
ENDMDL
MODEL 7
REMARK VINA RESULT:      -8.8     15.639     18.515
REMARK  Name = 
REMARK  6 active torsions:
REMARK  status: ('A' for Active; 'I' for Inactive)
REMARK    1  A    between atoms: C_1  and  C_2
REMARK    2  A    between atoms: C_1  and  C_23
REMARK    3  A    between atoms: C_2  and  N_3
REMARK    4  A    between atoms: C_8  and  C_9
REMARK    5  A    between atoms: C_11  and  C_14
REMARK    6  A    between atoms: C_23  and  C_24
REMARK                            x       y       z     vdW  Elec       q    Type
REMARK                         _______ _______ _______ _____ _____    ______ ____
ROOT
ATOM      3  N   UNL     1      13.550   7.684  19.171  0.00  0.00    -0.261 NA
ATOM      4  C   UNL     1      14.277   7.681  18.782  0.00  0.00    +0.120 C 
ATOM      5  C   UNL     1      14.882   7.184  19.041  0.00  0.00    +0.090 A 
ATOM      6  C   UNL     1      14.760   6.690  19.691  0.00  0.00    +0.077 A 
ATOM      7  C   UNL     1      14.032   6.693  20.080  0.00  0.00    +0.073 C 
ATOM      8  C   UNL     1      13.427   7.190  19.820  0.00  0.00    +0.144 C 
ATOM     20  N   UNL     1      15.453   6.263  19.820  0.00  0.00    -0.227 NA
ATOM     21  C   UNL     1      16.004   6.493  19.252  0.00  0.00    +0.198 A 
ATOM     22  N   UNL     1      15.651   7.062  18.771  0.00  0.00    -0.226 NA
ENDROOT
BRANCH   8   9
ATOM      9  C   UNL     1      12.700   7.192  20.210  0.00  0.00    +0.251 A 
ATOM     10  N   UNL     1      12.485   7.686  20.834  0.00  0.00    -0.188 NA
ATOM     11  C   UNL     1      11.712   7.500  21.053  0.00  0.00    +0.223 A 
ATOM     12  N   UNL     1      11.449   6.890  20.565  0.00  0.00    -0.054 NA
ATOM     13  O   UNL     1      12.060   6.699  20.043  0.00  0.00    -0.336 OA
BRANCH  11  14
ATOM     14  C   UNL     1      11.279   7.861  21.656  0.00  0.00    +0.139 A 
ATOM     15  C   UNL     1      10.566   7.531  21.906  0.00  0.00    +0.121 A 
ATOM     16  N   UNL     1      10.133   7.892  22.509  0.00  0.00    -0.239 NA
ATOM     17  C   UNL     1      10.414   8.583  22.861  0.00  0.00    +0.120 A 
ATOM     18  C   UNL     1      11.127   8.913  22.611  0.00  0.00    +0.120 A 
ATOM     19  N   UNL     1      11.560   8.552  22.008  0.00  0.00    -0.237 NA
ENDBRANCH  11  14
ENDBRANCH   8   9
BRANCH   3   2
ATOM      2  C   UNL     1      12.945   8.180  18.911  0.00  0.00    +0.073 C 
BRANCH   2   1
ATOM      1  C   UNL     1      12.808   8.275  18.103  0.00  0.00    +0.022 C 
BRANCH   1  23
ATOM     23  C   UNL     1      12.425   8.952  17.826  0.00  0.00    +0.028 C 
BRANCH  23  24
ATOM     24  C   UNL     1      11.947   8.911  17.155  0.00  0.00    -0.022 A 
ATOM     25  C   UNL     1      12.260   9.089  16.414  0.00  0.00    -0.004 A 
ATOM     26  C   UNL     1      11.782   9.048  15.743  0.00  0.00    -0.000 A 
ATOM     27  C   UNL     1      10.990   8.827  15.813  0.00  0.00    -0.000 A 
ATOM     28  C   UNL     1      10.677   8.648  16.556  0.00  0.00    -0.000 A 
ATOM     29  C   UNL     1      11.155   8.690  17.227  0.00  0.00    -0.004 A 
ENDBRANCH  23  24
ENDBRANCH   1  23
ENDBRANCH   2   1
ENDBRANCH   3   2
TORSDOF 6
ENDMDL
MODEL 8
REMARK VINA RESULT:      -8.7     16.179     18.865
REMARK  Name = 
REMARK  6 active torsions:
REMARK  status: ('A' for Active; 'I' for Inactive)
REMARK    1  A    between atoms: C_1  and  C_2
REMARK    2  A    between atoms: C_1  and  C_23
REMARK    3  A    between atoms: C_2  and  N_3
REMARK    4  A    between atoms: C_8  and  C_9
REMARK    5  A    between atoms: C_11  and  C_14
REMARK    6  A    between atoms: C_23  and  C_24
REMARK                            x       y       z     vdW  Elec       q    Type
REMARK                         _______ _______ _______ _____ _____    ______ ____
ROOT
ATOM      3  N   UNL     1      12.913   7.821  18.894  0.00  0.00    -0.261 NA
ATOM      4  C   UNL     1      12.179   7.908  18.530  0.00  0.00    +0.120 C 
ATOM      5  C   UNL     1      12.135   8.127  17.735  0.00  0.00    +0.090 A 
ATOM      6  C   UNL     1      12.827   8.260  17.306  0.00  0.00    +0.077 A 
ATOM      7  C   UNL     1      13.562   8.173  17.671  0.00  0.00    +0.073 C 
ATOM      8  C   UNL     1      13.605   7.954  18.465  0.00  0.00    +0.144 C 
ATOM     20  N   UNL     1      12.613   8.468  16.537  0.00  0.00    -0.227 NA
ATOM     21  C   UNL     1      11.790   8.464  16.491  0.00  0.00    +0.198 A 
ATOM     22  N   UNL     1      11.495   8.253  17.231  0.00  0.00    -0.226 NA
ENDROOT
BRANCH   8   9
ATOM      9  C   UNL     1      14.340   7.869  18.829  0.00  0.00    +0.251 A 
ATOM     10  N   UNL     1      14.826   7.203  18.791  0.00  0.00    -0.188 NA
ATOM     11  C   UNL     1      15.505   7.357  19.234  0.00  0.00    +0.223 A 
ATOM     12  N   UNL     1      15.439   8.117  19.546  0.00  0.00    -0.054 NA
ATOM     13  O   UNL     1      14.718   8.434  19.295  0.00  0.00    -0.336 OA
BRANCH  11  14
ATOM     14  C   UNL     1      16.139   6.840  19.345  0.00  0.00    +0.139 A 
ATOM     15  C   UNL     1      16.629   6.925  20.002  0.00  0.00    +0.121 A 
ATOM     16  N   UNL     1      17.263   6.407  20.113  0.00  0.00    -0.239 NA
ATOM     17  C   UNL     1      17.405   5.806  19.566  0.00  0.00    +0.120 A 
ATOM     18  C   UNL     1      16.914   5.722  18.909  0.00  0.00    +0.120 A 
ATOM     19  N   UNL     1      16.280   6.239  18.798  0.00  0.00    -0.237 NA
ENDBRANCH  11  14
ENDBRANCH   8   9
BRANCH   3   2
ATOM      2  C   UNL     1      12.956   7.603  19.688  0.00  0.00    +0.073 C 
BRANCH   2   1
ATOM      1  C   UNL     1      12.269   7.559  20.142  0.00  0.00    +0.022 C 
BRANCH   1  23
ATOM     23  C   UNL     1      12.312   7.343  20.937  0.00  0.00    +0.028 C 
BRANCH  23  24
ATOM     24  C   UNL     1      11.651   7.423  21.424  0.00  0.00    -0.022 A 
ATOM     25  C   UNL     1      11.513   8.134  21.818  0.00  0.00    -0.004 A 
ATOM     26  C   UNL     1      10.851   8.214  22.304  0.00  0.00    -0.000 A 
ATOM     27  C   UNL     1      10.327   7.584  22.396  0.00  0.00    -0.000 A 
ATOM     28  C   UNL     1      10.465   6.872  22.000  0.00  0.00    -0.000 A 
ATOM     29  C   UNL     1      11.127   6.792  21.514  0.00  0.00    -0.004 A 
ENDBRANCH  23  24
ENDBRANCH   1  23
ENDBRANCH   2   1
ENDBRANCH   3   2
TORSDOF 6
ENDMDL
