REMARK  Name = 
REMARK  8 active torsions:
REMARK  status: ('A' for Active; 'I' for Inactive)
REMARK    1  A    between atoms: N_6  and  C_7
REMARK    2  A    between atoms: C_7  and  C_8
REMARK    3  A    between atoms: C_11  and  C_14
REMARK    4  A    between atoms: C_22  and  C_23
REMARK    5  A    between atoms: C_23  and  C_24
REMARK    6  A    between atoms: C_24  and  C_25
REMARK    7  A    between atoms: N_27  and  C_28
REMARK    8  A    between atoms: C_28  and  C_29
REMARK                            x       y       z     vdW  Elec       q    Type
REMARK                         _______ _______ _______ _____ _____    ______ ____
ROOT
ATOM      1  C   UNL     1       0.792  -2.133   0.000  0.00  0.00    +0.090 C 
ATOM      2  N   UNL     1       0.669  -1.318   0.000  0.00  0.00    -0.271 NA
ATOM      3  C   UNL     1      -0.119  -1.074   0.000  0.00  0.00    +0.083 C 
ATOM      4  C   UNL     1      -0.757  -1.598   0.000  0.00  0.00    +0.035 C 
ATOM      5  C   UNL     1      -1.452  -1.154   0.000  0.00  0.00    +0.074 C 
ATOM      6  N   UNL     1      -1.244  -0.356   0.000  0.00  0.00    -0.262 NA
ATOM     17  C   UNL     1      -0.421  -0.306   0.000  0.00  0.00    +0.151 C 
ATOM     18  C   UNL     1      -0.008   0.408   0.000  0.00  0.00    +0.257 C 
ATOM     19  O   UNL     1      -0.473   1.090   0.000  0.00  0.00    -0.272 OA
ATOM     20  N   UNL     1       0.807   0.531   0.000  0.00  0.00    -0.203 NA
ATOM     21  C   UNL     1       1.412  -0.030   0.000  0.00  0.00    +0.131 C 
ATOM     22  C   UNL     1       1.351  -0.853   0.000  0.00  0.00    +0.080 C 
ENDROOT
BRANCH   6   7
ATOM      7  C   UNL     1      -1.768   0.281   0.000  0.00  0.00    +0.100 C 
BRANCH   7   8
ATOM      8  C   UNL     1      -2.582   0.146   0.000  0.00  0.00    -0.006 A 
ATOM      9  C   UNL     1      -2.872  -0.626   0.000  0.00  0.00    -0.003 A 
ATOM     10  C   UNL     1      -3.686  -0.761   0.000  0.00  0.00    +0.006 A 
ATOM     11  C   UNL     1      -4.210  -0.124   0.000  0.00  0.00    +0.080 A 
ATOM     12  C   UNL     1      -3.920   0.648   0.000  0.00  0.00    +0.006 A 
ATOM     13  C   UNL     1      -3.106   0.784   0.000  0.00  0.00    -0.003 A 
BRANCH  11  14
ATOM     14  C   UNL     1      -5.024  -0.259   0.000  0.00  0.00    +0.388 C 
ATOM     15  O   UNL     1      -5.548   0.378   0.000  0.00  0.00    -0.241 OA
ATOM     16  O   UNL     1      -5.314  -1.032   0.000  0.00  0.00    -0.241 OA
ENDBRANCH  11  14
ENDBRANCH   7   8
ENDBRANCH   6   7
BRANCH  22  23
ATOM     23  C   UNL     1       2.065  -1.265   0.000  0.00  0.00    +0.027 C 
BRANCH  23  24
ATOM     24  C   UNL     1       2.780  -0.853   0.000  0.00  0.00    +0.088 C 
BRANCH  24  25
ATOM     25  C   UNL     1       3.494  -1.265   0.000  0.00  0.00    +0.242 C 
ATOM     26  O   UNL     1       3.494  -2.090   0.000  0.00  0.00    -0.273 OA
ATOM     27  N   UNL     1       4.208  -0.853   0.000  0.00  0.00    -0.191 NA
BRANCH  27  28
ATOM     28  C   UNL     1       4.923  -1.265   0.000  0.00  0.00    +0.191 C 
BRANCH  28  29
ATOM     29  C   UNL     1       5.637  -0.853   0.000  0.00  0.00    -0.054 C 
ATOM     30  C   UNL     1       6.352  -0.440   0.000  0.00  0.00    -0.012 C 
ENDBRANCH  28  29
ENDBRANCH  27  28
ENDBRANCH  24  25
ENDBRANCH  23  24
ENDBRANCH  22  23
TORSDOF 8
