MODEL 1
REMARK VINA RESULT:     -11.8      0.000      0.000
REMARK  Name = 
REMARK  10 active torsions:
REMARK  status: ('A' for Active; 'I' for Inactive)
REMARK    1  A    between atoms: C_2  and  C_4
REMARK    2  A    between atoms: C_4  and  C_5
REMARK    3  A    between atoms: C_4  and  N_12
REMARK    4  A    between atoms: C_5  and  C_6
REMARK    5  A    between atoms: C_13  and  C_15
REMARK    6  A    between atoms: C_17  and  N_18
REMARK    7  A    between atoms: C_19  and  C_21
REMARK    8  A    between atoms: C_21  and  C_22
REMARK    9  A    between atoms: C_22  and  C_23
REMARK   10  A    between atoms: C_23  and  C_24
REMARK                            x       y       z     vdW  Elec       q    Type
REMARK                         _______ _______ _______ _____ _____    ______ ____
ROOT
ATOM     15  C   UNL     1      -3.933   2.605  24.766  0.00  0.00    +0.033 C 
ATOM     16  C   UNL     1      -3.761   1.847  24.487  0.00  0.00    -0.002 C 
ATOM     17  C   UNL     1      -4.337   1.257  24.516  0.00  0.00    +0.150 C 
ATOM     31  C   UNL     1      -5.083   1.423  24.823  0.00  0.00    +0.206 C 
ATOM     32  O   UNL     1      -5.659   0.832  24.851  0.00  0.00    -0.218 OA
ATOM     33  C   UNL     1      -5.255   2.180  25.101  0.00  0.00    +0.189 C 
ATOM     34  O   UNL     1      -6.003   2.347  25.409  0.00  0.00    -0.220 OA
ATOM     35  C   UNL     1      -4.679   2.771  25.073  0.00  0.00    +0.066 C 
ENDROOT
BRANCH  15  13
ATOM     12  N   UNL     1      -2.741   3.196  25.286  0.00  0.00    -0.194 NA
ATOM     13  C   UNL     1      -3.357   3.194  24.737  0.00  0.00    +0.261 C 
ATOM     14  O   UNL     1      -3.397   3.783  24.160  0.00  0.00    -0.269 OA
BRANCH  12   4
ATOM      4  C   UNL     1      -2.165   3.786  25.257  0.00  0.00    +0.179 C 
BRANCH   4   2
ATOM      1  N   UNL     1      -2.023   5.205  25.315  0.00  0.00    -0.086 NA
ATOM      2  C   UNL     1      -2.286   4.500  25.651  0.00  0.00    +0.281 C 
ATOM      3  O   UNL     1      -2.669   4.509  26.381  0.00  0.00    -0.270 OA
ENDBRANCH   4   2
BRANCH   4   5
ATOM      5  C   UNL     1      -1.468   3.660  24.834  0.00  0.00    +0.057 C 
BRANCH   5   6
ATOM      6  C   UNL     1      -0.907   3.123  25.114  0.00  0.00    -0.020 A 
ATOM      7  C   UNL     1      -0.469   2.669  24.581  0.00  0.00    -0.004 A 
ATOM      8  C   UNL     1       0.092   2.132  24.862  0.00  0.00    -0.000 A 
ATOM      9  C   UNL     1       0.215   2.049  25.673  0.00  0.00    -0.000 A 
ATOM     10  C   UNL     1      -0.223   2.503  26.205  0.00  0.00    -0.000 A 
ATOM     11  C   UNL     1      -0.784   3.040  25.926  0.00  0.00    -0.004 A 
ENDBRANCH   5   6
ENDBRANCH   4   5
ENDBRANCH  12   4
ENDBRANCH  15  13
BRANCH  17  18
ATOM     18  N   UNL     1      -4.165   0.499  24.236  0.00  0.00    -0.200 NA
ATOM     19  C   UNL     1      -3.598   0.037  24.619  0.00  0.00    +0.242 C 
ATOM     20  O   UNL     1      -3.203   0.333  25.280  0.00  0.00    -0.273 OA
BRANCH  19  21
ATOM     21  C   UNL     1      -3.426  -0.719  24.340  0.00  0.00    +0.087 C 
BRANCH  21  22
ATOM     22  C   UNL     1      -2.830  -1.166  24.697  0.00  0.00    +0.019 C 
ATOM     27  C   UNL     1      -2.326  -0.685  24.256  0.00  0.00    +0.001 C 
ATOM     28  C   UNL     1      -1.550  -0.915  24.417  0.00  0.00    +0.000 C 
ATOM     29  C   UNL     1      -1.575  -1.537  24.957  0.00  0.00    +0.000 C 
ATOM     30  C   UNL     1      -2.367  -1.693  25.131  0.00  0.00    +0.001 C 
BRANCH  22  23
ATOM     23  C   UNL     1      -3.461  -1.553  25.064  0.00  0.00    +0.115 C 
BRANCH  23  24
ATOM     24  C   UNL     1      -3.639  -2.332  24.862  0.00  0.00    +0.365 C 
ATOM     25  O   UNL     1      -3.928  -2.508  24.109  0.00  0.00    -0.246 OA
ATOM     26  O   UNL     1      -3.530  -2.937  25.413  0.00  0.00    -0.246 OA
ENDBRANCH  23  24
ENDBRANCH  22  23
ENDBRANCH  21  22
ENDBRANCH  19  21
ENDBRANCH  17  18
TORSDOF 10
ENDMDL
MODEL 2
REMARK VINA RESULT:     -11.7      1.630      5.085
REMARK  Name = 
REMARK  10 active torsions:
REMARK  status: ('A' for Active; 'I' for Inactive)
REMARK    1  A    between atoms: C_2  and  C_4
REMARK    2  A    between atoms: C_4  and  C_5
REMARK    3  A    between atoms: C_4  and  N_12
REMARK    4  A    between atoms: C_5  and  C_6
REMARK    5  A    between atoms: C_13  and  C_15
REMARK    6  A    between atoms: C_17  and  N_18
REMARK    7  A    between atoms: C_19  and  C_21
REMARK    8  A    between atoms: C_21  and  C_22
REMARK    9  A    between atoms: C_22  and  C_23
REMARK   10  A    between atoms: C_23  and  C_24
REMARK                            x       y       z     vdW  Elec       q    Type
REMARK                         _______ _______ _______ _____ _____    ______ ____
ROOT
ATOM     15  C   UNL     1      -1.442   1.055  25.175  0.00  0.00    +0.033 C 
ATOM     16  C   UNL     1      -2.141   1.417  24.926  0.00  0.00    -0.002 C 
ATOM     17  C   UNL     1      -2.151   2.226  24.766  0.00  0.00    +0.150 C 
ATOM     31  C   UNL     1      -1.465   2.673  24.855  0.00  0.00    +0.206 C 
ATOM     32  O   UNL     1      -1.476   3.482  24.694  0.00  0.00    -0.218 OA
ATOM     33  C   UNL     1      -0.766   2.311  25.103  0.00  0.00    +0.189 C 
ATOM     34  O   UNL     1      -0.079   2.759  25.192  0.00  0.00    -0.220 OA
ATOM     35  C   UNL     1      -0.755   1.501  25.263  0.00  0.00    +0.066 C 
ENDROOT
BRANCH  15  13
ATOM     12  N   UNL     1      -1.716  -0.289  24.773  0.00  0.00    -0.194 NA
ATOM     13  C   UNL     1      -1.432   0.245  25.335  0.00  0.00    +0.261 C 
ATOM     14  O   UNL     1      -1.137  -0.030  26.055  0.00  0.00    -0.269 OA
BRANCH  12   4
ATOM      4  C   UNL     1      -1.706  -1.098  24.933  0.00  0.00    +0.179 C 
BRANCH   4   2
ATOM      1  N   UNL     1      -0.680  -2.025  25.292  0.00  0.00    -0.086 NA
ATOM      2  C   UNL     1      -1.048  -1.552  24.727  0.00  0.00    +0.281 C 
ATOM      3  O   UNL     1      -0.760  -1.532  23.955  0.00  0.00    -0.270 OA
ENDBRANCH   4   2
BRANCH   4   5
ATOM      5  C   UNL     1      -2.354  -1.453  25.300  0.00  0.00    +0.057 C 
BRANCH   5   6
ATOM      6  C   UNL     1      -2.971  -1.757  24.843  0.00  0.00    -0.020 A 
ATOM      7  C   UNL     1      -3.075  -2.574  24.781  0.00  0.00    -0.004 A 
ATOM      8  C   UNL     1      -3.692  -2.876  24.325  0.00  0.00    -0.000 A 
ATOM      9  C   UNL     1      -4.204  -2.364  23.930  0.00  0.00    -0.000 A 
ATOM     10  C   UNL     1      -4.100  -1.549  23.992  0.00  0.00    -0.000 A 
ATOM     11  C   UNL     1      -3.483  -1.244  24.449  0.00  0.00    -0.004 A 
ENDBRANCH   5   6
ENDBRANCH   4   5
ENDBRANCH  12   4
ENDBRANCH  15  13
BRANCH  17  18
ATOM     18  N   UNL     1      -2.851   2.588  24.517  0.00  0.00    -0.200 NA
ATOM     19  C   UNL     1      -3.533   2.526  24.976  0.00  0.00    +0.242 C 
ATOM     20  O   UNL     1      -3.517   2.102  25.684  0.00  0.00    -0.273 OA
BRANCH  19  21
ATOM     21  C   UNL     1      -4.231   2.888  24.728  0.00  0.00    +0.087 C 
BRANCH  21  22
ATOM     22  C   UNL     1      -4.948   2.692  25.088  0.00  0.00    +0.019 C 
ATOM     27  C   UNL     1      -4.946   2.065  24.553  0.00  0.00    +0.001 C 
ATOM     28  C   UNL     1      -5.630   1.621  24.678  0.00  0.00    +0.000 C 
ATOM     29  C   UNL     1      -6.055   1.975  25.290  0.00  0.00    +0.000 C 
ATOM     30  C   UNL     1      -5.634   2.637  25.544  0.00  0.00    +0.001 C 
BRANCH  22  23
ATOM     23  C   UNL     1      -4.800   3.362  25.548  0.00  0.00    +0.115 C 
BRANCH  23  24
ATOM     24  C   UNL     1      -5.235   4.051  25.426  0.00  0.00    +0.365 C 
ATOM     25  O   UNL     1      -5.027   4.568  24.817  0.00  0.00    -0.246 OA
ATOM     26  O   UNL     1      -5.879   4.224  25.912  0.00  0.00    -0.246 OA
ENDBRANCH  23  24
ENDBRANCH  22  23
ENDBRANCH  21  22
ENDBRANCH  19  21
ENDBRANCH  17  18
TORSDOF 10
ENDMDL
MODEL 3
REMARK VINA RESULT:     -11.5      1.580      3.253
REMARK  Name = 
REMARK  10 active torsions:
REMARK  status: ('A' for Active; 'I' for Inactive)
REMARK    1  A    between atoms: C_2  and  C_4
REMARK    2  A    between atoms: C_4  and  C_5
REMARK    3  A    between atoms: C_4  and  N_12
REMARK    4  A    between atoms: C_5  and  C_6
REMARK    5  A    between atoms: C_13  and  C_15
REMARK    6  A    between atoms: C_17  and  N_18
REMARK    7  A    between atoms: C_19  and  C_21
REMARK    8  A    between atoms: C_21  and  C_22
REMARK    9  A    between atoms: C_22  and  C_23
REMARK   10  A    between atoms: C_23  and  C_24
REMARK                            x       y       z     vdW  Elec       q    Type
REMARK                         _______ _______ _______ _____ _____    ______ ____
ROOT
ATOM     15  C   UNL     1      -0.548   1.637  24.824  0.00  0.00    +0.033 C 
ATOM     16  C   UNL     1      -1.071   1.042  25.057  0.00  0.00    -0.002 C 
ATOM     17  C   UNL     1      -0.957   0.268  24.797  0.00  0.00    +0.150 C 
ATOM     31  C   UNL     1      -0.320   0.087  24.306  0.00  0.00    +0.206 C 
ATOM     32  O   UNL     1      -0.206  -0.688  24.046  0.00  0.00    -0.218 OA
ATOM     33  C   UNL     1       0.203   0.681  24.073  0.00  0.00    +0.189 C 
ATOM     34  O   UNL     1       0.840   0.500  23.581  0.00  0.00    -0.220 OA
ATOM     35  C   UNL     1       0.089   1.456  24.333  0.00  0.00    +0.066 C 
ENDROOT
BRANCH  15  13
ATOM     12  N   UNL     1      -1.228   2.889  24.718  0.00  0.00    -0.194 NA
ATOM     13  C   UNL     1      -0.663   2.411  25.084  0.00  0.00    +0.261 C 
ATOM     14  O   UNL     1      -0.213   2.708  25.709  0.00  0.00    -0.269 OA
BRANCH  12   4
ATOM      4  C   UNL     1      -1.343   3.664  24.978  0.00  0.00    +0.179 C 
BRANCH   4   2
ATOM      1  N   UNL     1      -0.679   4.917  25.144  0.00  0.00    -0.086 NA
ATOM      2  C   UNL     1      -0.883   4.275  24.669  0.00  0.00    +0.281 C 
ATOM      3  O   UNL     1      -0.628   4.244  23.886  0.00  0.00    -0.270 OA
ENDBRANCH   4   2
BRANCH   4   5
ATOM      5  C   UNL     1      -1.918   3.826  25.546  0.00  0.00    +0.057 C 
BRANCH   5   6
ATOM      6  C   UNL     1      -2.718   3.764  25.353  0.00  0.00    -0.020 A 
ATOM      7  C   UNL     1      -3.276   3.622  25.944  0.00  0.00    -0.004 A 
ATOM      8  C   UNL     1      -4.075   3.561  25.750  0.00  0.00    -0.000 A 
ATOM      9  C   UNL     1      -4.317   3.641  24.965  0.00  0.00    -0.000 A 
ATOM     10  C   UNL     1      -3.760   3.782  24.375  0.00  0.00    -0.000 A 
ATOM     11  C   UNL     1      -2.960   3.844  24.568  0.00  0.00    -0.004 A 
ENDBRANCH   5   6
ENDBRANCH   4   5
ENDBRANCH  12   4
ENDBRANCH  15  13
BRANCH  17  18
ATOM     18  N   UNL     1      -1.480  -0.327  25.030  0.00  0.00    -0.200 NA
ATOM     19  C   UNL     1      -2.257  -0.324  24.753  0.00  0.00    +0.242 C 
ATOM     20  O   UNL     1      -2.511   0.274  24.244  0.00  0.00    -0.273 OA
BRANCH  19  21
ATOM     21  C   UNL     1      -2.780  -0.918  24.986  0.00  0.00    +0.087 C 
BRANCH  21  22
ATOM     22  C   UNL     1      -3.564  -0.903  24.726  0.00  0.00    +0.019 C 
ATOM     27  C   UNL     1      -3.641  -0.289  25.270  0.00  0.00    +0.001 C 
ATOM     28  C   UNL     1      -4.422  -0.023  25.245  0.00  0.00    +0.000 C 
ATOM     29  C   UNL     1      -4.826  -0.473  24.685  0.00  0.00    +0.000 C 
ATOM     30  C   UNL     1      -4.296  -1.018  24.363  0.00  0.00    +0.001 C 
BRANCH  22  23
ATOM     23  C   UNL     1      -3.321  -1.521  24.235  0.00  0.00    +0.115 C 
BRANCH  23  24
ATOM     24  C   UNL     1      -3.608  -2.284  24.361  0.00  0.00    +0.365 C 
ATOM     25  O   UNL     1      -4.087  -2.643  23.793  0.00  0.00    -0.246 OA
ATOM     26  O   UNL     1      -3.415  -2.689  25.054  0.00  0.00    -0.246 OA
ENDBRANCH  23  24
ENDBRANCH  22  23
ENDBRANCH  21  22
ENDBRANCH  19  21
ENDBRANCH  17  18
TORSDOF 10
ENDMDL
MODEL 4
REMARK VINA RESULT:     -11.4      1.444      3.139
REMARK  Name = 
REMARK  10 active torsions:
REMARK  status: ('A' for Active; 'I' for Inactive)
REMARK    1  A    between atoms: C_2  and  C_4
REMARK    2  A    between atoms: C_4  and  C_5
REMARK    3  A    between atoms: C_4  and  N_12
REMARK    4  A    between atoms: C_5  and  C_6
REMARK    5  A    between atoms: C_13  and  C_15
REMARK    6  A    between atoms: C_17  and  N_18
REMARK    7  A    between atoms: C_19  and  C_21
REMARK    8  A    between atoms: C_21  and  C_22
REMARK    9  A    between atoms: C_22  and  C_23
REMARK   10  A    between atoms: C_23  and  C_24
REMARK                            x       y       z     vdW  Elec       q    Type
REMARK                         _______ _______ _______ _____ _____    ______ ____
ROOT
ATOM     15  C   UNL     1      -1.157   1.820  24.566  0.00  0.00    +0.033 C 
ATOM     16  C   UNL     1      -1.608   1.188  24.849  0.00  0.00    -0.002 C 
ATOM     17  C   UNL     1      -1.297   0.424  24.841  0.00  0.00    +0.150 C 
ATOM     31  C   UNL     1      -0.537   0.291  24.552  0.00  0.00    +0.206 C 
ATOM     32  O   UNL     1      -0.227  -0.474  24.544  0.00  0.00    -0.218 OA
ATOM     33  C   UNL     1      -0.086   0.921  24.269  0.00  0.00    +0.189 C 
ATOM     34  O   UNL     1       0.675   0.787  23.980  0.00  0.00    -0.220 OA
ATOM     35  C   UNL     1      -0.397   1.686  24.277  0.00  0.00    +0.066 C 
ENDROOT
BRANCH  15  13
ATOM     12  N   UNL     1      -2.087   2.771  25.087  0.00  0.00    -0.194 NA
ATOM     13  C   UNL     1      -1.467   2.584  24.574  0.00  0.00    +0.261 C 
ATOM     14  O   UNL     1      -1.160   3.160  24.070  0.00  0.00    -0.269 OA
BRANCH  12   4
ATOM      4  C   UNL     1      -2.398   3.535  25.094  0.00  0.00    +0.179 C 
BRANCH   4   2
ATOM      1  N   UNL     1      -1.846   4.844  25.251  0.00  0.00    -0.086 NA
ATOM      2  C   UNL     1      -2.057   4.115  25.573  0.00  0.00    +0.281 C 
ATOM      3  O   UNL     1      -1.929   3.965  26.373  0.00  0.00    -0.270 OA
ENDBRANCH   4   2
BRANCH   4   5
ATOM      5  C   UNL     1      -3.049   3.719  24.623  0.00  0.00    +0.057 C 
BRANCH   5   6
ATOM      6  C   UNL     1      -3.797   3.433  24.823  0.00  0.00    -0.020 A 
ATOM      7  C   UNL     1      -4.232   2.995  24.275  0.00  0.00    -0.004 A 
ATOM      8  C   UNL     1      -4.979   2.709  24.476  0.00  0.00    -0.000 A 
ATOM      9  C   UNL     1      -5.292   2.860  25.224  0.00  0.00    -0.000 A 
ATOM     10  C   UNL     1      -4.857   3.297  25.772  0.00  0.00    -0.000 A 
ATOM     11  C   UNL     1      -4.109   3.584  25.572  0.00  0.00    -0.004 A 
ENDBRANCH   5   6
ENDBRANCH   4   5
ENDBRANCH  12   4
ENDBRANCH  15  13
BRANCH  17  18
ATOM     18  N   UNL     1      -1.748  -0.207  25.124  0.00  0.00    -0.200 NA
ATOM     19  C   UNL     1      -2.431  -0.439  24.723  0.00  0.00    +0.242 C 
ATOM     20  O   UNL     1      -2.662  -0.039  24.039  0.00  0.00    -0.273 OA
BRANCH  19  21
ATOM     21  C   UNL     1      -2.881  -1.069  25.005  0.00  0.00    +0.087 C 
BRANCH  21  22
ATOM     22  C   UNL     1      -3.499  -1.372  24.549  0.00  0.00    +0.019 C 
ATOM     27  C   UNL     1      -3.892  -0.685  24.783  0.00  0.00    +0.001 C 
ATOM     28  C   UNL     1      -4.644  -0.694  24.443  0.00  0.00    +0.000 C 
ATOM     29  C   UNL     1      -4.715  -1.385  23.999  0.00  0.00    +0.000 C 
ATOM     30  C   UNL     1      -4.007  -1.805  24.064  0.00  0.00    +0.001 C 
BRANCH  22  23
ATOM     23  C   UNL     1      -2.976  -1.995  24.411  0.00  0.00    +0.115 C 
BRANCH  23  24
ATOM     24  C   UNL     1      -3.163  -2.755  24.668  0.00  0.00    +0.365 C 
ATOM     25  O   UNL     1      -3.209  -3.376  24.126  0.00  0.00    -0.246 OA
ATOM     26  O   UNL     1      -3.304  -2.897  25.469  0.00  0.00    -0.246 OA
ENDBRANCH  23  24
ENDBRANCH  22  23
ENDBRANCH  21  22
ENDBRANCH  19  21
ENDBRANCH  17  18
TORSDOF 10
ENDMDL
MODEL 5
REMARK VINA RESULT:     -11.4      1.546      3.910
REMARK  Name = 
REMARK  10 active torsions:
REMARK  status: ('A' for Active; 'I' for Inactive)
REMARK    1  A    between atoms: C_2  and  C_4
REMARK    2  A    between atoms: C_4  and  C_5
REMARK    3  A    between atoms: C_4  and  N_12
REMARK    4  A    between atoms: C_5  and  C_6
REMARK    5  A    between atoms: C_13  and  C_15
REMARK    6  A    between atoms: C_17  and  N_18
REMARK    7  A    between atoms: C_19  and  C_21
REMARK    8  A    between atoms: C_21  and  C_22
REMARK    9  A    between atoms: C_22  and  C_23
REMARK   10  A    between atoms: C_23  and  C_24
REMARK                            x       y       z     vdW  Elec       q    Type
REMARK                         _______ _______ _______ _____ _____    ______ ____
ROOT
ATOM     15  C   UNL     1      -2.255  -0.698  24.482  0.00  0.00    +0.033 C 
ATOM     16  C   UNL     1      -2.836  -0.124  24.363  0.00  0.00    -0.002 C 
ATOM     17  C   UNL     1      -3.628  -0.345  24.306  0.00  0.00    +0.150 C 
ATOM     31  C   UNL     1      -3.840  -1.139  24.368  0.00  0.00    +0.206 C 
ATOM     32  O   UNL     1      -4.634  -1.361  24.310  0.00  0.00    -0.218 OA
ATOM     33  C   UNL     1      -3.260  -1.714  24.486  0.00  0.00    +0.189 C 
ATOM     34  O   UNL     1      -3.472  -2.508  24.548  0.00  0.00    -0.220 OA
ATOM     35  C   UNL     1      -2.467  -1.492  24.543  0.00  0.00    +0.066 C 
ENDROOT
BRANCH  15  13
ATOM     12  N   UNL     1      -1.217   0.256  24.247  0.00  0.00    -0.194 NA
ATOM     13  C   UNL     1      -1.462  -0.477  24.539  0.00  0.00    +0.261 C 
ATOM     14  O   UNL     1      -0.915  -0.986  24.887  0.00  0.00    -0.269 OA
BRANCH  12   4
ATOM      4  C   UNL     1      -0.425   0.478  24.304  0.00  0.00    +0.179 C 
BRANCH   4   2
ATOM      1  N   UNL     1       0.803  -0.088  23.844  0.00  0.00    -0.086 NA
ATOM      2  C   UNL     1       0.097   0.307  23.688  0.00  0.00    +0.281 C 
ATOM      3  O   UNL     1      -0.088   0.533  22.917  0.00  0.00    -0.270 OA
ENDBRANCH   4   2
BRANCH   4   5
ATOM      5  C   UNL     1      -0.155   0.870  24.977  0.00  0.00    +0.057 C 
BRANCH   5   6
ATOM      6  C   UNL     1      -0.336   1.668  25.090  0.00  0.00    -0.020 A 
ATOM      7  C   UNL     1      -0.583   1.934  25.832  0.00  0.00    -0.004 A 
ATOM      8  C   UNL     1      -0.764   2.731  25.944  0.00  0.00    -0.000 A 
ATOM      9  C   UNL     1      -0.699   3.261  25.316  0.00  0.00    -0.000 A 
ATOM     10  C   UNL     1      -0.453   2.995  24.576  0.00  0.00    -0.000 A 
ATOM     11  C   UNL     1      -0.271   2.198  24.462  0.00  0.00    -0.004 A 
ENDBRANCH   5   6
ENDBRANCH   4   5
ENDBRANCH  12   4
ENDBRANCH  15  13
BRANCH  17  18
ATOM     18  N   UNL     1      -4.210   0.229  24.187  0.00  0.00    -0.200 NA
ATOM     19  C   UNL     1      -4.280   0.860  24.714  0.00  0.00    +0.242 C 
ATOM     20  O   UNL     1      -3.770   0.916  25.360  0.00  0.00    -0.273 OA
BRANCH  19  21
ATOM     21  C   UNL     1      -4.861   1.433  24.595  0.00  0.00    +0.087 C 
BRANCH  21  22
ATOM     22  C   UNL     1      -4.749   2.199  24.882  0.00  0.00    +0.019 C 
ATOM     27  C   UNL     1      -4.361   2.318  24.164  0.00  0.00    +0.001 C 
ATOM     28  C   UNL     1      -4.095   3.099  24.144  0.00  0.00    +0.000 C 
ATOM     29  C   UNL     1      -4.319   3.462  24.850  0.00  0.00    +0.000 C 
ATOM     30  C   UNL     1      -4.723   2.906  25.307  0.00  0.00    +0.001 C 
BRANCH  22  23
ATOM     23  C   UNL     1      -5.160   1.919  25.541  0.00  0.00    +0.115 C 
BRANCH  23  24
ATOM     24  C   UNL     1      -5.922   2.193  25.698  0.00  0.00    +0.365 C 
ATOM     25  O   UNL     1      -6.533   2.042  25.164  0.00  0.00    -0.246 OA
ATOM     26  O   UNL     1      -6.074   2.617  26.390  0.00  0.00    -0.246 OA
ENDBRANCH  23  24
ENDBRANCH  22  23
ENDBRANCH  21  22
ENDBRANCH  19  21
ENDBRANCH  17  18
TORSDOF 10
ENDMDL
MODEL 6
REMARK VINA RESULT:     -11.4      1.104      4.568
REMARK  Name = 
REMARK  10 active torsions:
REMARK  status: ('A' for Active; 'I' for Inactive)
REMARK    1  A    between atoms: C_2  and  C_4
REMARK    2  A    between atoms: C_4  and  C_5
REMARK    3  A    between atoms: C_4  and  N_12
REMARK    4  A    between atoms: C_5  and  C_6
REMARK    5  A    between atoms: C_13  and  C_15
REMARK    6  A    between atoms: C_17  and  N_18
REMARK    7  A    between atoms: C_19  and  C_21
REMARK    8  A    between atoms: C_21  and  C_22
REMARK    9  A    between atoms: C_22  and  C_23
REMARK   10  A    between atoms: C_23  and  C_24
REMARK                            x       y       z     vdW  Elec       q    Type
REMARK                         _______ _______ _______ _____ _____    ______ ____
ROOT
ATOM     15  C   UNL     1      -4.328   1.037  24.881  0.00  0.00    +0.033 C 
ATOM     16  C   UNL     1      -3.689   1.507  24.653  0.00  0.00    -0.002 C 
ATOM     17  C   UNL     1      -3.794   2.317  24.537  0.00  0.00    +0.150 C 
ATOM     31  C   UNL     1      -4.536   2.657  24.650  0.00  0.00    +0.206 C 
ATOM     32  O   UNL     1      -4.641   3.468  24.534  0.00  0.00    -0.218 OA
ATOM     33  C   UNL     1      -5.175   2.188  24.878  0.00  0.00    +0.189 C 
ATOM     34  O   UNL     1      -5.918   2.528  24.991  0.00  0.00    -0.220 OA
ATOM     35  C   UNL     1      -5.071   1.377  24.994  0.00  0.00    +0.066 C 
ENDROOT
BRANCH  15  13
ATOM     12  N   UNL     1      -3.648  -0.180  24.566  0.00  0.00    -0.194 NA
ATOM     13  C   UNL     1      -4.224   0.227  24.996  0.00  0.00    +0.261 C 
ATOM     14  O   UNL     1      -4.693  -0.177  25.541  0.00  0.00    -0.269 OA
BRANCH  12   4
ATOM      4  C   UNL     1      -3.543  -0.989  24.682  0.00  0.00    +0.179 C 
BRANCH   4   2
ATOM      1  N   UNL     1      -4.219  -2.231  24.481  0.00  0.00    -0.086 NA
ATOM      2  C   UNL     1      -3.911  -1.530  24.178  0.00  0.00    +0.281 C 
ATOM      3  O   UNL     1      -3.971  -1.367  23.372  0.00  0.00    -0.270 OA
ENDBRANCH   4   2
BRANCH   4   5
ATOM      5  C   UNL     1      -3.069  -1.259  25.301  0.00  0.00    +0.057 C 
BRANCH   5   6
ATOM      6  C   UNL     1      -2.247  -1.238  25.230  0.00  0.00    -0.020 A 
ATOM      7  C   UNL     1      -1.792  -0.866  25.810  0.00  0.00    -0.004 A 
ATOM      8  C   UNL     1      -0.971  -0.846  25.739  0.00  0.00    -0.000 A 
ATOM      9  C   UNL     1      -0.603  -1.196  25.089  0.00  0.00    -0.000 A 
ATOM     10  C   UNL     1      -1.058  -1.567  24.509  0.00  0.00    -0.000 A 
ATOM     11  C   UNL     1      -1.880  -1.588  24.579  0.00  0.00    -0.004 A 
ENDBRANCH   5   6
ENDBRANCH   4   5
ENDBRANCH  12   4
ENDBRANCH  15  13
BRANCH  17  18
ATOM     18  N   UNL     1      -3.155   2.787  24.309  0.00  0.00    -0.200 NA
ATOM     19  C   UNL     1      -2.510   2.881  24.815  0.00  0.00    +0.242 C 
ATOM     20  O   UNL     1      -2.505   2.506  25.550  0.00  0.00    -0.273 OA
BRANCH  19  21
ATOM     21  C   UNL     1      -1.872   3.351  24.586  0.00  0.00    +0.087 C 
BRANCH  21  22
ATOM     22  C   UNL     1      -1.164   3.318  25.009  0.00  0.00    +0.019 C 
ATOM     27  C   UNL     1      -1.016   2.656  24.540  0.00  0.00    +0.001 C 
ATOM     28  C   UNL     1      -0.278   2.353  24.752  0.00  0.00    +0.000 C 
ATOM     29  C   UNL     1       0.030   2.829  25.352  0.00  0.00    +0.000 C 
ATOM     30  C   UNL     1      -0.518   3.425  25.511  0.00  0.00    +0.001 C 
BRANCH  22  23
ATOM     23  C   UNL     1      -1.461   3.987  25.390  0.00  0.00    +0.115 C 
BRANCH  23  24
ATOM     24  C   UNL     1      -1.227   4.739  25.145  0.00  0.00    +0.365 C 
ATOM     25  O   UNL     1      -1.663   5.402  25.372  0.00  0.00    -0.246 OA
ATOM     26  O   UNL     1      -0.557   4.829  24.672  0.00  0.00    -0.246 OA
ENDBRANCH  23  24
ENDBRANCH  22  23
ENDBRANCH  21  22
ENDBRANCH  19  21
ENDBRANCH  17  18
TORSDOF 10
ENDMDL
