MODEL 1
REMARK VINA RESULT:     -12.4      0.000      0.000
REMARK  Name = 
REMARK  6 active torsions:
REMARK  status: ('A' for Active; 'I' for Inactive)
REMARK    1  A    between atoms: C_5  and  C_6
REMARK    2  A    between atoms: C_6  and  N_7
REMARK    3  A    between atoms: C_8  and  C_10
REMARK    4  A    between atoms: C_17  and  C_18
REMARK    5  A    between atoms: C_18  and  N_19
REMARK    6  A    between atoms: C_21  and  C_24
REMARK                            x       y       z     vdW  Elec       q    Type
REMARK                         _______ _______ _______ _____ _____    ______ ____
ROOT
ATOM     10  C   UNL     1      -5.002   1.521  24.858  0.00  0.00    +0.094 C 
ATOM     11  C   UNL     1      -4.488   1.842  24.371  0.00  0.00    +0.081 C 
ATOM     12  N   UNL     1      -4.898   2.231  24.972  0.00  0.00    -0.272 NA
ATOM     13  C   UNL     1      -5.508   1.519  25.441  0.00  0.00    +0.072 C 
ATOM     14  C   UNL     1      -5.949   1.361  25.897  0.00  0.00    +0.018 C 
ATOM     15  C   UNL     1      -5.401   1.909  25.446  0.00  0.00    +0.013 C 
ATOM     16  C   UNL     1      -5.391   2.746  25.710  0.00  0.00    +0.019 C 
ATOM     17  C   UNL     1      -4.893   3.100  25.251  0.00  0.00    +0.082 C 
ENDROOT
BRANCH  10   8
ATOM      7  N   UNL     1      -4.533   0.173  24.779  0.00  0.00    -0.201 NA
ATOM      8  C   UNL     1      -5.155   0.714  24.768  0.00  0.00    +0.243 C 
ATOM      9  O   UNL     1      -5.931   0.450  24.668  0.00  0.00    -0.273 OA
BRANCH   7   6
ATOM      6  C   UNL     1      -4.686  -0.632  24.690  0.00  0.00    +0.141 C 
BRANCH   6   5
ATOM      1  F   UNL     1      -2.192  -2.795  24.676  0.00  0.00    -0.204 F 
ATOM      2  C   UNL     1      -2.816  -2.254  24.679  0.00  0.00    +0.140 A 
ATOM      3  C   UNL     1      -3.318  -2.200  24.028  0.00  0.00    +0.029 A 
ATOM      4  C   UNL     1      -3.942  -1.659  24.031  0.00  0.00    -0.000 A 
ATOM      5  C   UNL     1      -4.063  -1.173  24.686  0.00  0.00    -0.000 A 
ATOM     30  C   UNL     1      -3.560  -1.227  25.338  0.00  0.00    -0.000 A 
ATOM     31  C   UNL     1      -2.936  -1.768  25.335  0.00  0.00    +0.029 A 
ENDBRANCH   6   5
ENDBRANCH   7   6
ENDBRANCH  10   8
BRANCH  17  18
ATOM     18  C   UNL     1      -4.551   3.834  25.099  0.00  0.00    +0.145 C 
BRANCH  18  19
ATOM     19  N   UNL     1      -3.800   4.009  25.393  0.00  0.00    -0.229 N 
ATOM     20  C   UNL     1      -3.105   4.054  24.951  0.00  0.00    +0.118 A 
ATOM     21  C   UNL     1      -2.488   4.243  25.465  0.00  0.00    +0.123 A 
ATOM     22  N   UNL     1      -2.802   4.314  26.225  0.00  0.00    -0.129 NA
ATOM     23  N   UNL     1      -3.612   4.170  26.180  0.00  0.00    -0.064 NA
BRANCH  21  24
ATOM     24  C   UNL     1      -1.696   4.343  25.256  0.00  0.00    +0.021 A 
ATOM     25  C   UNL     1      -1.418   5.088  25.037  0.00  0.00    +0.002 A 
ATOM     26  C   UNL     1      -0.626   5.188  24.828  0.00  0.00    +0.000 A 
ATOM     27  C   UNL     1      -0.113   4.542  24.839  0.00  0.00    +0.000 A 
ATOM     28  C   UNL     1      -0.391   3.797  25.058  0.00  0.00    +0.000 A 
ATOM     29  C   UNL     1      -1.182   3.698  25.267  0.00  0.00    +0.002 A 
ENDBRANCH  21  24
ENDBRANCH  18  19
ENDBRANCH  17  18
TORSDOF 6
ENDMDL
MODEL 2
REMARK VINA RESULT:     -12.2      2.711      5.842
REMARK  Name = 
REMARK  6 active torsions:
REMARK  status: ('A' for Active; 'I' for Inactive)
REMARK    1  A    between atoms: C_5  and  C_6
REMARK    2  A    between atoms: C_6  and  N_7
REMARK    3  A    between atoms: C_8  and  C_10
REMARK    4  A    between atoms: C_17  and  C_18
REMARK    5  A    between atoms: C_18  and  N_19
REMARK    6  A    between atoms: C_21  and  C_24
REMARK                            x       y       z     vdW  Elec       q    Type
REMARK                         _______ _______ _______ _____ _____    ______ ____
ROOT
ATOM     10  C   UNL     1      -1.137   2.180  24.481  0.00  0.00    +0.094 C 
ATOM     11  C   UNL     1      -1.443   1.743  23.914  0.00  0.00    +0.081 C 
ATOM     12  N   UNL     1      -0.808   1.538  24.399  0.00  0.00    -0.272 NA
ATOM     13  C   UNL     1      -0.646   2.340  25.054  0.00  0.00    +0.072 C 
ATOM     14  C   UNL     1      -0.314   2.614  25.546  0.00  0.00    +0.018 C 
ATOM     15  C   UNL     1      -0.514   1.971  24.953  0.00  0.00    +0.013 C 
ATOM     16  C   UNL     1      -0.016   1.249  24.985  0.00  0.00    +0.019 C 
ATOM     17  C   UNL     1      -0.286   0.790  24.438  0.00  0.00    +0.082 C 
ENDROOT
BRANCH  10   8
ATOM      7  N   UNL     1      -2.282   2.980  24.783  0.00  0.00    -0.201 NA
ATOM      8  C   UNL     1      -1.478   2.921  24.612  0.00  0.00    +0.243 C 
ATOM      9  O   UNL     1      -1.013   3.602  24.572  0.00  0.00    -0.273 OA
BRANCH   7   6
ATOM      6  C   UNL     1      -2.623   3.720  24.914  0.00  0.00    +0.141 C 
BRANCH   6   5
ATOM      1  F   UNL     1      -5.833   3.957  25.641  0.00  0.00    -0.204 F 
ATOM      2  C   UNL     1      -5.031   3.897  25.459  0.00  0.00    +0.140 A 
ATOM      3  C   UNL     1      -4.789   3.834  24.673  0.00  0.00    +0.029 A 
ATOM      4  C   UNL     1      -3.987   3.775  24.491  0.00  0.00    -0.000 A 
ATOM      5  C   UNL     1      -3.425   3.779  25.095  0.00  0.00    -0.000 A 
ATOM     30  C   UNL     1      -3.667   3.842  25.882  0.00  0.00    -0.000 A 
ATOM     31  C   UNL     1      -4.470   3.901  26.064  0.00  0.00    +0.029 A 
ENDBRANCH   6   5
ENDBRANCH   7   6
ENDBRANCH  10   8
BRANCH  17  18
ATOM     18  C   UNL     1      -0.172   0.052  24.088  0.00  0.00    +0.145 C 
BRANCH  18  19
ATOM     19  N   UNL     1      -0.540  -0.616  24.405  0.00  0.00    -0.229 N 
ATOM     20  C   UNL     1      -1.319  -0.850  24.269  0.00  0.00    +0.118 A 
ATOM     21  C   UNL     1      -1.453  -1.546  24.693  0.00  0.00    +0.123 A 
ATOM     22  N   UNL     1      -0.755  -1.740  25.089  0.00  0.00    -0.129 NA
ATOM     23  N   UNL     1      -0.192  -1.166  24.911  0.00  0.00    -0.064 NA
BRANCH  21  24
ATOM     24  C   UNL     1      -2.159  -1.971  24.716  0.00  0.00    +0.021 A 
ATOM     25  C   UNL     1      -2.805  -1.676  25.136  0.00  0.00    +0.002 A 
ATOM     26  C   UNL     1      -3.512  -2.101  25.159  0.00  0.00    +0.000 A 
ATOM     27  C   UNL     1      -3.572  -2.822  24.762  0.00  0.00    +0.000 A 
ATOM     28  C   UNL     1      -2.926  -3.117  24.343  0.00  0.00    +0.000 A 
ATOM     29  C   UNL     1      -2.220  -2.692  24.320  0.00  0.00    +0.002 A 
ENDBRANCH  21  24
ENDBRANCH  18  19
ENDBRANCH  17  18
TORSDOF 6
ENDMDL
MODEL 3
REMARK VINA RESULT:     -12.1      3.145      6.563
REMARK  Name = 
REMARK  6 active torsions:
REMARK  status: ('A' for Active; 'I' for Inactive)
REMARK    1  A    between atoms: C_5  and  C_6
REMARK    2  A    between atoms: C_6  and  N_7
REMARK    3  A    between atoms: C_8  and  C_10
REMARK    4  A    between atoms: C_17  and  C_18
REMARK    5  A    between atoms: C_18  and  N_19
REMARK    6  A    between atoms: C_21  and  C_24
REMARK                            x       y       z     vdW  Elec       q    Type
REMARK                         _______ _______ _______ _____ _____    ______ ____
ROOT
ATOM     10  C   UNL     1      -0.192   1.213  24.839  0.00  0.00    +0.094 C 
ATOM     11  C   UNL     1      -0.534   1.079  25.525  0.00  0.00    +0.081 C 
ATOM     12  N   UNL     1      -0.358   0.514  24.950  0.00  0.00    -0.272 NA
ATOM     13  C   UNL     1       0.097   1.017  24.150  0.00  0.00    +0.072 C 
ATOM     14  C   UNL     1       0.372   1.011  23.558  0.00  0.00    +0.018 C 
ATOM     15  C   UNL     1      -0.023   0.653  24.279  0.00  0.00    +0.013 C 
ATOM     16  C   UNL     1      -0.153  -0.215  24.257  0.00  0.00    +0.019 C 
ATOM     17  C   UNL     1      -0.491  -0.388  24.919  0.00  0.00    +0.082 C 
ENDROOT
BRANCH  10   8
ATOM      7  N   UNL     1      -0.507   2.607  24.840  0.00  0.00    -0.201 NA
ATOM      8  C   UNL     1       0.015   1.994  24.666  0.00  0.00    +0.243 C 
ATOM      9  O   UNL     1       0.746   2.159  24.319  0.00  0.00    -0.273 OA
BRANCH   7   6
ATOM      6  C   UNL     1      -0.300   3.386  24.667  0.00  0.00    +0.141 C 
BRANCH   6   5
ATOM      1  F   UNL     1      -2.310   5.859  25.527  0.00  0.00    -0.204 F 
ATOM      2  C   UNL     1      -1.807   5.241  25.312  0.00  0.00    +0.140 A 
ATOM      3  C   UNL     1      -1.089   5.403  24.941  0.00  0.00    +0.029 A 
ATOM      4  C   UNL     1      -0.586   4.785  24.725  0.00  0.00    -0.000 A 
ATOM      5  C   UNL     1      -0.802   4.005  24.882  0.00  0.00    -0.000 A 
ATOM     30  C   UNL     1      -1.521   3.842  25.254  0.00  0.00    -0.000 A 
ATOM     31  C   UNL     1      -2.023   4.460  25.469  0.00  0.00    +0.029 A 
ENDBRANCH   6   5
ENDBRANCH   7   6
ENDBRANCH  10   8
BRANCH  17  18
ATOM     18  C   UNL     1      -0.795  -1.020  25.352  0.00  0.00    +0.145 C 
BRANCH  18  19
ATOM     19  N   UNL     1      -1.326  -1.545  25.000  0.00  0.00    -0.229 N 
ATOM     20  C   UNL     1      -2.127  -1.404  24.862  0.00  0.00    +0.118 A 
ATOM     21  C   UNL     1      -2.444  -2.075  24.500  0.00  0.00    +0.123 A 
ATOM     22  N   UNL     1      -1.838  -2.629  24.416  0.00  0.00    -0.129 NA
ATOM     23  N   UNL     1      -1.148  -2.302  24.725  0.00  0.00    -0.064 NA
BRANCH  21  24
ATOM     24  C   UNL     1      -3.228  -2.174  24.265  0.00  0.00    +0.021 A 
ATOM     25  C   UNL     1      -3.545  -2.933  24.191  0.00  0.00    +0.002 A 
ATOM     26  C   UNL     1      -4.329  -3.031  23.955  0.00  0.00    +0.000 A 
ATOM     27  C   UNL     1      -4.797  -2.371  23.795  0.00  0.00    +0.000 A 
ATOM     28  C   UNL     1      -4.481  -1.613  23.869  0.00  0.00    +0.000 A 
ATOM     29  C   UNL     1      -3.697  -1.515  24.104  0.00  0.00    +0.002 A 
ENDBRANCH  21  24
ENDBRANCH  18  19
ENDBRANCH  17  18
TORSDOF 6
ENDMDL
MODEL 4
REMARK VINA RESULT:     -12.1      2.293      3.637
REMARK  Name = 
REMARK  6 active torsions:
REMARK  status: ('A' for Active; 'I' for Inactive)
REMARK    1  A    between atoms: C_5  and  C_6
REMARK    2  A    between atoms: C_6  and  N_7
REMARK    3  A    between atoms: C_8  and  C_10
REMARK    4  A    between atoms: C_17  and  C_18
REMARK    5  A    between atoms: C_18  and  N_19
REMARK    6  A    between atoms: C_21  and  C_24
REMARK                            x       y       z     vdW  Elec       q    Type
REMARK                         _______ _______ _______ _____ _____    ______ ____
ROOT
ATOM     10  C   UNL     1      -0.742   0.152  24.994  0.00  0.00    +0.094 C 
ATOM     11  C   UNL     1      -1.048   0.370  25.676  0.00  0.00    +0.081 C 
ATOM     12  N   UNL     1      -0.601   0.843  25.168  0.00  0.00    -0.272 NA
ATOM     13  C   UNL     1      -0.342   0.253  24.342  0.00  0.00    +0.072 C 
ATOM     14  C   UNL     1      -0.044   0.183  23.765  0.00  0.00    +0.018 C 
ATOM     15  C   UNL     1      -0.305   0.622  24.502  0.00  0.00    +0.013 C 
ATOM     16  C   UNL     1      -0.050   1.460  24.561  0.00  0.00    +0.019 C 
ATOM     17  C   UNL     1      -0.333   1.714  25.224  0.00  0.00    +0.082 C 
ENDROOT
BRANCH  10   8
ATOM      7  N   UNL     1      -1.644  -0.915  24.695  0.00  0.00    -0.201 NA
ATOM      8  C   UNL     1      -0.874  -0.627  24.753  0.00  0.00    +0.243 C 
ATOM      9  O   UNL     1      -0.235  -1.116  24.569  0.00  0.00    -0.273 OA
BRANCH   7   6
ATOM      6  C   UNL     1      -1.776  -1.693  24.454  0.00  0.00    +0.141 C 
BRANCH   6   5
ATOM      1  F   UNL     1      -4.860  -2.794  24.035  0.00  0.00    -0.204 F 
ATOM      2  C   UNL     1      -4.089  -2.518  24.139  0.00  0.00    +0.140 A 
ATOM      3  C   UNL     1      -3.886  -1.757  23.896  0.00  0.00    +0.029 A 
ATOM      4  C   UNL     1      -3.115  -1.481  24.001  0.00  0.00    -0.000 A 
ATOM      5  C   UNL     1      -2.547  -1.967  24.349  0.00  0.00    -0.000 A 
ATOM     30  C   UNL     1      -2.750  -2.730  24.592  0.00  0.00    -0.000 A 
ATOM     31  C   UNL     1      -3.521  -3.005  24.487  0.00  0.00    +0.029 A 
ENDBRANCH   6   5
ENDBRANCH   7   6
ENDBRANCH  10   8
BRANCH  17  18
ATOM     18  C   UNL     1      -0.373   2.382  25.705  0.00  0.00    +0.145 C 
BRANCH  18  19
ATOM     19  N   UNL     1      -0.935   2.967  25.555  0.00  0.00    -0.229 N 
ATOM     20  C   UNL     1      -1.753   2.878  25.610  0.00  0.00    +0.118 A 
ATOM     21  C   UNL     1      -2.101   3.600  25.412  0.00  0.00    +0.123 A 
ATOM     22  N   UNL     1      -1.497   4.133  25.235  0.00  0.00    -0.129 NA
ATOM     23  N   UNL     1      -0.777   3.742  25.323  0.00  0.00    -0.064 NA
BRANCH  21  24
ATOM     24  C   UNL     1      -2.910   3.760  25.395  0.00  0.00    +0.021 A 
ATOM     25  C   UNL     1      -3.304   3.969  26.089  0.00  0.00    +0.002 A 
ATOM     26  C   UNL     1      -4.113   4.129  26.072  0.00  0.00    +0.000 A 
ATOM     27  C   UNL     1      -4.528   4.079  25.360  0.00  0.00    +0.000 A 
ATOM     28  C   UNL     1      -4.134   3.869  24.667  0.00  0.00    +0.000 A 
ATOM     29  C   UNL     1      -3.325   3.710  24.684  0.00  0.00    +0.002 A 
ENDBRANCH  21  24
ENDBRANCH  18  19
ENDBRANCH  17  18
TORSDOF 6
ENDMDL
MODEL 5
REMARK VINA RESULT:     -12.0      1.914      5.153
REMARK  Name = 
REMARK  6 active torsions:
REMARK  status: ('A' for Active; 'I' for Inactive)
REMARK    1  A    between atoms: C_5  and  C_6
REMARK    2  A    between atoms: C_6  and  N_7
REMARK    3  A    between atoms: C_8  and  C_10
REMARK    4  A    between atoms: C_17  and  C_18
REMARK    5  A    between atoms: C_18  and  N_19
REMARK    6  A    between atoms: C_21  and  C_24
REMARK                            x       y       z     vdW  Elec       q    Type
REMARK                         _______ _______ _______ _____ _____    ______ ____
ROOT
ATOM     10  C   UNL     1      -4.173   2.283  24.734  0.00  0.00    +0.094 C 
ATOM     11  C   UNL     1      -3.747   1.924  24.190  0.00  0.00    +0.081 C 
ATOM     12  N   UNL     1      -4.331   1.577  24.660  0.00  0.00    -0.272 NA
ATOM     13  C   UNL     1      -4.711   2.327  25.286  0.00  0.00    +0.072 C 
ATOM     14  C   UNL     1      -5.120   2.520  25.757  0.00  0.00    +0.018 C 
ATOM     15  C   UNL     1      -4.745   1.936  25.190  0.00  0.00    +0.013 C 
ATOM     16  C   UNL     1      -5.050   1.114  25.226  0.00  0.00    +0.019 C 
ATOM     17  C   UNL     1      -4.654   0.724  24.702  0.00  0.00    +0.082 C 
ENDROOT
BRANCH  10   8
ATOM      7  N   UNL     1      -3.258   3.360  24.942  0.00  0.00    -0.201 NA
ATOM      8  C   UNL     1      -4.031   3.087  24.855  0.00  0.00    +0.243 C 
ATOM      9  O   UNL     1      -4.662   3.617  24.889  0.00  0.00    -0.273 OA
BRANCH   7   6
ATOM      6  C   UNL     1      -3.116   4.163  25.063  0.00  0.00    +0.141 C 
BRANCH   6   5
ATOM      1  F   UNL     1      -0.026   5.322  24.992  0.00  0.00    -0.204 F 
ATOM      2  C   UNL     1      -0.799   5.033  25.010  0.00  0.00    +0.140 A 
ATOM      3  C   UNL     1      -1.436   5.556  25.020  0.00  0.00    +0.029 A 
ATOM      4  C   UNL     1      -2.208   5.267  25.038  0.00  0.00    -0.000 A 
ATOM      5  C   UNL     1      -2.344   4.454  25.046  0.00  0.00    -0.000 A 
ATOM     30  C   UNL     1      -1.706   3.929  25.035  0.00  0.00    -0.000 A 
ATOM     31  C   UNL     1      -0.934   4.219  25.018  0.00  0.00    +0.029 A 
ENDBRANCH   6   5
ENDBRANCH   7   6
ENDBRANCH  10   8
BRANCH  17  18
ATOM     18  C   UNL     1      -4.568  -0.025  24.371  0.00  0.00    +0.145 C 
BRANCH  18  19
ATOM     19  N   UNL     1      -4.051  -0.571  24.711  0.00  0.00    -0.229 N 
ATOM     20  C   UNL     1      -3.273  -0.714  24.475  0.00  0.00    +0.118 A 
ATOM     21  C   UNL     1      -2.963  -1.301  24.965  0.00  0.00    +0.123 A 
ATOM     22  N   UNL     1      -3.549  -1.520  25.503  0.00  0.00    -0.129 NA
ATOM     23  N   UNL     1      -4.221  -1.069  25.346  0.00  0.00    -0.064 NA
BRANCH  21  24
ATOM     24  C   UNL     1      -2.200  -1.613  24.925  0.00  0.00    +0.021 A 
ATOM     25  C   UNL     1      -1.568  -1.206  25.265  0.00  0.00    +0.002 A 
ATOM     26  C   UNL     1      -0.806  -1.518  25.224  0.00  0.00    +0.000 A 
ATOM     27  C   UNL     1      -0.676  -2.238  24.843  0.00  0.00    +0.000 A 
ATOM     28  C   UNL     1      -1.307  -2.645  24.503  0.00  0.00    +0.000 A 
ATOM     29  C   UNL     1      -2.069  -2.333  24.544  0.00  0.00    +0.002 A 
ENDBRANCH  21  24
ENDBRANCH  18  19
ENDBRANCH  17  18
TORSDOF 6
ENDMDL
MODEL 6
REMARK VINA RESULT:     -11.7      4.813      5.907
REMARK  Name = 
REMARK  6 active torsions:
REMARK  status: ('A' for Active; 'I' for Inactive)
REMARK    1  A    between atoms: C_5  and  C_6
REMARK    2  A    between atoms: C_6  and  N_7
REMARK    3  A    between atoms: C_8  and  C_10
REMARK    4  A    between atoms: C_17  and  C_18
REMARK    5  A    between atoms: C_18  and  N_19
REMARK    6  A    between atoms: C_21  and  C_24
REMARK                            x       y       z     vdW  Elec       q    Type
REMARK                         _______ _______ _______ _____ _____    ______ ____
ROOT
ATOM     10  C   UNL     1      -0.286  -0.331  24.038  0.00  0.00    +0.094 C 
ATOM     11  C   UNL     1      -0.008  -0.985  23.721  0.00  0.00    +0.081 C 
ATOM     12  N   UNL     1       0.287  -0.223  23.604  0.00  0.00    -0.272 NA
ATOM     13  C   UNL     1      -0.308   0.429  24.170  0.00  0.00    +0.072 C 
ATOM     14  C   UNL     1      -0.452   1.033  24.374  0.00  0.00    +0.018 C 
ATOM     15  C   UNL     1       0.009   0.413  23.918  0.00  0.00    +0.013 C 
ATOM     16  C   UNL     1       0.680   0.709  23.436  0.00  0.00    +0.019 C 
ATOM     17  C   UNL     1       0.983   0.092  23.105  0.00  0.00    +0.082 C 
ENDROOT
BRANCH  10   8
ATOM      7  N   UNL     1      -1.595  -0.840  24.303  0.00  0.00    -0.201 NA
ATOM      8  C   UNL     1      -0.939  -0.402  24.540  0.00  0.00    +0.243 C 
ATOM      9  O   UNL     1      -0.933  -0.033  25.278  0.00  0.00    -0.273 OA
BRANCH   7   6
ATOM      6  C   UNL     1      -2.246  -0.911  24.804  0.00  0.00    +0.141 C 
BRANCH   6   5
ATOM      1  F   UNL     1      -4.877  -2.665  23.858  0.00  0.00    -0.204 F 
ATOM      2  C   UNL     1      -4.220  -2.226  24.094  0.00  0.00    +0.140 A 
ATOM      3  C   UNL     1      -4.211  -1.408  23.992  0.00  0.00    +0.029 A 
ATOM      4  C   UNL     1      -3.553  -0.969  24.228  0.00  0.00    -0.000 A 
ATOM      5  C   UNL     1      -2.904  -1.349  24.567  0.00  0.00    -0.000 A 
ATOM     30  C   UNL     1      -2.913  -2.168  24.669  0.00  0.00    -0.000 A 
ATOM     31  C   UNL     1      -3.570  -2.607  24.433  0.00  0.00    +0.029 A 
ENDBRANCH   6   5
ENDBRANCH   7   6
ENDBRANCH  10   8
BRANCH  17  18
ATOM     18  C   UNL     1       1.585  -0.149  22.596  0.00  0.00    +0.145 C 
BRANCH  18  19
ATOM     19  N   UNL     1       2.353   0.134  22.702  0.00  0.00    -0.229 N 
ATOM     20  C   UNL     1       2.972  -0.272  23.065  0.00  0.00    +0.118 A 
ATOM     21  C   UNL     1       3.639   0.215  23.051  0.00  0.00    +0.123 A 
ATOM     22  N   UNL     1       3.430   0.921  22.678  0.00  0.00    -0.129 NA
ATOM     23  N   UNL     1       2.636   0.871  22.463  0.00  0.00    -0.064 NA
BRANCH  21  24
ATOM     24  C   UNL     1       4.382   0.028  23.356  0.00  0.00    +0.021 A 
ATOM     25  C   UNL     1       4.982   0.595  23.356  0.00  0.00    +0.002 A 
ATOM     26  C   UNL     1       5.726   0.408  23.661  0.00  0.00    +0.000 A 
ATOM     27  C   UNL     1       5.869  -0.345  23.965  0.00  0.00    +0.000 A 
ATOM     28  C   UNL     1       5.269  -0.911  23.965  0.00  0.00    +0.000 A 
ATOM     29  C   UNL     1       4.526  -0.724  23.660  0.00  0.00    +0.002 A 
ENDBRANCH  21  24
ENDBRANCH  18  19
ENDBRANCH  17  18
TORSDOF 6
ENDMDL
MODEL 7
REMARK VINA RESULT:     -11.2      4.224      5.870
REMARK  Name = 
REMARK  6 active torsions:
REMARK  status: ('A' for Active; 'I' for Inactive)
REMARK    1  A    between atoms: C_5  and  C_6
REMARK    2  A    between atoms: C_6  and  N_7
REMARK    3  A    between atoms: C_8  and  C_10
REMARK    4  A    between atoms: C_17  and  C_18
REMARK    5  A    between atoms: C_18  and  N_19
REMARK    6  A    between atoms: C_21  and  C_24
REMARK                            x       y       z     vdW  Elec       q    Type
REMARK                         _______ _______ _______ _____ _____    ______ ____
ROOT
ATOM     10  C   UNL     1       0.414   0.674  23.573  0.00  0.00    +0.094 C 
ATOM     11  C   UNL     1       0.508   1.445  23.617  0.00  0.00    +0.081 C 
ATOM     12  N   UNL     1      -0.102   1.009  23.961  0.00  0.00    -0.272 NA
ATOM     13  C   UNL     1       0.060   0.003  23.715  0.00  0.00    +0.072 C 
ATOM     14  C   UNL     1      -0.118  -0.625  23.745  0.00  0.00    +0.018 C 
ATOM     15  C   UNL     1      -0.188   0.253  23.913  0.00  0.00    +0.013 C 
ATOM     16  C   UNL     1      -0.875   0.498  24.402  0.00  0.00    +0.019 C 
ATOM     17  C   UNL     1      -0.818   1.257  24.469  0.00  0.00    +0.082 C 
ENDROOT
BRANCH  10   8
ATOM      7  N   UNL     1       1.774   0.445  23.200  0.00  0.00    -0.201 NA
ATOM      8  C   UNL     1       0.975   0.248  23.142  0.00  0.00    +0.243 C 
ATOM      9  O   UNL     1       0.737  -0.373  22.655  0.00  0.00    -0.273 OA
BRANCH   7   6
ATOM      6  C   UNL     1       2.334   0.020  22.769  0.00  0.00    +0.141 C 
BRANCH   6   5
ATOM      1  F   UNL     1       5.553   0.579  23.242  0.00  0.00    -0.204 F 
ATOM      2  C   UNL     1       4.748   0.439  23.124  0.00  0.00    +0.140 A 
ATOM      3  C   UNL     1       4.283   1.004  22.744  0.00  0.00    +0.029 A 
ATOM      4  C   UNL     1       3.478   0.864  22.625  0.00  0.00    -0.000 A 
ATOM      5  C   UNL     1       3.139   0.160  22.887  0.00  0.00    -0.000 A 
ATOM     30  C   UNL     1       3.604  -0.406  23.268  0.00  0.00    -0.000 A 
ATOM     31  C   UNL     1       4.409  -0.266  23.386  0.00  0.00    +0.029 A 
ENDBRANCH   6   5
ENDBRANCH   7   6
ENDBRANCH  10   8
BRANCH  17  18
ATOM     18  C   UNL     1      -1.188   1.913  24.805  0.00  0.00    +0.145 C 
BRANCH  18  19
ATOM     19  N   UNL     1      -1.961   2.106  24.591  0.00  0.00    -0.229 N 
ATOM     20  C   UNL     1      -2.642   1.924  25.020  0.00  0.00    +0.118 A 
ATOM     21  C   UNL     1      -3.291   2.221  24.604  0.00  0.00    +0.123 A 
ATOM     22  N   UNL     1      -3.009   2.586  23.920  0.00  0.00    -0.129 NA
ATOM     23  N   UNL     1      -2.188   2.515  23.912  0.00  0.00    -0.064 NA
BRANCH  21  24
ATOM     24  C   UNL     1      -4.081   2.163  24.833  0.00  0.00    +0.021 A 
ATOM     25  C   UNL     1      -4.484   1.448  24.748  0.00  0.00    +0.002 A 
ATOM     26  C   UNL     1      -5.274   1.389  24.977  0.00  0.00    +0.000 A 
ATOM     27  C   UNL     1      -5.661   2.046  25.292  0.00  0.00    +0.000 A 
ATOM     28  C   UNL     1      -5.258   2.761  25.377  0.00  0.00    +0.000 A 
ATOM     29  C   UNL     1      -4.468   2.819  25.148  0.00  0.00    +0.002 A 
ENDBRANCH  21  24
ENDBRANCH  18  19
ENDBRANCH  17  18
TORSDOF 6
ENDMDL
