MODEL 1
REMARK VINA RESULT:     -14.9      0.000      0.000
REMARK  Name = 
REMARK  4 active torsions:
REMARK  status: ('A' for Active; 'I' for Inactive)
REMARK    1  A    between atoms: C_2  and  C_26
REMARK    2  A    between atoms: N_3  and  C_4
REMARK    3  A    between atoms: C_14  and  C_16
REMARK    4  A    between atoms: C_29  and  C_32
REMARK                            x       y       z     vdW  Elec       q    Type
REMARK                         _______ _______ _______ _____ _____    ______ ____
ROOT
ATOM      4  C   UNL     1      -2.360   1.222  23.847  0.00  0.00    +0.130 A 
ATOM      5  C   UNL     1      -2.564   2.003  23.678  0.00  0.00    +0.023 A 
ATOM      6  C   UNL     1      -3.315   2.285  23.870  0.00  0.00    +0.014 A 
ATOM      7  C   UNL     1      -3.862   1.786  24.232  0.00  0.00    +0.041 A 
ATOM      8  C   UNL     1      -4.723   1.784  24.554  0.00  0.00    +0.058 C 
ATOM      9  C   UNL     1      -5.282   2.201  24.633  0.00  0.00    +0.011 C 
ATOM     10  C   UNL     1      -5.078   1.430  24.798  0.00  0.00    +0.043 C 
ATOM     11  C   UNL     1      -5.022   0.483  25.075  0.00  0.00    +0.096 C 
ATOM     12  N   UNL     1      -4.239   0.314  24.836  0.00  0.00    -0.276 N 
ATOM     13  C   UNL     1      -4.684   0.870  24.827  0.00  0.00    +0.099 C 
ATOM     14  C   UNL     1      -3.549  -0.122  24.714  0.00  0.00    +0.249 C 
ATOM     15  O   UNL     1      -2.894   0.233  24.358  0.00  0.00    -0.270 OA
ATOM     22  C   UNL     1      -4.178   1.422  24.464  0.00  0.00    +0.110 C 
ATOM     23  N   UNL     1      -3.659   1.004  24.401  0.00  0.00    -0.298 N 
ATOM     24  C   UNL     1      -2.908   0.722  24.209  0.00  0.00    +0.276 A 
ATOM     25  O   UNL     1      -2.483   0.018  24.271  0.00  0.00    -0.266 OA
ENDROOT
BRANCH  14  16
ATOM     16  C   UNL     1      -3.513  -0.912  24.949  0.00  0.00    +0.054 A 
ATOM     17  C   UNL     1      -3.714  -1.510  24.418  0.00  0.00    +0.005 A 
ATOM     18  C   UNL     1      -3.678  -2.300  24.653  0.00  0.00    +0.000 A 
ATOM     19  C   UNL     1      -3.441  -2.492  25.420  0.00  0.00    +0.000 A 
ATOM     20  C   UNL     1      -3.240  -1.894  25.951  0.00  0.00    +0.000 A 
ATOM     21  C   UNL     1      -3.276  -1.104  25.716  0.00  0.00    +0.005 A 
ENDBRANCH  14  16
BRANCH   4   3
ATOM      1  O   UNL     1      -0.191   1.120  23.617  0.00  0.00    -0.268 OA
ATOM      2  C   UNL     1      -0.943   1.402  23.811  0.00  0.00    +0.269 C 
ATOM      3  N   UNL     1      -1.609   0.941  23.655  0.00  0.00    -0.171 NA
BRANCH   2  26
ATOM     26  C   UNL     1      -1.028   2.145  24.159  0.00  0.00    +0.055 A 
ATOM     27  C   UNL     1      -0.997   2.220  24.981  0.00  0.00    +0.005 A 
ATOM     28  C   UNL     1      -1.082   2.963  25.330  0.00  0.00    +0.010 A 
ATOM     29  C   UNL     1      -1.198   3.629  24.857  0.00  0.00    +0.068 A 
ATOM     30  C   UNL     1      -1.229   3.553  24.036  0.00  0.00    +0.010 A 
ATOM     31  C   UNL     1      -1.144   2.810  23.687  0.00  0.00    +0.005 A 
BRANCH  29  32
ATOM     32  C   UNL     1      -1.283   4.372  25.206  0.00  0.00    +0.100 C 
ATOM     33  N   UNL     1      -1.368   5.115  25.555  0.00  0.00    -0.191 NA
ENDBRANCH  29  32
ENDBRANCH   2  26
ENDBRANCH   4   3
TORSDOF 4
ENDMDL
MODEL 2
REMARK VINA RESULT:     -14.3      1.151      2.573
REMARK  Name = 
REMARK  4 active torsions:
REMARK  status: ('A' for Active; 'I' for Inactive)
REMARK    1  A    between atoms: C_2  and  C_26
REMARK    2  A    between atoms: N_3  and  C_4
REMARK    3  A    between atoms: C_14  and  C_16
REMARK    4  A    between atoms: C_29  and  C_32
REMARK                            x       y       z     vdW  Elec       q    Type
REMARK                         _______ _______ _______ _____ _____    ______ ____
ROOT
ATOM      4  C   UNL     1      -3.153   1.407  23.870  0.00  0.00    +0.130 A 
ATOM      5  C   UNL     1      -2.676   2.001  23.552  0.00  0.00    +0.023 A 
ATOM      6  C   UNL     1      -1.859   1.896  23.512  0.00  0.00    +0.014 A 
ATOM      7  C   UNL     1      -1.518   1.198  23.789  0.00  0.00    +0.041 A 
ATOM      8  C   UNL     1      -0.699   0.792  23.884  0.00  0.00    +0.058 C 
ATOM      9  C   UNL     1      -0.016   0.897  23.764  0.00  0.00    +0.011 C 
ATOM     10  C   UNL     1      -0.489   0.313  24.077  0.00  0.00    +0.043 C 
ATOM     11  C   UNL     1      -0.886  -0.496  24.483  0.00  0.00    +0.096 C 
ATOM     12  N   UNL     1      -1.692  -0.278  24.472  0.00  0.00    -0.276 N 
ATOM     13  C   UNL     1      -1.067   0.004  24.278  0.00  0.00    +0.099 C 
ATOM     14  C   UNL     1      -2.507  -0.337  24.586  0.00  0.00    +0.249 C 
ATOM     15  O   UNL     1      -3.002   0.284  24.359  0.00  0.00    -0.270 OA
ATOM     22  C   UNL     1      -1.349   0.729  23.982  0.00  0.00    +0.110 C 
ATOM     23  N   UNL     1      -1.995   0.605  24.107  0.00  0.00    -0.298 N 
ATOM     24  C   UNL     1      -2.812   0.709  24.148  0.00  0.00    +0.276 A 
ATOM     25  O   UNL     1      -3.472   0.288  24.408  0.00  0.00    -0.266 OA
ENDROOT
BRANCH  14  16
ATOM     16  C   UNL     1      -2.827  -1.017  24.926  0.00  0.00    +0.054 A 
ATOM     17  C   UNL     1      -2.946  -1.054  25.741  0.00  0.00    +0.005 A 
ATOM     18  C   UNL     1      -3.267  -1.735  26.081  0.00  0.00    +0.000 A 
ATOM     19  C   UNL     1      -3.468  -2.378  25.605  0.00  0.00    +0.000 A 
ATOM     20  C   UNL     1      -3.349  -2.341  24.790  0.00  0.00    +0.000 A 
ATOM     21  C   UNL     1      -3.029  -1.661  24.450  0.00  0.00    +0.005 A 
ENDBRANCH  14  16
BRANCH   4   3
ATOM      1  O   UNL     1      -5.099   2.313  24.265  0.00  0.00    -0.268 OA
ATOM      2  C   UNL     1      -4.281   2.208  24.225  0.00  0.00    +0.269 C 
ATOM      3  N   UNL     1      -3.970   1.512  23.911  0.00  0.00    -0.171 NA
BRANCH   2  26
ATOM     26  C   UNL     1      -3.776   2.800  24.499  0.00  0.00    +0.055 A 
ATOM     27  C   UNL     1      -3.548   2.813  25.292  0.00  0.00    +0.005 A 
ATOM     28  C   UNL     1      -3.043   3.405  25.567  0.00  0.00    +0.010 A 
ATOM     29  C   UNL     1      -2.765   3.982  25.048  0.00  0.00    +0.068 A 
ATOM     30  C   UNL     1      -2.992   3.969  24.254  0.00  0.00    +0.010 A 
ATOM     31  C   UNL     1      -3.498   3.377  23.980  0.00  0.00    +0.005 A 
BRANCH  29  32
ATOM     32  C   UNL     1      -2.259   4.574  25.322  0.00  0.00    +0.100 C 
ATOM     33  N   UNL     1      -1.754   5.165  25.596  0.00  0.00    -0.191 NA
ENDBRANCH  29  32
ENDBRANCH   2  26
ENDBRANCH   4   3
TORSDOF 4
ENDMDL
MODEL 3
REMARK VINA RESULT:     -14.2      1.453      3.678
REMARK  Name = 
REMARK  4 active torsions:
REMARK  status: ('A' for Active; 'I' for Inactive)
REMARK    1  A    between atoms: C_2  and  C_26
REMARK    2  A    between atoms: N_3  and  C_4
REMARK    3  A    between atoms: C_14  and  C_16
REMARK    4  A    between atoms: C_29  and  C_32
REMARK                            x       y       z     vdW  Elec       q    Type
REMARK                         _______ _______ _______ _____ _____    ______ ____
ROOT
ATOM      4  C   UNL     1      -3.475   1.358  24.059  0.00  0.00    +0.130 A 
ATOM      5  C   UNL     1      -4.145   0.880  24.115  0.00  0.00    +0.023 A 
ATOM      6  C   UNL     1      -4.112   0.172  24.538  0.00  0.00    +0.014 A 
ATOM      7  C   UNL     1      -3.410  -0.057  24.904  0.00  0.00    +0.041 A 
ATOM      8  C   UNL     1      -3.060  -0.736  25.415  0.00  0.00    +0.058 C 
ATOM      9  C   UNL     1      -3.235  -1.347  25.713  0.00  0.00    +0.011 C 
ATOM     10  C   UNL     1      -2.576  -0.873  25.655  0.00  0.00    +0.043 C 
ATOM     11  C   UNL     1      -1.687  -0.444  25.700  0.00  0.00    +0.096 C 
ATOM     12  N   UNL     1      -1.840   0.243  25.249  0.00  0.00    -0.276 N 
ATOM     13  C   UNL     1      -2.196  -0.334  25.467  0.00  0.00    +0.099 C 
ATOM     14  C   UNL     1      -1.700   0.965  24.875  0.00  0.00    +0.249 C 
ATOM     15  O   UNL     1      -2.307   1.338  24.457  0.00  0.00    -0.270 OA
ATOM     22  C   UNL     1      -2.932  -0.159  25.121  0.00  0.00    +0.110 C 
ATOM     23  N   UNL     1      -2.740   0.421  24.848  0.00  0.00    -0.298 N 
ATOM     24  C   UNL     1      -2.772   1.129  24.425  0.00  0.00    +0.276 A 
ATOM     25  O   UNL     1      -2.266   1.750  24.231  0.00  0.00    -0.266 OA
ENDROOT
BRANCH  14  16
ATOM     16  C   UNL     1      -0.954   1.314  24.919  0.00  0.00    +0.054 A 
ATOM     17  C   UNL     1      -0.393   1.164  24.334  0.00  0.00    +0.005 A 
ATOM     18  C   UNL     1       0.354   1.513  24.378  0.00  0.00    +0.000 A 
ATOM     19  C   UNL     1       0.538   2.013  25.007  0.00  0.00    +0.000 A 
ATOM     20  C   UNL     1      -0.022   2.164  25.592  0.00  0.00    +0.000 A 
ATOM     21  C   UNL     1      -0.769   1.815  25.549  0.00  0.00    +0.005 A 
ENDBRANCH  14  16
BRANCH   4   3
ATOM      1  O   UNL     1      -4.096   3.350  23.415  0.00  0.00    -0.268 OA
ATOM      2  C   UNL     1      -4.063   2.641  23.838  0.00  0.00    +0.269 C 
ATOM      3  N   UNL     1      -3.508   2.065  23.636  0.00  0.00    -0.171 NA
BRANCH   2  26
ATOM     26  C   UNL     1      -4.585   2.510  24.464  0.00  0.00    +0.055 A 
ATOM     27  C   UNL     1      -4.416   2.814  25.212  0.00  0.00    +0.005 A 
ATOM     28  C   UNL     1      -4.938   2.683  25.838  0.00  0.00    +0.010 A 
ATOM     29  C   UNL     1      -5.628   2.248  25.714  0.00  0.00    +0.068 A 
ATOM     30  C   UNL     1      -5.797   1.944  24.965  0.00  0.00    +0.010 A 
ATOM     31  C   UNL     1      -5.274   2.075  24.340  0.00  0.00    +0.005 A 
BRANCH  29  32
ATOM     32  C   UNL     1      -6.150   2.117  26.339  0.00  0.00    +0.100 C 
ATOM     33  N   UNL     1      -6.672   1.986  26.965  0.00  0.00    -0.191 NA
ENDBRANCH  29  32
ENDBRANCH   2  26
ENDBRANCH   4   3
TORSDOF 4
ENDMDL
MODEL 4
REMARK VINA RESULT:     -14.0      1.485      4.061
REMARK  Name = 
REMARK  4 active torsions:
REMARK  status: ('A' for Active; 'I' for Inactive)
REMARK    1  A    between atoms: C_2  and  C_26
REMARK    2  A    between atoms: N_3  and  C_4
REMARK    3  A    between atoms: C_14  and  C_16
REMARK    4  A    between atoms: C_29  and  C_32
REMARK                            x       y       z     vdW  Elec       q    Type
REMARK                         _______ _______ _______ _____ _____    ______ ____
ROOT
ATOM      4  C   UNL     1      -3.429   2.113  23.775  0.00  0.00    +0.130 A 
ATOM      5  C   UNL     1      -4.142   1.704  23.839  0.00  0.00    +0.023 A 
ATOM      6  C   UNL     1      -4.687   1.913  24.422  0.00  0.00    +0.014 A 
ATOM      7  C   UNL     1      -4.518   2.531  24.942  0.00  0.00    +0.041 A 
ATOM      8  C   UNL     1      -4.882   2.985  25.653  0.00  0.00    +0.058 C 
ATOM      9  C   UNL     1      -5.453   3.004  26.060  0.00  0.00    +0.011 C 
ATOM     10  C   UNL     1      -4.748   3.406  25.994  0.00  0.00    +0.043 C 
ATOM     11  C   UNL     1      -3.964   4.001  26.074  0.00  0.00    +0.096 C 
ATOM     12  N   UNL     1      -3.496   3.702  25.450  0.00  0.00    -0.276 N 
ATOM     13  C   UNL     1      -4.131   3.568  25.743  0.00  0.00    +0.099 C 
ATOM     14  C   UNL     1      -2.853   3.626  24.937  0.00  0.00    +0.249 C 
ATOM     15  O   UNL     1      -2.861   3.047  24.349  0.00  0.00    -0.270 OA
ATOM     22  C   UNL     1      -4.360   2.937  25.251  0.00  0.00    +0.110 C 
ATOM     23  N   UNL     1      -3.804   2.940  24.878  0.00  0.00    -0.298 N 
ATOM     24  C   UNL     1      -3.260   2.731  24.294  0.00  0.00    +0.276 A 
ATOM     25  O   UNL     1      -2.514   2.972  24.037  0.00  0.00    -0.266 OA
ENDROOT
BRANCH  14  16
ATOM     16  C   UNL     1      -2.204   4.128  25.013  0.00  0.00    +0.054 A 
ATOM     17  C   UNL     1      -2.241   4.898  24.720  0.00  0.00    +0.005 A 
ATOM     18  C   UNL     1      -1.591   5.401  24.796  0.00  0.00    +0.000 A 
ATOM     19  C   UNL     1      -0.904   5.133  25.165  0.00  0.00    +0.000 A 
ATOM     20  C   UNL     1      -0.866   4.364  25.459  0.00  0.00    +0.000 A 
ATOM     21  C   UNL     1      -1.516   3.861  25.383  0.00  0.00    +0.005 A 
ENDBRANCH  14  16
BRANCH   4   3
ATOM      1  O   UNL     1      -2.031   0.929  22.587  0.00  0.00    -0.268 OA
ATOM      2  C   UNL     1      -2.575   1.139  23.172  0.00  0.00    +0.269 C 
ATOM      3  N   UNL     1      -2.885   1.903  23.192  0.00  0.00    -0.171 NA
BRANCH   2  26
ATOM     26  C   UNL     1      -2.810   0.583  23.735  0.00  0.00    +0.055 A 
ATOM     27  C   UNL     1      -2.351   0.461  24.410  0.00  0.00    +0.005 A 
ATOM     28  C   UNL     1      -2.585  -0.094  24.973  0.00  0.00    +0.010 A 
ATOM     29  C   UNL     1      -3.279  -0.526  24.862  0.00  0.00    +0.068 A 
ATOM     30  C   UNL     1      -3.738  -0.404  24.187  0.00  0.00    +0.010 A 
ATOM     31  C   UNL     1      -3.503   0.151  23.623  0.00  0.00    +0.005 A 
BRANCH  29  32
ATOM     32  C   UNL     1      -3.513  -1.082  25.425  0.00  0.00    +0.100 C 
ATOM     33  N   UNL     1      -3.748  -1.637  25.988  0.00  0.00    -0.191 NA
ENDBRANCH  29  32
ENDBRANCH   2  26
ENDBRANCH   4   3
TORSDOF 4
ENDMDL
MODEL 5
REMARK VINA RESULT:     -13.8      1.193      4.610
REMARK  Name = 
REMARK  4 active torsions:
REMARK  status: ('A' for Active; 'I' for Inactive)
REMARK    1  A    between atoms: C_2  and  C_26
REMARK    2  A    between atoms: N_3  and  C_4
REMARK    3  A    between atoms: C_14  and  C_16
REMARK    4  A    between atoms: C_29  and  C_32
REMARK                            x       y       z     vdW  Elec       q    Type
REMARK                         _______ _______ _______ _____ _____    ______ ____
ROOT
ATOM      4  C   UNL     1      -3.159   1.224  24.071  0.00  0.00    +0.130 A 
ATOM      5  C   UNL     1      -2.963   0.498  23.731  0.00  0.00    +0.023 A 
ATOM      6  C   UNL     1      -2.172   0.286  23.636  0.00  0.00    +0.014 A 
ATOM      7  C   UNL     1      -1.575   0.801  23.881  0.00  0.00    +0.041 A 
ATOM      8  C   UNL     1      -0.659   0.866  23.916  0.00  0.00    +0.058 C 
ATOM      9  C   UNL     1      -0.076   0.512  23.753  0.00  0.00    +0.011 C 
ATOM     10  C   UNL     1      -0.272   1.228  24.088  0.00  0.00    +0.043 C 
ATOM     11  C   UNL     1      -0.306   2.122  24.508  0.00  0.00    +0.096 C 
ATOM     12  N   UNL     1      -1.134   2.225  24.552  0.00  0.00    -0.276 N 
ATOM     13  C   UNL     1      -0.676   1.730  24.322  0.00  0.00    +0.099 C 
ATOM     14  C   UNL     1      -1.857   2.587  24.718  0.00  0.00    +0.249 C 
ATOM     15  O   UNL     1      -2.563   2.201  24.533  0.00  0.00    -0.270 OA
ATOM     22  C   UNL     1      -1.230   1.169  24.055  0.00  0.00    +0.110 C 
ATOM     23  N   UNL     1      -1.771   1.527  24.221  0.00  0.00    -0.298 N 
ATOM     24  C   UNL     1      -2.562   1.738  24.316  0.00  0.00    +0.276 A 
ATOM     25  O   UNL     1      -2.995   2.375  24.612  0.00  0.00    -0.266 OA
ENDROOT
BRANCH  14  16
ATOM     16  C   UNL     1      -1.873   3.333  25.069  0.00  0.00    +0.054 A 
ATOM     17  C   UNL     1      -2.069   3.410  25.866  0.00  0.00    +0.005 A 
ATOM     18  C   UNL     1      -2.086   4.158  26.217  0.00  0.00    +0.000 A 
ATOM     19  C   UNL     1      -1.906   4.827  25.769  0.00  0.00    +0.000 A 
ATOM     20  C   UNL     1      -1.710   4.750  24.972  0.00  0.00    +0.000 A 
ATOM     21  C   UNL     1      -1.694   4.003  24.621  0.00  0.00    +0.005 A 
ENDBRANCH  14  16
BRANCH   4   3
ATOM      1  O   UNL     1      -5.284   1.096  24.552  0.00  0.00    -0.268 OA
ATOM      2  C   UNL     1      -4.492   0.885  24.457  0.00  0.00    +0.269 C 
ATOM      3  N   UNL     1      -3.950   1.435  24.166  0.00  0.00    -0.171 NA
BRANCH   2  26
ATOM     26  C   UNL     1      -4.242   0.124  24.654  0.00  0.00    +0.055 A 
ATOM     27  C   UNL     1      -3.994  -0.043  25.424  0.00  0.00    +0.005 A 
ATOM     28  C   UNL     1      -3.744  -0.804  25.621  0.00  0.00    +0.010 A 
ATOM     29  C   UNL     1      -3.741  -1.397  25.049  0.00  0.00    +0.068 A 
ATOM     30  C   UNL     1      -3.989  -1.231  24.279  0.00  0.00    +0.010 A 
ATOM     31  C   UNL     1      -4.239  -0.470  24.082  0.00  0.00    +0.005 A 
BRANCH  29  32
ATOM     32  C   UNL     1      -3.491  -2.159  25.245  0.00  0.00    +0.100 C 
ATOM     33  N   UNL     1      -3.241  -2.920  25.442  0.00  0.00    -0.191 NA
ENDBRANCH  29  32
ENDBRANCH   2  26
ENDBRANCH   4   3
TORSDOF 4
ENDMDL
MODEL 6
REMARK VINA RESULT:     -13.6      1.863      3.886
REMARK  Name = 
REMARK  4 active torsions:
REMARK  status: ('A' for Active; 'I' for Inactive)
REMARK    1  A    between atoms: C_2  and  C_26
REMARK    2  A    between atoms: N_3  and  C_4
REMARK    3  A    between atoms: C_14  and  C_16
REMARK    4  A    between atoms: C_29  and  C_32
REMARK                            x       y       z     vdW  Elec       q    Type
REMARK                         _______ _______ _______ _____ _____    ______ ____
ROOT
ATOM      4  C   UNL     1      -3.779   0.125  24.563  0.00  0.00    +0.130 A 
ATOM      5  C   UNL     1      -3.344  -0.276  23.987  0.00  0.00    +0.023 A 
ATOM      6  C   UNL     1      -3.001   0.142  23.364  0.00  0.00    +0.014 A 
ATOM      7  C   UNL     1      -3.092   0.960  23.317  0.00  0.00    +0.041 A 
ATOM      8  C   UNL     1      -2.855   1.675  22.790  0.00  0.00    +0.058 C 
ATOM      9  C   UNL     1      -2.499   1.835  22.207  0.00  0.00    +0.011 C 
ATOM     10  C   UNL     1      -2.929   2.228  22.777  0.00  0.00    +0.043 C 
ATOM     11  C   UNL     1      -3.403   2.871  23.358  0.00  0.00    +0.096 C 
ATOM     12  N   UNL     1      -3.700   2.346  23.935  0.00  0.00    -0.276 N 
ATOM     13  C   UNL     1      -3.308   2.309  23.342  0.00  0.00    +0.099 C 
ATOM     14  C   UNL     1      -4.102   2.091  24.610  0.00  0.00    +0.249 C 
ATOM     15  O   UNL     1      -4.110   1.289  24.806  0.00  0.00    -0.270 OA
ATOM     22  C   UNL     1      -3.181   1.487  23.333  0.00  0.00    +0.110 C 
ATOM     23  N   UNL     1      -3.526   1.361  23.893  0.00  0.00    -0.298 N 
ATOM     24  C   UNL     1      -3.870   0.943  24.516  0.00  0.00    +0.276 A 
ATOM     25  O   UNL     1      -4.328   1.104  25.182  0.00  0.00    -0.266 OA
ENDROOT
BRANCH  14  16
ATOM     16  C   UNL     1      -4.494   2.637  25.088  0.00  0.00    +0.054 A 
ATOM     17  C   UNL     1      -4.065   3.118  25.602  0.00  0.00    +0.005 A 
ATOM     18  C   UNL     1      -4.458   3.664  26.080  0.00  0.00    +0.000 A 
ATOM     19  C   UNL     1      -5.280   3.729  26.043  0.00  0.00    +0.000 A 
ATOM     20  C   UNL     1      -5.709   3.248  25.529  0.00  0.00    +0.000 A 
ATOM     21  C   UNL     1      -5.316   2.702  25.051  0.00  0.00    +0.005 A 
ENDBRANCH  14  16
BRANCH   4   3
ATOM      1  O   UNL     1      -4.015  -1.248  26.244  0.00  0.00    -0.268 OA
ATOM      2  C   UNL     1      -3.671  -0.830  25.621  0.00  0.00    +0.269 C 
ATOM      3  N   UNL     1      -4.122  -0.293  25.185  0.00  0.00    -0.171 NA
BRANCH   2  26
ATOM     26  C   UNL     1      -2.876  -0.948  25.433  0.00  0.00    +0.055 A 
ATOM     27  C   UNL     1      -2.293  -0.502  25.811  0.00  0.00    +0.005 A 
ATOM     28  C   UNL     1      -1.498  -0.621  25.624  0.00  0.00    +0.010 A 
ATOM     29  C   UNL     1      -1.287  -1.184  25.060  0.00  0.00    +0.068 A 
ATOM     30  C   UNL     1      -1.871  -1.630  24.682  0.00  0.00    +0.010 A 
ATOM     31  C   UNL     1      -2.666  -1.511  24.869  0.00  0.00    +0.005 A 
BRANCH  29  32
ATOM     32  C   UNL     1      -0.493  -1.302  24.873  0.00  0.00    +0.100 C 
ATOM     33  N   UNL     1       0.302  -1.421  24.685  0.00  0.00    -0.191 NA
ENDBRANCH  29  32
ENDBRANCH   2  26
ENDBRANCH   4   3
TORSDOF 4
ENDMDL
MODEL 7
REMARK VINA RESULT:     -13.6      1.243      4.136
REMARK  Name = 
REMARK  4 active torsions:
REMARK  status: ('A' for Active; 'I' for Inactive)
REMARK    1  A    between atoms: C_2  and  C_26
REMARK    2  A    between atoms: N_3  and  C_4
REMARK    3  A    between atoms: C_14  and  C_16
REMARK    4  A    between atoms: C_29  and  C_32
REMARK                            x       y       z     vdW  Elec       q    Type
REMARK                         _______ _______ _______ _____ _____    ______ ____
ROOT
ATOM      4  C   UNL     1      -2.727   0.491  25.481  0.00  0.00    +0.130 A 
ATOM      5  C   UNL     1      -3.434   0.067  25.483  0.00  0.00    +0.023 A 
ATOM      6  C   UNL     1      -4.132   0.426  25.228  0.00  0.00    +0.014 A 
ATOM      7  C   UNL     1      -4.122   1.209  24.971  0.00  0.00    +0.041 A 
ATOM      8  C   UNL     1      -4.682   1.861  24.645  0.00  0.00    +0.058 C 
ATOM      9  C   UNL     1      -5.354   1.975  24.476  0.00  0.00    +0.011 C 
ATOM     10  C   UNL     1      -4.654   2.391  24.475  0.00  0.00    +0.043 C 
ATOM     11  C   UNL     1      -3.921   3.050  24.401  0.00  0.00    +0.096 C 
ATOM     12  N   UNL     1      -3.285   2.584  24.680  0.00  0.00    -0.276 N 
ATOM     13  C   UNL     1      -3.985   2.508  24.568  0.00  0.00    +0.099 C 
ATOM     14  C   UNL     1      -2.514   2.385  24.897  0.00  0.00    +0.249 C 
ATOM     15  O   UNL     1      -2.348   1.627  25.180  0.00  0.00    -0.270 OA
ATOM     22  C   UNL     1      -4.060   1.717  24.815  0.00  0.00    +0.110 C 
ATOM     23  N   UNL     1      -3.414   1.634  24.969  0.00  0.00    -0.298 N 
ATOM     24  C   UNL     1      -2.717   1.275  25.224  0.00  0.00    +0.276 A 
ATOM     25  O   UNL     1      -1.922   1.475  25.314  0.00  0.00    -0.266 OA
ENDROOT
BRANCH  14  16
ATOM     16  C   UNL     1      -1.910   2.942  24.831  0.00  0.00    +0.054 A 
ATOM     17  C   UNL     1      -1.399   2.922  24.185  0.00  0.00    +0.005 A 
ATOM     18  C   UNL     1      -0.794   3.480  24.119  0.00  0.00    +0.000 A 
ATOM     19  C   UNL     1      -0.702   4.058  24.700  0.00  0.00    +0.000 A 
ATOM     20  C   UNL     1      -1.213   4.079  25.346  0.00  0.00    +0.000 A 
ATOM     21  C   UNL     1      -1.818   3.521  25.412  0.00  0.00    +0.005 A 
ENDBRANCH  14  16
BRANCH   4   3
ATOM      1  O   UNL     1      -1.194  -1.024  25.830  0.00  0.00    -0.268 OA
ATOM      2  C   UNL     1      -1.892  -0.665  25.574  0.00  0.00    +0.269 C 
ATOM      3  N   UNL     1      -2.030   0.132  25.737  0.00  0.00    -0.171 NA
BRANCH   2  26
ATOM     26  C   UNL     1      -2.452  -1.102  25.154  0.00  0.00    +0.055 A 
ATOM     27  C   UNL     1      -2.412  -1.142  24.330  0.00  0.00    +0.005 A 
ATOM     28  C   UNL     1      -2.972  -1.579  23.911  0.00  0.00    +0.010 A 
ATOM     29  C   UNL     1      -3.570  -1.977  24.315  0.00  0.00    +0.068 A 
ATOM     30  C   UNL     1      -3.610  -1.938  25.139  0.00  0.00    +0.010 A 
ATOM     31  C   UNL     1      -3.051  -1.500  25.558  0.00  0.00    +0.005 A 
BRANCH  29  32
ATOM     32  C   UNL     1      -4.130  -2.415  23.895  0.00  0.00    +0.100 C 
ATOM     33  N   UNL     1      -4.690  -2.853  23.476  0.00  0.00    -0.191 NA
ENDBRANCH  29  32
ENDBRANCH   2  26
ENDBRANCH   4   3
TORSDOF 4
ENDMDL
MODEL 8
REMARK VINA RESULT:     -13.3      1.330      1.514
REMARK  Name = 
REMARK  4 active torsions:
REMARK  status: ('A' for Active; 'I' for Inactive)
REMARK    1  A    between atoms: C_2  and  C_26
REMARK    2  A    between atoms: N_3  and  C_4
REMARK    3  A    between atoms: C_14  and  C_16
REMARK    4  A    between atoms: C_29  and  C_32
REMARK                            x       y       z     vdW  Elec       q    Type
REMARK                         _______ _______ _______ _____ _____    ______ ____
ROOT
ATOM      4  C   UNL     1      -2.199   1.590  23.949  0.00  0.00    +0.130 A 
ATOM      5  C   UNL     1      -2.844   2.095  23.849  0.00  0.00    +0.023 A 
ATOM      6  C   UNL     1      -3.601   1.846  24.063  0.00  0.00    +0.014 A 
ATOM      7  C   UNL     1      -3.712   1.091  24.376  0.00  0.00    +0.041 A 
ATOM      8  C   UNL     1      -4.377   0.542  24.694  0.00  0.00    +0.058 C 
ATOM      9  C   UNL     1      -5.069   0.524  24.807  0.00  0.00    +0.011 C 
ATOM     10  C   UNL     1      -4.431   0.028  24.904  0.00  0.00    +0.043 C 
ATOM     11  C   UNL     1      -3.796  -0.706  25.095  0.00  0.00    +0.096 C 
ATOM     12  N   UNL     1      -3.086  -0.345  24.844  0.00  0.00    -0.276 N 
ATOM     13  C   UNL     1      -3.777  -0.176  24.884  0.00  0.00    +0.099 C 
ATOM     14  C   UNL     1      -2.280  -0.259  24.687  0.00  0.00    +0.249 C 
ATOM     15  O   UNL     1      -1.995   0.447  24.366  0.00  0.00    -0.270 OA
ATOM     22  C   UNL     1      -3.730   0.595  24.574  0.00  0.00    +0.110 C 
ATOM     23  N   UNL     1      -3.068   0.586  24.476  0.00  0.00    -0.298 N 
ATOM     24  C   UNL     1      -2.311   0.836  24.262  0.00  0.00    +0.276 A 
ATOM     25  O   UNL     1      -1.543   0.534  24.263  0.00  0.00    -0.266 OA
ENDROOT
BRANCH  14  16
ATOM     16  C   UNL     1      -1.760  -0.877  24.850  0.00  0.00    +0.054 A 
ATOM     17  C   UNL     1      -1.697  -1.512  24.328  0.00  0.00    +0.005 A 
ATOM     18  C   UNL     1      -1.176  -2.132  24.491  0.00  0.00    +0.000 A 
ATOM     19  C   UNL     1      -0.719  -2.115  25.177  0.00  0.00    +0.000 A 
ATOM     20  C   UNL     1      -0.781  -1.480  25.700  0.00  0.00    +0.000 A 
ATOM     21  C   UNL     1      -1.302  -0.861  25.536  0.00  0.00    +0.005 A 
ENDBRANCH  14  16
BRANCH   4   3
ATOM      1  O   UNL     1      -0.369   2.777  23.850  0.00  0.00    -0.268 OA
ATOM      2  C   UNL     1      -1.126   2.527  24.065  0.00  0.00    +0.269 C 
ATOM      3  N   UNL     1      -1.443   1.841  23.735  0.00  0.00    -0.171 NA
BRANCH   2  26
ATOM     26  C   UNL     1      -1.566   2.963  24.610  0.00  0.00    +0.055 A 
ATOM     27  C   UNL     1      -1.453   2.845  25.420  0.00  0.00    +0.005 A 
ATOM     28  C   UNL     1      -1.893   3.281  25.965  0.00  0.00    +0.010 A 
ATOM     29  C   UNL     1      -2.444   3.835  25.701  0.00  0.00    +0.068 A 
ATOM     30  C   UNL     1      -2.557   3.953  24.892  0.00  0.00    +0.010 A 
ATOM     31  C   UNL     1      -2.117   3.516  24.346  0.00  0.00    +0.005 A 
BRANCH  29  32
ATOM     32  C   UNL     1      -2.883   4.271  26.246  0.00  0.00    +0.100 C 
ATOM     33  N   UNL     1      -3.323   4.707  26.791  0.00  0.00    -0.191 NA
ENDBRANCH  29  32
ENDBRANCH   2  26
ENDBRANCH   4   3
TORSDOF 4
ENDMDL
MODEL 9
REMARK VINA RESULT:     -13.2      1.605      3.261
REMARK  Name = 
REMARK  4 active torsions:
REMARK  status: ('A' for Active; 'I' for Inactive)
REMARK    1  A    between atoms: C_2  and  C_26
REMARK    2  A    between atoms: N_3  and  C_4
REMARK    3  A    between atoms: C_14  and  C_16
REMARK    4  A    between atoms: C_29  and  C_32
REMARK                            x       y       z     vdW  Elec       q    Type
REMARK                         _______ _______ _______ _____ _____    ______ ____
ROOT
ATOM      4  C   UNL     1      -2.041   0.203  25.438  0.00  0.00    +0.130 A 
ATOM      5  C   UNL     1      -1.623  -0.501  25.334  0.00  0.00    +0.023 A 
ATOM      6  C   UNL     1      -1.981  -1.142  24.960  0.00  0.00    +0.014 A 
ATOM      7  C   UNL     1      -2.758  -1.080  24.689  0.00  0.00    +0.041 A 
ATOM      8  C   UNL     1      -3.406  -1.572  24.262  0.00  0.00    +0.058 C 
ATOM      9  C   UNL     1      -3.522  -2.206  23.983  0.00  0.00    +0.011 C 
ATOM     10  C   UNL     1      -3.932  -1.509  24.086  0.00  0.00    +0.043 C 
ATOM     11  C   UNL     1      -4.582  -0.766  24.117  0.00  0.00    +0.096 C 
ATOM     12  N   UNL     1      -4.117  -0.190  24.507  0.00  0.00    -0.276 N 
ATOM     13  C   UNL     1      -4.045  -0.863  24.284  0.00  0.00    +0.099 C 
ATOM     14  C   UNL     1      -3.917   0.532  24.851  0.00  0.00    +0.249 C 
ATOM     15  O   UNL     1      -3.165   0.641  25.175  0.00  0.00    -0.270 OA
ATOM     22  C   UNL     1      -3.261  -0.988  24.534  0.00  0.00    +0.110 C 
ATOM     23  N   UNL     1      -3.176  -0.377  24.793  0.00  0.00    -0.298 N 
ATOM     24  C   UNL     1      -2.818   0.265  25.167  0.00  0.00    +0.276 A 
ATOM     25  O   UNL     1      -3.013   1.037  25.381  0.00  0.00    -0.266 OA
ENDROOT
BRANCH  14  16
ATOM     16  C   UNL     1      -4.467   1.146  24.871  0.00  0.00    +0.054 A 
ATOM     17  C   UNL     1      -5.062   1.148  25.442  0.00  0.00    +0.005 A 
ATOM     18  C   UNL     1      -5.613   1.763  25.462  0.00  0.00    +0.000 A 
ATOM     19  C   UNL     1      -5.567   2.375  24.911  0.00  0.00    +0.000 A 
ATOM     20  C   UNL     1      -4.973   2.374  24.341  0.00  0.00    +0.000 A 
ATOM     21  C   UNL     1      -4.422   1.759  24.320  0.00  0.00    +0.005 A 
ENDBRANCH  14  16
BRANCH   4   3
ATOM      1  O   UNL     1      -0.611   1.787  25.898  0.00  0.00    -0.268 OA
ATOM      2  C   UNL     1      -0.970   1.145  25.523  0.00  0.00    +0.269 C 
ATOM      3  N   UNL     1      -1.682   0.844  25.812  0.00  0.00    -0.171 NA
BRANCH   2  26
ATOM     26  C   UNL     1      -0.617   0.804  24.860  0.00  0.00    +0.055 A 
ATOM     27  C   UNL     1      -0.726   1.142  24.115  0.00  0.00    +0.005 A 
ATOM     28  C   UNL     1      -0.373   0.801  23.452  0.00  0.00    +0.010 A 
ATOM     29  C   UNL     1       0.089   0.123  23.534  0.00  0.00    +0.068 A 
ATOM     30  C   UNL     1       0.199  -0.215  24.280  0.00  0.00    +0.010 A 
ATOM     31  C   UNL     1      -0.155   0.126  24.943  0.00  0.00    +0.005 A 
BRANCH  29  32
ATOM     32  C   UNL     1       0.443  -0.218  22.871  0.00  0.00    +0.100 C 
ATOM     33  N   UNL     1       0.796  -0.559  22.208  0.00  0.00    -0.191 NA
ENDBRANCH  29  32
ENDBRANCH   2  26
ENDBRANCH   4   3
TORSDOF 4
ENDMDL
