MODEL 1
REMARK VINA RESULT:      -9.5      0.000      0.000
REMARK  Name = 
REMARK  5 active torsions:
REMARK  status: ('A' for Active; 'I' for Inactive)
REMARK    1  A    between atoms: C_2  and  N_4
REMARK    2  A    between atoms: N_7  and  C_8
REMARK    3  A    between atoms: C_8  and  C_9
REMARK    4  A    between atoms: C_11  and  C_12
REMARK    5  A    between atoms: C_16  and  N_17
REMARK                            x       y       z     vdW  Elec       q    Type
REMARK                         _______ _______ _______ _____ _____    ______ ____
ROOT
ATOM      9  C   UNL     1      -3.628   1.493  24.972  0.00  0.00    +0.154 C 
ATOM     10  O   UNL     1      -4.003   2.218  25.092  0.00  0.00    -0.350 OA
ATOM     11  C   UNL     1      -4.818   2.090  25.081  0.00  0.00    +0.180 C 
ATOM     14  C   UNL     1      -4.946   1.284  24.953  0.00  0.00    +0.198 C 
ATOM     15  O   UNL     1      -5.682   0.913  24.902  0.00  0.00    -0.219 OA
ATOM     16  C   UNL     1      -4.211   0.916  24.886  0.00  0.00    +0.120 C 
ENDROOT
BRANCH  16  17
ATOM     17  N   UNL     1      -4.083   0.111  24.756  0.00  0.00    -0.270 NA
ATOM     18  C   UNL     1      -3.990  -0.401  25.396  0.00  0.00    +0.072 C 
ATOM     19  C   UNL     1      -3.862  -1.205  25.266  0.00  0.00    +0.017 C 
ATOM     20  C   UNL     1      -3.826  -1.498  24.495  0.00  0.00    +0.003 C 
ATOM     21  C   UNL     1      -3.697  -2.302  24.364  0.00  0.00    +0.000 C 
ATOM     22  C   UNL     1      -3.918  -0.985  23.855  0.00  0.00    +0.017 C 
ATOM     23  C   UNL     1      -4.047  -0.181  23.985  0.00  0.00    +0.072 C 
ENDBRANCH  16  17
BRANCH  11  12
ATOM     12  C   UNL     1      -5.400   2.665  25.179  0.00  0.00    +0.214 C 
ATOM     13  O   UNL     1      -5.194   3.419  25.445  0.00  0.00    -0.218 OA
ENDBRANCH  11  12
BRANCH   9   8
ATOM      8  C   UNL     1      -2.813   1.366  24.943  0.00  0.00    +0.148 C 
BRANCH   8   7
ATOM      4  N   UNL     1      -0.973   2.529  25.117  0.00  0.00    -0.189 NA
ATOM      5  C   UNL     1      -1.491   1.886  25.098  0.00  0.00    +0.339 C 
ATOM      6  O   UNL     1      -1.204   1.121  25.216  0.00  0.00    -0.249 OA
ATOM      7  N   UNL     1      -2.295   2.009  24.962  0.00  0.00    -0.185 NA
BRANCH   4   2
ATOM      1  C   UNL     1       0.137   2.488  26.016  0.00  0.00    +0.023 C 
ATOM      2  C   UNL     1      -0.169   2.405  25.254  0.00  0.00    +0.097 C 
ATOM      3  C   UNL     1       0.329   2.200  24.629  0.00  0.00    +0.023 C 
ENDBRANCH   4   2
ENDBRANCH   8   7
ENDBRANCH   9   8
TORSDOF 5
ENDMDL
MODEL 2
REMARK VINA RESULT:      -9.0      1.040      3.736
REMARK  Name = 
REMARK  5 active torsions:
REMARK  status: ('A' for Active; 'I' for Inactive)
REMARK    1  A    between atoms: C_2  and  N_4
REMARK    2  A    between atoms: N_7  and  C_8
REMARK    3  A    between atoms: C_8  and  C_9
REMARK    4  A    between atoms: C_11  and  C_12
REMARK    5  A    between atoms: C_16  and  N_17
REMARK                            x       y       z     vdW  Elec       q    Type
REMARK                         _______ _______ _______ _____ _____    ______ ____
ROOT
ATOM      9  C   UNL     1      -3.806   1.535  24.879  0.00  0.00    +0.154 C 
ATOM     10  O   UNL     1      -4.596   1.707  25.041  0.00  0.00    -0.350 OA
ATOM     11  C   UNL     1      -4.659   2.520  25.171  0.00  0.00    +0.180 C 
ATOM     14  C   UNL     1      -3.907   2.849  25.090  0.00  0.00    +0.198 C 
ATOM     15  O   UNL     1      -3.716   3.648  25.174  0.00  0.00    -0.219 OA
ATOM     16  C   UNL     1      -3.379   2.241  24.910  0.00  0.00    +0.120 C 
ENDROOT
BRANCH  16  17
ATOM     17  N   UNL     1      -2.568   2.324  24.782  0.00  0.00    -0.270 NA
ATOM     18  C   UNL     1      -2.281   2.446  24.019  0.00  0.00    +0.072 C 
ATOM     19  C   UNL     1      -1.470   2.529  23.892  0.00  0.00    +0.017 C 
ATOM     20  C   UNL     1      -0.947   2.491  24.529  0.00  0.00    +0.003 C 
ATOM     21  C   UNL     1      -0.136   2.574  24.402  0.00  0.00    +0.000 C 
ATOM     22  C   UNL     1      -1.234   2.369  25.293  0.00  0.00    +0.017 C 
ATOM     23  C   UNL     1      -2.045   2.286  25.420  0.00  0.00    +0.072 C 
ENDBRANCH  16  17
BRANCH  11  12
ATOM     12  C   UNL     1      -5.352   2.930  25.350  0.00  0.00    +0.214 C 
ATOM     13  O   UNL     1      -6.078   2.537  25.335  0.00  0.00    -0.218 OA
ENDBRANCH  11  12
BRANCH   9   8
ATOM      8  C   UNL     1      -3.495   0.788  24.716  0.00  0.00    +0.148 C 
BRANCH   8   7
ATOM      4  N   UNL     1      -4.135  -1.299  24.729  0.00  0.00    -0.189 NA
ATOM      5  C   UNL     1      -3.674  -0.625  24.606  0.00  0.00    +0.339 C 
ATOM      6  O   UNL     1      -2.933  -0.691  24.249  0.00  0.00    -0.249 OA
ATOM      7  N   UNL     1      -3.956   0.114  24.839  0.00  0.00    -0.185 NA
BRANCH   4   2
ATOM      1  C   UNL     1      -4.077  -2.353  23.765  0.00  0.00    +0.023 C 
ATOM      2  C   UNL     1      -3.853  -2.039  24.496  0.00  0.00    +0.097 C 
ATOM      3  C   UNL     1      -3.349  -2.464  24.991  0.00  0.00    +0.023 C 
ENDBRANCH   4   2
ENDBRANCH   8   7
ENDBRANCH   9   8
TORSDOF 5
ENDMDL
MODEL 3
REMARK VINA RESULT:      -9.0      1.567      4.289
REMARK  Name = 
REMARK  5 active torsions:
REMARK  status: ('A' for Active; 'I' for Inactive)
REMARK    1  A    between atoms: C_2  and  N_4
REMARK    2  A    between atoms: N_7  and  C_8
REMARK    3  A    between atoms: C_8  and  C_9
REMARK    4  A    between atoms: C_11  and  C_12
REMARK    5  A    between atoms: C_16  and  N_17
REMARK                            x       y       z     vdW  Elec       q    Type
REMARK                         _______ _______ _______ _____ _____    ______ ____
ROOT
ATOM      9  C   UNL     1      -2.160   1.570  24.594  0.00  0.00    +0.154 C 
ATOM     10  O   UNL     1      -1.359   1.440  24.447  0.00  0.00    -0.350 OA
ATOM     11  C   UNL     1      -0.979   2.172  24.428  0.00  0.00    +0.180 C 
ATOM     14  C   UNL     1      -1.547   2.756  24.564  0.00  0.00    +0.198 C 
ATOM     15  O   UNL     1      -1.408   3.569  24.592  0.00  0.00    -0.219 OA
ATOM     16  C   UNL     1      -2.276   2.384  24.666  0.00  0.00    +0.120 C 
ENDROOT
BRANCH  16  17
ATOM     17  N   UNL     1      -2.995   2.761  24.815  0.00  0.00    -0.270 NA
ATOM     18  C   UNL     1      -3.497   2.953  24.191  0.00  0.00    +0.072 C 
ATOM     19  C   UNL     1      -4.216   3.329  24.340  0.00  0.00    +0.017 C 
ATOM     20  C   UNL     1      -4.432   3.514  25.114  0.00  0.00    +0.003 C 
ATOM     21  C   UNL     1      -5.151   3.890  25.264  0.00  0.00    +0.000 C 
ATOM     22  C   UNL     1      -3.929   3.321  25.740  0.00  0.00    +0.017 C 
ATOM     23  C   UNL     1      -3.210   2.945  25.591  0.00  0.00    +0.072 C 
ENDBRANCH  16  17
BRANCH  11  12
ATOM     12  C   UNL     1      -0.174   2.298  24.296  0.00  0.00    +0.214 C 
ATOM     13  O   UNL     1       0.352   1.663  24.326  0.00  0.00    -0.218 OA
ENDBRANCH  11  12
BRANCH   9   8
ATOM      8  C   UNL     1      -2.743   0.990  24.658  0.00  0.00    +0.148 C 
BRANCH   8   7
ATOM      4  N   UNL     1      -2.971  -1.157  24.335  0.00  0.00    -0.189 NA
ATOM      5  C   UNL     1      -3.136  -0.380  24.561  0.00  0.00    +0.339 C 
ATOM      6  O   UNL     1      -3.858  -0.198  24.916  0.00  0.00    -0.249 OA
ATOM      7  N   UNL     1      -2.578   0.214  24.432  0.00  0.00    -0.185 NA
BRANCH   4   2
ATOM      1  C   UNL     1      -4.152  -1.854  23.932  0.00  0.00    +0.023 C 
ATOM      2  C   UNL     1      -3.529  -1.750  24.464  0.00  0.00    +0.097 C 
ATOM      3  C   UNL     1      -3.466  -2.240  25.125  0.00  0.00    +0.023 C 
ENDBRANCH   4   2
ENDBRANCH   8   7
ENDBRANCH   9   8
TORSDOF 5
ENDMDL
MODEL 4
REMARK VINA RESULT:      -8.7      2.228      3.235
REMARK  Name = 
REMARK  5 active torsions:
REMARK  status: ('A' for Active; 'I' for Inactive)
REMARK    1  A    between atoms: C_2  and  N_4
REMARK    2  A    between atoms: N_7  and  C_8
REMARK    3  A    between atoms: C_8  and  C_9
REMARK    4  A    between atoms: C_11  and  C_12
REMARK    5  A    between atoms: C_16  and  N_17
REMARK                            x       y       z     vdW  Elec       q    Type
REMARK                         _______ _______ _______ _____ _____    ______ ____
ROOT
ATOM      9  C   UNL     1      -2.283   2.673  25.011  0.00  0.00    +0.154 C 
ATOM     10  O   UNL     1      -1.638   3.184  25.054  0.00  0.00    -0.350 OA
ATOM     11  C   UNL     1      -1.926   3.957  25.083  0.00  0.00    +0.180 C 
ATOM     14  C   UNL     1      -2.750   3.923  25.058  0.00  0.00    +0.198 C 
ATOM     15  O   UNL     1      -3.262   4.570  25.074  0.00  0.00    -0.219 OA
ATOM     16  C   UNL     1      -2.971   3.129  25.013  0.00  0.00    +0.120 C 
ENDROOT
BRANCH  16  17
ATOM     17  N   UNL     1      -3.744   2.843  24.977  0.00  0.00    -0.270 NA
ATOM     18  C   UNL     1      -4.174   2.728  25.671  0.00  0.00    +0.072 C 
ATOM     19  C   UNL     1      -4.947   2.442  25.635  0.00  0.00    +0.017 C 
ATOM     20  C   UNL     1      -5.290   2.271  24.905  0.00  0.00    +0.003 C 
ATOM     21  C   UNL     1      -6.063   1.984  24.868  0.00  0.00    +0.000 C 
ATOM     22  C   UNL     1      -4.860   2.386  24.210  0.00  0.00    +0.017 C 
ATOM     23  C   UNL     1      -4.086   2.672  24.246  0.00  0.00    +0.072 C 
ENDBRANCH  16  17
BRANCH  11  12
ATOM     12  C   UNL     1      -1.469   4.643  25.129  0.00  0.00    +0.214 C 
ATOM     13  O   UNL     1      -0.648   4.596  25.060  0.00  0.00    -0.218 OA
ENDBRANCH  11  12
BRANCH   9   8
ATOM      8  C   UNL     1      -2.249   1.849  24.972  0.00  0.00    +0.148 C 
BRANCH   8   7
ATOM      4  N   UNL     1      -0.756   0.262  25.110  0.00  0.00    -0.189 NA
ATOM      5  C   UNL     1      -1.469   0.652  24.963  0.00  0.00    +0.339 C 
ATOM      6  O   UNL     1      -2.113   0.235  24.660  0.00  0.00    -0.249 OA
ATOM      7  N   UNL     1      -1.536   1.459  25.119  0.00  0.00    -0.185 NA
BRANCH   4   2
ATOM      1  C   UNL     1      -0.337  -0.801  24.252  0.00  0.00    +0.023 C 
ATOM      2  C   UNL     1      -0.689  -0.545  24.954  0.00  0.00    +0.097 C 
ATOM      3  C   UNL     1      -0.973  -1.096  25.498  0.00  0.00    +0.023 C 
ENDBRANCH   4   2
ENDBRANCH   8   7
ENDBRANCH   9   8
TORSDOF 5
ENDMDL
MODEL 5
REMARK VINA RESULT:      -8.6      1.393      3.440
REMARK  Name = 
REMARK  5 active torsions:
REMARK  status: ('A' for Active; 'I' for Inactive)
REMARK    1  A    between atoms: C_2  and  N_4
REMARK    2  A    between atoms: N_7  and  C_8
REMARK    3  A    between atoms: C_8  and  C_9
REMARK    4  A    between atoms: C_11  and  C_12
REMARK    5  A    between atoms: C_16  and  N_17
REMARK                            x       y       z     vdW  Elec       q    Type
REMARK                         _______ _______ _______ _____ _____    ______ ____
ROOT
ATOM      9  C   UNL     1      -1.906   0.899  24.646  0.00  0.00    +0.154 C 
ATOM     10  O   UNL     1      -1.248   1.374  24.501  0.00  0.00    -0.350 OA
ATOM     11  C   UNL     1      -0.590   0.883  24.420  0.00  0.00    +0.180 C 
ATOM     14  C   UNL     1      -0.842   0.103  24.516  0.00  0.00    +0.198 C 
ATOM     15  O   UNL     1      -0.364  -0.569  24.479  0.00  0.00    -0.219 OA
ATOM     16  C   UNL     1      -1.655   0.112  24.656  0.00  0.00    +0.120 C 
ENDROOT
BRANCH  16  17
ATOM     17  N   UNL     1      -2.133  -0.548  24.782  0.00  0.00    -0.270 NA
ATOM     18  C   UNL     1      -2.257  -0.828  25.548  0.00  0.00    +0.072 C 
ATOM     19  C   UNL     1      -2.735  -1.488  25.675  0.00  0.00    +0.017 C 
ATOM     20  C   UNL     1      -3.089  -1.870  25.035  0.00  0.00    +0.003 C 
ATOM     21  C   UNL     1      -3.567  -2.530  25.160  0.00  0.00    +0.000 C 
ATOM     22  C   UNL     1      -2.965  -1.590  24.268  0.00  0.00    +0.017 C 
ATOM     23  C   UNL     1      -2.488  -0.929  24.141  0.00  0.00    +0.072 C 
ENDBRANCH  16  17
BRANCH  11  12
ATOM     12  C   UNL     1       0.183   1.128  24.271  0.00  0.00    +0.214 C 
ATOM     13  O   UNL     1       0.372   1.932  24.297  0.00  0.00    -0.218 OA
ENDBRANCH  11  12
BRANCH   9   8
ATOM      8  C   UNL     1      -2.680   1.162  24.762  0.00  0.00    +0.148 C 
BRANCH   8   7
ATOM      4  N   UNL     1      -3.718   3.021  25.242  0.00  0.00    -0.189 NA
ATOM      5  C   UNL     1      -3.579   2.250  24.983  0.00  0.00    +0.339 C 
ATOM      6  O   UNL     1      -4.201   1.796  24.687  0.00  0.00    -0.249 OA
ATOM      7  N   UNL     1      -2.818   1.933  25.021  0.00  0.00    -0.185 NA
BRANCH   4   2
ATOM      1  C   UNL     1      -4.690   3.829  24.574  0.00  0.00    +0.023 C 
ATOM      2  C   UNL     1      -4.478   3.338  25.204  0.00  0.00    +0.097 C 
ATOM      3  C   UNL     1      -5.028   3.165  25.794  0.00  0.00    +0.023 C 
ENDBRANCH   4   2
ENDBRANCH   8   7
ENDBRANCH   9   8
TORSDOF 5
ENDMDL
MODEL 6
REMARK VINA RESULT:      -8.6      2.139      5.002
REMARK  Name = 
REMARK  5 active torsions:
REMARK  status: ('A' for Active; 'I' for Inactive)
REMARK    1  A    between atoms: C_2  and  N_4
REMARK    2  A    between atoms: N_7  and  C_8
REMARK    3  A    between atoms: C_8  and  C_9
REMARK    4  A    between atoms: C_11  and  C_12
REMARK    5  A    between atoms: C_16  and  N_17
REMARK                            x       y       z     vdW  Elec       q    Type
REMARK                         _______ _______ _______ _____ _____    ______ ____
ROOT
ATOM      9  C   UNL     1      -0.764   0.571  24.250  0.00  0.00    +0.154 C 
ATOM     10  O   UNL     1      -0.208   0.123  23.837  0.00  0.00    -0.350 OA
ATOM     11  C   UNL     1       0.449   0.601  23.691  0.00  0.00    +0.180 C 
ATOM     14  C   UNL     1       0.298   1.345  24.014  0.00  0.00    +0.198 C 
ATOM     15  O   UNL     1       0.809   1.993  23.995  0.00  0.00    -0.219 OA
ATOM     16  C   UNL     1      -0.451   1.327  24.359  0.00  0.00    +0.120 C 
ENDROOT
BRANCH  16  17
ATOM     17  N   UNL     1      -0.821   1.955  24.746  0.00  0.00    -0.270 NA
ATOM     18  C   UNL     1      -1.309   2.468  24.325  0.00  0.00    +0.072 C 
ATOM     19  C   UNL     1      -1.680   3.096  24.712  0.00  0.00    +0.017 C 
ATOM     20  C   UNL     1      -1.562   3.209  25.520  0.00  0.00    +0.003 C 
ATOM     21  C   UNL     1      -1.932   3.837  25.908  0.00  0.00    +0.000 C 
ATOM     22  C   UNL     1      -1.073   2.695  25.942  0.00  0.00    +0.017 C 
ATOM     23  C   UNL     1      -0.702   2.068  25.555  0.00  0.00    +0.072 C 
ENDBRANCH  16  17
BRANCH  11  12
ATOM     12  C   UNL     1       1.135   0.373  23.293  0.00  0.00    +0.214 C 
ATOM     13  O   UNL     1       1.097  -0.204  22.704  0.00  0.00    -0.218 OA
ENDBRANCH  11  12
BRANCH   9   8
ATOM      8  C   UNL     1      -1.503   0.311  24.508  0.00  0.00    +0.148 C 
BRANCH   8   7
ATOM      4  N   UNL     1      -2.710  -1.508  24.485  0.00  0.00    -0.189 NA
ATOM      5  C   UNL     1      -2.484  -0.723  24.605  0.00  0.00    +0.339 C 
ATOM      6  O   UNL     1      -3.015  -0.188  24.941  0.00  0.00    -0.249 OA
ATOM      7  N   UNL     1      -1.728  -0.474  24.388  0.00  0.00    -0.185 NA
BRANCH   4   2
ATOM      1  C   UNL     1      -4.072  -1.769  24.141  0.00  0.00    +0.023 C 
ATOM      2  C   UNL     1      -3.466  -1.757  24.702  0.00  0.00    +0.097 C 
ATOM      3  C   UNL     1      -3.616  -1.993  25.478  0.00  0.00    +0.023 C 
ENDBRANCH   4   2
ENDBRANCH   8   7
ENDBRANCH   9   8
TORSDOF 5
ENDMDL
MODEL 7
REMARK VINA RESULT:      -8.5      1.705      4.291
REMARK  Name = 
REMARK  5 active torsions:
REMARK  status: ('A' for Active; 'I' for Inactive)
REMARK    1  A    between atoms: C_2  and  N_4
REMARK    2  A    between atoms: N_7  and  C_8
REMARK    3  A    between atoms: C_8  and  C_9
REMARK    4  A    between atoms: C_11  and  C_12
REMARK    5  A    between atoms: C_16  and  N_17
REMARK                            x       y       z     vdW  Elec       q    Type
REMARK                         _______ _______ _______ _____ _____    ______ ____
ROOT
ATOM      9  C   UNL     1      -2.879  -0.256  24.738  0.00  0.00    +0.154 C 
ATOM     10  O   UNL     1      -3.230  -1.002  24.729  0.00  0.00    -0.350 OA
ATOM     11  C   UNL     1      -2.630  -1.567  24.699  0.00  0.00    +0.180 C 
ATOM     14  C   UNL     1      -1.907  -1.170  24.691  0.00  0.00    +0.198 C 
ATOM     15  O   UNL     1      -1.160  -1.522  24.663  0.00  0.00    -0.219 OA
ATOM     16  C   UNL     1      -2.060  -0.360  24.714  0.00  0.00    +0.120 C 
ENDROOT
BRANCH  16  17
ATOM     17  N   UNL     1      -1.495   0.241  24.715  0.00  0.00    -0.270 NA
ATOM     18  C   UNL     1      -1.234   0.563  24.002  0.00  0.00    +0.072 C 
ATOM     19  C   UNL     1      -0.668   1.164  24.002  0.00  0.00    +0.017 C 
ATOM     20  C   UNL     1      -0.364   1.443  24.716  0.00  0.00    +0.003 C 
ATOM     21  C   UNL     1       0.202   2.043  24.718  0.00  0.00    +0.000 C 
ATOM     22  C   UNL     1      -0.624   1.120  25.430  0.00  0.00    +0.017 C 
ATOM     23  C   UNL     1      -1.190   0.520  25.430  0.00  0.00    +0.072 C 
ENDBRANCH  16  17
BRANCH  11  12
ATOM     12  C   UNL     1      -2.734  -2.386  24.682  0.00  0.00    +0.214 C 
ATOM     13  O   UNL     1      -3.496  -2.704  24.688  0.00  0.00    -0.218 OA
ENDBRANCH  11  12
BRANCH   9   8
ATOM      8  C   UNL     1      -3.275   0.467  24.766  0.00  0.00    +0.148 C 
BRANCH   8   7
ATOM      4  N   UNL     1      -5.208   1.254  25.405  0.00  0.00    -0.189 NA
ATOM      5  C   UNL     1      -4.466   1.204  25.046  0.00  0.00    +0.339 C 
ATOM      6  O   UNL     1      -4.175   1.841  24.611  0.00  0.00    -0.249 OA
ATOM      7  N   UNL     1      -4.017   0.517  25.124  0.00  0.00    -0.185 NA
BRANCH   4   2
ATOM      1  C   UNL     1      -5.504   2.592  25.813  0.00  0.00    +0.023 C 
ATOM      2  C   UNL     1      -5.658   1.942  25.327  0.00  0.00    +0.097 C 
ATOM      3  C   UNL     1      -6.260   1.980  24.765  0.00  0.00    +0.023 C 
ENDBRANCH   4   2
ENDBRANCH   8   7
ENDBRANCH   9   8
TORSDOF 5
ENDMDL
