MODEL 1
REMARK VINA RESULT:      -8.8      0.000      0.000
REMARK  Name = 
REMARK  9 active torsions:
REMARK  status: ('A' for Active; 'I' for Inactive)
REMARK    1  A    between atoms: C_2  and  C_4
REMARK    2  A    between atoms: C_6  and  C_7
REMARK    3  A    between atoms: C_7  and  C_8
REMARK    4  A    between atoms: N_10  and  C_11
REMARK    5  A    between atoms: C_11  and  C_12
REMARK    6  A    between atoms: C_12  and  N_13
REMARK    7  A    between atoms: C_22  and  C_23
REMARK    8  A    between atoms: C_23  and  N_24
REMARK    9  A    between atoms: C_25  and  C_27
REMARK                            x       y       z     vdW  Elec       q    Type
REMARK                         _______ _______ _______ _____ _____    ______ ____
ROOT
ATOM      4  C   UNL     1      -3.037  -0.706  24.657  0.00  0.00    +0.006 C 
ATOM      5  C   UNL     1      -2.264  -0.986  24.726  0.00  0.00    +0.005 C 
ATOM      6  C   UNL     1      -1.686  -0.519  25.083  0.00  0.00    +0.027 C 
ATOM     19  C   UNL     1      -1.880   0.229  25.371  0.00  0.00    -0.048 C 
ATOM     20  C   UNL     1      -1.301   0.698  25.728  0.00  0.00    +0.026 C 
ATOM     21  C   UNL     1      -2.653   0.510  25.303  0.00  0.00    -0.033 C 
ATOM     22  C   UNL     1      -3.231   0.042  24.945  0.00  0.00    +0.043 C 
ENDROOT
BRANCH   4   2
ATOM      1  C   UNL     1      -3.828  -1.039  23.516  0.00  0.00    +0.000 C 
ATOM      2  C   UNL     1      -3.615  -1.173  24.301  0.00  0.00    +0.000 C 
ATOM      3  C   UNL     1      -3.981  -1.776  24.730  0.00  0.00    +0.000 C 
ENDBRANCH   4   2
BRANCH   6   7
ATOM      7  C   UNL     1      -0.913  -0.799  25.152  0.00  0.00    +0.091 C 
BRANCH   7   8
ATOM      8  C   UNL     1      -0.462  -0.939  24.476  0.00  0.00    +0.242 C 
ATOM      9  O   UNL     1      -0.521  -1.662  24.083  0.00  0.00    -0.273 OA
ATOM     10  N   UNL     1       0.048  -0.356  24.191  0.00  0.00    -0.204 NA
BRANCH  10  11
ATOM     11  C   UNL     1       0.498  -0.495  23.515  0.00  0.00    +0.132 C 
BRANCH  11  12
ATOM     12  C   UNL     1       0.753   0.137  23.050  0.00  0.00    +0.096 C 
BRANCH  12  13
ATOM     13  N   UNL     1       1.503   0.122  22.708  0.00  0.00    -0.267 NA
ATOM     14  C   UNL     1       1.616  -0.239  21.975  0.00  0.00    +0.105 C 
ATOM     15  C   UNL     1       2.366  -0.254  21.633  0.00  0.00    +0.159 C 
ATOM     16  O   UNL     1       3.005   0.092  22.024  0.00  0.00    -0.351 OA
ATOM     17  C   UNL     1       2.893   0.453  22.758  0.00  0.00    +0.159 C 
ATOM     18  C   UNL     1       2.142   0.468  23.100  0.00  0.00    +0.105 C 
ENDBRANCH  12  13
ENDBRANCH  11  12
ENDBRANCH  10  11
ENDBRANCH   7   8
ENDBRANCH   6   7
BRANCH  22  23
ATOM     23  C   UNL     1      -4.004   0.323  24.877  0.00  0.00    +0.120 C 
BRANCH  23  24
ATOM     24  N   UNL     1      -4.180   1.100  25.093  0.00  0.00    -0.200 NA
ATOM     25  C   UNL     1      -4.944   1.393  24.989  0.00  0.00    +0.284 C 
ATOM     26  O   UNL     1      -5.532   0.910  24.670  0.00  0.00    -0.267 OA
BRANCH  25  27
ATOM     27  C   UNL     1      -5.121   2.170  25.205  0.00  0.00    +0.155 A 
ATOM     28  C   UNL     1      -5.629   2.316  25.838  0.00  0.00    +0.123 A 
ATOM     29  N   UNL     1      -5.805   3.093  26.054  0.00  0.00    -0.239 NA
ATOM     30  C   UNL     1      -5.473   3.723  25.637  0.00  0.00    +0.120 A 
ATOM     31  C   UNL     1      -4.965   3.576  25.004  0.00  0.00    +0.120 A 
ATOM     32  N   UNL     1      -4.789   2.800  24.788  0.00  0.00    -0.236 NA
ENDBRANCH  25  27
ENDBRANCH  23  24
ENDBRANCH  22  23
TORSDOF 9
ENDMDL
MODEL 2
REMARK VINA RESULT:      -8.6      1.727      6.403
REMARK  Name = 
REMARK  9 active torsions:
REMARK  status: ('A' for Active; 'I' for Inactive)
REMARK    1  A    between atoms: C_2  and  C_4
REMARK    2  A    between atoms: C_6  and  C_7
REMARK    3  A    between atoms: C_7  and  C_8
REMARK    4  A    between atoms: N_10  and  C_11
REMARK    5  A    between atoms: C_11  and  C_12
REMARK    6  A    between atoms: C_12  and  N_13
REMARK    7  A    between atoms: C_22  and  C_23
REMARK    8  A    between atoms: C_23  and  N_24
REMARK    9  A    between atoms: C_25  and  C_27
REMARK                            x       y       z     vdW  Elec       q    Type
REMARK                         _______ _______ _______ _____ _____    ______ ____
ROOT
ATOM      4  C   UNL     1      -1.034   1.410  24.995  0.00  0.00    +0.006 C 
ATOM      5  C   UNL     1      -1.357   2.111  25.287  0.00  0.00    +0.005 C 
ATOM      6  C   UNL     1      -1.093   2.838  25.002  0.00  0.00    +0.027 C 
ATOM     19  C   UNL     1      -0.505   2.865  24.423  0.00  0.00    -0.048 C 
ATOM     20  C   UNL     1      -0.240   3.593  24.137  0.00  0.00    +0.026 C 
ATOM     21  C   UNL     1      -0.182   2.165  24.130  0.00  0.00    -0.033 C 
ATOM     22  C   UNL     1      -0.447   1.437  24.416  0.00  0.00    +0.043 C 
ENDROOT
BRANCH   4   2
ATOM      1  C   UNL     1      -1.939   0.308  24.923  0.00  0.00    +0.000 C 
ATOM      2  C   UNL     1      -1.299   0.684  25.280  0.00  0.00    +0.000 C 
ATOM      3  C   UNL     1      -0.922   0.332  25.924  0.00  0.00    +0.000 C 
ENDBRANCH   4   2
BRANCH   6   7
ATOM      7  C   UNL     1      -1.415   3.539  25.294  0.00  0.00    +0.091 C 
BRANCH   7   8
ATOM      8  C   UNL     1      -2.171   3.540  25.624  0.00  0.00    +0.242 C 
ATOM      9  O   UNL     1      -2.265   3.468  26.440  0.00  0.00    -0.273 OA
ATOM     10  N   UNL     1      -2.834   3.613  25.138  0.00  0.00    -0.204 NA
BRANCH  10  11
ATOM     11  C   UNL     1      -3.590   3.614  25.467  0.00  0.00    +0.132 C 
BRANCH  11  12
ATOM     12  C   UNL     1      -4.254   3.600  24.978  0.00  0.00    +0.096 C 
BRANCH  12  13
ATOM     13  N   UNL     1      -4.871   3.077  25.135  0.00  0.00    -0.267 NA
ATOM     14  C   UNL     1      -4.993   2.423  24.646  0.00  0.00    +0.105 C 
ATOM     15  C   UNL     1      -5.611   1.900  24.803  0.00  0.00    +0.159 C 
ATOM     16  O   UNL     1      -6.107   2.030  25.448  0.00  0.00    -0.351 OA
ATOM     17  C   UNL     1      -5.987   2.683  25.937  0.00  0.00    +0.159 C 
ATOM     18  C   UNL     1      -5.368   3.207  25.780  0.00  0.00    +0.105 C 
ENDBRANCH  12  13
ENDBRANCH  11  12
ENDBRANCH  10  11
ENDBRANCH   7   8
ENDBRANCH   6   7
BRANCH  22  23
ATOM     23  C   UNL     1      -0.124   0.737  24.123  0.00  0.00    +0.120 C 
BRANCH  23  24
ATOM     24  N   UNL     1       0.569   0.760  23.676  0.00  0.00    -0.200 NA
ATOM     25  C   UNL     1       0.845   0.074  23.308  0.00  0.00    +0.284 C 
ATOM     26  O   UNL     1       0.428  -0.633  23.388  0.00  0.00    -0.267 OA
BRANCH  25  27
ATOM     27  C   UNL     1       1.539   0.096  22.861  0.00  0.00    +0.155 A 
ATOM     28  C   UNL     1       1.545  -0.210  22.095  0.00  0.00    +0.123 A 
ATOM     29  N   UNL     1       2.238  -0.188  21.649  0.00  0.00    -0.239 NA
ATOM     30  C   UNL     1       2.924   0.140  21.968  0.00  0.00    +0.120 A 
ATOM     31  C   UNL     1       2.918   0.446  22.733  0.00  0.00    +0.120 A 
ATOM     32  N   UNL     1       2.225   0.424  23.180  0.00  0.00    -0.236 NA
ENDBRANCH  25  27
ENDBRANCH  23  24
ENDBRANCH  22  23
TORSDOF 9
ENDMDL
MODEL 3
REMARK VINA RESULT:      -8.6      1.706      2.626
REMARK  Name = 
REMARK  9 active torsions:
REMARK  status: ('A' for Active; 'I' for Inactive)
REMARK    1  A    between atoms: C_2  and  C_4
REMARK    2  A    between atoms: C_6  and  C_7
REMARK    3  A    between atoms: C_7  and  C_8
REMARK    4  A    between atoms: N_10  and  C_11
REMARK    5  A    between atoms: C_11  and  C_12
REMARK    6  A    between atoms: C_12  and  N_13
REMARK    7  A    between atoms: C_22  and  C_23
REMARK    8  A    between atoms: C_23  and  N_24
REMARK    9  A    between atoms: C_25  and  C_27
REMARK                            x       y       z     vdW  Elec       q    Type
REMARK                         _______ _______ _______ _____ _____    ______ ____
ROOT
ATOM      4  C   UNL     1      -0.984   2.165  24.527  0.00  0.00    +0.006 C 
ATOM      5  C   UNL     1      -0.592   1.563  24.120  0.00  0.00    +0.005 C 
ATOM      6  C   UNL     1      -1.002   0.886  23.889  0.00  0.00    +0.027 C 
ATOM     19  C   UNL     1      -1.805   0.810  24.065  0.00  0.00    -0.048 C 
ATOM     20  C   UNL     1      -2.215   0.132  23.834  0.00  0.00    +0.026 C 
ATOM     21  C   UNL     1      -2.197   1.411  24.472  0.00  0.00    -0.033 C 
ATOM     22  C   UNL     1      -1.786   2.088  24.703  0.00  0.00    +0.043 C 
ENDROOT
BRANCH   4   2
ATOM      1  C   UNL     1      -0.232   2.881  25.507  0.00  0.00    +0.000 C 
ATOM      2  C   UNL     1      -0.574   2.842  24.758  0.00  0.00    +0.000 C 
ATOM      3  C   UNL     1      -0.506   3.480  24.240  0.00  0.00    +0.000 C 
ENDBRANCH   4   2
BRANCH   6   7
ATOM      7  C   UNL     1      -0.611   0.285  23.482  0.00  0.00    +0.091 C 
BRANCH   7   8
ATOM      8  C   UNL     1       0.184   0.130  23.638  0.00  0.00    +0.242 C 
ATOM      9  O   UNL     1       0.414  -0.130  24.387  0.00  0.00    -0.273 OA
ATOM     10  N   UNL     1       0.750   0.234  23.047  0.00  0.00    -0.204 NA
BRANCH  10  11
ATOM     11  C   UNL     1       1.544   0.079  23.203  0.00  0.00    +0.132 C 
BRANCH  11  12
ATOM     12  C   UNL     1       2.092   0.068  22.586  0.00  0.00    +0.096 C 
BRANCH  12  13
ATOM     13  N   UNL     1       2.896   0.154  22.747  0.00  0.00    -0.267 NA
ATOM     14  C   UNL     1       3.278   0.865  22.576  0.00  0.00    +0.105 C 
ATOM     15  C   UNL     1       4.082   0.951  22.737  0.00  0.00    +0.159 C 
ATOM     16  O   UNL     1       4.505   0.326  23.068  0.00  0.00    -0.351 OA
ATOM     17  C   UNL     1       4.125  -0.386  23.239  0.00  0.00    +0.159 C 
ATOM     18  C   UNL     1       3.320  -0.472  23.078  0.00  0.00    +0.105 C 
ENDBRANCH  12  13
ENDBRANCH  11  12
ENDBRANCH  10  11
ENDBRANCH   7   8
ENDBRANCH   6   7
BRANCH  22  23
ATOM     23  C   UNL     1      -2.179   2.689  25.110  0.00  0.00    +0.120 C 
BRANCH  23  24
ATOM     24  N   UNL     1      -3.003   2.713  25.113  0.00  0.00    -0.200 NA
ATOM     25  C   UNL     1      -3.398   3.259  25.591  0.00  0.00    +0.284 C 
ATOM     26  O   UNL     1      -2.968   3.779  26.065  0.00  0.00    -0.267 OA
BRANCH  25  27
ATOM     27  C   UNL     1      -4.224   3.283  25.593  0.00  0.00    +0.155 A 
ATOM     28  C   UNL     1      -4.616   3.972  25.365  0.00  0.00    +0.123 A 
ATOM     29  N   UNL     1      -5.440   3.996  25.368  0.00  0.00    -0.239 NA
ATOM     30  C   UNL     1      -5.872   3.332  25.599  0.00  0.00    +0.120 A 
ATOM     31  C   UNL     1      -5.479   2.644  25.828  0.00  0.00    +0.120 A 
ATOM     32  N   UNL     1      -4.655   2.619  25.825  0.00  0.00    -0.236 NA
ENDBRANCH  25  27
ENDBRANCH  23  24
ENDBRANCH  22  23
TORSDOF 9
ENDMDL
MODEL 4
REMARK VINA RESULT:      -8.3      3.028      5.055
REMARK  Name = 
REMARK  9 active torsions:
REMARK  status: ('A' for Active; 'I' for Inactive)
REMARK    1  A    between atoms: C_2  and  C_4
REMARK    2  A    between atoms: C_6  and  C_7
REMARK    3  A    between atoms: C_7  and  C_8
REMARK    4  A    between atoms: N_10  and  C_11
REMARK    5  A    between atoms: C_11  and  C_12
REMARK    6  A    between atoms: C_12  and  N_13
REMARK    7  A    between atoms: C_22  and  C_23
REMARK    8  A    between atoms: C_23  and  N_24
REMARK    9  A    between atoms: C_25  and  C_27
REMARK                            x       y       z     vdW  Elec       q    Type
REMARK                         _______ _______ _______ _____ _____    ______ ____
ROOT
ATOM      4  C   UNL     1      -3.737   1.541  23.999  0.00  0.00    +0.006 C 
ATOM      5  C   UNL     1      -3.945   2.251  24.364  0.00  0.00    +0.005 C 
ATOM      6  C   UNL     1      -4.557   2.268  24.917  0.00  0.00    +0.027 C 
ATOM     19  C   UNL     1      -4.961   1.574  25.105  0.00  0.00    -0.048 C 
ATOM     20  C   UNL     1      -5.574   1.590  25.659  0.00  0.00    +0.026 C 
ATOM     21  C   UNL     1      -4.754   0.863  24.741  0.00  0.00    -0.033 C 
ATOM     22  C   UNL     1      -4.142   0.847  24.187  0.00  0.00    +0.043 C 
ENDROOT
BRANCH   4   2
ATOM      1  C   UNL     1      -3.277   1.713  22.658  0.00  0.00    +0.000 C 
ATOM      2  C   UNL     1      -3.126   1.524  23.446  0.00  0.00    +0.000 C 
ATOM      3  C   UNL     1      -2.363   1.319  23.682  0.00  0.00    +0.000 C 
ENDBRANCH   4   2
BRANCH   6   7
ATOM      7  C   UNL     1      -4.765   2.978  25.282  0.00  0.00    +0.091 C 
BRANCH   7   8
ATOM      8  C   UNL     1      -4.280   3.640  25.203  0.00  0.00    +0.242 C 
ATOM      9  O   UNL     1      -4.446   4.206  24.626  0.00  0.00    -0.273 OA
ATOM     10  N   UNL     1      -3.629   3.738  25.701  0.00  0.00    -0.204 NA
BRANCH  10  11
ATOM     11  C   UNL     1      -3.145   4.400  25.622  0.00  0.00    +0.132 C 
BRANCH  11  12
ATOM     12  C   UNL     1      -2.409   4.420  25.994  0.00  0.00    +0.096 C 
BRANCH  12  13
ATOM     13  N   UNL     1      -1.731   4.593  25.558  0.00  0.00    -0.267 NA
ATOM     14  C   UNL     1      -1.640   5.337  25.212  0.00  0.00    +0.105 C 
ATOM     15  C   UNL     1      -0.962   5.510  24.776  0.00  0.00    +0.159 C 
ATOM     16  O   UNL     1      -0.373   4.939  24.686  0.00  0.00    -0.351 OA
ATOM     17  C   UNL     1      -0.463   4.195  25.031  0.00  0.00    +0.159 C 
ATOM     18  C   UNL     1      -1.142   4.022  25.467  0.00  0.00    +0.105 C 
ENDBRANCH  12  13
ENDBRANCH  11  12
ENDBRANCH  10  11
ENDBRANCH   7   8
ENDBRANCH   6   7
BRANCH  22  23
ATOM     23  C   UNL     1      -3.935   0.137  23.823  0.00  0.00    +0.120 C 
BRANCH  23  24
ATOM     24  N   UNL     1      -3.774  -0.530  24.282  0.00  0.00    -0.200 NA
ATOM     25  C   UNL     1      -3.836  -1.283  23.950  0.00  0.00    +0.284 C 
ATOM     26  O   UNL     1      -4.058  -1.370  23.160  0.00  0.00    -0.267 OA
BRANCH  25  27
ATOM     27  C   UNL     1      -3.675  -1.950  24.409  0.00  0.00    +0.155 A 
ATOM     28  C   UNL     1      -3.803  -2.704  24.100  0.00  0.00    +0.123 A 
ATOM     29  N   UNL     1      -3.642  -3.370  24.559  0.00  0.00    -0.239 NA
ATOM     30  C   UNL     1      -3.353  -3.283  25.326  0.00  0.00    +0.120 A 
ATOM     31  C   UNL     1      -3.225  -2.529  25.635  0.00  0.00    +0.120 A 
ATOM     32  N   UNL     1      -3.386  -1.863  25.177  0.00  0.00    -0.236 NA
ENDBRANCH  25  27
ENDBRANCH  23  24
ENDBRANCH  22  23
TORSDOF 9
ENDMDL
MODEL 5
REMARK VINA RESULT:      -8.0      1.922      3.275
REMARK  Name = 
REMARK  9 active torsions:
REMARK  status: ('A' for Active; 'I' for Inactive)
REMARK    1  A    between atoms: C_2  and  C_4
REMARK    2  A    between atoms: C_6  and  C_7
REMARK    3  A    between atoms: C_7  and  C_8
REMARK    4  A    between atoms: N_10  and  C_11
REMARK    5  A    between atoms: C_11  and  C_12
REMARK    6  A    between atoms: C_12  and  N_13
REMARK    7  A    between atoms: C_22  and  C_23
REMARK    8  A    between atoms: C_23  and  N_24
REMARK    9  A    between atoms: C_25  and  C_27
REMARK                            x       y       z     vdW  Elec       q    Type
REMARK                         _______ _______ _______ _____ _____    ______ ____
ROOT
ATOM      4  C   UNL     1      -2.065   1.905  23.490  0.00  0.00    +0.006 C 
ATOM      5  C   UNL     1      -1.351   1.500  23.579  0.00  0.00    +0.005 C 
ATOM      6  C   UNL     1      -0.903   1.599  24.264  0.00  0.00    +0.027 C 
ATOM     19  C   UNL     1      -1.167   2.105  24.860  0.00  0.00    -0.048 C 
ATOM     20  C   UNL     1      -0.719   2.204  25.546  0.00  0.00    +0.026 C 
ATOM     21  C   UNL     1      -1.880   2.510  24.772  0.00  0.00    -0.033 C 
ATOM     22  C   UNL     1      -2.329   2.410  24.086  0.00  0.00    +0.043 C 
ENDROOT
BRANCH   4   2
ATOM      1  C   UNL     1      -3.031   1.168  22.740  0.00  0.00    +0.000 C 
ATOM      2  C   UNL     1      -2.513   1.806  22.805  0.00  0.00    +0.000 C 
ATOM      3  C   UNL     1      -2.443   2.345  22.185  0.00  0.00    +0.000 C 
ENDBRANCH   4   2
BRANCH   6   7
ATOM      7  C   UNL     1      -0.190   1.194  24.353  0.00  0.00    +0.091 C 
BRANCH   7   8
ATOM      8  C   UNL     1      -0.153   0.385  24.202  0.00  0.00    +0.242 C 
ATOM      9  O   UNL     1       0.236   0.109  23.529  0.00  0.00    -0.273 OA
ATOM     10  N   UNL     1      -0.505  -0.150  24.722  0.00  0.00    -0.204 NA
BRANCH  10  11
ATOM     11  C   UNL     1      -0.468  -0.959  24.570  0.00  0.00    +0.132 C 
BRANCH  11  12
ATOM     12  C   UNL     1      -0.807  -1.495  25.099  0.00  0.00    +0.096 C 
BRANCH  12  13
ATOM     13  N   UNL     1      -1.505  -1.886  24.900  0.00  0.00    -0.267 NA
ATOM     14  C   UNL     1      -2.219  -1.657  25.244  0.00  0.00    +0.105 C 
ATOM     15  C   UNL     1      -2.917  -2.049  25.045  0.00  0.00    +0.159 C 
ATOM     16  O   UNL     1      -2.901  -2.670  24.502  0.00  0.00    -0.351 OA
ATOM     17  C   UNL     1      -2.188  -2.899  24.158  0.00  0.00    +0.159 C 
ATOM     18  C   UNL     1      -1.489  -2.507  24.357  0.00  0.00    +0.105 C 
ENDBRANCH  12  13
ENDBRANCH  11  12
ENDBRANCH  10  11
ENDBRANCH   7   8
ENDBRANCH   6   7
BRANCH  22  23
ATOM     23  C   UNL     1      -3.042   2.816  23.998  0.00  0.00    +0.120 C 
BRANCH  23  24
ATOM     24  N   UNL     1      -3.675   2.649  24.500  0.00  0.00    -0.200 NA
ATOM     25  C   UNL     1      -4.271   3.210  24.611  0.00  0.00    +0.284 C 
ATOM     26  O   UNL     1      -4.233   3.936  24.221  0.00  0.00    -0.267 OA
BRANCH  25  27
ATOM     27  C   UNL     1      -4.905   3.043  25.114  0.00  0.00    +0.155 A 
ATOM     28  C   UNL     1      -5.063   3.538  25.755  0.00  0.00    +0.123 A 
ATOM     29  N   UNL     1      -5.696   3.371  26.256  0.00  0.00    -0.239 NA
ATOM     30  C   UNL     1      -6.171   2.711  26.117  0.00  0.00    +0.120 A 
ATOM     31  C   UNL     1      -6.012   2.217  25.476  0.00  0.00    +0.120 A 
ATOM     32  N   UNL     1      -5.379   2.383  24.975  0.00  0.00    -0.236 NA
ENDBRANCH  25  27
ENDBRANCH  23  24
ENDBRANCH  22  23
TORSDOF 9
ENDMDL
MODEL 6
REMARK VINA RESULT:      -6.9     13.496     14.876
REMARK  Name = 
REMARK  9 active torsions:
REMARK  status: ('A' for Active; 'I' for Inactive)
REMARK    1  A    between atoms: C_2  and  C_4
REMARK    2  A    between atoms: C_6  and  C_7
REMARK    3  A    between atoms: C_7  and  C_8
REMARK    4  A    between atoms: N_10  and  C_11
REMARK    5  A    between atoms: C_11  and  C_12
REMARK    6  A    between atoms: C_12  and  N_13
REMARK    7  A    between atoms: C_22  and  C_23
REMARK    8  A    between atoms: C_23  and  N_24
REMARK    9  A    between atoms: C_25  and  C_27
REMARK                            x       y       z     vdW  Elec       q    Type
REMARK                         _______ _______ _______ _____ _____    ______ ____
ROOT
ATOM      4  C   UNL     1      -6.279 -10.177  15.509  0.00  0.00    +0.006 C 
ATOM      5  C   UNL     1      -6.010 -10.404  14.763  0.00  0.00    +0.005 C 
ATOM      6  C   UNL     1      -6.540 -10.460  14.133  0.00  0.00    +0.027 C 
ATOM     19  C   UNL     1      -7.338 -10.290  14.249  0.00  0.00    -0.048 C 
ATOM     20  C   UNL     1      -7.869 -10.346  13.619  0.00  0.00    +0.026 C 
ATOM     21  C   UNL     1      -7.608 -10.063  14.995  0.00  0.00    -0.033 C 
ATOM     22  C   UNL     1      -7.078 -10.007  15.625  0.00  0.00    +0.043 C 
ENDROOT
BRANCH   4   2
ATOM      1  C   UNL     1      -5.595 -10.781  16.608  0.00  0.00    +0.000 C 
ATOM      2  C   UNL     1      -5.750 -10.121  16.139  0.00  0.00    +0.000 C 
ATOM      3  C   UNL     1      -5.375  -9.404  16.299  0.00  0.00    +0.000 C 
ENDBRANCH   4   2
BRANCH   6   7
ATOM      7  C   UNL     1      -6.271 -10.687  13.387  0.00  0.00    +0.091 C 
BRANCH   7   8
ATOM      8  C   UNL     1      -5.628 -10.302  13.044  0.00  0.00    +0.242 C 
ATOM      9  O   UNL     1      -5.644  -9.483  12.942  0.00  0.00    -0.273 OA
ATOM     10  N   UNL     1      -4.967 -10.734  12.803  0.00  0.00    -0.204 NA
BRANCH  10  11
ATOM     11  C   UNL     1      -4.324 -10.349  12.461  0.00  0.00    +0.132 C 
BRANCH  11  12
ATOM     12  C   UNL     1      -3.755 -10.781  12.048  0.00  0.00    +0.096 C 
BRANCH  12  13
ATOM     13  N   UNL     1      -3.077 -10.407  11.765  0.00  0.00    -0.267 NA
ATOM     14  C   UNL     1      -2.385 -10.412  12.215  0.00  0.00    +0.105 C 
ATOM     15  C   UNL     1      -1.707 -10.038  11.933  0.00  0.00    +0.159 C 
ATOM     16  O   UNL     1      -1.720  -9.658  11.200  0.00  0.00    -0.351 OA
ATOM     17  C   UNL     1      -2.411  -9.652  10.750  0.00  0.00    +0.159 C 
ATOM     18  C   UNL     1      -3.090 -10.027  11.033  0.00  0.00    +0.105 C 
ENDBRANCH  12  13
ENDBRANCH  11  12
ENDBRANCH  10  11
ENDBRANCH   7   8
ENDBRANCH   6   7
BRANCH  22  23
ATOM     23  C   UNL     1      -7.347  -9.780  16.371  0.00  0.00    +0.120 C 
BRANCH  23  24
ATOM     24  N   UNL     1      -8.091  -9.432  16.451  0.00  0.00    -0.200 NA
ATOM     25  C   UNL     1      -8.402  -9.293  17.204  0.00  0.00    +0.284 C 
ATOM     26  O   UNL     1      -7.969  -9.501  17.874  0.00  0.00    -0.267 OA
BRANCH  25  27
ATOM     27  C   UNL     1      -9.146  -8.945  17.284  0.00  0.00    +0.155 A 
ATOM     28  C   UNL     1      -9.798  -9.409  17.486  0.00  0.00    +0.123 A 
ATOM     29  N   UNL     1     -10.541  -9.061  17.566  0.00  0.00    -0.239 NA
ATOM     30  C   UNL     1     -10.633  -8.250  17.446  0.00  0.00    +0.120 A 
ATOM     31  C   UNL     1      -9.982  -7.787  17.244  0.00  0.00    +0.120 A 
ATOM     32  N   UNL     1      -9.238  -8.134  17.164  0.00  0.00    -0.236 NA
ENDBRANCH  25  27
ENDBRANCH  23  24
ENDBRANCH  22  23
TORSDOF 9
ENDMDL
MODEL 7
REMARK VINA RESULT:      -6.5     13.601     16.053
REMARK  Name = 
REMARK  9 active torsions:
REMARK  status: ('A' for Active; 'I' for Inactive)
REMARK    1  A    between atoms: C_2  and  C_4
REMARK    2  A    between atoms: C_6  and  C_7
REMARK    3  A    between atoms: C_7  and  C_8
REMARK    4  A    between atoms: N_10  and  C_11
REMARK    5  A    between atoms: C_11  and  C_12
REMARK    6  A    between atoms: C_12  and  N_13
REMARK    7  A    between atoms: C_22  and  C_23
REMARK    8  A    between atoms: C_23  and  N_24
REMARK    9  A    between atoms: C_25  and  C_27
REMARK                            x       y       z     vdW  Elec       q    Type
REMARK                         _______ _______ _______ _____ _____    ______ ____
ROOT
ATOM      4  C   UNL     1      -5.998 -10.264  13.808  0.00  0.00    +0.006 C 
ATOM      5  C   UNL     1      -6.272 -10.232  14.586  0.00  0.00    +0.005 C 
ATOM      6  C   UNL     1      -5.751 -10.357  15.213  0.00  0.00    +0.027 C 
ATOM     19  C   UNL     1      -4.955 -10.514  15.063  0.00  0.00    -0.048 C 
ATOM     20  C   UNL     1      -4.433 -10.638  15.691  0.00  0.00    +0.026 C 
ATOM     21  C   UNL     1      -4.680 -10.546  14.286  0.00  0.00    -0.033 C 
ATOM     22  C   UNL     1      -5.202 -10.421  13.658  0.00  0.00    +0.043 C 
ENDROOT
BRANCH   4   2
ATOM      1  C   UNL     1      -6.613  -9.383  12.868  0.00  0.00    +0.000 C 
ATOM      2  C   UNL     1      -6.518 -10.140  13.182  0.00  0.00    +0.000 C 
ATOM      3  C   UNL     1      -6.944 -10.773  12.867  0.00  0.00    +0.000 C 
ENDBRANCH   4   2
BRANCH   6   7
ATOM      7  C   UNL     1      -6.025 -10.325  15.991  0.00  0.00    +0.091 C 
BRANCH   7   8
ATOM      8  C   UNL     1      -6.526  -9.714  16.227  0.00  0.00    +0.242 C 
ATOM      9  O   UNL     1      -6.232  -8.948  16.308  0.00  0.00    -0.273 OA
ATOM     10  N   UNL     1      -7.321  -9.869  16.384  0.00  0.00    -0.204 NA
BRANCH  10  11
ATOM     11  C   UNL     1      -7.822  -9.258  16.620  0.00  0.00    +0.132 C 
BRANCH  11  12
ATOM     12  C   UNL     1      -8.623  -9.408  16.750  0.00  0.00    +0.096 C 
BRANCH  12  13
ATOM     13  N   UNL     1      -9.168  -8.790  16.723  0.00  0.00    -0.267 NA
ATOM     14  C   UNL     1      -9.470  -8.536  15.998  0.00  0.00    +0.105 C 
ATOM     15  C   UNL     1     -10.015  -7.918  15.971  0.00  0.00    +0.159 C 
ATOM     16  O   UNL     1     -10.259  -7.552  16.669  0.00  0.00    -0.351 OA
ATOM     17  C   UNL     1      -9.958  -7.805  17.394  0.00  0.00    +0.159 C 
ATOM     18  C   UNL     1      -9.412  -8.424  17.421  0.00  0.00    +0.105 C 
ENDBRANCH  12  13
ENDBRANCH  11  12
ENDBRANCH  10  11
ENDBRANCH   7   8
ENDBRANCH   6   7
BRANCH  22  23
ATOM     23  C   UNL     1      -4.926 -10.453  12.882  0.00  0.00    +0.120 C 
BRANCH  23  24
ATOM     24  N   UNL     1      -4.131 -10.305  12.721  0.00  0.00    -0.200 NA
ATOM     25  C   UNL     1      -3.825 -10.469  11.972  0.00  0.00    +0.284 C 
ATOM     26  O   UNL     1      -4.314 -10.780  11.385  0.00  0.00    -0.267 OA
BRANCH  25  27
ATOM     27  C   UNL     1      -3.028 -10.321  11.810  0.00  0.00    +0.155 A 
ATOM     28  C   UNL     1      -2.444 -10.777  12.172  0.00  0.00    +0.123 A 
ATOM     29  N   UNL     1      -1.648 -10.629  12.010  0.00  0.00    -0.239 NA
ATOM     30  C   UNL     1      -1.438 -10.026  11.487  0.00  0.00    +0.120 A 
ATOM     31  C   UNL     1      -2.023  -9.572  11.126  0.00  0.00    +0.120 A 
ATOM     32  N   UNL     1      -2.818  -9.719  11.287  0.00  0.00    -0.236 NA
ENDBRANCH  25  27
ENDBRANCH  23  24
ENDBRANCH  22  23
TORSDOF 9
ENDMDL
MODEL 8
REMARK VINA RESULT:      -5.8     15.641     17.130
REMARK  Name = 
REMARK  9 active torsions:
REMARK  status: ('A' for Active; 'I' for Inactive)
REMARK    1  A    between atoms: C_2  and  C_4
REMARK    2  A    between atoms: C_6  and  C_7
REMARK    3  A    between atoms: C_7  and  C_8
REMARK    4  A    between atoms: N_10  and  C_11
REMARK    5  A    between atoms: C_11  and  C_12
REMARK    6  A    between atoms: C_12  and  N_13
REMARK    7  A    between atoms: C_22  and  C_23
REMARK    8  A    between atoms: C_23  and  N_24
REMARK    9  A    between atoms: C_25  and  C_27
REMARK                            x       y       z     vdW  Elec       q    Type
REMARK                         _______ _______ _______ _____ _____    ______ ____
ROOT
ATOM      4  C   UNL     1      -5.303  -9.438  10.324  0.00  0.00    +0.006 C 
ATOM      5  C   UNL     1      -5.025  -9.895  10.951  0.00  0.00    +0.005 C 
ATOM      6  C   UNL     1      -5.555 -10.308  11.428  0.00  0.00    +0.027 C 
ATOM     19  C   UNL     1      -6.365 -10.265  11.278  0.00  0.00    -0.048 C 
ATOM     20  C   UNL     1      -6.897 -10.678  11.756  0.00  0.00    +0.026 C 
ATOM     21  C   UNL     1      -6.645  -9.808  10.651  0.00  0.00    -0.033 C 
ATOM     22  C   UNL     1      -6.113  -9.394  10.174  0.00  0.00    +0.043 C 
ENDROOT
BRANCH   4   2
ATOM      1  C   UNL     1      -4.418  -9.400   9.204  0.00  0.00    +0.000 C 
ATOM      2  C   UNL     1      -4.773  -9.025   9.846  0.00  0.00    +0.000 C 
ATOM      3  C   UNL     1      -4.598  -8.236  10.012  0.00  0.00    +0.000 C 
ENDBRANCH   4   2
BRANCH   6   7
ATOM      7  C   UNL     1      -5.277 -10.766  12.056  0.00  0.00    +0.091 C 
BRANCH   7   8
ATOM      8  C   UNL     1      -4.864 -10.411  12.675  0.00  0.00    +0.242 C 
ATOM      9  O   UNL     1      -5.114  -9.684  12.974  0.00  0.00    -0.273 OA
ATOM     10  N   UNL     1      -4.200 -10.781  12.995  0.00  0.00    -0.204 NA
BRANCH  10  11
ATOM     11  C   UNL     1      -3.787 -10.426  13.614  0.00  0.00    +0.132 C 
BRANCH  11  12
ATOM     12  C   UNL     1      -2.970 -10.525  13.676  0.00  0.00    +0.096 C 
BRANCH  12  13
ATOM     13  N   UNL     1      -2.612 -10.543  14.419  0.00  0.00    -0.267 NA
ATOM     14  C   UNL     1      -3.049 -10.761  15.083  0.00  0.00    +0.105 C 
ATOM     15  C   UNL     1      -2.691 -10.780  15.826  0.00  0.00    +0.159 C 
ATOM     16  O   UNL     1      -1.894 -10.580  15.904  0.00  0.00    -0.351 OA
ATOM     17  C   UNL     1      -1.456 -10.362  15.240  0.00  0.00    +0.159 C 
ATOM     18  C   UNL     1      -1.815 -10.344  14.497  0.00  0.00    +0.105 C 
ENDBRANCH  12  13
ENDBRANCH  11  12
ENDBRANCH  10  11
ENDBRANCH   7   8
ENDBRANCH   6   7
BRANCH  22  23
ATOM     23  C   UNL     1      -6.393  -8.937   9.546  0.00  0.00    +0.120 C 
BRANCH  23  24
ATOM     24  N   UNL     1      -7.164  -8.645   9.562  0.00  0.00    -0.200 NA
ATOM     25  C   UNL     1      -7.546  -8.450   8.857  0.00  0.00    +0.284 C 
ATOM     26  O   UNL     1      -7.156  -8.548   8.136  0.00  0.00    -0.267 OA
BRANCH  25  27
ATOM     27  C   UNL     1      -8.318  -8.157   8.872  0.00  0.00    +0.155 A 
ATOM     28  C   UNL     1      -8.956  -8.680   8.873  0.00  0.00    +0.123 A 
ATOM     29  N   UNL     1      -9.727  -8.387   8.888  0.00  0.00    -0.239 NA
ATOM     30  C   UNL     1      -9.860  -7.573   8.903  0.00  0.00    +0.120 A 
ATOM     31  C   UNL     1      -9.221  -7.051   8.903  0.00  0.00    +0.120 A 
ATOM     32  N   UNL     1      -8.450  -7.343   8.887  0.00  0.00    -0.236 NA
ENDBRANCH  25  27
ENDBRANCH  23  24
ENDBRANCH  22  23
TORSDOF 9
ENDMDL
MODEL 9
REMARK VINA RESULT:      -5.5     14.354     16.700
REMARK  Name = 
REMARK  9 active torsions:
REMARK  status: ('A' for Active; 'I' for Inactive)
REMARK    1  A    between atoms: C_2  and  C_4
REMARK    2  A    between atoms: C_6  and  C_7
REMARK    3  A    between atoms: C_7  and  C_8
REMARK    4  A    between atoms: N_10  and  C_11
REMARK    5  A    between atoms: C_11  and  C_12
REMARK    6  A    between atoms: C_12  and  N_13
REMARK    7  A    between atoms: C_22  and  C_23
REMARK    8  A    between atoms: C_23  and  N_24
REMARK    9  A    between atoms: C_25  and  C_27
REMARK                            x       y       z     vdW  Elec       q    Type
REMARK                         _______ _______ _______ _____ _____    ______ ____
ROOT
ATOM      4  C   UNL     1      -7.613  -9.988  12.726  0.00  0.00    +0.006 C 
ATOM      5  C   UNL     1      -7.690 -10.228  13.512  0.00  0.00    +0.005 C 
ATOM      6  C   UNL     1      -7.036 -10.220  14.013  0.00  0.00    +0.027 C 
ATOM     19  C   UNL     1      -6.302  -9.973  13.728  0.00  0.00    -0.048 C 
ATOM     20  C   UNL     1      -5.646  -9.965  14.230  0.00  0.00    +0.026 C 
ATOM     21  C   UNL     1      -6.223  -9.733  12.943  0.00  0.00    -0.033 C 
ATOM     22  C   UNL     1      -6.879  -9.740  12.442  0.00  0.00    +0.043 C 
ENDROOT
BRANCH   4   2
ATOM      1  C   UNL     1      -8.748  -9.328  12.165  0.00  0.00    +0.000 C 
ATOM      2  C   UNL     1      -8.267  -9.995  12.225  0.00  0.00    +0.000 C 
ATOM      3  C   UNL     1      -8.442 -10.670  11.785  0.00  0.00    +0.000 C 
ENDBRANCH   4   2
BRANCH   6   7
ATOM      7  C   UNL     1      -7.113 -10.461  14.798  0.00  0.00    +0.091 C 
BRANCH   7   8
ATOM      8  C   UNL     1      -7.810 -10.304  15.211  0.00  0.00    +0.242 C 
ATOM      9  O   UNL     1      -8.477 -10.773  15.087  0.00  0.00    -0.273 OA
ATOM     10  N   UNL     1      -7.840  -9.678  15.748  0.00  0.00    -0.204 NA
BRANCH  10  11
ATOM     11  C   UNL     1      -8.536  -9.521  16.161  0.00  0.00    +0.132 C 
BRANCH  11  12
ATOM     12  C   UNL     1      -8.558  -8.914  16.720  0.00  0.00    +0.096 C 
BRANCH  12  13
ATOM     13  N   UNL     1      -9.278  -8.674  17.041  0.00  0.00    -0.267 NA
ATOM     14  C   UNL     1      -9.674  -9.161  17.577  0.00  0.00    +0.105 C 
ATOM     15  C   UNL     1     -10.394  -8.921  17.898  0.00  0.00    +0.159 C 
ATOM     16  O   UNL     1     -10.719  -8.194  17.684  0.00  0.00    -0.351 OA
ATOM     17  C   UNL     1     -10.324  -7.706  17.149  0.00  0.00    +0.159 C 
ATOM     18  C   UNL     1      -9.603  -7.947  16.827  0.00  0.00    +0.105 C 
ENDBRANCH  12  13
ENDBRANCH  11  12
ENDBRANCH  10  11
ENDBRANCH   7   8
ENDBRANCH   6   7
BRANCH  22  23
ATOM     23  C   UNL     1      -6.800  -9.500  11.657  0.00  0.00    +0.120 C 
BRANCH  23  24
ATOM     24  N   UNL     1      -6.060  -9.524  11.292  0.00  0.00    -0.200 NA
ATOM     25  C   UNL     1      -5.937  -9.117  10.584  0.00  0.00    +0.284 C 
ATOM     26  O   UNL     1      -6.552  -8.686  10.243  0.00  0.00    -0.267 OA
BRANCH  25  27
ATOM     27  C   UNL     1      -5.197  -9.141  10.219  0.00  0.00    +0.155 A 
ATOM     28  C   UNL     1      -5.120  -9.471   9.467  0.00  0.00    +0.123 A 
ATOM     29  N   UNL     1      -4.380  -9.495   9.102  0.00  0.00    -0.239 NA
ATOM     30  C   UNL     1      -3.719  -9.188   9.488  0.00  0.00    +0.120 A 
ATOM     31  C   UNL     1      -3.797  -8.858  10.239  0.00  0.00    +0.120 A 
ATOM     32  N   UNL     1      -4.535  -8.834  10.605  0.00  0.00    -0.236 NA
ENDBRANCH  25  27
ENDBRANCH  23  24
ENDBRANCH  22  23
TORSDOF 9
ENDMDL
