MODEL 1
REMARK VINA RESULT:     -14.9      0.000      0.000
REMARK  Name = 
REMARK  6 active torsions:
REMARK  status: ('A' for Active; 'I' for Inactive)
REMARK    1  A    between atoms: C_2  and  C_3
REMARK    2  A    between atoms: C_11  and  C_12
REMARK    3  A    between atoms: C_12  and  C_13
REMARK    4  A    between atoms: N_15  and  C_16
REMARK    5  A    between atoms: C_16  and  C_17
REMARK    6  A    between atoms: C_26  and  C_28
REMARK                            x       y       z     vdW  Elec       q    Type
REMARK                         _______ _______ _______ _____ _____    ______ ____
ROOT
ATOM      1  C   UNL     1      -2.568  -2.816  24.582  0.00  0.00    +0.005 C 
ATOM      2  C   UNL     1      -2.847  -2.040  24.525  0.00  0.00    +0.059 C 
ATOM      5  C   UNL     1      -3.544  -2.454  24.376  0.00  0.00    +0.154 C 
ATOM      6  O   UNL     1      -3.543  -3.279  24.375  0.00  0.00    -0.223 OA
ATOM      7  C   UNL     1      -4.244  -2.043  24.229  0.00  0.00    +0.033 C 
ATOM      8  C   UNL     1      -4.246  -1.219  24.231  0.00  0.00    +0.003 C 
ATOM      9  C   UNL     1      -3.548  -0.804  24.379  0.00  0.00    +0.006 C 
ATOM     10  C   UNL     1      -4.248  -0.393  24.233  0.00  0.00    +0.000 C 
ATOM     11  C   UNL     1      -3.550   0.021  24.381  0.00  0.00    +0.050 C 
ATOM     19  C   UNL     1      -2.853   0.434  24.529  0.00  0.00    +0.063 A 
ATOM     20  C   UNL     1      -2.152   0.023  24.676  0.00  0.00    +0.023 A 
ATOM     21  C   UNL     1      -2.150  -0.802  24.675  0.00  0.00    +0.034 C 
ATOM     22  C   UNL     1      -2.849  -1.216  24.526  0.00  0.00    +0.010 C 
ATOM     23  S   UNL     1      -1.554   0.576  24.804  0.00  0.00    -0.054 S 
ATOM     24  C   UNL     1      -1.884   1.330  24.736  0.00  0.00    +0.185 A 
ATOM     25  N   UNL     1      -1.482   2.045  24.822  0.00  0.00    -0.150 NA
ATOM     26  C   UNL     1      -1.887   2.759  24.738  0.00  0.00    +0.275 C 
ATOM     27  O   UNL     1      -2.695   2.757  24.568  0.00  0.00    -0.268 OA
ATOM     36  N   UNL     1      -2.686   1.242  24.566  0.00  0.00    -0.227 NA
ENDROOT
BRANCH  26  28
ATOM     28  C   UNL     1      -1.485   3.474  24.825  0.00  0.00    +0.110 A 
ATOM     29  C   UNL     1      -1.682   3.985  25.442  0.00  0.00    +0.147 A 
ATOM     30  F   UNL     1      -2.281   3.782  25.972  0.00  0.00    -0.204 F 
ATOM     31  C   UNL     1      -1.280   4.700  25.529  0.00  0.00    +0.030 A 
ATOM     32  C   UNL     1      -0.681   4.904  25.000  0.00  0.00    +0.005 A 
ATOM     33  C   UNL     1      -0.484   4.393  24.383  0.00  0.00    +0.030 A 
ATOM     34  C   UNL     1      -0.886   3.677  24.296  0.00  0.00    +0.147 A 
ATOM     35  F   UNL     1      -0.690   3.166  23.679  0.00  0.00    -0.204 F 
ENDBRANCH  26  28
BRANCH   2   3
ATOM      3  C   UNL     1      -2.052  -1.896  24.693  0.00  0.00    +0.184 C 
ATOM      4  O   UNL     1      -1.526  -2.526  24.771  0.00  0.00    -0.220 OA
ENDBRANCH   2   3
BRANCH  11  12
ATOM     12  C   UNL     1      -4.250   0.431  24.234  0.00  0.00    +0.093 C 
BRANCH  12  13
ATOM     13  C   UNL     1      -4.692   0.732  24.862  0.00  0.00    +0.243 C 
ATOM     14  O   UNL     1      -4.697   0.339  25.588  0.00  0.00    -0.273 OA
ATOM     15  N   UNL     1      -5.129   1.425  24.766  0.00  0.00    -0.191 NA
BRANCH  15  16
ATOM     16  C   UNL     1      -5.571   1.725  25.394  0.00  0.00    +0.191 C 
BRANCH  16  17
ATOM     17  C   UNL     1      -5.700   2.537  25.457  0.00  0.00    -0.054 C 
ATOM     18  C   UNL     1      -5.829   3.350  25.520  0.00  0.00    -0.012 C 
ENDBRANCH  16  17
ENDBRANCH  15  16
ENDBRANCH  12  13
ENDBRANCH  11  12
TORSDOF 6
ENDMDL
MODEL 2
REMARK VINA RESULT:     -14.8      1.718      4.965
REMARK  Name = 
REMARK  6 active torsions:
REMARK  status: ('A' for Active; 'I' for Inactive)
REMARK    1  A    between atoms: C_2  and  C_3
REMARK    2  A    between atoms: C_11  and  C_12
REMARK    3  A    between atoms: C_12  and  C_13
REMARK    4  A    between atoms: N_15  and  C_16
REMARK    5  A    between atoms: C_16  and  C_17
REMARK    6  A    between atoms: C_26  and  C_28
REMARK                            x       y       z     vdW  Elec       q    Type
REMARK                         _______ _______ _______ _____ _____    ______ ____
ROOT
ATOM      1  C   UNL     1      -0.295   4.439  24.523  0.00  0.00    +0.005 C 
ATOM      2  C   UNL     1      -0.960   4.000  24.740  0.00  0.00    +0.059 C 
ATOM      5  C   UNL     1      -1.173   4.740  25.036  0.00  0.00    +0.154 C 
ATOM      6  O   UNL     1      -0.663   5.382  24.948  0.00  0.00    -0.223 OA
ATOM      7  C   UNL     1      -1.896   4.836  25.421  0.00  0.00    +0.033 C 
ATOM      8  C   UNL     1      -2.406   4.194  25.509  0.00  0.00    +0.003 C 
ATOM      9  C   UNL     1      -2.192   3.454  25.212  0.00  0.00    +0.006 C 
ATOM     10  C   UNL     1      -2.916   3.551  25.597  0.00  0.00    +0.000 C 
ATOM     11  C   UNL     1      -2.702   2.812  25.300  0.00  0.00    +0.050 C 
ATOM     19  C   UNL     1      -2.488   2.073  25.004  0.00  0.00    +0.063 A 
ATOM     20  C   UNL     1      -1.765   1.975  24.619  0.00  0.00    +0.023 A 
ATOM     21  C   UNL     1      -1.255   2.618  24.531  0.00  0.00    +0.034 C 
ATOM     22  C   UNL     1      -1.469   3.358  24.828  0.00  0.00    +0.010 C 
ATOM     23  S   UNL     1      -1.704   1.186  24.386  0.00  0.00    -0.054 S 
ATOM     24  C   UNL     1      -2.390   0.795  24.627  0.00  0.00    +0.185 A 
ATOM     25  N   UNL     1      -2.560  -0.003  24.506  0.00  0.00    -0.150 NA
ATOM     26  C   UNL     1      -3.273  -0.318  24.779  0.00  0.00    +0.275 C 
ATOM     27  O   UNL     1      -3.814   0.165  25.172  0.00  0.00    -0.268 OA
ATOM     36  N   UNL     1      -2.875   1.342  25.008  0.00  0.00    -0.227 NA
ENDROOT
BRANCH  26  28
ATOM     28  C   UNL     1      -3.443  -1.116  24.659  0.00  0.00    +0.110 A 
ATOM     29  C   UNL     1      -3.899  -1.347  24.010  0.00  0.00    +0.147 A 
ATOM     30  F   UNL     1      -4.184  -0.779  23.484  0.00  0.00    -0.204 F 
ATOM     31  C   UNL     1      -4.069  -2.145  23.889  0.00  0.00    +0.030 A 
ATOM     32  C   UNL     1      -3.784  -2.712  24.416  0.00  0.00    +0.005 A 
ATOM     33  C   UNL     1      -3.329  -2.481  25.063  0.00  0.00    +0.030 A 
ATOM     34  C   UNL     1      -3.158  -1.683  25.185  0.00  0.00    +0.147 A 
ATOM     35  F   UNL     1      -2.702  -1.453  25.832  0.00  0.00    -0.204 F 
ENDBRANCH  26  28
BRANCH   2   3
ATOM      3  C   UNL     1      -0.515   3.413  24.368  0.00  0.00    +0.184 C 
ATOM      4  O   UNL     1       0.177   3.612  23.967  0.00  0.00    -0.220 OA
ENDBRANCH   2   3
BRANCH  11  12
ATOM     12  C   UNL     1      -3.425   2.909  25.685  0.00  0.00    +0.093 C 
BRANCH  12  13
ATOM     13  C   UNL     1      -4.119   2.989  25.245  0.00  0.00    +0.243 C 
ATOM     14  O   UNL     1      -4.095   3.331  24.495  0.00  0.00    -0.273 OA
ATOM     15  N   UNL     1      -4.837   2.727  25.555  0.00  0.00    -0.191 NA
BRANCH  15  16
ATOM     16  C   UNL     1      -5.531   2.807  25.116  0.00  0.00    +0.191 C 
BRANCH  16  17
ATOM     17  C   UNL     1      -6.127   2.242  25.180  0.00  0.00    -0.054 C 
ATOM     18  C   UNL     1      -6.725   1.676  25.244  0.00  0.00    -0.012 C 
ENDBRANCH  16  17
ENDBRANCH  15  16
ENDBRANCH  12  13
ENDBRANCH  11  12
TORSDOF 6
ENDMDL
MODEL 3
REMARK VINA RESULT:     -13.7      2.064      5.644
REMARK  Name = 
REMARK  6 active torsions:
REMARK  status: ('A' for Active; 'I' for Inactive)
REMARK    1  A    between atoms: C_2  and  C_3
REMARK    2  A    between atoms: C_11  and  C_12
REMARK    3  A    between atoms: C_12  and  C_13
REMARK    4  A    between atoms: N_15  and  C_16
REMARK    5  A    between atoms: C_16  and  C_17
REMARK    6  A    between atoms: C_26  and  C_28
REMARK                            x       y       z     vdW  Elec       q    Type
REMARK                         _______ _______ _______ _____ _____    ______ ____
ROOT
ATOM      1  C   UNL     1      -2.279   4.774  25.813  0.00  0.00    +0.005 C 
ATOM      2  C   UNL     1      -2.068   4.090  25.401  0.00  0.00    +0.059 C 
ATOM      5  C   UNL     1      -1.480   4.604  25.137  0.00  0.00    +0.154 C 
ATOM      6  O   UNL     1      -1.460   5.384  25.407  0.00  0.00    -0.223 OA
ATOM      7  C   UNL     1      -0.910   4.338  24.603  0.00  0.00    +0.033 C 
ATOM      8  C   UNL     1      -0.930   3.559  24.333  0.00  0.00    +0.003 C 
ATOM      9  C   UNL     1      -1.519   3.046  24.597  0.00  0.00    +0.006 C 
ATOM     10  C   UNL     1      -0.949   2.779  24.063  0.00  0.00    +0.000 C 
ATOM     11  C   UNL     1      -1.538   2.266  24.327  0.00  0.00    +0.050 C 
ATOM     19  C   UNL     1      -2.127   1.753  24.591  0.00  0.00    +0.063 A 
ATOM     20  C   UNL     1      -2.697   2.018  25.126  0.00  0.00    +0.023 A 
ATOM     21  C   UNL     1      -2.677   2.798  25.396  0.00  0.00    +0.034 C 
ATOM     22  C   UNL     1      -2.088   3.312  25.131  0.00  0.00    +0.010 C 
ATOM     23  S   UNL     1      -3.207   1.391  25.288  0.00  0.00    -0.054 S 
ATOM     24  C   UNL     1      -2.952   0.737  24.853  0.00  0.00    +0.185 A 
ATOM     25  N   UNL     1      -3.304  -0.009  24.850  0.00  0.00    -0.150 NA
ATOM     26  C   UNL     1      -2.986  -0.613  24.385  0.00  0.00    +0.275 C 
ATOM     27  O   UNL     1      -2.317  -0.470  23.924  0.00  0.00    -0.268 OA
ATOM     36  N   UNL     1      -2.285   0.960  24.423  0.00  0.00    -0.227 NA
ENDROOT
BRANCH  26  28
ATOM     28  C   UNL     1      -3.338  -1.359  24.383  0.00  0.00    +0.110 A 
ATOM     29  C   UNL     1      -3.066  -1.945  24.897  0.00  0.00    +0.147 A 
ATOM     30  F   UNL     1      -2.442  -1.784  25.413  0.00  0.00    -0.204 F 
ATOM     31  C   UNL     1      -3.417  -2.691  24.894  0.00  0.00    +0.030 A 
ATOM     32  C   UNL     1      -4.041  -2.852  24.378  0.00  0.00    +0.005 A 
ATOM     33  C   UNL     1      -4.312  -2.267  23.865  0.00  0.00    +0.030 A 
ATOM     34  C   UNL     1      -3.961  -1.520  23.867  0.00  0.00    +0.147 A 
ATOM     35  F   UNL     1      -4.233  -0.935  23.354  0.00  0.00    -0.204 F 
ENDBRANCH  26  28
BRANCH   2   3
ATOM      3  C   UNL     1      -2.731   3.814  25.809  0.00  0.00    +0.184 C 
ATOM      4  O   UNL     1      -3.129   4.311  26.333  0.00  0.00    -0.220 OA
ENDBRANCH   2   3
BRANCH  11  12
ATOM     12  C   UNL     1      -0.969   2.001  23.793  0.00  0.00    +0.093 C 
BRANCH  12  13
ATOM     13  C   UNL     1      -0.347   1.526  24.054  0.00  0.00    +0.243 C 
ATOM     14  O   UNL     1      -0.129   1.533  24.850  0.00  0.00    -0.273 OA
ATOM     15  N   UNL     1       0.058   1.044  23.521  0.00  0.00    -0.191 NA
BRANCH  15  16
ATOM     16  C   UNL     1       0.680   0.570  23.782  0.00  0.00    +0.191 C 
BRANCH  16  17
ATOM     17  C   UNL     1       1.126   0.139  23.239  0.00  0.00    -0.054 C 
ATOM     18  C   UNL     1       1.574  -0.292  22.695  0.00  0.00    -0.012 C 
ENDBRANCH  16  17
ENDBRANCH  15  16
ENDBRANCH  12  13
ENDBRANCH  11  12
TORSDOF 6
ENDMDL
MODEL 4
REMARK VINA RESULT:     -13.1      2.143      5.443
REMARK  Name = 
REMARK  6 active torsions:
REMARK  status: ('A' for Active; 'I' for Inactive)
REMARK    1  A    between atoms: C_2  and  C_3
REMARK    2  A    between atoms: C_11  and  C_12
REMARK    3  A    between atoms: C_12  and  C_13
REMARK    4  A    between atoms: N_15  and  C_16
REMARK    5  A    between atoms: C_16  and  C_17
REMARK    6  A    between atoms: C_26  and  C_28
REMARK                            x       y       z     vdW  Elec       q    Type
REMARK                         _______ _______ _______ _____ _____    ______ ____
ROOT
ATOM      1  C   UNL     1      -5.495   4.060  25.621  0.00  0.00    +0.005 C 
ATOM      2  C   UNL     1      -4.954   3.536  25.282  0.00  0.00    +0.059 C 
ATOM      5  C   UNL     1      -4.606   4.254  25.076  0.00  0.00    +0.154 C 
ATOM      6  O   UNL     1      -4.960   4.965  25.302  0.00  0.00    -0.223 OA
ATOM      7  C   UNL     1      -3.903   4.262  24.644  0.00  0.00    +0.033 C 
ATOM      8  C   UNL     1      -3.550   3.553  24.418  0.00  0.00    +0.003 C 
ATOM      9  C   UNL     1      -3.898   2.834  24.624  0.00  0.00    +0.006 C 
ATOM     10  C   UNL     1      -3.195   2.842  24.192  0.00  0.00    +0.000 C 
ATOM     11  C   UNL     1      -3.544   2.124  24.398  0.00  0.00    +0.050 C 
ATOM     19  C   UNL     1      -3.892   1.406  24.605  0.00  0.00    +0.063 A 
ATOM     20  C   UNL     1      -4.595   1.397  25.038  0.00  0.00    +0.023 A 
ATOM     21  C   UNL     1      -4.949   2.107  25.263  0.00  0.00    +0.034 C 
ATOM     22  C   UNL     1      -4.600   2.826  25.057  0.00  0.00    +0.010 C 
ATOM     23  S   UNL     1      -4.809   0.610  25.161  0.00  0.00    -0.054 S 
ATOM     24  C   UNL     1      -4.238   0.132  24.804  0.00  0.00    +0.185 A 
ATOM     25  N   UNL     1      -4.236  -0.693  24.793  0.00  0.00    -0.150 NA
ATOM     26  C   UNL     1      -3.625  -1.098  24.413  0.00  0.00    +0.275 C 
ATOM     27  O   UNL     1      -3.018  -0.679  24.044  0.00  0.00    -0.268 OA
ATOM     36  N   UNL     1      -3.672   0.623  24.461  0.00  0.00    -0.227 NA
ENDROOT
BRANCH  26  28
ATOM     28  C   UNL     1      -3.623  -1.923  24.402  0.00  0.00    +0.110 A 
ATOM     29  C   UNL     1      -3.207  -2.342  24.980  0.00  0.00    +0.147 A 
ATOM     30  F   UNL     1      -2.795  -1.935  25.568  0.00  0.00    -0.204 F 
ATOM     31  C   UNL     1      -3.205  -3.166  24.969  0.00  0.00    +0.030 A 
ATOM     32  C   UNL     1      -3.617  -3.573  24.382  0.00  0.00    +0.005 A 
ATOM     33  C   UNL     1      -4.031  -3.155  23.805  0.00  0.00    +0.030 A 
ATOM     34  C   UNL     1      -4.035  -2.330  23.814  0.00  0.00    +0.147 A 
ATOM     35  F   UNL     1      -4.449  -1.912  23.237  0.00  0.00    -0.204 F 
ENDBRANCH  26  28
BRANCH   2   3
ATOM      3  C   UNL     1      -5.490   2.999  25.607  0.00  0.00    +0.184 C 
ATOM      4  O   UNL     1      -6.130   3.272  26.049  0.00  0.00    -0.220 OA
ENDBRANCH   2   3
BRANCH  11  12
ATOM     12  C   UNL     1      -2.842   2.133  23.966  0.00  0.00    +0.093 C 
BRANCH  12  13
ATOM     13  C   UNL     1      -2.121   2.007  24.347  0.00  0.00    +0.243 C 
ATOM     14  O   UNL     1      -2.043   2.180  25.150  0.00  0.00    -0.273 OA
ATOM     15  N   UNL     1      -1.476   1.710  23.926  0.00  0.00    -0.191 NA
BRANCH  15  16
ATOM     16  C   UNL     1      -0.756   1.585  24.306  0.00  0.00    +0.191 C 
BRANCH  16  17
ATOM     17  C   UNL     1      -0.184   1.104  23.959  0.00  0.00    -0.054 C 
ATOM     18  C   UNL     1       0.390   0.623  23.610  0.00  0.00    -0.012 C 
ENDBRANCH  16  17
ENDBRANCH  15  16
ENDBRANCH  12  13
ENDBRANCH  11  12
TORSDOF 6
ENDMDL
MODEL 5
REMARK VINA RESULT:     -13.1      1.566      3.170
REMARK  Name = 
REMARK  6 active torsions:
REMARK  status: ('A' for Active; 'I' for Inactive)
REMARK    1  A    between atoms: C_2  and  C_3
REMARK    2  A    between atoms: C_11  and  C_12
REMARK    3  A    between atoms: C_12  and  C_13
REMARK    4  A    between atoms: N_15  and  C_16
REMARK    5  A    between atoms: C_16  and  C_17
REMARK    6  A    between atoms: C_26  and  C_28
REMARK                            x       y       z     vdW  Elec       q    Type
REMARK                         _______ _______ _______ _____ _____    ______ ____
ROOT
ATOM      1  C   UNL     1      -3.738  -3.045  23.940  0.00  0.00    +0.005 C 
ATOM      2  C   UNL     1      -3.474  -2.337  24.273  0.00  0.00    +0.059 C 
ATOM      5  C   UNL     1      -2.835  -2.827  24.452  0.00  0.00    +0.154 C 
ATOM      6  O   UNL     1      -2.845  -3.619  24.221  0.00  0.00    -0.223 OA
ATOM      7  C   UNL     1      -2.186  -2.525  24.861  0.00  0.00    +0.033 C 
ATOM      8  C   UNL     1      -2.176  -1.734  25.092  0.00  0.00    +0.003 C 
ATOM      9  C   UNL     1      -2.815  -1.243  24.913  0.00  0.00    +0.006 C 
ATOM     10  C   UNL     1      -2.166  -0.941  25.322  0.00  0.00    +0.000 C 
ATOM     11  C   UNL     1      -2.805  -0.451  25.143  0.00  0.00    +0.050 C 
ATOM     19  C   UNL     1      -3.443   0.038  24.964  0.00  0.00    +0.063 A 
ATOM     20  C   UNL     1      -4.093  -0.263  24.555  0.00  0.00    +0.023 A 
ATOM     21  C   UNL     1      -4.103  -1.056  24.324  0.00  0.00    +0.034 C 
ATOM     22  C   UNL     1      -3.464  -1.546  24.503  0.00  0.00    +0.010 C 
ATOM     23  S   UNL     1      -4.639   0.347  24.456  0.00  0.00    -0.054 S 
ATOM     24  C   UNL     1      -4.327   1.027  24.805  0.00  0.00    +0.185 A 
ATOM     25  N   UNL     1      -4.691   1.767  24.835  0.00  0.00    -0.150 NA
ATOM     26  C   UNL     1      -4.309   2.399  25.205  0.00  0.00    +0.275 C 
ATOM     27  O   UNL     1      -3.566   2.290  25.545  0.00  0.00    -0.268 OA
ATOM     36  N   UNL     1      -3.589   0.837  25.119  0.00  0.00    -0.227 NA
ENDROOT
BRANCH  26  28
ATOM     28  C   UNL     1      -4.673   3.139  25.234  0.00  0.00    +0.110 A 
ATOM     29  C   UNL     1      -4.419   3.743  24.732  0.00  0.00    +0.147 A 
ATOM     30  F   UNL     1      -3.802   3.607  24.201  0.00  0.00    -0.204 F 
ATOM     31  C   UNL     1      -4.783   4.483  24.761  0.00  0.00    +0.030 A 
ATOM     32  C   UNL     1      -5.400   4.619  25.292  0.00  0.00    +0.005 A 
ATOM     33  C   UNL     1      -5.653   4.015  25.793  0.00  0.00    +0.030 A 
ATOM     34  C   UNL     1      -5.290   3.275  25.764  0.00  0.00    +0.147 A 
ATOM     35  F   UNL     1      -5.543   2.671  26.265  0.00  0.00    -0.204 F 
ENDBRANCH  26  28
BRANCH   2   3
ATOM      3  C   UNL     1      -4.205  -2.093  23.978  0.00  0.00    +0.184 C 
ATOM      4  O   UNL     1      -4.678  -2.623  23.560  0.00  0.00    -0.220 OA
ENDBRANCH   2   3
BRANCH  11  12
ATOM     12  C   UNL     1      -2.156  -0.149  25.553  0.00  0.00    +0.093 C 
BRANCH  12  13
ATOM     13  C   UNL     1      -1.588   0.297  25.155  0.00  0.00    +0.243 C 
ATOM     14  O   UNL     1      -1.494   0.213  24.340  0.00  0.00    -0.273 OA
ATOM     15  N   UNL     1      -1.113   0.829  25.571  0.00  0.00    -0.191 NA
BRANCH  15  16
ATOM     16  C   UNL     1      -0.545   1.275  25.174  0.00  0.00    +0.191 C 
BRANCH  16  17
ATOM     17  C   UNL     1      -0.195   1.923  25.545  0.00  0.00    -0.054 C 
ATOM     18  C   UNL     1       0.155   2.571  25.916  0.00  0.00    -0.012 C 
ENDBRANCH  16  17
ENDBRANCH  15  16
ENDBRANCH  12  13
ENDBRANCH  11  12
TORSDOF 6
ENDMDL
MODEL 6
REMARK VINA RESULT:     -12.5      1.688      3.305
REMARK  Name = 
REMARK  6 active torsions:
REMARK  status: ('A' for Active; 'I' for Inactive)
REMARK    1  A    between atoms: C_2  and  C_3
REMARK    2  A    between atoms: C_11  and  C_12
REMARK    3  A    between atoms: C_12  and  C_13
REMARK    4  A    between atoms: N_15  and  C_16
REMARK    5  A    between atoms: C_16  and  C_17
REMARK    6  A    between atoms: C_26  and  C_28
REMARK                            x       y       z     vdW  Elec       q    Type
REMARK                         _______ _______ _______ _____ _____    ______ ____
ROOT
ATOM      1  C   UNL     1      -3.666  -2.293  24.678  0.00  0.00    +0.005 C 
ATOM      2  C   UNL     1      -3.016  -1.783  24.657  0.00  0.00    +0.059 C 
ATOM      5  C   UNL     1      -2.633  -2.507  24.558  0.00  0.00    +0.154 C 
ATOM      6  O   UNL     1      -3.071  -3.206  24.542  0.00  0.00    -0.223 OA
ATOM      7  C   UNL     1      -1.813  -2.531  24.476  0.00  0.00    +0.033 C 
ATOM      8  C   UNL     1      -1.376  -1.833  24.492  0.00  0.00    +0.003 C 
ATOM      9  C   UNL     1      -1.759  -1.108  24.590  0.00  0.00    +0.006 C 
ATOM     10  C   UNL     1      -0.938  -1.132  24.508  0.00  0.00    +0.000 C 
ATOM     11  C   UNL     1      -1.321  -0.409  24.606  0.00  0.00    +0.050 C 
ATOM     19  C   UNL     1      -1.704   0.314  24.704  0.00  0.00    +0.063 A 
ATOM     20  C   UNL     1      -2.525   0.340  24.787  0.00  0.00    +0.023 A 
ATOM     21  C   UNL     1      -2.962  -0.360  24.771  0.00  0.00    +0.034 C 
ATOM     22  C   UNL     1      -2.579  -1.084  24.673  0.00  0.00    +0.010 C 
ATOM     23  S   UNL     1      -2.749   1.129  24.875  0.00  0.00    -0.054 S 
ATOM     24  C   UNL     1      -2.066   1.592  24.847  0.00  0.00    +0.185 A 
ATOM     25  N   UNL     1      -2.035   2.413  24.913  0.00  0.00    -0.150 NA
ATOM     26  C   UNL     1      -1.308   2.803  24.875  0.00  0.00    +0.275 C 
ATOM     27  O   UNL     1      -0.614   2.371  24.770  0.00  0.00    -0.268 OA
ATOM     36  N   UNL     1      -1.421   1.089  24.742  0.00  0.00    -0.227 NA
ENDROOT
BRANCH  26  28
ATOM     28  C   UNL     1      -1.278   3.625  24.941  0.00  0.00    +0.110 A 
ATOM     29  C   UNL     1      -0.834   4.065  24.401  0.00  0.00    +0.147 A 
ATOM     30  F   UNL     1      -0.423   3.684  23.797  0.00  0.00    -0.204 F 
ATOM     31  C   UNL     1      -0.804   4.887  24.467  0.00  0.00    +0.030 A 
ATOM     32  C   UNL     1      -1.216   5.268  25.072  0.00  0.00    +0.005 A 
ATOM     33  C   UNL     1      -1.658   4.828  25.610  0.00  0.00    +0.030 A 
ATOM     34  C   UNL     1      -1.690   4.006  25.545  0.00  0.00    +0.147 A 
ATOM     35  F   UNL     1      -2.132   3.566  26.084  0.00  0.00    -0.204 F 
ENDBRANCH  26  28
BRANCH   2   3
ATOM      3  C   UNL     1      -3.625  -1.236  24.762  0.00  0.00    +0.184 C 
ATOM      4  O   UNL     1      -4.411  -1.478  24.703  0.00  0.00    -0.220 OA
ENDBRANCH   2   3
BRANCH  11  12
ATOM     12  C   UNL     1      -0.501  -0.434  24.524  0.00  0.00    +0.093 C 
BRANCH  12  13
ATOM     13  C   UNL     1      -0.156  -0.293  23.788  0.00  0.00    +0.243 C 
ATOM     14  O   UNL     1      -0.620  -0.299  23.106  0.00  0.00    -0.273 OA
ATOM     15  N   UNL     1       0.655  -0.146  23.733  0.00  0.00    -0.191 NA
BRANCH  15  16
ATOM     16  C   UNL     1       1.000  -0.005  22.997  0.00  0.00    +0.191 C 
BRANCH  16  17
ATOM     17  C   UNL     1       1.812   0.125  22.941  0.00  0.00    -0.054 C 
ATOM     18  C   UNL     1       2.625   0.255  22.884  0.00  0.00    -0.012 C 
ENDBRANCH  16  17
ENDBRANCH  15  16
ENDBRANCH  12  13
ENDBRANCH  11  12
TORSDOF 6
ENDMDL
MODEL 7
REMARK VINA RESULT:     -12.3      1.924      4.183
REMARK  Name = 
REMARK  6 active torsions:
REMARK  status: ('A' for Active; 'I' for Inactive)
REMARK    1  A    between atoms: C_2  and  C_3
REMARK    2  A    between atoms: C_11  and  C_12
REMARK    3  A    between atoms: C_12  and  C_13
REMARK    4  A    between atoms: N_15  and  C_16
REMARK    5  A    between atoms: C_16  and  C_17
REMARK    6  A    between atoms: C_26  and  C_28
REMARK                            x       y       z     vdW  Elec       q    Type
REMARK                         _______ _______ _______ _____ _____    ______ ____
ROOT
ATOM      1  C   UNL     1      -5.025   3.734  25.752  0.00  0.00    +0.005 C 
ATOM      2  C   UNL     1      -4.748   3.020  25.442  0.00  0.00    +0.059 C 
ATOM      5  C   UNL     1      -5.555   2.853  25.489  0.00  0.00    +0.154 C 
ATOM      6  O   UNL     1      -6.078   3.422  25.777  0.00  0.00    -0.223 OA
ATOM      7  C   UNL     1      -5.837   2.117  25.247  0.00  0.00    +0.033 C 
ATOM      8  C   UNL     1      -5.315   1.549  24.958  0.00  0.00    +0.003 C 
ATOM      9  C   UNL     1      -4.508   1.716  24.911  0.00  0.00    +0.006 C 
ATOM     10  C   UNL     1      -4.791   0.979  24.670  0.00  0.00    +0.000 C 
ATOM     11  C   UNL     1      -3.985   1.147  24.623  0.00  0.00    +0.050 C 
ATOM     19  C   UNL     1      -3.179   1.314  24.576  0.00  0.00    +0.063 A 
ATOM     20  C   UNL     1      -2.895   2.050  24.818  0.00  0.00    +0.023 A 
ATOM     21  C   UNL     1      -3.418   2.619  25.107  0.00  0.00    +0.034 C 
ATOM     22  C   UNL     1      -4.226   2.452  25.153  0.00  0.00    +0.010 C 
ATOM     23  S   UNL     1      -2.077   2.057  24.709  0.00  0.00    -0.054 S 
ATOM     24  C   UNL     1      -1.856   1.325  24.399  0.00  0.00    +0.185 A 
ATOM     25  N   UNL     1      -1.088   1.094  24.206  0.00  0.00    -0.150 NA
ATOM     26  C   UNL     1      -0.949   0.340  23.899  0.00  0.00    +0.275 C 
ATOM     27  O   UNL     1      -1.578  -0.182  23.787  0.00  0.00    -0.268 OA
ATOM     36  N   UNL     1      -2.535   0.866  24.317  0.00  0.00    -0.227 NA
ENDROOT
BRANCH  26  28
ATOM     28  C   UNL     1      -0.181   0.108  23.706  0.00  0.00    +0.110 A 
ATOM     29  C   UNL     1       0.201  -0.469  24.156  0.00  0.00    +0.147 A 
ATOM     30  F   UNL     1      -0.185  -0.814  24.799  0.00  0.00    -0.204 F 
ATOM     31  C   UNL     1       0.969  -0.700  23.963  0.00  0.00    +0.030 A 
ATOM     32  C   UNL     1       1.355  -0.355  23.321  0.00  0.00    +0.005 A 
ATOM     33  C   UNL     1       0.973   0.221  22.871  0.00  0.00    +0.030 A 
ATOM     34  C   UNL     1       0.205   0.453  23.064  0.00  0.00    +0.147 A 
ATOM     35  F   UNL     1      -0.177   1.030  22.615  0.00  0.00    -0.204 F 
ENDBRANCH  26  28
BRANCH   2   3
ATOM      3  C   UNL     1      -4.038   3.435  25.503  0.00  0.00    +0.184 C 
ATOM      4  O   UNL     1      -4.028   4.190  25.836  0.00  0.00    -0.220 OA
ENDBRANCH   2   3
BRANCH  11  12
ATOM     12  C   UNL     1      -4.268   0.411  24.381  0.00  0.00    +0.093 C 
BRANCH  12  13
ATOM     13  C   UNL     1      -4.161  -0.251  24.862  0.00  0.00    +0.243 C 
ATOM     14  O   UNL     1      -4.159  -0.168  25.683  0.00  0.00    -0.273 OA
ATOM     15  N   UNL     1      -4.058  -0.996  24.523  0.00  0.00    -0.191 NA
BRANCH  15  16
ATOM     16  C   UNL     1      -3.951  -1.657  25.003  0.00  0.00    +0.191 C 
BRANCH  16  17
ATOM     17  C   UNL     1      -3.721  -2.376  24.671  0.00  0.00    -0.054 C 
ATOM     18  C   UNL     1      -3.490  -3.096  24.339  0.00  0.00    -0.012 C 
ENDBRANCH  16  17
ENDBRANCH  15  16
ENDBRANCH  12  13
ENDBRANCH  11  12
TORSDOF 6
ENDMDL
