MODEL 1
REMARK VINA RESULT:     -10.5      0.000      0.000
REMARK  Name = 
REMARK  6 active torsions:
REMARK  status: ('A' for Active; 'I' for Inactive)
REMARK    1  A    between atoms: O_2  and  C_3
REMARK    2  A    between atoms: C_6  and  N_7
REMARK    3  A    between atoms: N_10  and  C_11
REMARK    4  A    between atoms: C_13  and  C_16
REMARK    5  A    between atoms: N_19  and  C_23
REMARK    6  A    between atoms: C_26  and  C_29
REMARK                            x       y       z     vdW  Elec       q    Type
REMARK                         _______ _______ _______ _____ _____    ______ ____
ROOT
ATOM     11  C   UNL     1       0.222   0.021  23.394  0.00  0.00    +0.119 C 
ATOM     12  C   UNL     1      -0.243   0.670  23.601  0.00  0.00    +0.035 C 
ATOM     13  C   UNL     1      -0.750   0.435  24.209  0.00  0.00    +0.048 C 
ATOM     14  C   UNL     1      -0.598  -0.358  24.376  0.00  0.00    -0.025 C 
ATOM     15  C   UNL     1       0.003  -0.614  23.872  0.00  0.00    -0.009 C 
ENDROOT
BRANCH  13  16
ATOM     16  C   UNL     1      -1.311   0.911  24.583  0.00  0.00    +0.010 A 
ATOM     17  C   UNL     1      -2.121   0.919  24.429  0.00  0.00    +0.058 A 
ATOM     18  C   UNL     1      -2.514   0.452  23.874  0.00  0.00    +0.052 C 
ATOM     19  N   UNL     1      -2.470   1.475  24.928  0.00  0.00    -0.234 N 
ATOM     20  N   UNL     1      -1.876   1.812  25.391  0.00  0.00    -0.170 NA
ATOM     21  C   UNL     1      -1.159   1.463  25.178  0.00  0.00    +0.077 A 
ATOM     22  C   UNL     1      -0.420   1.636  25.502  0.00  0.00    +0.054 C 
BRANCH  19  23
ATOM     23  C   UNL     1      -3.274   1.663  24.959  0.00  0.00    +0.082 A 
ATOM     24  C   UNL     1      -3.811   1.125  25.279  0.00  0.00    +0.019 A 
ATOM     25  C   UNL     1      -4.613   1.312  25.309  0.00  0.00    -0.003 A 
ATOM     26  C   UNL     1      -4.879   2.038  25.021  0.00  0.00    -0.022 A 
ATOM     27  C   UNL     1      -4.342   2.576  24.701  0.00  0.00    -0.003 A 
ATOM     28  C   UNL     1      -3.539   2.389  24.670  0.00  0.00    +0.019 A 
BRANCH  26  29
ATOM     29  C   UNL     1      -5.681   2.225  25.052  0.00  0.00    +0.022 C 
ATOM     30  C   UNL     1      -5.930   2.907  25.443  0.00  0.00    +0.005 C 
ATOM     31  C   UNL     1      -6.235   1.731  24.691  0.00  0.00    +0.005 C 
ENDBRANCH  26  29
ENDBRANCH  19  23
ENDBRANCH  13  16
BRANCH  11  10
ATOM      7  N   UNL     1       2.179   0.091  22.431  0.00  0.00    -0.161 NA
ATOM      8  C   UNL     1       1.597   0.102  23.015  0.00  0.00    +0.344 C 
ATOM      9  O   UNL     1       1.808   0.207  23.806  0.00  0.00    -0.249 OA
ATOM     10  N   UNL     1       0.804   0.009  22.809  0.00  0.00    -0.184 NA
BRANCH   7   6
ATOM      3  C   UNL     1       4.559   0.372  23.050  0.00  0.00    +0.139 A 
ATOM      4  C   UNL     1       4.126   1.017  22.776  0.00  0.00    +0.038 A 
ATOM      5  C   UNL     1       3.332   0.924  22.569  0.00  0.00    +0.020 A 
ATOM      6  C   UNL     1       2.972   0.184  22.637  0.00  0.00    +0.075 A 
ATOM     32  C   UNL     1       3.407  -0.462  22.911  0.00  0.00    +0.020 A 
ATOM     33  C   UNL     1       4.199  -0.369  23.117  0.00  0.00    +0.038 A 
BRANCH   3   2
ATOM      1  C   UNL     1       5.655   0.078  23.919  0.00  0.00    +0.252 C 
ATOM      2  O   UNL     1       5.353   0.464  23.256  0.00  0.00    -0.471 OA
ENDBRANCH   3   2
ENDBRANCH   7   6
ENDBRANCH  11  10
TORSDOF 6
ENDMDL
MODEL 2
REMARK VINA RESULT:      -8.2      4.097      5.622
REMARK  Name = 
REMARK  6 active torsions:
REMARK  status: ('A' for Active; 'I' for Inactive)
REMARK    1  A    between atoms: O_2  and  C_3
REMARK    2  A    between atoms: C_6  and  N_7
REMARK    3  A    between atoms: N_10  and  C_11
REMARK    4  A    between atoms: C_13  and  C_16
REMARK    5  A    between atoms: N_19  and  C_23
REMARK    6  A    between atoms: C_26  and  C_29
REMARK                            x       y       z     vdW  Elec       q    Type
REMARK                         _______ _______ _______ _____ _____    ______ ____
ROOT
ATOM     11  C   UNL     1      -4.341   3.346  25.703  0.00  0.00    +0.119 C 
ATOM     12  C   UNL     1      -4.202   2.538  25.616  0.00  0.00    +0.035 C 
ATOM     13  C   UNL     1      -4.885   2.195  25.302  0.00  0.00    +0.048 C 
ATOM     14  C   UNL     1      -5.444   2.792  25.197  0.00  0.00    -0.025 C 
ATOM     15  C   UNL     1      -5.108   3.504  25.444  0.00  0.00    -0.009 C 
ENDROOT
BRANCH  13  16
ATOM     16  C   UNL     1      -4.989   1.396  25.126  0.00  0.00    +0.010 A 
ATOM     17  C   UNL     1      -4.390   0.834  25.051  0.00  0.00    +0.058 A 
ATOM     18  C   UNL     1      -3.582   0.972  25.139  0.00  0.00    +0.052 C 
ATOM     19  N   UNL     1      -4.742   0.109  24.873  0.00  0.00    -0.234 N 
ATOM     20  N   UNL     1      -5.558   0.223  24.837  0.00  0.00    -0.170 NA
ATOM     21  C   UNL     1      -5.711   1.019  24.994  0.00  0.00    +0.077 A 
ATOM     22  C   UNL     1      -6.455   1.375  25.015  0.00  0.00    +0.054 C 
BRANCH  19  23
ATOM     23  C   UNL     1      -4.346  -0.605  24.751  0.00  0.00    +0.082 A 
ATOM     24  C   UNL     1      -3.960  -0.975  25.379  0.00  0.00    +0.019 A 
ATOM     25  C   UNL     1      -3.565  -1.688  25.257  0.00  0.00    -0.003 A 
ATOM     26  C   UNL     1      -3.556  -2.033  24.507  0.00  0.00    -0.022 A 
ATOM     27  C   UNL     1      -3.942  -1.663  23.879  0.00  0.00    -0.003 A 
ATOM     28  C   UNL     1      -4.338  -0.948  24.001  0.00  0.00    +0.019 A 
BRANCH  26  29
ATOM     29  C   UNL     1      -3.161  -2.746  24.385  0.00  0.00    +0.022 C 
ATOM     30  C   UNL     1      -2.337  -2.760  24.351  0.00  0.00    +0.005 C 
ATOM     31  C   UNL     1      -3.590  -3.446  24.296  0.00  0.00    +0.005 C 
ENDBRANCH  26  29
ENDBRANCH  19  23
ENDBRANCH  13  16
BRANCH  11  10
ATOM      7  N   UNL     1      -2.581   4.626  25.874  0.00  0.00    -0.161 NA
ATOM      8  C   UNL     1      -3.117   4.072  25.579  0.00  0.00    +0.344 C 
ATOM      9  O   UNL     1      -2.964   3.690  24.864  0.00  0.00    -0.249 OA
ATOM     10  N   UNL     1      -3.806   3.900  25.998  0.00  0.00    -0.184 NA
BRANCH   7   6
ATOM      3  C   UNL     1      -0.514   5.142  24.613  0.00  0.00    +0.139 A 
ATOM      4  C   UNL     1      -1.114   5.705  24.670  0.00  0.00    +0.038 A 
ATOM      5  C   UNL     1      -1.804   5.534  25.090  0.00  0.00    +0.020 A 
ATOM      6  C   UNL     1      -1.893   4.798  25.454  0.00  0.00    +0.075 A 
ATOM     32  C   UNL     1      -1.292   4.235  25.397  0.00  0.00    +0.020 A 
ATOM     33  C   UNL     1      -0.603   4.406  24.978  0.00  0.00    +0.038 A 
BRANCH   3   2
ATOM      1  C   UNL     1       0.336   4.920  23.487  0.00  0.00    +0.252 C 
ATOM      2  O   UNL     1       0.175   5.313  24.193  0.00  0.00    -0.471 OA
ENDBRANCH   3   2
ENDBRANCH   7   6
ENDBRANCH  11  10
TORSDOF 6
ENDMDL
MODEL 3
REMARK VINA RESULT:      -7.8      4.017      5.595
REMARK  Name = 
REMARK  6 active torsions:
REMARK  status: ('A' for Active; 'I' for Inactive)
REMARK    1  A    between atoms: O_2  and  C_3
REMARK    2  A    between atoms: C_6  and  N_7
REMARK    3  A    between atoms: N_10  and  C_11
REMARK    4  A    between atoms: C_13  and  C_16
REMARK    5  A    between atoms: N_19  and  C_23
REMARK    6  A    between atoms: C_26  and  C_29
REMARK                            x       y       z     vdW  Elec       q    Type
REMARK                         _______ _______ _______ _____ _____    ______ ____
ROOT
ATOM     11  C   UNL     1      -5.185   0.595  24.822  0.00  0.00    +0.119 C 
ATOM     12  C   UNL     1      -4.689   1.244  24.706  0.00  0.00    +0.035 C 
ATOM     13  C   UNL     1      -4.965   1.863  25.177  0.00  0.00    +0.048 C 
ATOM     14  C   UNL     1      -5.631   1.596  25.584  0.00  0.00    -0.025 C 
ATOM     15  C   UNL     1      -5.767   0.812  25.364  0.00  0.00    -0.009 C 
ENDROOT
BRANCH  13  16
ATOM     16  C   UNL     1      -4.633   2.616  25.231  0.00  0.00    +0.010 A 
ATOM     17  C   UNL     1      -3.843   2.809  25.093  0.00  0.00    +0.058 A 
ATOM     18  C   UNL     1      -3.246   2.283  24.876  0.00  0.00    +0.052 C 
ATOM     19  N   UNL     1      -3.754   3.621  25.209  0.00  0.00    -0.234 N 
ATOM     20  N   UNL     1      -4.490   3.930  25.420  0.00  0.00    -0.170 NA
ATOM     21  C   UNL     1      -5.033   3.309  25.433  0.00  0.00    +0.077 A 
ATOM     22  C   UNL     1      -5.835   3.370  25.617  0.00  0.00    +0.054 C 
BRANCH  19  23
ATOM     23  C   UNL     1      -3.053   4.049  25.129  0.00  0.00    +0.082 A 
ATOM     24  C   UNL     1      -2.784   4.264  24.380  0.00  0.00    +0.019 A 
ATOM     25  C   UNL     1      -2.084   4.692  24.300  0.00  0.00    -0.003 A 
ATOM     26  C   UNL     1      -1.652   4.905  24.970  0.00  0.00    -0.022 A 
ATOM     27  C   UNL     1      -1.921   4.690  25.720  0.00  0.00    -0.003 A 
ATOM     28  C   UNL     1      -2.622   4.262  25.800  0.00  0.00    +0.019 A 
BRANCH  26  29
ATOM     29  C   UNL     1      -0.951   5.332  24.891  0.00  0.00    +0.022 C 
ATOM     30  C   UNL     1      -0.962   6.155  24.945  0.00  0.00    +0.005 C 
ATOM     31  C   UNL     1      -0.239   4.937  24.757  0.00  0.00    +0.005 C 
ENDBRANCH  26  29
ENDBRANCH  19  23
ENDBRANCH  13  16
BRANCH  11  10
ATOM      7  N   UNL     1      -4.358  -1.331  24.213  0.00  0.00    -0.161 NA
ATOM      8  C   UNL     1      -4.431  -0.593  24.576  0.00  0.00    +0.344 C 
ATOM      9  O   UNL     1      -3.825  -0.307  25.056  0.00  0.00    -0.249 OA
ATOM     10  N   UNL     1      -5.112  -0.142  24.460  0.00  0.00    -0.184 NA
BRANCH   7   6
ATOM      3  C   UNL     1      -2.316  -2.685  24.565  0.00  0.00    +0.139 A 
ATOM      4  C   UNL     1      -3.038  -2.940  24.871  0.00  0.00    +0.038 A 
ATOM      5  C   UNL     1      -3.719  -2.489  24.754  0.00  0.00    +0.020 A 
ATOM      6  C   UNL     1      -3.678  -1.781  24.330  0.00  0.00    +0.075 A 
ATOM     32  C   UNL     1      -2.955  -1.526  24.025  0.00  0.00    +0.020 A 
ATOM     33  C   UNL     1      -2.275  -1.977  24.142  0.00  0.00    +0.038 A 
BRANCH   3   2
ATOM      1  C   UNL     1      -0.935  -2.772  24.921  0.00  0.00    +0.252 C 
ATOM      2  O   UNL     1      -1.635  -3.135  24.682  0.00  0.00    -0.471 OA
ENDBRANCH   3   2
ENDBRANCH   7   6
ENDBRANCH  11  10
TORSDOF 6
ENDMDL
MODEL 4
REMARK VINA RESULT:      -7.5      2.554      7.122
REMARK  Name = 
REMARK  6 active torsions:
REMARK  status: ('A' for Active; 'I' for Inactive)
REMARK    1  A    between atoms: O_2  and  C_3
REMARK    2  A    between atoms: C_6  and  N_7
REMARK    3  A    between atoms: N_10  and  C_11
REMARK    4  A    between atoms: C_13  and  C_16
REMARK    5  A    between atoms: N_19  and  C_23
REMARK    6  A    between atoms: C_26  and  C_29
REMARK                            x       y       z     vdW  Elec       q    Type
REMARK                         _______ _______ _______ _____ _____    ______ ____
ROOT
ATOM     11  C   UNL     1      -2.179   3.923  24.919  0.00  0.00    +0.119 C 
ATOM     12  C   UNL     1      -1.797   3.204  24.783  0.00  0.00    +0.035 C 
ATOM     13  C   UNL     1      -1.005   3.292  24.999  0.00  0.00    +0.048 C 
ATOM     14  C   UNL     1      -0.899   4.065  25.269  0.00  0.00    -0.025 C 
ATOM     15  C   UNL     1      -1.625   4.454  25.219  0.00  0.00    -0.009 C 
ENDROOT
BRANCH  13  16
ATOM     16  C   UNL     1      -0.423   2.710  24.954  0.00  0.00    +0.010 A 
ATOM     17  C   UNL     1      -0.160   2.340  24.265  0.00  0.00    +0.058 A 
ATOM     18  C   UNL     1      -0.433   2.487  23.501  0.00  0.00    +0.052 C 
ATOM     19  N   UNL     1       0.425   1.796  24.475  0.00  0.00    -0.234 N 
ATOM     20  N   UNL     1       0.523   1.831  25.293  0.00  0.00    -0.170 NA
ATOM     21  C   UNL     1      -0.001   2.395  25.590  0.00  0.00    +0.077 A 
ATOM     22  C   UNL     1      -0.088   2.608  26.382  0.00  0.00    +0.054 C 
BRANCH  19  23
ATOM     23  C   UNL     1       0.839   1.305  23.957  0.00  0.00    +0.082 A 
ATOM     24  C   UNL     1       1.585   1.527  23.685  0.00  0.00    +0.019 A 
ATOM     25  C   UNL     1       1.998   1.036  23.168  0.00  0.00    -0.003 A 
ATOM     26  C   UNL     1       1.666   0.322  22.922  0.00  0.00    -0.022 A 
ATOM     27  C   UNL     1       0.920   0.099  23.195  0.00  0.00    -0.003 A 
ATOM     28  C   UNL     1       0.506   0.591  23.713  0.00  0.00    +0.019 A 
BRANCH  26  29
ATOM     29  C   UNL     1       2.079  -0.170  22.405  0.00  0.00    +0.022 C 
ATOM     30  C   UNL     1       1.732  -0.406  21.695  0.00  0.00    +0.005 C 
ATOM     31  C   UNL     1       2.840  -0.425  22.597  0.00  0.00    +0.005 C 
ENDBRANCH  26  29
ENDBRANCH  19  23
ENDBRANCH  13  16
BRANCH  11  10
ATOM      7  N   UNL     1      -4.352   3.718  24.911  0.00  0.00    -0.161 NA
ATOM      8  C   UNL     1      -3.555   3.559  25.051  0.00  0.00    +0.344 C 
ATOM      9  O   UNL     1      -3.335   2.879  25.463  0.00  0.00    -0.249 OA
ATOM     10  N   UNL     1      -2.976   4.081  24.780  0.00  0.00    -0.184 NA
BRANCH   7   6
ATOM      3  C   UNL     1      -6.086   2.152  25.728  0.00  0.00    +0.139 A 
ATOM      4  C   UNL     1      -5.858   2.793  26.193  0.00  0.00    +0.038 A 
ATOM      5  C   UNL     1      -5.280   3.316  25.921  0.00  0.00    +0.020 A 
ATOM      6  C   UNL     1      -4.930   3.196  25.183  0.00  0.00    +0.075 A 
ATOM     32  C   UNL     1      -5.159   2.554  24.718  0.00  0.00    +0.020 A 
ATOM     33  C   UNL     1      -5.736   2.032  24.990  0.00  0.00    +0.038 A 
BRANCH   3   2
ATOM      1  C   UNL     1      -6.629   1.339  26.770  0.00  0.00    +0.252 C 
ATOM      2  O   UNL     1      -6.664   1.630  26.000  0.00  0.00    -0.471 OA
ENDBRANCH   3   2
ENDBRANCH   7   6
ENDBRANCH  11  10
TORSDOF 6
ENDMDL
MODEL 5
REMARK VINA RESULT:      -7.4      2.196      7.097
REMARK  Name = 
REMARK  6 active torsions:
REMARK  status: ('A' for Active; 'I' for Inactive)
REMARK    1  A    between atoms: O_2  and  C_3
REMARK    2  A    between atoms: C_6  and  N_7
REMARK    3  A    between atoms: N_10  and  C_11
REMARK    4  A    between atoms: C_13  and  C_16
REMARK    5  A    between atoms: N_19  and  C_23
REMARK    6  A    between atoms: C_26  and  C_29
REMARK                            x       y       z     vdW  Elec       q    Type
REMARK                         _______ _______ _______ _____ _____    ______ ____
ROOT
ATOM     11  C   UNL     1      -2.896   0.284  24.651  0.00  0.00    +0.119 C 
ATOM     12  C   UNL     1      -2.295   0.081  24.123  0.00  0.00    +0.035 C 
ATOM     13  C   UNL     1      -1.644  -0.170  24.565  0.00  0.00    +0.048 C 
ATOM     14  C   UNL     1      -1.844  -0.122  25.364  0.00  0.00    -0.025 C 
ATOM     15  C   UNL     1      -2.618   0.159  25.416  0.00  0.00    -0.009 C 
ENDROOT
BRANCH  13  16
ATOM     16  C   UNL     1      -0.921  -0.425  24.260  0.00  0.00    +0.010 A 
ATOM     17  C   UNL     1      -0.328   0.058  23.951  0.00  0.00    +0.058 A 
ATOM     18  C   UNL     1      -0.353   0.881  23.893  0.00  0.00    +0.052 C 
ATOM     19  N   UNL     1       0.296  -0.426  23.711  0.00  0.00    -0.234 N 
ATOM     20  N   UNL     1       0.088  -1.208  23.871  0.00  0.00    -0.170 NA
ATOM     21  C   UNL     1      -0.664  -1.208  24.210  0.00  0.00    +0.077 A 
ATOM     22  C   UNL     1      -1.086  -1.873  24.457  0.00  0.00    +0.054 C 
BRANCH  19  23
ATOM     23  C   UNL     1       1.003  -0.172  23.370  0.00  0.00    +0.082 A 
ATOM     24  C   UNL     1       1.219  -0.439  22.620  0.00  0.00    +0.019 A 
ATOM     25  C   UNL     1       1.926  -0.186  22.280  0.00  0.00    -0.003 A 
ATOM     26  C   UNL     1       2.418   0.335  22.689  0.00  0.00    -0.022 A 
ATOM     27  C   UNL     1       2.202   0.602  23.439  0.00  0.00    -0.003 A 
ATOM     28  C   UNL     1       1.495   0.348  23.780  0.00  0.00    +0.019 A 
BRANCH  26  29
ATOM     29  C   UNL     1       3.125   0.589  22.349  0.00  0.00    +0.022 C 
ATOM     30  C   UNL     1       3.603   1.129  22.748  0.00  0.00    +0.005 C 
ATOM     31  C   UNL     1       3.354   0.302  21.610  0.00  0.00    +0.005 C 
ENDBRANCH  26  29
ENDBRANCH  19  23
ENDBRANCH  13  16
BRANCH  11  10
ATOM      7  N   UNL     1      -4.677   1.544  24.574  0.00  0.00    -0.161 NA
ATOM      8  C   UNL     1      -3.928   1.264  24.778  0.00  0.00    +0.344 C 
ATOM      9  O   UNL     1      -3.463   1.684  25.314  0.00  0.00    -0.249 OA
ATOM     10  N   UNL     1      -3.645   0.564  24.446  0.00  0.00    -0.184 NA
BRANCH   7   6
ATOM      3  C   UNL     1      -5.526   3.645  25.569  0.00  0.00    +0.139 A 
ATOM      4  C   UNL     1      -4.927   3.670  25.003  0.00  0.00    +0.038 A 
ATOM      5  C   UNL     1      -4.644   2.970  24.670  0.00  0.00    +0.020 A 
ATOM      6  C   UNL     1      -4.960   2.244  24.906  0.00  0.00    +0.075 A 
ATOM     32  C   UNL     1      -5.559   2.220  25.473  0.00  0.00    +0.020 A 
ATOM     33  C   UNL     1      -5.842   2.919  25.805  0.00  0.00    +0.038 A 
BRANCH   3   2
ATOM      1  C   UNL     1      -6.119   4.936  25.418  0.00  0.00    +0.252 C 
ATOM      2  O   UNL     1      -5.809   4.345  25.902  0.00  0.00    -0.471 OA
ENDBRANCH   3   2
ENDBRANCH   7   6
ENDBRANCH  11  10
TORSDOF 6
ENDMDL
MODEL 6
REMARK VINA RESULT:      -6.7      2.759      4.062
REMARK  Name = 
REMARK  6 active torsions:
REMARK  status: ('A' for Active; 'I' for Inactive)
REMARK    1  A    between atoms: O_2  and  C_3
REMARK    2  A    between atoms: C_6  and  N_7
REMARK    3  A    between atoms: N_10  and  C_11
REMARK    4  A    between atoms: C_13  and  C_16
REMARK    5  A    between atoms: N_19  and  C_23
REMARK    6  A    between atoms: C_26  and  C_29
REMARK                            x       y       z     vdW  Elec       q    Type
REMARK                         _______ _______ _______ _____ _____    ______ ____
ROOT
ATOM     11  C   UNL     1      -0.163   1.175  24.593  0.00  0.00    +0.119 C 
ATOM     12  C   UNL     1      -0.826   1.554  24.905  0.00  0.00    +0.035 C 
ATOM     13  C   UNL     1      -0.792   2.348  24.685  0.00  0.00    +0.048 C 
ATOM     14  C   UNL     1      -0.108   2.460  24.237  0.00  0.00    -0.025 C 
ATOM     15  C   UNL     1       0.281   1.734  24.181  0.00  0.00    -0.009 C 
ENDROOT
BRANCH  13  16
ATOM     16  C   UNL     1      -1.345   2.929  24.878  0.00  0.00    +0.010 A 
ATOM     17  C   UNL     1      -2.163   2.827  24.915  0.00  0.00    +0.058 A 
ATOM     18  C   UNL     1      -2.572   2.126  24.764  0.00  0.00    +0.052 C 
ATOM     19  N   UNL     1      -2.501   3.549  25.128  0.00  0.00    -0.234 N 
ATOM     20  N   UNL     1      -1.892   4.097  25.223  0.00  0.00    -0.170 NA
ATOM     21  C   UNL     1      -1.177   3.714  25.069  0.00  0.00    +0.077 A 
ATOM     22  C   UNL     1      -0.427   4.056  25.100  0.00  0.00    +0.054 C 
BRANCH  19  23
ATOM     23  C   UNL     1      -3.306   3.697  25.229  0.00  0.00    +0.082 A 
ATOM     24  C   UNL     1      -3.628   3.733  25.988  0.00  0.00    +0.019 A 
ATOM     25  C   UNL     1      -4.432   3.881  26.088  0.00  0.00    -0.003 A 
ATOM     26  C   UNL     1      -4.917   3.992  25.429  0.00  0.00    -0.022 A 
ATOM     27  C   UNL     1      -4.596   3.955  24.670  0.00  0.00    -0.003 A 
ATOM     28  C   UNL     1      -3.790   3.807  24.570  0.00  0.00    +0.019 A 
BRANCH  26  29
ATOM     29  C   UNL     1      -5.722   4.140  25.530  0.00  0.00    +0.022 C 
ATOM     30  C   UNL     1      -6.243   3.513  25.661  0.00  0.00    +0.005 C 
ATOM     31  C   UNL     1      -6.007   4.913  25.498  0.00  0.00    +0.005 C 
ENDBRANCH  26  29
ENDBRANCH  19  23
ENDBRANCH  13  16
BRANCH  11  10
ATOM      7  N   UNL     1      -0.382  -0.994  24.710  0.00  0.00    -0.161 NA
ATOM      8  C   UNL     1      -0.569  -0.195  24.624  0.00  0.00    +0.344 C 
ATOM      9  O   UNL     1      -1.348   0.034  24.481  0.00  0.00    -0.249 OA
ATOM     10  N   UNL     1       0.024   0.376  24.680  0.00  0.00    -0.184 NA
BRANCH   7   6
ATOM      3  C   UNL     1      -2.162  -2.705  24.543  0.00  0.00    +0.139 A 
ATOM      4  C   UNL     1      -2.046  -2.299  25.251  0.00  0.00    +0.038 A 
ATOM      5  C   UNL     1      -1.453  -1.728  25.307  0.00  0.00    +0.020 A 
ATOM      6  C   UNL     1      -0.975  -1.564  24.654  0.00  0.00    +0.075 A 
ATOM     32  C   UNL     1      -1.092  -1.970  23.945  0.00  0.00    +0.020 A 
ATOM     33  C   UNL     1      -1.685  -2.540  23.889  0.00  0.00    +0.038 A 
BRANCH   3   2
ATOM      1  C   UNL     1      -3.544  -3.046  24.411  0.00  0.00    +0.252 C 
ATOM      2  O   UNL     1      -2.756  -3.275  24.486  0.00  0.00    -0.471 OA
ENDBRANCH   3   2
ENDBRANCH   7   6
ENDBRANCH  11  10
TORSDOF 6
ENDMDL
MODEL 7
REMARK VINA RESULT:      -6.6      1.747      2.493
REMARK  Name = 
REMARK  6 active torsions:
REMARK  status: ('A' for Active; 'I' for Inactive)
REMARK    1  A    between atoms: O_2  and  C_3
REMARK    2  A    between atoms: C_6  and  N_7
REMARK    3  A    between atoms: N_10  and  C_11
REMARK    4  A    between atoms: C_13  and  C_16
REMARK    5  A    between atoms: N_19  and  C_23
REMARK    6  A    between atoms: C_26  and  C_29
REMARK                            x       y       z     vdW  Elec       q    Type
REMARK                         _______ _______ _______ _____ _____    ______ ____
ROOT
ATOM     11  C   UNL     1       0.786   1.600  23.779  0.00  0.00    +0.119 C 
ATOM     12  C   UNL     1       0.079   1.183  23.694  0.00  0.00    +0.035 C 
ATOM     13  C   UNL     1      -0.367   1.298  24.379  0.00  0.00    +0.048 C 
ATOM     14  C   UNL     1       0.064   1.785  24.886  0.00  0.00    -0.025 C 
ATOM     15  C   UNL     1       0.777   1.972  24.515  0.00  0.00    -0.009 C 
ENDROOT
BRANCH  13  16
ATOM     16  C   UNL     1      -1.114   0.981  24.530  0.00  0.00    +0.010 A 
ATOM     17  C   UNL     1      -1.354   0.208  24.370  0.00  0.00    +0.058 A 
ATOM     18  C   UNL     1      -0.889  -0.384  24.032  0.00  0.00    +0.052 C 
ATOM     19  N   UNL     1      -2.140   0.131  24.609  0.00  0.00    -0.234 N 
ATOM     20  N   UNL     1      -2.386   0.856  24.915  0.00  0.00    -0.170 NA
ATOM     21  C   UNL     1      -1.752   1.382  24.867  0.00  0.00    +0.077 A 
ATOM     22  C   UNL     1      -1.755   2.170  25.112  0.00  0.00    +0.054 C 
BRANCH  19  23
ATOM     23  C   UNL     1      -2.600  -0.552  24.550  0.00  0.00    +0.082 A 
ATOM     24  C   UNL     1      -3.207  -0.595  23.994  0.00  0.00    +0.019 A 
ATOM     25  C   UNL     1      -3.666  -1.277  23.936  0.00  0.00    -0.003 A 
ATOM     26  C   UNL     1      -3.518  -1.918  24.434  0.00  0.00    -0.022 A 
ATOM     27  C   UNL     1      -2.911  -1.876  24.991  0.00  0.00    -0.003 A 
ATOM     28  C   UNL     1      -2.451  -1.193  25.049  0.00  0.00    +0.019 A 
BRANCH  26  29
ATOM     29  C   UNL     1      -3.977  -2.600  24.376  0.00  0.00    +0.022 C 
ATOM     30  C   UNL     1      -3.792  -3.262  24.833  0.00  0.00    +0.005 C 
ATOM     31  C   UNL     1      -4.622  -2.622  23.861  0.00  0.00    +0.005 C 
ENDBRANCH  26  29
ENDBRANCH  19  23
ENDBRANCH  13  16
BRANCH  11  10
ATOM      7  N   UNL     1       2.706   1.262  22.798  0.00  0.00    -0.161 NA
ATOM      8  C   UNL     1       2.097   1.224  23.353  0.00  0.00    +0.344 C 
ATOM      9  O   UNL     1       2.189   0.772  24.037  0.00  0.00    -0.249 OA
ATOM     10  N   UNL     1       1.395   1.638  23.225  0.00  0.00    -0.184 NA
BRANCH   7   6
ATOM      3  C   UNL     1       4.812   0.020  23.185  0.00  0.00    +0.139 A 
ATOM      4  C   UNL     1       4.806   0.843  23.225  0.00  0.00    +0.038 A 
ATOM      5  C   UNL     1       4.104   1.258  23.096  0.00  0.00    +0.020 A 
ATOM      6  C   UNL     1       3.407   0.848  22.927  0.00  0.00    +0.075 A 
ATOM     32  C   UNL     1       3.414   0.024  22.887  0.00  0.00    +0.020 A 
ATOM     33  C   UNL     1       4.115  -0.390  23.016  0.00  0.00    +0.038 A 
BRANCH   3   2
ATOM      1  C   UNL     1       5.668  -0.724  24.054  0.00  0.00    +0.252 C 
ATOM      2  O   UNL     1       5.513  -0.395  23.314  0.00  0.00    -0.471 OA
ENDBRANCH   3   2
ENDBRANCH   7   6
ENDBRANCH  11  10
TORSDOF 6
ENDMDL
