MODEL 1
REMARK VINA RESULT:     -10.5      0.000      0.000
REMARK  Name = 
REMARK  9 active torsions:
REMARK  status: ('A' for Active; 'I' for Inactive)
REMARK    1  A    between atoms: O_2  and  C_3
REMARK    2  A    between atoms: C_5  and  N_6
REMARK    3  A    between atoms: N_9  and  C_10
REMARK    4  A    between atoms: C_14  and  C_15
REMARK    5  A    between atoms: N_17  and  C_18
REMARK    6  A    between atoms: C_18  and  C_19
REMARK    7  A    between atoms: C_18  and  C_26
REMARK    8  A    between atoms: C_19  and  C_20
REMARK    9  A    between atoms: C_29  and  C_31
REMARK                            x       y       z     vdW  Elec       q    Type
REMARK                         _______ _______ _______ _____ _____    ______ ____
ROOT
ATOM     10  C   UNL     1      -0.916   0.933  23.908  0.00  0.00    +0.126 C 
ATOM     11  C   UNL     1      -0.946   1.625  23.459  0.00  0.00    +0.045 C 
ATOM     12  C   UNL     1      -1.589   2.071  23.722  0.00  0.00    +0.096 C 
ATOM     13  N   UNL     1      -1.956   1.654  24.333  0.00  0.00    -0.267 N 
ATOM     14  C   UNL     1      -1.539   0.951  24.447  0.00  0.00    +0.174 C 
ATOM     29  C   UNL     1      -2.621   1.898  24.754  0.00  0.00    +0.269 C 
ATOM     30  O   UNL     1      -2.928   1.420  25.354  0.00  0.00    -0.268 OA
ENDROOT
BRANCH  29  31
ATOM     31  C   UNL     1      -2.981   2.619  24.577  0.00  0.00    +0.154 A 
ATOM     32  C   UNL     1      -3.588   2.650  24.019  0.00  0.00    +0.123 A 
ATOM     33  N   UNL     1      -3.948   3.371  23.842  0.00  0.00    -0.239 NA
ATOM     34  C   UNL     1      -3.702   4.060  24.222  0.00  0.00    +0.120 A 
ATOM     35  C   UNL     1      -3.095   4.028  24.781  0.00  0.00    +0.120 A 
ATOM     36  N   UNL     1      -2.735   3.307  24.958  0.00  0.00    -0.236 NA
ENDBRANCH  29  31
BRANCH  10   9
ATOM      6  N   UNL     1       0.889  -0.145  23.322  0.00  0.00    -0.161 NA
ATOM      7  C   UNL     1       0.333   0.459  23.399  0.00  0.00    +0.344 C 
ATOM      8  O   UNL     1       0.467   1.191  23.046  0.00  0.00    -0.249 OA
ATOM      9  N   UNL     1      -0.359   0.329  23.830  0.00  0.00    -0.186 NA
BRANCH   6   5
ATOM      3  C   UNL     1       2.914   0.492  22.815  0.00  0.00    +0.140 A 
ATOM      4  C   UNL     1       2.222   0.364  23.245  0.00  0.00    +0.054 A 
ATOM      5  C   UNL     1       1.581  -0.016  22.891  0.00  0.00    +0.078 A 
ATOM     37  C   UNL     1       1.632  -0.267  22.106  0.00  0.00    +0.017 A 
ATOM     38  C   UNL     1       2.324  -0.138  21.677  0.00  0.00    +0.004 A 
ATOM     39  C   UNL     1       2.965   0.242  22.030  0.00  0.00    +0.037 A 
BRANCH   3   2
ATOM      1  C   UNL     1       4.314   0.774  22.861  0.00  0.00    +0.252 C 
ATOM      2  O   UNL     1       3.556   0.872  23.169  0.00  0.00    -0.471 OA
ENDBRANCH   3   2
ENDBRANCH   6   5
ENDBRANCH  10   9
BRANCH  14  15
ATOM     15  C   UNL     1      -1.716   0.368  25.004  0.00  0.00    +0.262 C 
ATOM     16  O   UNL     1      -1.608   0.519  25.808  0.00  0.00    -0.271 OA
ATOM     17  N   UNL     1      -2.001  -0.366  24.757  0.00  0.00    -0.196 NA
BRANCH  17  18
ATOM     18  C   UNL     1      -2.178  -0.949  25.314  0.00  0.00    +0.179 C 
BRANCH  18  26
ATOM     26  C   UNL     1      -1.569  -1.328  25.721  0.00  0.00    +0.281 C 
ATOM     27  N   UNL     1      -1.487  -1.219  26.535  0.00  0.00    -0.086 NA
ATOM     28  O   UNL     1      -1.042  -1.815  25.315  0.00  0.00    -0.270 OA
ENDBRANCH  18  26
BRANCH  18  19
ATOM     19  C   UNL     1      -2.963  -1.152  25.463  0.00  0.00    +0.057 C 
BRANCH  19  20
ATOM     20  C   UNL     1      -3.376  -1.624  24.927  0.00  0.00    -0.020 A 
ATOM     21  C   UNL     1      -3.913  -1.281  24.404  0.00  0.00    -0.004 A 
ATOM     22  C   UNL     1      -4.326  -1.753  23.867  0.00  0.00    -0.000 A 
ATOM     23  C   UNL     1      -4.201  -2.569  23.854  0.00  0.00    -0.000 A 
ATOM     24  C   UNL     1      -3.663  -2.912  24.379  0.00  0.00    -0.000 A 
ATOM     25  C   UNL     1      -3.251  -2.440  24.914  0.00  0.00    -0.004 A 
ENDBRANCH  19  20
ENDBRANCH  18  19
ENDBRANCH  17  18
ENDBRANCH  14  15
TORSDOF 9
ENDMDL
MODEL 2
REMARK VINA RESULT:      -9.5      1.282      4.645
REMARK  Name = 
REMARK  9 active torsions:
REMARK  status: ('A' for Active; 'I' for Inactive)
REMARK    1  A    between atoms: O_2  and  C_3
REMARK    2  A    between atoms: C_5  and  N_6
REMARK    3  A    between atoms: N_9  and  C_10
REMARK    4  A    between atoms: C_14  and  C_15
REMARK    5  A    between atoms: N_17  and  C_18
REMARK    6  A    between atoms: C_18  and  C_19
REMARK    7  A    between atoms: C_18  and  C_26
REMARK    8  A    between atoms: C_19  and  C_20
REMARK    9  A    between atoms: C_29  and  C_31
REMARK                            x       y       z     vdW  Elec       q    Type
REMARK                         _______ _______ _______ _____ _____    ______ ____
ROOT
ATOM     10  C   UNL     1      -0.666   1.187  24.666  0.00  0.00    +0.126 C 
ATOM     11  C   UNL     1      -0.201   1.655  24.170  0.00  0.00    +0.045 C 
ATOM     12  C   UNL     1       0.264   1.153  23.708  0.00  0.00    +0.096 C 
ATOM     13  N   UNL     1       0.087   0.375  23.919  0.00  0.00    -0.267 N 
ATOM     14  C   UNL     1      -0.488   0.396  24.511  0.00  0.00    +0.174 C 
ATOM     29  C   UNL     1       0.424  -0.304  23.595  0.00  0.00    +0.269 C 
ATOM     30  O   UNL     1       0.191  -1.049  23.863  0.00  0.00    -0.268 OA
ENDROOT
BRANCH  29  31
ATOM     31  C   UNL     1       0.996  -0.239  23.004  0.00  0.00    +0.154 A 
ATOM     32  C   UNL     1       0.788  -0.363  22.215  0.00  0.00    +0.123 A 
ATOM     33  N   UNL     1       1.360  -0.298  21.623  0.00  0.00    -0.239 NA
ATOM     34  C   UNL     1       2.138  -0.110  21.820  0.00  0.00    +0.120 A 
ATOM     35  C   UNL     1       2.346   0.014  22.609  0.00  0.00    +0.120 A 
ATOM     36  N   UNL     1       1.774  -0.051  23.201  0.00  0.00    -0.236 NA
ENDBRANCH  29  31
BRANCH  10   9
ATOM      6  N   UNL     1      -2.135   2.462  25.656  0.00  0.00    -0.161 NA
ATOM      7  C   UNL     1      -1.588   2.187  25.103  0.00  0.00    +0.344 C 
ATOM      8  O   UNL     1      -1.417   2.638  24.434  0.00  0.00    -0.249 OA
ATOM      9  N   UNL     1      -1.213   1.461  25.219  0.00  0.00    -0.186 NA
BRANCH   6   5
ATOM      3  C   UNL     1      -3.658   3.935  25.136  0.00  0.00    +0.140 A 
ATOM      4  C   UNL     1      -3.283   3.210  25.251  0.00  0.00    +0.054 A 
ATOM      5  C   UNL     1      -2.510   3.187  25.541  0.00  0.00    +0.078 A 
ATOM     37  C   UNL     1      -2.114   3.889  25.716  0.00  0.00    +0.017 A 
ATOM     38  C   UNL     1      -2.491   4.614  25.600  0.00  0.00    +0.004 A 
ATOM     39  C   UNL     1      -3.262   4.637  25.310  0.00  0.00    +0.037 A 
BRANCH   3   2
ATOM      1  C   UNL     1      -5.064   3.789  25.347  0.00  0.00    +0.252 C 
ATOM      2  O   UNL     1      -4.431   3.958  24.846  0.00  0.00    -0.471 OA
ENDBRANCH   3   2
ENDBRANCH   6   5
ENDBRANCH  10   9
BRANCH  14  15
ATOM     15  C   UNL     1      -0.826  -0.259  24.882  0.00  0.00    +0.262 C 
ATOM     16  O   UNL     1      -0.357  -0.761  25.339  0.00  0.00    -0.271 OA
ATOM     17  N   UNL     1      -1.632  -0.411  24.796  0.00  0.00    -0.196 NA
BRANCH  17  18
ATOM     18  C   UNL     1      -1.970  -1.066  25.168  0.00  0.00    +0.179 C 
BRANCH  18  26
ATOM     26  C   UNL     1      -2.162  -1.032  25.969  0.00  0.00    +0.281 C 
ATOM     27  N   UNL     1      -1.718  -1.459  26.518  0.00  0.00    -0.086 NA
ATOM     28  O   UNL     1      -2.798  -0.571  26.222  0.00  0.00    -0.270 OA
ENDBRANCH  18  26
BRANCH  18  19
ATOM     19  C   UNL     1      -2.116  -1.755  24.738  0.00  0.00    +0.057 C 
BRANCH  19  20
ATOM     20  C   UNL     1      -2.864  -1.893  24.421  0.00  0.00    -0.020 A 
ATOM     21  C   UNL     1      -3.269  -1.283  24.039  0.00  0.00    -0.004 A 
ATOM     22  C   UNL     1      -4.018  -1.421  23.722  0.00  0.00    -0.000 A 
ATOM     23  C   UNL     1      -4.363  -2.168  23.787  0.00  0.00    -0.000 A 
ATOM     24  C   UNL     1      -3.958  -2.777  24.169  0.00  0.00    -0.000 A 
ATOM     25  C   UNL     1      -3.209  -2.640  24.485  0.00  0.00    -0.004 A 
ENDBRANCH  19  20
ENDBRANCH  18  19
ENDBRANCH  17  18
ENDBRANCH  14  15
TORSDOF 9
ENDMDL
MODEL 3
REMARK VINA RESULT:      -8.9      1.110      3.551
REMARK  Name = 
REMARK  9 active torsions:
REMARK  status: ('A' for Active; 'I' for Inactive)
REMARK    1  A    between atoms: O_2  and  C_3
REMARK    2  A    between atoms: C_5  and  N_6
REMARK    3  A    between atoms: N_9  and  C_10
REMARK    4  A    between atoms: C_14  and  C_15
REMARK    5  A    between atoms: N_17  and  C_18
REMARK    6  A    between atoms: C_18  and  C_19
REMARK    7  A    between atoms: C_18  and  C_26
REMARK    8  A    between atoms: C_19  and  C_20
REMARK    9  A    between atoms: C_29  and  C_31
REMARK                            x       y       z     vdW  Elec       q    Type
REMARK                         _______ _______ _______ _____ _____    ______ ____
ROOT
ATOM     10  C   UNL     1      -0.485   0.073  24.061  0.00  0.00    +0.126 C 
ATOM     11  C   UNL     1      -0.545  -0.685  23.741  0.00  0.00    +0.045 C 
ATOM     12  C   UNL     1      -1.239  -1.029  24.025  0.00  0.00    +0.096 C 
ATOM     13  N   UNL     1      -1.609  -0.482  24.521  0.00  0.00    -0.267 N 
ATOM     14  C   UNL     1      -1.143   0.199  24.542  0.00  0.00    +0.174 C 
ATOM     29  C   UNL     1      -2.319  -0.596  24.924  0.00  0.00    +0.269 C 
ATOM     30  O   UNL     1      -2.624   0.004  25.402  0.00  0.00    -0.268 OA
ENDROOT
BRANCH  29  31
ATOM     31  C   UNL     1      -2.727  -1.310  24.849  0.00  0.00    +0.154 A 
ATOM     32  C   UNL     1      -2.547  -1.941  25.349  0.00  0.00    +0.123 A 
ATOM     33  N   UNL     1      -2.954  -2.655  25.275  0.00  0.00    -0.239 NA
ATOM     34  C   UNL     1      -3.540  -2.738  24.701  0.00  0.00    +0.120 A 
ATOM     35  C   UNL     1      -3.720  -2.106  24.201  0.00  0.00    +0.120 A 
ATOM     36  N   UNL     1      -3.313  -1.392  24.275  0.00  0.00    -0.236 NA
ENDBRANCH  29  31
BRANCH  10   9
ATOM      6  N   UNL     1       1.416   0.907  23.386  0.00  0.00    -0.161 NA
ATOM      7  C   UNL     1       0.806   0.369  23.525  0.00  0.00    +0.344 C 
ATOM      8  O   UNL     1       0.877  -0.410  23.265  0.00  0.00    -0.249 OA
ATOM      9  N   UNL     1       0.124   0.611  23.922  0.00  0.00    -0.186 NA
BRANCH   6   5
ATOM      3  C   UNL     1       3.521   0.660  22.866  0.00  0.00    +0.140 A 
ATOM      4  C   UNL     1       2.839   0.901  23.263  0.00  0.00    +0.054 A 
ATOM      5  C   UNL     1       2.097   0.666  22.989  0.00  0.00    +0.078 A 
ATOM     37  C   UNL     1       2.037   0.190  22.318  0.00  0.00    +0.017 A 
ATOM     38  C   UNL     1       2.719  -0.051  21.921  0.00  0.00    +0.004 A 
ATOM     39  C   UNL     1       3.461   0.184  22.195  0.00  0.00    +0.037 A 
BRANCH   3   2
ATOM      1  C   UNL     1       4.848   0.331  23.280  0.00  0.00    +0.252 C 
ATOM      2  O   UNL     1       4.263   0.896  23.140  0.00  0.00    -0.471 OA
ENDBRANCH   3   2
ENDBRANCH   6   5
ENDBRANCH  10   9
BRANCH  14  15
ATOM     15  C   UNL     1      -1.306   0.885  24.971  0.00  0.00    +0.262 C 
ATOM     16  O   UNL     1      -1.197   0.896  25.789  0.00  0.00    -0.271 OA
ATOM     17  N   UNL     1      -1.578   1.559  24.582  0.00  0.00    -0.196 NA
BRANCH  17  18
ATOM     18  C   UNL     1      -1.742   2.246  25.010  0.00  0.00    +0.179 C 
BRANCH  18  26
ATOM     26  C   UNL     1      -1.144   2.797  25.149  0.00  0.00    +0.281 C 
ATOM     27  N   UNL     1      -0.924   2.981  25.923  0.00  0.00    -0.086 NA
ATOM     28  O   UNL     1      -0.766   3.165  24.514  0.00  0.00    -0.270 OA
ENDBRANCH  18  26
BRANCH  18  19
ATOM     19  C   UNL     1      -2.502   2.380  25.300  0.00  0.00    +0.057 C 
BRANCH  19  20
ATOM     20  C   UNL     1      -3.043   2.813  24.853  0.00  0.00    -0.020 A 
ATOM     21  C   UNL     1      -3.434   3.457  25.189  0.00  0.00    -0.004 A 
ATOM     22  C   UNL     1      -3.975   3.891  24.742  0.00  0.00    -0.000 A 
ATOM     23  C   UNL     1      -4.125   3.681  23.958  0.00  0.00    -0.000 A 
ATOM     24  C   UNL     1      -3.734   3.036  23.622  0.00  0.00    -0.000 A 
ATOM     25  C   UNL     1      -3.193   2.603  24.069  0.00  0.00    -0.004 A 
ENDBRANCH  19  20
ENDBRANCH  18  19
ENDBRANCH  17  18
ENDBRANCH  14  15
TORSDOF 9
ENDMDL
MODEL 4
REMARK VINA RESULT:      -8.3      2.297      6.170
REMARK  Name = 
REMARK  9 active torsions:
REMARK  status: ('A' for Active; 'I' for Inactive)
REMARK    1  A    between atoms: O_2  and  C_3
REMARK    2  A    between atoms: C_5  and  N_6
REMARK    3  A    between atoms: N_9  and  C_10
REMARK    4  A    between atoms: C_14  and  C_15
REMARK    5  A    between atoms: N_17  and  C_18
REMARK    6  A    between atoms: C_18  and  C_19
REMARK    7  A    between atoms: C_18  and  C_26
REMARK    8  A    between atoms: C_19  and  C_20
REMARK    9  A    between atoms: C_29  and  C_31
REMARK                            x       y       z     vdW  Elec       q    Type
REMARK                         _______ _______ _______ _____ _____    ______ ____
ROOT
ATOM     10  C   UNL     1      -2.694   0.733  24.321  0.00  0.00    +0.126 C 
ATOM     11  C   UNL     1      -3.027  -0.003  24.489  0.00  0.00    +0.045 C 
ATOM     12  C   UNL     1      -2.412  -0.543  24.594  0.00  0.00    +0.096 C 
ATOM     13  N   UNL     1      -1.699  -0.140  24.491  0.00  0.00    -0.267 N 
ATOM     14  C   UNL     1      -1.874   0.648  24.322  0.00  0.00    +0.174 C 
ATOM     29  C   UNL     1      -0.945  -0.468  24.547  0.00  0.00    +0.269 C 
ATOM     30  O   UNL     1      -0.279   0.005  24.430  0.00  0.00    -0.268 OA
ENDROOT
BRANCH  29  31
ATOM     31  C   UNL     1      -0.855  -1.270  24.720  0.00  0.00    +0.154 A 
ATOM     32  C   UNL     1      -0.546  -1.502  25.450  0.00  0.00    +0.123 A 
ATOM     33  N   UNL     1      -0.456  -2.303  25.623  0.00  0.00    -0.239 NA
ATOM     34  C   UNL     1      -0.674  -2.873  25.068  0.00  0.00    +0.120 A 
ATOM     35  C   UNL     1      -0.982  -2.641  24.339  0.00  0.00    +0.120 A 
ATOM     36  N   UNL     1      -1.073  -1.839  24.165  0.00  0.00    -0.236 NA
ENDBRANCH  29  31
BRANCH  10   9
ATOM      6  N   UNL     1      -4.244   2.268  24.415  0.00  0.00    -0.161 NA
ATOM      7  C   UNL     1      -3.828   1.570  24.558  0.00  0.00    +0.344 C 
ATOM      8  O   UNL     1      -4.132   1.010  25.083  0.00  0.00    -0.249 OA
ATOM      9  N   UNL     1      -3.110   1.432  24.177  0.00  0.00    -0.186 NA
BRANCH   6   5
ATOM      3  C   UNL     1      -5.788   3.238  25.613  0.00  0.00    +0.140 A 
ATOM      4  C   UNL     1      -5.070   3.099  25.232  0.00  0.00    +0.054 A 
ATOM      5  C   UNL     1      -4.962   2.407  24.795  0.00  0.00    +0.078 A 
ATOM     37  C   UNL     1      -5.573   1.855  24.739  0.00  0.00    +0.017 A 
ATOM     38  C   UNL     1      -6.291   1.996  25.120  0.00  0.00    +0.004 A 
ATOM     39  C   UNL     1      -6.399   2.686  25.557  0.00  0.00    +0.037 A 
BRANCH   3   2
ATOM      1  C   UNL     1      -5.925   4.660  25.666  0.00  0.00    +0.252 C 
ATOM      2  O   UNL     1      -5.896   3.930  26.050  0.00  0.00    -0.471 OA
ENDBRANCH   3   2
ENDBRANCH   6   5
ENDBRANCH  10   9
BRANCH  14  15
ATOM     15  C   UNL     1      -1.324   1.247  24.180  0.00  0.00    +0.262 C 
ATOM     16  O   UNL     1      -0.968   1.311  23.439  0.00  0.00    -0.271 OA
ATOM     17  N   UNL     1      -1.132   1.781  24.779  0.00  0.00    -0.196 NA
BRANCH  17  18
ATOM     18  C   UNL     1      -0.582   2.380  24.636  0.00  0.00    +0.179 C 
BRANCH  18  26
ATOM     26  C   UNL     1       0.177   2.327  24.955  0.00  0.00    +0.281 C 
ATOM     27  N   UNL     1       0.278   2.259  25.771  0.00  0.00    -0.086 NA
ATOM     28  O   UNL     1       0.835   2.341  24.458  0.00  0.00    -0.270 OA
ENDBRANCH  18  26
BRANCH  18  19
ATOM     19  C   UNL     1      -0.792   3.032  24.176  0.00  0.00    +0.057 C 
BRANCH  19  20
ATOM     20  C   UNL     1      -0.973   3.750  24.537  0.00  0.00    -0.020 A 
ATOM     21  C   UNL     1      -1.511   3.773  25.162  0.00  0.00    -0.004 A 
ATOM     22  C   UNL     1      -1.693   4.492  25.524  0.00  0.00    -0.000 A 
ATOM     23  C   UNL     1      -1.337   5.188  25.261  0.00  0.00    -0.000 A 
ATOM     24  C   UNL     1      -0.799   5.165  24.635  0.00  0.00    -0.000 A 
ATOM     25  C   UNL     1      -0.617   4.447  24.274  0.00  0.00    -0.004 A 
ENDBRANCH  19  20
ENDBRANCH  18  19
ENDBRANCH  17  18
ENDBRANCH  14  15
TORSDOF 9
ENDMDL
MODEL 5
REMARK VINA RESULT:      -8.2      1.415      5.440
REMARK  Name = 
REMARK  9 active torsions:
REMARK  status: ('A' for Active; 'I' for Inactive)
REMARK    1  A    between atoms: O_2  and  C_3
REMARK    2  A    between atoms: C_5  and  N_6
REMARK    3  A    between atoms: N_9  and  C_10
REMARK    4  A    between atoms: C_14  and  C_15
REMARK    5  A    between atoms: N_17  and  C_18
REMARK    6  A    between atoms: C_18  and  C_19
REMARK    7  A    between atoms: C_18  and  C_26
REMARK    8  A    between atoms: C_19  and  C_20
REMARK    9  A    between atoms: C_29  and  C_31
REMARK                            x       y       z     vdW  Elec       q    Type
REMARK                         _______ _______ _______ _____ _____    ______ ____
ROOT
ATOM     10  C   UNL     1      -0.560   0.248  24.326  0.00  0.00    +0.126 C 
ATOM     11  C   UNL     1      -0.218  -0.371  23.900  0.00  0.00    +0.045 C 
ATOM     12  C   UNL     1       0.506  -0.107  23.604  0.00  0.00    +0.096 C 
ATOM     13  N   UNL     1       0.611   0.674  23.848  0.00  0.00    -0.267 N 
ATOM     14  C   UNL     1      -0.048   0.893  24.294  0.00  0.00    +0.174 C 
ATOM     29  C   UNL     1       1.261   1.153  23.676  0.00  0.00    +0.269 C 
ATOM     30  O   UNL     1       1.290   1.928  23.959  0.00  0.00    -0.268 OA
ENDROOT
BRANCH  29  31
ATOM     31  C   UNL     1       1.883   0.857  23.221  0.00  0.00    +0.154 A 
ATOM     32  C   UNL     1       1.724   0.367  22.577  0.00  0.00    +0.123 A 
ATOM     33  N   UNL     1       2.346   0.071  22.122  0.00  0.00    -0.239 NA
ATOM     34  C   UNL     1       3.125   0.265  22.311  0.00  0.00    +0.120 A 
ATOM     35  C   UNL     1       3.283   0.755  22.956  0.00  0.00    +0.120 A 
ATOM     36  N   UNL     1       2.661   1.051  23.411  0.00  0.00    -0.236 NA
ENDBRANCH  29  31
BRANCH  10   9
ATOM      6  N   UNL     1      -2.477  -0.482  25.072  0.00  0.00    -0.161 NA
ATOM      7  C   UNL     1      -1.750  -0.458  24.683  0.00  0.00    +0.344 C 
ATOM      8  O   UNL     1      -1.486  -1.116  24.263  0.00  0.00    -0.249 OA
ATOM      9  N   UNL     1      -1.287   0.225  24.715  0.00  0.00    -0.186 NA
BRANCH   6   5
ATOM      3  C   UNL     1      -3.942  -1.949  24.393  0.00  0.00    +0.140 A 
ATOM      4  C   UNL     1      -3.479  -1.267  24.425  0.00  0.00    +0.054 A 
ATOM      5  C   UNL     1      -2.940  -1.163  25.041  0.00  0.00    +0.078 A 
ATOM     37  C   UNL     1      -2.865  -1.741  25.626  0.00  0.00    +0.017 A 
ATOM     38  C   UNL     1      -3.329  -2.422  25.593  0.00  0.00    +0.004 A 
ATOM     39  C   UNL     1      -3.867  -2.527  24.978  0.00  0.00    +0.037 A 
BRANCH   3   2
ATOM      1  C   UNL     1      -4.533  -2.782  23.394  0.00  0.00    +0.252 C 
ATOM      2  O   UNL     1      -4.482  -2.053  23.777  0.00  0.00    -0.471 OA
ENDBRANCH   3   2
ENDBRANCH   6   5
ENDBRANCH  10   9
BRANCH  14  15
ATOM     15  C   UNL     1      -0.173   1.630  24.646  0.00  0.00    +0.262 C 
ATOM     16  O   UNL     1       0.286   1.860  25.292  0.00  0.00    -0.271 OA
ATOM     17  N   UNL     1      -0.755   2.134  24.351  0.00  0.00    -0.196 NA
BRANCH  17  18
ATOM     18  C   UNL     1      -0.880   2.870  24.703  0.00  0.00    +0.179 C 
BRANCH  18  26
ATOM     26  C   UNL     1      -0.615   3.556  24.329  0.00  0.00    +0.281 C 
ATOM     27  N   UNL     1      -0.185   4.118  24.754  0.00  0.00    -0.086 NA
ATOM     28  O   UNL     1      -0.781   3.680  23.530  0.00  0.00    -0.270 OA
ENDBRANCH  18  26
BRANCH  18  19
ATOM     19  C   UNL     1      -1.268   2.920  25.429  0.00  0.00    +0.057 C 
BRANCH  19  20
ATOM     20  C   UNL     1      -2.046   3.190  25.462  0.00  0.00    -0.020 A 
ATOM     21  C   UNL     1      -2.260   3.766  26.013  0.00  0.00    -0.004 A 
ATOM     22  C   UNL     1      -3.039   4.037  26.046  0.00  0.00    -0.000 A 
ATOM     23  C   UNL     1      -3.604   3.732  25.529  0.00  0.00    -0.000 A 
ATOM     24  C   UNL     1      -3.390   3.156  24.978  0.00  0.00    -0.000 A 
ATOM     25  C   UNL     1      -2.612   2.885  24.945  0.00  0.00    -0.004 A 
ENDBRANCH  19  20
ENDBRANCH  18  19
ENDBRANCH  17  18
ENDBRANCH  14  15
TORSDOF 9
ENDMDL
