REMARK  Name = 
REMARK  4 active torsions:
REMARK  status: ('A' for Active; 'I' for Inactive)
REMARK    1  A    between atoms: C_6  and  C_9
REMARK    2  A    between atoms: C_12  and  C_14
REMARK    3  A    between atoms: N_19  and  C_20
REMARK    4  A    between atoms: C_20  and  C_21
REMARK                            x       y       z     vdW  Elec       q    Type
REMARK                         _______ _______ _______ _____ _____    ______ ____
ROOT
ATOM      9  C   UNL     1       0.381  -2.790   0.000  0.00  0.00    +0.203 A 
ATOM     10  N   UNL     1      -0.287  -3.275   0.000  0.00  0.00    -0.056 NA
ATOM     11  O   UNL     1      -0.032  -4.060   0.000  0.00  0.00    -0.336 OA
ATOM     12  C   UNL     1       0.793  -4.060   0.000  0.00  0.00    +0.251 A 
ATOM     13  N   UNL     1       1.048  -3.275   0.000  0.00  0.00    -0.190 NA
ENDROOT
BRANCH   9   6
ATOM      1  C   UNL     1       0.381   0.510   0.000  0.00  0.00    +0.033 C 
ATOM      2  C   UNL     1       0.381  -0.315   0.000  0.00  0.00    +0.006 A 
ATOM      3  C   UNL     1       1.095  -0.728   0.000  0.00  0.00    +0.136 A 
ATOM      4  F   UNL     1       1.810  -0.315   0.000  0.00  0.00    -0.205 F 
ATOM      5  C   UNL     1       1.095  -1.553   0.000  0.00  0.00    +0.032 A 
ATOM      6  C   UNL     1       0.381  -1.965   0.000  0.00  0.00    +0.041 A 
ATOM      7  C   UNL     1      -0.334  -1.553   0.000  0.00  0.00    +0.003 A 
ATOM      8  C   UNL     1      -0.334  -0.728   0.000  0.00  0.00    -0.002 A 
ENDBRANCH   9   6
BRANCH  12  14
ATOM     14  C   UNL     1       1.278  -4.727   0.000  0.00  0.00    +0.140 C 
ATOM     15  C   UNL     1       1.023  -5.512   0.000  0.00  0.00    +0.060 C 
ATOM     16  C   UNL     1       1.690  -5.997   0.000  0.00  0.00    +0.170 C 
ATOM     17  O   UNL     1       1.690  -6.822   0.000  0.00  0.00    -0.222 OA
ATOM     18  C   UNL     1       2.358  -5.512   0.000  0.00  0.00    +0.106 C 
ATOM     19  N   UNL     1       2.103  -4.727   0.000  0.00  0.00    -0.260 NA
BRANCH  19  20
ATOM     20  C   UNL     1       2.588  -4.060   0.000  0.00  0.00    +0.100 C 
BRANCH  20  21
ATOM     21  C   UNL     1       3.408  -4.146   0.000  0.00  0.00    -0.006 A 
ATOM     22  C   UNL     1       3.893  -3.479   0.000  0.00  0.00    -0.003 A 
ATOM     23  C   UNL     1       4.714  -3.565   0.000  0.00  0.00    -0.000 A 
ATOM     24  C   UNL     1       5.049  -4.319   0.000  0.00  0.00    -0.000 A 
ATOM     25  C   UNL     1       4.564  -4.986   0.000  0.00  0.00    -0.000 A 
ATOM     26  C   UNL     1       3.744  -4.900   0.000  0.00  0.00    -0.003 A 
ENDBRANCH  20  21
ENDBRANCH  19  20
ENDBRANCH  12  14
TORSDOF 4
