MODEL 1
REMARK VINA RESULT:      -9.2      0.000      0.000
REMARK  Name = 
REMARK  5 active torsions:
REMARK  status: ('A' for Active; 'I' for Inactive)
REMARK    1  A    between atoms: C_3  and  C_4
REMARK    2  A    between atoms: C_4  and  N_5
REMARK    3  A    between atoms: C_16  and  N_17
REMARK    4  A    between atoms: N_17  and  C_18
REMARK    5  A    between atoms: C_18  and  C_19
REMARK                            x       y       z     vdW  Elec       q    Type
REMARK                         _______ _______ _______ _____ _____    ______ ____
ROOT
ATOM      1  O   UNL     1      -3.429   1.217  23.436  0.00  0.00    -0.219 OA
ATOM      2  C   UNL     1      -3.841   1.239  24.150  0.00  0.00    +0.199 C 
ATOM      3  C   UNL     1      -4.009   1.915  24.592  0.00  0.00    +0.169 C 
ATOM     14  O   UNL     1      -4.430   1.683  25.263  0.00  0.00    -0.350 OA
ATOM     15  C   UNL     1      -4.521   0.864  25.235  0.00  0.00    +0.162 C 
ATOM     16  C   UNL     1      -4.157   0.589  24.548  0.00  0.00    +0.135 C 
ENDROOT
BRANCH   3   4
ATOM      4  C   UNL     1      -3.795   2.688  24.397  0.00  0.00    +0.149 C 
BRANCH   4   5
ATOM      5  N   UNL     1      -3.055   2.979  24.618  0.00  0.00    -0.186 NA
ATOM      6  C   UNL     1      -2.924   3.793  24.648  0.00  0.00    +0.323 C 
ATOM      7  O   UNL     1      -3.533   4.316  24.458  0.00  0.00    -0.251 OA
ATOM      8  N   UNL     1      -2.184   4.084  24.869  0.00  0.00    -0.258 N 
ATOM      9  C   UNL     1      -2.054   4.897  24.899  0.00  0.00    +0.127 C 
ATOM     10  C   UNL     1      -1.313   5.189  25.120  0.00  0.00    +0.164 C 
ATOM     11  O   UNL     1      -0.705   4.666  25.310  0.00  0.00    -0.350 OA
ATOM     12  C   UNL     1      -0.836   3.851  25.280  0.00  0.00    +0.164 C 
ATOM     13  C   UNL     1      -1.576   3.560  25.059  0.00  0.00    +0.127 C 
ENDBRANCH   4   5
ENDBRANCH   3   4
BRANCH  16  17
ATOM     17  N   UNL     1      -4.117  -0.197  24.302  0.00  0.00    -0.209 NA
BRANCH  17  18
ATOM     18  C   UNL     1      -4.145  -0.805  24.858  0.00  0.00    +0.115 C 
BRANCH  18  19
ATOM     19  C   UNL     1      -3.958  -1.577  24.634  0.00  0.00    -0.002 A 
ATOM     20  C   UNL     1      -3.440  -2.025  25.094  0.00  0.00    +0.018 A 
ATOM     21  C   UNL     1      -3.252  -2.798  24.871  0.00  0.00    +0.099 A 
ATOM     22  N   UNL     1      -3.583  -3.121  24.188  0.00  0.00    -0.242 NA
ATOM     23  C   UNL     1      -4.101  -2.673  23.728  0.00  0.00    +0.099 A 
ATOM     24  C   UNL     1      -4.288  -1.901  23.951  0.00  0.00    +0.018 A 
ENDBRANCH  18  19
ENDBRANCH  17  18
ENDBRANCH  16  17
TORSDOF 5
ENDMDL
MODEL 2
REMARK VINA RESULT:      -9.2      1.756      2.149
REMARK  Name = 
REMARK  5 active torsions:
REMARK  status: ('A' for Active; 'I' for Inactive)
REMARK    1  A    between atoms: C_3  and  C_4
REMARK    2  A    between atoms: C_4  and  N_5
REMARK    3  A    between atoms: C_16  and  N_17
REMARK    4  A    between atoms: N_17  and  C_18
REMARK    5  A    between atoms: C_18  and  C_19
REMARK                            x       y       z     vdW  Elec       q    Type
REMARK                         _______ _______ _______ _____ _____    ______ ____
ROOT
ATOM      1  O   UNL     1      -1.453   0.559  23.690  0.00  0.00    -0.219 OA
ATOM      2  C   UNL     1      -1.371   0.455  24.505  0.00  0.00    +0.199 C 
ATOM      3  C   UNL     1      -0.995   0.974  25.024  0.00  0.00    +0.169 C 
ATOM     14  O   UNL     1      -1.042   0.653  25.783  0.00  0.00    -0.350 OA
ATOM     15  C   UNL     1      -1.447  -0.064  25.732  0.00  0.00    +0.162 C 
ATOM     16  C   UNL     1      -1.650  -0.186  24.942  0.00  0.00    +0.135 C 
ENDROOT
BRANCH   3   4
ATOM      4  C   UNL     1      -0.635   1.688  24.821  0.00  0.00    +0.149 C 
BRANCH   4   5
ATOM      5  N   UNL     1      -1.001   2.403  25.011  0.00  0.00    -0.186 NA
ATOM      6  C   UNL     1      -0.645   3.117  24.800  0.00  0.00    +0.323 C 
ATOM      7  O   UNL     1       0.076   3.116  24.401  0.00  0.00    -0.251 OA
ATOM      8  N   UNL     1      -1.011   3.832  24.990  0.00  0.00    -0.258 N 
ATOM      9  C   UNL     1      -0.655   4.545  24.780  0.00  0.00    +0.127 C 
ATOM     10  C   UNL     1      -1.021   5.261  24.969  0.00  0.00    +0.164 C 
ATOM     11  O   UNL     1      -1.743   5.261  25.368  0.00  0.00    -0.350 OA
ATOM     12  C   UNL     1      -2.099   4.547  25.578  0.00  0.00    +0.164 C 
ATOM     13  C   UNL     1      -1.733   3.832  25.389  0.00  0.00    +0.127 C 
ENDBRANCH   4   5
ENDBRANCH   3   4
BRANCH  16  17
ATOM     17  N   UNL     1      -2.060  -0.836  24.642  0.00  0.00    -0.209 NA
BRANCH  17  18
ATOM     18  C   UNL     1      -2.704  -1.144  25.056  0.00  0.00    +0.115 C 
BRANCH  18  19
ATOM     19  C   UNL     1      -3.196  -1.702  24.698  0.00  0.00    -0.002 A 
ATOM     20  C   UNL     1      -3.863  -1.455  24.281  0.00  0.00    +0.018 A 
ATOM     21  C   UNL     1      -4.355  -2.013  23.923  0.00  0.00    +0.099 A 
ATOM     22  N   UNL     1      -4.179  -2.816  23.983  0.00  0.00    -0.242 NA
ATOM     23  C   UNL     1      -3.512  -3.063  24.400  0.00  0.00    +0.099 A 
ATOM     24  C   UNL     1      -3.020  -2.505  24.758  0.00  0.00    +0.018 A 
ENDBRANCH  18  19
ENDBRANCH  17  18
ENDBRANCH  16  17
TORSDOF 5
ENDMDL
MODEL 3
REMARK VINA RESULT:      -8.9      1.288      5.640
REMARK  Name = 
REMARK  5 active torsions:
REMARK  status: ('A' for Active; 'I' for Inactive)
REMARK    1  A    between atoms: C_3  and  C_4
REMARK    2  A    between atoms: C_4  and  N_5
REMARK    3  A    between atoms: C_16  and  N_17
REMARK    4  A    between atoms: N_17  and  C_18
REMARK    5  A    between atoms: C_18  and  C_19
REMARK                            x       y       z     vdW  Elec       q    Type
REMARK                         _______ _______ _______ _____ _____    ______ ____
ROOT
ATOM      1  O   UNL     1      -2.822   1.756  23.420  0.00  0.00    -0.219 OA
ATOM      2  C   UNL     1      -3.226   1.797  24.138  0.00  0.00    +0.199 C 
ATOM      3  C   UNL     1      -3.738   1.225  24.440  0.00  0.00    +0.169 C 
ATOM     14  O   UNL     1      -4.017   1.492  25.168  0.00  0.00    -0.350 OA
ATOM     15  C   UNL     1      -3.678   2.229  25.317  0.00  0.00    +0.162 C 
ATOM     16  C   UNL     1      -3.189   2.418  24.681  0.00  0.00    +0.135 C 
ENDROOT
BRANCH   3   4
ATOM      4  C   UNL     1      -3.936   0.511  24.076  0.00  0.00    +0.149 C 
BRANCH   4   5
ATOM      5  N   UNL     1      -3.775  -0.203  24.455  0.00  0.00    -0.186 NA
ATOM      6  C   UNL     1      -3.927  -0.918  24.071  0.00  0.00    +0.323 C 
ATOM      7  O   UNL     1      -4.240  -0.917  23.308  0.00  0.00    -0.251 OA
ATOM      8  N   UNL     1      -3.766  -1.632  24.450  0.00  0.00    -0.258 N 
ATOM      9  C   UNL     1      -3.918  -2.346  24.066  0.00  0.00    +0.127 C 
ATOM     10  C   UNL     1      -3.757  -3.062  24.445  0.00  0.00    +0.164 C 
ATOM     11  O   UNL     1      -3.444  -3.062  25.208  0.00  0.00    -0.350 OA
ATOM     12  C   UNL     1      -3.291  -2.347  25.592  0.00  0.00    +0.164 C 
ATOM     13  C   UNL     1      -3.453  -1.633  25.213  0.00  0.00    +0.127 C 
ENDBRANCH   4   5
ENDBRANCH   3   4
BRANCH  16  17
ATOM     17  N   UNL     1      -2.742   3.106  24.600  0.00  0.00    -0.209 NA
BRANCH  17  18
ATOM     18  C   UNL     1      -2.334   3.411  25.250  0.00  0.00    +0.115 C 
BRANCH  18  19
ATOM     19  C   UNL     1      -1.804   4.035  25.148  0.00  0.00    -0.002 A 
ATOM     20  C   UNL     1      -1.010   3.880  24.986  0.00  0.00    +0.018 A 
ATOM     21  C   UNL     1      -0.480   4.504  24.885  0.00  0.00    +0.099 A 
ATOM     22  N   UNL     1      -0.744   5.283  24.945  0.00  0.00    -0.242 NA
ATOM     23  C   UNL     1      -1.538   5.438  25.107  0.00  0.00    +0.099 A 
ATOM     24  C   UNL     1      -2.068   4.814  25.209  0.00  0.00    +0.018 A 
ENDBRANCH  18  19
ENDBRANCH  17  18
ENDBRANCH  16  17
TORSDOF 5
ENDMDL
MODEL 4
REMARK VINA RESULT:      -8.8      2.183      6.038
REMARK  Name = 
REMARK  5 active torsions:
REMARK  status: ('A' for Active; 'I' for Inactive)
REMARK    1  A    between atoms: C_3  and  C_4
REMARK    2  A    between atoms: C_4  and  N_5
REMARK    3  A    between atoms: C_16  and  N_17
REMARK    4  A    between atoms: N_17  and  C_18
REMARK    5  A    between atoms: C_18  and  C_19
REMARK                            x       y       z     vdW  Elec       q    Type
REMARK                         _______ _______ _______ _____ _____    ______ ____
ROOT
ATOM      1  O   UNL     1      -1.168   1.348  23.706  0.00  0.00    -0.219 OA
ATOM      2  C   UNL     1      -0.970   1.258  24.502  0.00  0.00    +0.199 C 
ATOM      3  C   UNL     1      -0.872   0.542  24.899  0.00  0.00    +0.169 C 
ATOM     14  O   UNL     1      -0.677   0.711  25.682  0.00  0.00    -0.350 OA
ATOM     15  C   UNL     1      -0.654   1.531  25.769  0.00  0.00    +0.162 C 
ATOM     16  C   UNL     1      -0.835   1.869  25.040  0.00  0.00    +0.135 C 
ENDROOT
BRANCH   3   4
ATOM      4  C   UNL     1      -0.954  -0.210  24.571  0.00  0.00    +0.149 C 
BRANCH   4   5
ATOM      5  N   UNL     1      -1.625  -0.662  24.737  0.00  0.00    -0.186 NA
ATOM      6  C   UNL     1      -1.665  -1.448  24.488  0.00  0.00    +0.323 C 
ATOM      7  O   UNL     1      -1.035  -1.781  24.074  0.00  0.00    -0.251 OA
ATOM      8  N   UNL     1      -2.335  -1.899  24.655  0.00  0.00    -0.258 N 
ATOM      9  C   UNL     1      -2.376  -2.684  24.406  0.00  0.00    +0.127 C 
ATOM     10  C   UNL     1      -3.046  -3.136  24.572  0.00  0.00    +0.164 C 
ATOM     11  O   UNL     1      -3.676  -2.801  24.987  0.00  0.00    -0.350 OA
ATOM     12  C   UNL     1      -3.635  -2.015  25.236  0.00  0.00    +0.164 C 
ATOM     13  C   UNL     1      -2.965  -1.564  25.070  0.00  0.00    +0.127 C 
ENDBRANCH   4   5
ENDBRANCH   3   4
BRANCH  16  17
ATOM     17  N   UNL     1      -0.875   2.676  24.876  0.00  0.00    -0.209 NA
BRANCH  17  18
ATOM     18  C   UNL     1      -0.946   3.219  25.493  0.00  0.00    +0.115 C 
BRANCH  18  19
ATOM     19  C   UNL     1      -1.158   4.000  25.333  0.00  0.00    -0.002 A 
ATOM     20  C   UNL     1      -0.621   4.507  24.966  0.00  0.00    +0.018 A 
ATOM     21  C   UNL     1      -0.834   5.288  24.806  0.00  0.00    +0.099 A 
ATOM     22  N   UNL     1      -1.583   5.562  25.014  0.00  0.00    -0.242 NA
ATOM     23  C   UNL     1      -2.120   5.056  25.382  0.00  0.00    +0.099 A 
ATOM     24  C   UNL     1      -1.908   4.274  25.542  0.00  0.00    +0.018 A 
ENDBRANCH  18  19
ENDBRANCH  17  18
ENDBRANCH  16  17
TORSDOF 5
ENDMDL
MODEL 5
REMARK VINA RESULT:      -7.9      3.289      4.629
REMARK  Name = 
REMARK  5 active torsions:
REMARK  status: ('A' for Active; 'I' for Inactive)
REMARK    1  A    between atoms: C_3  and  C_4
REMARK    2  A    between atoms: C_4  and  N_5
REMARK    3  A    between atoms: C_16  and  N_17
REMARK    4  A    between atoms: N_17  and  C_18
REMARK    5  A    between atoms: C_18  and  C_19
REMARK                            x       y       z     vdW  Elec       q    Type
REMARK                         _______ _______ _______ _____ _____    ______ ____
ROOT
ATOM      1  O   UNL     1      -1.537   1.989  25.605  0.00  0.00    -0.219 OA
ATOM      2  C   UNL     1      -1.710   1.887  24.805  0.00  0.00    +0.199 C 
ATOM      3  C   UNL     1      -1.165   1.728  24.207  0.00  0.00    +0.169 C 
ATOM     14  O   UNL     1      -1.577   1.670  23.495  0.00  0.00    -0.350 OA
ATOM     15  C   UNL     1      -2.378   1.794  23.653  0.00  0.00    +0.162 C 
ATOM     16  C   UNL     1      -2.460   1.928  24.462  0.00  0.00    +0.135 C 
ENDROOT
BRANCH   3   4
ATOM      4  C   UNL     1      -0.350   1.641  24.304  0.00  0.00    +0.149 C 
BRANCH   4   5
ATOM      5  N   UNL     1       0.073   1.136  23.808  0.00  0.00    -0.186 NA
ATOM      6  C   UNL     1       0.894   1.205  23.752  0.00  0.00    +0.323 C 
ATOM      7  O   UNL     1       1.290   1.780  24.192  0.00  0.00    -0.251 OA
ATOM      8  N   UNL     1       1.317   0.700  23.256  0.00  0.00    -0.258 N 
ATOM      9  C   UNL     1       2.137   0.770  23.200  0.00  0.00    +0.127 C 
ATOM     10  C   UNL     1       2.561   0.264  22.703  0.00  0.00    +0.164 C 
ATOM     11  O   UNL     1       2.164  -0.310  22.263  0.00  0.00    -0.350 OA
ATOM     12  C   UNL     1       1.343  -0.379  22.320  0.00  0.00    +0.164 C 
ATOM     13  C   UNL     1       0.920   0.126  22.816  0.00  0.00    +0.127 C 
ENDBRANCH   4   5
ENDBRANCH   3   4
BRANCH  16  17
ATOM     17  N   UNL     1      -3.167   2.077  24.859  0.00  0.00    -0.209 NA
BRANCH  17  18
ATOM     18  C   UNL     1      -3.865   2.186  24.432  0.00  0.00    +0.115 C 
BRANCH  18  19
ATOM     19  C   UNL     1      -4.574   2.326  24.830  0.00  0.00    -0.002 A 
ATOM     20  C   UNL     1      -5.130   1.722  24.907  0.00  0.00    +0.018 A 
ATOM     21  C   UNL     1      -5.839   1.862  25.305  0.00  0.00    +0.099 A 
ATOM     22  N   UNL     1      -5.992   2.606  25.625  0.00  0.00    -0.242 NA
ATOM     23  C   UNL     1      -5.437   3.211  25.548  0.00  0.00    +0.099 A 
ATOM     24  C   UNL     1      -4.727   3.071  25.150  0.00  0.00    +0.018 A 
ENDBRANCH  18  19
ENDBRANCH  17  18
ENDBRANCH  16  17
TORSDOF 5
ENDMDL
MODEL 6
REMARK VINA RESULT:      -7.5      3.271      4.332
REMARK  Name = 
REMARK  5 active torsions:
REMARK  status: ('A' for Active; 'I' for Inactive)
REMARK    1  A    between atoms: C_3  and  C_4
REMARK    2  A    between atoms: C_4  and  N_5
REMARK    3  A    between atoms: C_16  and  N_17
REMARK    4  A    between atoms: N_17  and  C_18
REMARK    5  A    between atoms: C_18  and  C_19
REMARK                            x       y       z     vdW  Elec       q    Type
REMARK                         _______ _______ _______ _____ _____    ______ ____
ROOT
ATOM      1  O   UNL     1      -0.895   2.699  23.777  0.00  0.00    -0.219 OA
ATOM      2  C   UNL     1      -1.053   2.019  24.217  0.00  0.00    +0.199 C 
ATOM      3  C   UNL     1      -1.655   1.931  24.773  0.00  0.00    +0.169 C 
ATOM     14  O   UNL     1      -1.611   1.166  25.078  0.00  0.00    -0.350 OA
ATOM     15  C   UNL     1      -0.980   0.781  24.710  0.00  0.00    +0.162 C 
ATOM     16  C   UNL     1      -0.635   1.308  24.178  0.00  0.00    +0.135 C 
ENDROOT
BRANCH   3   4
ATOM      4  C   UNL     1      -2.206   2.507  24.987  0.00  0.00    +0.149 C 
BRANCH   4   5
ATOM      5  N   UNL     1      -3.011   2.327  24.989  0.00  0.00    -0.186 NA
ATOM      6  C   UNL     1      -3.556   2.877  25.276  0.00  0.00    +0.323 C 
ATOM      7  O   UNL     1      -3.295   3.605  25.562  0.00  0.00    -0.251 OA
ATOM      8  N   UNL     1      -4.361   2.697  25.277  0.00  0.00    -0.258 N 
ATOM      9  C   UNL     1      -4.905   3.246  25.564  0.00  0.00    +0.127 C 
ATOM     10  C   UNL     1      -5.711   3.067  25.566  0.00  0.00    +0.164 C 
ATOM     11  O   UNL     1      -5.972   2.338  25.280  0.00  0.00    -0.350 OA
ATOM     12  C   UNL     1      -5.427   1.789  24.993  0.00  0.00    +0.164 C 
ATOM     13  C   UNL     1      -4.622   1.968  24.991  0.00  0.00    +0.127 C 
ENDBRANCH   4   5
ENDBRANCH   3   4
BRANCH  16  17
ATOM     17  N   UNL     1       0.012   1.153  23.692  0.00  0.00    -0.209 NA
BRANCH  17  18
ATOM     18  C   UNL     1       0.391   0.421  23.731  0.00  0.00    +0.115 C 
BRANCH  18  19
ATOM     19  C   UNL     1       1.019   0.253  23.223  0.00  0.00    -0.002 A 
ATOM     20  C   UNL     1       1.780   0.513  23.408  0.00  0.00    +0.018 A 
ATOM     21  C   UNL     1       2.408   0.346  22.900  0.00  0.00    +0.099 A 
ATOM     22  N   UNL     1       2.275  -0.082  22.207  0.00  0.00    -0.242 NA
ATOM     23  C   UNL     1       1.514  -0.342  22.022  0.00  0.00    +0.099 A 
ATOM     24  C   UNL     1       0.886  -0.175  22.530  0.00  0.00    +0.018 A 
ENDBRANCH  18  19
ENDBRANCH  17  18
ENDBRANCH  16  17
TORSDOF 5
ENDMDL
MODEL 7
REMARK VINA RESULT:      -7.2     17.775     19.612
REMARK  Name = 
REMARK  5 active torsions:
REMARK  status: ('A' for Active; 'I' for Inactive)
REMARK    1  A    between atoms: C_3  and  C_4
REMARK    2  A    between atoms: C_4  and  N_5
REMARK    3  A    between atoms: C_16  and  N_17
REMARK    4  A    between atoms: N_17  and  C_18
REMARK    5  A    between atoms: C_18  and  C_19
REMARK                            x       y       z     vdW  Elec       q    Type
REMARK                         _______ _______ _______ _____ _____    ______ ____
ROOT
ATOM      1  O   UNL     1      13.204   7.290  19.862  0.00  0.00    -0.219 OA
ATOM      2  C   UNL     1      13.628   7.861  19.443  0.00  0.00    +0.199 C 
ATOM      3  C   UNL     1      13.312   8.401  18.905  0.00  0.00    +0.169 C 
ATOM     14  O   UNL     1      13.931   8.865  18.618  0.00  0.00    -0.350 OA
ATOM     15  C   UNL     1      14.628   8.611  18.977  0.00  0.00    +0.162 C 
ATOM     16  C   UNL     1      14.442   7.991  19.487  0.00  0.00    +0.135 C 
ENDROOT
BRANCH   3   4
ATOM      4  C   UNL     1      12.518   8.466  18.693  0.00  0.00    +0.149 C 
BRANCH   4   5
ATOM      5  N   UNL     1      12.311   8.623  17.910  0.00  0.00    -0.186 NA
ATOM      6  C   UNL     1      11.522   8.577  17.673  0.00  0.00    +0.323 C 
ATOM      7  O   UNL     1      10.939   8.374  18.221  0.00  0.00    -0.251 OA
ATOM      8  N   UNL     1      11.316   8.733  16.890  0.00  0.00    -0.258 N 
ATOM      9  C   UNL     1      10.527   8.687  16.655  0.00  0.00    +0.127 C 
ATOM     10  C   UNL     1      10.320   8.844  15.871  0.00  0.00    +0.164 C 
ATOM     11  O   UNL     1      10.904   9.047  15.324  0.00  0.00    -0.350 OA
ATOM     12  C   UNL     1      11.693   9.093  15.560  0.00  0.00    +0.164 C 
ATOM     13  C   UNL     1      11.899   8.936  16.343  0.00  0.00    +0.127 C 
ENDBRANCH   4   5
ENDBRANCH   3   4
BRANCH  16  17
ATOM     17  N   UNL     1      14.974   7.574  19.959  0.00  0.00    -0.209 NA
BRANCH  17  18
ATOM     18  C   UNL     1      15.775   7.768  19.947  0.00  0.00    +0.115 C 
BRANCH  18  19
ATOM     19  C   UNL     1      16.319   7.305  20.361  0.00  0.00    -0.002 A 
ATOM     20  C   UNL     1      16.439   7.430  21.167  0.00  0.00    +0.018 A 
ATOM     21  C   UNL     1      16.982   6.966  21.580  0.00  0.00    +0.099 A 
ATOM     22  N   UNL     1      17.405   6.378  21.187  0.00  0.00    -0.242 NA
ATOM     23  C   UNL     1      17.286   6.253  20.380  0.00  0.00    +0.099 A 
ATOM     24  C   UNL     1      16.742   6.716  19.967  0.00  0.00    +0.018 A 
ENDBRANCH  18  19
ENDBRANCH  17  18
ENDBRANCH  16  17
TORSDOF 5
ENDMDL
MODEL 8
REMARK VINA RESULT:      -7.2     17.674     19.234
REMARK  Name = 
REMARK  5 active torsions:
REMARK  status: ('A' for Active; 'I' for Inactive)
REMARK    1  A    between atoms: C_3  and  C_4
REMARK    2  A    between atoms: C_4  and  N_5
REMARK    3  A    between atoms: C_16  and  N_17
REMARK    4  A    between atoms: N_17  and  C_18
REMARK    5  A    between atoms: C_18  and  C_19
REMARK                            x       y       z     vdW  Elec       q    Type
REMARK                         _______ _______ _______ _____ _____    ______ ____
ROOT
ATOM      1  O   UNL     1      12.529   6.730  19.235  0.00  0.00    -0.219 OA
ATOM      2  C   UNL     1      12.791   7.510  19.293  0.00  0.00    +0.199 C 
ATOM      3  C   UNL     1      13.369   7.790  19.810  0.00  0.00    +0.169 C 
ATOM     14  O   UNL     1      13.457   8.599  19.680  0.00  0.00    -0.350 OA
ATOM     15  C   UNL     1      12.933   8.820  19.082  0.00  0.00    +0.162 C 
ATOM     16  C   UNL     1      12.522   8.147  18.842  0.00  0.00    +0.135 C 
ENDROOT
BRANCH   3   4
ATOM      4  C   UNL     1      13.787   7.339  20.361  0.00  0.00    +0.149 C 
BRANCH   4   5
ATOM      5  N   UNL     1      14.567   7.119  20.208  0.00  0.00    -0.186 NA
ATOM      6  C   UNL     1      15.063   6.899  20.830  0.00  0.00    +0.323 C 
ATOM      7  O   UNL     1      14.778   6.899  21.604  0.00  0.00    -0.251 OA
ATOM      8  N   UNL     1      15.843   6.679  20.677  0.00  0.00    -0.258 N 
ATOM      9  C   UNL     1      16.339   6.459  21.298  0.00  0.00    +0.127 C 
ATOM     10  C   UNL     1      17.120   6.239  21.146  0.00  0.00    +0.164 C 
ATOM     11  O   UNL     1      17.404   6.239  20.371  0.00  0.00    -0.350 OA
ATOM     12  C   UNL     1      16.907   6.459  19.749  0.00  0.00    +0.164 C 
ATOM     13  C   UNL     1      16.127   6.679  19.902  0.00  0.00    +0.127 C 
ENDBRANCH   4   5
ENDBRANCH   3   4
BRANCH  16  17
ATOM     17  N   UNL     1      11.943   8.116  18.256  0.00  0.00    -0.209 NA
BRANCH  17  18
ATOM     18  C   UNL     1      11.688   8.810  17.891  0.00  0.00    +0.115 C 
BRANCH  18  19
ATOM     19  C   UNL     1      11.342   8.779  17.142  0.00  0.00    -0.002 A 
ATOM     20  C   UNL     1      10.595   8.442  17.046  0.00  0.00    +0.018 A 
ATOM     21  C   UNL     1      10.249   8.411  16.298  0.00  0.00    +0.099 A 
ATOM     22  N   UNL     1      10.651   8.718  15.645  0.00  0.00    -0.242 NA
ATOM     23  C   UNL     1      11.397   9.056  15.741  0.00  0.00    +0.099 A 
ATOM     24  C   UNL     1      11.743   9.086  16.490  0.00  0.00    +0.018 A 
ENDBRANCH  18  19
ENDBRANCH  17  18
ENDBRANCH  16  17
TORSDOF 5
ENDMDL
MODEL 9
REMARK VINA RESULT:      -7.1     14.041     14.763
REMARK  Name = 
REMARK  5 active torsions:
REMARK  status: ('A' for Active; 'I' for Inactive)
REMARK    1  A    between atoms: C_3  and  C_4
REMARK    2  A    between atoms: C_4  and  N_5
REMARK    3  A    between atoms: C_16  and  N_17
REMARK    4  A    between atoms: N_17  and  C_18
REMARK    5  A    between atoms: C_18  and  C_19
REMARK                            x       y       z     vdW  Elec       q    Type
REMARK                         _______ _______ _______ _____ _____    ______ ____
ROOT
ATOM      1  O   UNL     1      -5.706 -10.341  18.015  0.00  0.00    -0.219 OA
ATOM      2  C   UNL     1      -5.753 -10.190  17.205  0.00  0.00    +0.199 C 
ATOM      3  C   UNL     1      -5.130 -10.228  16.667  0.00  0.00    +0.169 C 
ATOM     14  O   UNL     1      -5.424 -10.036  15.921  0.00  0.00    -0.350 OA
ATOM     15  C   UNL     1      -6.231  -9.879  15.998  0.00  0.00    +0.162 C 
ATOM     16  C   UNL     1      -6.434  -9.974  16.791  0.00  0.00    +0.135 C 
ENDROOT
BRANCH   3   4
ATOM      4  C   UNL     1      -4.348 -10.424  16.844  0.00  0.00    +0.149 C 
BRANCH   4   5
ATOM      5  N   UNL     1      -3.777 -10.423  16.248  0.00  0.00    -0.186 NA
ATOM      6  C   UNL     1      -2.992 -10.602  16.429  0.00  0.00    +0.323 C 
ATOM      7  O   UNL     1      -2.778 -10.781  17.205  0.00  0.00    -0.251 OA
ATOM      8  N   UNL     1      -2.421 -10.602  15.833  0.00  0.00    -0.258 N 
ATOM      9  C   UNL     1      -1.637 -10.780  16.013  0.00  0.00    +0.127 C 
ATOM     10  C   UNL     1      -1.065 -10.780  15.417  0.00  0.00    +0.164 C 
ATOM     11  O   UNL     1      -1.280 -10.601  14.641  0.00  0.00    -0.350 OA
ATOM     12  C   UNL     1      -2.066 -10.422  14.461  0.00  0.00    +0.164 C 
ATOM     13  C   UNL     1      -2.636 -10.422  15.057  0.00  0.00    +0.127 C 
ENDBRANCH   4   5
ENDBRANCH   3   4
BRANCH  16  17
ATOM     17  N   UNL     1      -7.186  -9.872  17.114  0.00  0.00    -0.209 NA
BRANCH  17  18
ATOM     18  C   UNL     1      -7.792  -9.552  16.655  0.00  0.00    +0.115 C 
BRANCH  18  19
ATOM     19  C   UNL     1      -8.529  -9.399  16.994  0.00  0.00    -0.002 A 
ATOM     20  C   UNL     1      -9.041 -10.022  17.167  0.00  0.00    +0.018 A 
ATOM     21  C   UNL     1      -9.778  -9.869  17.505  0.00  0.00    +0.099 A 
ATOM     22  N   UNL     1     -10.002  -9.092  17.670  0.00  0.00    -0.242 NA
ATOM     23  C   UNL     1      -9.490  -8.469  17.496  0.00  0.00    +0.099 A 
ATOM     24  C   UNL     1      -8.753  -8.622  17.158  0.00  0.00    +0.018 A 
ENDBRANCH  18  19
ENDBRANCH  17  18
ENDBRANCH  16  17
TORSDOF 5
ENDMDL
MODEL 10
REMARK VINA RESULT:      -6.9      2.465      4.994
REMARK  Name = 
REMARK  5 active torsions:
REMARK  status: ('A' for Active; 'I' for Inactive)
REMARK    1  A    between atoms: C_3  and  C_4
REMARK    2  A    between atoms: C_4  and  N_5
REMARK    3  A    between atoms: C_16  and  N_17
REMARK    4  A    between atoms: N_17  and  C_18
REMARK    5  A    between atoms: C_18  and  C_19
REMARK                            x       y       z     vdW  Elec       q    Type
REMARK                         _______ _______ _______ _____ _____    ______ ____
ROOT
ATOM      1  O   UNL     1      -2.105   2.054  25.216  0.00  0.00    -0.219 OA
ATOM      2  C   UNL     1      -2.313   1.943  24.425  0.00  0.00    +0.199 C 
ATOM      3  C   UNL     1      -1.934   1.444  23.889  0.00  0.00    +0.169 C 
ATOM     14  O   UNL     1      -2.323   1.505  23.165  0.00  0.00    -0.350 OA
ATOM     15  C   UNL     1      -2.943   2.041  23.253  0.00  0.00    +0.162 C 
ATOM     16  C   UNL     1      -2.938   2.312  24.031  0.00  0.00    +0.135 C 
ENDROOT
BRANCH   3   4
ATOM      4  C   UNL     1      -1.279   0.968  24.050  0.00  0.00    +0.149 C 
BRANCH   4   5
ATOM      5  N   UNL     1      -1.384   0.172  24.236  0.00  0.00    -0.186 NA
ATOM      6  C   UNL     1      -0.737  -0.288  24.463  0.00  0.00    +0.323 C 
ATOM      7  O   UNL     1       0.014   0.050  24.503  0.00  0.00    -0.251 OA
ATOM      8  N   UNL     1      -0.842  -1.085  24.649  0.00  0.00    -0.258 N 
ATOM      9  C   UNL     1      -0.196  -1.544  24.876  0.00  0.00    +0.127 C 
ATOM     10  C   UNL     1      -0.300  -2.341  25.062  0.00  0.00    +0.164 C 
ATOM     11  O   UNL     1      -1.052  -2.678  25.021  0.00  0.00    -0.350 OA
ATOM     12  C   UNL     1      -1.699  -2.219  24.794  0.00  0.00    +0.164 C 
ATOM     13  C   UNL     1      -1.594  -1.422  24.608  0.00  0.00    +0.127 C 
ENDBRANCH   4   5
ENDBRANCH   3   4
BRANCH  16  17
ATOM     17  N   UNL     1      -3.463   2.857  24.359  0.00  0.00    -0.209 NA
BRANCH  17  18
ATOM     18  C   UNL     1      -4.270   2.799  24.198  0.00  0.00    +0.115 C 
BRANCH  18  19
ATOM     19  C   UNL     1      -4.822   3.032  24.765  0.00  0.00    -0.002 A 
ATOM     20  C   UNL     1      -4.837   3.814  25.029  0.00  0.00    +0.018 A 
ATOM     21  C   UNL     1      -5.389   4.047  25.597  0.00  0.00    +0.099 A 
ATOM     22  N   UNL     1      -5.926   3.498  25.900  0.00  0.00    -0.242 NA
ATOM     23  C   UNL     1      -5.911   2.717  25.636  0.00  0.00    +0.099 A 
ATOM     24  C   UNL     1      -5.359   2.484  25.068  0.00  0.00    +0.018 A 
ENDBRANCH  18  19
ENDBRANCH  17  18
ENDBRANCH  16  17
TORSDOF 5
ENDMDL
