REMARK  Name = 
REMARK  7 active torsions:
REMARK  status: ('A' for Active; 'I' for Inactive)
REMARK    1  A    between atoms: O_2  and  C_3
REMARK    2  A    between atoms: C_8  and  C_9
REMARK    3  A    between atoms: C_9  and  N_10
REMARK    4  A    between atoms: C_11  and  C_17
REMARK    5  A    between atoms: C_17  and  C_19
REMARK    6  A    between atoms: C_22  and  N_23
REMARK    7  A    between atoms: C_24  and  C_26
REMARK                            x       y       z     vdW  Elec       q    Type
REMARK                         _______ _______ _______ _____ _____    ______ ____
ROOT
ATOM     17  C   UNL     1       4.287  -6.600   0.000  0.00  0.00    +0.195 C 
ATOM     18  O   UNL     1       3.572  -6.188   0.000  0.00  0.00    -0.216 OA
ENDROOT
BRANCH  17  11
ATOM     10  N   UNL     1       3.572  -7.838   0.000  0.00  0.00    -0.270 N 
ATOM     11  C   UNL     1       4.287  -7.425   0.000  0.00  0.00    +0.140 C 
ATOM     12  C   UNL     1       5.001  -7.838   0.000  0.00  0.00    +0.165 C 
ATOM     13  O   UNL     1       5.001  -8.662   0.000  0.00  0.00    -0.343 OA
ATOM     14  C   UNL     1       4.287  -9.075   0.000  0.00  0.00    +0.227 C 
ATOM     15  C   UNL     1       3.572  -8.662   0.000  0.00  0.00    +0.256 C 
ATOM     16  O   UNL     1       2.858  -9.075   0.000  0.00  0.00    -0.272 OA
BRANCH  10   9
ATOM      9  C   UNL     1       2.858  -7.425   0.000  0.00  0.00    +0.123 C 
BRANCH   9   8
ATOM      3  C   UNL     1       1.429  -7.425   0.000  0.00  0.00    +0.136 A 
ATOM      4  C   UNL     1       0.715  -7.838   0.000  0.00  0.00    +0.037 A 
ATOM      5  C   UNL     1       0.715  -8.662   0.000  0.00  0.00    +0.003 A 
ATOM      6  C   UNL     1       1.429  -9.075   0.000  0.00  0.00    -0.000 A 
ATOM      7  C   UNL     1       2.143  -8.662   0.000  0.00  0.00    +0.000 A 
ATOM      8  C   UNL     1       2.143  -7.838   0.000  0.00  0.00    +0.032 A 
BRANCH   3   2
ATOM      1  C   UNL     1       0.715  -6.188   0.000  0.00  0.00    +0.252 C 
ATOM      2  O   UNL     1       1.429  -6.600   0.000  0.00  0.00    -0.472 OA
ENDBRANCH   3   2
ENDBRANCH   9   8
ENDBRANCH  10   9
ENDBRANCH  17  11
BRANCH  17  19
ATOM     19  C   UNL     1       5.001  -6.188   0.000  0.00  0.00    +0.010 A 
ATOM     20  C   UNL     1       5.001  -5.362   0.000  0.00  0.00    -0.000 A 
ATOM     21  C   UNL     1       5.716  -4.950   0.000  0.00  0.00    +0.016 A 
ATOM     22  C   UNL     1       6.430  -5.362   0.000  0.00  0.00    +0.074 A 
ATOM     32  C   UNL     1       6.430  -6.188   0.000  0.00  0.00    +0.016 A 
ATOM     33  C   UNL     1       5.716  -6.600   0.000  0.00  0.00    -0.000 A 
BRANCH  22  23
ATOM     23  N   UNL     1       7.145  -4.950   0.000  0.00  0.00    -0.174 NA
ATOM     24  C   UNL     1       7.145  -4.125   0.000  0.00  0.00    +0.288 C 
ATOM     25  O   UNL     1       6.430  -3.712   0.000  0.00  0.00    -0.266 OA
BRANCH  24  26
ATOM     26  C   UNL     1       7.859  -3.712   0.000  0.00  0.00    +0.156 A 
ATOM     27  C   UNL     1       7.859  -2.888   0.000  0.00  0.00    +0.123 A 
ATOM     28  N   UNL     1       8.574  -2.475   0.000  0.00  0.00    -0.239 NA
ATOM     29  C   UNL     1       9.288  -2.888   0.000  0.00  0.00    +0.120 A 
ATOM     30  C   UNL     1       9.288  -3.712   0.000  0.00  0.00    +0.120 A 
ATOM     31  N   UNL     1       8.574  -4.125   0.000  0.00  0.00    -0.236 NA
ENDBRANCH  24  26
ENDBRANCH  22  23
ENDBRANCH  17  19
TORSDOF 7
