REMARK  Name = 
REMARK  3 active torsions:
REMARK  status: ('A' for Active; 'I' for Inactive)
REMARK    1  A    between atoms: O_2  and  C_3
REMARK    2  A    between atoms: C_6  and  C_7
REMARK    3  A    between atoms: C_7  and  N_8
REMARK                            x       y       z     vdW  Elec       q    Type
REMARK                         _______ _______ _______ _____ _____    ______ ____
ROOT
ATOM      7  C   UNL     1       1.671  -4.091   0.000  0.00  0.00    +0.099 C 
ENDROOT
BRANCH   7   8
ATOM      8  N   UNL     1       0.957  -4.503   0.000  0.00  0.00    -0.265 NA
ATOM      9  C   UNL     1       1.018  -5.326   0.000  0.00  0.00    +0.105 C 
ATOM     10  C   UNL     1       0.413  -5.887   0.000  0.00  0.00    +0.160 C 
ATOM     11  O   UNL     1      -0.402  -5.764   0.000  0.00  0.00    -0.350 OA
ATOM     12  C   UNL     1      -0.815  -5.050   0.000  0.00  0.00    +0.176 C 
ATOM     13  C   UNL     1      -0.513  -4.282   0.000  0.00  0.00    +0.197 C 
ATOM     14  O   UNL     1      -1.075  -3.677   0.000  0.00  0.00    -0.219 OA
ATOM     15  C   UNL     1       0.275  -4.039   0.000  0.00  0.00    +0.108 C 
ENDBRANCH   7   8
BRANCH   7   6
ATOM      3  C   UNL     1       1.671  -1.616   0.000  0.00  0.00    +0.139 A 
ATOM      4  C   UNL     1       2.385  -2.029   0.000  0.00  0.00    +0.037 A 
ATOM      5  C   UNL     1       2.385  -2.853   0.000  0.00  0.00    +0.000 A 
ATOM      6  C   UNL     1       1.671  -3.266   0.000  0.00  0.00    -0.006 A 
ATOM     16  C   UNL     1       0.957  -2.853   0.000  0.00  0.00    +0.000 A 
ATOM     17  C   UNL     1       0.957  -2.029   0.000  0.00  0.00    +0.037 A 
BRANCH   3   2
ATOM      1  C   UNL     1       0.957  -0.379   0.000  0.00  0.00    +0.252 C 
ATOM      2  O   UNL     1       1.671  -0.791   0.000  0.00  0.00    -0.471 OA
ENDBRANCH   3   2
ENDBRANCH   7   6
TORSDOF 3
