REMARK  Name = 
REMARK  6 active torsions:
REMARK  status: ('A' for Active; 'I' for Inactive)
REMARK    1  A    between atoms: C_2  and  C_5
REMARK    2  A    between atoms: C_12  and  C_13
REMARK    3  A    between atoms: C_13  and  C_14
REMARK    4  A    between atoms: N_16  and  S_24
REMARK    5  A    between atoms: C_19  and  C_20
REMARK    6  A    between atoms: C_20  and  C_21
REMARK                            x       y       z     vdW  Elec       q    Type
REMARK                         _______ _______ _______ _____ _____    ______ ____
ROOT
ATOM     13  C   UNL     1       1.429  -2.475   0.000  0.00  0.00    +0.047 C 
ENDROOT
BRANCH  13  12
ATOM      5  C   UNL     1      -0.715  -1.238   0.000  0.00  0.00    -0.023 A 
ATOM      6  C   UNL     1       0.000  -1.650   0.000  0.00  0.00    -0.003 A 
ATOM      7  C   UNL     1       0.715  -1.238   0.000  0.00  0.00    +0.009 A 
ATOM      8  C   UNL     1       0.715  -0.412   0.000  0.00  0.00    -0.019 A 
ATOM      9  C   UNL     1       1.429   0.000   0.000  0.00  0.00    +0.053 C 
ATOM     10  C   UNL     1       2.143  -0.412   0.000  0.00  0.00    +0.130 C 
ATOM     11  N   UNL     1       2.143  -1.238   0.000  0.00  0.00    -0.274 NA
ATOM     12  C   UNL     1       1.429  -1.650   0.000  0.00  0.00    +0.053 C 
ATOM     28  C   UNL     1       0.000   0.000   0.000  0.00  0.00    -0.004 A 
ATOM     29  C   UNL     1      -0.715  -0.412   0.000  0.00  0.00    -0.005 A 
BRANCH   5   2
ATOM      1  C   UNL     1      -2.143  -2.062   0.000  0.00  0.00    +0.004 C 
ATOM      2  C   UNL     1      -1.429  -1.650   0.000  0.00  0.00    +0.019 C 
ATOM      3  C   UNL     1      -1.016  -2.365   0.000  0.00  0.00    +0.004 C 
ATOM      4  C   UNL     1      -1.841  -0.935   0.000  0.00  0.00    +0.004 C 
ENDBRANCH   5   2
ENDBRANCH  13  12
BRANCH  13  14
ATOM     14  C   UNL     1       2.143  -2.888   0.000  0.00  0.00    +0.024 C 
ATOM     15  C   UNL     1       2.858  -2.475   0.000  0.00  0.00    +0.096 C 
ATOM     16  N   UNL     1       3.572  -2.888   0.000  0.00  0.00    -0.159 NA
ATOM     17  C   UNL     1       3.572  -3.712   0.000  0.00  0.00    +0.095 C 
ATOM     18  C   UNL     1       2.858  -4.125   0.000  0.00  0.00    +0.020 C 
ATOM     19  C   UNL     1       2.143  -3.712   0.000  0.00  0.00    +0.014 C 
BRANCH  16  24
ATOM     24  S   UNL     1       4.287  -2.475   0.000  0.00  0.00    +0.046 S 
ATOM     25  C   UNL     1       5.001  -2.062   0.000  0.00  0.00    +0.196 C 
ATOM     26  O   UNL     1       4.699  -3.189   0.000  0.00  0.00    -0.157 OA
ATOM     27  O   UNL     1       3.874  -1.760   0.000  0.00  0.00    -0.157 OA
ENDBRANCH  16  24
BRANCH  19  20
ATOM     20  C   UNL     1       1.429  -4.125   0.000  0.00  0.00    +0.114 C 
BRANCH  20  21
ATOM     21  C   UNL     1       0.715  -3.712   0.000  0.00  0.00    +0.365 C 
ATOM     22  O   UNL     1       0.000  -4.125   0.000  0.00  0.00    -0.246 OA
ATOM     23  O   UNL     1       0.715  -2.888   0.000  0.00  0.00    -0.246 OA
ENDBRANCH  20  21
ENDBRANCH  19  20
ENDBRANCH  13  14
TORSDOF 6
