MODEL 1
REMARK VINA RESULT:     -12.1      0.000      0.000
REMARK  Name = 
REMARK  7 active torsions:
REMARK  status: ('A' for Active; 'I' for Inactive)
REMARK    1  A    between atoms: O_2  and  C_3
REMARK    2  A    between atoms: C_6  and  C_9
REMARK    3  A    between atoms: C_11  and  C_12
REMARK    4  A    between atoms: C_12  and  C_13
REMARK    5  A    between atoms: C_18  and  C_19
REMARK    6  A    between atoms: C_19  and  N_20
REMARK    7  A    between atoms: N_20  and  C_21
REMARK                            x       y       z     vdW  Elec       q    Type
REMARK                         _______ _______ _______ _____ _____    ______ ____
ROOT
ATOM     13  C   UNL     1      -4.612   3.194  25.162  0.00  0.00    +0.121 C 
ATOM     14  C   UNL     1      -5.279   3.468  25.564  0.00  0.00    +0.033 C 
ATOM     15  C   UNL     1      -5.850   2.933  25.827  0.00  0.00    +0.038 C 
ATOM     16  C   UNL     1      -5.755   2.126  25.687  0.00  0.00    +0.180 C 
ATOM     17  O   UNL     1      -6.325   1.591  25.950  0.00  0.00    -0.220 OA
ATOM     18  C   UNL     1      -5.088   1.853  25.284  0.00  0.00    +0.163 C 
ATOM     30  O   UNL     1      -4.517   2.387  25.022  0.00  0.00    -0.354 OA
ENDROOT
BRANCH  13  12
ATOM     12  C   UNL     1      -4.041   3.729  24.899  0.00  0.00    +0.079 C 
BRANCH  12  11
ATOM      9  C   UNL     1      -1.976   3.321  25.250  0.00  0.00    +0.177 A 
ATOM     10  C   UNL     1      -2.661   3.231  24.801  0.00  0.00    +0.058 A 
ATOM     11  C   UNL     1      -3.263   3.665  25.164  0.00  0.00    +0.103 A 
ATOM     31  N   UNL     1      -2.948   4.023  25.837  0.00  0.00    -0.081 NA
ATOM     32  O   UNL     1      -2.153   3.810  25.891  0.00  0.00    -0.354 OA
BRANCH   9   6
ATOM      3  C   UNL     1       0.227   2.302  24.763  0.00  0.00    +0.139 A 
ATOM      4  C   UNL     1      -0.028   2.959  24.334  0.00  0.00    +0.037 A 
ATOM      5  C   UNL     1      -0.762   3.298  24.496  0.00  0.00    +0.006 A 
ATOM      6  C   UNL     1      -1.241   2.981  25.088  0.00  0.00    +0.037 A 
ATOM      7  C   UNL     1      -0.986   2.324  25.518  0.00  0.00    +0.006 A 
ATOM      8  C   UNL     1      -0.253   1.985  25.356  0.00  0.00    +0.037 A 
BRANCH   3   2
ATOM      1  C   UNL     1       1.040   1.432  23.974  0.00  0.00    +0.252 C 
ATOM      2  O   UNL     1       0.961   1.962  24.601  0.00  0.00    -0.471 OA
ENDBRANCH   3   2
ENDBRANCH   9   6
ENDBRANCH  12  11
ENDBRANCH  13  12
BRANCH  18  19
ATOM     19  C   UNL     1      -4.993   1.045  25.145  0.00  0.00    +0.121 C 
BRANCH  19  20
ATOM     20  N   UNL     1      -4.315   0.769  24.763  0.00  0.00    -0.217 NA
BRANCH  20  21
ATOM     21  C   UNL     1      -4.151  -0.039  24.749  0.00  0.00    +0.076 C 
ATOM     22  C   UNL     1      -4.332  -0.484  24.078  0.00  0.00    +0.039 C 
ATOM     23  C   UNL     1      -4.168  -1.293  24.063  0.00  0.00    +0.095 C 
ATOM     24  N   UNL     1      -3.824  -1.657  24.719  0.00  0.00    -0.279 N 
ATOM     25  C   UNL     1      -3.644  -1.212  25.390  0.00  0.00    +0.095 C 
ATOM     26  C   UNL     1      -3.808  -0.403  25.404  0.00  0.00    +0.039 C 
ATOM     27  C   UNL     1      -3.661  -2.465  24.704  0.00  0.00    +0.226 C 
ATOM     28  C   UNL     1      -3.841  -2.910  24.033  0.00  0.00    +0.095 C 
ATOM     29  O   UNL     1      -3.317  -2.829  25.360  0.00  0.00    -0.275 OA
ENDBRANCH  20  21
ENDBRANCH  19  20
ENDBRANCH  18  19
TORSDOF 7
ENDMDL
MODEL 2
REMARK VINA RESULT:     -11.6      1.324      4.021
REMARK  Name = 
REMARK  7 active torsions:
REMARK  status: ('A' for Active; 'I' for Inactive)
REMARK    1  A    between atoms: O_2  and  C_3
REMARK    2  A    between atoms: C_6  and  C_9
REMARK    3  A    between atoms: C_11  and  C_12
REMARK    4  A    between atoms: C_12  and  C_13
REMARK    5  A    between atoms: C_18  and  C_19
REMARK    6  A    between atoms: C_19  and  N_20
REMARK    7  A    between atoms: N_20  and  C_21
REMARK                            x       y       z     vdW  Elec       q    Type
REMARK                         _______ _______ _______ _____ _____    ______ ____
ROOT
ATOM     13  C   UNL     1      -0.026   1.874  24.979  0.00  0.00    +0.121 C 
ATOM     14  C   UNL     1       0.590   2.012  24.449  0.00  0.00    +0.033 C 
ATOM     15  C   UNL     1       0.778   1.446  23.878  0.00  0.00    +0.038 C 
ATOM     16  C   UNL     1       0.350   0.742  23.838  0.00  0.00    +0.180 C 
ATOM     17  O   UNL     1       0.538   0.177  23.269  0.00  0.00    -0.220 OA
ATOM     18  C   UNL     1      -0.267   0.604  24.369  0.00  0.00    +0.163 C 
ATOM     30  O   UNL     1      -0.454   1.170  24.939  0.00  0.00    -0.354 OA
ENDROOT
BRANCH  13  12
ATOM     12  C   UNL     1      -0.214   2.440  25.550  0.00  0.00    +0.079 C 
BRANCH  12  11
ATOM      9  C   UNL     1      -2.057   3.496  25.334  0.00  0.00    +0.177 A 
ATOM     10  C   UNL     1      -1.635   2.815  25.532  0.00  0.00    +0.058 A 
ATOM     11  C   UNL     1      -0.832   2.969  25.418  0.00  0.00    +0.103 A 
ATOM     31  N   UNL     1      -0.758   3.746  25.149  0.00  0.00    -0.081 NA
ATOM     32  O   UNL     1      -1.515   4.071  25.097  0.00  0.00    -0.354 OA
BRANCH   9   6
ATOM      3  C   UNL     1      -4.515   3.766  25.432  0.00  0.00    +0.139 A 
ATOM      4  C   UNL     1      -4.052   3.959  26.086  0.00  0.00    +0.037 A 
ATOM      5  C   UNL     1      -3.233   3.869  26.054  0.00  0.00    +0.006 A 
ATOM      6  C   UNL     1      -2.876   3.586  25.367  0.00  0.00    +0.037 A 
ATOM      7  C   UNL     1      -3.339   3.392  24.711  0.00  0.00    +0.006 A 
ATOM      8  C   UNL     1      -4.158   3.482  24.743  0.00  0.00    +0.037 A 
BRANCH   3   2
ATOM      1  C   UNL     1      -5.812   3.211  25.655  0.00  0.00    +0.252 C 
ATOM      2  O   UNL     1      -5.334   3.856  25.464  0.00  0.00    -0.471 OA
ENDBRANCH   3   2
ENDBRANCH   9   6
ENDBRANCH  12  11
ENDBRANCH  13  12
BRANCH  18  19
ATOM     19  C   UNL     1      -0.695  -0.099  24.330  0.00  0.00    +0.121 C 
BRANCH  19  20
ATOM     20  N   UNL     1      -1.262  -0.271  24.905  0.00  0.00    -0.217 NA
BRANCH  20  21
ATOM     21  C   UNL     1      -1.854  -0.824  24.747  0.00  0.00    +0.076 C 
ATOM     22  C   UNL     1      -2.595  -0.570  24.488  0.00  0.00    +0.039 C 
ATOM     23  C   UNL     1      -3.188  -1.122  24.331  0.00  0.00    +0.095 C 
ATOM     24  N   UNL     1      -3.039  -1.928  24.432  0.00  0.00    -0.279 N 
ATOM     25  C   UNL     1      -2.298  -2.181  24.690  0.00  0.00    +0.095 C 
ATOM     26  C   UNL     1      -1.705  -1.628  24.848  0.00  0.00    +0.039 C 
ATOM     27  C   UNL     1      -3.631  -2.479  24.274  0.00  0.00    +0.226 C 
ATOM     28  C   UNL     1      -4.373  -2.226  24.015  0.00  0.00    +0.095 C 
ATOM     29  O   UNL     1      -3.483  -3.285  24.374  0.00  0.00    -0.275 OA
ENDBRANCH  20  21
ENDBRANCH  19  20
ENDBRANCH  18  19
TORSDOF 7
ENDMDL
MODEL 3
REMARK VINA RESULT:     -11.5      1.525      4.391
REMARK  Name = 
REMARK  7 active torsions:
REMARK  status: ('A' for Active; 'I' for Inactive)
REMARK    1  A    between atoms: O_2  and  C_3
REMARK    2  A    between atoms: C_6  and  C_9
REMARK    3  A    between atoms: C_11  and  C_12
REMARK    4  A    between atoms: C_12  and  C_13
REMARK    5  A    between atoms: C_18  and  C_19
REMARK    6  A    between atoms: C_19  and  N_20
REMARK    7  A    between atoms: N_20  and  C_21
REMARK                            x       y       z     vdW  Elec       q    Type
REMARK                         _______ _______ _______ _____ _____    ______ ____
ROOT
ATOM     13  C   UNL     1      -0.625   2.935  25.536  0.00  0.00    +0.121 C 
ATOM     14  C   UNL     1      -0.146   3.559  25.288  0.00  0.00    +0.033 C 
ATOM     15  C   UNL     1      -0.484   4.289  25.102  0.00  0.00    +0.038 C 
ATOM     16  C   UNL     1      -1.300   4.395  25.165  0.00  0.00    +0.180 C 
ATOM     17  O   UNL     1      -1.637   5.124  24.980  0.00  0.00    -0.220 OA
ATOM     18  C   UNL     1      -1.778   3.769  25.414  0.00  0.00    +0.163 C 
ATOM     30  O   UNL     1      -1.440   3.040  25.599  0.00  0.00    -0.354 OA
ENDROOT
BRANCH  13  12
ATOM     12  C   UNL     1      -0.287   2.205  25.721  0.00  0.00    +0.079 C 
BRANCH  12  11
ATOM      9  C   UNL     1      -0.921   0.370  24.835  0.00  0.00    +0.177 A 
ATOM     10  C   UNL     1      -0.912   0.899  25.467  0.00  0.00    +0.058 A 
ATOM     11  C   UNL     1      -0.446   1.546  25.253  0.00  0.00    +0.103 A 
ATOM     31  N   UNL     1      -0.167   1.416  24.487  0.00  0.00    -0.081 NA
ATOM     32  O   UNL     1      -0.460   0.689  24.229  0.00  0.00    -0.354 OA
BRANCH   9   6
ATOM      3  C   UNL     1      -2.119  -1.795  24.765  0.00  0.00    +0.139 A 
ATOM      4  C   UNL     1      -2.544  -1.087  24.762  0.00  0.00    +0.037 A 
ATOM      5  C   UNL     1      -2.145  -0.367  24.785  0.00  0.00    +0.006 A 
ATOM      6  C   UNL     1      -1.320  -0.351  24.812  0.00  0.00    +0.037 A 
ATOM      7  C   UNL     1      -0.895  -1.059  24.816  0.00  0.00    +0.006 A 
ATOM      8  C   UNL     1      -1.294  -1.780  24.792  0.00  0.00    +0.037 A 
BRANCH   3   2
ATOM      1  C   UNL     1      -3.341  -2.534  24.810  0.00  0.00    +0.252 C 
ATOM      2  O   UNL     1      -2.519  -2.516  24.742  0.00  0.00    -0.471 OA
ENDBRANCH   3   2
ENDBRANCH   9   6
ENDBRANCH  12  11
ENDBRANCH  13  12
BRANCH  18  19
ATOM     19  C   UNL     1      -2.593   3.875  25.477  0.00  0.00    +0.121 C 
BRANCH  19  20
ATOM     20  N   UNL     1      -3.091   3.619  24.870  0.00  0.00    -0.217 NA
BRANCH  20  21
ATOM     21  C   UNL     1      -3.816   3.270  25.052  0.00  0.00    +0.076 C 
ATOM     22  C   UNL     1      -4.119   2.674  24.567  0.00  0.00    +0.039 C 
ATOM     23  C   UNL     1      -4.845   2.325  24.748  0.00  0.00    +0.095 C 
ATOM     24  N   UNL     1      -5.267   2.571  25.413  0.00  0.00    -0.279 N 
ATOM     25  C   UNL     1      -4.964   3.166  25.897  0.00  0.00    +0.095 C 
ATOM     26  C   UNL     1      -4.238   3.515  25.716  0.00  0.00    +0.039 C 
ATOM     27  C   UNL     1      -5.992   2.222  25.594  0.00  0.00    +0.226 C 
ATOM     28  C   UNL     1      -6.296   1.626  25.110  0.00  0.00    +0.095 C 
ATOM     29  O   UNL     1      -6.414   2.467  26.259  0.00  0.00    -0.275 OA
ENDBRANCH  20  21
ENDBRANCH  19  20
ENDBRANCH  18  19
TORSDOF 7
ENDMDL
MODEL 4
REMARK VINA RESULT:     -11.4      1.271      4.448
REMARK  Name = 
REMARK  7 active torsions:
REMARK  status: ('A' for Active; 'I' for Inactive)
REMARK    1  A    between atoms: O_2  and  C_3
REMARK    2  A    between atoms: C_6  and  C_9
REMARK    3  A    between atoms: C_11  and  C_12
REMARK    4  A    between atoms: C_12  and  C_13
REMARK    5  A    between atoms: C_18  and  C_19
REMARK    6  A    between atoms: C_19  and  N_20
REMARK    7  A    between atoms: N_20  and  C_21
REMARK                            x       y       z     vdW  Elec       q    Type
REMARK                         _______ _______ _______ _____ _____    ______ ____
ROOT
ATOM     13  C   UNL     1      -3.940   2.906  24.835  0.00  0.00    +0.121 C 
ATOM     14  C   UNL     1      -4.158   3.558  25.291  0.00  0.00    +0.033 C 
ATOM     15  C   UNL     1      -3.577   4.048  25.612  0.00  0.00    +0.038 C 
ATOM     16  C   UNL     1      -2.779   3.887  25.477  0.00  0.00    +0.180 C 
ATOM     17  O   UNL     1      -2.199   4.376  25.798  0.00  0.00    -0.220 OA
ATOM     18  C   UNL     1      -2.563   3.234  25.020  0.00  0.00    +0.163 C 
ATOM     30  O   UNL     1      -3.143   2.744  24.700  0.00  0.00    -0.354 OA
ENDROOT
BRANCH  13  12
ATOM     12  C   UNL     1      -4.522   2.416  24.513  0.00  0.00    +0.079 C 
BRANCH  12  11
ATOM      9  C   UNL     1      -4.462   0.325  24.939  0.00  0.00    +0.177 A 
ATOM     10  C   UNL     1      -4.206   0.980  24.509  0.00  0.00    +0.058 A 
ATOM     11  C   UNL     1      -4.609   1.643  24.789  0.00  0.00    +0.103 A 
ATOM     31  N   UNL     1      -5.115   1.398  25.393  0.00  0.00    -0.081 NA
ATOM     32  O   UNL     1      -5.024   0.583  25.486  0.00  0.00    -0.354 OA
BRANCH   9   6
ATOM      3  C   UNL     1      -3.684  -2.006  24.645  0.00  0.00    +0.139 A 
ATOM      4  C   UNL     1      -3.507  -1.596  25.338  0.00  0.00    +0.037 A 
ATOM      5  C   UNL     1      -3.766  -0.820  25.437  0.00  0.00    +0.006 A 
ATOM      6  C   UNL     1      -4.203  -0.452  24.841  0.00  0.00    +0.037 A 
ATOM      7  C   UNL     1      -4.380  -0.862  24.147  0.00  0.00    +0.006 A 
ATOM      8  C   UNL     1      -4.121  -1.638  24.049  0.00  0.00    +0.037 A 
BRANCH   3   2
ATOM      1  C   UNL     1      -2.640  -2.932  24.338  0.00  0.00    +0.252 C 
ATOM      2  O   UNL     1      -3.424  -2.783  24.546  0.00  0.00    -0.471 OA
ENDBRANCH   3   2
ENDBRANCH   9   6
ENDBRANCH  12  11
ENDBRANCH  13  12
BRANCH  18  19
ATOM     19  C   UNL     1      -1.765   3.072  24.885  0.00  0.00    +0.121 C 
BRANCH  19  20
ATOM     20  N   UNL     1      -1.427   2.382  25.187  0.00  0.00    -0.217 NA
BRANCH  20  21
ATOM     21  C   UNL     1      -0.794   2.029  24.794  0.00  0.00    +0.076 C 
ATOM     22  C   UNL     1      -0.896   1.299  24.422  0.00  0.00    +0.039 C 
ATOM     23  C   UNL     1      -0.263   0.944  24.029  0.00  0.00    +0.095 C 
ATOM     24  N   UNL     1       0.472   1.319  24.007  0.00  0.00    -0.279 N 
ATOM     25  C   UNL     1       0.573   2.048  24.378  0.00  0.00    +0.095 C 
ATOM     26  C   UNL     1      -0.060   2.403  24.772  0.00  0.00    +0.039 C 
ATOM     27  C   UNL     1       1.104   0.965  23.614  0.00  0.00    +0.226 C 
ATOM     28  C   UNL     1       1.002   0.235  23.242  0.00  0.00    +0.095 C 
ATOM     29  O   UNL     1       1.839   1.339  23.592  0.00  0.00    -0.275 OA
ENDBRANCH  20  21
ENDBRANCH  19  20
ENDBRANCH  18  19
TORSDOF 7
ENDMDL
MODEL 5
REMARK VINA RESULT:     -11.3      1.437      3.924
REMARK  Name = 
REMARK  7 active torsions:
REMARK  status: ('A' for Active; 'I' for Inactive)
REMARK    1  A    between atoms: O_2  and  C_3
REMARK    2  A    between atoms: C_6  and  C_9
REMARK    3  A    between atoms: C_11  and  C_12
REMARK    4  A    between atoms: C_12  and  C_13
REMARK    5  A    between atoms: C_18  and  C_19
REMARK    6  A    between atoms: C_19  and  N_20
REMARK    7  A    between atoms: N_20  and  C_21
REMARK                            x       y       z     vdW  Elec       q    Type
REMARK                         _______ _______ _______ _____ _____    ______ ____
ROOT
ATOM     13  C   UNL     1      -2.158  -1.316  25.067  0.00  0.00    +0.121 C 
ATOM     14  C   UNL     1      -2.249  -2.042  24.684  0.00  0.00    +0.033 C 
ATOM     15  C   UNL     1      -2.981  -2.248  24.363  0.00  0.00    +0.038 C 
ATOM     16  C   UNL     1      -3.620  -1.731  24.424  0.00  0.00    +0.180 C 
ATOM     17  O   UNL     1      -4.350  -1.937  24.103  0.00  0.00    -0.220 OA
ATOM     18  C   UNL     1      -3.527  -1.005  24.807  0.00  0.00    +0.163 C 
ATOM     30  O   UNL     1      -2.797  -0.799  25.129  0.00  0.00    -0.354 OA
ENDROOT
BRANCH  13  12
ATOM     12  C   UNL     1      -1.426  -1.110  25.389  0.00  0.00    +0.079 C 
BRANCH  12  11
ATOM      9  C   UNL     1      -0.634   0.823  24.948  0.00  0.00    +0.177 A 
ATOM     10  C   UNL     1      -1.147   0.334  25.369  0.00  0.00    +0.058 A 
ATOM     11  C   UNL     1      -1.028  -0.442  25.113  0.00  0.00    +0.103 A 
ATOM     31  N   UNL     1      -0.440  -0.432  24.534  0.00  0.00    -0.081 NA
ATOM     32  O   UNL     1      -0.196   0.349  24.432  0.00  0.00    -0.354 OA
BRANCH   9   6
ATOM      3  C   UNL     1      -0.437   3.278  25.188  0.00  0.00    +0.139 A 
ATOM      4  C   UNL     1      -0.606   2.947  24.452  0.00  0.00    +0.037 A 
ATOM      5  C   UNL     1      -0.671   2.130  24.372  0.00  0.00    +0.006 A 
ATOM      6  C   UNL     1      -0.568   1.641  25.028  0.00  0.00    +0.037 A 
ATOM      7  C   UNL     1      -0.399   1.972  25.766  0.00  0.00    +0.006 A 
ATOM      8  C   UNL     1      -0.334   2.789  25.846  0.00  0.00    +0.037 A 
BRANCH   3   2
ATOM      1  C   UNL     1      -1.010   4.582  25.074  0.00  0.00    +0.252 C 
ATOM      2  O   UNL     1      -0.372   4.097  25.269  0.00  0.00    -0.471 OA
ENDBRANCH   3   2
ENDBRANCH   9   6
ENDBRANCH  12  11
ENDBRANCH  13  12
BRANCH  18  19
ATOM     19  C   UNL     1      -4.166  -0.488  24.869  0.00  0.00    +0.121 C 
BRANCH  19  20
ATOM     20  N   UNL     1      -4.212   0.173  24.376  0.00  0.00    -0.217 NA
BRANCH  20  21
ATOM     21  C   UNL     1      -4.506   0.886  24.669  0.00  0.00    +0.076 C 
ATOM     22  C   UNL     1      -4.191   1.601  24.401  0.00  0.00    +0.039 C 
ATOM     23  C   UNL     1      -4.484   2.315  24.694  0.00  0.00    +0.095 C 
ATOM     24  N   UNL     1      -5.091   2.313  25.254  0.00  0.00    -0.279 N 
ATOM     25  C   UNL     1      -5.404   1.599  25.520  0.00  0.00    +0.095 C 
ATOM     26  C   UNL     1      -5.111   0.885  25.228  0.00  0.00    +0.039 C 
ATOM     27  C   UNL     1      -5.384   3.027  25.546  0.00  0.00    +0.226 C 
ATOM     28  C   UNL     1      -5.070   3.742  25.279  0.00  0.00    +0.095 C 
ATOM     29  O   UNL     1      -5.990   3.027  26.105  0.00  0.00    -0.275 OA
ENDBRANCH  20  21
ENDBRANCH  19  20
ENDBRANCH  18  19
TORSDOF 7
ENDMDL
MODEL 6
REMARK VINA RESULT:     -11.3      1.733      5.484
REMARK  Name = 
REMARK  7 active torsions:
REMARK  status: ('A' for Active; 'I' for Inactive)
REMARK    1  A    between atoms: O_2  and  C_3
REMARK    2  A    between atoms: C_6  and  C_9
REMARK    3  A    between atoms: C_11  and  C_12
REMARK    4  A    between atoms: C_12  and  C_13
REMARK    5  A    between atoms: C_18  and  C_19
REMARK    6  A    between atoms: C_19  and  N_20
REMARK    7  A    between atoms: N_20  and  C_21
REMARK                            x       y       z     vdW  Elec       q    Type
REMARK                         _______ _______ _______ _____ _____    ______ ____
ROOT
ATOM     13  C   UNL     1      -2.192  -1.187  25.081  0.00  0.00    +0.121 C 
ATOM     14  C   UNL     1      -1.800  -1.872  24.839  0.00  0.00    +0.033 C 
ATOM     15  C   UNL     1      -1.031  -1.823  24.543  0.00  0.00    +0.038 C 
ATOM     16  C   UNL     1      -0.654  -1.092  24.489  0.00  0.00    +0.180 C 
ATOM     17  O   UNL     1       0.114  -1.043  24.194  0.00  0.00    -0.220 OA
ATOM     18  C   UNL     1      -1.047  -0.407  24.731  0.00  0.00    +0.163 C 
ATOM     30  O   UNL     1      -1.816  -0.455  25.027  0.00  0.00    -0.354 OA
ENDROOT
BRANCH  13  12
ATOM     12  C   UNL     1      -2.961  -1.236  25.376  0.00  0.00    +0.079 C 
BRANCH  12  11
ATOM      9  C   UNL     1      -4.374   0.287  24.886  0.00  0.00    +0.177 A 
ATOM     10  C   UNL     1      -3.757  -0.000  25.352  0.00  0.00    +0.058 A 
ATOM     11  C   UNL     1      -3.552  -0.749  25.071  0.00  0.00    +0.103 A 
ATOM     31  N   UNL     1      -4.043  -0.924  24.431  0.00  0.00    -0.081 NA
ATOM     32  O   UNL     1      -4.551  -0.284  24.316  0.00  0.00    -0.354 OA
BRANCH   9   6
ATOM      3  C   UNL     1      -5.498   2.477  25.148  0.00  0.00    +0.139 A 
ATOM      4  C   UNL     1      -4.853   2.402  24.639  0.00  0.00    +0.037 A 
ATOM      5  C   UNL     1      -4.479   1.673  24.551  0.00  0.00    +0.006 A 
ATOM      6  C   UNL     1      -4.749   1.017  24.973  0.00  0.00    +0.037 A 
ATOM      7  C   UNL     1      -5.394   1.092  25.483  0.00  0.00    +0.006 A 
ATOM      8  C   UNL     1      -5.768   1.821  25.570  0.00  0.00    +0.037 A 
BRANCH   3   2
ATOM      1  C   UNL     1      -5.461   3.845  25.557  0.00  0.00    +0.252 C 
ATOM      2  O   UNL     1      -5.872   3.207  25.235  0.00  0.00    -0.471 OA
ENDBRANCH   3   2
ENDBRANCH   9   6
ENDBRANCH  12  11
ENDBRANCH  13  12
BRANCH  18  19
ATOM     19  C   UNL     1      -0.671   0.325  24.678  0.00  0.00    +0.121 C 
BRANCH  19  20
ATOM     20  N   UNL     1      -0.672   0.838  25.324  0.00  0.00    -0.217 NA
BRANCH  20  21
ATOM     21  C   UNL     1      -0.699   1.654  25.201  0.00  0.00    +0.076 C 
ATOM     22  C   UNL     1      -1.123   2.134  25.722  0.00  0.00    +0.039 C 
ATOM     23  C   UNL     1      -1.150   2.950  25.600  0.00  0.00    +0.095 C 
ATOM     24  N   UNL     1      -0.753   3.285  24.958  0.00  0.00    -0.279 N 
ATOM     25  C   UNL     1      -0.329   2.805  24.439  0.00  0.00    +0.095 C 
ATOM     26  C   UNL     1      -0.302   1.989  24.561  0.00  0.00    +0.039 C 
ATOM     27  C   UNL     1      -0.780   4.100  24.837  0.00  0.00    +0.226 C 
ATOM     28  C   UNL     1      -1.204   4.582  25.357  0.00  0.00    +0.095 C 
ATOM     29  O   UNL     1      -0.384   4.436  24.196  0.00  0.00    -0.275 OA
ENDBRANCH  20  21
ENDBRANCH  19  20
ENDBRANCH  18  19
TORSDOF 7
ENDMDL
MODEL 7
REMARK VINA RESULT:      -8.1     15.738     18.956
REMARK  Name = 
REMARK  7 active torsions:
REMARK  status: ('A' for Active; 'I' for Inactive)
REMARK    1  A    between atoms: O_2  and  C_3
REMARK    2  A    between atoms: C_6  and  C_9
REMARK    3  A    between atoms: C_11  and  C_12
REMARK    4  A    between atoms: C_12  and  C_13
REMARK    5  A    between atoms: C_18  and  C_19
REMARK    6  A    between atoms: C_19  and  N_20
REMARK    7  A    between atoms: N_20  and  C_21
REMARK                            x       y       z     vdW  Elec       q    Type
REMARK                         _______ _______ _______ _____ _____    ______ ____
ROOT
ATOM     13  C   UNL     1      15.385   7.013  19.481  0.00  0.00    +0.121 C 
ATOM     14  C   UNL     1      16.113   6.837  19.828  0.00  0.00    +0.033 C 
ATOM     15  C   UNL     1      16.168   6.750  20.647  0.00  0.00    +0.038 C 
ATOM     16  C   UNL     1      15.497   6.839  21.118  0.00  0.00    +0.180 C 
ATOM     17  O   UNL     1      15.552   6.752  21.936  0.00  0.00    -0.220 OA
ATOM     18  C   UNL     1      14.769   7.015  20.770  0.00  0.00    +0.163 C 
ATOM     30  O   UNL     1      14.714   7.102  19.952  0.00  0.00    -0.354 OA
ENDROOT
BRANCH  13  12
ATOM     12  C   UNL     1      15.330   7.100  18.662  0.00  0.00    +0.079 C 
BRANCH  12  11
ATOM      9  C   UNL     1      13.940   8.390  17.681  0.00  0.00    +0.177 A 
ATOM     10  C   UNL     1      14.204   7.635  17.883  0.00  0.00    +0.058 A 
ATOM     11  C   UNL     1      14.885   7.716  18.342  0.00  0.00    +0.103 A 
ATOM     31  N   UNL     1      15.042   8.522  18.423  0.00  0.00    -0.081 NA
ATOM     32  O   UNL     1      14.458   8.939  18.015  0.00  0.00    -0.354 OA
BRANCH   9   6
ATOM      3  C   UNL     1      11.946   8.918  16.313  0.00  0.00    +0.139 A 
ATOM      4  C   UNL     1      12.699   8.961  15.980  0.00  0.00    +0.037 A 
ATOM      5  C   UNL     1      13.363   8.786  16.435  0.00  0.00    +0.006 A 
ATOM      6  C   UNL     1      13.275   8.566  17.225  0.00  0.00    +0.037 A 
ATOM      7  C   UNL     1      12.522   8.522  17.560  0.00  0.00    +0.006 A 
ATOM      8  C   UNL     1      11.858   8.697  17.104  0.00  0.00    +0.037 A 
BRANCH   3   2
ATOM      1  C   UNL     1      10.557   8.737  16.030  0.00  0.00    +0.252 C 
ATOM      2  O   UNL     1      11.281   9.094  15.858  0.00  0.00    -0.471 OA
ENDBRANCH   3   2
ENDBRANCH   9   6
ENDBRANCH  12  11
ENDBRANCH  13  12
BRANCH  18  19
ATOM     19  C   UNL     1      14.098   7.103  21.241  0.00  0.00    +0.121 C 
BRANCH  19  20
ATOM     20  N   UNL     1      13.352   6.925  20.936  0.00  0.00    -0.217 NA
BRANCH  20  21
ATOM     21  C   UNL     1      12.676   7.234  21.293  0.00  0.00    +0.076 C 
ATOM     22  C   UNL     1      12.605   8.049  21.403  0.00  0.00    +0.039 C 
ATOM     23  C   UNL     1      11.929   8.360  21.760  0.00  0.00    +0.095 C 
ATOM     24  N   UNL     1      11.325   7.855  22.008  0.00  0.00    -0.279 N 
ATOM     25  C   UNL     1      11.396   7.041  21.897  0.00  0.00    +0.095 C 
ATOM     26  C   UNL     1      12.072   6.731  21.540  0.00  0.00    +0.039 C 
ATOM     27  C   UNL     1      10.649   8.165  22.365  0.00  0.00    +0.226 C 
ATOM     28  C   UNL     1      10.577   8.980  22.475  0.00  0.00    +0.095 C 
ATOM     29  O   UNL     1      10.044   7.661  22.612  0.00  0.00    -0.275 OA
ENDBRANCH  20  21
ENDBRANCH  19  20
ENDBRANCH  18  19
TORSDOF 7
ENDMDL
