MODEL 1
REMARK VINA RESULT:      -8.5      0.000      0.000
REMARK  Name = 
REMARK  5 active torsions:
REMARK  status: ('A' for Active; 'I' for Inactive)
REMARK    1  A    between atoms: C_2  and  N_4
REMARK    2  A    between atoms: N_4  and  C_5
REMARK    3  A    between atoms: C_8  and  C_9
REMARK    4  A    between atoms: C_9  and  N_10
REMARK    5  A    between atoms: C_11  and  C_13
REMARK                            x       y       z     vdW  Elec       q    Type
REMARK                         _______ _______ _______ _____ _____    ______ ____
ROOT
ATOM      5  C   UNL     1      -3.755  -0.533  24.535  0.00  0.00    +0.135 C 
ATOM      6  C   UNL     1      -4.245  -0.579  25.198  0.00  0.00    +0.162 C 
ATOM      7  O   UNL     1      -4.474   0.188  25.399  0.00  0.00    -0.350 OA
ATOM      8  C   UNL     1      -4.127   0.707  24.860  0.00  0.00    +0.169 C 
ATOM     19  C   UNL     1      -3.682   0.261  24.326  0.00  0.00    +0.199 C 
ATOM     20  O   UNL     1      -3.242   0.558  23.694  0.00  0.00    -0.219 OA
ENDROOT
BRANCH   5   4
ATOM      4  N   UNL     1      -3.401  -1.171  24.149  0.00  0.00    -0.216 NA
BRANCH   4   2
ATOM      1  C   UNL     1      -3.311  -2.350  24.951  0.00  0.00    +0.019 C 
ATOM      2  C   UNL     1      -3.645  -1.941  24.317  0.00  0.00    +0.073 C 
ATOM      3  C   UNL     1      -4.222  -2.302  23.852  0.00  0.00    +0.019 C 
ENDBRANCH   4   2
ENDBRANCH   5   4
BRANCH   8   9
ATOM      9  C   UNL     1      -4.209   1.528  24.855  0.00  0.00    +0.148 C 
BRANCH   9  10
ATOM     10  N   UNL     1      -4.926   1.873  25.075  0.00  0.00    -0.199 NA
ATOM     11  C   UNL     1      -4.973   2.687  25.190  0.00  0.00    +0.265 C 
ATOM     12  O   UNL     1      -5.690   3.032  25.410  0.00  0.00    -0.268 OA
BRANCH  11  13
ATOM     13  C   UNL     1      -4.304   3.159  25.085  0.00  0.00    +0.058 A 
ATOM     14  C   UNL     1      -4.135   3.475  24.342  0.00  0.00    +0.025 A 
ATOM     15  C   UNL     1      -3.466   3.946  24.237  0.00  0.00    +0.099 A 
ATOM     16  N   UNL     1      -2.967   4.102  24.875  0.00  0.00    -0.242 NA
ATOM     17  C   UNL     1      -3.136   3.787  25.618  0.00  0.00    +0.099 A 
ATOM     18  C   UNL     1      -3.805   3.315  25.723  0.00  0.00    +0.025 A 
ENDBRANCH  11  13
ENDBRANCH   9  10
ENDBRANCH   8   9
TORSDOF 5
ENDMDL
MODEL 2
REMARK VINA RESULT:      -8.4      0.996      1.360
REMARK  Name = 
REMARK  5 active torsions:
REMARK  status: ('A' for Active; 'I' for Inactive)
REMARK    1  A    between atoms: C_2  and  N_4
REMARK    2  A    between atoms: N_4  and  C_5
REMARK    3  A    between atoms: C_8  and  C_9
REMARK    4  A    between atoms: C_9  and  N_10
REMARK    5  A    between atoms: C_11  and  C_13
REMARK                            x       y       z     vdW  Elec       q    Type
REMARK                         _______ _______ _______ _____ _____    ______ ____
ROOT
ATOM      5  C   UNL     1      -3.627  -0.654  24.727  0.00  0.00    +0.135 C 
ATOM      6  C   UNL     1      -3.023  -0.529  24.179  0.00  0.00    +0.162 C 
ATOM      7  O   UNL     1      -2.976   0.282  24.031  0.00  0.00    -0.350 OA
ATOM      8  C   UNL     1      -3.552   0.658  24.488  0.00  0.00    +0.169 C 
ATOM     19  C   UNL     1      -3.954   0.079  24.918  0.00  0.00    +0.199 C 
ATOM     20  O   UNL     1      -4.574   0.211  25.447  0.00  0.00    -0.219 OA
ENDROOT
BRANCH   5   4
ATOM      4  N   UNL     1      -3.863  -1.384  25.031  0.00  0.00    -0.216 NA
BRANCH   4   2
ATOM      1  C   UNL     1      -2.949  -2.476  24.908  0.00  0.00    +0.019 C 
ATOM      2  C   UNL     1      -3.628  -2.081  24.656  0.00  0.00    +0.073 C 
ATOM      3  C   UNL     1      -4.072  -2.383  24.031  0.00  0.00    +0.019 C 
ENDBRANCH   4   2
ENDBRANCH   5   4
BRANCH   8   9
ATOM      9  C   UNL     1      -3.699   1.469  24.511  0.00  0.00    +0.148 C 
BRANCH   9  10
ATOM     10  N   UNL     1      -3.722   1.905  23.811  0.00  0.00    -0.199 NA
ATOM     11  C   UNL     1      -3.759   2.727  23.839  0.00  0.00    +0.265 C 
ATOM     12  O   UNL     1      -3.782   3.163  23.138  0.00  0.00    -0.268 OA
BRANCH  11  13
ATOM     13  C   UNL     1      -3.774   3.116  24.566  0.00  0.00    +0.058 A 
ATOM     14  C   UNL     1      -4.496   3.291  24.926  0.00  0.00    +0.025 A 
ATOM     15  C   UNL     1      -4.511   3.680  25.653  0.00  0.00    +0.099 A 
ATOM     16  N   UNL     1      -3.804   3.893  26.021  0.00  0.00    -0.242 NA
ATOM     17  C   UNL     1      -3.083   3.718  25.662  0.00  0.00    +0.099 A 
ATOM     18  C   UNL     1      -3.067   3.329  24.934  0.00  0.00    +0.025 A 
ENDBRANCH  11  13
ENDBRANCH   9  10
ENDBRANCH   8   9
TORSDOF 5
ENDMDL
MODEL 3
REMARK VINA RESULT:      -8.0      2.407      2.949
REMARK  Name = 
REMARK  5 active torsions:
REMARK  status: ('A' for Active; 'I' for Inactive)
REMARK    1  A    between atoms: C_2  and  N_4
REMARK    2  A    between atoms: N_4  and  C_5
REMARK    3  A    between atoms: C_8  and  C_9
REMARK    4  A    between atoms: C_9  and  N_10
REMARK    5  A    between atoms: C_11  and  C_13
REMARK                            x       y       z     vdW  Elec       q    Type
REMARK                         _______ _______ _______ _____ _____    ______ ____
ROOT
ATOM      5  C   UNL     1      -2.105  -0.445  24.918  0.00  0.00    +0.135 C 
ATOM      6  C   UNL     1      -1.642  -0.654  25.569  0.00  0.00    +0.162 C 
ATOM      7  O   UNL     1      -1.229   0.018  25.813  0.00  0.00    -0.350 OA
ATOM      8  C   UNL     1      -1.436   0.640  25.313  0.00  0.00    +0.169 C 
ATOM     19  C   UNL     1      -1.977   0.354  24.760  0.00  0.00    +0.199 C 
ATOM     20  O   UNL     1      -2.329   0.791  24.154  0.00  0.00    -0.219 OA
ENDROOT
BRANCH   5   4
ATOM      4  N   UNL     1      -2.607  -0.949  24.499  0.00  0.00    -0.216 NA
BRANCH   4   2
ATOM      1  C   UNL     1      -2.291  -2.341  24.549  0.00  0.00    +0.019 C 
ATOM      2  C   UNL     1      -2.763  -1.707  24.785  0.00  0.00    +0.073 C 
ATOM      3  C   UNL     1      -3.389  -1.831  25.307  0.00  0.00    +0.019 C 
ENDBRANCH   4   2
ENDBRANCH   5   4
BRANCH   8   9
ATOM      9  C   UNL     1      -1.152   1.413  25.357  0.00  0.00    +0.148 C 
BRANCH   9  10
ATOM     10  N   UNL     1      -0.458   1.575  25.775  0.00  0.00    -0.199 NA
ATOM     11  C   UNL     1      -0.224   2.356  25.898  0.00  0.00    +0.265 C 
ATOM     12  O   UNL     1       0.469   2.518  26.316  0.00  0.00    -0.268 OA
BRANCH  11  13
ATOM     13  C   UNL     1      -0.683   2.976  25.605  0.00  0.00    +0.058 A 
ATOM     14  C   UNL     1      -0.497   3.317  24.877  0.00  0.00    +0.025 A 
ATOM     15  C   UNL     1      -0.956   3.937  24.584  0.00  0.00    +0.099 A 
ATOM     16  N   UNL     1      -1.599   4.216  25.018  0.00  0.00    -0.242 NA
ATOM     17  C   UNL     1      -1.784   3.875  25.746  0.00  0.00    +0.099 A 
ATOM     18  C   UNL     1      -1.326   3.255  26.040  0.00  0.00    +0.025 A 
ENDBRANCH  11  13
ENDBRANCH   9  10
ENDBRANCH   8   9
TORSDOF 5
ENDMDL
