REMARK  Name = 
REMARK  10 active torsions:
REMARK  status: ('A' for Active; 'I' for Inactive)
REMARK    1  A    between atoms: C_2  and  C_3
REMARK    2  A    between atoms: C_3  and  C_4
REMARK    3  A    between atoms: C_4  and  C_5
REMARK    4  A    between atoms: C_7  and  C_8
REMARK    5  A    between atoms: C_8  and  C_9
REMARK    6  A    between atoms: C_14  and  C_15
REMARK    7  A    between atoms: C_15  and  C_16
REMARK    8  A    between atoms: N_18  and  C_19
REMARK    9  A    between atoms: C_19  and  C_20
REMARK   10  A    between atoms: C_20  and  N_21
REMARK                            x       y       z     vdW  Elec       q    Type
REMARK                         _______ _______ _______ _____ _____    ______ ____
ROOT
ATOM      9  C   UNL     1       0.715  -0.412   0.000  0.00  0.00    +0.024 C 
ATOM     10  C   UNL     1       0.000   0.000   0.000  0.00  0.00    +0.089 C 
ATOM     11  N   UNL     1       0.000   0.825   0.000  0.00  0.00    -0.218 NA
ATOM     12  C   UNL     1       0.715   1.238   0.000  0.00  0.00    +0.089 C 
ATOM     13  C   UNL     1       1.429   0.825   0.000  0.00  0.00    +0.019 C 
ATOM     14  C   UNL     1       1.429   0.000   0.000  0.00  0.00    +0.012 C 
ENDROOT
BRANCH   9   8
ATOM      8  C   UNL     1       0.715  -1.238   0.000  0.00  0.00    +0.051 C 
BRANCH   8   7
ATOM      5  C   UNL     1      -1.306  -1.927   0.000  0.00  0.00    +0.154 A 
ATOM      6  C   UNL     1      -0.754  -1.314   0.000  0.00  0.00    +0.054 A 
ATOM      7  C   UNL     1       0.000  -1.650   0.000  0.00  0.00    +0.100 A 
ATOM     25  N   UNL     1      -0.086  -2.470   0.000  0.00  0.00    -0.082 NA
ATOM     26  O   UNL     1      -0.893  -2.642   0.000  0.00  0.00    -0.358 OA
BRANCH   5   4
ATOM      4  C   UNL     1      -2.126  -1.841   0.000  0.00  0.00    +0.067 C 
BRANCH   4   3
ATOM      3  C   UNL     1      -2.611  -2.509   0.000  0.00  0.00    +0.008 C 
BRANCH   3   2
ATOM      1  C   UNL     1      -3.917  -3.090   0.000  0.00  0.00    +0.000 C 
ATOM      2  C   UNL     1      -3.432  -2.422   0.000  0.00  0.00    +0.000 C 
ENDBRANCH   3   2
ENDBRANCH   4   3
ENDBRANCH   5   4
ENDBRANCH   8   7
ENDBRANCH   9   8
BRANCH  14  15
ATOM     15  C   UNL     1       2.143  -0.412   0.000  0.00  0.00    +0.087 C 
BRANCH  15  16
ATOM     16  C   UNL     1       2.858   0.000   0.000  0.00  0.00    +0.241 C 
ATOM     17  O   UNL     1       2.858   0.825   0.000  0.00  0.00    -0.273 OA
ATOM     18  N   UNL     1       3.572  -0.412   0.000  0.00  0.00    -0.204 NA
BRANCH  18  19
ATOM     19  C   UNL     1       4.287   0.000   0.000  0.00  0.00    +0.138 C 
BRANCH  19  20
ATOM     20  C   UNL     1       5.001  -0.412   0.000  0.00  0.00    +0.138 C 
BRANCH  20  21
ATOM     21  N   UNL     1       5.716   0.000   0.000  0.00  0.00    -0.204 NA
ATOM     22  C   UNL     1       6.430  -0.412   0.000  0.00  0.00    +0.242 C 
ATOM     23  C   UNL     1       7.145   0.000   0.000  0.00  0.00    +0.096 C 
ATOM     24  O   UNL     1       6.430  -1.238   0.000  0.00  0.00    -0.273 OA
ENDBRANCH  20  21
ENDBRANCH  19  20
ENDBRANCH  18  19
ENDBRANCH  15  16
ENDBRANCH  14  15
TORSDOF 10
