MODEL 1
REMARK VINA RESULT:     -11.3      0.000      0.000
REMARK  Name = 
REMARK  8 active torsions:
REMARK  status: ('A' for Active; 'I' for Inactive)
REMARK    1  A    between atoms: O_2  and  C_3
REMARK    2  A    between atoms: C_8  and  N_9
REMARK    3  A    between atoms: C_15  and  C_17
REMARK    4  A    between atoms: C_17  and  C_18
REMARK    5  A    between atoms: C_23  and  C_24
REMARK    6  A    between atoms: C_24  and  C_25
REMARK    7  A    between atoms: C_28  and  C_29
REMARK    8  A    between atoms: C_29  and  N_30
REMARK                            x       y       z     vdW  Elec       q    Type
REMARK                         _______ _______ _______ _____ _____    ______ ____
ROOT
ATOM     18  C   UNL     1      -0.877   3.615  25.184  0.00  0.00    +0.012 C 
ATOM     19  C   UNL     1      -0.336   4.022  24.712  0.00  0.00    +0.019 C 
ATOM     20  C   UNL     1      -0.439   4.829  24.569  0.00  0.00    +0.089 C 
ATOM     21  N   UNL     1      -1.082   5.227  24.897  0.00  0.00    -0.218 NA
ATOM     22  C   UNL     1      -1.623   4.819  25.369  0.00  0.00    +0.089 C 
ATOM     23  C   UNL     1      -1.520   4.014  25.513  0.00  0.00    +0.024 C 
ENDROOT
BRANCH  18  17
ATOM     17  C   UNL     1      -0.774   2.809  25.328  0.00  0.00    +0.085 C 
BRANCH  17  15
ATOM      9  N   UNL     1      -0.906  -0.119  24.823  0.00  0.00    -0.302 N 
ATOM     10  C   UNL     1      -0.475   0.201  24.197  0.00  0.00    +0.112 C 
ATOM     11  C   UNL     1      -0.335   1.014  24.166  0.00  0.00    +0.115 C 
ATOM     12  N   UNL     1      -0.624   1.506  24.762  0.00  0.00    -0.276 N 
ATOM     13  C   UNL     1      -1.055   1.184  25.388  0.00  0.00    +0.115 C 
ATOM     14  C   UNL     1      -1.196   0.372  25.419  0.00  0.00    +0.112 C 
ATOM     15  C   UNL     1      -0.484   2.317  24.732  0.00  0.00    +0.226 C 
ATOM     16  O   UNL     1      -0.053   2.639  24.105  0.00  0.00    -0.275 OA
BRANCH   9   8
ATOM      3  C   UNL     1      -1.783  -1.231  24.631  0.00  0.00    +0.152 A 
ATOM      4  C   UNL     1      -1.923  -2.044  24.662  0.00  0.00    +0.038 A 
ATOM      5  C   UNL     1      -1.328  -2.557  24.914  0.00  0.00    +0.003 A 
ATOM      6  C   UNL     1      -0.592  -2.256  25.136  0.00  0.00    +0.001 A 
ATOM      7  C   UNL     1      -0.452  -1.445  25.106  0.00  0.00    +0.018 A 
ATOM      8  C   UNL     1      -1.047  -0.932  24.853  0.00  0.00    +0.082 A 
BRANCH   3   2
ATOM      1  C   UNL     1      -3.127  -1.014  24.199  0.00  0.00    +0.253 C 
ATOM      2  O   UNL     1      -2.378  -0.718  24.379  0.00  0.00    -0.470 OA
ENDBRANCH   3   2
ENDBRANCH   9   8
ENDBRANCH  17  15
ENDBRANCH  18  17
BRANCH  23  24
ATOM     24  C   UNL     1      -2.060   3.606  25.985  0.00  0.00    +0.051 C 
BRANCH  24  25
ATOM     25  C   UNL     1      -2.864   3.787  25.942  0.00  0.00    +0.100 A 
ATOM     26  N   UNL     1      -3.272   4.302  26.441  0.00  0.00    -0.082 NA
ATOM     27  O   UNL     1      -4.061   4.319  26.200  0.00  0.00    -0.357 OA
ATOM     28  C   UNL     1      -4.140   3.814  25.552  0.00  0.00    +0.170 A 
ATOM     36  C   UNL     1      -3.400   3.486  25.392  0.00  0.00    +0.055 A 
BRANCH  28  29
ATOM     29  C   UNL     1      -4.837   3.664  25.136  0.00  0.00    +0.141 C 
BRANCH  29  30
ATOM     30  N   UNL     1      -5.244   2.957  25.255  0.00  0.00    -0.262 NA
ATOM     31  C   UNL     1      -5.745   2.874  25.906  0.00  0.00    +0.105 C 
ATOM     32  C   UNL     1      -6.153   2.167  26.025  0.00  0.00    +0.159 C 
ATOM     33  O   UNL     1      -6.060   1.543  25.494  0.00  0.00    -0.351 OA
ATOM     34  C   UNL     1      -5.560   1.625  24.843  0.00  0.00    +0.159 C 
ATOM     35  C   UNL     1      -5.151   2.333  24.724  0.00  0.00    +0.105 C 
ENDBRANCH  29  30
ENDBRANCH  28  29
ENDBRANCH  24  25
ENDBRANCH  23  24
TORSDOF 8
ENDMDL
MODEL 2
REMARK VINA RESULT:     -11.1      1.200      3.817
REMARK  Name = 
REMARK  8 active torsions:
REMARK  status: ('A' for Active; 'I' for Inactive)
REMARK    1  A    between atoms: O_2  and  C_3
REMARK    2  A    between atoms: C_8  and  N_9
REMARK    3  A    between atoms: C_15  and  C_17
REMARK    4  A    between atoms: C_17  and  C_18
REMARK    5  A    between atoms: C_23  and  C_24
REMARK    6  A    between atoms: C_24  and  C_25
REMARK    7  A    between atoms: C_28  and  C_29
REMARK    8  A    between atoms: C_29  and  N_30
REMARK                            x       y       z     vdW  Elec       q    Type
REMARK                         _______ _______ _______ _____ _____    ______ ____
ROOT
ATOM     18  C   UNL     1      -4.885   2.523  25.065  0.00  0.00    +0.012 C 
ATOM     19  C   UNL     1      -5.600   2.524  25.477  0.00  0.00    +0.019 C 
ATOM     20  C   UNL     1      -5.919   3.236  25.747  0.00  0.00    +0.089 C 
ATOM     21  N   UNL     1      -5.523   3.946  25.606  0.00  0.00    -0.218 NA
ATOM     22  C   UNL     1      -4.808   3.944  25.194  0.00  0.00    +0.089 C 
ATOM     23  C   UNL     1      -4.489   3.233  24.923  0.00  0.00    +0.024 C 
ENDROOT
BRANCH  18  17
ATOM     17  C   UNL     1      -4.566   1.811  24.794  0.00  0.00    +0.085 C 
BRANCH  17  15
ATOM      9  N   UNL     1      -3.375  -0.913  24.744  0.00  0.00    -0.302 N 
ATOM     10  C   UNL     1      -3.991  -0.943  25.293  0.00  0.00    +0.112 C 
ATOM     11  C   UNL     1      -4.443  -0.269  25.442  0.00  0.00    +0.115 C 
ATOM     12  N   UNL     1      -4.279   0.435  25.044  0.00  0.00    -0.276 N 
ATOM     13  C   UNL     1      -3.663   0.464  24.495  0.00  0.00    +0.115 C 
ATOM     14  C   UNL     1      -3.211  -0.210  24.346  0.00  0.00    +0.112 C 
ATOM     15  C   UNL     1      -4.730   1.108  25.193  0.00  0.00    +0.226 C 
ATOM     16  O   UNL     1      -5.346   1.079  25.742  0.00  0.00    -0.275 OA
BRANCH   9   8
ATOM      3  C   UNL     1      -2.138  -1.621  24.847  0.00  0.00    +0.152 A 
ATOM      4  C   UNL     1      -1.686  -2.296  24.697  0.00  0.00    +0.038 A 
ATOM      5  C   UNL     1      -2.019  -2.935  24.296  0.00  0.00    +0.003 A 
ATOM      6  C   UNL     1      -2.805  -2.900  24.045  0.00  0.00    +0.001 A 
ATOM      7  C   UNL     1      -3.256  -2.227  24.194  0.00  0.00    +0.018 A 
ATOM      8  C   UNL     1      -2.923  -1.588  24.595  0.00  0.00    +0.082 A 
BRANCH   3   2
ATOM      1  C   UNL     1      -1.039  -1.039  25.550  0.00  0.00    +0.253 C 
ATOM      2  O   UNL     1      -1.805  -0.982  25.248  0.00  0.00    -0.470 OA
ENDBRANCH   3   2
ENDBRANCH   9   8
ENDBRANCH  17  15
ENDBRANCH  18  17
BRANCH  23  24
ATOM     24  C   UNL     1      -3.774   3.231  24.511  0.00  0.00    +0.051 C 
BRANCH  24  25
ATOM     25  C   UNL     1      -3.104   3.575  24.848  0.00  0.00    +0.100 A 
ATOM     26  N   UNL     1      -3.091   4.060  25.515  0.00  0.00    -0.082 NA
ATOM     27  O   UNL     1      -2.308   4.279  25.656  0.00  0.00    -0.357 OA
ATOM     28  C   UNL     1      -1.837   3.930  25.075  0.00  0.00    +0.170 A 
ATOM     36  C   UNL     1      -2.329   3.495  24.576  0.00  0.00    +0.055 A 
BRANCH  28  29
ATOM     29  C   UNL     1      -1.019   4.003  25.006  0.00  0.00    +0.141 C 
BRANCH  29  30
ATOM     30  N   UNL     1      -0.533   3.351  25.147  0.00  0.00    -0.262 NA
ATOM     31  C   UNL     1      -0.228   2.919  24.513  0.00  0.00    +0.105 C 
ATOM     32  C   UNL     1       0.258   2.268  24.655  0.00  0.00    +0.159 C 
ATOM     33  O   UNL     1       0.439   2.048  25.428  0.00  0.00    -0.351 OA
ATOM     34  C   UNL     1       0.134   2.480  26.062  0.00  0.00    +0.159 C 
ATOM     35  C   UNL     1      -0.352   3.132  25.921  0.00  0.00    +0.105 C 
ENDBRANCH  29  30
ENDBRANCH  28  29
ENDBRANCH  24  25
ENDBRANCH  23  24
TORSDOF 8
ENDMDL
MODEL 3
REMARK VINA RESULT:     -10.3      1.485      4.044
REMARK  Name = 
REMARK  8 active torsions:
REMARK  status: ('A' for Active; 'I' for Inactive)
REMARK    1  A    between atoms: O_2  and  C_3
REMARK    2  A    between atoms: C_8  and  N_9
REMARK    3  A    between atoms: C_15  and  C_17
REMARK    4  A    between atoms: C_17  and  C_18
REMARK    5  A    between atoms: C_23  and  C_24
REMARK    6  A    between atoms: C_24  and  C_25
REMARK    7  A    between atoms: C_28  and  C_29
REMARK    8  A    between atoms: C_29  and  N_30
REMARK                            x       y       z     vdW  Elec       q    Type
REMARK                         _______ _______ _______ _____ _____    ______ ____
ROOT
ATOM     18  C   UNL     1      -3.328   3.174  25.019  0.00  0.00    +0.012 C 
ATOM     19  C   UNL     1      -3.759   3.448  25.667  0.00  0.00    +0.019 C 
ATOM     20  C   UNL     1      -3.465   4.071  26.123  0.00  0.00    +0.089 C 
ATOM     21  N   UNL     1      -2.742   4.418  25.930  0.00  0.00    -0.218 NA
ATOM     22  C   UNL     1      -2.312   4.142  25.282  0.00  0.00    +0.089 C 
ATOM     23  C   UNL     1      -2.605   3.521  24.826  0.00  0.00    +0.024 C 
ENDROOT
BRANCH  18  17
ATOM     17  C   UNL     1      -3.622   2.551  24.563  0.00  0.00    +0.085 C 
BRANCH  17  15
ATOM      9  N   UNL     1      -4.077  -0.388  24.556  0.00  0.00    -0.302 N 
ATOM     10  C   UNL     1      -4.717  -0.059  24.959  0.00  0.00    +0.112 C 
ATOM     11  C   UNL     1      -4.763   0.759  25.061  0.00  0.00    +0.115 C 
ATOM     12  N   UNL     1      -4.169   1.247  24.761  0.00  0.00    -0.276 N 
ATOM     13  C   UNL     1      -3.530   0.916  24.357  0.00  0.00    +0.115 C 
ATOM     14  C   UNL     1      -3.484   0.100  24.255  0.00  0.00    +0.112 C 
ATOM     15  C   UNL     1      -4.216   2.063  24.863  0.00  0.00    +0.226 C 
ATOM     16  O   UNL     1      -4.855   2.394  25.267  0.00  0.00    -0.275 OA
BRANCH   9   8
ATOM      3  C   UNL     1      -3.626  -1.668  25.003  0.00  0.00    +0.152 A 
ATOM      4  C   UNL     1      -3.580  -2.486  24.901  0.00  0.00    +0.038 A 
ATOM      5  C   UNL     1      -3.939  -2.841  24.248  0.00  0.00    +0.003 A 
ATOM      6  C   UNL     1      -4.345  -2.377  23.699  0.00  0.00    +0.001 A 
ATOM      7  C   UNL     1      -4.391  -1.561  23.801  0.00  0.00    +0.018 A 
ATOM      8  C   UNL     1      -4.031  -1.206  24.453  0.00  0.00    +0.082 A 
BRANCH   3   2
ATOM      1  C   UNL     1      -2.858  -1.775  26.203  0.00  0.00    +0.253 C 
ATOM      2  O   UNL     1      -3.267  -1.313  25.656  0.00  0.00    -0.470 OA
ENDBRANCH   3   2
ENDBRANCH   9   8
ENDBRANCH  17  15
ENDBRANCH  18  17
BRANCH  23  24
ATOM     24  C   UNL     1      -2.176   3.246  24.178  0.00  0.00    +0.051 C 
BRANCH  24  25
ATOM     25  C   UNL     1      -1.368   3.093  24.253  0.00  0.00    +0.100 A 
ATOM     26  N   UNL     1      -0.758   3.628  24.105  0.00  0.00    -0.082 NA
ATOM     27  O   UNL     1      -0.041   3.245  24.250  0.00  0.00    -0.357 OA
ATOM     28  C   UNL     1      -0.209   2.473  24.488  0.00  0.00    +0.170 A 
ATOM     36  C   UNL     1      -1.029   2.379  24.490  0.00  0.00    +0.055 A 
BRANCH  28  29
ATOM     29  C   UNL     1       0.345   1.896  24.689  0.00  0.00    +0.141 C 
BRANCH  29  30
ATOM     30  N   UNL     1       0.427   1.222  24.221  0.00  0.00    -0.262 NA
ATOM     31  C   UNL     1      -0.025   0.550  24.383  0.00  0.00    +0.105 C 
ATOM     32  C   UNL     1       0.057  -0.124  23.914  0.00  0.00    +0.159 C 
ATOM     33  O   UNL     1       0.589  -0.128  23.285  0.00  0.00    -0.351 OA
ATOM     34  C   UNL     1       1.041   0.544  23.124  0.00  0.00    +0.159 C 
ATOM     35  C   UNL     1       0.960   1.219  23.592  0.00  0.00    +0.105 C 
ENDBRANCH  29  30
ENDBRANCH  28  29
ENDBRANCH  24  25
ENDBRANCH  23  24
TORSDOF 8
ENDMDL
MODEL 4
REMARK VINA RESULT:     -10.0      1.838      5.890
REMARK  Name = 
REMARK  8 active torsions:
REMARK  status: ('A' for Active; 'I' for Inactive)
REMARK    1  A    between atoms: O_2  and  C_3
REMARK    2  A    between atoms: C_8  and  N_9
REMARK    3  A    between atoms: C_15  and  C_17
REMARK    4  A    between atoms: C_17  and  C_18
REMARK    5  A    between atoms: C_23  and  C_24
REMARK    6  A    between atoms: C_24  and  C_25
REMARK    7  A    between atoms: C_28  and  C_29
REMARK    8  A    between atoms: C_29  and  N_30
REMARK                            x       y       z     vdW  Elec       q    Type
REMARK                         _______ _______ _______ _____ _____    ______ ____
ROOT
ATOM     18  C   UNL     1      -3.185  -1.745  24.742  0.00  0.00    +0.012 C 
ATOM     19  C   UNL     1      -3.661  -2.284  24.339  0.00  0.00    +0.019 C 
ATOM     20  C   UNL     1      -3.338  -2.989  24.055  0.00  0.00    +0.089 C 
ATOM     21  N   UNL     1      -2.538  -3.153  24.174  0.00  0.00    -0.218 NA
ATOM     22  C   UNL     1      -2.062  -2.613  24.577  0.00  0.00    +0.089 C 
ATOM     23  C   UNL     1      -2.385  -1.910  24.861  0.00  0.00    +0.024 C 
ENDROOT
BRANCH  18  17
ATOM     17  C   UNL     1      -3.508  -1.041  25.026  0.00  0.00    +0.085 C 
BRANCH  17  15
ATOM      9  N   UNL     1      -4.820   1.627  25.096  0.00  0.00    -0.302 N 
ATOM     10  C   UNL     1      -5.287   1.156  24.606  0.00  0.00    +0.112 C 
ATOM     11  C   UNL     1      -5.075   0.371  24.466  0.00  0.00    +0.115 C 
ATOM     12  N   UNL     1      -4.397   0.057  24.816  0.00  0.00    -0.276 N 
ATOM     13  C   UNL     1      -3.931   0.530  25.306  0.00  0.00    +0.115 C 
ATOM     14  C   UNL     1      -4.142   1.314  25.446  0.00  0.00    +0.112 C 
ATOM     15  C   UNL     1      -4.186  -0.727  24.676  0.00  0.00    +0.226 C 
ATOM     16  O   UNL     1      -4.653  -1.200  24.186  0.00  0.00    -0.275 OA
BRANCH   9   8
ATOM      3  C   UNL     1      -4.690   3.017  24.790  0.00  0.00    +0.152 A 
ATOM      4  C   UNL     1      -4.902   3.803  24.930  0.00  0.00    +0.038 A 
ATOM      5  C   UNL     1      -5.454   3.984  25.516  0.00  0.00    +0.003 A 
ATOM      6  C   UNL     1      -5.795   3.378  25.962  0.00  0.00    +0.001 A 
ATOM      7  C   UNL     1      -5.584   2.594  25.822  0.00  0.00    +0.018 A 
ATOM      8  C   UNL     1      -5.031   2.413  25.237  0.00  0.00    +0.082 A 
BRANCH   3   2
ATOM      1  C   UNL     1      -3.835   3.436  23.725  0.00  0.00    +0.253 C 
ATOM      2  O   UNL     1      -4.138   2.837  24.205  0.00  0.00    -0.470 OA
ENDBRANCH   3   2
ENDBRANCH   9   8
ENDBRANCH  17  15
ENDBRANCH  18  17
BRANCH  23  24
ATOM     24  C   UNL     1      -1.909  -1.370  25.265  0.00  0.00    +0.051 C 
BRANCH  24  25
ATOM     25  C   UNL     1      -1.195  -1.122  24.934  0.00  0.00    +0.100 A 
ATOM     26  N   UNL     1      -0.455  -1.464  25.065  0.00  0.00    -0.082 NA
ATOM     27  O   UNL     1       0.102  -1.043  24.625  0.00  0.00    -0.357 OA
ATOM     28  C   UNL     1      -0.293  -0.441  24.223  0.00  0.00    +0.170 A 
ATOM     36  C   UNL     1      -1.095  -0.490  24.414  0.00  0.00    +0.055 A 
BRANCH  28  29
ATOM     29  C   UNL     1       0.052   0.113  23.719  0.00  0.00    +0.141 C 
BRANCH  29  30
ATOM     30  N   UNL     1      -0.003   0.918  23.891  0.00  0.00    -0.262 NA
ATOM     31  C   UNL     1       0.589   1.286  24.334  0.00  0.00    +0.105 C 
ATOM     32  C   UNL     1       0.534   2.091  24.507  0.00  0.00    +0.159 C 
ATOM     33  O   UNL     1      -0.109   2.528  24.236  0.00  0.00    -0.351 OA
ATOM     34  C   UNL     1      -0.701   2.161  23.793  0.00  0.00    +0.159 C 
ATOM     35  C   UNL     1      -0.647   1.356  23.620  0.00  0.00    +0.105 C 
ENDBRANCH  29  30
ENDBRANCH  28  29
ENDBRANCH  24  25
ENDBRANCH  23  24
TORSDOF 8
ENDMDL
MODEL 5
REMARK VINA RESULT:      -9.2      1.226      4.457
REMARK  Name = 
REMARK  8 active torsions:
REMARK  status: ('A' for Active; 'I' for Inactive)
REMARK    1  A    between atoms: O_2  and  C_3
REMARK    2  A    between atoms: C_8  and  N_9
REMARK    3  A    between atoms: C_15  and  C_17
REMARK    4  A    between atoms: C_17  and  C_18
REMARK    5  A    between atoms: C_23  and  C_24
REMARK    6  A    between atoms: C_24  and  C_25
REMARK    7  A    between atoms: C_28  and  C_29
REMARK    8  A    between atoms: C_29  and  N_30
REMARK                            x       y       z     vdW  Elec       q    Type
REMARK                         _______ _______ _______ _____ _____    ______ ____
ROOT
ATOM     18  C   UNL     1      -1.550  -0.611  24.667  0.00  0.00    +0.012 C 
ATOM     19  C   UNL     1      -0.973  -1.077  25.029  0.00  0.00    +0.019 C 
ATOM     20  C   UNL     1      -1.144  -1.857  25.237  0.00  0.00    +0.089 C 
ATOM     21  N   UNL     1      -1.891  -2.171  25.082  0.00  0.00    -0.218 NA
ATOM     22  C   UNL     1      -2.467  -1.705  24.720  0.00  0.00    +0.089 C 
ATOM     23  C   UNL     1      -2.297  -0.925  24.512  0.00  0.00    +0.024 C 
ENDROOT
BRANCH  18  17
ATOM     17  C   UNL     1      -1.379   0.169  24.459  0.00  0.00    +0.085 C 
BRANCH  17  15
ATOM      9  N   UNL     1      -0.928   3.076  24.896  0.00  0.00    -0.302 N 
ATOM     10  C   UNL     1      -0.350   2.687  25.338  0.00  0.00    +0.112 C 
ATOM     11  C   UNL     1      -0.319   1.862  25.339  0.00  0.00    +0.115 C 
ATOM     12  N   UNL     1      -0.865   1.427  24.898  0.00  0.00    -0.276 N 
ATOM     13  C   UNL     1      -1.442   1.818  24.457  0.00  0.00    +0.115 C 
ATOM     14  C   UNL     1      -1.474   2.642  24.456  0.00  0.00    +0.112 C 
ATOM     15  C   UNL     1      -0.833   0.604  24.899  0.00  0.00    +0.226 C 
ATOM     16  O   UNL     1      -0.256   0.213  25.341  0.00  0.00    -0.275 OA
BRANCH   9   8
ATOM      3  C   UNL     1      -1.533   4.292  25.341  0.00  0.00    +0.152 A 
ATOM      4  C   UNL     1      -1.564   5.117  25.340  0.00  0.00    +0.038 A 
ATOM      5  C   UNL     1      -1.022   5.550  24.894  0.00  0.00    +0.003 A 
ATOM      6  C   UNL     1      -0.449   5.158  24.448  0.00  0.00    +0.001 A 
ATOM      7  C   UNL     1      -0.417   4.334  24.449  0.00  0.00    +0.018 A 
ATOM      8  C   UNL     1      -0.959   3.901  24.895  0.00  0.00    +0.082 A 
BRANCH   3   2
ATOM      1  C   UNL     1      -2.626   4.251  26.260  0.00  0.00    +0.253 C 
ATOM      2  O   UNL     1      -2.075   3.859  25.787  0.00  0.00    -0.470 OA
ENDBRANCH   3   2
ENDBRANCH   9   8
ENDBRANCH  17  15
ENDBRANCH  18  17
BRANCH  23  24
ATOM     24  C   UNL     1      -2.873  -0.459  24.150  0.00  0.00    +0.051 C 
BRANCH  24  25
ATOM     25  C   UNL     1      -3.572  -0.282  24.551  0.00  0.00    +0.100 A 
ATOM     26  N   UNL     1      -3.782  -0.553  25.302  0.00  0.00    -0.082 NA
ATOM     27  O   UNL     1      -4.524  -0.241  25.487  0.00  0.00    -0.357 OA
ATOM     28  C   UNL     1      -4.771   0.222  24.851  0.00  0.00    +0.170 A 
ATOM     36  C   UNL     1      -4.183   0.197  24.273  0.00  0.00    +0.055 A 
BRANCH  28  29
ATOM     29  C   UNL     1      -5.482   0.638  24.802  0.00  0.00    +0.141 C 
BRANCH  29  30
ATOM     30  N   UNL     1      -5.531   1.408  25.094  0.00  0.00    -0.262 NA
ATOM     31  C   UNL     1      -5.268   2.041  24.634  0.00  0.00    +0.105 C 
ATOM     32  C   UNL     1      -5.317   2.811  24.926  0.00  0.00    +0.159 C 
ATOM     33  O   UNL     1      -5.628   2.949  25.677  0.00  0.00    -0.351 OA
ATOM     34  C   UNL     1      -5.890   2.316  26.137  0.00  0.00    +0.159 C 
ATOM     35  C   UNL     1      -5.842   1.545  25.846  0.00  0.00    +0.105 C 
ENDBRANCH  29  30
ENDBRANCH  28  29
ENDBRANCH  24  25
ENDBRANCH  23  24
TORSDOF 8
ENDMDL
MODEL 6
REMARK VINA RESULT:      -8.9      1.491      5.345
REMARK  Name = 
REMARK  8 active torsions:
REMARK  status: ('A' for Active; 'I' for Inactive)
REMARK    1  A    between atoms: O_2  and  C_3
REMARK    2  A    between atoms: C_8  and  N_9
REMARK    3  A    between atoms: C_15  and  C_17
REMARK    4  A    between atoms: C_17  and  C_18
REMARK    5  A    between atoms: C_23  and  C_24
REMARK    6  A    between atoms: C_24  and  C_25
REMARK    7  A    between atoms: C_28  and  C_29
REMARK    8  A    between atoms: C_29  and  N_30
REMARK                            x       y       z     vdW  Elec       q    Type
REMARK                         _______ _______ _______ _____ _____    ______ ____
ROOT
ATOM     18  C   UNL     1      -5.410   2.292  25.529  0.00  0.00    +0.012 C 
ATOM     19  C   UNL     1      -5.972   2.572  26.063  0.00  0.00    +0.019 C 
ATOM     20  C   UNL     1      -6.572   2.072  26.331  0.00  0.00    +0.089 C 
ATOM     21  N   UNL     1      -6.608   1.292  26.065  0.00  0.00    -0.218 NA
ATOM     22  C   UNL     1      -6.045   1.012  25.531  0.00  0.00    +0.089 C 
ATOM     23  C   UNL     1      -5.446   1.511  25.263  0.00  0.00    +0.024 C 
ENDROOT
BRANCH  18  17
ATOM     17  C   UNL     1      -4.810   2.792  25.261  0.00  0.00    +0.085 C 
BRANCH  17  15
ATOM      9  N   UNL     1      -2.192   4.203  25.255  0.00  0.00    -0.302 N 
ATOM     10  C   UNL     1      -2.567   4.420  25.957  0.00  0.00    +0.112 C 
ATOM     11  C   UNL     1      -3.316   4.120  26.134  0.00  0.00    +0.115 C 
ATOM     12  N   UNL     1      -3.689   3.605  25.609  0.00  0.00    -0.276 N 
ATOM     13  C   UNL     1      -3.314   3.390  24.907  0.00  0.00    +0.115 C 
ATOM     14  C   UNL     1      -2.566   3.688  24.730  0.00  0.00    +0.112 C 
ATOM     15  C   UNL     1      -4.437   3.307  25.786  0.00  0.00    +0.226 C 
ATOM     16  O   UNL     1      -4.812   3.523  26.489  0.00  0.00    -0.275 OA
BRANCH   9   8
ATOM      3  C   UNL     1      -0.774   4.039  25.209  0.00  0.00    +0.152 A 
ATOM      4  C   UNL     1      -0.025   4.338  25.032  0.00  0.00    +0.038 A 
ATOM      5  C   UNL     1       0.053   5.100  24.724  0.00  0.00    +0.003 A 
ATOM      6  C   UNL     1      -0.618   5.562  24.593  0.00  0.00    +0.001 A 
ATOM      7  C   UNL     1      -1.366   5.264  24.770  0.00  0.00    +0.018 A 
ATOM      8  C   UNL     1      -1.443   4.502  25.078  0.00  0.00    +0.082 A 
BRANCH   3   2
ATOM      1  C   UNL     1      -0.179   2.837  25.701  0.00  0.00    +0.253 C 
ATOM      2  O   UNL     1      -0.852   3.278  25.516  0.00  0.00    -0.470 OA
ENDBRANCH   3   2
ENDBRANCH   9   8
ENDBRANCH  17  15
ENDBRANCH  18  17
BRANCH  23  24
ATOM     24  C   UNL     1      -4.882   1.232  24.729  0.00  0.00    +0.051 C 
BRANCH  24  25
ATOM     25  C   UNL     1      -4.599   0.459  24.796  0.00  0.00    +0.100 A 
ATOM     26  N   UNL     1      -4.422   0.067  25.500  0.00  0.00    -0.082 NA
ATOM     27  O   UNL     1      -4.157  -0.691  25.310  0.00  0.00    -0.357 OA
ATOM     28  C   UNL     1      -4.171  -0.767  24.488  0.00  0.00    +0.170 A 
ATOM     36  C   UNL     1      -4.444  -0.056  24.171  0.00  0.00    +0.055 A 
BRANCH  28  29
ATOM     29  C   UNL     1      -3.950  -1.436  24.059  0.00  0.00    +0.141 C 
BRANCH  29  30
ATOM     30  N   UNL     1      -3.291  -1.875  24.289  0.00  0.00    -0.262 NA
ATOM     31  C   UNL     1      -3.389  -2.631  24.606  0.00  0.00    +0.105 C 
ATOM     32  C   UNL     1      -2.730  -3.070  24.836  0.00  0.00    +0.159 C 
ATOM     33  O   UNL     1      -1.973  -2.755  24.750  0.00  0.00    -0.351 OA
ATOM     34  C   UNL     1      -1.875  -1.999  24.434  0.00  0.00    +0.159 C 
ATOM     35  C   UNL     1      -2.534  -1.559  24.203  0.00  0.00    +0.105 C 
ENDBRANCH  29  30
ENDBRANCH  28  29
ENDBRANCH  24  25
ENDBRANCH  23  24
TORSDOF 8
ENDMDL
MODEL 7
REMARK VINA RESULT:      -8.8      1.675      4.956
REMARK  Name = 
REMARK  8 active torsions:
REMARK  status: ('A' for Active; 'I' for Inactive)
REMARK    1  A    between atoms: O_2  and  C_3
REMARK    2  A    between atoms: C_8  and  N_9
REMARK    3  A    between atoms: C_15  and  C_17
REMARK    4  A    between atoms: C_17  and  C_18
REMARK    5  A    between atoms: C_23  and  C_24
REMARK    6  A    between atoms: C_24  and  C_25
REMARK    7  A    between atoms: C_28  and  C_29
REMARK    8  A    between atoms: C_29  and  N_30
REMARK                            x       y       z     vdW  Elec       q    Type
REMARK                         _______ _______ _______ _____ _____    ______ ____
ROOT
ATOM     18  C   UNL     1      -0.340   0.888  24.036  0.00  0.00    +0.012 C 
ATOM     19  C   UNL     1       0.102   1.200  23.413  0.00  0.00    +0.019 C 
ATOM     20  C   UNL     1       0.712   0.756  23.078  0.00  0.00    +0.089 C 
ATOM     21  N   UNL     1       0.880   0.001  23.367  0.00  0.00    -0.218 NA
ATOM     22  C   UNL     1       0.437  -0.310  23.990  0.00  0.00    +0.089 C 
ATOM     23  C   UNL     1      -0.172   0.133  24.325  0.00  0.00    +0.024 C 
ENDROOT
BRANCH  18  17
ATOM     17  C   UNL     1      -0.950   1.332  24.371  0.00  0.00    +0.085 C 
BRANCH  17  15
ATOM      9  N   UNL     1      -3.577   2.668  24.772  0.00  0.00    -0.302 N 
ATOM     10  C   UNL     1      -3.350   2.838  23.998  0.00  0.00    +0.112 C 
ATOM     11  C   UNL     1      -2.636   2.546  23.704  0.00  0.00    +0.115 C 
ATOM     12  N   UNL     1      -2.150   2.085  24.184  0.00  0.00    -0.276 N 
ATOM     13  C   UNL     1      -2.377   1.915  24.959  0.00  0.00    +0.115 C 
ATOM     14  C   UNL     1      -3.090   2.207  25.253  0.00  0.00    +0.112 C 
ATOM     15  C   UNL     1      -1.437   1.793  23.890  0.00  0.00    +0.226 C 
ATOM     16  O   UNL     1      -1.209   1.963  23.115  0.00  0.00    -0.275 OA
BRANCH   9   8
ATOM      3  C   UNL     1      -4.952   2.469  25.104  0.00  0.00    +0.152 A 
ATOM      4  C   UNL     1      -5.667   2.761  25.398  0.00  0.00    +0.038 A 
ATOM      5  C   UNL     1      -5.718   3.543  25.654  0.00  0.00    +0.003 A 
ATOM      6  C   UNL     1      -5.056   4.033  25.616  0.00  0.00    +0.001 A 
ATOM      7  C   UNL     1      -4.343   3.742  25.323  0.00  0.00    +0.018 A 
ATOM      8  C   UNL     1      -4.291   2.960  25.066  0.00  0.00    +0.082 A 
BRANCH   3   2
ATOM      1  C   UNL     1      -5.556   1.188  24.910  0.00  0.00    +0.253 C 
ATOM      2  O   UNL     1      -4.901   1.686  24.847  0.00  0.00    -0.470 OA
ENDBRANCH   3   2
ENDBRANCH   9   8
ENDBRANCH  17  15
ENDBRANCH  18  17
BRANCH  23  24
ATOM     24  C   UNL     1      -0.615  -0.177  24.948  0.00  0.00    +0.051 C 
BRANCH  24  25
ATOM     25  C   UNL     1      -0.840  -0.971  24.938  0.00  0.00    +0.100 A 
ATOM     26  N   UNL     1      -0.512  -1.574  25.397  0.00  0.00    -0.082 NA
ATOM     27  O   UNL     1      -0.901  -2.277  25.210  0.00  0.00    -0.357 OA
ATOM     28  C   UNL     1      -1.470  -2.109  24.636  0.00  0.00    +0.170 A 
ATOM     36  C   UNL     1      -1.431  -1.302  24.468  0.00  0.00    +0.055 A 
BRANCH  28  29
ATOM     29  C   UNL     1      -1.985  -2.652  24.291  0.00  0.00    +0.141 C 
BRANCH  29  30
ATOM     30  N   UNL     1      -2.801  -2.541  24.350  0.00  0.00    -0.262 NA
ATOM     31  C   UNL     1      -3.201  -2.109  23.771  0.00  0.00    +0.105 C 
ATOM     32  C   UNL     1      -4.016  -1.999  23.830  0.00  0.00    +0.159 C 
ATOM     33  O   UNL     1      -4.432  -2.320  24.465  0.00  0.00    -0.351 OA
ATOM     34  C   UNL     1      -4.032  -2.752  25.044  0.00  0.00    +0.159 C 
ATOM     35  C   UNL     1      -3.216  -2.863  24.986  0.00  0.00    +0.105 C 
ENDBRANCH  29  30
ENDBRANCH  28  29
ENDBRANCH  24  25
ENDBRANCH  23  24
TORSDOF 8
ENDMDL
MODEL 8
REMARK VINA RESULT:      -8.7      1.973      3.937
REMARK  Name = 
REMARK  8 active torsions:
REMARK  status: ('A' for Active; 'I' for Inactive)
REMARK    1  A    between atoms: O_2  and  C_3
REMARK    2  A    between atoms: C_8  and  N_9
REMARK    3  A    between atoms: C_15  and  C_17
REMARK    4  A    between atoms: C_17  and  C_18
REMARK    5  A    between atoms: C_23  and  C_24
REMARK    6  A    between atoms: C_24  and  C_25
REMARK    7  A    between atoms: C_28  and  C_29
REMARK    8  A    between atoms: C_29  and  N_30
REMARK                            x       y       z     vdW  Elec       q    Type
REMARK                         _______ _______ _______ _____ _____    ______ ____
ROOT
ATOM     18  C   UNL     1      -2.829  -0.360  24.897  0.00  0.00    +0.012 C 
ATOM     19  C   UNL     1      -2.819  -0.933  25.491  0.00  0.00    +0.019 C 
ATOM     20  C   UNL     1      -3.517  -1.125  25.889  0.00  0.00    +0.089 C 
ATOM     21  N   UNL     1      -4.222  -0.745  25.693  0.00  0.00    -0.218 NA
ATOM     22  C   UNL     1      -4.231  -0.173  25.099  0.00  0.00    +0.089 C 
ATOM     23  C   UNL     1      -3.535   0.020  24.701  0.00  0.00    +0.024 C 
ENDROOT
BRANCH  18  17
ATOM     17  C   UNL     1      -2.132  -0.167  24.499  0.00  0.00    +0.085 C 
BRANCH  17  15
ATOM      9  N   UNL     1       0.662  -0.024  23.490  0.00  0.00    -0.302 N 
ATOM     10  C   UNL     1       0.585  -0.765  23.845  0.00  0.00    +0.112 C 
ATOM     11  C   UNL     1      -0.134  -0.986  24.186  0.00  0.00    +0.115 C 
ATOM     12  N   UNL     1      -0.774  -0.466  24.172  0.00  0.00    -0.276 N 
ATOM     13  C   UNL     1      -0.696   0.275  23.817  0.00  0.00    +0.115 C 
ATOM     14  C   UNL     1       0.021   0.496  23.476  0.00  0.00    +0.112 C 
ATOM     15  C   UNL     1      -1.492  -0.687  24.513  0.00  0.00    +0.226 C 
ATOM     16  O   UNL     1      -1.570  -1.427  24.869  0.00  0.00    -0.275 OA
BRANCH   9   8
ATOM      3  C   UNL     1       1.562  -0.042  22.381  0.00  0.00    +0.152 A 
ATOM      4  C   UNL     1       2.281   0.179  22.039  0.00  0.00    +0.038 A 
ATOM      5  C   UNL     1       2.817   0.638  22.466  0.00  0.00    +0.003 A 
ATOM      6  C   UNL     1       2.634   0.877  23.235  0.00  0.00    +0.001 A 
ATOM      7  C   UNL     1       1.916   0.656  23.576  0.00  0.00    +0.018 A 
ATOM      8  C   UNL     1       1.380   0.197  23.149  0.00  0.00    +0.082 A 
BRANCH   3   2
ATOM      1  C   UNL     1       1.169  -0.668  21.158  0.00  0.00    +0.253 C 
ATOM      2  O   UNL     1       1.026  -0.502  21.953  0.00  0.00    -0.470 OA
ENDBRANCH   3   2
ENDBRANCH   9   8
ENDBRANCH  17  15
ENDBRANCH  18  17
BRANCH  23  24
ATOM     24  C   UNL     1      -3.544   0.593  24.107  0.00  0.00    +0.051 C 
BRANCH  24  25
ATOM     25  C   UNL     1      -3.872   1.335  24.256  0.00  0.00    +0.100 A 
ATOM     26  N   UNL     1      -4.642   1.482  24.514  0.00  0.00    -0.082 NA
ATOM     27  O   UNL     1      -4.734   2.299  24.590  0.00  0.00    -0.357 OA
ATOM     28  C   UNL     1      -4.021   2.656  24.378  0.00  0.00    +0.170 A 
ATOM     36  C   UNL     1      -3.488   2.061  24.171  0.00  0.00    +0.055 A 
BRANCH  28  29
ATOM     29  C   UNL     1      -3.867   3.467  24.373  0.00  0.00    +0.141 C 
BRANCH  29  30
ATOM     30  N   UNL     1      -3.414   3.804  24.974  0.00  0.00    -0.262 NA
ATOM     31  C   UNL     1      -3.730   3.888  25.732  0.00  0.00    +0.105 C 
ATOM     32  C   UNL     1      -3.277   4.226  26.333  0.00  0.00    +0.159 C 
ATOM     33  O   UNL     1      -2.508   4.479  26.177  0.00  0.00    -0.351 OA
ATOM     34  C   UNL     1      -2.192   4.395  25.419  0.00  0.00    +0.159 C 
ATOM     35  C   UNL     1      -2.645   4.058  24.818  0.00  0.00    +0.105 C 
ENDBRANCH  29  30
ENDBRANCH  28  29
ENDBRANCH  24  25
ENDBRANCH  23  24
TORSDOF 8
ENDMDL
MODEL 9
REMARK VINA RESULT:      -8.1      2.436      6.127
REMARK  Name = 
REMARK  8 active torsions:
REMARK  status: ('A' for Active; 'I' for Inactive)
REMARK    1  A    between atoms: O_2  and  C_3
REMARK    2  A    between atoms: C_8  and  N_9
REMARK    3  A    between atoms: C_15  and  C_17
REMARK    4  A    between atoms: C_17  and  C_18
REMARK    5  A    between atoms: C_23  and  C_24
REMARK    6  A    between atoms: C_24  and  C_25
REMARK    7  A    between atoms: C_28  and  C_29
REMARK    8  A    between atoms: C_29  and  N_30
REMARK                            x       y       z     vdW  Elec       q    Type
REMARK                         _______ _______ _______ _____ _____    ______ ____
ROOT
ATOM     18  C   UNL     1      -0.767   1.766  24.115  0.00  0.00    +0.012 C 
ATOM     19  C   UNL     1      -0.726   2.479  24.529  0.00  0.00    +0.019 C 
ATOM     20  C   UNL     1      -0.002   2.744  24.823  0.00  0.00    +0.089 C 
ATOM     21  N   UNL     1       0.681   2.297  24.703  0.00  0.00    -0.218 NA
ATOM     22  C   UNL     1       0.639   1.584  24.289  0.00  0.00    +0.089 C 
ATOM     23  C   UNL     1      -0.084   1.319  23.995  0.00  0.00    +0.024 C 
ENDROOT
BRANCH  18  17
ATOM     17  C   UNL     1      -1.491   1.501  23.821  0.00  0.00    +0.085 C 
BRANCH  17  15
ATOM      9  N   UNL     1      -4.325   2.040  24.546  0.00  0.00    -0.302 N 
ATOM     10  C   UNL     1      -4.132   2.585  23.957  0.00  0.00    +0.112 C 
ATOM     11  C   UNL     1      -3.375   2.586  23.629  0.00  0.00    +0.115 C 
ATOM     12  N   UNL     1      -2.811   2.043  23.889  0.00  0.00    -0.276 N 
ATOM     13  C   UNL     1      -3.005   1.498  24.478  0.00  0.00    +0.115 C 
ATOM     14  C   UNL     1      -3.761   1.497  24.806  0.00  0.00    +0.112 C 
ATOM     15  C   UNL     1      -2.055   2.044  23.561  0.00  0.00    +0.226 C 
ATOM     16  O   UNL     1      -1.861   2.589  22.972  0.00  0.00    -0.275 OA
BRANCH   9   8
ATOM      3  C   UNL     1      -5.292   2.613  25.428  0.00  0.00    +0.152 A 
ATOM      4  C   UNL     1      -6.050   2.612  25.757  0.00  0.00    +0.038 A 
ATOM      5  C   UNL     1      -6.596   2.037  25.531  0.00  0.00    +0.003 A 
ATOM      6  C   UNL     1      -6.385   1.463  24.977  0.00  0.00    +0.001 A 
ATOM      7  C   UNL     1      -5.629   1.464  24.649  0.00  0.00    +0.018 A 
ATOM      8  C   UNL     1      -5.082   2.039  24.874  0.00  0.00    +0.082 A 
BRANCH   3   2
ATOM      1  C   UNL     1      -4.975   3.800  26.158  0.00  0.00    +0.253 C 
ATOM      2  O   UNL     1      -4.745   3.189  25.653  0.00  0.00    -0.470 OA
ENDBRANCH   3   2
ENDBRANCH   9   8
ENDBRANCH  17  15
ENDBRANCH  18  17
BRANCH  23  24
ATOM     24  C   UNL     1      -0.126   0.606  23.582  0.00  0.00    +0.051 C 
BRANCH  24  25
ATOM     25  C   UNL     1       0.566   0.197  23.395  0.00  0.00    +0.100 A 
ATOM     26  N   UNL     1       0.842  -0.485  23.770  0.00  0.00    -0.082 NA
ATOM     27  O   UNL     1       1.550  -0.706  23.408  0.00  0.00    -0.357 OA
ATOM     28  C   UNL     1       1.711  -0.161  22.810  0.00  0.00    +0.170 A 
ATOM     36  C   UNL     1       1.103   0.397  22.802  0.00  0.00    +0.055 A 
BRANCH  28  29
ATOM     29  C   UNL     1       2.365  -0.172  22.307  0.00  0.00    +0.141 C 
BRANCH  29  30
ATOM     30  N   UNL     1       3.105   0.058  22.589  0.00  0.00    -0.262 NA
ATOM     31  C   UNL     1       3.386   0.819  22.436  0.00  0.00    +0.105 C 
ATOM     32  C   UNL     1       4.127   1.049  22.718  0.00  0.00    +0.159 C 
ATOM     33  O   UNL     1       4.586   0.520  23.151  0.00  0.00    -0.351 OA
ATOM     34  C   UNL     1       4.306  -0.241  23.304  0.00  0.00    +0.159 C 
ATOM     35  C   UNL     1       3.565  -0.472  23.022  0.00  0.00    +0.105 C 
ENDBRANCH  29  30
ENDBRANCH  28  29
ENDBRANCH  24  25
ENDBRANCH  23  24
TORSDOF 8
ENDMDL
