MODEL 1
REMARK VINA RESULT:     -13.7      0.000      0.000
REMARK  Name = 
REMARK  4 active torsions:
REMARK  status: ('A' for Active; 'I' for Inactive)
REMARK    1  A    between atoms: N_9  and  C_10
REMARK    2  A    between atoms: C_10  and  C_11
REMARK    3  A    between atoms: C_15  and  C_17
REMARK    4  A    between atoms: C_23  and  C_24
REMARK                            x       y       z     vdW  Elec       q    Type
REMARK                         _______ _______ _______ _____ _____    ______ ____
ROOT
ATOM      1  O   UNL     1      -2.565  -0.031  24.605  0.00  0.00    -0.267 OA
ATOM      2  C   UNL     1      -3.318   0.290  24.707  0.00  0.00    +0.261 A 
ATOM      3  N   UNL     1      -3.412   1.106  24.782  0.00  0.00    -0.299 N 
ATOM      4  C   UNL     1      -4.199   0.831  24.840  0.00  0.00    +0.110 C 
ATOM      5  C   UNL     1      -4.668   1.693  24.957  0.00  0.00    +0.039 C 
ATOM      6  C   UNL     1      -5.194   2.307  25.059  0.00  0.00    +0.011 C 
ATOM      7  C   UNL     1      -4.501   2.225  24.982  0.00  0.00    +0.054 C 
ATOM      8  C   UNL     1      -3.719   2.705  24.940  0.00  0.00    +0.078 C 
ATOM      9  N   UNL     1      -3.197   2.091  24.838  0.00  0.00    -0.269 NA
ATOM     19  C   UNL     1      -3.845   2.186  24.912  0.00  0.00    +0.074 C 
ATOM     20  C   UNL     1      -4.165   1.427  24.884  0.00  0.00    +0.041 A 
ATOM     21  C   UNL     1      -4.824   0.932  24.912  0.00  0.00    +0.013 A 
ATOM     22  C   UNL     1      -4.730   0.116  24.838  0.00  0.00    +0.006 A 
ATOM     23  C   UNL     1      -3.977  -0.205  24.735  0.00  0.00    +0.059 A 
ENDROOT
BRANCH  23  24
ATOM     24  C   UNL     1      -3.883  -1.021  24.661  0.00  0.00    +0.043 A 
ATOM     25  C   UNL     1      -3.605  -1.465  25.299  0.00  0.00    +0.102 A 
ATOM     26  N   UNL     1      -3.511  -2.281  25.225  0.00  0.00    -0.222 NA
ATOM     27  C   UNL     1      -3.695  -2.654  24.511  0.00  0.00    +0.199 A 
ATOM     28  N   UNL     1      -3.973  -2.211  23.874  0.00  0.00    -0.222 NA
ATOM     29  C   UNL     1      -4.067  -1.395  23.948  0.00  0.00    +0.102 A 
ENDBRANCH  23  24
BRANCH   9  10
ATOM     10  C   UNL     1      -2.482   1.694  24.734  0.00  0.00    +0.099 C 
BRANCH  10  11
ATOM     11  C   UNL     1      -1.775   2.117  24.714  0.00  0.00    -0.005 A 
ATOM     12  C   UNL     1      -1.563   2.536  24.036  0.00  0.00    -0.003 A 
ATOM     13  C   UNL     1      -0.855   2.960  24.016  0.00  0.00    +0.000 A 
ATOM     14  C   UNL     1      -0.359   2.964  24.675  0.00  0.00    +0.010 A 
ATOM     15  C   UNL     1      -0.571   2.545  25.354  0.00  0.00    +0.068 A 
ATOM     16  C   UNL     1      -1.279   2.121  25.374  0.00  0.00    +0.007 A 
BRANCH  15  17
ATOM     17  C   UNL     1      -0.074   2.550  26.013  0.00  0.00    +0.100 C 
ATOM     18  N   UNL     1       0.424   2.554  26.671  0.00  0.00    -0.191 NA
ENDBRANCH  15  17
ENDBRANCH  10  11
ENDBRANCH   9  10
TORSDOF 4
ENDMDL
MODEL 2
REMARK VINA RESULT:     -13.5      1.010      4.140
REMARK  Name = 
REMARK  4 active torsions:
REMARK  status: ('A' for Active; 'I' for Inactive)
REMARK    1  A    between atoms: N_9  and  C_10
REMARK    2  A    between atoms: C_10  and  C_11
REMARK    3  A    between atoms: C_15  and  C_17
REMARK    4  A    between atoms: C_23  and  C_24
REMARK                            x       y       z     vdW  Elec       q    Type
REMARK                         _______ _______ _______ _____ _____    ______ ____
ROOT
ATOM      1  O   UNL     1      -2.314   1.444  24.972  0.00  0.00    -0.267 OA
ATOM      2  C   UNL     1      -3.003   1.898  24.974  0.00  0.00    +0.261 A 
ATOM      3  N   UNL     1      -3.740   1.527  25.004  0.00  0.00    -0.299 N 
ATOM      4  C   UNL     1      -3.949   2.336  24.982  0.00  0.00    +0.110 C 
ATOM      5  C   UNL     1      -4.933   2.254  25.008  0.00  0.00    +0.039 C 
ATOM      6  C   UNL     1      -5.741   2.356  25.025  0.00  0.00    +0.011 C 
ATOM      7  C   UNL     1      -5.286   1.822  25.031  0.00  0.00    +0.054 C 
ATOM      8  C   UNL     1      -5.251   0.904  25.060  0.00  0.00    +0.078 C 
ATOM      9  N   UNL     1      -4.445   0.806  25.044  0.00  0.00    -0.269 NA
ATOM     19  C   UNL     1      -4.887   1.295  25.039  0.00  0.00    +0.074 C 
ATOM     20  C   UNL     1      -4.429   1.980  25.005  0.00  0.00    +0.041 A 
ATOM     21  C   UNL     1      -4.382   2.803  24.977  0.00  0.00    +0.013 A 
ATOM     22  C   UNL     1      -3.646   3.173  24.947  0.00  0.00    +0.006 A 
ATOM     23  C   UNL     1      -2.956   2.721  24.945  0.00  0.00    +0.059 A 
ENDROOT
BRANCH  23  24
ATOM     24  C   UNL     1      -2.220   3.091  24.915  0.00  0.00    +0.043 A 
ATOM     25  C   UNL     1      -1.913   3.455  25.590  0.00  0.00    +0.102 A 
ATOM     26  N   UNL     1      -1.176   3.825  25.560  0.00  0.00    -0.222 NA
ATOM     27  C   UNL     1      -0.746   3.832  24.856  0.00  0.00    +0.199 A 
ATOM     28  N   UNL     1      -1.053   3.468  24.182  0.00  0.00    -0.222 NA
ATOM     29  C   UNL     1      -1.789   3.098  24.212  0.00  0.00    +0.102 A 
ENDBRANCH  23  24
BRANCH   9  10
ATOM     10  C   UNL     1      -3.713   0.427  25.039  0.00  0.00    +0.099 C 
BRANCH  10  11
ATOM     11  C   UNL     1      -3.673  -0.393  25.119  0.00  0.00    -0.005 A 
ATOM     12  C   UNL     1      -3.424  -0.727  25.831  0.00  0.00    -0.003 A 
ATOM     13  C   UNL     1      -3.384  -1.547  25.910  0.00  0.00    +0.000 A 
ATOM     14  C   UNL     1      -3.592  -2.033  25.278  0.00  0.00    +0.010 A 
ATOM     15  C   UNL     1      -3.841  -1.699  24.565  0.00  0.00    +0.068 A 
ATOM     16  C   UNL     1      -3.881  -0.879  24.485  0.00  0.00    +0.007 A 
BRANCH  15  17
ATOM     17  C   UNL     1      -4.049  -2.187  23.933  0.00  0.00    +0.100 C 
ATOM     18  N   UNL     1      -4.258  -2.674  23.300  0.00  0.00    -0.191 NA
ENDBRANCH  15  17
ENDBRANCH  10  11
ENDBRANCH   9  10
TORSDOF 4
ENDMDL
MODEL 3
REMARK VINA RESULT:     -12.5      1.985      3.483
REMARK  Name = 
REMARK  4 active torsions:
REMARK  status: ('A' for Active; 'I' for Inactive)
REMARK    1  A    between atoms: N_9  and  C_10
REMARK    2  A    between atoms: C_10  and  C_11
REMARK    3  A    between atoms: C_15  and  C_17
REMARK    4  A    between atoms: C_23  and  C_24
REMARK                            x       y       z     vdW  Elec       q    Type
REMARK                         _______ _______ _______ _____ _____    ______ ____
ROOT
ATOM      1  O   UNL     1      -2.971   0.865  24.949  0.00  0.00    -0.267 OA
ATOM      2  C   UNL     1      -3.547   0.327  24.706  0.00  0.00    +0.261 A 
ATOM      3  N   UNL     1      -3.340  -0.456  24.548  0.00  0.00    -0.299 N 
ATOM      4  C   UNL     1      -4.161  -0.456  24.394  0.00  0.00    +0.110 C 
ATOM      5  C   UNL     1      -4.281  -1.401  24.134  0.00  0.00    +0.039 C 
ATOM      6  C   UNL     1      -4.543  -2.136  23.900  0.00  0.00    +0.011 C 
ATOM      7  C   UNL     1      -3.937  -1.837  24.089  0.00  0.00    +0.054 C 
ATOM      8  C   UNL     1      -3.045  -2.028  24.207  0.00  0.00    +0.078 C 
ATOM      9  N   UNL     1      -2.788  -1.294  24.440  0.00  0.00    -0.269 NA
ATOM     19  C   UNL     1      -3.349  -1.591  24.261  0.00  0.00    +0.074 C 
ATOM     20  C   UNL     1      -3.915  -0.994  24.305  0.00  0.00    +0.041 A 
ATOM     21  C   UNL     1      -4.698  -0.750  24.220  0.00  0.00    +0.013 A 
ATOM     22  C   UNL     1      -4.906   0.032  24.378  0.00  0.00    +0.006 A 
ATOM     23  C   UNL     1      -4.331   0.571  24.621  0.00  0.00    +0.059 A 
ENDROOT
BRANCH  23  24
ATOM     24  C   UNL     1      -4.538   1.354  24.779  0.00  0.00    +0.043 A 
ATOM     25  C   UNL     1      -4.963   1.538  25.463  0.00  0.00    +0.102 A 
ATOM     26  N   UNL     1      -5.170   2.321  25.621  0.00  0.00    -0.222 NA
ATOM     27  C   UNL     1      -4.953   2.919  25.095  0.00  0.00    +0.199 A 
ATOM     28  N   UNL     1      -4.529   2.735  24.412  0.00  0.00    -0.222 NA
ATOM     29  C   UNL     1      -4.322   1.952  24.254  0.00  0.00    +0.102 A 
ENDBRANCH  23  24
BRANCH   9  10
ATOM     10  C   UNL     1      -2.275  -0.698  24.686  0.00  0.00    +0.099 C 
BRANCH  10  11
ATOM     11  C   UNL     1      -1.463  -0.842  24.724  0.00  0.00    -0.005 A 
ATOM     12  C   UNL     1      -1.151  -1.283  25.347  0.00  0.00    -0.003 A 
ATOM     13  C   UNL     1      -0.339  -1.427  25.385  0.00  0.00    +0.000 A 
ATOM     14  C   UNL     1       0.160  -1.130  24.800  0.00  0.00    +0.010 A 
ATOM     15  C   UNL     1      -0.152  -0.688  24.176  0.00  0.00    +0.068 A 
ATOM     16  C   UNL     1      -0.964  -0.544  24.138  0.00  0.00    +0.007 A 
BRANCH  15  17
ATOM     17  C   UNL     1       0.348  -0.391  23.591  0.00  0.00    +0.100 C 
ATOM     18  N   UNL     1       0.849  -0.095  23.007  0.00  0.00    -0.191 NA
ENDBRANCH  15  17
ENDBRANCH  10  11
ENDBRANCH   9  10
TORSDOF 4
ENDMDL
MODEL 4
REMARK VINA RESULT:     -12.3      1.273      2.885
REMARK  Name = 
REMARK  4 active torsions:
REMARK  status: ('A' for Active; 'I' for Inactive)
REMARK    1  A    between atoms: N_9  and  C_10
REMARK    2  A    between atoms: C_10  and  C_11
REMARK    3  A    between atoms: C_15  and  C_17
REMARK    4  A    between atoms: C_23  and  C_24
REMARK                            x       y       z     vdW  Elec       q    Type
REMARK                         _______ _______ _______ _____ _____    ______ ____
ROOT
ATOM      1  O   UNL     1      -3.438  -0.017  24.580  0.00  0.00    -0.267 OA
ATOM      2  C   UNL     1      -2.673   0.037  24.885  0.00  0.00    +0.261 A 
ATOM      3  N   UNL     1      -2.317   0.776  24.975  0.00  0.00    -0.299 N 
ATOM      4  C   UNL     1      -1.723   0.259  25.252  0.00  0.00    +0.110 C 
ATOM      5  C   UNL     1      -1.025   0.917  25.487  0.00  0.00    +0.039 C 
ATOM      6  C   UNL     1      -0.360   1.323  25.726  0.00  0.00    +0.011 C 
ATOM      7  C   UNL     1      -0.992   1.473  25.460  0.00  0.00    +0.054 C 
ATOM      8  C   UNL     1      -1.514   2.183  25.198  0.00  0.00    +0.078 C 
ATOM      9  N   UNL     1      -2.175   1.776  24.960  0.00  0.00    -0.269 NA
ATOM     19  C   UNL     1      -1.577   1.653  25.211  0.00  0.00    +0.074 C 
ATOM     20  C   UNL     1      -1.553   0.832  25.280  0.00  0.00    +0.041 A 
ATOM     21  C   UNL     1      -1.144   0.148  25.494  0.00  0.00    +0.013 A 
ATOM     22  C   UNL     1      -1.499  -0.590  25.404  0.00  0.00    +0.006 A 
ATOM     23  C   UNL     1      -2.264  -0.646  25.099  0.00  0.00    +0.059 A 
ENDROOT
BRANCH  23  24
ATOM     24  C   UNL     1      -2.620  -1.385  25.009  0.00  0.00    +0.043 A 
ATOM     25  C   UNL     1      -2.396  -1.877  24.385  0.00  0.00    +0.102 A 
ATOM     26  N   UNL     1      -2.752  -2.616  24.295  0.00  0.00    -0.222 NA
ATOM     27  C   UNL     1      -3.331  -2.863  24.829  0.00  0.00    +0.199 A 
ATOM     28  N   UNL     1      -3.554  -2.371  25.452  0.00  0.00    -0.222 NA
ATOM     29  C   UNL     1      -3.199  -1.632  25.542  0.00  0.00    +0.102 A 
ENDBRANCH  23  24
BRANCH   9  10
ATOM     10  C   UNL     1      -2.931   1.636  24.665  0.00  0.00    +0.099 C 
BRANCH  10  11
ATOM     11  C   UNL     1      -3.417   2.270  24.458  0.00  0.00    -0.005 A 
ATOM     12  C   UNL     1      -3.346   2.619  23.714  0.00  0.00    -0.003 A 
ATOM     13  C   UNL     1      -3.832   3.253  23.508  0.00  0.00    +0.000 A 
ATOM     14  C   UNL     1      -4.388   3.539  24.045  0.00  0.00    +0.010 A 
ATOM     15  C   UNL     1      -4.459   3.190  24.790  0.00  0.00    +0.068 A 
ATOM     16  C   UNL     1      -3.973   2.555  24.997  0.00  0.00    +0.007 A 
BRANCH  15  17
ATOM     17  C   UNL     1      -5.016   3.476  25.328  0.00  0.00    +0.100 C 
ATOM     18  N   UNL     1      -5.574   3.762  25.864  0.00  0.00    -0.191 NA
ENDBRANCH  15  17
ENDBRANCH  10  11
ENDBRANCH   9  10
TORSDOF 4
ENDMDL
MODEL 5
REMARK VINA RESULT:     -12.3      1.784      3.545
REMARK  Name = 
REMARK  4 active torsions:
REMARK  status: ('A' for Active; 'I' for Inactive)
REMARK    1  A    between atoms: N_9  and  C_10
REMARK    2  A    between atoms: C_10  and  C_11
REMARK    3  A    between atoms: C_15  and  C_17
REMARK    4  A    between atoms: C_23  and  C_24
REMARK                            x       y       z     vdW  Elec       q    Type
REMARK                         _______ _______ _______ _____ _____    ______ ____
ROOT
ATOM      1  O   UNL     1      -3.847   1.142  25.397  0.00  0.00    -0.267 OA
ATOM      2  C   UNL     1      -3.734   1.591  24.713  0.00  0.00    +0.261 A 
ATOM      3  N   UNL     1      -3.085   1.444  24.226  0.00  0.00    -0.299 N 
ATOM      4  C   UNL     1      -3.467   2.072  23.829  0.00  0.00    +0.110 C 
ATOM      5  C   UNL     1      -2.855   2.178  23.060  0.00  0.00    +0.039 C 
ATOM      6  C   UNL     1      -2.458   2.390  22.381  0.00  0.00    +0.011 C 
ATOM      7  C   UNL     1      -2.387   1.922  22.899  0.00  0.00    +0.054 C 
ATOM      8  C   UNL     1      -1.838   1.243  23.187  0.00  0.00    +0.078 C 
ATOM      9  N   UNL     1      -2.237   1.035  23.863  0.00  0.00    -0.269 NA
ATOM     19  C   UNL     1      -2.288   1.468  23.369  0.00  0.00    +0.074 C 
ATOM     20  C   UNL     1      -2.973   1.892  23.543  0.00  0.00    +0.041 A 
ATOM     21  C   UNL     1      -3.509   2.487  23.348  0.00  0.00    +0.013 A 
ATOM     22  C   UNL     1      -4.157   2.634  23.835  0.00  0.00    +0.006 A 
ATOM     23  C   UNL     1      -4.271   2.186  24.518  0.00  0.00    +0.059 A 
ENDROOT
BRANCH  23  24
ATOM     24  C   UNL     1      -4.920   2.333  25.006  0.00  0.00    +0.043 A 
ATOM     25  C   UNL     1      -4.876   2.918  25.586  0.00  0.00    +0.102 A 
ATOM     26  N   UNL     1      -5.525   3.065  26.074  0.00  0.00    -0.222 NA
ATOM     27  C   UNL     1      -6.218   2.626  25.981  0.00  0.00    +0.199 A 
ATOM     28  N   UNL     1      -6.262   2.042  25.401  0.00  0.00    -0.222 NA
ATOM     29  C   UNL     1      -5.613   1.895  24.913  0.00  0.00    +0.102 A 
ENDBRANCH  23  24
BRANCH   9  10
ATOM     10  C   UNL     1      -2.419   0.633  24.560  0.00  0.00    +0.099 C 
BRANCH  10  11
ATOM     11  C   UNL     1      -1.946   0.006  24.810  0.00  0.00    -0.005 A 
ATOM     12  C   UNL     1      -1.292   0.149  25.293  0.00  0.00    -0.003 A 
ATOM     13  C   UNL     1      -0.818  -0.478  25.543  0.00  0.00    +0.000 A 
ATOM     14  C   UNL     1      -0.998  -1.249  25.311  0.00  0.00    +0.010 A 
ATOM     15  C   UNL     1      -1.652  -1.393  24.828  0.00  0.00    +0.068 A 
ATOM     16  C   UNL     1      -2.126  -0.765  24.578  0.00  0.00    +0.007 A 
BRANCH  15  17
ATOM     17  C   UNL     1      -1.831  -2.164  24.597  0.00  0.00    +0.100 C 
ATOM     18  N   UNL     1      -2.011  -2.935  24.365  0.00  0.00    -0.191 NA
ENDBRANCH  15  17
ENDBRANCH  10  11
ENDBRANCH   9  10
TORSDOF 4
ENDMDL
MODEL 6
REMARK VINA RESULT:     -11.9      1.490      4.494
REMARK  Name = 
REMARK  4 active torsions:
REMARK  status: ('A' for Active; 'I' for Inactive)
REMARK    1  A    between atoms: N_9  and  C_10
REMARK    2  A    between atoms: C_10  and  C_11
REMARK    3  A    between atoms: C_15  and  C_17
REMARK    4  A    between atoms: C_23  and  C_24
REMARK                            x       y       z     vdW  Elec       q    Type
REMARK                         _______ _______ _______ _____ _____    ______ ____
ROOT
ATOM      1  O   UNL     1      -3.610   1.435  25.059  0.00  0.00    -0.267 OA
ATOM      2  C   UNL     1      -2.835   1.620  24.843  0.00  0.00    +0.261 A 
ATOM      3  N   UNL     1      -2.281   1.017  24.737  0.00  0.00    -0.299 N 
ATOM      4  C   UNL     1      -1.832   1.702  24.574  0.00  0.00    +0.110 C 
ATOM      5  C   UNL     1      -0.960   1.283  24.373  0.00  0.00    +0.039 C 
ATOM      6  C   UNL     1      -0.189   1.098  24.182  0.00  0.00    +0.011 C 
ATOM      7  C   UNL     1      -0.776   0.756  24.359  0.00  0.00    +0.054 C 
ATOM      8  C   UNL     1      -1.102  -0.091  24.501  0.00  0.00    +0.078 C 
ATOM      9  N   UNL     1      -1.869   0.097  24.690  0.00  0.00    -0.269 NA
ATOM     19  C   UNL     1      -1.309   0.401  24.523  0.00  0.00    +0.074 C 
ATOM     20  C   UNL     1      -1.508   1.201  24.522  0.00  0.00    +0.041 A 
ATOM     21  C   UNL     1      -1.287   1.988  24.412  0.00  0.00    +0.013 A 
ATOM     22  C   UNL     1      -1.839   2.590  24.517  0.00  0.00    +0.006 A 
ATOM     23  C   UNL     1      -2.614   2.406  24.733  0.00  0.00    +0.059 A 
ENDROOT
BRANCH  23  24
ATOM     24  C   UNL     1      -3.167   3.009  24.838  0.00  0.00    +0.043 A 
ATOM     25  C   UNL     1      -3.262   3.357  25.581  0.00  0.00    +0.102 A 
ATOM     26  N   UNL     1      -3.815   3.960  25.686  0.00  0.00    -0.222 NA
ATOM     27  C   UNL     1      -4.275   4.214  25.049  0.00  0.00    +0.199 A 
ATOM     28  N   UNL     1      -4.180   3.866  24.308  0.00  0.00    -0.222 NA
ATOM     29  C   UNL     1      -3.627   3.264  24.202  0.00  0.00    +0.102 A 
ENDBRANCH  23  24
BRANCH   9  10
ATOM     10  C   UNL     1      -2.659  -0.004  24.904  0.00  0.00    +0.099 C 
BRANCH  10  11
ATOM     11  C   UNL     1      -2.958  -0.762  25.033  0.00  0.00    -0.005 A 
ATOM     12  C   UNL     1      -2.852  -1.129  25.764  0.00  0.00    -0.003 A 
ATOM     13  C   UNL     1      -3.151  -1.887  25.892  0.00  0.00    +0.000 A 
ATOM     14  C   UNL     1      -3.556  -2.278  25.290  0.00  0.00    +0.010 A 
ATOM     15  C   UNL     1      -3.662  -1.911  24.558  0.00  0.00    +0.068 A 
ATOM     16  C   UNL     1      -3.363  -1.153  24.429  0.00  0.00    +0.007 A 
BRANCH  15  17
ATOM     17  C   UNL     1      -4.067  -2.303  23.956  0.00  0.00    +0.100 C 
ATOM     18  N   UNL     1      -4.474  -2.695  23.354  0.00  0.00    -0.191 NA
ENDBRANCH  15  17
ENDBRANCH  10  11
ENDBRANCH   9  10
TORSDOF 4
ENDMDL
