MODEL 1
REMARK VINA RESULT:     -14.1      0.000      0.000
REMARK  Name = 
REMARK  2 active torsions:
REMARK  status: ('A' for Active; 'I' for Inactive)
REMARK    1  A    between atoms: O_2  and  C_3
REMARK    2  A    between atoms: C_4  and  C_10
REMARK                            x       y       z     vdW  Elec       q    Type
REMARK                         _______ _______ _______ _____ _____    ______ ____
ROOT
ATOM     10  C   UNL     1      -3.869  -0.023  24.825  0.00  0.00    +0.003 A 
ATOM     11  C   UNL     1      -3.182   0.427  24.753  0.00  0.00    +0.006 A 
ATOM     12  C   UNL     1      -3.210   1.243  24.875  0.00  0.00    +0.069 A 
ATOM     13  C   UNL     1      -3.924   1.608  25.068  0.00  0.00    +0.078 A 
ATOM     14  N   UNL     1      -4.071   2.407  25.211  0.00  0.00    -0.178 NA
ATOM     15  C   UNL     1      -3.541   3.039  25.196  0.00  0.00    +0.265 C 
ATOM     16  O   UNL     1      -3.861   3.780  25.365  0.00  0.00    -0.271 OA
ATOM     17  C   UNL     1      -2.732   3.027  25.034  0.00  0.00    +0.174 C 
ATOM     18  C   UNL     1      -2.405   3.784  25.076  0.00  0.00    +0.123 C 
ATOM     19  N   UNL     1      -1.601   3.894  24.933  0.00  0.00    -0.276 N 
ATOM     20  C   UNL     1      -1.122   3.249  24.746  0.00  0.00    +0.115 C 
ATOM     21  C   UNL     1      -1.449   2.492  24.703  0.00  0.00    +0.116 C 
ATOM     22  N   UNL     1      -2.254   2.382  24.847  0.00  0.00    -0.266 N 
ATOM     23  C   UNL     1      -2.466   1.588  24.776  0.00  0.00    +0.251 C 
ATOM     24  O   UNL     1      -1.855   1.069  24.581  0.00  0.00    -0.270 OA
ATOM     25  C   UNL     1      -1.274   4.651  24.976  0.00  0.00    +0.226 C 
ATOM     26  C   UNL     1      -1.753   5.297  25.162  0.00  0.00    +0.095 C 
ATOM     27  O   UNL     1      -0.469   4.761  24.832  0.00  0.00    -0.275 OA
ATOM     28  C   UNL     1      -4.611   1.157  25.140  0.00  0.00    +0.017 A 
ATOM     29  C   UNL     1      -4.584   0.341  25.019  0.00  0.00    +0.001 A 
ENDROOT
BRANCH  10   4
ATOM      3  C   UNL     1      -3.567  -1.336  25.301  0.00  0.00    +0.139 A 
ATOM      4  C   UNL     1      -3.842  -0.839  24.704  0.00  0.00    +0.035 A 
ATOM      5  C   UNL     1      -4.092  -1.157  23.984  0.00  0.00    +0.014 A 
ATOM      6  C   UNL     1      -4.065  -1.973  23.863  0.00  0.00    +0.058 A 
ATOM      7 CL   UNL     1      -4.314  -2.290  23.143  0.00  0.00    -0.082 Cl
ATOM      8  C   UNL     1      -3.789  -2.470  24.460  0.00  0.00    +0.015 A 
ATOM      9  C   UNL     1      -3.540  -2.151  25.180  0.00  0.00    +0.038 A 
BRANCH   3   2
ATOM      1  C   UNL     1      -3.042  -1.515  26.618  0.00  0.00    +0.252 C 
ATOM      2  O   UNL     1      -3.318  -1.018  26.021  0.00  0.00    -0.471 OA
ENDBRANCH   3   2
ENDBRANCH  10   4
TORSDOF 2
ENDMDL
MODEL 2
REMARK VINA RESULT:     -12.9      2.123      5.288
REMARK  Name = 
REMARK  2 active torsions:
REMARK  status: ('A' for Active; 'I' for Inactive)
REMARK    1  A    between atoms: O_2  and  C_3
REMARK    2  A    between atoms: C_4  and  C_10
REMARK                            x       y       z     vdW  Elec       q    Type
REMARK                         _______ _______ _______ _____ _____    ______ ____
ROOT
ATOM     10  C   UNL     1      -1.524   2.354  25.322  0.00  0.00    +0.003 A 
ATOM     11  C   UNL     1      -2.136   1.912  24.988  0.00  0.00    +0.006 A 
ATOM     12  C   UNL     1      -2.114   1.088  25.022  0.00  0.00    +0.069 A 
ATOM     13  C   UNL     1      -1.481   0.707  25.389  0.00  0.00    +0.078 A 
ATOM     14  N   UNL     1      -1.353  -0.103  25.483  0.00  0.00    -0.178 NA
ATOM     15  C   UNL     1      -1.825  -0.731  25.232  0.00  0.00    +0.265 C 
ATOM     16  O   UNL     1      -1.543  -1.485  25.412  0.00  0.00    -0.271 OA
ATOM     17  C   UNL     1      -2.543  -0.705  24.826  0.00  0.00    +0.174 C 
ATOM     18  C   UNL     1      -2.835  -1.463  24.680  0.00  0.00    +0.123 C 
ATOM     19  N   UNL     1      -3.549  -1.560  24.279  0.00  0.00    -0.276 N 
ATOM     20  C   UNL     1      -3.971  -0.899  24.023  0.00  0.00    +0.115 C 
ATOM     21  C   UNL     1      -3.679  -0.141  24.168  0.00  0.00    +0.116 C 
ATOM     22  N   UNL     1      -2.965  -0.045  24.570  0.00  0.00    -0.266 N 
ATOM     23  C   UNL     1      -2.774   0.754  24.657  0.00  0.00    +0.251 C 
ATOM     24  O   UNL     1      -3.315   1.288  24.337  0.00  0.00    -0.270 OA
ATOM     25  C   UNL     1      -3.841  -2.318  24.134  0.00  0.00    +0.226 C 
ATOM     26  C   UNL     1      -3.418  -2.979  24.390  0.00  0.00    +0.095 C 
ATOM     27  O   UNL     1      -4.555  -2.414  23.732  0.00  0.00    -0.275 OA
ATOM     28  C   UNL     1      -0.871   1.149  25.723  0.00  0.00    +0.017 A 
ATOM     29  C   UNL     1      -0.892   1.973  25.689  0.00  0.00    +0.001 A 
ENDROOT
BRANCH  10   4
ATOM      3  C   UNL     1      -1.014   3.586  24.808  0.00  0.00    +0.139 A 
ATOM      4  C   UNL     1      -1.546   3.178  25.288  0.00  0.00    +0.035 A 
ATOM      5  C   UNL     1      -2.101   3.595  25.736  0.00  0.00    +0.014 A 
ATOM      6  C   UNL     1      -2.122   4.419  25.702  0.00  0.00    +0.058 A 
ATOM      7 CL   UNL     1      -2.676   4.835  26.149  0.00  0.00    -0.082 Cl
ATOM      8  C   UNL     1      -1.590   4.827  25.221  0.00  0.00    +0.015 A 
ATOM      9  C   UNL     1      -1.035   4.410  24.774  0.00  0.00    +0.038 A 
BRANCH   3   2
ATOM      1  C   UNL     1       0.036   3.572  23.839  0.00  0.00    +0.252 C 
ATOM      2  O   UNL     1      -0.459   3.170  24.360  0.00  0.00    -0.471 OA
ENDBRANCH   3   2
ENDBRANCH  10   4
TORSDOF 2
ENDMDL
MODEL 3
REMARK VINA RESULT:     -12.5      2.052      4.984
REMARK  Name = 
REMARK  2 active torsions:
REMARK  status: ('A' for Active; 'I' for Inactive)
REMARK    1  A    between atoms: O_2  and  C_3
REMARK    2  A    between atoms: C_4  and  C_10
REMARK                            x       y       z     vdW  Elec       q    Type
REMARK                         _______ _______ _______ _____ _____    ______ ____
ROOT
ATOM     10  C   UNL     1      -2.643   2.829  24.702  0.00  0.00    +0.003 A 
ATOM     11  C   UNL     1      -2.329   2.087  24.882  0.00  0.00    +0.006 A 
ATOM     12  C   UNL     1      -2.748   1.404  24.683  0.00  0.00    +0.069 A 
ATOM     13  C   UNL     1      -3.478   1.464  24.304  0.00  0.00    +0.078 A 
ATOM     14  N   UNL     1      -3.981   0.857  24.059  0.00  0.00    -0.178 NA
ATOM     15  C   UNL     1      -3.878   0.042  24.132  0.00  0.00    +0.265 C 
ATOM     16  O   UNL     1      -4.487  -0.425  23.829  0.00  0.00    -0.271 OA
ATOM     17  C   UNL     1      -3.246  -0.368  24.468  0.00  0.00    +0.174 C 
ATOM     18  C   UNL     1      -3.361  -1.185  24.429  0.00  0.00    +0.123 C 
ATOM     19  N   UNL     1      -2.792  -1.697  24.735  0.00  0.00    -0.276 N 
ATOM     20  C   UNL     1      -2.108  -1.394  25.081  0.00  0.00    +0.115 C 
ATOM     21  C   UNL     1      -1.992  -0.577  25.121  0.00  0.00    +0.116 C 
ATOM     22  N   UNL     1      -2.562  -0.066  24.814  0.00  0.00    -0.266 N 
ATOM     23  C   UNL     1      -2.340   0.724  24.910  0.00  0.00    +0.251 C 
ATOM     24  O   UNL     1      -1.614   0.849  25.281  0.00  0.00    -0.270 OA
ATOM     25  C   UNL     1      -2.907  -2.513  24.695  0.00  0.00    +0.226 C 
ATOM     26  C   UNL     1      -3.592  -2.816  24.349  0.00  0.00    +0.095 C 
ATOM     27  O   UNL     1      -2.338  -3.025  25.002  0.00  0.00    -0.275 OA
ATOM     28  C   UNL     1      -3.791   2.205  24.125  0.00  0.00    +0.017 A 
ATOM     29  C   UNL     1      -3.373   2.888  24.324  0.00  0.00    +0.001 A 
ENDROOT
BRANCH  10   4
ATOM      3  C   UNL     1      -2.497   4.000  25.508  0.00  0.00    +0.139 A 
ATOM      4  C   UNL     1      -2.225   3.512  24.902  0.00  0.00    +0.035 A 
ATOM      5  C   UNL     1      -1.534   3.706  24.494  0.00  0.00    +0.014 A 
ATOM      6  C   UNL     1      -1.116   4.389  24.693  0.00  0.00    +0.058 A 
ATOM      7 CL   UNL     1      -0.426   4.583  24.285  0.00  0.00    -0.082 Cl
ATOM      8  C   UNL     1      -1.388   4.877  25.299  0.00  0.00    +0.015 A 
ATOM      9  C   UNL     1      -2.079   4.683  25.707  0.00  0.00    +0.038 A 
BRANCH   3   2
ATOM      1  C   UNL     1      -3.431   4.264  26.556  0.00  0.00    +0.252 C 
ATOM      2  O   UNL     1      -3.187   3.806  25.916  0.00  0.00    -0.471 OA
ENDBRANCH   3   2
ENDBRANCH  10   4
TORSDOF 2
ENDMDL
MODEL 4
REMARK VINA RESULT:     -12.4      1.780      2.518
REMARK  Name = 
REMARK  2 active torsions:
REMARK  status: ('A' for Active; 'I' for Inactive)
REMARK    1  A    between atoms: O_2  and  C_3
REMARK    2  A    between atoms: C_4  and  C_10
REMARK                            x       y       z     vdW  Elec       q    Type
REMARK                         _______ _______ _______ _____ _____    ______ ____
ROOT
ATOM     10  C   UNL     1      -3.491  -0.367  24.223  0.00  0.00    +0.003 A 
ATOM     11  C   UNL     1      -4.031   0.083  24.654  0.00  0.00    +0.006 A 
ATOM     12  C   UNL     1      -4.060   0.902  24.549  0.00  0.00    +0.069 A 
ATOM     13  C   UNL     1      -3.549   1.268  24.015  0.00  0.00    +0.078 A 
ATOM     14  N   UNL     1      -3.488   2.070  23.830  0.00  0.00    -0.178 NA
ATOM     15  C   UNL     1      -3.922   2.703  24.132  0.00  0.00    +0.265 C 
ATOM     16  O   UNL     1      -3.728   3.446  23.832  0.00  0.00    -0.271 OA
ATOM     17  C   UNL     1      -4.525   2.690  24.695  0.00  0.00    +0.174 C 
ATOM     18  C   UNL     1      -4.815   3.449  24.843  0.00  0.00    +0.123 C 
ATOM     19  N   UNL     1      -5.422   3.558  25.390  0.00  0.00    -0.276 N 
ATOM     20  C   UNL     1      -5.740   2.910  25.790  0.00  0.00    +0.115 C 
ATOM     21  C   UNL     1      -5.450   2.151  25.642  0.00  0.00    +0.116 C 
ATOM     22  N   UNL     1      -4.843   2.042  25.095  0.00  0.00    -0.266 N 
ATOM     23  C   UNL     1      -4.635   1.246  25.030  0.00  0.00    +0.251 C 
ATOM     24  O   UNL     1      -5.060   0.725  25.508  0.00  0.00    -0.270 OA
ATOM     25  C   UNL     1      -5.712   4.317  25.539  0.00  0.00    +0.226 C 
ATOM     26  C   UNL     1      -5.394   4.965  25.138  0.00  0.00    +0.095 C 
ATOM     27  O   UNL     1      -6.319   4.426  26.086  0.00  0.00    -0.275 OA
ATOM     28  C   UNL     1      -3.009   0.817  23.585  0.00  0.00    +0.017 A 
ATOM     29  C   UNL     1      -2.980  -0.001  23.689  0.00  0.00    +0.001 A 
ENDROOT
BRANCH  10   4
ATOM      3  C   UNL     1      -2.872  -1.521  24.796  0.00  0.00    +0.139 A 
ATOM      4  C   UNL     1      -3.461  -1.185  24.327  0.00  0.00    +0.035 A 
ATOM      5  C   UNL     1      -4.022  -1.668  23.960  0.00  0.00    +0.014 A 
ATOM      6  C   UNL     1      -3.992  -2.486  24.064  0.00  0.00    +0.058 A 
ATOM      7 CL   UNL     1      -4.552  -2.968  23.698  0.00  0.00    -0.082 Cl
ATOM      8  C   UNL     1      -3.403  -2.822  24.534  0.00  0.00    +0.015 A 
ATOM      9  C   UNL     1      -2.842  -2.339  24.900  0.00  0.00    +0.038 A 
BRANCH   3   2
ATOM      1  C   UNL     1      -1.703  -1.376  25.606  0.00  0.00    +0.252 C 
ATOM      2  O   UNL     1      -2.312  -1.039  25.162  0.00  0.00    -0.471 OA
ENDBRANCH   3   2
ENDBRANCH  10   4
TORSDOF 2
ENDMDL
MODEL 5
REMARK VINA RESULT:     -12.2      1.060      1.804
REMARK  Name = 
REMARK  2 active torsions:
REMARK  status: ('A' for Active; 'I' for Inactive)
REMARK    1  A    between atoms: O_2  and  C_3
REMARK    2  A    between atoms: C_4  and  C_10
REMARK                            x       y       z     vdW  Elec       q    Type
REMARK                         _______ _______ _______ _____ _____    ______ ____
ROOT
ATOM     10  C   UNL     1      -2.373  -0.302  24.613  0.00  0.00    +0.003 A 
ATOM     11  C   UNL     1      -2.616   0.469  24.775  0.00  0.00    +0.006 A 
ATOM     12  C   UNL     1      -2.076   1.091  24.723  0.00  0.00    +0.069 A 
ATOM     13  C   UNL     1      -1.293   0.941  24.509  0.00  0.00    +0.078 A 
ATOM     14  N   UNL     1      -0.672   1.477  24.426  0.00  0.00    -0.178 NA
ATOM     15  C   UNL     1      -0.679   2.295  24.535  0.00  0.00    +0.265 C 
ATOM     16  O   UNL     1       0.040   2.679  24.408  0.00  0.00    -0.271 OA
ATOM     17  C   UNL     1      -1.309   2.778  24.755  0.00  0.00    +0.174 C 
ATOM     18  C   UNL     1      -1.080   3.570  24.803  0.00  0.00    +0.123 C 
ATOM     19  N   UNL     1      -1.630   4.146  25.015  0.00  0.00    -0.276 N 
ATOM     20  C   UNL     1      -2.410   3.933  25.180  0.00  0.00    +0.115 C 
ATOM     21  C   UNL     1      -2.640   3.141  25.132  0.00  0.00    +0.116 C 
ATOM     22  N   UNL     1      -2.089   2.565  24.920  0.00  0.00    -0.266 N 
ATOM     23  C   UNL     1      -2.430   1.813  24.906  0.00  0.00    +0.251 C 
ATOM     24  O   UNL     1      -3.231   1.780  25.100  0.00  0.00    -0.270 OA
ATOM     25  C   UNL     1      -1.401   4.938  25.062  0.00  0.00    +0.226 C 
ATOM     26  C   UNL     1      -0.621   5.152  24.897  0.00  0.00    +0.095 C 
ATOM     27  O   UNL     1      -1.951   5.514  25.274  0.00  0.00    -0.275 OA
ATOM     28  C   UNL     1      -1.051   0.170  24.347  0.00  0.00    +0.017 A 
ATOM     29  C   UNL     1      -1.590  -0.452  24.399  0.00  0.00    +0.001 A 
ENDROOT
BRANCH  10   4
ATOM      3  C   UNL     1      -2.990  -1.345  25.369  0.00  0.00    +0.139 A 
ATOM      4  C   UNL     1      -2.912  -0.924  24.665  0.00  0.00    +0.035 A 
ATOM      5  C   UNL     1      -3.374  -1.125  24.010  0.00  0.00    +0.014 A 
ATOM      6  C   UNL     1      -3.913  -1.747  24.062  0.00  0.00    +0.058 A 
ATOM      7 CL   UNL     1      -4.375  -1.948  23.408  0.00  0.00    -0.082 Cl
ATOM      8  C   UNL     1      -3.991  -2.168  24.767  0.00  0.00    +0.015 A 
ATOM      9  C   UNL     1      -3.530  -1.967  25.421  0.00  0.00    +0.038 A 
BRANCH   3   2
ATOM      1  C   UNL     1      -2.673  -1.499  26.754  0.00  0.00    +0.252 C 
ATOM      2  O   UNL     1      -2.529  -1.145  26.023  0.00  0.00    -0.471 OA
ENDBRANCH   3   2
ENDBRANCH  10   4
TORSDOF 2
ENDMDL
MODEL 6
REMARK VINA RESULT:     -11.1      2.269      4.934
REMARK  Name = 
REMARK  2 active torsions:
REMARK  status: ('A' for Active; 'I' for Inactive)
REMARK    1  A    between atoms: O_2  and  C_3
REMARK    2  A    between atoms: C_4  and  C_10
REMARK                            x       y       z     vdW  Elec       q    Type
REMARK                         _______ _______ _______ _____ _____    ______ ____
ROOT
ATOM     10  C   UNL     1      -3.887   2.204  24.899  0.00  0.00    +0.003 A 
ATOM     11  C   UNL     1      -3.274   1.652  24.874  0.00  0.00    +0.006 A 
ATOM     12  C   UNL     1      -3.445   0.852  24.762  0.00  0.00    +0.069 A 
ATOM     13  C   UNL     1      -4.227   0.605  24.676  0.00  0.00    +0.078 A 
ATOM     14  N   UNL     1      -4.515  -0.160  24.561  0.00  0.00    -0.178 NA
ATOM     15  C   UNL     1      -4.092  -0.866  24.503  0.00  0.00    +0.265 C 
ATOM     16  O   UNL     1      -4.544  -1.545  24.386  0.00  0.00    -0.271 OA
ATOM     17  C   UNL     1      -3.277  -0.981  24.546  0.00  0.00    +0.174 C 
ATOM     18  C   UNL     1      -3.080  -1.779  24.461  0.00  0.00    +0.123 C 
ATOM     19  N   UNL     1      -2.290  -2.013  24.487  0.00  0.00    -0.276 N 
ATOM     20  C   UNL     1      -1.696  -1.453  24.599  0.00  0.00    +0.115 C 
ATOM     21  C   UNL     1      -1.892  -0.655  24.684  0.00  0.00    +0.116 C 
ATOM     22  N   UNL     1      -2.682  -0.421  24.658  0.00  0.00    -0.266 N 
ATOM     23  C   UNL     1      -2.757   0.396  24.754  0.00  0.00    +0.251 C 
ATOM     24  O   UNL     1      -2.051   0.811  24.855  0.00  0.00    -0.270 OA
ATOM     25  C   UNL     1      -2.094  -2.811  24.402  0.00  0.00    +0.226 C 
ATOM     26  C   UNL     1      -2.689  -3.372  24.290  0.00  0.00    +0.095 C 
ATOM     27  O   UNL     1      -1.304  -3.046  24.428  0.00  0.00    -0.275 OA
ATOM     28  C   UNL     1      -4.839   1.157  24.702  0.00  0.00    +0.017 A 
ATOM     29  C   UNL     1      -4.669   1.957  24.813  0.00  0.00    +0.001 A 
ENDROOT
BRANCH  10   4
ATOM      3  C   UNL     1      -3.720   3.519  24.367  0.00  0.00    +0.139 A 
ATOM      4  C   UNL     1      -3.717   3.003  25.010  0.00  0.00    +0.035 A 
ATOM      5  C   UNL     1      -3.544   3.287  25.767  0.00  0.00    +0.014 A 
ATOM      6  C   UNL     1      -3.374   4.086  25.878  0.00  0.00    +0.058 A 
ATOM      7 CL   UNL     1      -3.201   4.369  26.633  0.00  0.00    -0.082 Cl
ATOM      8  C   UNL     1      -3.377   4.602  25.235  0.00  0.00    +0.015 A 
ATOM      9  C   UNL     1      -3.550   4.319  24.479  0.00  0.00    +0.038 A 
BRANCH   3   2
ATOM      1  C   UNL     1      -3.841   3.740  22.961  0.00  0.00    +0.252 C 
ATOM      2  O   UNL     1      -3.892   3.236  23.612  0.00  0.00    -0.471 OA
ENDBRANCH   3   2
ENDBRANCH  10   4
TORSDOF 2
ENDMDL
MODEL 7
REMARK VINA RESULT:     -11.0      2.343      3.970
REMARK  Name = 
REMARK  2 active torsions:
REMARK  status: ('A' for Active; 'I' for Inactive)
REMARK    1  A    between atoms: O_2  and  C_3
REMARK    2  A    between atoms: C_4  and  C_10
REMARK                            x       y       z     vdW  Elec       q    Type
REMARK                         _______ _______ _______ _____ _____    ______ ____
ROOT
ATOM     10  C   UNL     1      -4.067   2.310  24.543  0.00  0.00    +0.003 A 
ATOM     11  C   UNL     1      -3.577   1.675  24.739  0.00  0.00    +0.006 A 
ATOM     12  C   UNL     1      -2.865   1.566  24.336  0.00  0.00    +0.069 A 
ATOM     13  C   UNL     1      -2.643   2.090  23.739  0.00  0.00    +0.078 A 
ATOM     14  N   UNL     1      -1.962   2.081  23.273  0.00  0.00    -0.178 NA
ATOM     15  C   UNL     1      -1.335   1.545  23.289  0.00  0.00    +0.265 C 
ATOM     16  O   UNL     1      -0.729   1.687  22.748  0.00  0.00    -0.271 OA
ATOM     17  C   UNL     1      -1.234   0.886  23.775  0.00  0.00    +0.174 C 
ATOM     18  C   UNL     1      -0.525   0.497  23.611  0.00  0.00    +0.123 C 
ATOM     19  N   UNL     1      -0.317  -0.178  24.037  0.00  0.00    -0.276 N 
ATOM     20  C   UNL     1      -0.818  -0.465  24.627  0.00  0.00    +0.115 C 
ATOM     21  C   UNL     1      -1.527  -0.075  24.791  0.00  0.00    +0.116 C 
ATOM     22  N   UNL     1      -1.734   0.600  24.365  0.00  0.00    -0.266 N 
ATOM     23  C   UNL     1      -2.461   0.903  24.615  0.00  0.00    +0.251 C 
ATOM     24  O   UNL     1      -2.831   0.487  25.223  0.00  0.00    -0.270 OA
ATOM     25  C   UNL     1       0.392  -0.568  23.873  0.00  0.00    +0.226 C 
ATOM     26  C   UNL     1       0.892  -0.281  23.283  0.00  0.00    +0.095 C 
ATOM     27  O   UNL     1       0.599  -1.243  24.299  0.00  0.00    -0.275 OA
ATOM     28  C   UNL     1      -3.133   2.724  23.544  0.00  0.00    +0.017 A 
ATOM     29  C   UNL     1      -3.845   2.834  23.946  0.00  0.00    +0.001 A 
ENDROOT
BRANCH  10   4
ATOM      3  C   UNL     1      -4.837   2.997  25.531  0.00  0.00    +0.139 A 
ATOM      4  C   UNL     1      -4.779   2.420  24.945  0.00  0.00    +0.035 A 
ATOM      5  C   UNL     1      -5.433   1.951  24.761  0.00  0.00    +0.014 A 
ATOM      6  C   UNL     1      -6.145   2.062  25.163  0.00  0.00    +0.058 A 
ATOM      7 CL   UNL     1      -6.799   1.594  24.979  0.00  0.00    -0.082 Cl
ATOM      8  C   UNL     1      -6.203   2.639  25.749  0.00  0.00    +0.015 A 
ATOM      9  C   UNL     1      -5.549   3.108  25.933  0.00  0.00    +0.038 A 
BRANCH   3   2
ATOM      1  C   UNL     1      -4.229   4.017  26.327  0.00  0.00    +0.252 C 
ATOM      2  O   UNL     1      -4.183   3.465  25.715  0.00  0.00    -0.471 OA
ENDBRANCH   3   2
ENDBRANCH  10   4
TORSDOF 2
ENDMDL
MODEL 8
REMARK VINA RESULT:     -10.5     17.742     19.584
REMARK  Name = 
REMARK  2 active torsions:
REMARK  status: ('A' for Active; 'I' for Inactive)
REMARK    1  A    between atoms: O_2  and  C_3
REMARK    2  A    between atoms: C_4  and  C_10
REMARK                            x       y       z     vdW  Elec       q    Type
REMARK                         _______ _______ _______ _____ _____    ______ ____
ROOT
ATOM     10  C   UNL     1      14.993   7.172  19.718  0.00  0.00    +0.003 A 
ATOM     11  C   UNL     1      14.745   7.482  18.995  0.00  0.00    +0.006 A 
ATOM     12  C   UNL     1      13.940   7.595  18.850  0.00  0.00    +0.069 A 
ATOM     13  C   UNL     1      13.385   7.398  19.427  0.00  0.00    +0.078 A 
ATOM     14  N   UNL     1      12.563   7.466  19.395  0.00  0.00    -0.178 NA
ATOM     15  C   UNL     1      12.094   7.749  18.777  0.00  0.00    +0.265 C 
ATOM     16  O   UNL     1      11.281   7.747  18.916  0.00  0.00    -0.271 OA
ATOM     17  C   UNL     1      12.331   8.033  18.040  0.00  0.00    +0.174 C 
ATOM     18  C   UNL     1      11.683   8.263  17.583  0.00  0.00    +0.123 C 
ATOM     19  N   UNL     1      11.800   8.563  16.824  0.00  0.00    -0.276 N 
ATOM     20  C   UNL     1      12.564   8.635  16.522  0.00  0.00    +0.115 C 
ATOM     21  C   UNL     1      13.213   8.406  16.978  0.00  0.00    +0.116 C 
ATOM     22  N   UNL     1      13.095   8.105  17.738  0.00  0.00    -0.266 N 
ATOM     23  C   UNL     1      13.811   7.910  18.098  0.00  0.00    +0.251 C 
ATOM     24  O   UNL     1      14.488   8.048  17.647  0.00  0.00    -0.270 OA
ATOM     25  C   UNL     1      11.152   8.793  16.367  0.00  0.00    +0.226 C 
ATOM     26  C   UNL     1      10.388   8.721  16.670  0.00  0.00    +0.095 C 
ATOM     27  O   UNL     1      11.269   9.094  15.608  0.00  0.00    -0.275 OA
ATOM     28  C   UNL     1      13.633   7.087  20.150  0.00  0.00    +0.017 A 
ATOM     29  C   UNL     1      14.437   6.974  20.295  0.00  0.00    +0.001 A 
ENDROOT
BRANCH  10   4
ATOM      3  C   UNL     1      16.202   7.574  20.364  0.00  0.00    +0.139 A 
ATOM      4  C   UNL     1      15.797   7.058  19.864  0.00  0.00    +0.035 A 
ATOM      5  C   UNL     1      16.195   6.428  19.510  0.00  0.00    +0.014 A 
ATOM      6  C   UNL     1      16.999   6.315  19.656  0.00  0.00    +0.058 A 
ATOM      7 CL   UNL     1      17.397   5.685  19.301  0.00  0.00    -0.082 Cl
ATOM      8  C   UNL     1      17.405   6.830  20.155  0.00  0.00    +0.015 A 
ATOM      9  C   UNL     1      17.006   7.461  20.510  0.00  0.00    +0.038 A 
BRANCH   3   2
ATOM      1  C   UNL     1      16.218   8.745  21.183  0.00  0.00    +0.252 C 
ATOM      2  O   UNL     1      15.804   8.204  20.718  0.00  0.00    -0.471 OA
ENDBRANCH   3   2
ENDBRANCH  10   4
TORSDOF 2
ENDMDL
MODEL 9
REMARK VINA RESULT:     -10.2      1.726      2.156
REMARK  Name = 
REMARK  2 active torsions:
REMARK  status: ('A' for Active; 'I' for Inactive)
REMARK    1  A    between atoms: O_2  and  C_3
REMARK    2  A    between atoms: C_4  and  C_10
REMARK                            x       y       z     vdW  Elec       q    Type
REMARK                         _______ _______ _______ _____ _____    ______ ____
ROOT
ATOM     10  C   UNL     1      -3.303  -0.952  24.906  0.00  0.00    +0.003 A 
ATOM     11  C   UNL     1      -3.112  -0.217  24.583  0.00  0.00    +0.006 A 
ATOM     12  C   UNL     1      -3.572   0.444  24.765  0.00  0.00    +0.069 A 
ATOM     13  C   UNL     1      -4.221   0.369  25.268  0.00  0.00    +0.078 A 
ATOM     14  N   UNL     1      -4.748   0.954  25.518  0.00  0.00    -0.178 NA
ATOM     15  C   UNL     1      -4.755   1.756  25.327  0.00  0.00    +0.265 C 
ATOM     16  O   UNL     1      -5.359   2.200  25.670  0.00  0.00    -0.271 OA
ATOM     17  C   UNL     1      -4.237   2.172  24.838  0.00  0.00    +0.174 C 
ATOM     18  C   UNL     1      -4.440   2.971  24.794  0.00  0.00    +0.123 C 
ATOM     19  N   UNL     1      -3.992   3.486  24.333  0.00  0.00    -0.276 N 
ATOM     20  C   UNL     1      -3.340   3.204  23.914  0.00  0.00    +0.115 C 
ATOM     21  C   UNL     1      -3.135   2.405  23.958  0.00  0.00    +0.116 C 
ATOM     22  N   UNL     1      -3.585   1.890  24.420  0.00  0.00    -0.266 N 
ATOM     23  C   UNL     1      -3.289   1.120  24.387  0.00  0.00    +0.251 C 
ATOM     24  O   UNL     1      -2.621   1.013  23.914  0.00  0.00    -0.270 OA
ATOM     25  C   UNL     1      -4.195   4.285  24.289  0.00  0.00    +0.226 C 
ATOM     26  C   UNL     1      -4.848   4.567  24.708  0.00  0.00    +0.095 C 
ATOM     27  O   UNL     1      -3.746   4.800  23.827  0.00  0.00    -0.275 OA
ATOM     28  C   UNL     1      -4.411  -0.366  25.590  0.00  0.00    +0.017 A 
ATOM     29  C   UNL     1      -3.952  -1.027  25.409  0.00  0.00    +0.001 A 
ENDROOT
BRANCH  10   4
ATOM      3  C   UNL     1      -3.165  -2.230  24.281  0.00  0.00    +0.139 A 
ATOM      4  C   UNL     1      -2.844  -1.613  24.724  0.00  0.00    +0.035 A 
ATOM      5  C   UNL     1      -2.062  -1.657  24.987  0.00  0.00    +0.014 A 
ATOM      6  C   UNL     1      -1.603  -2.318  24.806  0.00  0.00    +0.058 A 
ATOM      7 CL   UNL     1      -0.822  -2.362  25.068  0.00  0.00    -0.082 Cl
ATOM      8  C   UNL     1      -1.925  -2.935  24.363  0.00  0.00    +0.015 A 
ATOM      9  C   UNL     1      -2.706  -2.891  24.100  0.00  0.00    +0.038 A 
BRANCH   3   2
ATOM      1  C   UNL     1      -4.253  -2.780  23.536  0.00  0.00    +0.252 C 
ATOM      2  O   UNL     1      -3.946  -2.186  24.019  0.00  0.00    -0.471 OA
ENDBRANCH   3   2
ENDBRANCH  10   4
TORSDOF 2
ENDMDL
MODEL 10
REMARK VINA RESULT:     -10.1      2.200      3.282
REMARK  Name = 
REMARK  2 active torsions:
REMARK  status: ('A' for Active; 'I' for Inactive)
REMARK    1  A    between atoms: O_2  and  C_3
REMARK    2  A    between atoms: C_4  and  C_10
REMARK                            x       y       z     vdW  Elec       q    Type
REMARK                         _______ _______ _______ _____ _____    ______ ____
ROOT
ATOM     10  C   UNL     1      -0.906   1.143  24.729  0.00  0.00    +0.003 A 
ATOM     11  C   UNL     1      -1.721   1.222  24.629  0.00  0.00    +0.006 A 
ATOM     12  C   UNL     1      -2.113   1.878  24.942  0.00  0.00    +0.069 A 
ATOM     13  C   UNL     1      -1.689   2.454  25.354  0.00  0.00    +0.078 A 
ATOM     14  N   UNL     1      -1.971   3.144  25.707  0.00  0.00    -0.178 NA
ATOM     15  C   UNL     1      -2.744   3.430  25.736  0.00  0.00    +0.265 C 
ATOM     16  O   UNL     1      -2.848   4.144  26.134  0.00  0.00    -0.271 OA
ATOM     17  C   UNL     1      -3.428   3.094  25.418  0.00  0.00    +0.174 C 
ATOM     18  C   UNL     1      -4.092   3.560  25.572  0.00  0.00    +0.123 C 
ATOM     19  N   UNL     1      -4.833   3.323  25.301  0.00  0.00    -0.276 N 
ATOM     20  C   UNL     1      -4.913   2.620  24.877  0.00  0.00    +0.115 C 
ATOM     21  C   UNL     1      -4.249   2.153  24.723  0.00  0.00    +0.116 C 
ATOM     22  N   UNL     1      -3.507   2.392  24.994  0.00  0.00    -0.266 N 
ATOM     23  C   UNL     1      -2.921   1.850  24.782  0.00  0.00    +0.251 C 
ATOM     24  O   UNL     1      -3.179   1.194  24.354  0.00  0.00    -0.270 OA
ATOM     25  C   UNL     1      -5.497   3.789  25.455  0.00  0.00    +0.226 C 
ATOM     26  C   UNL     1      -5.418   4.492  25.880  0.00  0.00    +0.095 C 
ATOM     27  O   UNL     1      -6.239   3.551  25.185  0.00  0.00    -0.275 OA
ATOM     28  C   UNL     1      -0.874   2.374  25.453  0.00  0.00    +0.017 A 
ATOM     29  C   UNL     1      -0.482   1.719  25.140  0.00  0.00    +0.001 A 
ENDROOT
BRANCH  10   4
ATOM      3  C   UNL     1      -0.548  -0.238  24.806  0.00  0.00    +0.139 A 
ATOM      4  C   UNL     1      -0.514   0.488  24.416  0.00  0.00    +0.035 A 
ATOM      5  C   UNL     1      -0.087   0.560  23.713  0.00  0.00    +0.014 A 
ATOM      6  C   UNL     1       0.305  -0.095  23.401  0.00  0.00    +0.058 A 
ATOM      7 CL   UNL     1       0.732  -0.024  22.698  0.00  0.00    -0.082 Cl
ATOM      8  C   UNL     1       0.271  -0.821  23.790  0.00  0.00    +0.015 A 
ATOM      9  C   UNL     1      -0.156  -0.893  24.493  0.00  0.00    +0.038 A 
BRANCH   3   2
ATOM      1  C   UNL     1      -1.044  -1.044  25.876  0.00  0.00    +0.252 C 
ATOM      2  O   UNL     1      -0.975  -0.309  25.508  0.00  0.00    -0.471 OA
ENDBRANCH   3   2
ENDBRANCH  10   4
TORSDOF 2
ENDMDL
