MODEL 1
REMARK VINA RESULT:     -13.3      0.000      0.000
REMARK  Name = 
REMARK  5 active torsions:
REMARK  status: ('A' for Active; 'I' for Inactive)
REMARK    1  A    between atoms: C_2  and  C_4
REMARK    2  A    between atoms: N_7  and  C_10
REMARK    3  A    between atoms: C_16  and  N_17
REMARK    4  A    between atoms: N_20  and  C_21
REMARK    5  A    between atoms: C_23  and  C_27
REMARK                            x       y       z     vdW  Elec       q    Type
REMARK                         _______ _______ _______ _____ _____    ______ ____
ROOT
ATOM     10  C   UNL     1      -3.623   2.500  24.917  0.00  0.00    +0.147 C 
ATOM     11  C   UNL     1      -3.853   3.240  24.332  0.00  0.00    +0.253 C 
ATOM     12  O   UNL     1      -3.370   3.966  24.197  0.00  0.00    -0.327 OA
ATOM     13  C   UNL     1      -3.544   3.319  24.477  0.00  0.00    +0.176 C 
ATOM     14  C   UNL     1      -4.071   2.747  24.491  0.00  0.00    +0.170 C 
ATOM     15  O   UNL     1      -4.577   2.970  24.043  0.00  0.00    -0.327 OA
ATOM     16  C   UNL     1      -3.864   2.033  25.048  0.00  0.00    +0.158 C 
ATOM     31  C   UNL     1      -3.136   2.306  25.336  0.00  0.00    +0.194 C 
ATOM     32  O   UNL     1      -2.431   2.323  25.764  0.00  0.00    -0.220 OA
ENDROOT
BRANCH  10   7
ATOM      4  C   UNL     1      -1.843   4.218  24.996  0.00  0.00    +0.083 C 
ATOM      5  C   UNL     1      -1.810   3.615  24.434  0.00  0.00    +0.027 C 
ATOM      6  C   UNL     1      -2.403   3.042  24.408  0.00  0.00    +0.073 C 
ATOM      7  N   UNL     1      -3.030   3.073  24.943  0.00  0.00    -0.268 NA
ATOM      8  C   UNL     1      -3.063   3.676  25.505  0.00  0.00    +0.073 C 
ATOM      9  C   UNL     1      -2.470   4.249  25.531  0.00  0.00    +0.027 C 
BRANCH   4   2
ATOM      1  N   UNL     1      -0.478   4.594  24.802  0.00  0.00    -0.088 NA
ATOM      2  C   UNL     1      -1.249   4.790  25.021  0.00  0.00    +0.260 C 
ATOM      3  O   UNL     1      -1.425   5.559  25.265  0.00  0.00    -0.272 OA
ENDBRANCH   4   2
ENDBRANCH  10   7
BRANCH  16  17
ATOM     17  N   UNL     1      -4.278   1.336  25.207  0.00  0.00    -0.183 NA
ATOM     18  C   UNL     1      -4.035   0.624  24.869  0.00  0.00    +0.344 C 
ATOM     19  O   UNL     1      -3.377   0.608  24.372  0.00  0.00    -0.249 OA
ATOM     20  N   UNL     1      -4.449  -0.071  25.027  0.00  0.00    -0.161 NA
BRANCH  20  21
ATOM     21  C   UNL     1      -4.206  -0.783  24.690  0.00  0.00    +0.075 A 
ATOM     22  C   UNL     1      -3.719  -1.296  25.114  0.00  0.00    +0.021 A 
ATOM     23  C   UNL     1      -3.475  -2.008  24.776  0.00  0.00    +0.073 A 
ATOM     24  C   UNL     1      -3.719  -2.206  24.013  0.00  0.00    +0.004 A 
ATOM     25  C   UNL     1      -4.206  -1.693  23.588  0.00  0.00    +0.001 A 
ATOM     26  C   UNL     1      -4.449  -0.981  23.927  0.00  0.00    +0.017 A 
BRANCH  23  27
ATOM     27  C   UNL     1      -2.989  -2.521  25.200  0.00  0.00    +0.419 C 
ATOM     28  F   UNL     1      -2.501  -3.035  25.624  0.00  0.00    -0.166 F 
ATOM     29  F   UNL     1      -3.647  -2.812  25.603  0.00  0.00    -0.166 F 
ATOM     30  F   UNL     1      -2.330  -2.230  24.796  0.00  0.00    -0.166 F 
ENDBRANCH  23  27
ENDBRANCH  20  21
ENDBRANCH  16  17
TORSDOF 5
ENDMDL
MODEL 2
REMARK VINA RESULT:     -13.2      2.594      5.379
REMARK  Name = 
REMARK  5 active torsions:
REMARK  status: ('A' for Active; 'I' for Inactive)
REMARK    1  A    between atoms: C_2  and  C_4
REMARK    2  A    between atoms: N_7  and  C_10
REMARK    3  A    between atoms: C_16  and  N_17
REMARK    4  A    between atoms: N_20  and  C_21
REMARK    5  A    between atoms: C_23  and  C_27
REMARK                            x       y       z     vdW  Elec       q    Type
REMARK                         _______ _______ _______ _____ _____    ______ ____
ROOT
ATOM     10  C   UNL     1      -3.883   0.634  24.414  0.00  0.00    +0.147 C 
ATOM     11  C   UNL     1      -4.637   0.160  24.800  0.00  0.00    +0.253 C 
ATOM     12  O   UNL     1      -4.669  -0.701  24.990  0.00  0.00    -0.327 OA
ATOM     13  C   UNL     1      -4.384  -0.077  24.752  0.00  0.00    +0.176 C 
ATOM     14  C   UNL     1      -4.506   0.683  24.642  0.00  0.00    +0.170 C 
ATOM     15  O   UNL     1      -5.171   0.785  24.875  0.00  0.00    -0.327 OA
ATOM     16  C   UNL     1      -3.792   1.149  24.272  0.00  0.00    +0.158 C 
ATOM     31  C   UNL     1      -3.258   0.520  24.198  0.00  0.00    +0.194 C 
ATOM     32  O   UNL     1      -2.564   0.112  24.017  0.00  0.00    -0.220 OA
ENDROOT
BRANCH  10   7
ATOM      4  C   UNL     1      -3.319  -1.760  24.692  0.00  0.00    +0.083 C 
ATOM      5  C   UNL     1      -3.670  -1.498  23.993  0.00  0.00    +0.027 C 
ATOM      6  C   UNL     1      -3.858  -0.700  23.901  0.00  0.00    +0.073 C 
ATOM      7  N   UNL     1      -3.695  -0.164  24.506  0.00  0.00    -0.268 NA
ATOM      8  C   UNL     1      -3.344  -0.427  25.206  0.00  0.00    +0.073 C 
ATOM      9  C   UNL     1      -3.156  -1.225  25.299  0.00  0.00    +0.027 C 
BRANCH   4   2
ATOM      1  N   UNL     1      -2.574  -2.910  24.288  0.00  0.00    -0.088 NA
ATOM      2  C   UNL     1      -3.131  -2.558  24.784  0.00  0.00    +0.260 C 
ATOM      3  O   UNL     1      -3.499  -3.005  25.372  0.00  0.00    -0.272 OA
ENDBRANCH   4   2
ENDBRANCH  10   7
BRANCH  16  17
ATOM     17  N   UNL     1      -3.714   1.948  24.077  0.00  0.00    -0.183 NA
ATOM     18  C   UNL     1      -3.330   2.463  24.594  0.00  0.00    +0.344 C 
ATOM     19  O   UNL     1      -3.024   2.181  25.307  0.00  0.00    -0.249 OA
ATOM     20  N   UNL     1      -3.252   3.260  24.400  0.00  0.00    -0.161 NA
BRANCH  20  21
ATOM     21  C   UNL     1      -2.868   3.776  24.916  0.00  0.00    +0.075 A 
ATOM     22  C   UNL     1      -2.145   4.110  24.705  0.00  0.00    +0.021 A 
ATOM     23  C   UNL     1      -1.761   4.626  25.222  0.00  0.00    +0.073 A 
ATOM     24  C   UNL     1      -2.102   4.807  25.951  0.00  0.00    +0.004 A 
ATOM     25  C   UNL     1      -2.826   4.473  26.164  0.00  0.00    +0.001 A 
ATOM     26  C   UNL     1      -3.209   3.958  25.646  0.00  0.00    +0.017 A 
BRANCH  23  27
ATOM     27  C   UNL     1      -1.037   4.960  25.011  0.00  0.00    +0.419 C 
ATOM     28  F   UNL     1      -0.313   5.294  24.799  0.00  0.00    -0.166 F 
ATOM     29  F   UNL     1      -1.419   5.665  24.819  0.00  0.00    -0.166 F 
ATOM     30  F   UNL     1      -0.655   4.254  25.203  0.00  0.00    -0.166 F 
ENDBRANCH  23  27
ENDBRANCH  20  21
ENDBRANCH  16  17
TORSDOF 5
ENDMDL
MODEL 3
REMARK VINA RESULT:     -13.2      1.814      2.489
REMARK  Name = 
REMARK  5 active torsions:
REMARK  status: ('A' for Active; 'I' for Inactive)
REMARK    1  A    between atoms: C_2  and  C_4
REMARK    2  A    between atoms: N_7  and  C_10
REMARK    3  A    between atoms: C_16  and  N_17
REMARK    4  A    between atoms: N_20  and  C_21
REMARK    5  A    between atoms: C_23  and  C_27
REMARK                            x       y       z     vdW  Elec       q    Type
REMARK                         _______ _______ _______ _____ _____    ______ ____
ROOT
ATOM     10  C   UNL     1      -0.888   1.848  25.183  0.00  0.00    +0.147 C 
ATOM     11  C   UNL     1      -0.411   2.270  25.916  0.00  0.00    +0.253 C 
ATOM     12  O   UNL     1      -0.379   3.136  26.085  0.00  0.00    -0.327 OA
ATOM     13  C   UNL     1      -0.565   2.528  25.735  0.00  0.00    +0.176 C 
ATOM     14  C   UNL     1      -0.501   1.753  25.716  0.00  0.00    +0.170 C 
ATOM     15  O   UNL     1      -0.088   1.602  26.276  0.00  0.00    -0.327 OA
ATOM     16  C   UNL     1      -0.952   1.336  25.019  0.00  0.00    +0.158 C 
ATOM     31  C   UNL     1      -1.275   2.008  24.659  0.00  0.00    +0.194 C 
ATOM     32  O   UNL     1      -1.701   2.470  24.124  0.00  0.00    -0.220 OA
ENDROOT
BRANCH  10   7
ATOM      4  C   UNL     1      -1.203   4.301  25.087  0.00  0.00    +0.083 C 
ATOM      5  C   UNL     1      -1.698   3.840  25.558  0.00  0.00    +0.027 C 
ATOM      6  C   UNL     1      -1.593   3.022  25.590  0.00  0.00    +0.073 C 
ATOM      7  N   UNL     1      -0.993   2.666  25.151  0.00  0.00    -0.268 NA
ATOM      8  C   UNL     1      -0.497   3.128  24.680  0.00  0.00    +0.073 C 
ATOM      9  C   UNL     1      -0.602   3.945  24.648  0.00  0.00    +0.027 C 
BRANCH   4   2
ATOM      1  N   UNL     1      -2.008   5.455  25.337  0.00  0.00    -0.088 NA
ATOM      2  C   UNL     1      -1.309   5.119  25.056  0.00  0.00    +0.260 C 
ATOM      3  O   UNL     1      -0.717   5.601  24.743  0.00  0.00    -0.272 OA
ENDBRANCH   4   2
ENDBRANCH  10   7
BRANCH  16  17
ATOM     17  N   UNL     1      -1.012   0.537  24.820  0.00  0.00    -0.183 NA
ATOM     18  C   UNL     1      -1.702   0.119  24.993  0.00  0.00    +0.344 C 
ATOM     19  O   UNL     1      -2.332   0.500  25.366  0.00  0.00    -0.249 OA
ATOM     20  N   UNL     1      -1.762  -0.679  24.794  0.00  0.00    -0.161 NA
BRANCH  20  21
ATOM     21  C   UNL     1      -2.452  -1.097  24.967  0.00  0.00    +0.075 A 
ATOM     22  C   UNL     1      -2.928  -1.379  24.356  0.00  0.00    +0.021 A 
ATOM     23  C   UNL     1      -3.619  -1.798  24.530  0.00  0.00    +0.073 A 
ATOM     24  C   UNL     1      -3.832  -1.932  25.315  0.00  0.00    +0.004 A 
ATOM     25  C   UNL     1      -3.356  -1.649  25.927  0.00  0.00    +0.001 A 
ATOM     26  C   UNL     1      -2.666  -1.231  25.753  0.00  0.00    +0.017 A 
BRANCH  23  27
ATOM     27  C   UNL     1      -4.094  -2.080  23.919  0.00  0.00    +0.419 C 
ATOM     28  F   UNL     1      -4.571  -2.363  23.307  0.00  0.00    -0.166 F 
ATOM     29  F   UNL     1      -3.764  -2.830  24.008  0.00  0.00    -0.166 F 
ATOM     30  F   UNL     1      -4.426  -1.329  23.829  0.00  0.00    -0.166 F 
ENDBRANCH  23  27
ENDBRANCH  20  21
ENDBRANCH  16  17
TORSDOF 5
ENDMDL
MODEL 4
REMARK VINA RESULT:     -12.6      3.034      5.766
REMARK  Name = 
REMARK  5 active torsions:
REMARK  status: ('A' for Active; 'I' for Inactive)
REMARK    1  A    between atoms: C_2  and  C_4
REMARK    2  A    between atoms: N_7  and  C_10
REMARK    3  A    between atoms: C_16  and  N_17
REMARK    4  A    between atoms: N_20  and  C_21
REMARK    5  A    between atoms: C_23  and  C_27
REMARK                            x       y       z     vdW  Elec       q    Type
REMARK                         _______ _______ _______ _____ _____    ______ ____
ROOT
ATOM     10  C   UNL     1      -1.514  -0.116  25.138  0.00  0.00    +0.147 C 
ATOM     11  C   UNL     1      -1.100  -0.755  24.534  0.00  0.00    +0.253 C 
ATOM     12  O   UNL     1      -1.488  -1.466  24.185  0.00  0.00    -0.327 OA
ATOM     13  C   UNL     1      -1.430  -0.863  24.584  0.00  0.00    +0.176 C 
ATOM     14  C   UNL     1      -0.961  -0.285  24.809  0.00  0.00    +0.170 C 
ATOM     15  O   UNL     1      -0.346  -0.425  24.478  0.00  0.00    -0.327 OA
ATOM     16  C   UNL     1      -1.344   0.333  25.388  0.00  0.00    +0.158 C 
ATOM     31  C   UNL     1      -2.100   0.000  25.443  0.00  0.00    +0.194 C 
ATOM     32  O   UNL     1      -2.887  -0.100  25.672  0.00  0.00    -0.220 OA
ENDROOT
BRANCH  10   7
ATOM      4  C   UNL     1      -3.144  -1.876  24.529  0.00  0.00    +0.083 C 
ATOM      5  C   UNL     1      -2.657  -1.976  25.187  0.00  0.00    +0.027 C 
ATOM      6  C   UNL     1      -2.114  -1.389  25.390  0.00  0.00    +0.073 C 
ATOM      7  N   UNL     1      -2.057  -0.703  24.935  0.00  0.00    -0.268 NA
ATOM      8  C   UNL     1      -2.545  -0.604  24.277  0.00  0.00    +0.073 C 
ATOM      9  C   UNL     1      -3.089  -1.191  24.074  0.00  0.00    +0.027 C 
BRANCH   4   2
ATOM      1  N   UNL     1      -4.319  -2.286  23.826  0.00  0.00    -0.088 NA
ATOM      2  C   UNL     1      -3.688  -2.463  24.327  0.00  0.00    +0.260 C 
ATOM      3  O   UNL     1      -3.601  -3.228  24.625  0.00  0.00    -0.272 OA
ENDBRANCH   4   2
ENDBRANCH  10   7
BRANCH  16  17
ATOM     17  N   UNL     1      -1.026   1.010  25.739  0.00  0.00    -0.183 NA
ATOM     18  C   UNL     1      -1.334   1.753  25.557  0.00  0.00    +0.344 C 
ATOM     19  O   UNL     1      -1.959   1.821  25.023  0.00  0.00    -0.249 OA
ATOM     20  N   UNL     1      -1.017   2.428  25.909  0.00  0.00    -0.161 NA
BRANCH  20  21
ATOM     21  C   UNL     1      -1.325   3.171  25.726  0.00  0.00    +0.075 A 
ATOM     22  C   UNL     1      -0.866   3.718  25.313  0.00  0.00    +0.021 A 
ATOM     23  C   UNL     1      -1.174   4.462  25.130  0.00  0.00    +0.073 A 
ATOM     24  C   UNL     1      -1.941   4.658  25.362  0.00  0.00    +0.004 A 
ATOM     25  C   UNL     1      -2.400   4.111  25.777  0.00  0.00    +0.001 A 
ATOM     26  C   UNL     1      -2.092   3.368  25.958  0.00  0.00    +0.017 A 
BRANCH  23  27
ATOM     27  C   UNL     1      -0.716   5.008  24.717  0.00  0.00    +0.419 C 
ATOM     28  F   UNL     1      -0.257   5.554  24.302  0.00  0.00    -0.166 F 
ATOM     29  F   UNL     1      -0.961   5.603  25.231  0.00  0.00    -0.166 F 
ATOM     30  F   UNL     1      -0.470   4.412  24.201  0.00  0.00    -0.166 F 
ENDBRANCH  23  27
ENDBRANCH  20  21
ENDBRANCH  16  17
TORSDOF 5
ENDMDL
