MODEL 1
REMARK VINA RESULT:     -10.4      0.000      0.000
REMARK  Name = 
REMARK  5 active torsions:
REMARK  status: ('A' for Active; 'I' for Inactive)
REMARK    1  A    between atoms: C_2  and  C_4
REMARK    2  A    between atoms: C_6  and  C_7
REMARK    3  A    between atoms: C_7  and  C_8
REMARK    4  A    between atoms: C_22  and  C_23
REMARK    5  A    between atoms: C_23  and  N_24
REMARK                            x       y       z     vdW  Elec       q    Type
REMARK                         _______ _______ _______ _____ _____    ______ ____
ROOT
ATOM      4  C   UNL     1      -1.760   2.374  24.988  0.00  0.00    +0.006 C 
ATOM      5  C   UNL     1      -2.269   1.724  24.984  0.00  0.00    +0.005 C 
ATOM      6  C   UNL     1      -3.084   1.839  25.020  0.00  0.00    +0.027 C 
ATOM     19  C   UNL     1      -3.393   2.604  25.059  0.00  0.00    -0.048 C 
ATOM     20  C   UNL     1      -4.209   2.719  25.095  0.00  0.00    +0.026 C 
ATOM     21  C   UNL     1      -2.884   3.254  25.062  0.00  0.00    -0.033 C 
ATOM     22  C   UNL     1      -2.068   3.140  25.027  0.00  0.00    +0.043 C 
ENDROOT
BRANCH   4   2
ATOM      1  C   UNL     1      -0.561   2.249  24.221  0.00  0.00    +0.000 C 
ATOM      2  C   UNL     1      -0.944   2.260  24.952  0.00  0.00    +0.000 C 
ATOM      3  C   UNL     1      -0.512   2.155  25.647  0.00  0.00    +0.000 C 
ENDBRANCH   4   2
BRANCH   6   7
ATOM      7  C   UNL     1      -3.593   1.190  25.017  0.00  0.00    +0.089 C 
BRANCH   7   8
ATOM      8  C   UNL     1      -3.617   0.687  24.363  0.00  0.00    +0.226 C 
ATOM      9  O   UNL     1      -3.642   1.002  23.602  0.00  0.00    -0.275 OA
ATOM     10  N   UNL     1      -3.616  -0.130  24.472  0.00  0.00    -0.276 N 
ATOM     11  C   UNL     1      -3.591  -0.446  25.234  0.00  0.00    +0.115 C 
ATOM     12  C   UNL     1      -3.590  -1.263  25.342  0.00  0.00    +0.115 C 
ATOM     13  N   UNL     1      -3.614  -1.766  24.688  0.00  0.00    -0.276 N 
ATOM     14  C   UNL     1      -3.639  -1.451  23.926  0.00  0.00    +0.115 C 
ATOM     15  C   UNL     1      -3.640  -0.633  23.817  0.00  0.00    +0.115 C 
ATOM     16  C   UNL     1      -3.613  -2.584  24.797  0.00  0.00    +0.226 C 
ATOM     17  C   UNL     1      -3.637  -3.087  24.143  0.00  0.00    +0.095 C 
ATOM     18  O   UNL     1      -3.588  -2.899  25.558  0.00  0.00    -0.275 OA
ENDBRANCH   7   8
ENDBRANCH   6   7
BRANCH  22  23
ATOM     23  C   UNL     1      -1.559   3.789  25.030  0.00  0.00    +0.119 C 
BRANCH  23  24
ATOM     24  N   UNL     1      -1.867   4.552  25.080  0.00  0.00    -0.205 NA
ATOM     25  C   UNL     1      -1.366   5.204  25.005  0.00  0.00    +0.242 C 
ATOM     26  C   UNL     1      -1.674   5.968  25.055  0.00  0.00    +0.096 C 
ATOM     27  O   UNL     1      -0.558   5.092  24.881  0.00  0.00    -0.273 OA
ENDBRANCH  23  24
ENDBRANCH  22  23
TORSDOF 5
ENDMDL
MODEL 2
REMARK VINA RESULT:     -10.1      1.211      5.421
REMARK  Name = 
REMARK  5 active torsions:
REMARK  status: ('A' for Active; 'I' for Inactive)
REMARK    1  A    between atoms: C_2  and  C_4
REMARK    2  A    between atoms: C_6  and  C_7
REMARK    3  A    between atoms: C_7  and  C_8
REMARK    4  A    between atoms: C_22  and  C_23
REMARK    5  A    between atoms: C_23  and  N_24
REMARK                            x       y       z     vdW  Elec       q    Type
REMARK                         _______ _______ _______ _____ _____    ______ ____
ROOT
ATOM      4  C   UNL     1      -2.180  -0.487  25.060  0.00  0.00    +0.006 C 
ATOM      5  C   UNL     1      -2.124   0.336  25.017  0.00  0.00    +0.005 C 
ATOM      6  C   UNL     1      -2.748   0.775  24.706  0.00  0.00    +0.027 C 
ATOM     19  C   UNL     1      -3.429   0.393  24.438  0.00  0.00    -0.048 C 
ATOM     20  C   UNL     1      -4.053   0.833  24.126  0.00  0.00    +0.026 C 
ATOM     21  C   UNL     1      -3.484  -0.429  24.480  0.00  0.00    -0.033 C 
ATOM     22  C   UNL     1      -2.860  -0.869  24.791  0.00  0.00    +0.043 C 
ENDROOT
BRANCH   4   2
ATOM      1  C   UNL     1      -1.482  -1.019  26.188  0.00  0.00    +0.000 C 
ATOM      2  C   UNL     1      -1.555  -0.927  25.371  0.00  0.00    +0.000 C 
ATOM      3  C   UNL     1      -1.004  -1.275  24.865  0.00  0.00    +0.000 C 
ENDBRANCH   4   2
BRANCH   6   7
ATOM      7  C   UNL     1      -2.693   1.597  24.663  0.00  0.00    +0.089 C 
BRANCH   7   8
ATOM      8  C   UNL     1      -2.020   1.950  24.341  0.00  0.00    +0.226 C 
ATOM      9  O   UNL     1      -1.530   1.519  23.837  0.00  0.00    -0.275 OA
ATOM     10  N   UNL     1      -1.838   2.733  24.524  0.00  0.00    -0.276 N 
ATOM     11  C   UNL     1      -2.328   3.164  25.029  0.00  0.00    +0.115 C 
ATOM     12  C   UNL     1      -2.145   3.947  25.212  0.00  0.00    +0.115 C 
ATOM     13  N   UNL     1      -1.472   4.300  24.890  0.00  0.00    -0.276 N 
ATOM     14  C   UNL     1      -0.982   3.870  24.385  0.00  0.00    +0.115 C 
ATOM     15  C   UNL     1      -1.164   3.086  24.202  0.00  0.00    +0.115 C 
ATOM     16  C   UNL     1      -1.290   5.084  25.073  0.00  0.00    +0.226 C 
ATOM     17  C   UNL     1      -0.617   5.437  24.751  0.00  0.00    +0.095 C 
ATOM     18  O   UNL     1      -1.779   5.515  25.577  0.00  0.00    -0.275 OA
ENDBRANCH   7   8
ENDBRANCH   6   7
BRANCH  22  23
ATOM     23  C   UNL     1      -2.916  -1.691  24.834  0.00  0.00    +0.119 C 
BRANCH  23  24
ATOM     24  N   UNL     1      -3.374  -2.102  24.285  0.00  0.00    -0.205 NA
ATOM     25  C   UNL     1      -3.663  -2.853  24.469  0.00  0.00    +0.242 C 
ATOM     26  C   UNL     1      -4.121  -3.264  23.920  0.00  0.00    +0.096 C 
ATOM     27  O   UNL     1      -3.492  -3.193  25.201  0.00  0.00    -0.273 OA
ENDBRANCH  23  24
ENDBRANCH  22  23
TORSDOF 5
ENDMDL
MODEL 3
REMARK VINA RESULT:      -9.3      2.493      4.220
REMARK  Name = 
REMARK  5 active torsions:
REMARK  status: ('A' for Active; 'I' for Inactive)
REMARK    1  A    between atoms: C_2  and  C_4
REMARK    2  A    between atoms: C_6  and  C_7
REMARK    3  A    between atoms: C_7  and  C_8
REMARK    4  A    between atoms: C_22  and  C_23
REMARK    5  A    between atoms: C_23  and  N_24
REMARK                            x       y       z     vdW  Elec       q    Type
REMARK                         _______ _______ _______ _____ _____    ______ ____
ROOT
ATOM      4  C   UNL     1      -3.190   2.001  24.217  0.00  0.00    +0.006 C 
ATOM      5  C   UNL     1      -2.475   1.602  24.112  0.00  0.00    +0.005 C 
ATOM      6  C   UNL     1      -2.369   0.853  24.440  0.00  0.00    +0.027 C 
ATOM     19  C   UNL     1      -2.978   0.502  24.873  0.00  0.00    -0.048 C 
ATOM     20  C   UNL     1      -2.872  -0.247  25.201  0.00  0.00    +0.026 C 
ATOM     21  C   UNL     1      -3.693   0.901  24.978  0.00  0.00    -0.033 C 
ATOM     22  C   UNL     1      -3.799   1.650  24.650  0.00  0.00    +0.043 C 
ENDROOT
BRANCH   4   2
ATOM      1  C   UNL     1      -3.556   2.826  23.109  0.00  0.00    +0.000 C 
ATOM      2  C   UNL     1      -3.296   2.750  23.889  0.00  0.00    +0.000 C 
ATOM      3  C   UNL     1      -3.142   3.424  24.340  0.00  0.00    +0.000 C 
ENDBRANCH   4   2
BRANCH   6   7
ATOM      7  C   UNL     1      -1.655   0.454  24.336  0.00  0.00    +0.089 C 
BRANCH   7   8
ATOM      8  C   UNL     1      -0.941   0.836  24.496  0.00  0.00    +0.226 C 
ATOM      9  O   UNL     1      -0.900   1.397  25.099  0.00  0.00    -0.275 OA
ATOM     10  N   UNL     1      -0.269   0.655  24.054  0.00  0.00    -0.276 N 
ATOM     11  C   UNL     1      -0.309   0.093  23.451  0.00  0.00    +0.115 C 
ATOM     12  C   UNL     1       0.363  -0.087  23.009  0.00  0.00    +0.115 C 
ATOM     13  N   UNL     1       1.077   0.295  23.170  0.00  0.00    -0.276 N 
ATOM     14  C   UNL     1       1.118   0.856  23.772  0.00  0.00    +0.115 C 
ATOM     15  C   UNL     1       0.445   1.037  24.215  0.00  0.00    +0.115 C 
ATOM     16  C   UNL     1       1.750   0.114  22.727  0.00  0.00    +0.226 C 
ATOM     17  C   UNL     1       2.463   0.496  22.888  0.00  0.00    +0.095 C 
ATOM     18  O   UNL     1       1.709  -0.447  22.125  0.00  0.00    -0.275 OA
ENDBRANCH   7   8
ENDBRANCH   6   7
BRANCH  22  23
ATOM     23  C   UNL     1      -4.513   2.049  24.754  0.00  0.00    +0.119 C 
BRANCH  23  24
ATOM     24  N   UNL     1      -5.184   1.636  25.000  0.00  0.00    -0.205 NA
ATOM     25  C   UNL     1      -5.834   2.046  25.301  0.00  0.00    +0.242 C 
ATOM     26  C   UNL     1      -6.504   1.633  25.547  0.00  0.00    +0.096 C 
ATOM     27  O   UNL     1      -5.813   2.869  25.355  0.00  0.00    -0.273 OA
ENDBRANCH  23  24
ENDBRANCH  22  23
TORSDOF 5
ENDMDL
MODEL 4
REMARK VINA RESULT:      -8.4      2.528      4.119
REMARK  Name = 
REMARK  5 active torsions:
REMARK  status: ('A' for Active; 'I' for Inactive)
REMARK    1  A    between atoms: C_2  and  C_4
REMARK    2  A    between atoms: C_6  and  C_7
REMARK    3  A    between atoms: C_7  and  C_8
REMARK    4  A    between atoms: C_22  and  C_23
REMARK    5  A    between atoms: C_23  and  N_24
REMARK                            x       y       z     vdW  Elec       q    Type
REMARK                         _______ _______ _______ _____ _____    ______ ____
ROOT
ATOM      4  C   UNL     1      -0.960  -0.079  24.343  0.00  0.00    +0.006 C 
ATOM      5  C   UNL     1      -1.638   0.354  24.530  0.00  0.00    +0.005 C 
ATOM      6  C   UNL     1      -1.734   1.117  24.234  0.00  0.00    +0.027 C 
ATOM     19  C   UNL     1      -1.153   1.449  23.751  0.00  0.00    -0.048 C 
ATOM     20  C   UNL     1      -1.249   2.213  23.456  0.00  0.00    +0.026 C 
ATOM     21  C   UNL     1      -0.475   1.017  23.565  0.00  0.00    -0.033 C 
ATOM     22  C   UNL     1      -0.378   0.253  23.860  0.00  0.00    +0.043 C 
ENDROOT
BRANCH   4   2
ATOM      1  C   UNL     1      -1.069  -1.493  24.175  0.00  0.00    +0.000 C 
ATOM      2  C   UNL     1      -0.863  -0.843  24.639  0.00  0.00    +0.000 C 
ATOM      3  C   UNL     1      -0.561  -0.955  25.399  0.00  0.00    +0.000 C 
ENDBRANCH   4   2
BRANCH   6   7
ATOM      7  C   UNL     1      -2.411   1.550  24.421  0.00  0.00    +0.089 C 
BRANCH   7   8
ATOM      8  C   UNL     1      -3.158   1.230  24.278  0.00  0.00    +0.226 C 
ATOM      9  O   UNL     1      -3.243   0.599  23.754  0.00  0.00    -0.275 OA
ATOM     10  N   UNL     1      -3.819   1.540  24.661  0.00  0.00    -0.276 N 
ATOM     11  C   UNL     1      -3.735   2.171  25.186  0.00  0.00    +0.115 C 
ATOM     12  C   UNL     1      -4.396   2.481  25.568  0.00  0.00    +0.115 C 
ATOM     13  N   UNL     1      -5.144   2.161  25.425  0.00  0.00    -0.276 N 
ATOM     14  C   UNL     1      -5.228   1.531  24.901  0.00  0.00    +0.115 C 
ATOM     15  C   UNL     1      -4.567   1.220  24.518  0.00  0.00    +0.115 C 
ATOM     16  C   UNL     1      -5.805   2.472  25.808  0.00  0.00    +0.226 C 
ATOM     17  C   UNL     1      -6.552   2.152  25.666  0.00  0.00    +0.095 C 
ATOM     18  O   UNL     1      -5.720   3.102  26.333  0.00  0.00    -0.275 OA
ENDBRANCH   7   8
ENDBRANCH   6   7
BRANCH  22  23
ATOM     23  C   UNL     1       0.299  -0.179  23.674  0.00  0.00    +0.119 C 
BRANCH  23  24
ATOM     24  N   UNL     1       0.722  -0.006  22.987  0.00  0.00    -0.205 NA
ATOM     25  C   UNL     1       1.513  -0.233  22.922  0.00  0.00    +0.242 C 
ATOM     26  C   UNL     1       1.936  -0.059  22.235  0.00  0.00    +0.096 C 
ATOM     27  O   UNL     1       1.880  -0.634  23.543  0.00  0.00    -0.273 OA
ENDBRANCH  23  24
ENDBRANCH  22  23
TORSDOF 5
ENDMDL
