MODEL 1
REMARK VINA RESULT:      -7.6      0.000      0.000
REMARK  Name = 
REMARK  6 active torsions:
REMARK  status: ('A' for Active; 'I' for Inactive)
REMARK    1  A    between atoms: N_2  and  C_4
REMARK    2  A    between atoms: C_7  and  C_10
REMARK    3  A    between atoms: N_15  and  C_16
REMARK    4  A    between atoms: C_20  and  N_24
REMARK    5  A    between atoms: N_27  and  C_28
REMARK    6  A    between atoms: C_31  and  C_34
REMARK                            x       y       z     vdW  Elec       q    Type
REMARK                         _______ _______ _______ _____ _____    ______ ____
ROOT
ATOM     16  C   UNL     1      -0.970   0.341  24.334  0.00  0.00    +0.154 C 
ATOM     17  C   UNL     1      -0.904  -0.481  24.306  0.00  0.00    +0.166 C 
ATOM     18  O   UNL     1      -0.221  -0.667  23.883  0.00  0.00    -0.350 OA
ATOM     19  C   UNL     1       0.136   0.039  23.650  0.00  0.00    +0.166 C 
ATOM     20  C   UNL     1       0.778   0.362  23.245  0.00  0.00    +0.156 C 
ATOM     21  C   UNL     1       0.712   1.183  23.274  0.00  0.00    +0.166 C 
ATOM     22  O   UNL     1       0.029   1.369  23.696  0.00  0.00    -0.350 OA
ATOM     23  C   UNL     1      -0.327   0.662  23.929  0.00  0.00    +0.166 C 
ENDROOT
BRANCH  16  15
ATOM     10  C   UNL     1      -3.733   1.040  24.548  0.00  0.00    +0.086 A 
ATOM     11  C   UNL     1      -3.909   0.539  23.916  0.00  0.00    +0.040 A 
ATOM     12  C   UNL     1      -3.306   0.113  23.547  0.00  0.00    +0.103 A 
ATOM     13  N   UNL     1      -2.527   0.189  23.809  0.00  0.00    -0.211 NA
ATOM     14  C   UNL     1      -2.352   0.691  24.441  0.00  0.00    +0.237 A 
ATOM     15  N   UNL     1      -1.573   0.766  24.703  0.00  0.00    -0.200 NA
ATOM     37  N   UNL     1      -2.954   1.116  24.810  0.00  0.00    -0.212 NA
BRANCH  10   7
ATOM      4  C   UNL     1      -5.542   2.317  25.654  0.00  0.00    +0.048 A 
ATOM      5  C   UNL     1      -5.587   1.494  25.605  0.00  0.00    +0.015 A 
ATOM      6  C   UNL     1      -4.985   1.069  25.236  0.00  0.00    +0.003 A 
ATOM      7  C   UNL     1      -4.336   1.465  24.916  0.00  0.00    +0.018 A 
ATOM      8  C   UNL     1      -4.290   2.288  24.965  0.00  0.00    +0.003 A 
ATOM      9  C   UNL     1      -4.893   2.713  25.334  0.00  0.00    +0.015 A 
BRANCH   4   2
ATOM      1  C   UNL     1      -6.628   2.373  26.579  0.00  0.00    +0.112 C 
ATOM      2  N   UNL     1      -6.145   2.742  26.022  0.00  0.00    -0.304 N 
ATOM      3  C   UNL     1      -6.265   3.537  25.834  0.00  0.00    +0.112 C 
ENDBRANCH   4   2
ENDBRANCH  10   7
ENDBRANCH  16  15
BRANCH  20  24
ATOM     24  N   UNL     1       1.381  -0.064  22.876  0.00  0.00    -0.184 NA
ATOM     25  C   UNL     1       2.168   0.071  23.084  0.00  0.00    +0.344 C 
ATOM     26  O   UNL     1       2.352   0.631  23.660  0.00  0.00    -0.249 OA
ATOM     27  N   UNL     1       2.771  -0.354  22.715  0.00  0.00    -0.161 NA
BRANCH  27  28
ATOM     28  C   UNL     1       3.558  -0.220  22.923  0.00  0.00    +0.075 A 
ATOM     29  C   UNL     1       3.955   0.442  22.632  0.00  0.00    +0.017 A 
ATOM     30  C   UNL     1       4.741   0.577  22.839  0.00  0.00    +0.004 A 
ATOM     31  C   UNL     1       5.132   0.049  23.338  0.00  0.00    +0.035 A 
ATOM     32  C   UNL     1       4.736  -0.614  23.630  0.00  0.00    +0.004 A 
ATOM     33  C   UNL     1       3.949  -0.748  23.422  0.00  0.00    +0.017 A 
BRANCH  31  34
ATOM     34  C   UNL     1       5.918   0.183  23.546  0.00  0.00    +0.173 C 
ATOM     35  C   UNL     1       6.097   0.641  24.209  0.00  0.00    +0.077 C 
ATOM     36  O   UNL     1       6.527  -0.141  23.092  0.00  0.00    -0.291 OA
ENDBRANCH  31  34
ENDBRANCH  27  28
ENDBRANCH  20  24
TORSDOF 6
ENDMDL
MODEL 2
REMARK VINA RESULT:      -7.5      1.742      8.230
REMARK  Name = 
REMARK  6 active torsions:
REMARK  status: ('A' for Active; 'I' for Inactive)
REMARK    1  A    between atoms: N_2  and  C_4
REMARK    2  A    between atoms: C_7  and  C_10
REMARK    3  A    between atoms: N_15  and  C_16
REMARK    4  A    between atoms: C_20  and  N_24
REMARK    5  A    between atoms: N_27  and  C_28
REMARK    6  A    between atoms: C_31  and  C_34
REMARK                            x       y       z     vdW  Elec       q    Type
REMARK                         _______ _______ _______ _____ _____    ______ ____
ROOT
ATOM     16  C   UNL     1      -0.094   0.773  23.637  0.00  0.00    +0.154 C 
ATOM     17  C   UNL     1      -0.543   0.127  23.389  0.00  0.00    +0.166 C 
ATOM     18  O   UNL     1      -1.322   0.379  23.296  0.00  0.00    -0.350 OA
ATOM     19  C   UNL     1      -1.356   1.180  23.487  0.00  0.00    +0.166 C 
ATOM     20  C   UNL     1      -1.858   1.832  23.547  0.00  0.00    +0.156 C 
ATOM     21  C   UNL     1      -1.409   2.478  23.795  0.00  0.00    +0.166 C 
ATOM     22  O   UNL     1      -0.629   2.226  23.888  0.00  0.00    -0.350 OA
ATOM     23  C   UNL     1      -0.596   1.424  23.697  0.00  0.00    +0.166 C 
ENDROOT
BRANCH  16  15
ATOM     10  C   UNL     1       2.578   0.113  22.865  0.00  0.00    +0.086 A 
ATOM     11  C   UNL     1       2.295  -0.207  22.159  0.00  0.00    +0.040 A 
ATOM     12  C   UNL     1       1.485  -0.203  22.000  0.00  0.00    +0.103 A 
ATOM     13  N   UNL     1       0.958   0.122  22.545  0.00  0.00    -0.211 NA
ATOM     14  C   UNL     1       1.242   0.443  23.251  0.00  0.00    +0.237 A 
ATOM     15  N   UNL     1       0.716   0.768  23.797  0.00  0.00    -0.200 NA
ATOM     37  N   UNL     1       2.051   0.438  23.411  0.00  0.00    -0.212 NA
BRANCH  10   7
ATOM      4  C   UNL     1       5.006   0.099  23.343  0.00  0.00    +0.048 A 
ATOM      5  C   UNL     1       4.546  -0.561  23.524  0.00  0.00    +0.015 A 
ATOM      6  C   UNL     1       3.737  -0.557  23.365  0.00  0.00    +0.003 A 
ATOM      7  C   UNL     1       3.387   0.108  23.024  0.00  0.00    +0.018 A 
ATOM      8  C   UNL     1       3.846   0.769  22.843  0.00  0.00    +0.003 A 
ATOM      9  C   UNL     1       4.656   0.765  23.003  0.00  0.00    +0.015 A 
BRANCH   4   2
ATOM      1  C   UNL     1       6.329  -0.326  23.013  0.00  0.00    +0.112 C 
ATOM      2  N   UNL     1       5.815   0.095  23.502  0.00  0.00    -0.304 N 
ATOM      3  C   UNL     1       6.111   0.511  24.151  0.00  0.00    +0.112 C 
ENDBRANCH   4   2
ENDBRANCH  10   7
ENDBRANCH  16  15
BRANCH  20  24
ATOM     24  N   UNL     1      -2.667   1.837  23.387  0.00  0.00    -0.184 NA
ATOM     25  C   UNL     1      -3.209   1.919  24.004  0.00  0.00    +0.344 C 
ATOM     26  O   UNL     1      -2.942   1.997  24.780  0.00  0.00    -0.249 OA
ATOM     27  N   UNL     1      -4.018   1.924  23.845  0.00  0.00    -0.161 NA
BRANCH  27  28
ATOM     28  C   UNL     1      -4.560   2.006  24.461  0.00  0.00    +0.075 A 
ATOM     29  C   UNL     1      -4.780   2.757  24.721  0.00  0.00    +0.017 A 
ATOM     30  C   UNL     1      -5.321   2.840  25.337  0.00  0.00    +0.004 A 
ATOM     31  C   UNL     1      -5.645   2.170  25.694  0.00  0.00    +0.035 A 
ATOM     32  C   UNL     1      -5.425   1.418  25.435  0.00  0.00    +0.004 A 
ATOM     33  C   UNL     1      -4.883   1.336  24.818  0.00  0.00    +0.017 A 
BRANCH  31  34
ATOM     34  C   UNL     1      -6.186   2.251  26.310  0.00  0.00    +0.173 C 
ATOM     35  C   UNL     1      -6.608   1.594  26.578  0.00  0.00    +0.077 C 
ATOM     36  O   UNL     1      -6.307   2.989  26.660  0.00  0.00    -0.291 OA
ENDBRANCH  31  34
ENDBRANCH  27  28
ENDBRANCH  20  24
TORSDOF 6
ENDMDL
MODEL 3
REMARK VINA RESULT:      -7.3     16.564     17.693
REMARK  Name = 
REMARK  6 active torsions:
REMARK  status: ('A' for Active; 'I' for Inactive)
REMARK    1  A    between atoms: N_2  and  C_4
REMARK    2  A    between atoms: C_7  and  C_10
REMARK    3  A    between atoms: N_15  and  C_16
REMARK    4  A    between atoms: C_20  and  N_24
REMARK    5  A    between atoms: N_27  and  C_28
REMARK    6  A    between atoms: C_31  and  C_34
REMARK                            x       y       z     vdW  Elec       q    Type
REMARK                         _______ _______ _______ _____ _____    ______ ____
ROOT
ATOM     16  C   UNL     1      15.548  -6.764  28.458  0.00  0.00    +0.154 C 
ATOM     17  C   UNL     1      16.185  -6.357  28.787  0.00  0.00    +0.166 C 
ATOM     18  O   UNL     1      16.652  -6.074  28.169  0.00  0.00    -0.350 OA
ATOM     19  C   UNL     1      16.305  -6.306  27.458  0.00  0.00    +0.166 C 
ATOM     20  C   UNL     1      16.378  -6.276  26.637  0.00  0.00    +0.156 C 
ATOM     21  C   UNL     1      15.741  -6.683  26.308  0.00  0.00    +0.166 C 
ATOM     22  O   UNL     1      15.273  -6.966  26.926  0.00  0.00    -0.350 OA
ATOM     23  C   UNL     1      15.622  -6.733  27.637  0.00  0.00    +0.166 C 
ENDROOT
BRANCH  16  15
ATOM     10  C   UNL     1      13.564  -6.713  30.515  0.00  0.00    +0.086 A 
ATOM     11  C   UNL     1      13.782  -5.940  30.705  0.00  0.00    +0.040 A 
ATOM     12  C   UNL     1      14.387  -5.567  30.286  0.00  0.00    +0.103 A 
ATOM     13  N   UNL     1      14.774  -5.966  29.677  0.00  0.00    -0.211 NA
ATOM     14  C   UNL     1      14.555  -6.739  29.486  0.00  0.00    +0.237 A 
ATOM     15  N   UNL     1      14.943  -7.138  28.876  0.00  0.00    -0.200 NA
ATOM     37  N   UNL     1      13.951  -7.111  29.905  0.00  0.00    -0.212 NA
BRANCH  10   7
ATOM      4  C   UNL     1      11.748  -7.831  31.771  0.00  0.00    +0.048 A 
ATOM      5  C   UNL     1      12.537  -7.994  31.952  0.00  0.00    +0.015 A 
ATOM      6  C   UNL     1      13.142  -7.621  31.533  0.00  0.00    +0.003 A 
ATOM      7  C   UNL     1      12.959  -7.085  30.933  0.00  0.00    +0.018 A 
ATOM      8  C   UNL     1      12.171  -6.922  30.752  0.00  0.00    +0.003 A 
ATOM      9  C   UNL     1      11.565  -7.295  31.171  0.00  0.00    +0.015 A 
BRANCH   4   2
ATOM      1  C   UNL     1      10.681  -7.772  32.719  0.00  0.00    +0.112 C 
ATOM      2  N   UNL     1      11.143  -8.204  32.190  0.00  0.00    -0.304 N 
ATOM      3  C   UNL     1      11.000  -9.009  32.080  0.00  0.00    +0.112 C 
ENDBRANCH   4   2
ENDBRANCH  10   7
ENDBRANCH  16  15
BRANCH  20  24
ATOM     24  N   UNL     1      16.983  -5.902  26.218  0.00  0.00    -0.184 NA
ATOM     25  C   UNL     1      16.801  -5.334  25.649  0.00  0.00    +0.344 C 
ATOM     26  O   UNL     1      16.014  -5.138  25.498  0.00  0.00    -0.249 OA
ATOM     27  N   UNL     1      17.405  -4.960  25.230  0.00  0.00    -0.161 NA
BRANCH  27  28
ATOM     28  C   UNL     1      17.223  -4.392  24.661  0.00  0.00    +0.075 A 
ATOM     29  C   UNL     1      17.141  -4.610  23.870  0.00  0.00    +0.017 A 
ATOM     30  C   UNL     1      16.959  -4.042  23.302  0.00  0.00    +0.004 A 
ATOM     31  C   UNL     1      16.860  -3.253  23.523  0.00  0.00    +0.035 A 
ATOM     32  C   UNL     1      16.943  -3.034  24.315  0.00  0.00    +0.004 A 
ATOM     33  C   UNL     1      17.124  -3.603  24.883  0.00  0.00    +0.017 A 
BRANCH  31  34
ATOM     34  C   UNL     1      16.678  -2.685  22.955  0.00  0.00    +0.173 C 
ATOM     35  C   UNL     1      15.900  -2.423  22.868  0.00  0.00    +0.077 C 
ATOM     36  O   UNL     1      17.273  -2.377  22.473  0.00  0.00    -0.291 OA
ENDBRANCH  31  34
ENDBRANCH  27  28
ENDBRANCH  20  24
TORSDOF 6
ENDMDL
MODEL 4
REMARK VINA RESULT:      -5.9     17.456     19.526
REMARK  Name = 
REMARK  6 active torsions:
REMARK  status: ('A' for Active; 'I' for Inactive)
REMARK    1  A    between atoms: N_2  and  C_4
REMARK    2  A    between atoms: C_7  and  C_10
REMARK    3  A    between atoms: N_15  and  C_16
REMARK    4  A    between atoms: C_20  and  N_24
REMARK    5  A    between atoms: N_27  and  C_28
REMARK    6  A    between atoms: C_31  and  C_34
REMARK                            x       y       z     vdW  Elec       q    Type
REMARK                         _______ _______ _______ _____ _____    ______ ____
ROOT
ATOM     16  C   UNL     1      17.084  -7.254  26.695  0.00  0.00    +0.154 C 
ATOM     17  C   UNL     1      17.045  -7.755  26.040  0.00  0.00    +0.166 C 
ATOM     18  O   UNL     1      17.017  -7.285  25.363  0.00  0.00    -0.350 OA
ATOM     19  C   UNL     1      17.038  -6.496  25.598  0.00  0.00    +0.166 C 
ATOM     20  C   UNL     1      17.034  -5.717  25.326  0.00  0.00    +0.156 C 
ATOM     21  C   UNL     1      17.073  -5.216  25.980  0.00  0.00    +0.166 C 
ATOM     22  O   UNL     1      17.101  -5.686  26.658  0.00  0.00    -0.350 OA
ATOM     23  C   UNL     1      17.080  -6.476  26.422  0.00  0.00    +0.166 C 
ENDROOT
BRANCH  16  15
ATOM     10  C   UNL     1      16.210  -8.967  28.810  0.00  0.00    +0.086 A 
ATOM     11  C   UNL     1      15.699  -9.351  28.288  0.00  0.00    +0.040 A 
ATOM     12  C   UNL     1      15.662  -9.114  27.498  0.00  0.00    +0.103 A 
ATOM     13  N   UNL     1      16.136  -8.494  27.230  0.00  0.00    -0.211 NA
ATOM     14  C   UNL     1      16.647  -8.111  27.753  0.00  0.00    +0.237 A 
ATOM     15  N   UNL     1      17.122  -7.491  27.485  0.00  0.00    -0.200 NA
ATOM     37  N   UNL     1      16.684  -8.348  28.542  0.00  0.00    -0.212 NA
BRANCH  10   7
ATOM      4  C   UNL     1      16.321  -9.678  31.178  0.00  0.00    +0.048 A 
ATOM      5  C   UNL     1      15.715  -9.179  30.924  0.00  0.00    +0.015 A 
ATOM      6  C   UNL     1      15.678  -8.942  30.135  0.00  0.00    +0.003 A 
ATOM      7  C   UNL     1      16.247  -9.204  29.598  0.00  0.00    +0.018 A 
ATOM      8  C   UNL     1      16.853  -9.703  29.851  0.00  0.00    +0.003 A 
ATOM      9  C   UNL     1      16.891  -9.940  30.641  0.00  0.00    +0.015 A 
BRANCH   4   2
ATOM      1  C   UNL     1      16.040  -9.434  32.557  0.00  0.00    +0.112 C 
ATOM      2  N   UNL     1      16.358  -9.915  31.967  0.00  0.00    -0.304 N 
ATOM      3  C   UNL     1      16.714 -10.632  32.167  0.00  0.00    +0.112 C 
ENDBRANCH   4   2
ENDBRANCH  10   7
ENDBRANCH  16  15
BRANCH  20  24
ATOM     24  N   UNL     1      16.997  -5.480  24.536  0.00  0.00    -0.184 NA
ATOM     25  C   UNL     1      16.903  -4.682  24.348  0.00  0.00    +0.344 C 
ATOM     26  O   UNL     1      16.846  -4.121  24.950  0.00  0.00    -0.249 OA
ATOM     27  N   UNL     1      16.865  -4.445  23.559  0.00  0.00    -0.161 NA
BRANCH  27  28
ATOM     28  C   UNL     1      16.771  -3.647  23.371  0.00  0.00    +0.075 A 
ATOM     29  C   UNL     1      17.405  -3.218  23.065  0.00  0.00    +0.017 A 
ATOM     30  C   UNL     1      17.311  -2.421  22.877  0.00  0.00    +0.004 A 
ATOM     31  C   UNL     1      16.583  -2.052  22.996  0.00  0.00    +0.035 A 
ATOM     32  C   UNL     1      15.948  -2.481  23.302  0.00  0.00    +0.004 A 
ATOM     33  C   UNL     1      16.043  -3.279  23.490  0.00  0.00    +0.017 A 
BRANCH  31  34
ATOM     34  C   UNL     1      16.488  -1.255  22.808  0.00  0.00    +0.173 C 
ATOM     35  C   UNL     1      17.030  -0.699  23.087  0.00  0.00    +0.077 C 
ATOM     36  O   UNL     1      15.851  -1.013  22.342  0.00  0.00    -0.291 OA
ENDBRANCH  31  34
ENDBRANCH  27  28
ENDBRANCH  20  24
TORSDOF 6
ENDMDL
