MODEL 1
REMARK VINA RESULT:     -11.9      0.000      0.000
REMARK  Name = 
REMARK  6 active torsions:
REMARK  status: ('A' for Active; 'I' for Inactive)
REMARK    1  A    between atoms: C_2  and  C_3
REMARK    2  A    between atoms: C_3  and  O_4
REMARK    3  A    between atoms: O_4  and  C_5
REMARK    4  A    between atoms: N_11  and  C_12
REMARK    5  A    between atoms: C_16  and  N_20
REMARK    6  A    between atoms: C_24  and  C_25
REMARK                            x       y       z     vdW  Elec       q    Type
REMARK                         _______ _______ _______ _____ _____    ______ ____
ROOT
ATOM     12  C   UNL     1      -1.196   0.846  24.819  0.00  0.00    +0.154 C 
ATOM     13  C   UNL     1      -0.661   1.062  25.408  0.00  0.00    +0.166 C 
ATOM     14  O   UNL     1      -0.595   1.884  25.403  0.00  0.00    -0.350 OA
ATOM     15  C   UNL     1      -1.089   2.177  24.810  0.00  0.00    +0.169 C 
ATOM     16  C   UNL     1      -1.353   2.865  24.442  0.00  0.00    +0.167 C 
ATOM     17  C   UNL     1      -1.888   2.649  23.852  0.00  0.00    +0.169 C 
ATOM     18  O   UNL     1      -1.955   1.827  23.857  0.00  0.00    -0.350 OA
ATOM     19  C   UNL     1      -1.461   1.535  24.449  0.00  0.00    +0.167 C 
ENDROOT
BRANCH  16  20
ATOM     20  N   UNL     1      -1.123   3.635  24.629  0.00  0.00    -0.210 N 
ATOM     21  N   UNL     1      -0.397   3.983  24.444  0.00  0.00    -0.043 NA
ATOM     22  N   UNL     1      -0.403   4.754  24.734  0.00  0.00    -0.023 NA
ATOM     23  N   UNL     1      -1.132   4.884  25.098  0.00  0.00    -0.108 NA
ATOM     24  C   UNL     1      -1.577   4.193  25.033  0.00  0.00    +0.184 A 
BRANCH  24  25
ATOM     25  C   UNL     1      -2.341   4.079  25.321  0.00  0.00    +0.041 A 
ATOM     26  C   UNL     1      -2.984   4.106  24.807  0.00  0.00    +0.043 A 
ATOM     27  C   UNL     1      -3.749   3.992  25.094  0.00  0.00    +0.177 A 
ATOM     28  C   UNL     1      -3.870   3.851  25.898  0.00  0.00    +0.176 A 
ATOM     29  O   UNL     1      -4.680   3.760  26.022  0.00  0.00    -0.435 OA
ATOM     30  C   UNL     1      -5.060   3.844  25.296  0.00  0.00    +0.429 C 
ATOM     31  O   UNL     1      -4.485   3.988  24.723  0.00  0.00    -0.435 OA
ATOM     32  C   UNL     1      -3.226   3.824  26.414  0.00  0.00    +0.040 A 
ATOM     33  C   UNL     1      -2.462   3.938  26.125  0.00  0.00    +0.006 A 
ENDBRANCH  24  25
ENDBRANCH  16  20
BRANCH  12  11
ATOM      1  O   UNL     1      -1.758  -0.158  26.001  0.00  0.00    -0.269 OA
ATOM      2  C   UNL     1      -1.708  -0.425  25.223  0.00  0.00    +0.286 C 
ATOM     11  N   UNL     1      -1.427   0.077  24.631  0.00  0.00    -0.199 NA
BRANCH   2   3
ATOM      3  C   UNL     1      -1.939  -1.195  25.035  0.00  0.00    +0.291 C 
BRANCH   3   4
ATOM      4  O   UNL     1      -2.650  -1.495  25.328  0.00  0.00    -0.466 OA
BRANCH   4   5
ATOM      5  C   UNL     1      -3.119  -1.981  24.855  0.00  0.00    +0.139 A 
ATOM      6  C   UNL     1      -2.948  -2.785  24.792  0.00  0.00    +0.037 A 
ATOM      7  C   UNL     1      -3.416  -3.272  24.318  0.00  0.00    +0.003 A 
ATOM      8  C   UNL     1      -4.058  -2.953  23.908  0.00  0.00    +0.000 A 
ATOM      9  C   UNL     1      -4.229  -2.149  23.971  0.00  0.00    +0.003 A 
ATOM     10  C   UNL     1      -3.760  -1.663  24.444  0.00  0.00    +0.037 A 
ENDBRANCH   4   5
ENDBRANCH   3   4
ENDBRANCH   2   3
ENDBRANCH  12  11
TORSDOF 6
ENDMDL
MODEL 2
REMARK VINA RESULT:     -11.2      2.820      5.187
REMARK  Name = 
REMARK  6 active torsions:
REMARK  status: ('A' for Active; 'I' for Inactive)
REMARK    1  A    between atoms: C_2  and  C_3
REMARK    2  A    between atoms: C_3  and  O_4
REMARK    3  A    between atoms: O_4  and  C_5
REMARK    4  A    between atoms: N_11  and  C_12
REMARK    5  A    between atoms: C_16  and  N_20
REMARK    6  A    between atoms: C_24  and  C_25
REMARK                            x       y       z     vdW  Elec       q    Type
REMARK                         _______ _______ _______ _____ _____    ______ ____
ROOT
ATOM     12  C   UNL     1      -0.461   0.795  23.875  0.00  0.00    +0.154 C 
ATOM     13  C   UNL     1      -0.851   1.088  23.210  0.00  0.00    +0.166 C 
ATOM     14  O   UNL     1      -1.646   1.188  23.405  0.00  0.00    -0.350 OA
ATOM     15  C   UNL     1      -1.748   0.956  24.191  0.00  0.00    +0.169 C 
ATOM     16  C   UNL     1      -2.301   0.875  24.796  0.00  0.00    +0.167 C 
ATOM     17  C   UNL     1      -1.911   0.582  25.461  0.00  0.00    +0.169 C 
ATOM     18  O   UNL     1      -1.116   0.482  25.266  0.00  0.00    -0.350 OA
ATOM     19  C   UNL     1      -1.014   0.714  24.481  0.00  0.00    +0.167 C 
ENDROOT
BRANCH  16  20
ATOM     20  N   UNL     1      -3.105   1.054  24.746  0.00  0.00    -0.210 N 
ATOM     21  N   UNL     1      -3.428   1.805  24.626  0.00  0.00    -0.043 NA
ATOM     22  N   UNL     1      -4.249   1.730  24.613  0.00  0.00    -0.023 NA
ATOM     23  N   UNL     1      -4.434   0.934  24.725  0.00  0.00    -0.108 NA
ATOM     24  C   UNL     1      -3.728   0.516  24.807  0.00  0.00    +0.184 A 
BRANCH  24  25
ATOM     25  C   UNL     1      -3.656  -0.296  24.930  0.00  0.00    +0.041 A 
ATOM     26  C   UNL     1      -3.686  -0.814  24.289  0.00  0.00    +0.043 A 
ATOM     27  C   UNL     1      -3.614  -1.627  24.411  0.00  0.00    +0.177 A 
ATOM     28  C   UNL     1      -3.513  -1.921  25.174  0.00  0.00    +0.176 A 
ATOM     29  O   UNL     1      -3.458  -2.743  25.126  0.00  0.00    -0.435 OA
ATOM     30  C   UNL     1      -3.526  -2.956  24.332  0.00  0.00    +0.429 C 
ATOM     31  O   UNL     1      -3.622  -2.266  23.891  0.00  0.00    -0.435 OA
ATOM     32  C   UNL     1      -3.483  -1.403  25.816  0.00  0.00    +0.040 A 
ATOM     33  C   UNL     1      -3.555  -0.591  25.693  0.00  0.00    +0.006 A 
ENDBRANCH  24  25
ENDBRANCH  16  20
BRANCH  12  11
ATOM      1  O   UNL     1       0.311   0.099  22.594  0.00  0.00    -0.269 OA
ATOM      2  C   UNL     1       0.729   0.267  23.285  0.00  0.00    +0.286 C 
ATOM     11  N   UNL     1       0.343   0.615  23.926  0.00  0.00    -0.199 NA
BRANCH   2   3
ATOM      3  C   UNL     1       1.532   0.087  23.335  0.00  0.00    +0.291 C 
BRANCH   3   4
ATOM      4  O   UNL     1       2.026   0.219  22.688  0.00  0.00    -0.466 OA
BRANCH   4   5
ATOM      5  C   UNL     1       2.843   0.257  22.792  0.00  0.00    +0.139 A 
ATOM      6  C   UNL     1       3.244   0.966  22.662  0.00  0.00    +0.037 A 
ATOM      7  C   UNL     1       4.061   1.005  22.767  0.00  0.00    +0.003 A 
ATOM      8  C   UNL     1       4.478   0.333  23.002  0.00  0.00    +0.000 A 
ATOM      9  C   UNL     1       4.078  -0.377  23.132  0.00  0.00    +0.003 A 
ATOM     10  C   UNL     1       3.261  -0.414  23.027  0.00  0.00    +0.037 A 
ENDBRANCH   4   5
ENDBRANCH   3   4
ENDBRANCH   2   3
ENDBRANCH  12  11
TORSDOF 6
ENDMDL
MODEL 3
REMARK VINA RESULT:     -10.7      1.979      5.860
REMARK  Name = 
REMARK  6 active torsions:
REMARK  status: ('A' for Active; 'I' for Inactive)
REMARK    1  A    between atoms: C_2  and  C_3
REMARK    2  A    between atoms: C_3  and  O_4
REMARK    3  A    between atoms: O_4  and  C_5
REMARK    4  A    between atoms: N_11  and  C_12
REMARK    5  A    between atoms: C_16  and  N_20
REMARK    6  A    between atoms: C_24  and  C_25
REMARK                            x       y       z     vdW  Elec       q    Type
REMARK                         _______ _______ _______ _____ _____    ______ ____
ROOT
ATOM     12  C   UNL     1      -3.964   1.667  24.537  0.00  0.00    +0.154 C 
ATOM     13  C   UNL     1      -4.598   1.390  24.985  0.00  0.00    +0.166 C 
ATOM     14  O   UNL     1      -4.655   0.575  24.870  0.00  0.00    -0.350 OA
ATOM     15  C   UNL     1      -4.056   0.348  24.350  0.00  0.00    +0.169 C 
ATOM     16  C   UNL     1      -3.722  -0.295  23.958  0.00  0.00    +0.167 C 
ATOM     17  C   UNL     1      -3.087  -0.018  23.509  0.00  0.00    +0.169 C 
ATOM     18  O   UNL     1      -3.030   0.796  23.624  0.00  0.00    -0.350 OA
ATOM     19  C   UNL     1      -3.629   1.023  24.144  0.00  0.00    +0.167 C 
ENDROOT
BRANCH  16  20
ATOM     20  N   UNL     1      -3.976  -1.079  24.006  0.00  0.00    -0.210 N 
ATOM     21  N   UNL     1      -4.679  -1.381  23.694  0.00  0.00    -0.043 NA
ATOM     22  N   UNL     1      -4.710  -2.186  23.868  0.00  0.00    -0.023 NA
ATOM     23  N   UNL     1      -4.028  -2.382  24.288  0.00  0.00    -0.108 NA
ATOM     24  C   UNL     1      -3.574  -1.699  24.373  0.00  0.00    +0.184 A 
BRANCH  24  25
ATOM     25  C   UNL     1      -2.847  -1.644  24.758  0.00  0.00    +0.041 A 
ATOM     26  C   UNL     1      -2.148  -1.750  24.335  0.00  0.00    +0.043 A 
ATOM     27  C   UNL     1      -1.420  -1.695  24.719  0.00  0.00    +0.177 A 
ATOM     28  C   UNL     1      -1.392  -1.534  25.528  0.00  0.00    +0.176 A 
ATOM     29  O   UNL     1      -0.600  -1.513  25.757  0.00  0.00    -0.435 OA
ATOM     30  C   UNL     1      -0.138  -1.660  25.090  0.00  0.00    +0.429 C 
ATOM     31  O   UNL     1      -0.645  -1.773  24.449  0.00  0.00    -0.435 OA
ATOM     32  C   UNL     1      -2.092  -1.428  25.952  0.00  0.00    +0.040 A 
ATOM     33  C   UNL     1      -2.819  -1.483  25.567  0.00  0.00    +0.006 A 
ENDBRANCH  24  25
ENDBRANCH  16  20
BRANCH  12  11
ATOM      1  O   UNL     1      -3.716   2.539  25.915  0.00  0.00    -0.269 OA
ATOM      2  C   UNL     1      -3.585   2.886  25.178  0.00  0.00    +0.286 C 
ATOM     11  N   UNL     1      -3.708   2.450  24.489  0.00  0.00    -0.199 NA
BRANCH   2   3
ATOM      3  C   UNL     1      -3.329   3.669  25.130  0.00  0.00    +0.291 C 
BRANCH   3   4
ATOM      4  O   UNL     1      -2.770   3.954  25.666  0.00  0.00    -0.466 OA
BRANCH   4   5
ATOM      5  C   UNL     1      -2.142   4.418  25.400  0.00  0.00    +0.139 A 
ATOM      6  C   UNL     1      -1.403   4.075  25.271  0.00  0.00    +0.037 A 
ATOM      7  C   UNL     1      -0.774   4.538  25.005  0.00  0.00    +0.003 A 
ATOM      8  C   UNL     1      -0.885   5.344  24.867  0.00  0.00    +0.000 A 
ATOM      9  C   UNL     1      -1.624   5.687  24.996  0.00  0.00    +0.003 A 
ATOM     10  C   UNL     1      -2.253   5.223  25.262  0.00  0.00    +0.037 A 
ENDBRANCH   4   5
ENDBRANCH   3   4
ENDBRANCH   2   3
ENDBRANCH  12  11
TORSDOF 6
ENDMDL
MODEL 4
REMARK VINA RESULT:     -10.7      1.499      2.859
REMARK  Name = 
REMARK  6 active torsions:
REMARK  status: ('A' for Active; 'I' for Inactive)
REMARK    1  A    between atoms: C_2  and  C_3
REMARK    2  A    between atoms: C_3  and  O_4
REMARK    3  A    between atoms: O_4  and  C_5
REMARK    4  A    between atoms: N_11  and  C_12
REMARK    5  A    between atoms: C_16  and  N_20
REMARK    6  A    between atoms: C_24  and  C_25
REMARK                            x       y       z     vdW  Elec       q    Type
REMARK                         _______ _______ _______ _____ _____    ______ ____
ROOT
ATOM     12  C   UNL     1      -3.775   2.017  24.299  0.00  0.00    +0.154 C 
ATOM     13  C   UNL     1      -3.698   2.461  23.608  0.00  0.00    +0.166 C 
ATOM     14  O   UNL     1      -3.255   3.134  23.786  0.00  0.00    -0.350 OA
ATOM     15  C   UNL     1      -3.058   3.106  24.587  0.00  0.00    +0.169 C 
ATOM     16  C   UNL     1      -2.664   3.505  25.191  0.00  0.00    +0.167 C 
ATOM     17  C   UNL     1      -2.741   3.061  25.882  0.00  0.00    +0.169 C 
ATOM     18  O   UNL     1      -3.183   2.388  25.705  0.00  0.00    -0.350 OA
ATOM     19  C   UNL     1      -3.380   2.415  24.904  0.00  0.00    +0.167 C 
ENDROOT
BRANCH  16  20
ATOM     20  N   UNL     1      -2.262   4.222  25.118  0.00  0.00    -0.210 N 
ATOM     21  N   UNL     1      -2.609   4.969  25.064  0.00  0.00    -0.043 NA
ATOM     22  N   UNL     1      -2.005   5.527  24.998  0.00  0.00    -0.023 NA
ATOM     23  N   UNL     1      -1.285   5.124  25.012  0.00  0.00    -0.108 NA
ATOM     24  C   UNL     1      -1.443   4.318  25.086  0.00  0.00    +0.184 A 
BRANCH  24  25
ATOM     25  C   UNL     1      -0.882   3.715  25.121  0.00  0.00    +0.041 A 
ATOM     26  C   UNL     1      -0.596   3.376  24.426  0.00  0.00    +0.043 A 
ATOM     27  C   UNL     1      -0.035   2.773  24.461  0.00  0.00    +0.177 A 
ATOM     28  C   UNL     1       0.241   2.508  25.193  0.00  0.00    +0.176 A 
ATOM     29  O   UNL     1       0.791   1.909  25.057  0.00  0.00    -0.435 OA
ATOM     30  C   UNL     1       0.856   1.803  24.242  0.00  0.00    +0.429 C 
ATOM     31  O   UNL     1       0.345   2.337  23.874  0.00  0.00    -0.435 OA
ATOM     32  C   UNL     1      -0.046   2.847  25.889  0.00  0.00    +0.040 A 
ATOM     33  C   UNL     1      -0.607   3.451  25.853  0.00  0.00    +0.006 A 
ENDBRANCH  24  25
ENDBRANCH  16  20
BRANCH  12  11
ATOM      1  O   UNL     1      -3.229   0.680  23.501  0.00  0.00    -0.269 OA
ATOM      2  C   UNL     1      -3.903   0.631  23.974  0.00  0.00    +0.286 C 
ATOM     11  N   UNL     1      -4.176   1.300  24.373  0.00  0.00    -0.199 NA
BRANCH   2   3
ATOM      3  C   UNL     1      -4.304  -0.085  24.048  0.00  0.00    +0.291 C 
BRANCH   3   4
ATOM      4  O   UNL     1      -4.166  -0.570  24.702  0.00  0.00    -0.466 OA
BRANCH   4   5
ATOM      5  C   UNL     1      -3.993  -1.369  24.595  0.00  0.00    +0.139 A 
ATOM      6  C   UNL     1      -3.469  -1.750  25.105  0.00  0.00    +0.037 A 
ATOM      7  C   UNL     1      -3.295  -2.549  24.998  0.00  0.00    +0.003 A 
ATOM      8  C   UNL     1      -3.647  -2.968  24.380  0.00  0.00    +0.000 A 
ATOM      9  C   UNL     1      -4.172  -2.588  23.870  0.00  0.00    +0.003 A 
ATOM     10  C   UNL     1      -4.345  -1.788  23.978  0.00  0.00    +0.037 A 
ENDBRANCH   4   5
ENDBRANCH   3   4
ENDBRANCH   2   3
ENDBRANCH  12  11
TORSDOF 6
ENDMDL
MODEL 5
REMARK VINA RESULT:     -10.6      3.013      4.830
REMARK  Name = 
REMARK  6 active torsions:
REMARK  status: ('A' for Active; 'I' for Inactive)
REMARK    1  A    between atoms: C_2  and  C_3
REMARK    2  A    between atoms: C_3  and  O_4
REMARK    3  A    between atoms: O_4  and  C_5
REMARK    4  A    between atoms: N_11  and  C_12
REMARK    5  A    between atoms: C_16  and  N_20
REMARK    6  A    between atoms: C_24  and  C_25
REMARK                            x       y       z     vdW  Elec       q    Type
REMARK                         _______ _______ _______ _____ _____    ______ ____
ROOT
ATOM     12  C   UNL     1      -0.042  -0.090  24.111  0.00  0.00    +0.154 C 
ATOM     13  C   UNL     1      -0.344  -0.793  23.801  0.00  0.00    +0.166 C 
ATOM     14  O   UNL     1      -1.104  -0.898  24.105  0.00  0.00    -0.350 OA
ATOM     15  C   UNL     1      -1.272  -0.262  24.602  0.00  0.00    +0.169 C 
ATOM     16  C   UNL     1      -1.844   0.066  25.096  0.00  0.00    +0.167 C 
ATOM     17  C   UNL     1      -1.542   0.768  25.406  0.00  0.00    +0.169 C 
ATOM     18  O   UNL     1      -0.783   0.874  25.103  0.00  0.00    -0.350 OA
ATOM     19  C   UNL     1      -0.615   0.238  24.606  0.00  0.00    +0.167 C 
ENDROOT
BRANCH  16  20
ATOM     20  N   UNL     1      -2.589  -0.253  25.254  0.00  0.00    -0.210 N 
ATOM     21  N   UNL     1      -2.740  -0.955  25.661  0.00  0.00    -0.043 NA
ATOM     22  N   UNL     1      -3.557  -1.062  25.691  0.00  0.00    -0.023 NA
ATOM     23  N   UNL     1      -3.911  -0.425  25.303  0.00  0.00    -0.108 NA
ATOM     24  C   UNL     1      -3.314   0.074  25.032  0.00  0.00    +0.184 A 
BRANCH  24  25
ATOM     25  C   UNL     1      -3.421   0.777  24.615  0.00  0.00    +0.041 A 
ATOM     26  C   UNL     1      -3.514   1.488  25.022  0.00  0.00    +0.043 A 
ATOM     27  C   UNL     1      -3.621   2.192  24.604  0.00  0.00    +0.177 A 
ATOM     28  C   UNL     1      -3.635   2.184  23.779  0.00  0.00    +0.176 A 
ATOM     29  O   UNL     1      -3.750   2.957  23.518  0.00  0.00    -0.435 OA
ATOM     30  C   UNL     1      -3.807   3.444  24.181  0.00  0.00    +0.429 C 
ATOM     31  O   UNL     1      -3.727   2.971  24.852  0.00  0.00    -0.435 OA
ATOM     32  C   UNL     1      -3.542   1.471  23.372  0.00  0.00    +0.040 A 
ATOM     33  C   UNL     1      -3.435   0.769  23.790  0.00  0.00    +0.006 A 
ENDBRANCH  24  25
ENDBRANCH  16  20
BRANCH  12  11
ATOM      1  O   UNL     1       0.690  -0.380  22.661  0.00  0.00    -0.269 OA
ATOM      2  C   UNL     1       1.068   0.084  23.229  0.00  0.00    +0.286 C 
ATOM     11  N   UNL     1       0.702   0.229  23.954  0.00  0.00    -0.199 NA
BRANCH   2   3
ATOM      3  C   UNL     1       1.813   0.403  23.072  0.00  0.00    +0.291 C 
BRANCH   3   4
ATOM      4  O   UNL     1       2.402  -0.070  22.740  0.00  0.00    -0.466 OA
BRANCH   4   5
ATOM      5  C   UNL     1       3.197   0.131  22.838  0.00  0.00    +0.139 A 
ATOM      6  C   UNL     1       3.714  -0.397  23.204  0.00  0.00    +0.037 A 
ATOM      7  C   UNL     1       4.508  -0.197  23.302  0.00  0.00    +0.003 A 
ATOM      8  C   UNL     1       4.785   0.533  23.033  0.00  0.00    +0.000 A 
ATOM      9  C   UNL     1       4.268   1.061  22.667  0.00  0.00    +0.003 A 
ATOM     10  C   UNL     1       3.474   0.860  22.570  0.00  0.00    +0.037 A 
ENDBRANCH   4   5
ENDBRANCH   3   4
ENDBRANCH   2   3
ENDBRANCH  12  11
TORSDOF 6
ENDMDL
MODEL 6
REMARK VINA RESULT:     -10.2      2.881      4.408
REMARK  Name = 
REMARK  6 active torsions:
REMARK  status: ('A' for Active; 'I' for Inactive)
REMARK    1  A    between atoms: C_2  and  C_3
REMARK    2  A    between atoms: C_3  and  O_4
REMARK    3  A    between atoms: O_4  and  C_5
REMARK    4  A    between atoms: N_11  and  C_12
REMARK    5  A    between atoms: C_16  and  N_20
REMARK    6  A    between atoms: C_24  and  C_25
REMARK                            x       y       z     vdW  Elec       q    Type
REMARK                         _______ _______ _______ _____ _____    ______ ____
ROOT
ATOM     12  C   UNL     1      -0.463   0.695  23.863  0.00  0.00    +0.154 C 
ATOM     13  C   UNL     1      -0.630   0.147  24.456  0.00  0.00    +0.166 C 
ATOM     14  O   UNL     1      -1.448   0.125  24.559  0.00  0.00    -0.350 OA
ATOM     15  C   UNL     1      -1.787   0.659  24.030  0.00  0.00    +0.169 C 
ATOM     16  C   UNL     1      -2.501   0.975  23.766  0.00  0.00    +0.167 C 
ATOM     17  C   UNL     1      -2.334   1.523  23.173  0.00  0.00    +0.169 C 
ATOM     18  O   UNL     1      -1.517   1.546  23.069  0.00  0.00    -0.350 OA
ATOM     19  C   UNL     1      -1.178   1.011  23.599  0.00  0.00    +0.167 C 
ENDROOT
BRANCH  16  20
ATOM     20  N   UNL     1      -3.252   0.778  24.047  0.00  0.00    -0.210 N 
ATOM     21  N   UNL     1      -3.606   0.034  24.006  0.00  0.00    -0.043 NA
ATOM     22  N   UNL     1      -4.353   0.086  24.351  0.00  0.00    -0.023 NA
ATOM     23  N   UNL     1      -4.461   0.863  24.605  0.00  0.00    -0.108 NA
ATOM     24  C   UNL     1      -3.782   1.291  24.418  0.00  0.00    +0.184 A 
BRANCH  24  25
ATOM     25  C   UNL     1      -3.654   2.091  24.573  0.00  0.00    +0.041 A 
ATOM     26  C   UNL     1      -3.296   2.322  25.279  0.00  0.00    +0.043 A 
ATOM     27  C   UNL     1      -3.167   3.122  25.435  0.00  0.00    +0.177 A 
ATOM     28  C   UNL     1      -3.398   3.691  24.884  0.00  0.00    +0.176 A 
ATOM     29  O   UNL     1      -3.202   4.432  25.187  0.00  0.00    -0.435 OA
ATOM     30  C   UNL     1      -2.851   4.322  25.925  0.00  0.00    +0.429 C 
ATOM     31  O   UNL     1      -2.830   3.512  26.078  0.00  0.00    -0.435 OA
ATOM     32  C   UNL     1      -3.757   3.460  24.177  0.00  0.00    +0.040 A 
ATOM     33  C   UNL     1      -3.884   2.660  24.023  0.00  0.00    +0.006 A 
ENDBRANCH  24  25
ENDBRANCH  16  20
BRANCH  12  11
ATOM      1  O   UNL     1       0.588  -0.495  23.415  0.00  0.00    -0.269 OA
ATOM      2  C   UNL     1       0.813   0.297  23.358  0.00  0.00    +0.286 C 
ATOM     11  N   UNL     1       0.287   0.892  23.582  0.00  0.00    -0.199 NA
BRANCH   2   3
ATOM      3  C   UNL     1       1.563   0.494  23.077  0.00  0.00    +0.291 C 
BRANCH   3   4
ATOM      4  O   UNL     1       2.126  -0.097  22.955  0.00  0.00    -0.466 OA
BRANCH   4   5
ATOM      5  C   UNL     1       2.928   0.095  22.935  0.00  0.00    +0.139 A 
ATOM      6  C   UNL     1       3.488  -0.439  23.222  0.00  0.00    +0.037 A 
ATOM      7  C   UNL     1       4.290  -0.248  23.202  0.00  0.00    +0.003 A 
ATOM      8  C   UNL     1       4.533   0.479  22.894  0.00  0.00    +0.000 A 
ATOM      9  C   UNL     1       3.974   1.013  22.607  0.00  0.00    +0.003 A 
ATOM     10  C   UNL     1       3.171   0.821  22.628  0.00  0.00    +0.037 A 
ENDBRANCH   4   5
ENDBRANCH   3   4
ENDBRANCH   2   3
ENDBRANCH  12  11
TORSDOF 6
ENDMDL
MODEL 7
REMARK VINA RESULT:     -10.1      1.936      5.359
REMARK  Name = 
REMARK  6 active torsions:
REMARK  status: ('A' for Active; 'I' for Inactive)
REMARK    1  A    between atoms: C_2  and  C_3
REMARK    2  A    between atoms: C_3  and  O_4
REMARK    3  A    between atoms: O_4  and  C_5
REMARK    4  A    between atoms: N_11  and  C_12
REMARK    5  A    between atoms: C_16  and  N_20
REMARK    6  A    between atoms: C_24  and  C_25
REMARK                            x       y       z     vdW  Elec       q    Type
REMARK                         _______ _______ _______ _____ _____    ______ ____
ROOT
ATOM     12  C   UNL     1      -0.307   1.006  24.502  0.00  0.00    +0.154 C 
ATOM     13  C   UNL     1      -0.177   0.626  23.781  0.00  0.00    +0.166 C 
ATOM     14  O   UNL     1      -0.422  -0.158  23.859  0.00  0.00    -0.350 OA
ATOM     15  C   UNL     1      -0.705  -0.263  24.627  0.00  0.00    +0.169 C 
ATOM     16  C   UNL     1      -1.030  -0.811  25.149  0.00  0.00    +0.167 C 
ATOM     17  C   UNL     1      -1.160  -0.431  25.869  0.00  0.00    +0.169 C 
ATOM     18  O   UNL     1      -0.915   0.352  25.793  0.00  0.00    -0.350 OA
ATOM     19  C   UNL     1      -0.633   0.457  25.025  0.00  0.00    +0.167 C 
ENDROOT
BRANCH  16  20
ATOM     20  N   UNL     1      -1.197  -1.601  24.981  0.00  0.00    -0.210 N 
ATOM     21  N   UNL     1      -0.641  -2.200  24.862  0.00  0.00    -0.043 NA
ATOM     22  N   UNL     1      -1.048  -2.900  24.710  0.00  0.00    -0.023 NA
ATOM     23  N   UNL     1      -1.856  -2.735  24.734  0.00  0.00    -0.108 NA
ATOM     24  C   UNL     1      -1.949  -1.933  24.901  0.00  0.00    +0.184 A 
BRANCH  24  25
ATOM     25  C   UNL     1      -2.665  -1.533  24.976  0.00  0.00    +0.041 A 
ATOM     26  C   UNL     1      -3.020  -1.194  24.313  0.00  0.00    +0.043 A 
ATOM     27  C   UNL     1      -3.737  -0.793  24.388  0.00  0.00    +0.177 A 
ATOM     28  C   UNL     1      -4.100  -0.731  25.126  0.00  0.00    +0.176 A 
ATOM     29  O   UNL     1      -4.800  -0.306  25.032  0.00  0.00    -0.435 OA
ATOM     30  C   UNL     1      -4.871  -0.106  24.235  0.00  0.00    +0.429 C 
ATOM     31  O   UNL     1      -4.214  -0.407  23.838  0.00  0.00    -0.435 OA
ATOM     32  C   UNL     1      -3.745  -1.070  25.791  0.00  0.00    +0.040 A 
ATOM     33  C   UNL     1      -3.028  -1.470  25.715  0.00  0.00    +0.006 A 
ENDBRANCH  24  25
ENDBRANCH  16  20
BRANCH  12  11
ATOM      1  O   UNL     1      -1.032   2.205  23.631  0.00  0.00    -0.269 OA
ATOM      2  C   UNL     1      -0.503   2.396  24.235  0.00  0.00    +0.286 C 
ATOM     11  N   UNL     1      -0.141   1.796  24.671  0.00  0.00    -0.199 NA
BRANCH   2   3
ATOM      3  C   UNL     1      -0.337   3.186  24.404  0.00  0.00    +0.291 C 
BRANCH   3   4
ATOM      4  O   UNL     1      -0.614   3.525  25.104  0.00  0.00    -0.466 OA
BRANCH   4   5
ATOM      5  C   UNL     1      -0.963   4.272  25.091  0.00  0.00    +0.139 A 
ATOM      6  C   UNL     1      -1.719   4.380  25.402  0.00  0.00    +0.037 A 
ATOM      7  C   UNL     1      -2.069   5.127  25.389  0.00  0.00    +0.003 A 
ATOM      8  C   UNL     1      -1.661   5.767  25.065  0.00  0.00    +0.000 A 
ATOM      9  C   UNL     1      -0.904   5.660  24.755  0.00  0.00    +0.003 A 
ATOM     10  C   UNL     1      -0.556   4.912  24.768  0.00  0.00    +0.037 A 
ENDBRANCH   4   5
ENDBRANCH   3   4
ENDBRANCH   2   3
ENDBRANCH  12  11
TORSDOF 6
ENDMDL
MODEL 8
REMARK VINA RESULT:      -9.6      1.726      4.879
REMARK  Name = 
REMARK  6 active torsions:
REMARK  status: ('A' for Active; 'I' for Inactive)
REMARK    1  A    between atoms: C_2  and  C_3
REMARK    2  A    between atoms: C_3  and  O_4
REMARK    3  A    between atoms: O_4  and  C_5
REMARK    4  A    between atoms: N_11  and  C_12
REMARK    5  A    between atoms: C_16  and  N_20
REMARK    6  A    between atoms: C_24  and  C_25
REMARK                            x       y       z     vdW  Elec       q    Type
REMARK                         _______ _______ _______ _____ _____    ______ ____
ROOT
ATOM     12  C   UNL     1      -2.157   2.058  23.922  0.00  0.00    +0.154 C 
ATOM     13  C   UNL     1      -2.028   1.968  23.112  0.00  0.00    +0.166 C 
ATOM     14  O   UNL     1      -1.374   1.476  23.012  0.00  0.00    -0.350 OA
ATOM     15  C   UNL     1      -1.098   1.262  23.759  0.00  0.00    +0.169 C 
ATOM     16  C   UNL     1      -0.523   0.826  24.159  0.00  0.00    +0.167 C 
ATOM     17  C   UNL     1      -0.652   0.916  24.968  0.00  0.00    +0.169 C 
ATOM     18  O   UNL     1      -1.306   1.408  25.069  0.00  0.00    -0.350 OA
ATOM     19  C   UNL     1      -1.582   1.622  24.322  0.00  0.00    +0.167 C 
ENDROOT
BRANCH  16  20
ATOM     20  N   UNL     1       0.076   0.378  23.810  0.00  0.00    -0.210 N 
ATOM     21  N   UNL     1       0.709   0.673  23.370  0.00  0.00    -0.043 NA
ATOM     22  N   UNL     1       1.171   0.034  23.128  0.00  0.00    -0.023 NA
ATOM     23  N   UNL     1       0.824  -0.655  23.418  0.00  0.00    -0.108 NA
ATOM     24  C   UNL     1       0.147  -0.444  23.840  0.00  0.00    +0.184 A 
BRANCH  24  25
ATOM     25  C   UNL     1      -0.367  -0.961  24.223  0.00  0.00    +0.041 A 
ATOM     26  C   UNL     1      -1.003  -1.290  23.813  0.00  0.00    +0.043 A 
ATOM     27  C   UNL     1      -1.518  -1.808  24.197  0.00  0.00    +0.177 A 
ATOM     28  C   UNL     1      -1.397  -1.998  24.990  0.00  0.00    +0.176 A 
ATOM     29  O   UNL     1      -1.991  -2.521  25.221  0.00  0.00    -0.435 OA
ATOM     30  C   UNL     1      -2.479  -2.655  24.571  0.00  0.00    +0.429 C 
ATOM     31  O   UNL     1      -2.187  -2.214  23.938  0.00  0.00    -0.435 OA
ATOM     32  C   UNL     1      -0.760  -1.669  25.401  0.00  0.00    +0.040 A 
ATOM     33  C   UNL     1      -0.246  -1.151  25.017  0.00  0.00    +0.006 A 
ENDBRANCH  24  25
ENDBRANCH  16  20
BRANCH  12  11
ATOM      1  O   UNL     1      -3.634   2.168  23.196  0.00  0.00    -0.269 OA
ATOM      2  C   UNL     1      -3.494   2.561  23.908  0.00  0.00    +0.286 C 
ATOM     11  N   UNL     1      -2.755   2.506  24.271  0.00  0.00    -0.199 NA
BRANCH   2   3
ATOM      3  C   UNL     1      -4.093   3.009  24.257  0.00  0.00    +0.291 C 
BRANCH   3   4
ATOM      4  O   UNL     1      -4.876   2.750  24.221  0.00  0.00    -0.466 OA
BRANCH   4   5
ATOM      5  C   UNL     1      -5.312   2.657  24.915  0.00  0.00    +0.139 A 
ATOM      6  C   UNL     1      -5.733   1.959  25.046  0.00  0.00    +0.037 A 
ATOM      7  C   UNL     1      -6.170   1.865  25.739  0.00  0.00    +0.003 A 
ATOM      8  C   UNL     1      -6.186   2.469  26.302  0.00  0.00    +0.000 A 
ATOM      9  C   UNL     1      -5.766   3.166  26.170  0.00  0.00    +0.003 A 
ATOM     10  C   UNL     1      -5.329   3.260  25.476  0.00  0.00    +0.037 A 
ENDBRANCH   4   5
ENDBRANCH   3   4
ENDBRANCH   2   3
ENDBRANCH  12  11
TORSDOF 6
ENDMDL
