REMARK  Name = 
REMARK  5 active torsions:
REMARK  status: ('A' for Active; 'I' for Inactive)
REMARK    1  A    between atoms: C_4  and  N_19
REMARK    2  A    between atoms: C_6  and  C_7
REMARK    3  A    between atoms: C_9  and  C_12
REMARK    4  A    between atoms: N_19  and  S_20
REMARK    5  A    between atoms: S_20  and  C_23
REMARK                            x       y       z     vdW  Elec       q    Type
REMARK                         _______ _______ _______ _____ _____    ______ ____
ROOT
ATOM      1  C   UNL     1      -0.596  -2.216   0.000  0.00  0.00    +0.090 C 
ATOM      2  N   UNL     1      -0.596  -3.041   0.000  0.00  0.00    -0.264 NA
ATOM      3  C   UNL     1       0.072  -3.525   0.000  0.00  0.00    +0.092 C 
ATOM      4  C   UNL     1      -0.183  -4.310   0.000  0.00  0.00    +0.115 C 
ATOM      5  C   UNL     1      -1.008  -4.310   0.000  0.00  0.00    +0.046 C 
ATOM      6  C   UNL     1      -1.263  -3.525   0.000  0.00  0.00    +0.139 C 
ENDROOT
BRANCH   6   7
ATOM      7  C   UNL     1      -2.047  -3.270   0.000  0.00  0.00    +0.251 A 
ATOM      8  N   UNL     1      -2.715  -3.755   0.000  0.00  0.00    -0.190 NA
ATOM      9  C   UNL     1      -3.382  -3.270   0.000  0.00  0.00    +0.203 A 
ATOM     10  N   UNL     1      -3.127  -2.486   0.000  0.00  0.00    -0.056 NA
ATOM     11  O   UNL     1      -2.303  -2.486   0.000  0.00  0.00    -0.336 OA
BRANCH   9  12
ATOM     12  C   UNL     1      -4.167  -3.525   0.000  0.00  0.00    +0.039 A 
ATOM     13  C   UNL     1      -4.338  -4.332   0.000  0.00  0.00    +0.003 A 
ATOM     14  C   UNL     1      -5.123  -4.587   0.000  0.00  0.00    -0.004 A 
ATOM     15  C   UNL     1      -5.736  -4.035   0.000  0.00  0.00    -0.022 A 
ATOM     16  C   UNL     1      -6.521  -4.290   0.000  0.00  0.00    +0.031 C 
ATOM     17  C   UNL     1      -5.565  -3.228   0.000  0.00  0.00    -0.004 A 
ATOM     18  C   UNL     1      -4.780  -2.973   0.000  0.00  0.00    +0.003 A 
ENDBRANCH   9  12
ENDBRANCH   6   7
BRANCH   4  19
ATOM     19  N   UNL     1       0.302  -4.977   0.000  0.00  0.00    -0.077 NA
BRANCH  19  20
ATOM     20  S   UNL     1      -0.034  -5.731   0.000  0.00  0.00    +0.083 S 
ATOM     21  O   UNL     1      -0.787  -5.396   0.000  0.00  0.00    -0.151 OA
ATOM     22  O   UNL     1       0.720  -6.067   0.000  0.00  0.00    -0.151 OA
BRANCH  20  23
ATOM     23  C   UNL     1      -0.369  -6.485   0.000  0.00  0.00    +0.153 A 
ATOM     24  C   UNL     1       0.043  -7.199   0.000  0.00  0.00    +0.027 A 
ATOM     25  C   UNL     1      -0.509  -7.812   0.000  0.00  0.00    +0.009 A 
ATOM     26  C   UNL     1      -1.262  -7.477   0.000  0.00  0.00    +0.037 A 
ATOM     27  S   UNL     1      -1.176  -6.656   0.000  0.00  0.00    -0.067 S 
ENDBRANCH  20  23
ENDBRANCH  19  20
ENDBRANCH   4  19
TORSDOF 5
