MODEL 1
REMARK VINA RESULT:     -12.0      0.000      0.000
REMARK  Name = 
REMARK  6 active torsions:
REMARK  status: ('A' for Active; 'I' for Inactive)
REMARK    1  A    between atoms: O_2  and  C_3
REMARK    2  A    between atoms: C_6  and  C_7
REMARK    3  A    between atoms: C_7  and  N_8
REMARK    4  A    between atoms: C_13  and  C_14
REMARK    5  A    between atoms: C_16  and  C_17
REMARK    6  A    between atoms: C_17  and  C_18
REMARK                            x       y       z     vdW  Elec       q    Type
REMARK                         _______ _______ _______ _____ _____    ______ ____
ROOT
ATOM      8  N   UNL     1      -1.617   0.485  24.700  0.00  0.00    -0.257 NA
ATOM      9  C   UNL     1      -1.150  -0.151  24.463  0.00  0.00    +0.121 C 
ATOM     10  C   UNL     1      -0.452  -0.019  24.042  0.00  0.00    +0.090 A 
ATOM     11  C   UNL     1      -0.222   0.752  23.859  0.00  0.00    +0.077 A 
ATOM     12  C   UNL     1      -0.689   1.390  24.097  0.00  0.00    +0.073 C 
ATOM     13  C   UNL     1      -1.386   1.256  24.517  0.00  0.00    +0.144 C 
ATOM     26  N   UNL     1       0.488   0.714  23.442  0.00  0.00    -0.227 NA
ATOM     27  C   UNL     1       0.697  -0.080  23.367  0.00  0.00    +0.198 A 
ATOM     28  N   UNL     1       0.116  -0.532  23.738  0.00  0.00    -0.226 NA
ENDROOT
BRANCH  13  14
ATOM     14  C   UNL     1      -1.853   1.894  24.754  0.00  0.00    +0.251 A 
ATOM     15  N   UNL     1      -2.505   2.195  24.349  0.00  0.00    -0.193 NA
ATOM     16  C   UNL     1      -2.804   2.830  24.783  0.00  0.00    +0.185 A 
ATOM     24  N   UNL     1      -2.336   2.922  25.456  0.00  0.00    -0.060 NA
ATOM     25  O   UNL     1      -1.748   2.343  25.438  0.00  0.00    -0.336 OA
BRANCH  16  17
ATOM     17  C   UNL     1      -3.457   3.292  24.579  0.00  0.00    +0.095 C 
BRANCH  17  18
ATOM     18  C   UNL     1      -4.207   3.091  24.857  0.00  0.00    -0.014 A 
ATOM     19  C   UNL     1      -4.467   3.378  25.586  0.00  0.00    -0.004 A 
ATOM     20  C   UNL     1      -5.217   3.177  25.864  0.00  0.00    -0.000 A 
ATOM     21  C   UNL     1      -5.708   2.689  25.414  0.00  0.00    -0.000 A 
ATOM     22  C   UNL     1      -5.447   2.402  24.686  0.00  0.00    -0.000 A 
ATOM     23  C   UNL     1      -4.697   2.603  24.407  0.00  0.00    -0.004 A 
ENDBRANCH  17  18
ENDBRANCH  16  17
ENDBRANCH  13  14
BRANCH   8   7
ATOM      7  C   UNL     1      -2.313   0.352  25.119  0.00  0.00    +0.100 C 
BRANCH   7   6
ATOM      3  C   UNL     1      -3.368  -1.887  25.089  0.00  0.00    +0.139 A 
ATOM      4  C   UNL     1      -2.875  -1.672  25.713  0.00  0.00    +0.037 A 
ATOM      5  C   UNL     1      -2.523  -0.926  25.724  0.00  0.00    +0.000 A 
ATOM      6  C   UNL     1      -2.665  -0.394  25.109  0.00  0.00    -0.006 A 
ATOM     29  C   UNL     1      -3.159  -0.609  24.484  0.00  0.00    +0.000 A 
ATOM     30  C   UNL     1      -3.510  -1.356  24.473  0.00  0.00    +0.037 A 
BRANCH   3   2
ATOM      1  C   UNL     1      -3.589  -3.142  24.441  0.00  0.00    +0.252 C 
ATOM      2  O   UNL     1      -3.719  -2.633  25.078  0.00  0.00    -0.471 OA
ENDBRANCH   3   2
ENDBRANCH   7   6
ENDBRANCH   8   7
TORSDOF 6
ENDMDL
MODEL 2
REMARK VINA RESULT:     -11.9      2.040      4.206
REMARK  Name = 
REMARK  6 active torsions:
REMARK  status: ('A' for Active; 'I' for Inactive)
REMARK    1  A    between atoms: O_2  and  C_3
REMARK    2  A    between atoms: C_6  and  C_7
REMARK    3  A    between atoms: C_7  and  N_8
REMARK    4  A    between atoms: C_13  and  C_14
REMARK    5  A    between atoms: C_16  and  C_17
REMARK    6  A    between atoms: C_17  and  C_18
REMARK                            x       y       z     vdW  Elec       q    Type
REMARK                         _______ _______ _______ _____ _____    ______ ____
ROOT
ATOM      8  N   UNL     1      -0.599   0.832  24.741  0.00  0.00    -0.257 NA
ATOM      9  C   UNL     1      -0.010   1.180  24.281  0.00  0.00    +0.121 C 
ATOM     10  C   UNL     1       0.436   0.718  23.763  0.00  0.00    +0.090 A 
ATOM     11  C   UNL     1       0.292  -0.092  23.704  0.00  0.00    +0.077 A 
ATOM     12  C   UNL     1      -0.299  -0.441  24.163  0.00  0.00    +0.073 C 
ATOM     13  C   UNL     1      -0.744   0.022  24.682  0.00  0.00    +0.144 C 
ATOM     26  N   UNL     1       0.816  -0.404  23.149  0.00  0.00    -0.227 NA
ATOM     27  C   UNL     1       1.284   0.212  22.865  0.00  0.00    +0.198 A 
ATOM     28  N   UNL     1       1.049   0.905  23.244  0.00  0.00    -0.226 NA
ENDROOT
BRANCH  13  14
ATOM     14  C   UNL     1      -1.334  -0.327  25.141  0.00  0.00    +0.251 A 
ATOM     15  N   UNL     1      -2.119  -0.441  24.918  0.00  0.00    -0.193 NA
ATOM     16  C   UNL     1      -2.512  -0.808  25.543  0.00  0.00    +0.185 A 
ATOM     24  N   UNL     1      -1.970  -0.921  26.154  0.00  0.00    -0.060 NA
ATOM     25  O   UNL     1      -1.240  -0.624  25.905  0.00  0.00    -0.336 OA
BRANCH  16  17
ATOM     17  C   UNL     1      -3.309  -1.024  25.556  0.00  0.00    +0.095 C 
BRANCH  17  18
ATOM     18  C   UNL     1      -3.601  -1.552  24.993  0.00  0.00    -0.014 A 
ATOM     19  C   UNL     1      -4.049  -1.272  24.359  0.00  0.00    -0.004 A 
ATOM     20  C   UNL     1      -4.341  -1.800  23.795  0.00  0.00    -0.000 A 
ATOM     21  C   UNL     1      -4.186  -2.607  23.867  0.00  0.00    -0.000 A 
ATOM     22  C   UNL     1      -3.738  -2.886  24.501  0.00  0.00    -0.000 A 
ATOM     23  C   UNL     1      -3.446  -2.360  25.064  0.00  0.00    -0.004 A 
ENDBRANCH  17  18
ENDBRANCH  16  17
ENDBRANCH  13  14
BRANCH   8   7
ATOM      7  C   UNL     1      -1.045   1.293  25.259  0.00  0.00    +0.100 C 
BRANCH   7   6
ATOM      3  C   UNL     1      -0.869   3.761  25.181  0.00  0.00    +0.139 A 
ATOM      4  C   UNL     1      -1.400   3.370  24.687  0.00  0.00    +0.037 A 
ATOM      5  C   UNL     1      -1.458   2.547  24.712  0.00  0.00    +0.000 A 
ATOM      6  C   UNL     1      -0.986   2.116  25.233  0.00  0.00    -0.006 A 
ATOM     29  C   UNL     1      -0.454   2.507  25.728  0.00  0.00    +0.000 A 
ATOM     30  C   UNL     1      -0.396   3.330  25.703  0.00  0.00    +0.037 A 
BRANCH   3   2
ATOM      1  C   UNL     1      -1.494   5.046  25.161  0.00  0.00    +0.252 C 
ATOM      2  O   UNL     1      -0.810   4.583  25.155  0.00  0.00    -0.471 OA
ENDBRANCH   3   2
ENDBRANCH   7   6
ENDBRANCH   8   7
TORSDOF 6
ENDMDL
MODEL 3
REMARK VINA RESULT:     -11.9      1.621      3.819
REMARK  Name = 
REMARK  6 active torsions:
REMARK  status: ('A' for Active; 'I' for Inactive)
REMARK    1  A    between atoms: O_2  and  C_3
REMARK    2  A    between atoms: C_6  and  C_7
REMARK    3  A    between atoms: C_7  and  N_8
REMARK    4  A    between atoms: C_13  and  C_14
REMARK    5  A    between atoms: C_16  and  C_17
REMARK    6  A    between atoms: C_17  and  C_18
REMARK                            x       y       z     vdW  Elec       q    Type
REMARK                         _______ _______ _______ _____ _____    ______ ____
ROOT
ATOM      8  N   UNL     1      -4.108   1.383  24.664  0.00  0.00    -0.257 NA
ATOM      9  C   UNL     1      -4.825   1.087  24.943  0.00  0.00    +0.121 C 
ATOM     10  C   UNL     1      -5.415   1.605  25.198  0.00  0.00    +0.090 A 
ATOM     11  C   UNL     1      -5.287   2.420  25.173  0.00  0.00    +0.077 A 
ATOM     12  C   UNL     1      -4.569   2.717  24.894  0.00  0.00    +0.073 C 
ATOM     13  C   UNL     1      -3.980   2.198  24.639  0.00  0.00    +0.144 C 
ATOM     26  N   UNL     1      -5.965   2.793  25.458  0.00  0.00    -0.227 NA
ATOM     27  C   UNL     1      -6.512   2.210  25.660  0.00  0.00    +0.198 A 
ATOM     28  N   UNL     1      -6.172   1.476  25.499  0.00  0.00    -0.226 NA
ENDROOT
BRANCH  13  14
ATOM     14  C   UNL     1      -3.263   2.495  24.360  0.00  0.00    +0.251 A 
ATOM     15  N   UNL     1      -2.665   2.831  24.818  0.00  0.00    -0.193 NA
ATOM     16  C   UNL     1      -2.050   3.052  24.314  0.00  0.00    +0.185 A 
ATOM     24  N   UNL     1      -2.269   2.852  23.544  0.00  0.00    -0.060 NA
ATOM     25  O   UNL     1      -3.019   2.508  23.572  0.00  0.00    -0.336 OA
BRANCH  16  17
ATOM     17  C   UNL     1      -1.342   3.409  24.540  0.00  0.00    +0.095 C 
BRANCH  17  18
ATOM     18  C   UNL     1      -0.787   2.982  24.978  0.00  0.00    -0.014 A 
ATOM     19  C   UNL     1      -0.260   2.477  24.593  0.00  0.00    -0.004 A 
ATOM     20  C   UNL     1       0.295   2.050  25.030  0.00  0.00    -0.000 A 
ATOM     21  C   UNL     1       0.323   2.129  25.851  0.00  0.00    -0.000 A 
ATOM     22  C   UNL     1      -0.204   2.635  26.234  0.00  0.00    -0.000 A 
ATOM     23  C   UNL     1      -0.759   3.061  25.799  0.00  0.00    -0.004 A 
ENDBRANCH  17  18
ENDBRANCH  16  17
ENDBRANCH  13  14
BRANCH   8   7
ATOM      7  C   UNL     1      -3.519   0.866  24.410  0.00  0.00    +0.100 C 
BRANCH   7   6
ATOM      3  C   UNL     1      -3.685  -1.548  24.930  0.00  0.00    +0.139 A 
ATOM      4  C   UNL     1      -3.333  -1.034  25.469  0.00  0.00    +0.037 A 
ATOM      5  C   UNL     1      -3.278  -0.229  25.296  0.00  0.00    +0.000 A 
ATOM      6  C   UNL     1      -3.575   0.061  24.583  0.00  0.00    -0.006 A 
ATOM     29  C   UNL     1      -3.928  -0.454  24.043  0.00  0.00    +0.000 A 
ATOM     30  C   UNL     1      -3.983  -1.259  24.216  0.00  0.00    +0.037 A 
BRANCH   3   2
ATOM      1  C   UNL     1      -3.381  -2.908  24.608  0.00  0.00    +0.252 C 
ATOM      2  O   UNL     1      -3.741  -2.353  25.103  0.00  0.00    -0.471 OA
ENDBRANCH   3   2
ENDBRANCH   7   6
ENDBRANCH   8   7
TORSDOF 6
ENDMDL
MODEL 4
REMARK VINA RESULT:     -11.7      1.917      5.157
REMARK  Name = 
REMARK  6 active torsions:
REMARK  status: ('A' for Active; 'I' for Inactive)
REMARK    1  A    between atoms: O_2  and  C_3
REMARK    2  A    between atoms: C_6  and  C_7
REMARK    3  A    between atoms: C_7  and  N_8
REMARK    4  A    between atoms: C_13  and  C_14
REMARK    5  A    between atoms: C_16  and  C_17
REMARK    6  A    between atoms: C_17  and  C_18
REMARK                            x       y       z     vdW  Elec       q    Type
REMARK                         _______ _______ _______ _____ _____    ______ ____
ROOT
ATOM      8  N   UNL     1      -3.795   1.839  24.835  0.00  0.00    -0.257 NA
ATOM      9  C   UNL     1      -3.935   2.637  24.988  0.00  0.00    +0.121 C 
ATOM     10  C   UNL     1      -4.678   2.884  25.248  0.00  0.00    +0.090 A 
ATOM     11  C   UNL     1      -5.281   2.332  25.356  0.00  0.00    +0.077 A 
ATOM     12  C   UNL     1      -5.142   1.533  25.202  0.00  0.00    +0.073 C 
ATOM     13  C   UNL     1      -4.398   1.287  24.942  0.00  0.00    +0.144 C 
ATOM     26  N   UNL     1      -5.952   2.735  25.615  0.00  0.00    -0.227 NA
ATOM     27  C   UNL     1      -5.764   3.536  25.669  0.00  0.00    +0.198 A 
ATOM     28  N   UNL     1      -4.976   3.627  25.442  0.00  0.00    -0.226 NA
ENDROOT
BRANCH  13  14
ATOM     14  C   UNL     1      -4.260   0.488  24.789  0.00  0.00    +0.251 A 
ATOM     15  N   UNL     1      -3.966  -0.065  25.326  0.00  0.00    -0.193 NA
ATOM     16  C   UNL     1      -3.915  -0.793  24.941  0.00  0.00    +0.185 A 
ATOM     24  N   UNL     1      -4.177  -0.689  24.166  0.00  0.00    -0.060 NA
ATOM     25  O   UNL     1      -4.390   0.103  24.071  0.00  0.00    -0.336 OA
BRANCH  16  17
ATOM     17  C   UNL     1      -3.649  -1.500  25.273  0.00  0.00    +0.095 C 
BRANCH  17  18
ATOM     18  C   UNL     1      -2.916  -1.809  25.051  0.00  0.00    -0.014 A 
ATOM     19  C   UNL     1      -2.876  -2.401  24.478  0.00  0.00    -0.004 A 
ATOM     20  C   UNL     1      -2.143  -2.711  24.257  0.00  0.00    -0.000 A 
ATOM     21  C   UNL     1      -1.452  -2.427  24.608  0.00  0.00    -0.000 A 
ATOM     22  C   UNL     1      -1.494  -1.835  25.180  0.00  0.00    -0.000 A 
ATOM     23  C   UNL     1      -2.225  -1.525  25.403  0.00  0.00    -0.004 A 
ENDBRANCH  17  18
ENDBRANCH  16  17
ENDBRANCH  13  14
BRANCH   8   7
ATOM      7  C   UNL     1      -3.053   1.593  24.575  0.00  0.00    +0.100 C 
BRANCH   7   6
ATOM      3  C   UNL     1      -1.143   3.167  24.615  0.00  0.00    +0.139 A 
ATOM      4  C   UNL     1      -1.567   3.051  23.917  0.00  0.00    +0.037 A 
ATOM      5  C   UNL     1      -2.204   2.527  23.904  0.00  0.00    +0.000 A 
ATOM      6  C   UNL     1      -2.416   2.117  24.588  0.00  0.00    -0.006 A 
ATOM     29  C   UNL     1      -1.991   2.233  25.286  0.00  0.00    +0.000 A 
ATOM     30  C   UNL     1      -1.354   2.758  25.300  0.00  0.00    +0.037 A 
BRANCH   3   2
ATOM      1  C   UNL     1      -0.623   4.477  24.855  0.00  0.00    +0.252 C 
ATOM      2  O   UNL     1      -0.506   3.691  24.628  0.00  0.00    -0.471 OA
ENDBRANCH   3   2
ENDBRANCH   7   6
ENDBRANCH   8   7
TORSDOF 6
ENDMDL
MODEL 5
REMARK VINA RESULT:     -11.4      1.487      4.112
REMARK  Name = 
REMARK  6 active torsions:
REMARK  status: ('A' for Active; 'I' for Inactive)
REMARK    1  A    between atoms: O_2  and  C_3
REMARK    2  A    between atoms: C_6  and  C_7
REMARK    3  A    between atoms: C_7  and  N_8
REMARK    4  A    between atoms: C_13  and  C_14
REMARK    5  A    between atoms: C_16  and  C_17
REMARK    6  A    between atoms: C_17  and  C_18
REMARK                            x       y       z     vdW  Elec       q    Type
REMARK                         _______ _______ _______ _____ _____    ______ ____
ROOT
ATOM      8  N   UNL     1      -1.652   1.436  24.774  0.00  0.00    -0.257 NA
ATOM      9  C   UNL     1      -1.640   2.225  25.013  0.00  0.00    +0.121 C 
ATOM     10  C   UNL     1      -0.989   2.523  25.424  0.00  0.00    +0.090 A 
ATOM     11  C   UNL     1      -0.351   2.030  25.597  0.00  0.00    +0.077 A 
ATOM     12  C   UNL     1      -0.362   1.240  25.359  0.00  0.00    +0.073 C 
ATOM     13  C   UNL     1      -1.013   0.943  24.948  0.00  0.00    +0.144 C 
ATOM     26  N   UNL     1       0.210   2.474  26.007  0.00  0.00    -0.227 NA
ATOM     27  C   UNL     1      -0.081   3.242  26.087  0.00  0.00    +0.198 A 
ATOM     28  N   UNL     1      -0.823   3.271  25.727  0.00  0.00    -0.226 NA
ENDROOT
BRANCH  13  14
ATOM     14  C   UNL     1      -1.024   0.154  24.710  0.00  0.00    +0.251 A 
ATOM     15  N   UNL     1      -1.305  -0.483  25.152  0.00  0.00    -0.193 NA
ATOM     16  C   UNL     1      -1.210  -1.169  24.703  0.00  0.00    +0.185 A 
ATOM     24  N   UNL     1      -0.871  -0.956  23.982  0.00  0.00    -0.060 NA
ATOM     25  O   UNL     1      -0.755  -0.138  23.986  0.00  0.00    -0.336 OA
BRANCH  16  17
ATOM     17  C   UNL     1      -1.419  -1.933  24.934  0.00  0.00    +0.095 C 
BRANCH  17  18
ATOM     18  C   UNL     1      -2.195  -2.197  24.832  0.00  0.00    -0.014 A 
ATOM     19  C   UNL     1      -2.425  -2.529  24.113  0.00  0.00    -0.004 A 
ATOM     20  C   UNL     1      -3.201  -2.793  24.011  0.00  0.00    -0.000 A 
ATOM     21  C   UNL     1      -3.745  -2.724  24.628  0.00  0.00    -0.000 A 
ATOM     22  C   UNL     1      -3.513  -2.392  25.346  0.00  0.00    -0.000 A 
ATOM     23  C   UNL     1      -2.738  -2.128  25.449  0.00  0.00    -0.004 A 
ENDBRANCH  17  18
ENDBRANCH  16  17
ENDBRANCH  13  14
BRANCH   8   7
ATOM      7  C   UNL     1      -2.301   1.139  24.363  0.00  0.00    +0.100 C 
BRANCH   7   6
ATOM      3  C   UNL     1      -4.493   2.278  24.524  0.00  0.00    +0.139 A 
ATOM      4  C   UNL     1      -4.287   1.700  25.075  0.00  0.00    +0.037 A 
ATOM      5  C   UNL     1      -3.557   1.320  25.022  0.00  0.00    +0.000 A 
ATOM      6  C   UNL     1      -3.032   1.518  24.417  0.00  0.00    -0.006 A 
ATOM     29  C   UNL     1      -3.238   2.097  23.866  0.00  0.00    +0.000 A 
ATOM     30  C   UNL     1      -3.968   2.477  23.919  0.00  0.00    +0.037 A 
BRANCH   3   2
ATOM      1  C   UNL     1      -5.447   3.025  25.283  0.00  0.00    +0.252 C 
ATOM      2  O   UNL     1      -5.223   2.657  24.578  0.00  0.00    -0.471 OA
ENDBRANCH   3   2
ENDBRANCH   7   6
ENDBRANCH   8   7
TORSDOF 6
ENDMDL
MODEL 6
REMARK VINA RESULT:      -9.0     15.915     18.505
REMARK  Name = 
REMARK  6 active torsions:
REMARK  status: ('A' for Active; 'I' for Inactive)
REMARK    1  A    between atoms: O_2  and  C_3
REMARK    2  A    between atoms: C_6  and  C_7
REMARK    3  A    between atoms: C_7  and  N_8
REMARK    4  A    between atoms: C_13  and  C_14
REMARK    5  A    between atoms: C_16  and  C_17
REMARK    6  A    between atoms: C_17  and  C_18
REMARK                            x       y       z     vdW  Elec       q    Type
REMARK                         _______ _______ _______ _____ _____    ______ ____
ROOT
ATOM      8  N   UNL     1      12.414   8.208  18.870  0.00  0.00    -0.257 NA
ATOM      9  C   UNL     1      11.626   8.345  18.668  0.00  0.00    +0.121 C 
ATOM     10  C   UNL     1      11.407   8.402  17.875  0.00  0.00    +0.090 A 
ATOM     11  C   UNL     1      11.976   8.321  17.283  0.00  0.00    +0.077 A 
ATOM     12  C   UNL     1      12.764   8.184  17.484  0.00  0.00    +0.073 C 
ATOM     13  C   UNL     1      12.983   8.127  18.278  0.00  0.00    +0.144 C 
ATOM     26  N   UNL     1      11.599   8.403  16.554  0.00  0.00    -0.227 NA
ATOM     27  C   UNL     1      10.797   8.534  16.695  0.00  0.00    +0.198 A 
ATOM     28  N   UNL     1      10.679   8.533  17.512  0.00  0.00    -0.226 NA
ENDROOT
BRANCH  13  14
ATOM     14  C   UNL     1      13.771   7.990  18.478  0.00  0.00    +0.251 A 
ATOM     15  N   UNL     1      14.119   7.253  18.606  0.00  0.00    -0.193 NA
ATOM     16  C   UNL     1      14.913   7.374  18.793  0.00  0.00    +0.185 A 
ATOM     24  N   UNL     1      15.057   8.186  18.782  0.00  0.00    -0.060 NA
ATOM     25  O   UNL     1      14.351   8.568  18.587  0.00  0.00    -0.336 OA
BRANCH  16  17
ATOM     17  C   UNL     1      15.466   6.786  18.962  0.00  0.00    +0.095 C 
BRANCH  17  18
ATOM     18  C   UNL     1      15.820   6.754  19.708  0.00  0.00    -0.014 A 
ATOM     19  C   UNL     1      15.435   6.372  20.330  0.00  0.00    -0.004 A 
ATOM     20  C   UNL     1      15.788   6.341  21.075  0.00  0.00    -0.000 A 
ATOM     21  C   UNL     1      16.526   6.691  21.198  0.00  0.00    -0.000 A 
ATOM     22  C   UNL     1      16.909   7.072  20.575  0.00  0.00    -0.000 A 
ATOM     23  C   UNL     1      16.557   7.104  19.830  0.00  0.00    -0.004 A 
ENDBRANCH  17  18
ENDBRANCH  16  17
ENDBRANCH  13  14
BRANCH   8   7
ATOM      7  C   UNL     1      12.633   8.151  19.662  0.00  0.00    +0.100 C 
BRANCH   7   6
ATOM      3  C   UNL     1      10.934   8.436  21.439  0.00  0.00    +0.139 A 
ATOM      4  C   UNL     1      11.330   9.094  21.138  0.00  0.00    +0.037 A 
ATOM      5  C   UNL     1      11.896   8.999  20.546  0.00  0.00    +0.000 A 
ATOM      6  C   UNL     1      12.067   8.246  20.255  0.00  0.00    -0.006 A 
ATOM     29  C   UNL     1      11.670   7.588  20.557  0.00  0.00    +0.000 A 
ATOM     30  C   UNL     1      11.104   7.683  21.149  0.00  0.00    +0.037 A 
BRANCH   3   2
ATOM      1  C   UNL     1      10.595   8.787  22.783  0.00  0.00    +0.252 C 
ATOM      2  O   UNL     1      10.368   8.531  22.032  0.00  0.00    -0.471 OA
ENDBRANCH   3   2
ENDBRANCH   7   6
ENDBRANCH   8   7
TORSDOF 6
ENDMDL
MODEL 7
REMARK VINA RESULT:      -8.8     15.603     18.608
REMARK  Name = 
REMARK  6 active torsions:
REMARK  status: ('A' for Active; 'I' for Inactive)
REMARK    1  A    between atoms: O_2  and  C_3
REMARK    2  A    between atoms: C_6  and  C_7
REMARK    3  A    between atoms: C_7  and  N_8
REMARK    4  A    between atoms: C_13  and  C_14
REMARK    5  A    between atoms: C_16  and  C_17
REMARK    6  A    between atoms: C_17  and  C_18
REMARK                            x       y       z     vdW  Elec       q    Type
REMARK                         _______ _______ _______ _____ _____    ______ ____
ROOT
ATOM      8  N   UNL     1      12.639   7.986  20.527  0.00  0.00    -0.257 NA
ATOM      9  C   UNL     1      11.827   7.971  20.386  0.00  0.00    +0.121 C 
ATOM     10  C   UNL     1      11.303   7.808  21.002  0.00  0.00    +0.090 A 
ATOM     11  C   UNL     1      11.592   7.659  21.761  0.00  0.00    +0.077 A 
ATOM     12  C   UNL     1      12.405   7.674  21.902  0.00  0.00    +0.073 C 
ATOM     13  C   UNL     1      12.928   7.838  21.286  0.00  0.00    +0.144 C 
ATOM     26  N   UNL     1      10.949   7.516  22.256  0.00  0.00    -0.227 NA
ATOM     27  C   UNL     1      10.261   7.575  21.804  0.00  0.00    +0.198 A 
ATOM     28  N   UNL     1      10.481   7.756  21.030  0.00  0.00    -0.226 NA
ENDROOT
BRANCH  13  14
ATOM     14  C   UNL     1      13.740   7.852  21.428  0.00  0.00    +0.251 A 
ATOM     15  N   UNL     1      14.245   7.200  21.430  0.00  0.00    -0.193 NA
ATOM     16  C   UNL     1      15.008   7.467  21.597  0.00  0.00    +0.185 A 
ATOM     24  N   UNL     1      14.975   8.285  21.697  0.00  0.00    -0.060 NA
ATOM     25  O   UNL     1      14.191   8.524  21.593  0.00  0.00    -0.336 OA
BRANCH  16  17
ATOM     17  C   UNL     1      15.684   6.998  21.652  0.00  0.00    +0.095 C 
BRANCH  17  18
ATOM     18  C   UNL     1      16.165   6.888  20.991  0.00  0.00    -0.014 A 
ATOM     19  C   UNL     1      16.807   7.391  20.860  0.00  0.00    -0.004 A 
ATOM     20  C   UNL     1      17.288   7.281  20.198  0.00  0.00    -0.000 A 
ATOM     21  C   UNL     1      17.127   6.669  19.668  0.00  0.00    -0.000 A 
ATOM     22  C   UNL     1      16.486   6.168  19.800  0.00  0.00    -0.000 A 
ATOM     23  C   UNL     1      16.005   6.277  20.460  0.00  0.00    -0.004 A 
ENDBRANCH  17  18
ENDBRANCH  16  17
ENDBRANCH  13  14
BRANCH   8   7
ATOM      7  C   UNL     1      13.161   8.149  19.911  0.00  0.00    +0.100 C 
BRANCH   7   6
ATOM      3  C   UNL     1      12.322   8.326  17.590  0.00  0.00    +0.139 A 
ATOM      4  C   UNL     1      12.535   7.591  17.896  0.00  0.00    +0.037 A 
ATOM      5  C   UNL     1      12.815   7.532  18.670  0.00  0.00    +0.000 A 
ATOM      6  C   UNL     1      12.882   8.208  19.138  0.00  0.00    -0.006 A 
ATOM     29  C   UNL     1      12.667   8.944  18.831  0.00  0.00    +0.000 A 
ATOM     30  C   UNL     1      12.388   9.003  18.057  0.00  0.00    +0.037 A 
BRANCH   3   2
ATOM      1  C   UNL     1      11.319   8.755  16.665  0.00  0.00    +0.252 C 
ATOM      2  O   UNL     1      12.042   8.385  16.816  0.00  0.00    -0.471 OA
ENDBRANCH   3   2
ENDBRANCH   7   6
ENDBRANCH   8   7
TORSDOF 6
ENDMDL
MODEL 8
REMARK VINA RESULT:      -8.4     16.321     18.788
REMARK  Name = 
REMARK  6 active torsions:
REMARK  status: ('A' for Active; 'I' for Inactive)
REMARK    1  A    between atoms: O_2  and  C_3
REMARK    2  A    between atoms: C_6  and  C_7
REMARK    3  A    between atoms: C_7  and  N_8
REMARK    4  A    between atoms: C_13  and  C_14
REMARK    5  A    between atoms: C_16  and  C_17
REMARK    6  A    between atoms: C_17  and  C_18
REMARK                            x       y       z     vdW  Elec       q    Type
REMARK                         _______ _______ _______ _____ _____    ______ ____
ROOT
ATOM      8  N   UNL     1      14.823   7.379  19.426  0.00  0.00    -0.257 NA
ATOM      9  C   UNL     1      15.314   7.062  18.844  0.00  0.00    +0.121 C 
ATOM     10  C   UNL     1      15.928   6.553  19.054  0.00  0.00    +0.090 A 
ATOM     11  C   UNL     1      16.051   6.361  19.847  0.00  0.00    +0.077 A 
ATOM     12  C   UNL     1      15.560   6.678  20.430  0.00  0.00    +0.073 C 
ATOM     13  C   UNL     1      14.946   7.187  20.219  0.00  0.00    +0.144 C 
ATOM     26  N   UNL     1      16.696   5.848  19.888  0.00  0.00    -0.227 NA
ATOM     27  C   UNL     1      16.971   5.723  19.121  0.00  0.00    +0.198 A 
ATOM     28  N   UNL     1      16.497   6.159  18.606  0.00  0.00    -0.226 NA
ENDROOT
BRANCH  13  14
ATOM     14  C   UNL     1      14.456   7.503  20.802  0.00  0.00    +0.251 A 
ATOM     15  N   UNL     1      13.742   7.183  21.062  0.00  0.00    -0.193 NA
ATOM     16  C   UNL     1      13.438   7.678  21.648  0.00  0.00    +0.185 A 
ATOM     24  N   UNL     1      13.964   8.304  21.750  0.00  0.00    -0.060 NA
ATOM     25  O   UNL     1      14.594   8.197  21.227  0.00  0.00    -0.336 OA
BRANCH  16  17
ATOM     17  C   UNL     1      12.731   7.566  22.059  0.00  0.00    +0.095 C 
BRANCH  17  18
ATOM     18  C   UNL     1      12.028   7.880  21.764  0.00  0.00    -0.014 A 
ATOM     19  C   UNL     1      11.849   8.676  21.888  0.00  0.00    -0.004 A 
ATOM     20  C   UNL     1      11.145   8.991  21.592  0.00  0.00    -0.000 A 
ATOM     21  C   UNL     1      10.622   8.510  21.172  0.00  0.00    -0.000 A 
ATOM     22  C   UNL     1      10.802   7.715  21.049  0.00  0.00    -0.000 A 
ATOM     23  C   UNL     1      11.505   7.399  21.344  0.00  0.00    -0.004 A 
ENDBRANCH  17  18
ENDBRANCH  16  17
ENDBRANCH  13  14
BRANCH   8   7
ATOM      7  C   UNL     1      14.209   7.887  19.216  0.00  0.00    +0.100 C 
BRANCH   7   6
ATOM      3  C   UNL     1      13.742   8.343  16.829  0.00  0.00    +0.139 A 
ATOM      4  C   UNL     1      13.384   7.702  17.204  0.00  0.00    +0.037 A 
ATOM      5  C   UNL     1      13.540   7.550  17.999  0.00  0.00    +0.000 A 
ATOM      6  C   UNL     1      14.054   8.039  18.420  0.00  0.00    -0.006 A 
ATOM     29  C   UNL     1      14.412   8.681  18.045  0.00  0.00    +0.000 A 
ATOM     30  C   UNL     1      14.256   8.833  17.249  0.00  0.00    +0.037 A 
BRANCH   3   2
ATOM      1  C   UNL     1      14.058   9.028  15.614  0.00  0.00    +0.252 C 
ATOM      2  O   UNL     1      13.587   8.495  16.033  0.00  0.00    -0.471 OA
ENDBRANCH   3   2
ENDBRANCH   7   6
ENDBRANCH   8   7
TORSDOF 6
ENDMDL
