REMARK  Name = 
REMARK  5 active torsions:
REMARK  status: ('A' for Active; 'I' for Inactive)
REMARK    1  A    between atoms: C_3  and  C_4
REMARK    2  A    between atoms: C_4  and  N_5
REMARK    3  A    between atoms: C_14  and  C_19
REMARK    4  A    between atoms: C_22  and  O_23
REMARK    5  A    between atoms: O_23  and  C_24
REMARK                            x       y       z     vdW  Elec       q    Type
REMARK                         _______ _______ _______ _____ _____    ______ ____
ROOT
ATOM      5  N   UNL     1       0.813  -2.091   0.000  0.00  0.00    -0.268 NA
ATOM      6  C   UNL     1       1.629  -1.912   0.000  0.00  0.00    +0.074 C 
ATOM      7  C   UNL     1       1.582  -0.925   0.000  0.00  0.00    +0.039 C 
ATOM      8  C   UNL     1       1.713  -0.121   0.000  0.00  0.00    +0.011 C 
ATOM      9  C   UNL     1       1.163  -0.557   0.000  0.00  0.00    +0.054 C 
ATOM     10  C   UNL     1       1.225  -1.510   0.000  0.00  0.00    +0.078 C 
ATOM     11  C   UNL     1       0.244  -0.558   0.000  0.00  0.00    +0.041 A 
ATOM     12  C   UNL     1      -0.397  -0.039   0.000  0.00  0.00    +0.013 A 
ATOM     13  C   UNL     1      -1.167  -0.335   0.000  0.00  0.00    +0.006 A 
ATOM     14  C   UNL     1      -1.296  -1.150   0.000  0.00  0.00    +0.056 A 
ATOM     15  C   UNL     1      -0.655  -1.669   0.000  0.00  0.00    +0.261 A 
ATOM     16  O   UNL     1      -0.784  -2.484   0.000  0.00  0.00    -0.267 OA
ATOM     17  N   UNL     1       0.115  -1.373   0.000  0.00  0.00    -0.299 N 
ATOM     18  C   UNL     1       0.622  -0.936   0.000  0.00  0.00    +0.110 C 
ENDROOT
BRANCH  14  19
ATOM     19  C   UNL     1      -2.066  -1.445   0.000  0.00  0.00    +0.005 A 
ATOM     20  C   UNL     1      -2.195  -2.260   0.000  0.00  0.00    +0.003 A 
ATOM     21  C   UNL     1      -2.965  -2.556   0.000  0.00  0.00    +0.037 A 
ATOM     22  C   UNL     1      -3.606  -2.037   0.000  0.00  0.00    +0.147 A 
ATOM     28  C   UNL     1      -3.478  -1.222   0.000  0.00  0.00    +0.037 A 
ATOM     29  C   UNL     1      -2.707  -0.926   0.000  0.00  0.00    +0.003 A 
BRANCH  22  23
ATOM     23  O   UNL     1      -4.377  -2.333   0.000  0.00  0.00    -0.404 OA
BRANCH  23  24
ATOM     24  C   UNL     1      -5.018  -1.813   0.000  0.00  0.00    +0.575 C 
ATOM     25  F   UNL     1      -5.659  -1.294   0.000  0.00  0.00    -0.133 F 
ATOM     26  F   UNL     1      -5.537  -2.455   0.000  0.00  0.00    -0.133 F 
ATOM     27  F   UNL     1      -4.499  -1.172   0.000  0.00  0.00    -0.133 F 
ENDBRANCH  23  24
ENDBRANCH  22  23
ENDBRANCH  14  19
BRANCH   5   4
ATOM      4  C   UNL     1       0.125  -2.547   0.000  0.00  0.00    +0.102 C 
BRANCH   4   3
ATOM      1  O   UNL     1      -1.251  -3.458   0.000  0.00  0.00    -0.287 OA
ATOM      2  C   UNL     1      -0.512  -3.826   0.000  0.00  0.00    +0.193 A 
ATOM      3  C   UNL     1       0.176  -3.370   0.000  0.00  0.00    +0.033 A 
ATOM     30  C   UNL     1       0.914  -3.738   0.000  0.00  0.00    +0.000 A 
ATOM     31  C   UNL     1       0.965  -4.562   0.000  0.00  0.00    -0.000 A 
ATOM     32  C   UNL     1       0.277  -5.017   0.000  0.00  0.00    +0.003 A 
ATOM     33  C   UNL     1      -0.461  -4.650   0.000  0.00  0.00    +0.042 A 
ENDBRANCH   4   3
ENDBRANCH   5   4
TORSDOF 5
