MODEL 1
REMARK VINA RESULT:     -15.2      0.000      0.000
REMARK  Name = 
REMARK  3 active torsions:
REMARK  status: ('A' for Active; 'I' for Inactive)
REMARK    1  A    between atoms: C_7  and  N_10
REMARK    2  A    between atoms: C_17  and  N_18
REMARK    3  A    between atoms: N_21  and  C_22
REMARK                            x       y       z     vdW  Elec       q    Type
REMARK                         _______ _______ _______ _____ _____    ______ ____
ROOT
ATOM     10  N   UNL     1      -4.334   3.428  25.491  0.00  0.00    -0.273 NA
ATOM     11  C   UNL     1      -5.135   3.549  25.695  0.00  0.00    +0.074 C 
ATOM     12  C   UNL     1      -5.519   2.699  25.368  0.00  0.00    +0.039 C 
ATOM     13  C   UNL     1      -5.982   2.063  25.157  0.00  0.00    +0.011 C 
ATOM     14  C   UNL     1      -5.306   2.248  25.119  0.00  0.00    +0.056 C 
ATOM     15  C   UNL     1      -4.950   3.074  25.439  0.00  0.00    +0.078 C 
ATOM     16  C   UNL     1      -4.490   1.942  24.826  0.00  0.00    +0.056 A 
ATOM     17  C   UNL     1      -4.145   1.289  24.459  0.00  0.00    +0.087 A 
ATOM     28  C   UNL     1      -3.335   1.283  24.307  0.00  0.00    +0.023 A 
ATOM     29  C   UNL     1      -2.869   1.928  24.522  0.00  0.00    +0.062 A 
ATOM     30  C   UNL     1      -3.214   2.581  24.890  0.00  0.00    +0.261 A 
ATOM     31  O   UNL     1      -2.445   2.879  24.888  0.00  0.00    -0.267 OA
ATOM     32  N   UNL     1      -4.024   2.588  25.042  0.00  0.00    -0.298 N 
ATOM     33  C   UNL     1      -4.663   2.388  25.066  0.00  0.00    +0.110 C 
ENDROOT
BRANCH  10   7
ATOM      1  C   UNL     1      -0.823   4.441  24.522  0.00  0.00    +0.095 C 
ATOM      2  C   UNL     1      -1.107   4.051  25.190  0.00  0.00    +0.226 C 
ATOM      3  O   UNL     1      -0.584   3.816  25.784  0.00  0.00    -0.275 OA
ATOM      4  N   UNL     1      -1.913   3.895  25.266  0.00  0.00    -0.279 N 
ATOM      5  C   UNL     1      -2.198   3.504  25.934  0.00  0.00    +0.095 C 
ATOM      6  C   UNL     1      -3.004   3.348  26.009  0.00  0.00    +0.038 C 
ATOM      7  C   UNL     1      -3.527   3.584  25.416  0.00  0.00    +0.061 C 
ATOM      8  C   UNL     1      -3.243   3.974  24.747  0.00  0.00    +0.038 C 
ATOM      9  C   UNL     1      -2.436   4.130  24.672  0.00  0.00    +0.095 C 
ENDBRANCH  10   7
BRANCH  17  18
ATOM     18  N   UNL     1      -4.611   0.643  24.243  0.00  0.00    -0.160 NA
ATOM     19  C   UNL     1      -4.349  -0.124  24.394  0.00  0.00    +0.348 C 
ATOM     20  O   UNL     1      -4.815  -0.769  24.179  0.00  0.00    -0.248 OA
ATOM     21  N   UNL     1      -3.620  -0.245  24.762  0.00  0.00    -0.161 NA
BRANCH  21  22
ATOM     22  C   UNL     1      -3.357  -1.012  24.914  0.00  0.00    +0.075 A 
ATOM     23  C   UNL     1      -2.937  -1.427  24.339  0.00  0.00    +0.017 A 
ATOM     24  C   UNL     1      -2.674  -2.193  24.491  0.00  0.00    +0.001 A 
ATOM     25  C   UNL     1      -2.831  -2.546  25.220  0.00  0.00    +0.000 A 
ATOM     26  C   UNL     1      -3.252  -2.132  25.796  0.00  0.00    +0.001 A 
ATOM     27  C   UNL     1      -3.515  -1.365  25.643  0.00  0.00    +0.017 A 
ENDBRANCH  21  22
ENDBRANCH  17  18
TORSDOF 3
ENDMDL
MODEL 2
REMARK VINA RESULT:     -14.1      1.868      4.022
REMARK  Name = 
REMARK  3 active torsions:
REMARK  status: ('A' for Active; 'I' for Inactive)
REMARK    1  A    between atoms: C_7  and  N_10
REMARK    2  A    between atoms: C_17  and  N_18
REMARK    3  A    between atoms: N_21  and  C_22
REMARK                            x       y       z     vdW  Elec       q    Type
REMARK                         _______ _______ _______ _____ _____    ______ ____
ROOT
ATOM     10  N   UNL     1      -0.417   2.644  25.203  0.00  0.00    -0.273 NA
ATOM     11  C   UNL     1      -0.172   3.377  25.520  0.00  0.00    +0.074 C 
ATOM     12  C   UNL     1      -0.981   3.915  25.339  0.00  0.00    +0.039 C 
ATOM     13  C   UNL     1      -1.560   4.483  25.263  0.00  0.00    +0.011 C 
ATOM     14  C   UNL     1      -1.474   3.806  25.101  0.00  0.00    +0.056 C 
ATOM     15  C   UNL     1      -0.684   3.299  25.283  0.00  0.00    +0.078 C 
ATOM     16  C   UNL     1      -1.909   3.097  24.711  0.00  0.00    +0.056 A 
ATOM     17  C   UNL     1      -2.627   2.904  24.354  0.00  0.00    +0.087 A 
ATOM     28  C   UNL     1      -2.757   2.139  24.075  0.00  0.00    +0.023 A 
ATOM     29  C   UNL     1      -2.168   1.566  24.153  0.00  0.00    +0.062 A 
ATOM     30  C   UNL     1      -1.450   1.758  24.510  0.00  0.00    +0.261 A 
ATOM     31  O   UNL     1      -1.262   0.970  24.358  0.00  0.00    -0.267 OA
ATOM     32  N   UNL     1      -1.321   2.524  24.789  0.00  0.00    -0.298 N 
ATOM     33  C   UNL     1      -1.428   3.168  24.933  0.00  0.00    +0.110 C 
ENDROOT
BRANCH  10   7
ATOM      1  C   UNL     1      -0.535  -1.119  24.851  0.00  0.00    +0.095 C 
ATOM      2  C   UNL     1      -0.269  -0.536  24.332  0.00  0.00    +0.226 C 
ATOM      3  O   UNL     1       0.034  -0.748  23.594  0.00  0.00    -0.275 OA
ATOM      4  N   UNL     1      -0.306   0.259  24.549  0.00  0.00    -0.279 N 
ATOM      5  C   UNL     1      -0.040   0.842  24.030  0.00  0.00    +0.095 C 
ATOM      6  C   UNL     1      -0.077   1.637  24.247  0.00  0.00    +0.038 C 
ATOM      7  C   UNL     1      -0.380   1.849  24.985  0.00  0.00    +0.061 C 
ATOM      8  C   UNL     1      -0.646   1.267  25.505  0.00  0.00    +0.038 C 
ATOM      9  C   UNL     1      -0.609   0.471  25.287  0.00  0.00    +0.095 C 
ENDBRANCH  10   7
BRANCH  17  18
ATOM     18  N   UNL     1      -3.216   3.477  24.275  0.00  0.00    -0.160 NA
ATOM     19  C   UNL     1      -3.983   3.318  24.532  0.00  0.00    +0.348 C 
ATOM     20  O   UNL     1      -4.572   3.891  24.453  0.00  0.00    -0.248 OA
ATOM     21  N   UNL     1      -4.162   2.586  24.867  0.00  0.00    -0.161 NA
BRANCH  21  22
ATOM     22  C   UNL     1      -4.930   2.426  25.124  0.00  0.00    +0.075 A 
ATOM     23  C   UNL     1      -5.441   1.984  24.651  0.00  0.00    +0.017 A 
ATOM     24  C   UNL     1      -6.208   1.825  24.908  0.00  0.00    +0.001 A 
ATOM     25  C   UNL     1      -6.465   2.108  25.640  0.00  0.00    +0.000 A 
ATOM     26  C   UNL     1      -5.954   2.549  26.113  0.00  0.00    +0.001 A 
ATOM     27  C   UNL     1      -5.187   2.709  25.856  0.00  0.00    +0.017 A 
ENDBRANCH  21  22
ENDBRANCH  17  18
TORSDOF 3
ENDMDL
MODEL 3
REMARK VINA RESULT:     -14.0      1.230      4.343
REMARK  Name = 
REMARK  3 active torsions:
REMARK  status: ('A' for Active; 'I' for Inactive)
REMARK    1  A    between atoms: C_7  and  N_10
REMARK    2  A    between atoms: C_17  and  N_18
REMARK    3  A    between atoms: N_21  and  C_22
REMARK                            x       y       z     vdW  Elec       q    Type
REMARK                         _______ _______ _______ _____ _____    ______ ____
ROOT
ATOM     10  N   UNL     1      -4.626   0.164  25.193  0.00  0.00    -0.273 NA
ATOM     11  C   UNL     1      -5.367   0.431  25.471  0.00  0.00    +0.074 C 
ATOM     12  C   UNL     1      -5.346   1.358  25.129  0.00  0.00    +0.039 C 
ATOM     13  C   UNL     1      -5.483   2.134  24.921  0.00  0.00    +0.011 C 
ATOM     14  C   UNL     1      -4.976   1.655  24.837  0.00  0.00    +0.056 C 
ATOM     15  C   UNL     1      -5.011   0.762  25.173  0.00  0.00    +0.078 C 
ATOM     16  C   UNL     1      -4.146   1.543  24.458  0.00  0.00    +0.056 A 
ATOM     17  C   UNL     1      -3.579   1.956  24.025  0.00  0.00    +0.087 A 
ATOM     28  C   UNL     1      -2.877   1.583  23.805  0.00  0.00    +0.023 A 
ATOM     29  C   UNL     1      -2.742   0.798  24.017  0.00  0.00    +0.062 A 
ATOM     30  C   UNL     1      -3.309   0.385  24.451  0.00  0.00    +0.261 A 
ATOM     31  O   UNL     1      -2.770  -0.237  24.401  0.00  0.00    -0.267 OA
ATOM     32  N   UNL     1      -4.012   0.758  24.671  0.00  0.00    -0.298 N 
ATOM     33  C   UNL     1      -4.479   1.232  24.738  0.00  0.00    +0.110 C 
ENDROOT
BRANCH  10   7
ATOM      1  C   UNL     1      -1.469  -1.918  25.184  0.00  0.00    +0.095 C 
ATOM      2  C   UNL     1      -2.101  -1.892  24.655  0.00  0.00    +0.226 C 
ATOM      3  O   UNL     1      -2.102  -2.382  23.990  0.00  0.00    -0.275 OA
ATOM      4  N   UNL     1      -2.732  -1.379  24.789  0.00  0.00    -0.279 N 
ATOM      5  C   UNL     1      -3.364  -1.354  24.260  0.00  0.00    +0.095 C 
ATOM      6  C   UNL     1      -3.995  -0.840  24.394  0.00  0.00    +0.038 C 
ATOM      7  C   UNL     1      -3.994  -0.351  25.059  0.00  0.00    +0.061 C 
ATOM      8  C   UNL     1      -3.363  -0.375  25.588  0.00  0.00    +0.038 C 
ATOM      9  C   UNL     1      -2.731  -0.889  25.454  0.00  0.00    +0.095 C 
ENDBRANCH  10   7
BRANCH  17  18
ATOM     18  N   UNL     1      -3.713   2.742  23.812  0.00  0.00    -0.160 NA
ATOM     19  C   UNL     1      -3.174   3.327  24.031  0.00  0.00    +0.348 C 
ATOM     20  O   UNL     1      -3.309   4.112  23.818  0.00  0.00    -0.248 OA
ATOM     21  N   UNL     1      -2.500   3.125  24.462  0.00  0.00    -0.161 NA
BRANCH  21  22
ATOM     22  C   UNL     1      -1.960   3.710  24.681  0.00  0.00    +0.075 A 
ATOM     23  C   UNL     1      -2.187   4.308  25.202  0.00  0.00    +0.017 A 
ATOM     24  C   UNL     1      -1.647   4.892  25.420  0.00  0.00    +0.001 A 
ATOM     25  C   UNL     1      -0.879   4.878  25.117  0.00  0.00    +0.000 A 
ATOM     26  C   UNL     1      -0.653   4.281  24.596  0.00  0.00    +0.001 A 
ATOM     27  C   UNL     1      -1.193   3.697  24.377  0.00  0.00    +0.017 A 
ENDBRANCH  21  22
ENDBRANCH  17  18
TORSDOF 3
ENDMDL
