MODEL 1
REMARK VINA RESULT:     -12.6      0.000      0.000
REMARK  Name = 
REMARK  6 active torsions:
REMARK  status: ('A' for Active; 'I' for Inactive)
REMARK    1  A    between atoms: C_4  and  C_8
REMARK    2  A    between atoms: N_10  and  C_11
REMARK    3  A    between atoms: C_11  and  C_12
REMARK    4  A    between atoms: C_19  and  C_20
REMARK    5  A    between atoms: N_22  and  C_23
REMARK    6  A    between atoms: C_23  and  C_24
REMARK                            x       y       z     vdW  Elec       q    Type
REMARK                         _______ _______ _______ _____ _____    ______ ____
ROOT
ATOM     12  C   UNL     1      -0.187   1.767  25.124  0.00  0.00    +0.082 C 
ATOM     13  C   UNL     1      -0.044   1.302  24.517  0.00  0.00    +0.019 C 
ATOM     14  C   UNL     1      -0.269   0.526  24.453  0.00  0.00    +0.013 C 
ATOM     15  C   UNL     1      -0.007   0.166  23.675  0.00  0.00    +0.018 C 
ATOM     16  C   UNL     1      -0.069   0.640  24.120  0.00  0.00    +0.072 C 
ATOM     17  N   UNL     1      -0.413   0.976  25.052  0.00  0.00    -0.272 NA
ATOM     18  C   UNL     1      -0.870   0.418  25.611  0.00  0.00    +0.081 C 
ATOM     19  C   UNL     1      -0.709  -0.005  24.996  0.00  0.00    +0.094 C 
ENDROOT
BRANCH  19  20
ATOM     20  C   UNL     1      -0.907  -0.796  24.868  0.00  0.00    +0.243 C 
ATOM     21  O   UNL     1      -0.319  -1.374  24.871  0.00  0.00    -0.273 OA
ATOM     22  N   UNL     1      -1.693  -1.007  24.738  0.00  0.00    -0.201 NA
BRANCH  22  23
ATOM     23  C   UNL     1      -1.892  -1.798  24.611  0.00  0.00    +0.141 C 
BRANCH  23  24
ATOM     24  C   UNL     1      -2.667  -2.002  24.414  0.00  0.00    -0.000 A 
ATOM     25  C   UNL     1      -3.196  -1.420  24.167  0.00  0.00    -0.000 A 
ATOM     26  C   UNL     1      -3.972  -1.623  23.970  0.00  0.00    +0.029 A 
ATOM     27  C   UNL     1      -4.217  -2.409  24.021  0.00  0.00    +0.140 A 
ATOM     28  F   UNL     1      -4.992  -2.613  23.824  0.00  0.00    -0.204 F 
ATOM     29  C   UNL     1      -3.687  -2.992  24.268  0.00  0.00    +0.029 A 
ATOM     30  C   UNL     1      -2.912  -2.788  24.464  0.00  0.00    -0.000 A 
ENDBRANCH  23  24
ENDBRANCH  22  23
ENDBRANCH  19  20
BRANCH  12  11
ATOM     11  C   UNL     1      -0.146   2.486  25.526  0.00  0.00    +0.145 C 
BRANCH  11  10
ATOM      8  C   UNL     1      -1.929   3.655  25.426  0.00  0.00    +0.123 A 
ATOM      9  C   UNL     1      -1.535   2.956  25.620  0.00  0.00    +0.118 A 
ATOM     10  N   UNL     1      -0.740   3.050  25.424  0.00  0.00    -0.229 N 
ATOM     31  N   UNL     1      -0.641   3.806  25.110  0.00  0.00    -0.064 NA
ATOM     32  N   UNL     1      -1.377   4.180  25.110  0.00  0.00    -0.129 NA
BRANCH   8   4
ATOM      1  N   UNL     1      -4.617   3.502  24.465  0.00  0.00    -0.128 NA
ATOM      2  C   UNL     1      -4.078   3.726  25.048  0.00  0.00    +0.089 A 
ATOM      3  C   UNL     1      -3.273   3.578  24.945  0.00  0.00    +0.020 A 
ATOM      4  C   UNL     1      -2.735   3.803  25.529  0.00  0.00    +0.022 A 
ATOM      5  C   UNL     1      -3.001   4.174  26.215  0.00  0.00    +0.002 A 
ATOM      6  C   UNL     1      -3.806   4.322  26.318  0.00  0.00    +0.001 A 
ATOM      7  C   UNL     1      -4.344   4.097  25.735  0.00  0.00    +0.018 A 
ENDBRANCH   8   4
ENDBRANCH  11  10
ENDBRANCH  12  11
TORSDOF 6
ENDMDL
MODEL 2
REMARK VINA RESULT:     -12.6      2.018      3.698
REMARK  Name = 
REMARK  6 active torsions:
REMARK  status: ('A' for Active; 'I' for Inactive)
REMARK    1  A    between atoms: C_4  and  C_8
REMARK    2  A    between atoms: N_10  and  C_11
REMARK    3  A    between atoms: C_11  and  C_12
REMARK    4  A    between atoms: C_19  and  C_20
REMARK    5  A    between atoms: N_22  and  C_23
REMARK    6  A    between atoms: C_23  and  C_24
REMARK                            x       y       z     vdW  Elec       q    Type
REMARK                         _______ _______ _______ _____ _____    ______ ____
ROOT
ATOM     12  C   UNL     1      -4.928   3.000  25.272  0.00  0.00    +0.082 C 
ATOM     13  C   UNL     1      -5.378   2.457  25.601  0.00  0.00    +0.019 C 
ATOM     14  C   UNL     1      -5.403   1.675  25.393  0.00  0.00    +0.013 C 
ATOM     15  C   UNL     1      -5.987   1.215  25.894  0.00  0.00    +0.018 C 
ATOM     16  C   UNL     1      -5.661   1.745  25.696  0.00  0.00    +0.072 C 
ATOM     17  N   UNL     1      -4.959   2.202  25.065  0.00  0.00    -0.272 NA
ATOM     18  C   UNL     1      -4.514   1.717  24.432  0.00  0.00    +0.081 C 
ATOM     19  C   UNL     1      -4.972   1.216  24.782  0.00  0.00    +0.094 C 
ENDROOT
BRANCH  19  20
ATOM     20  C   UNL     1      -5.045   0.410  24.620  0.00  0.00    +0.243 C 
ATOM     21  O   UNL     1      -5.773   0.102  24.380  0.00  0.00    -0.273 OA
ATOM     22  N   UNL     1      -4.393  -0.087  24.697  0.00  0.00    -0.201 NA
BRANCH  22  23
ATOM     23  C   UNL     1      -4.466  -0.893  24.535  0.00  0.00    +0.141 C 
BRANCH  23  24
ATOM     24  C   UNL     1      -3.807  -1.386  24.587  0.00  0.00    -0.000 A 
ATOM     25  C   UNL     1      -3.790  -2.098  24.170  0.00  0.00    -0.000 A 
ATOM     26  C   UNL     1      -3.130  -2.591  24.221  0.00  0.00    +0.029 A 
ATOM     27  C   UNL     1      -2.488  -2.373  24.689  0.00  0.00    +0.140 A 
ATOM     28  F   UNL     1      -1.828  -2.865  24.741  0.00  0.00    -0.204 F 
ATOM     29  C   UNL     1      -2.504  -1.660  25.106  0.00  0.00    +0.029 A 
ATOM     30  C   UNL     1      -3.164  -1.168  25.055  0.00  0.00    -0.000 A 
ENDBRANCH  23  24
ENDBRANCH  22  23
ENDBRANCH  19  20
BRANCH  12  11
ATOM     11  C   UNL     1      -4.643   3.770  25.192  0.00  0.00    +0.145 C 
BRANCH  11  10
ATOM      8  C   UNL     1      -2.579   4.188  25.541  0.00  0.00    +0.123 A 
ATOM      9  C   UNL     1      -3.194   3.958  25.040  0.00  0.00    +0.118 A 
ATOM     10  N   UNL     1      -3.893   3.964  25.476  0.00  0.00    -0.229 N 
ATOM     31  N   UNL     1      -3.712   4.198  26.246  0.00  0.00    -0.064 NA
ATOM     32  N   UNL     1      -2.900   4.336  26.286  0.00  0.00    -0.129 NA
BRANCH   8   4
ATOM      1  N   UNL     1       0.008   3.016  25.218  0.00  0.00    -0.128 NA
ATOM      2  C   UNL     1      -0.490   3.672  25.172  0.00  0.00    +0.089 A 
ATOM      3  C   UNL     1      -1.286   3.602  25.380  0.00  0.00    +0.020 A 
ATOM      4  C   UNL     1      -1.783   4.258  25.333  0.00  0.00    +0.022 A 
ATOM      5  C   UNL     1      -1.486   4.984  25.078  0.00  0.00    +0.002 A 
ATOM      6  C   UNL     1      -0.691   5.054  24.870  0.00  0.00    +0.001 A 
ATOM      7  C   UNL     1      -0.194   4.398  24.917  0.00  0.00    +0.018 A 
ENDBRANCH   8   4
ENDBRANCH  11  10
ENDBRANCH  12  11
TORSDOF 6
ENDMDL
MODEL 3
REMARK VINA RESULT:     -12.4      1.759      5.075
REMARK  Name = 
REMARK  6 active torsions:
REMARK  status: ('A' for Active; 'I' for Inactive)
REMARK    1  A    between atoms: C_4  and  C_8
REMARK    2  A    between atoms: N_10  and  C_11
REMARK    3  A    between atoms: C_11  and  C_12
REMARK    4  A    between atoms: C_19  and  C_20
REMARK    5  A    between atoms: N_22  and  C_23
REMARK    6  A    between atoms: C_23  and  C_24
REMARK                            x       y       z     vdW  Elec       q    Type
REMARK                         _______ _______ _______ _____ _____    ______ ____
ROOT
ATOM     12  C   UNL     1      -0.310   0.514  24.588  0.00  0.00    +0.082 C 
ATOM     13  C   UNL     1      -0.183   1.083  25.103  0.00  0.00    +0.019 C 
ATOM     14  C   UNL     1      -0.556   1.802  25.113  0.00  0.00    +0.013 C 
ATOM     15  C   UNL     1      -0.268   2.318  25.788  0.00  0.00    +0.018 C 
ATOM     16  C   UNL     1      -0.291   1.780  25.418  0.00  0.00    +0.072 C 
ATOM     17  N   UNL     1      -0.686   1.249  24.605  0.00  0.00    -0.272 NA
ATOM     18  C   UNL     1      -1.328   1.619  24.072  0.00  0.00    +0.081 C 
ATOM     19  C   UNL     1      -1.173   2.151  24.596  0.00  0.00    +0.094 C 
ENDROOT
BRANCH  19  20
ATOM     20  C   UNL     1      -1.515   2.900  24.663  0.00  0.00    +0.243 C 
ATOM     21  O   UNL     1      -1.055   3.575  24.545  0.00  0.00    -0.273 OA
ATOM     22  N   UNL     1      -2.315   2.972  24.847  0.00  0.00    -0.201 NA
BRANCH  22  23
ATOM     23  C   UNL     1      -2.657   3.721  24.914  0.00  0.00    +0.141 C 
BRANCH  23  24
ATOM     24  C   UNL     1      -3.458   3.793  25.097  0.00  0.00    -0.000 A 
ATOM     25  C   UNL     1      -3.697   3.855  25.884  0.00  0.00    -0.000 A 
ATOM     26  C   UNL     1      -4.498   3.927  26.069  0.00  0.00    +0.029 A 
ATOM     27  C   UNL     1      -5.060   3.938  25.466  0.00  0.00    +0.140 A 
ATOM     28  F   UNL     1      -5.861   4.010  25.649  0.00  0.00    -0.204 F 
ATOM     29  C   UNL     1      -4.821   3.876  24.678  0.00  0.00    +0.029 A 
ATOM     30  C   UNL     1      -4.020   3.804  24.494  0.00  0.00    -0.000 A 
ENDBRANCH  23  24
ENDBRANCH  22  23
ENDBRANCH  19  20
BRANCH  12  11
ATOM     11  C   UNL     1      -0.176  -0.236  24.272  0.00  0.00    +0.145 C 
BRANCH  11  10
ATOM      8  C   UNL     1      -1.661  -1.728  24.625  0.00  0.00    +0.123 A 
ATOM      9  C   UNL     1      -1.404  -1.041  24.244  0.00  0.00    +0.118 A 
ATOM     10  N   UNL     1      -0.642  -0.874  24.510  0.00  0.00    -0.229 N 
ATOM     31  N   UNL     1      -0.427  -1.455  25.055  0.00  0.00    -0.064 NA
ATOM     32  N   UNL     1      -1.057  -1.983  25.126  0.00  0.00    -0.129 NA
BRANCH   8   4
ATOM      1  N   UNL     1      -4.452  -1.558  24.032  0.00  0.00    -0.128 NA
ATOM      2  C   UNL     1      -3.789  -2.008  24.226  0.00  0.00    +0.089 A 
ATOM      3  C   UNL     1      -3.057  -1.642  24.328  0.00  0.00    +0.020 A 
ATOM      4  C   UNL     1      -2.394  -2.094  24.523  0.00  0.00    +0.022 A 
ATOM      5  C   UNL     1      -2.463  -2.910  24.615  0.00  0.00    +0.002 A 
ATOM      6  C   UNL     1      -3.195  -3.276  24.513  0.00  0.00    +0.001 A 
ATOM      7  C   UNL     1      -3.857  -2.825  24.319  0.00  0.00    +0.018 A 
ENDBRANCH   8   4
ENDBRANCH  11  10
ENDBRANCH  12  11
TORSDOF 6
ENDMDL
MODEL 4
REMARK VINA RESULT:     -12.2      2.651      6.200
REMARK  Name = 
REMARK  6 active torsions:
REMARK  status: ('A' for Active; 'I' for Inactive)
REMARK    1  A    between atoms: C_4  and  C_8
REMARK    2  A    between atoms: N_10  and  C_11
REMARK    3  A    between atoms: C_11  and  C_12
REMARK    4  A    between atoms: C_19  and  C_20
REMARK    5  A    between atoms: N_22  and  C_23
REMARK    6  A    between atoms: C_23  and  C_24
REMARK                            x       y       z     vdW  Elec       q    Type
REMARK                         _______ _______ _______ _____ _____    ______ ____
ROOT
ATOM     12  C   UNL     1      -4.836   0.772  24.703  0.00  0.00    +0.082 C 
ATOM     13  C   UNL     1      -5.138   1.311  25.176  0.00  0.00    +0.019 C 
ATOM     14  C   UNL     1      -4.897   2.083  25.227  0.00  0.00    +0.013 C 
ATOM     15  C   UNL     1      -5.373   2.542  25.833  0.00  0.00    +0.018 C 
ATOM     16  C   UNL     1      -5.201   2.016  25.486  0.00  0.00    +0.072 C 
ATOM     17  N   UNL     1      -4.595   1.560  24.762  0.00  0.00    -0.272 NA
ATOM     18  C   UNL     1      -3.946   2.033  24.329  0.00  0.00    +0.081 C 
ATOM     19  C   UNL     1      -4.271   2.532  24.807  0.00  0.00    +0.094 C 
ENDROOT
BRANCH  19  20
ATOM     20  C   UNL     1      -4.074   3.327  24.909  0.00  0.00    +0.243 C 
ATOM     21  O   UNL     1      -4.661   3.906  24.865  0.00  0.00    -0.273 OA
ATOM     22  N   UNL     1      -3.291   3.542  25.053  0.00  0.00    -0.201 NA
BRANCH  22  23
ATOM     23  C   UNL     1      -3.094   4.338  25.154  0.00  0.00    +0.141 C 
BRANCH  23  24
ATOM     24  C   UNL     1      -2.307   4.577  25.101  0.00  0.00    -0.000 A 
ATOM     25  C   UNL     1      -1.701   4.020  25.160  0.00  0.00    -0.000 A 
ATOM     26  C   UNL     1      -0.913   4.259  25.107  0.00  0.00    +0.029 A 
ATOM     27  C   UNL     1      -0.731   5.055  24.995  0.00  0.00    +0.140 A 
ATOM     28  F   UNL     1       0.057   5.295  24.941  0.00  0.00    -0.204 F 
ATOM     29  C   UNL     1      -1.336   5.613  24.935  0.00  0.00    +0.029 A 
ATOM     30  C   UNL     1      -2.124   5.374  24.988  0.00  0.00    -0.000 A 
ENDBRANCH  23  24
ENDBRANCH  22  23
ENDBRANCH  19  20
BRANCH  12  11
ATOM     11  C   UNL     1      -4.791   0.011  24.390  0.00  0.00    +0.145 C 
BRANCH  11  10
ATOM      8  C   UNL     1      -3.199  -1.317  24.901  0.00  0.00    +0.123 A 
ATOM      9  C   UNL     1      -3.536  -0.752  24.401  0.00  0.00    +0.118 A 
ATOM     10  N   UNL     1      -4.267  -0.538  24.714  0.00  0.00    -0.229 N 
ATOM     31  N   UNL     1      -4.385  -0.970  25.407  0.00  0.00    -0.064 NA
ATOM     32  N   UNL     1      -3.725  -1.451  25.523  0.00  0.00    -0.129 NA
BRANCH   8   4
ATOM      1  N   UNL     1      -0.352  -1.269  25.145  0.00  0.00    -0.128 NA
ATOM      2  C   UNL     1      -1.043  -1.658  24.920  0.00  0.00    +0.089 A 
ATOM      3  C   UNL     1      -1.776  -1.292  25.023  0.00  0.00    +0.020 A 
ATOM      4  C   UNL     1      -2.467  -1.683  24.798  0.00  0.00    +0.022 A 
ATOM      5  C   UNL     1      -2.426  -2.438  24.469  0.00  0.00    +0.002 A 
ATOM      6  C   UNL     1      -1.694  -2.804  24.365  0.00  0.00    +0.001 A 
ATOM      7  C   UNL     1      -1.003  -2.413  24.591  0.00  0.00    +0.018 A 
ENDBRANCH   8   4
ENDBRANCH  11  10
ENDBRANCH  12  11
TORSDOF 6
ENDMDL
MODEL 5
REMARK VINA RESULT:     -12.0      3.110      4.559
REMARK  Name = 
REMARK  6 active torsions:
REMARK  status: ('A' for Active; 'I' for Inactive)
REMARK    1  A    between atoms: C_4  and  C_8
REMARK    2  A    between atoms: N_10  and  C_11
REMARK    3  A    between atoms: C_11  and  C_12
REMARK    4  A    between atoms: C_19  and  C_20
REMARK    5  A    between atoms: N_22  and  C_23
REMARK    6  A    between atoms: C_23  and  C_24
REMARK                            x       y       z     vdW  Elec       q    Type
REMARK                         _______ _______ _______ _____ _____    ______ ____
ROOT
ATOM     12  C   UNL     1      -0.775   1.366  24.485  0.00  0.00    +0.082 C 
ATOM     13  C   UNL     1      -0.674   0.608  24.341  0.00  0.00    +0.019 C 
ATOM     14  C   UNL     1      -0.081   0.288  23.892  0.00  0.00    +0.013 C 
ATOM     15  C   UNL     1      -0.141  -0.605  23.847  0.00  0.00    +0.018 C 
ATOM     16  C   UNL     1      -0.321  -0.005  24.032  0.00  0.00    +0.072 C 
ATOM     17  N   UNL     1      -0.173   1.033  24.029  0.00  0.00    -0.272 NA
ATOM     18  C   UNL     1       0.526   1.404  23.575  0.00  0.00    +0.081 C 
ATOM     19  C   UNL     1       0.589   0.652  23.457  0.00  0.00    +0.094 C 
ENDROOT
BRANCH  19  20
ATOM     20  C   UNL     1       1.166   0.263  23.013  0.00  0.00    +0.243 C 
ATOM     21  O   UNL     1       0.943  -0.277  22.431  0.00  0.00    -0.273 OA
ATOM     22  N   UNL     1       1.964   0.415  23.152  0.00  0.00    -0.201 NA
BRANCH  22  23
ATOM     23  C   UNL     1       2.541   0.026  22.709  0.00  0.00    +0.141 C 
BRANCH  23  24
ATOM     24  C   UNL     1       3.339   0.119  22.898  0.00  0.00    -0.000 A 
ATOM     25  C   UNL     1       3.736   0.809  22.682  0.00  0.00    -0.000 A 
ATOM     26  C   UNL     1       4.534   0.903  22.871  0.00  0.00    +0.029 A 
ATOM     27  C   UNL     1       4.934   0.306  23.276  0.00  0.00    +0.140 A 
ATOM     28  F   UNL     1       5.732   0.399  23.465  0.00  0.00    -0.204 F 
ATOM     29  C   UNL     1       4.537  -0.384  23.492  0.00  0.00    +0.029 A 
ATOM     30  C   UNL     1       3.739  -0.477  23.303  0.00  0.00    -0.000 A 
ENDBRANCH  23  24
ENDBRANCH  22  23
ENDBRANCH  19  20
BRANCH  12  11
ATOM     11  C   UNL     1      -1.171   2.004  24.826  0.00  0.00    +0.145 C 
BRANCH  11  10
ATOM      8  C   UNL     1      -3.285   2.233  24.637  0.00  0.00    +0.123 A 
ATOM      9  C   UNL     1      -2.622   1.969  25.053  0.00  0.00    +0.118 A 
ATOM     10  N   UNL     1      -1.952   2.165  24.615  0.00  0.00    -0.229 N 
ATOM     31  N   UNL     1      -2.199   2.550  23.928  0.00  0.00    -0.064 NA
ATOM     32  N   UNL     1      -3.023   2.592  23.942  0.00  0.00    -0.129 NA
BRANCH   8   4
ATOM      1  N   UNL     1      -5.627   3.327  25.856  0.00  0.00    -0.128 NA
ATOM      2  C   UNL     1      -5.242   2.700  25.484  0.00  0.00    +0.089 A 
ATOM      3  C   UNL     1      -4.456   2.781  25.247  0.00  0.00    +0.020 A 
ATOM      4  C   UNL     1      -4.071   2.153  24.875  0.00  0.00    +0.022 A 
ATOM      5  C   UNL     1      -4.472   1.445  24.740  0.00  0.00    +0.002 A 
ATOM      6  C   UNL     1      -5.258   1.364  24.978  0.00  0.00    +0.001 A 
ATOM      7  C   UNL     1      -5.642   1.992  25.349  0.00  0.00    +0.018 A 
ENDBRANCH   8   4
ENDBRANCH  11  10
ENDBRANCH  12  11
TORSDOF 6
ENDMDL
MODEL 6
REMARK VINA RESULT:     -11.4      1.135      1.630
REMARK  Name = 
REMARK  6 active torsions:
REMARK  status: ('A' for Active; 'I' for Inactive)
REMARK    1  A    between atoms: C_4  and  C_8
REMARK    2  A    between atoms: N_10  and  C_11
REMARK    3  A    between atoms: C_11  and  C_12
REMARK    4  A    between atoms: C_19  and  C_20
REMARK    5  A    between atoms: N_22  and  C_23
REMARK    6  A    between atoms: C_23  and  C_24
REMARK                            x       y       z     vdW  Elec       q    Type
REMARK                         _______ _______ _______ _____ _____    ______ ____
ROOT
ATOM     12  C   UNL     1      -1.343   2.705  25.051  0.00  0.00    +0.082 C 
ATOM     13  C   UNL     1      -0.908   2.225  25.482  0.00  0.00    +0.019 C 
ATOM     14  C   UNL     1      -0.800   1.434  25.343  0.00  0.00    +0.013 C 
ATOM     15  C   UNL     1      -0.262   1.059  25.955  0.00  0.00    +0.018 C 
ATOM     16  C   UNL     1      -0.593   1.546  25.672  0.00  0.00    +0.072 C 
ATOM     17  N   UNL     1      -1.229   1.899  24.917  0.00  0.00    -0.272 NA
ATOM     18  C   UNL     1      -1.546   1.337  24.272  0.00  0.00    +0.081 C 
ATOM     19  C   UNL     1      -1.109   0.899  24.720  0.00  0.00    +0.094 C 
ENDROOT
BRANCH  19  20
ATOM     20  C   UNL     1      -0.958   0.092  24.635  0.00  0.00    +0.243 C 
ATOM     21  O   UNL     1      -0.200  -0.167  24.438  0.00  0.00    -0.273 OA
ATOM     22  N   UNL     1      -1.565  -0.454  24.748  0.00  0.00    -0.201 NA
BRANCH  22  23
ATOM     23  C   UNL     1      -1.414  -1.261  24.664  0.00  0.00    +0.141 C 
BRANCH  23  24
ATOM     24  C   UNL     1      -2.039  -1.800  24.670  0.00  0.00    -0.000 A 
ATOM     25  C   UNL     1      -2.724  -1.633  25.098  0.00  0.00    -0.000 A 
ATOM     26  C   UNL     1      -3.349  -2.171  25.105  0.00  0.00    +0.029 A 
ATOM     27  C   UNL     1      -3.289  -2.877  24.683  0.00  0.00    +0.140 A 
ATOM     28  F   UNL     1      -3.914  -3.416  24.690  0.00  0.00    -0.204 F 
ATOM     29  C   UNL     1      -2.603  -3.046  24.255  0.00  0.00    +0.029 A 
ATOM     30  C   UNL     1      -1.979  -2.507  24.249  0.00  0.00    -0.000 A 
ENDBRANCH  23  24
ENDBRANCH  22  23
ENDBRANCH  19  20
BRANCH  12  11
ATOM     11  C   UNL     1      -1.666   3.442  24.870  0.00  0.00    +0.145 C 
BRANCH  11  10
ATOM      8  C   UNL     1      -3.664   3.775  25.544  0.00  0.00    +0.123 A 
ATOM      9  C   UNL     1      -3.121   3.377  25.066  0.00  0.00    +0.118 A 
ATOM     10  N   UNL     1      -2.372   3.682  25.225  0.00  0.00    -0.229 N 
ATOM     31  N   UNL     1      -2.450   4.268  25.800  0.00  0.00    -0.064 NA
ATOM     32  N   UNL     1      -3.250   4.326  25.997  0.00  0.00    -0.129 NA
BRANCH   8   4
ATOM      1  N   UNL     1      -5.881   1.999  25.858  0.00  0.00    -0.128 NA
ATOM      2  C   UNL     1      -5.587   2.757  25.721  0.00  0.00    +0.089 A 
ATOM      3  C   UNL     1      -4.773   2.887  25.701  0.00  0.00    +0.020 A 
ATOM      4  C   UNL     1      -4.479   3.646  25.564  0.00  0.00    +0.022 A 
ATOM      5  C   UNL     1      -5.000   4.275  25.447  0.00  0.00    +0.002 A 
ATOM      6  C   UNL     1      -5.814   4.145  25.468  0.00  0.00    +0.001 A 
ATOM      7  C   UNL     1      -6.107   3.387  25.604  0.00  0.00    +0.018 A 
ENDBRANCH   8   4
ENDBRANCH  11  10
ENDBRANCH  12  11
TORSDOF 6
ENDMDL
MODEL 7
REMARK VINA RESULT:     -11.3      2.915      5.586
REMARK  Name = 
REMARK  6 active torsions:
REMARK  status: ('A' for Active; 'I' for Inactive)
REMARK    1  A    between atoms: C_4  and  C_8
REMARK    2  A    between atoms: N_10  and  C_11
REMARK    3  A    between atoms: C_11  and  C_12
REMARK    4  A    between atoms: C_19  and  C_20
REMARK    5  A    between atoms: N_22  and  C_23
REMARK    6  A    between atoms: C_23  and  C_24
REMARK                            x       y       z     vdW  Elec       q    Type
REMARK                         _______ _______ _______ _____ _____    ______ ____
ROOT
ATOM     12  C   UNL     1       0.043   0.558  23.739  0.00  0.00    +0.082 C 
ATOM     13  C   UNL     1       0.032   1.194  24.187  0.00  0.00    +0.019 C 
ATOM     14  C   UNL     1      -0.587   1.711  24.258  0.00  0.00    +0.013 C 
ATOM     15  C   UNL     1      -0.399   2.380  24.824  0.00  0.00    +0.018 C 
ATOM     16  C   UNL     1      -0.279   1.831  24.491  0.00  0.00    +0.072 C 
ATOM     17  N   UNL     1      -0.584   1.089  23.817  0.00  0.00    -0.272 NA
ATOM     18  C   UNL     1      -1.413   1.115  23.437  0.00  0.00    +0.081 C 
ATOM     19  C   UNL     1      -1.383   1.729  23.889  0.00  0.00    +0.094 C 
ENDROOT
BRANCH  19  20
ATOM     20  C   UNL     1      -1.974   2.293  24.006  0.00  0.00    +0.243 C 
ATOM     21  O   UNL     1      -1.821   3.089  23.852  0.00  0.00    -0.273 OA
ATOM     22  N   UNL     1      -2.717   2.060  24.277  0.00  0.00    -0.201 NA
BRANCH  22  23
ATOM     23  C   UNL     1      -3.309   2.624  24.394  0.00  0.00    +0.141 C 
BRANCH  23  24
ATOM     24  C   UNL     1      -4.032   2.400  24.723  0.00  0.00    -0.000 A 
ATOM     25  C   UNL     1      -4.412   2.898  25.259  0.00  0.00    -0.000 A 
ATOM     26  C   UNL     1      -5.135   2.675  25.589  0.00  0.00    +0.029 A 
ATOM     27  C   UNL     1      -5.477   1.954  25.382  0.00  0.00    +0.140 A 
ATOM     28  F   UNL     1      -6.200   1.731  25.711  0.00  0.00    -0.204 F 
ATOM     29  C   UNL     1      -5.097   1.456  24.845  0.00  0.00    +0.029 A 
ATOM     30  C   UNL     1      -4.374   1.679  24.516  0.00  0.00    -0.000 A 
ENDBRANCH  23  24
ENDBRANCH  22  23
ENDBRANCH  19  20
BRANCH  12  11
ATOM     11  C   UNL     1       0.399  -0.118  23.429  0.00  0.00    +0.145 C 
BRANCH  11  10
ATOM      8  C   UNL     1       2.426   0.075  22.787  0.00  0.00    +0.123 A 
ATOM      9  C   UNL     1       1.858   0.047  23.387  0.00  0.00    +0.118 A 
ATOM     10  N   UNL     1       1.121  -0.060  23.034  0.00  0.00    -0.229 N 
ATOM     31  N   UNL     1       1.231  -0.098  22.218  0.00  0.00    -0.064 NA
ATOM     32  N   UNL     1       2.038  -0.015  22.065  0.00  0.00    -0.129 NA
BRANCH   8   4
ATOM      1  N   UNL     1       4.933  -0.892  23.760  0.00  0.00    -0.128 NA
ATOM      2  C   UNL     1       4.492  -0.309  23.379  0.00  0.00    +0.089 A 
ATOM      3  C   UNL     1       3.679  -0.409  23.274  0.00  0.00    +0.020 A 
ATOM      4  C   UNL     1       3.238   0.174  22.892  0.00  0.00    +0.022 A 
ATOM      5  C   UNL     1       3.609   0.857  22.616  0.00  0.00    +0.002 A 
ATOM      6  C   UNL     1       4.421   0.957  22.721  0.00  0.00    +0.001 A 
ATOM      7  C   UNL     1       4.861   0.374  23.102  0.00  0.00    +0.018 A 
ENDBRANCH   8   4
ENDBRANCH  11  10
ENDBRANCH  12  11
TORSDOF 6
ENDMDL
MODEL 8
REMARK VINA RESULT:      -9.1     18.134     19.362
REMARK  Name = 
REMARK  6 active torsions:
REMARK  status: ('A' for Active; 'I' for Inactive)
REMARK    1  A    between atoms: C_4  and  C_8
REMARK    2  A    between atoms: N_10  and  C_11
REMARK    3  A    between atoms: C_11  and  C_12
REMARK    4  A    between atoms: C_19  and  C_20
REMARK    5  A    between atoms: N_22  and  C_23
REMARK    6  A    between atoms: C_23  and  C_24
REMARK                            x       y       z     vdW  Elec       q    Type
REMARK                         _______ _______ _______ _____ _____    ______ ____
ROOT
ATOM     12  C   UNL     1      16.896  -5.673  26.333  0.00  0.00    +0.082 C 
ATOM     13  C   UNL     1      16.385  -6.256  26.264  0.00  0.00    +0.019 C 
ATOM     14  C   UNL     1      16.028  -6.645  26.878  0.00  0.00    +0.013 C 
ATOM     15  C   UNL     1      15.471  -7.286  26.589  0.00  0.00    +0.018 C 
ATOM     16  C   UNL     1      15.902  -6.799  26.526  0.00  0.00    +0.072 C 
ATOM     17  N   UNL     1      16.527  -6.074  26.953  0.00  0.00    -0.272 NA
ATOM     18  C   UNL     1      16.585  -5.982  27.859  0.00  0.00    +0.081 C 
ATOM     19  C   UNL     1      16.088  -6.551  27.748  0.00  0.00    +0.094 C 
ENDROOT
BRANCH  19  20
ATOM     20  C   UNL     1      15.691  -6.986  28.326  0.00  0.00    +0.243 C 
ATOM     21  O   UNL     1      15.817  -7.799  28.389  0.00  0.00    -0.273 OA
ATOM     22  N   UNL     1      15.170  -6.608  28.841  0.00  0.00    -0.201 NA
BRANCH  22  23
ATOM     23  C   UNL     1      14.772  -7.044  29.419  0.00  0.00    +0.141 C 
BRANCH  23  24
ATOM     24  C   UNL     1      14.219  -6.673  29.906  0.00  0.00    -0.000 A 
ATOM     25  C   UNL     1      13.419  -6.862  29.839  0.00  0.00    -0.000 A 
ATOM     26  C   UNL     1      12.865  -6.492  30.326  0.00  0.00    +0.029 A 
ATOM     27  C   UNL     1      13.111  -5.933  30.880  0.00  0.00    +0.140 A 
ATOM     28  F   UNL     1      12.558  -5.563  31.367  0.00  0.00    -0.204 F 
ATOM     29  C   UNL     1      13.912  -5.744  30.947  0.00  0.00    +0.029 A 
ATOM     30  C   UNL     1      14.465  -6.114  30.460  0.00  0.00    -0.000 A 
ENDBRANCH  23  24
ENDBRANCH  22  23
ENDBRANCH  19  20
BRANCH  12  11
ATOM     11  C   UNL     1      17.405  -5.102  26.026  0.00  0.00    +0.145 C 
BRANCH  11  10
ATOM      8  C   UNL     1      16.942  -3.963  24.281  0.00  0.00    +0.123 A 
ATOM      9  C   UNL     1      16.988  -4.039  25.103  0.00  0.00    +0.118 A 
ATOM     10  N   UNL     1      17.274  -4.793  25.273  0.00  0.00    -0.229 N 
ATOM     31  N   UNL     1      17.405  -5.184  24.559  0.00  0.00    -0.064 NA
ATOM     32  N   UNL     1      17.200  -4.671  23.946  0.00  0.00    -0.129 NA
BRANCH   8   4
ATOM      1  N   UNL     1      17.292  -1.227  23.532  0.00  0.00    -0.128 NA
ATOM      2  C   UNL     1      16.859  -1.928  23.495  0.00  0.00    +0.089 A 
ATOM      3  C   UNL     1      17.117  -2.595  23.907  0.00  0.00    +0.020 A 
ATOM      4  C   UNL     1      16.684  -3.296  23.869  0.00  0.00    +0.022 A 
ATOM      5  C   UNL     1      15.994  -3.331  23.420  0.00  0.00    +0.002 A 
ATOM      6  C   UNL     1      15.736  -2.665  23.007  0.00  0.00    +0.001 A 
ATOM      7  C   UNL     1      16.169  -1.964  23.045  0.00  0.00    +0.018 A 
ENDBRANCH   8   4
ENDBRANCH  11  10
ENDBRANCH  12  11
TORSDOF 6
ENDMDL
