MODEL 1
REMARK VINA RESULT:     -11.9      0.000      0.000
REMARK  Name = 
REMARK  9 active torsions:
REMARK  status: ('A' for Active; 'I' for Inactive)
REMARK    1  A    between atoms: N_2  and  C_3
REMARK    2  A    between atoms: N_2  and  C_27
REMARK    3  A    between atoms: C_3  and  C_4
REMARK    4  A    between atoms: N_6  and  C_7
REMARK    5  A    between atoms: C_7  and  C_8
REMARK    6  A    between atoms: C_15  and  C_16
REMARK    7  A    between atoms: N_18  and  C_19
REMARK    8  A    between atoms: C_19  and  C_20
REMARK    9  A    between atoms: C_27  and  C_28
REMARK                            x       y       z     vdW  Elec       q    Type
REMARK                         _______ _______ _______ _____ _____    ______ ____
ROOT
ATOM      8  C   UNL     1      -0.328   1.960  25.251  0.00  0.00    +0.082 C 
ATOM      9  C   UNL     1      -0.183   1.532  24.618  0.00  0.00    +0.019 C 
ATOM     10  C   UNL     1      -0.373   0.751  24.524  0.00  0.00    +0.013 C 
ATOM     11  C   UNL     1      -0.121   0.440  23.721  0.00  0.00    +0.018 C 
ATOM     12  C   UNL     1      -0.190   0.889  24.190  0.00  0.00    +0.072 C 
ATOM     13  N   UNL     1      -0.518   1.164  25.147  0.00  0.00    -0.272 NA
ATOM     14  C   UNL     1      -0.930   0.559  25.693  0.00  0.00    +0.081 C 
ATOM     15  C   UNL     1      -0.770   0.174  25.053  0.00  0.00    +0.094 C 
ENDROOT
BRANCH  15  16
ATOM     16  C   UNL     1      -0.935  -0.619  24.893  0.00  0.00    +0.243 C 
ATOM     17  O   UNL     1      -0.321  -1.166  24.842  0.00  0.00    -0.273 OA
ATOM     18  N   UNL     1      -1.716  -0.863  24.784  0.00  0.00    -0.197 NA
BRANCH  18  19
ATOM     19  C   UNL     1      -1.881  -1.655  24.624  0.00  0.00    +0.179 C 
BRANCH  19  20
ATOM     20  C   UNL     1      -2.658  -1.895  24.485  0.00  0.00    +0.145 A 
ATOM     21  C   UNL     1      -2.978  -2.633  24.673  0.00  0.00    +0.038 A 
ATOM     22  C   UNL     1      -3.769  -2.633  24.438  0.00  0.00    +0.043 A 
ATOM     23  C   UNL     1      -3.937  -1.897  24.105  0.00  0.00    +0.179 A 
ATOM     24  O   UNL     1      -3.250  -1.442  24.135  0.00  0.00    -0.453 OA
ENDBRANCH  19  20
ENDBRANCH  18  19
ENDBRANCH  15  16
BRANCH   8   7
ATOM      7  C   UNL     1      -0.307   2.661  25.686  0.00  0.00    +0.145 C 
BRANCH   7   6
ATOM      4  C   UNL     1      -2.000   3.951  25.524  0.00  0.00    +0.117 A 
ATOM      5  C   UNL     1      -1.648   3.255  25.793  0.00  0.00    +0.115 A 
ATOM      6  N   UNL     1      -0.863   3.253  25.540  0.00  0.00    -0.229 N 
ATOM     25  N   UNL     1      -0.730   3.948  25.116  0.00  0.00    -0.064 NA
ATOM     26  N   UNL     1      -1.433   4.379  25.106  0.00  0.00    -0.132 NA
BRANCH   4   3
ATOM      3  C   UNL     1      -2.783   4.178  25.652  0.00  0.00    +0.122 C 
BRANCH   3   2
ATOM      1  C   UNL     1      -3.596   3.804  24.538  0.00  0.00    +0.090 C 
ATOM      2  N   UNL     1      -3.400   3.730  25.336  0.00  0.00    -0.263 NA
BRANCH   2  27
ATOM     27  C   UNL     1      -3.821   3.209  25.818  0.00  0.00    +0.099 C 
BRANCH  27  28
ATOM     28  C   UNL     1      -4.477   2.809  25.517  0.00  0.00    -0.006 A 
ATOM     29  C   UNL     1      -5.235   3.116  25.631  0.00  0.00    -0.003 A 
ATOM     30  C   UNL     1      -5.891   2.716  25.330  0.00  0.00    -0.000 A 
ATOM     31  C   UNL     1      -5.790   2.010  24.917  0.00  0.00    -0.000 A 
ATOM     32  C   UNL     1      -5.033   1.703  24.804  0.00  0.00    -0.000 A 
ATOM     33  C   UNL     1      -4.377   2.102  25.104  0.00  0.00    -0.003 A 
ENDBRANCH  27  28
ENDBRANCH   2  27
ENDBRANCH   3   2
ENDBRANCH   4   3
ENDBRANCH   7   6
ENDBRANCH   8   7
TORSDOF 9
ENDMDL
MODEL 2
REMARK VINA RESULT:     -11.6      1.773      4.535
REMARK  Name = 
REMARK  9 active torsions:
REMARK  status: ('A' for Active; 'I' for Inactive)
REMARK    1  A    between atoms: N_2  and  C_3
REMARK    2  A    between atoms: N_2  and  C_27
REMARK    3  A    between atoms: C_3  and  C_4
REMARK    4  A    between atoms: N_6  and  C_7
REMARK    5  A    between atoms: C_7  and  C_8
REMARK    6  A    between atoms: C_15  and  C_16
REMARK    7  A    between atoms: N_18  and  C_19
REMARK    8  A    between atoms: C_19  and  C_20
REMARK    9  A    between atoms: C_27  and  C_28
REMARK                            x       y       z     vdW  Elec       q    Type
REMARK                         _______ _______ _______ _____ _____    ______ ____
ROOT
ATOM      8  C   UNL     1      -1.075   1.640  24.005  0.00  0.00    +0.082 C 
ATOM      9  C   UNL     1      -1.617   1.846  23.487  0.00  0.00    +0.019 C 
ATOM     10  C   UNL     1      -2.296   2.256  23.651  0.00  0.00    +0.013 C 
ATOM     11  C   UNL     1      -2.789   2.394  22.915  0.00  0.00    +0.018 C 
ATOM     12  C   UNL     1      -2.278   2.172  23.256  0.00  0.00    +0.072 C 
ATOM     13  N   UNL     1      -1.769   2.057  24.165  0.00  0.00    -0.272 NA
ATOM     14  C   UNL     1      -2.113   2.395  24.940  0.00  0.00    +0.081 C 
ATOM     15  C   UNL     1      -2.621   2.577  24.400  0.00  0.00    +0.094 C 
ENDROOT
BRANCH  15  16
ATOM     16  C   UNL     1      -3.329   2.991  24.500  0.00  0.00    +0.243 C 
ATOM     17  O   UNL     1      -3.396   3.765  24.224  0.00  0.00    -0.273 OA
ATOM     18  N   UNL     1      -3.968   2.629  24.876  0.00  0.00    -0.197 NA
BRANCH  18  19
ATOM     19  C   UNL     1      -4.674   3.043  24.976  0.00  0.00    +0.179 C 
BRANCH  19  20
ATOM     20  C   UNL     1      -5.312   2.685  25.358  0.00  0.00    +0.145 A 
ATOM     21  C   UNL     1      -5.797   2.096  25.043  0.00  0.00    +0.038 A 
ATOM     22  C   UNL     1      -6.361   1.900  25.613  0.00  0.00    +0.043 A 
ATOM     23  C   UNL     1      -6.225   2.367  26.278  0.00  0.00    +0.179 A 
ATOM     24  O   UNL     1      -5.577   2.852  26.121  0.00  0.00    -0.453 OA
ENDBRANCH  19  20
ENDBRANCH  18  19
ENDBRANCH  15  16
BRANCH   8   7
ATOM      7  C   UNL     1      -0.364   1.284  24.225  0.00  0.00    +0.145 C 
BRANCH   7   6
ATOM      4  C   UNL     1      -0.508  -0.806  24.632  0.00  0.00    +0.117 A 
ATOM      5  C   UNL     1      -0.733  -0.026  24.779  0.00  0.00    +0.115 A 
ATOM      6  N   UNL     1      -0.310   0.461  24.266  0.00  0.00    -0.229 N 
ATOM     25  N   UNL     1       0.176  -0.017  23.802  0.00  0.00    -0.064 NA
ATOM     26  N   UNL     1       0.054  -0.800  24.028  0.00  0.00    -0.132 NA
BRANCH   4   3
ATOM      3  C   UNL     1      -0.795  -1.475  25.021  0.00  0.00    +0.122 C 
BRANCH   3   2
ATOM      1  C   UNL     1      -1.456  -2.307  24.067  0.00  0.00    +0.090 C 
ATOM      2  N   UNL     1      -1.479  -1.848  24.751  0.00  0.00    -0.263 NA
BRANCH   2  27
ATOM     27  C   UNL     1      -2.188  -1.762  25.166  0.00  0.00    +0.099 C 
BRANCH  27  28
ATOM     28  C   UNL     1      -2.907  -1.899  24.786  0.00  0.00    -0.006 A 
ATOM     29  C   UNL     1      -3.147  -2.672  24.623  0.00  0.00    -0.003 A 
ATOM     30  C   UNL     1      -3.866  -2.808  24.243  0.00  0.00    -0.000 A 
ATOM     31  C   UNL     1      -4.346  -2.173  24.026  0.00  0.00    -0.000 A 
ATOM     32  C   UNL     1      -4.106  -1.401  24.189  0.00  0.00    -0.000 A 
ATOM     33  C   UNL     1      -3.387  -1.264  24.569  0.00  0.00    -0.003 A 
ENDBRANCH  27  28
ENDBRANCH   2  27
ENDBRANCH   3   2
ENDBRANCH   4   3
ENDBRANCH   7   6
ENDBRANCH   8   7
TORSDOF 9
ENDMDL
MODEL 3
REMARK VINA RESULT:     -11.3      1.434      3.698
REMARK  Name = 
REMARK  9 active torsions:
REMARK  status: ('A' for Active; 'I' for Inactive)
REMARK    1  A    between atoms: N_2  and  C_3
REMARK    2  A    between atoms: N_2  and  C_27
REMARK    3  A    between atoms: C_3  and  C_4
REMARK    4  A    between atoms: N_6  and  C_7
REMARK    5  A    between atoms: C_7  and  C_8
REMARK    6  A    between atoms: C_15  and  C_16
REMARK    7  A    between atoms: N_18  and  C_19
REMARK    8  A    between atoms: C_19  and  C_20
REMARK    9  A    between atoms: C_27  and  C_28
REMARK                            x       y       z     vdW  Elec       q    Type
REMARK                         _______ _______ _______ _____ _____    ______ ____
ROOT
ATOM      8  C   UNL     1      -4.552   0.403  24.980  0.00  0.00    +0.082 C 
ATOM      9  C   UNL     1      -4.200  -0.136  25.417  0.00  0.00    +0.019 C 
ATOM     10  C   UNL     1      -3.491  -0.489  25.250  0.00  0.00    +0.013 C 
ATOM     11  C   UNL     1      -3.258  -1.084  25.879  0.00  0.00    +0.018 C 
ATOM     12  C   UNL     1      -3.639  -0.635  25.597  0.00  0.00    +0.072 C 
ATOM     13  N   UNL     1      -3.830   0.038  24.816  0.00  0.00    -0.272 NA
ATOM     14  C   UNL     1      -3.242   0.132  24.125  0.00  0.00    +0.081 C 
ATOM     15  C   UNL     1      -2.930  -0.395  24.582  0.00  0.00    +0.094 C 
ENDROOT
BRANCH  15  16
ATOM     16  C   UNL     1      -2.215  -0.791  24.470  0.00  0.00    +0.243 C 
ATOM     17  O   UNL     1      -2.191  -1.615  24.502  0.00  0.00    -0.273 OA
ATOM     18  N   UNL     1      -1.524  -0.363  24.328  0.00  0.00    -0.197 NA
BRANCH  18  19
ATOM     19  C   UNL     1      -0.810  -0.760  24.216  0.00  0.00    +0.179 C 
BRANCH  19  20
ATOM     20  C   UNL     1      -0.161  -0.361  23.898  0.00  0.00    +0.145 A 
ATOM     21  C   UNL     1       0.099   0.391  24.116  0.00  0.00    +0.038 A 
ATOM     22  C   UNL     1       0.762   0.573  23.659  0.00  0.00    +0.043 A 
ATOM     23  C   UNL     1       0.911  -0.066  23.159  0.00  0.00    +0.179 A 
ATOM     24  O   UNL     1       0.340  -0.643  23.307  0.00  0.00    -0.453 OA
ENDBRANCH  19  20
ENDBRANCH  18  19
ENDBRANCH  15  16
BRANCH   8   7
ATOM      7  C   UNL     1      -5.165   0.928  24.812  0.00  0.00    +0.145 C 
BRANCH   7   6
ATOM      4  C   UNL     1      -4.887   2.955  25.422  0.00  0.00    +0.117 A 
ATOM      5  C   UNL     1      -4.698   2.317  24.934  0.00  0.00    +0.115 A 
ATOM      6  N   UNL     1      -5.172   1.679  25.155  0.00  0.00    -0.229 N 
ATOM     25  N   UNL     1      -5.653   1.922  25.779  0.00  0.00    -0.064 NA
ATOM     26  N   UNL     1      -5.477   2.711  25.944  0.00  0.00    -0.132 NA
BRANCH   4   3
ATOM      3  C   UNL     1      -4.545   3.705  25.392  0.00  0.00    +0.122 C 
BRANCH   3   2
ATOM      1  C   UNL     1      -3.573   3.839  24.353  0.00  0.00    +0.090 C 
ATOM      2  N   UNL     1      -3.760   3.792  25.156  0.00  0.00    -0.263 NA
BRANCH   2  27
ATOM     27  C   UNL     1      -3.160   3.831  25.721  0.00  0.00    +0.099 C 
BRANCH  27  28
ATOM     28  C   UNL     1      -2.402   4.073  25.502  0.00  0.00    -0.006 A 
ATOM     29  C   UNL     1      -1.800   3.516  25.413  0.00  0.00    -0.003 A 
ATOM     30  C   UNL     1      -1.043   3.759  25.194  0.00  0.00    -0.000 A 
ATOM     31  C   UNL     1      -0.887   4.558  25.064  0.00  0.00    -0.000 A 
ATOM     32  C   UNL     1      -1.488   5.115  25.152  0.00  0.00    -0.000 A 
ATOM     33  C   UNL     1      -2.246   4.873  25.371  0.00  0.00    -0.003 A 
ENDBRANCH  27  28
ENDBRANCH   2  27
ENDBRANCH   3   2
ENDBRANCH   4   3
ENDBRANCH   7   6
ENDBRANCH   8   7
TORSDOF 9
ENDMDL
MODEL 4
REMARK VINA RESULT:     -10.9      1.581      4.206
REMARK  Name = 
REMARK  9 active torsions:
REMARK  status: ('A' for Active; 'I' for Inactive)
REMARK    1  A    between atoms: N_2  and  C_3
REMARK    2  A    between atoms: N_2  and  C_27
REMARK    3  A    between atoms: C_3  and  C_4
REMARK    4  A    between atoms: N_6  and  C_7
REMARK    5  A    between atoms: C_7  and  C_8
REMARK    6  A    between atoms: C_15  and  C_16
REMARK    7  A    between atoms: N_18  and  C_19
REMARK    8  A    between atoms: C_19  and  C_20
REMARK    9  A    between atoms: C_27  and  C_28
REMARK                            x       y       z     vdW  Elec       q    Type
REMARK                         _______ _______ _______ _____ _____    ______ ____
ROOT
ATOM      8  C   UNL     1      -0.717  -0.680  24.745  0.00  0.00    +0.082 C 
ATOM      9  C   UNL     1      -0.397  -0.228  24.199  0.00  0.00    +0.019 C 
ATOM     10  C   UNL     1      -0.200   0.552  24.288  0.00  0.00    +0.013 C 
ATOM     11  C   UNL     1       0.156   0.894  23.539  0.00  0.00    +0.018 C 
ATOM     12  C   UNL     1      -0.108   0.428  23.914  0.00  0.00    +0.072 C 
ATOM     13  N   UNL     1      -0.513   0.115  24.828  0.00  0.00    -0.272 NA
ATOM     14  C   UNL     1      -0.586   0.694  25.531  0.00  0.00    +0.081 C 
ATOM     15  C   UNL     1      -0.273   1.103  24.967  0.00  0.00    +0.094 C 
ENDROOT
BRANCH  15  16
ATOM     16  C   UNL     1      -0.049   1.897  24.992  0.00  0.00    +0.243 C 
ATOM     17  O   UNL     1       0.741   2.106  24.887  0.00  0.00    -0.273 OA
ATOM     18  N   UNL     1      -0.618   2.481  25.121  0.00  0.00    -0.197 NA
BRANCH  18  19
ATOM     19  C   UNL     1      -0.395   3.275  25.145  0.00  0.00    +0.179 C 
BRANCH  19  20
ATOM     20  C   UNL     1      -0.967   3.862  25.240  0.00  0.00    +0.145 A 
ATOM     21  C   UNL     1      -0.946   4.617  24.907  0.00  0.00    +0.038 A 
ATOM     22  C   UNL     1      -1.626   5.018  25.145  0.00  0.00    +0.043 A 
ATOM     23  C   UNL     1      -2.067   4.513  25.625  0.00  0.00    +0.179 A 
ATOM     24  O   UNL     1      -1.659   3.798  25.683  0.00  0.00    -0.453 OA
ENDBRANCH  19  20
ENDBRANCH  18  19
ENDBRANCH  15  16
BRANCH   8   7
ATOM      7  C   UNL     1      -1.021  -1.394  25.024  0.00  0.00    +0.145 C 
BRANCH   7   6
ATOM      4  C   UNL     1      -3.146  -1.556  24.904  0.00  0.00    +0.117 A 
ATOM      5  C   UNL     1      -2.467  -1.171  25.170  0.00  0.00    +0.115 A 
ATOM      6  N   UNL     1      -1.812  -1.587  24.889  0.00  0.00    -0.229 N 
ATOM     25  N   UNL     1      -2.087  -2.228  24.449  0.00  0.00    -0.064 NA
ATOM     26  N   UNL     1      -2.911  -2.209  24.458  0.00  0.00    -0.132 NA
BRANCH   4   3
ATOM      3  C   UNL     1      -3.924  -1.328  25.057  0.00  0.00    +0.122 C 
BRANCH   3   2
ATOM      1  C   UNL     1      -4.417  -0.488  24.011  0.00  0.00    +0.090 C 
ATOM      2  N   UNL     1      -4.197  -0.593  24.799  0.00  0.00    -0.263 NA
BRANCH   2  27
ATOM     27  C   UNL     1      -4.250   0.037  25.330  0.00  0.00    +0.099 C 
BRANCH  27  28
ATOM     28  C   UNL     1      -4.550   0.763  25.078  0.00  0.00    -0.006 A 
ATOM     29  C   UNL     1      -5.335   0.963  25.238  0.00  0.00    -0.003 A 
ATOM     30  C   UNL     1      -5.634   1.689  24.986  0.00  0.00    -0.000 A 
ATOM     31  C   UNL     1      -5.150   2.215  24.574  0.00  0.00    -0.000 A 
ATOM     32  C   UNL     1      -4.367   2.015  24.414  0.00  0.00    -0.000 A 
ATOM     33  C   UNL     1      -4.066   1.289  24.666  0.00  0.00    -0.003 A 
ENDBRANCH  27  28
ENDBRANCH   2  27
ENDBRANCH   3   2
ENDBRANCH   4   3
ENDBRANCH   7   6
ENDBRANCH   8   7
TORSDOF 9
ENDMDL
MODEL 5
REMARK VINA RESULT:     -10.5      1.585      4.066
REMARK  Name = 
REMARK  9 active torsions:
REMARK  status: ('A' for Active; 'I' for Inactive)
REMARK    1  A    between atoms: N_2  and  C_3
REMARK    2  A    between atoms: N_2  and  C_27
REMARK    3  A    between atoms: C_3  and  C_4
REMARK    4  A    between atoms: N_6  and  C_7
REMARK    5  A    between atoms: C_7  and  C_8
REMARK    6  A    between atoms: C_15  and  C_16
REMARK    7  A    between atoms: N_18  and  C_19
REMARK    8  A    between atoms: C_19  and  C_20
REMARK    9  A    between atoms: C_27  and  C_28
REMARK                            x       y       z     vdW  Elec       q    Type
REMARK                         _______ _______ _______ _____ _____    ______ ____
ROOT
ATOM      8  C   UNL     1      -3.199   3.352  24.931  0.00  0.00    +0.082 C 
ATOM      9  C   UNL     1      -2.559   3.478  25.356  0.00  0.00    +0.019 C 
ATOM     10  C   UNL     1      -1.805   3.272  25.146  0.00  0.00    +0.013 C 
ATOM     11  C   UNL     1      -1.208   3.505  25.773  0.00  0.00    +0.018 C 
ATOM     12  C   UNL     1      -1.803   3.453  25.508  0.00  0.00    +0.072 C 
ATOM     13  N   UNL     1      -2.427   3.145  24.724  0.00  0.00    -0.272 NA
ATOM     14  C   UNL     1      -2.083   2.730  23.987  0.00  0.00    +0.081 C 
ATOM     15  C   UNL     1      -1.481   2.873  24.434  0.00  0.00    +0.094 C 
ENDROOT
BRANCH  15  16
ATOM     16  C   UNL     1      -0.691   2.690  24.281  0.00  0.00    +0.243 C 
ATOM     17  O   UNL     1      -0.127   3.290  24.255  0.00  0.00    -0.273 OA
ATOM     18  N   UNL     1      -0.467   1.906  24.154  0.00  0.00    -0.197 NA
BRANCH  18  19
ATOM     19  C   UNL     1       0.322   1.723  24.000  0.00  0.00    +0.179 C 
BRANCH  19  20
ATOM     20  C   UNL     1       0.526   0.973  23.722  0.00  0.00    +0.145 A 
ATOM     21  C   UNL     1       0.129   0.270  23.891  0.00  0.00    +0.038 A 
ATOM     22  C   UNL     1       0.520  -0.343  23.500  0.00  0.00    +0.043 A 
ATOM     23  C   UNL     1       1.158  -0.018  23.091  0.00  0.00    +0.179 A 
ATOM     24  O   UNL     1       1.162   0.795  23.228  0.00  0.00    -0.453 OA
ENDBRANCH  19  20
ENDBRANCH  18  19
ENDBRANCH  15  16
BRANCH   8   7
ATOM      7  C   UNL     1      -4.011   3.393  24.794  0.00  0.00    +0.145 C 
BRANCH   7   6
ATOM      4  C   UNL     1      -4.999   1.506  24.936  0.00  0.00    +0.117 A 
ATOM      5  C   UNL     1      -4.405   1.986  24.626  0.00  0.00    +0.115 A 
ATOM      6  N   UNL     1      -4.489   2.739  24.952  0.00  0.00    -0.229 N 
ATOM     25  N   UNL     1      -5.136   2.724  25.465  0.00  0.00    -0.064 NA
ATOM     26  N   UNL     1      -5.451   1.961  25.454  0.00  0.00    -0.132 NA
BRANCH   4   3
ATOM      3  C   UNL     1      -5.120   0.709  24.759  0.00  0.00    +0.122 C 
BRANCH   3   2
ATOM      1  C   UNL     1      -4.377  -0.053  25.711  0.00  0.00    +0.090 C 
ATOM      2  N   UNL     1      -4.534   0.155  24.928  0.00  0.00    -0.263 NA
BRANCH   2  27
ATOM     27  C   UNL     1      -4.103  -0.192  24.315  0.00  0.00    +0.099 C 
BRANCH  27  28
ATOM     28  C   UNL     1      -3.928  -0.998  24.340  0.00  0.00    -0.006 A 
ATOM     29  C   UNL     1      -4.388  -1.534  23.912  0.00  0.00    -0.003 A 
ATOM     30  C   UNL     1      -4.212  -2.339  23.937  0.00  0.00    -0.000 A 
ATOM     31  C   UNL     1      -3.577  -2.609  24.388  0.00  0.00    -0.000 A 
ATOM     32  C   UNL     1      -3.117  -2.074  24.815  0.00  0.00    -0.000 A 
ATOM     33  C   UNL     1      -3.293  -1.269  24.791  0.00  0.00    -0.003 A 
ENDBRANCH  27  28
ENDBRANCH   2  27
ENDBRANCH   3   2
ENDBRANCH   4   3
ENDBRANCH   7   6
ENDBRANCH   8   7
TORSDOF 9
ENDMDL
MODEL 6
REMARK VINA RESULT:     -10.4      1.509      3.943
REMARK  Name = 
REMARK  9 active torsions:
REMARK  status: ('A' for Active; 'I' for Inactive)
REMARK    1  A    between atoms: N_2  and  C_3
REMARK    2  A    between atoms: N_2  and  C_27
REMARK    3  A    between atoms: C_3  and  C_4
REMARK    4  A    between atoms: N_6  and  C_7
REMARK    5  A    between atoms: C_7  and  C_8
REMARK    6  A    between atoms: C_15  and  C_16
REMARK    7  A    between atoms: N_18  and  C_19
REMARK    8  A    between atoms: C_19  and  C_20
REMARK    9  A    between atoms: C_27  and  C_28
REMARK                            x       y       z     vdW  Elec       q    Type
REMARK                         _______ _______ _______ _____ _____    ______ ____
ROOT
ATOM      8  C   UNL     1      -1.495  -0.689  24.704  0.00  0.00    +0.082 C 
ATOM      9  C   UNL     1      -2.029  -0.880  25.236  0.00  0.00    +0.019 C 
ATOM     10  C   UNL     1      -2.810  -0.665  25.219  0.00  0.00    +0.013 C 
ATOM     11  C   UNL     1      -3.260  -0.986  25.925  0.00  0.00    +0.018 C 
ATOM     12  C   UNL     1      -2.735  -0.888  25.548  0.00  0.00    +0.072 C 
ATOM     13  N   UNL     1      -2.292  -0.474  24.693  0.00  0.00    -0.272 NA
ATOM     14  C   UNL     1      -2.783   0.020  24.104  0.00  0.00    +0.081 C 
ATOM     15  C   UNL     1      -3.276  -0.189  24.648  0.00  0.00    +0.094 C 
ENDROOT
BRANCH  15  16
ATOM     16  C   UNL     1      -4.080  -0.005  24.690  0.00  0.00    +0.243 C 
ATOM     17  O   UNL     1      -4.643  -0.583  24.524  0.00  0.00    -0.273 OA
ATOM     18  N   UNL     1      -4.318   0.757  24.898  0.00  0.00    -0.197 NA
BRANCH  18  19
ATOM     19  C   UNL     1      -5.121   0.940  24.940  0.00  0.00    +0.179 C 
BRANCH  19  20
ATOM     20  C   UNL     1      -5.360   1.696  25.171  0.00  0.00    +0.145 A 
ATOM     21  C   UNL     1      -5.807   1.878  25.840  0.00  0.00    +0.038 A 
ATOM     22  C   UNL     1      -5.918   2.696  25.855  0.00  0.00    +0.043 A 
ATOM     23  C   UNL     1      -5.540   3.018  25.196  0.00  0.00    +0.179 A 
ATOM     24  O   UNL     1      -5.196   2.399  24.773  0.00  0.00    -0.453 OA
ENDBRANCH  19  20
ENDBRANCH  18  19
ENDBRANCH  15  16
BRANCH   8   7
ATOM      7  C   UNL     1      -0.731  -0.696  24.393  0.00  0.00    +0.145 C 
BRANCH   7   6
ATOM      4  C   UNL     1       0.166   1.242  24.412  0.00  0.00    +0.117 A 
ATOM      5  C   UNL     1      -0.273   0.647  24.779  0.00  0.00    +0.115 A 
ATOM      6  N   UNL     1      -0.336   0.016  24.252  0.00  0.00    -0.229 N 
ATOM     25  N   UNL     1       0.064   0.219  23.561  0.00  0.00    -0.064 NA
ATOM     26  N   UNL     1       0.374   0.977  23.659  0.00  0.00    -0.132 NA
BRANCH   4   3
ATOM      3  C   UNL     1       0.362   1.972  24.742  0.00  0.00    +0.122 C 
BRANCH   3   2
ATOM      1  C   UNL     1      -0.350   2.492  25.866  0.00  0.00    +0.090 C 
ATOM      2  N   UNL     1      -0.228   2.458  25.050  0.00  0.00    -0.263 NA
BRANCH   2  27
ATOM     27  C   UNL     1      -0.698   2.910  24.544  0.00  0.00    +0.099 C 
BRANCH  27  28
ATOM     28  C   UNL     1      -1.028   3.617  24.811  0.00  0.00    -0.006 A 
ATOM     29  C   UNL     1      -1.774   3.617  25.166  0.00  0.00    -0.003 A 
ATOM     30  C   UNL     1      -2.103   4.325  25.432  0.00  0.00    -0.000 A 
ATOM     31  C   UNL     1      -1.689   5.033  25.343  0.00  0.00    -0.000 A 
ATOM     32  C   UNL     1      -0.945   5.033  24.988  0.00  0.00    -0.000 A 
ATOM     33  C   UNL     1      -0.614   4.325  24.722  0.00  0.00    -0.003 A 
ENDBRANCH  27  28
ENDBRANCH   2  27
ENDBRANCH   3   2
ENDBRANCH   4   3
ENDBRANCH   7   6
ENDBRANCH   8   7
TORSDOF 9
ENDMDL
MODEL 7
REMARK VINA RESULT:     -10.2      1.185      2.257
REMARK  Name = 
REMARK  9 active torsions:
REMARK  status: ('A' for Active; 'I' for Inactive)
REMARK    1  A    between atoms: N_2  and  C_3
REMARK    2  A    between atoms: N_2  and  C_27
REMARK    3  A    between atoms: C_3  and  C_4
REMARK    4  A    between atoms: N_6  and  C_7
REMARK    5  A    between atoms: C_7  and  C_8
REMARK    6  A    between atoms: C_15  and  C_16
REMARK    7  A    between atoms: N_18  and  C_19
REMARK    8  A    between atoms: C_19  and  C_20
REMARK    9  A    between atoms: C_27  and  C_28
REMARK                            x       y       z     vdW  Elec       q    Type
REMARK                         _______ _______ _______ _____ _____    ______ ____
ROOT
ATOM      8  C   UNL     1      -1.293   3.672  25.346  0.00  0.00    +0.082 C 
ATOM      9  C   UNL     1      -0.773   3.267  25.760  0.00  0.00    +0.019 C 
ATOM     10  C   UNL     1      -0.419   2.578  25.526  0.00  0.00    +0.013 C 
ATOM     11  C   UNL     1       0.150   2.268  26.147  0.00  0.00    +0.018 C 
ATOM     12  C   UNL     1      -0.286   2.683  25.894  0.00  0.00    +0.072 C 
ATOM     13  N   UNL     1      -0.927   2.969  25.115  0.00  0.00    -0.272 NA
ATOM     14  C   UNL     1      -0.999   2.464  24.358  0.00  0.00    +0.081 C 
ATOM     15  C   UNL     1      -0.492   2.097  24.796  0.00  0.00    +0.094 C 
ENDROOT
BRANCH  15  16
ATOM     16  C   UNL     1      -0.097   1.394  24.619  0.00  0.00    +0.243 C 
ATOM     17  O   UNL     1       0.698   1.412  24.401  0.00  0.00    -0.273 OA
ATOM     18  N   UNL     1      -0.497   0.674  24.661  0.00  0.00    -0.197 NA
BRANCH  18  19
ATOM     19  C   UNL     1      -0.102  -0.028  24.485  0.00  0.00    +0.179 C 
BRANCH  19  20
ATOM     20  C   UNL     1      -0.498  -0.750  24.537  0.00  0.00    +0.145 A 
ATOM     21  C   UNL     1      -0.674  -1.156  25.234  0.00  0.00    +0.038 A 
ATOM     22  C   UNL     1      -1.073  -1.849  25.030  0.00  0.00    +0.043 A 
ATOM     23  C   UNL     1      -1.143  -1.871  24.208  0.00  0.00    +0.179 A 
ATOM     24  O   UNL     1      -0.788  -1.191  23.904  0.00  0.00    -0.453 OA
ENDBRANCH  19  20
ENDBRANCH  18  19
ENDBRANCH  15  16
BRANCH   8   7
ATOM      7  C   UNL     1      -1.807   4.307  25.228  0.00  0.00    +0.145 C 
BRANCH   7   6
ATOM      4  C   UNL     1      -3.908   3.943  25.316  0.00  0.00    +0.117 A 
ATOM      5  C   UNL     1      -3.189   3.917  24.913  0.00  0.00    +0.115 A 
ATOM      6  N   UNL     1      -2.608   4.228  25.410  0.00  0.00    -0.229 N 
ATOM     25  N   UNL     1      -2.968   4.445  26.119  0.00  0.00    -0.064 NA
ATOM     26  N   UNL     1      -3.772   4.269  26.061  0.00  0.00    -0.132 NA
BRANCH   4   3
ATOM      3  C   UNL     1      -4.637   3.687  25.024  0.00  0.00    +0.122 C 
BRANCH   3   2
ATOM      1  C   UNL     1      -5.047   2.698  25.970  0.00  0.00    +0.090 C 
ATOM      2  N   UNL     1      -4.903   2.924  25.189  0.00  0.00    -0.263 NA
BRANCH   2  27
ATOM     27  C   UNL     1      -5.024   2.387  24.575  0.00  0.00    +0.099 C 
BRANCH  27  28
ATOM     28  C   UNL     1      -4.789   1.601  24.662  0.00  0.00    -0.006 A 
ATOM     29  C   UNL     1      -5.134   1.129  25.245  0.00  0.00    -0.003 A 
ATOM     30  C   UNL     1      -4.899   0.344  25.332  0.00  0.00    -0.000 A 
ATOM     31  C   UNL     1      -4.320   0.029  24.836  0.00  0.00    -0.000 A 
ATOM     32  C   UNL     1      -3.975   0.500  24.254  0.00  0.00    -0.000 A 
ATOM     33  C   UNL     1      -4.210   1.286  24.167  0.00  0.00    -0.003 A 
ENDBRANCH  27  28
ENDBRANCH   2  27
ENDBRANCH   3   2
ENDBRANCH   4   3
ENDBRANCH   7   6
ENDBRANCH   8   7
TORSDOF 9
ENDMDL
