REMARK  Name = 
REMARK  3 active torsions:
REMARK  status: ('A' for Active; 'I' for Inactive)
REMARK    1  A    between atoms: C_2  and  C_5
REMARK    2  A    between atoms: C_5  and  C_6
REMARK    3  A    between atoms: C_20  and  C_23
REMARK                            x       y       z     vdW  Elec       q    Type
REMARK                         _______ _______ _______ _____ _____    ______ ____
ROOT
ATOM      6  C   UNL     1      13.953   0.786   0.000  0.00  0.00    +0.226 C 
ATOM      7  O   UNL     1      14.418   1.468   0.000  0.00  0.00    -0.275 OA
ATOM      8  N   UNL     1      13.130   0.848   0.000  0.00  0.00    -0.276 N 
ATOM      9  C   UNL     1      12.772   1.591   0.000  0.00  0.00    +0.115 C 
ATOM     10  C   UNL     1      11.950   1.653   0.000  0.00  0.00    +0.116 C 
ATOM     11  N   UNL     1      11.485   0.971   0.000  0.00  0.00    -0.266 N 
ATOM     12  C   UNL     1      11.843   0.228   0.000  0.00  0.00    +0.174 C 
ATOM     13  C   UNL     1      12.665   0.166   0.000  0.00  0.00    +0.123 C 
ATOM     14  C   UNL     1      11.485  -0.515   0.000  0.00  0.00    +0.265 C 
ATOM     15  O   UNL     1      11.999  -1.160   0.000  0.00  0.00    -0.271 OA
ATOM     16  N   UNL     1      10.681  -0.699   0.000  0.00  0.00    -0.178 NA
ATOM     17  C   UNL     1      10.036  -0.184   0.000  0.00  0.00    +0.078 A 
ATOM     18  C   UNL     1      10.036   0.640   0.000  0.00  0.00    +0.069 A 
ATOM     19  C   UNL     1       9.321   1.053   0.000  0.00  0.00    +0.006 A 
ATOM     20  C   UNL     1       8.607   0.640   0.000  0.00  0.00    +0.000 A 
ATOM     21  C   UNL     1       8.607  -0.184   0.000  0.00  0.00    +0.001 A 
ATOM     22  C   UNL     1       9.321  -0.597   0.000  0.00  0.00    +0.017 A 
ATOM     32  C   UNL     1      10.681   1.155   0.000  0.00  0.00    +0.251 C 
ATOM     33  O   UNL     1      10.497   1.959   0.000  0.00  0.00    -0.270 OA
ENDROOT
BRANCH  20  23
ATOM     23  C   UNL     1       7.892   1.053   0.000  0.00  0.00    +0.003 A 
ATOM     24  C   UNL     1       7.178   0.640   0.000  0.00  0.00    +0.040 A 
ATOM     25  C   UNL     1       6.463   1.053   0.000  0.00  0.00    +0.176 A 
ATOM     26  C   UNL     1       6.463   1.878   0.000  0.00  0.00    +0.176 A 
ATOM     27  O   UNL     1       5.678   2.133   0.000  0.00  0.00    -0.435 OA
ATOM     28  C   UNL     1       5.194   1.466   0.000  0.00  0.00    +0.429 C 
ATOM     29  O   UNL     1       5.678   0.798   0.000  0.00  0.00    -0.435 OA
ATOM     30  C   UNL     1       7.178   2.291   0.000  0.00  0.00    +0.040 A 
ATOM     31  C   UNL     1       7.892   1.878   0.000  0.00  0.00    +0.003 A 
ENDBRANCH  20  23
BRANCH   6   5
ATOM      5  C   UNL     1      14.311   0.043   0.000  0.00  0.00    +0.085 C 
BRANCH   5   2
ATOM      1  C   UNL     1      15.956  -0.080   0.000  0.00  0.00    +0.000 C 
ATOM      2  C   UNL     1      15.133  -0.019   0.000  0.00  0.00    +0.009 C 
ATOM      3  C   UNL     1      15.195   0.804   0.000  0.00  0.00    +0.000 C 
ATOM      4  C   UNL     1      15.072  -0.841   0.000  0.00  0.00    +0.000 C 
ENDBRANCH   5   2
ENDBRANCH   6   5
TORSDOF 3
