MODEL 1
REMARK VINA RESULT:      -9.3      0.000      0.000
REMARK  Name = 
REMARK  7 active torsions:
REMARK  status: ('A' for Active; 'I' for Inactive)
REMARK    1  A    between atoms: C_2  and  C_4
REMARK    2  A    between atoms: C_7  and  N_8
REMARK    3  A    between atoms: N_11  and  C_12
REMARK    4  A    between atoms: C_16  and  O_20
REMARK    5  A    between atoms: O_20  and  C_21
REMARK    6  A    between atoms: N_23  and  C_24
REMARK    7  A    between atoms: C_27  and  C_30
REMARK                            x       y       z     vdW  Elec       q    Type
REMARK                         _______ _______ _______ _____ _____    ______ ____
ROOT
ATOM     12  C   UNL     1       0.467  -0.143  23.233  0.00  0.00    +0.156 C 
ATOM     13  C   UNL     1       0.372  -0.907  23.528  0.00  0.00    +0.166 C 
ATOM     14  O   UNL     1      -0.309  -0.916  23.994  0.00  0.00    -0.348 OA
ATOM     15  C   UNL     1      -0.633  -0.158  23.987  0.00  0.00    +0.186 C 
ATOM     16  C   UNL     1      -1.254   0.306  24.271  0.00  0.00    +0.229 C 
ATOM     17  C   UNL     1      -1.158   1.070  23.975  0.00  0.00    +0.188 C 
ATOM     18  O   UNL     1      -0.478   1.078  23.509  0.00  0.00    -0.348 OA
ATOM     19  C   UNL     1      -0.153   0.320  23.516  0.00  0.00    +0.168 C 
ENDROOT
BRANCH  12  11
ATOM      8  N   UNL     1       2.471   0.316  22.499  0.00  0.00    -0.161 NA
ATOM      9  C   UNL     1       1.862   0.061  22.991  0.00  0.00    +0.344 C 
ATOM     10  O   UNL     1       2.035  -0.248  23.737  0.00  0.00    -0.249 OA
ATOM     11  N   UNL     1       1.078   0.113  22.739  0.00  0.00    -0.184 NA
BRANCH   8   7
ATOM      4  C   UNL     1       4.823   0.160  23.254  0.00  0.00    -0.022 A 
ATOM      5  C   UNL     1       4.496   0.896  23.073  0.00  0.00    -0.003 A 
ATOM      6  C   UNL     1       3.712   0.947  22.821  0.00  0.00    +0.016 A 
ATOM      7  C   UNL     1       3.255   0.264  22.751  0.00  0.00    +0.075 A 
ATOM     33  C   UNL     1       3.583  -0.471  22.932  0.00  0.00    +0.016 A 
ATOM     34  C   UNL     1       4.367  -0.523  23.183  0.00  0.00    -0.003 A 
BRANCH   4   2
ATOM      1  C   UNL     1       6.166  -0.277  23.037  0.00  0.00    +0.005 C 
ATOM      2  C   UNL     1       5.607   0.109  23.506  0.00  0.00    +0.022 C 
ATOM      3  C   UNL     1       5.832   0.443  24.226  0.00  0.00    +0.005 C 
ENDBRANCH   4   2
ENDBRANCH   8   7
ENDBRANCH  12  11
BRANCH  16  20
ATOM     20  O   UNL     1      -1.864   0.050  24.764  0.00  0.00    -0.432 OA
BRANCH  20  21
ATOM     21  C   UNL     1      -2.520   0.533  24.894  0.00  0.00    +0.425 C 
ATOM     22  O   UNL     1      -2.442   1.223  25.339  0.00  0.00    -0.224 OA
ATOM     23  N   UNL     1      -3.254   0.326  24.580  0.00  0.00    -0.142 NA
BRANCH  23  24
ATOM     24  C   UNL     1      -3.910   0.809  24.710  0.00  0.00    +0.077 A 
ATOM     25  C   UNL     1      -4.005   1.503  24.274  0.00  0.00    +0.017 A 
ATOM     26  C   UNL     1      -4.660   1.986  24.404  0.00  0.00    +0.004 A 
ATOM     27  C   UNL     1      -5.222   1.775  24.971  0.00  0.00    +0.035 A 
ATOM     28  C   UNL     1      -5.128   1.081  25.407  0.00  0.00    +0.004 A 
ATOM     29  C   UNL     1      -4.471   0.598  25.276  0.00  0.00    +0.017 A 
BRANCH  27  30
ATOM     30  C   UNL     1      -5.878   2.257  25.101  0.00  0.00    +0.173 C 
ATOM     31  C   UNL     1      -5.786   2.984  25.480  0.00  0.00    +0.077 C 
ATOM     32  O   UNL     1      -6.626   2.013  24.853  0.00  0.00    -0.291 OA
ENDBRANCH  27  30
ENDBRANCH  23  24
ENDBRANCH  20  21
ENDBRANCH  16  20
TORSDOF 7
ENDMDL
MODEL 2
REMARK VINA RESULT:      -9.1      0.960      7.910
REMARK  Name = 
REMARK  7 active torsions:
REMARK  status: ('A' for Active; 'I' for Inactive)
REMARK    1  A    between atoms: C_2  and  C_4
REMARK    2  A    between atoms: C_7  and  N_8
REMARK    3  A    between atoms: N_11  and  C_12
REMARK    4  A    between atoms: C_16  and  O_20
REMARK    5  A    between atoms: O_20  and  C_21
REMARK    6  A    between atoms: N_23  and  C_24
REMARK    7  A    between atoms: C_27  and  C_30
REMARK                            x       y       z     vdW  Elec       q    Type
REMARK                         _______ _______ _______ _____ _____    ______ ____
ROOT
ATOM     12  C   UNL     1      -1.239   0.556  24.047  0.00  0.00    +0.156 C 
ATOM     13  C   UNL     1      -1.217   1.250  23.603  0.00  0.00    +0.166 C 
ATOM     14  O   UNL     1      -0.517   1.251  23.166  0.00  0.00    -0.348 OA
ATOM     15  C   UNL     1      -0.107   0.558  23.340  0.00  0.00    +0.186 C 
ATOM     16  C   UNL     1       0.579   0.129  23.178  0.00  0.00    +0.229 C 
ATOM     17  C   UNL     1       0.557  -0.566  23.622  0.00  0.00    +0.188 C 
ATOM     18  O   UNL     1      -0.142  -0.567  24.058  0.00  0.00    -0.348 OA
ATOM     19  C   UNL     1      -0.553   0.128  23.884  0.00  0.00    +0.168 C 
ENDROOT
BRANCH  12  11
ATOM      8  N   UNL     1      -3.145   0.536  25.110  0.00  0.00    -0.161 NA
ATOM      9  C   UNL     1      -2.543   0.762  24.594  0.00  0.00    +0.344 C 
ATOM     10  O   UNL     1      -2.641   1.422  24.108  0.00  0.00    -0.249 OA
ATOM     11  N   UNL     1      -1.841   0.329  24.563  0.00  0.00    -0.184 NA
BRANCH   8   7
ATOM      4  C   UNL     1      -5.250   1.835  25.204  0.00  0.00    -0.022 A 
ATOM      5  C   UNL     1      -4.538   2.184  25.436  0.00  0.00    -0.003 A 
ATOM      6  C   UNL     1      -3.837   1.750  25.404  0.00  0.00    +0.016 A 
ATOM      7  C   UNL     1      -3.847   0.969  25.141  0.00  0.00    +0.075 A 
ATOM     33  C   UNL     1      -4.557   0.621  24.909  0.00  0.00    +0.016 A 
ATOM     34  C   UNL     1      -5.259   1.054  24.940  0.00  0.00    -0.003 A 
BRANCH   4   2
ATOM      1  C   UNL     1      -5.954   3.023  25.572  0.00  0.00    +0.005 C 
ATOM      2  C   UNL     1      -5.950   2.269  25.235  0.00  0.00    +0.022 C 
ATOM      3  C   UNL     1      -6.648   1.950  24.931  0.00  0.00    +0.005 C 
ENDBRANCH   4   2
ENDBRANCH   8   7
ENDBRANCH  12  11
BRANCH  16  20
ATOM     20  O   UNL     1       1.182   0.356  22.662  0.00  0.00    -0.432 OA
BRANCH  20  21
ATOM     21  C   UNL     1       1.962   0.391  22.928  0.00  0.00    +0.425 C 
ATOM     22  O   UNL     1       2.143   0.802  23.620  0.00  0.00    -0.224 OA
ATOM     23  N   UNL     1       2.561   0.017  22.503  0.00  0.00    -0.142 NA
BRANCH  23  24
ATOM     24  C   UNL     1       3.341   0.053  22.769  0.00  0.00    +0.077 A 
ATOM     25  C   UNL     1       3.795   0.727  22.629  0.00  0.00    +0.017 A 
ATOM     26  C   UNL     1       4.574   0.763  22.895  0.00  0.00    +0.004 A 
ATOM     27  C   UNL     1       4.901   0.123  23.302  0.00  0.00    +0.035 A 
ATOM     28  C   UNL     1       4.447  -0.552  23.442  0.00  0.00    +0.004 A 
ATOM     29  C   UNL     1       3.667  -0.586  23.176  0.00  0.00    +0.017 A 
BRANCH  27  30
ATOM     30  C   UNL     1       5.680   0.158  23.568  0.00  0.00    +0.173 C 
ATOM     31  C   UNL     1       5.846   0.460  24.318  0.00  0.00    +0.077 C 
ATOM     32  O   UNL     1       6.295  -0.108  23.086  0.00  0.00    -0.291 OA
ENDBRANCH  27  30
ENDBRANCH  23  24
ENDBRANCH  20  21
ENDBRANCH  16  20
TORSDOF 7
ENDMDL
MODEL 3
REMARK VINA RESULT:      -6.4     14.295     16.761
REMARK  Name = 
REMARK  7 active torsions:
REMARK  status: ('A' for Active; 'I' for Inactive)
REMARK    1  A    between atoms: C_2  and  C_4
REMARK    2  A    between atoms: C_7  and  N_8
REMARK    3  A    between atoms: N_11  and  C_12
REMARK    4  A    between atoms: C_16  and  O_20
REMARK    5  A    between atoms: O_20  and  C_21
REMARK    6  A    between atoms: N_23  and  C_24
REMARK    7  A    between atoms: C_27  and  C_30
REMARK                            x       y       z     vdW  Elec       q    Type
REMARK                         _______ _______ _______ _____ _____    ______ ____
ROOT
ATOM     12  C   UNL     1      -6.015 -10.359  15.296  0.00  0.00    +0.156 C 
ATOM     13  C   UNL     1      -6.491 -10.285  14.626  0.00  0.00    +0.166 C 
ATOM     14  O   UNL     1      -6.015 -10.400  13.962  0.00  0.00    -0.348 OA
ATOM     15  C   UNL     1      -5.246 -10.545  14.221  0.00  0.00    +0.186 C 
ATOM     16  C   UNL     1      -4.476 -10.706  13.972  0.00  0.00    +0.229 C 
ATOM     17  C   UNL     1      -4.000 -10.781  14.641  0.00  0.00    +0.188 C 
ATOM     18  O   UNL     1      -4.476 -10.666  15.305  0.00  0.00    -0.348 OA
ATOM     19  C   UNL     1      -5.246 -10.520  15.046  0.00  0.00    +0.168 C 
ENDROOT
BRANCH  12  11
ATOM      8  N   UNL     1      -7.276  -9.940  17.028  0.00  0.00    -0.161 NA
ATOM      9  C   UNL     1      -7.026 -10.014  16.245  0.00  0.00    +0.344 C 
ATOM     10  O   UNL     1      -7.537  -9.816  15.628  0.00  0.00    -0.249 OA
ATOM     11  N   UNL     1      -6.265 -10.286  16.079  0.00  0.00    -0.184 NA
BRANCH   8   7
ATOM      4  C   UNL     1      -9.558  -9.123  17.527  0.00  0.00    -0.022 A 
ATOM      5  C   UNL     1      -8.919  -8.601  17.549  0.00  0.00    -0.003 A 
ATOM      6  C   UNL     1      -8.159  -8.874  17.382  0.00  0.00    +0.016 A 
ATOM      7  C   UNL     1      -8.037  -9.668  17.194  0.00  0.00    +0.075 A 
ATOM     33  C   UNL     1      -8.676 -10.189  17.173  0.00  0.00    +0.016 A 
ATOM     34  C   UNL     1      -9.437  -9.917  17.340  0.00  0.00    -0.003 A 
BRANCH   4   2
ATOM      1  C   UNL     1     -10.720  -8.384  17.143  0.00  0.00    +0.005 C 
ATOM      2  C   UNL     1     -10.319  -8.851  17.694  0.00  0.00    +0.022 C 
ATOM      3  C   UNL     1     -10.679  -9.044  18.411  0.00  0.00    +0.005 C 
ENDBRANCH   4   2
ENDBRANCH   8   7
ENDBRANCH  12  11
BRANCH  16  20
ATOM     20  O   UNL     1      -4.226 -10.780  13.189  0.00  0.00    -0.432 OA
BRANCH  20  21
ATOM     21  C   UNL     1      -3.530 -10.412  12.941  0.00  0.00    +0.425 C 
ATOM     22  O   UNL     1      -3.091  -9.960  13.473  0.00  0.00    -0.224 OA
ATOM     23  N   UNL     1      -3.273 -10.496  12.162  0.00  0.00    -0.142 NA
BRANCH  23  24
ATOM     24  C   UNL     1      -2.577 -10.128  11.915  0.00  0.00    +0.077 A 
ATOM     25  C   UNL     1      -1.854 -10.351  12.242  0.00  0.00    +0.017 A 
ATOM     26  C   UNL     1      -1.159  -9.983  11.995  0.00  0.00    +0.004 A 
ATOM     27  C   UNL     1      -1.186  -9.392  11.419  0.00  0.00    +0.035 A 
ATOM     28  C   UNL     1      -1.910  -9.170  11.091  0.00  0.00    +0.004 A 
ATOM     29  C   UNL     1      -2.606  -9.538  11.339  0.00  0.00    +0.017 A 
BRANCH  27  30
ATOM     30  C   UNL     1      -0.492  -9.025  11.171  0.00  0.00    +0.173 C 
ATOM     31  C   UNL     1      -0.202  -8.371  11.583  0.00  0.00    +0.077 C 
ATOM     32  O   UNL     1      -0.086  -9.309  10.511  0.00  0.00    -0.291 OA
ENDBRANCH  27  30
ENDBRANCH  23  24
ENDBRANCH  20  21
ENDBRANCH  16  20
TORSDOF 7
ENDMDL
MODEL 4
REMARK VINA RESULT:      -6.1     15.667     17.940
REMARK  Name = 
REMARK  7 active torsions:
REMARK  status: ('A' for Active; 'I' for Inactive)
REMARK    1  A    between atoms: C_2  and  C_4
REMARK    2  A    between atoms: C_7  and  N_8
REMARK    3  A    between atoms: N_11  and  C_12
REMARK    4  A    between atoms: C_16  and  O_20
REMARK    5  A    between atoms: O_20  and  C_21
REMARK    6  A    between atoms: N_23  and  C_24
REMARK    7  A    between atoms: C_27  and  C_30
REMARK                            x       y       z     vdW  Elec       q    Type
REMARK                         _______ _______ _______ _____ _____    ______ ____
ROOT
ATOM     12  C   UNL     1      -8.240 -10.027  12.407  0.00  0.00    +0.156 C 
ATOM     13  C   UNL     1      -8.399  -9.530  11.768  0.00  0.00    +0.166 C 
ATOM     14  O   UNL     1      -7.724  -9.499  11.296  0.00  0.00    -0.348 OA
ATOM     15  C   UNL     1      -7.148  -9.976  11.641  0.00  0.00    +0.186 C 
ATOM     16  C   UNL     1      -6.375 -10.253  11.564  0.00  0.00    +0.229 C 
ATOM     17  C   UNL     1      -6.215 -10.750  12.202  0.00  0.00    +0.188 C 
ATOM     18  O   UNL     1      -6.890 -10.781  12.675  0.00  0.00    -0.348 OA
ATOM     19  C   UNL     1      -7.467 -10.303  12.328  0.00  0.00    +0.168 C 
ENDROOT
BRANCH  12  11
ATOM      8  N   UNL     1      -9.529  -9.819  14.157  0.00  0.00    -0.161 NA
ATOM      9  C   UNL     1      -9.006  -9.631  13.547  0.00  0.00    +0.344 C 
ATOM     10  O   UNL     1      -8.726  -8.859  13.466  0.00  0.00    -0.249 OA
ATOM     11  N   UNL     1      -8.763 -10.215  13.017  0.00  0.00    -0.184 NA
BRANCH   8   7
ATOM      4  C   UNL     1     -10.260  -8.067  15.745  0.00  0.00    -0.022 A 
ATOM      5  C   UNL     1     -10.719  -8.241  15.081  0.00  0.00    -0.003 A 
ATOM      6  C   UNL     1     -10.475  -8.825  14.552  0.00  0.00    +0.016 A 
ATOM      7  C   UNL     1      -9.772  -9.235  14.686  0.00  0.00    +0.075 A 
ATOM     33  C   UNL     1      -9.314  -9.062  15.349  0.00  0.00    +0.016 A 
ATOM     34  C   UNL     1      -9.557  -8.478  15.879  0.00  0.00    -0.003 A 
BRANCH   4   2
ATOM      1  C   UNL     1     -10.647  -7.676  17.064  0.00  0.00    +0.005 C 
ATOM      2  C   UNL     1     -10.504  -7.484  16.274  0.00  0.00    +0.022 C 
ATOM      3  C   UNL     1     -10.607  -6.707  16.014  0.00  0.00    +0.005 C 
ENDBRANCH   4   2
ENDBRANCH   8   7
ENDBRANCH  12  11
BRANCH  16  20
ATOM     20  O   UNL     1      -5.852 -10.065  10.953  0.00  0.00    -0.432 OA
BRANCH  20  21
ATOM     21  C   UNL     1      -5.062  -9.896  11.123  0.00  0.00    +0.425 C 
ATOM     22  O   UNL     1      -4.870  -9.446  11.787  0.00  0.00    -0.224 OA
ATOM     23  N   UNL     1      -4.464 -10.178  10.630  0.00  0.00    -0.142 NA
BRANCH  23  24
ATOM     24  C   UNL     1      -3.675 -10.009  10.800  0.00  0.00    +0.077 A 
ATOM     25  C   UNL     1      -3.318  -9.338  10.481  0.00  0.00    +0.017 A 
ATOM     26  C   UNL     1      -2.529  -9.170  10.651  0.00  0.00    +0.004 A 
ATOM     27  C   UNL     1      -2.096  -9.673  11.140  0.00  0.00    +0.035 A 
ATOM     28  C   UNL     1      -2.453 -10.346  11.460  0.00  0.00    +0.004 A 
ATOM     29  C   UNL     1      -3.242 -10.513  11.289  0.00  0.00    +0.017 A 
BRANCH  27  30
ATOM     30  C   UNL     1      -1.307  -9.506  11.311  0.00  0.00    +0.173 C 
ATOM     31  C   UNL     1      -0.885  -8.981  10.834  0.00  0.00    +0.077 C 
ATOM     32  O   UNL     1      -0.939  -9.862  11.958  0.00  0.00    -0.291 OA
ENDBRANCH  27  30
ENDBRANCH  23  24
ENDBRANCH  20  21
ENDBRANCH  16  20
TORSDOF 7
ENDMDL
MODEL 5
REMARK VINA RESULT:      -5.8     16.236     18.126
REMARK  Name = 
REMARK  7 active torsions:
REMARK  status: ('A' for Active; 'I' for Inactive)
REMARK    1  A    between atoms: C_2  and  C_4
REMARK    2  A    between atoms: C_7  and  N_8
REMARK    3  A    between atoms: N_11  and  C_12
REMARK    4  A    between atoms: C_16  and  O_20
REMARK    5  A    between atoms: O_20  and  C_21
REMARK    6  A    between atoms: N_23  and  C_24
REMARK    7  A    between atoms: C_27  and  C_30
REMARK                            x       y       z     vdW  Elec       q    Type
REMARK                         _______ _______ _______ _____ _____    ______ ____
ROOT
ATOM     12  C   UNL     1      -5.163 -10.005  10.057  0.00  0.00    +0.156 C 
ATOM     13  C   UNL     1      -4.605  -9.539   9.667  0.00  0.00    +0.166 C 
ATOM     14  O   UNL     1      -3.911  -9.547  10.112  0.00  0.00    -0.348 OA
ATOM     15  C   UNL     1      -4.039 -10.016  10.777  0.00  0.00    +0.186 C 
ATOM     16  C   UNL     1      -3.690 -10.311  11.464  0.00  0.00    +0.229 C 
ATOM     17  C   UNL     1      -4.248 -10.776  11.855  0.00  0.00    +0.188 C 
ATOM     18  O   UNL     1      -4.942 -10.769  11.410  0.00  0.00    -0.348 OA
ATOM     19  C   UNL     1      -4.813 -10.299  10.744  0.00  0.00    +0.168 C 
ENDROOT
BRANCH  12  11
ATOM      8  N   UNL     1      -7.197  -9.666   9.341  0.00  0.00    -0.161 NA
ATOM      9  C   UNL     1      -6.425  -9.521   9.593  0.00  0.00    +0.344 C 
ATOM     10  O   UNL     1      -6.142  -8.747   9.632  0.00  0.00    -0.249 OA
ATOM     11  N   UNL     1      -5.935 -10.150   9.806  0.00  0.00    -0.184 NA
BRANCH   8   7
ATOM      4  C   UNL     1      -8.667  -7.780   8.701  0.00  0.00    -0.022 A 
ATOM      5  C   UNL     1      -7.996  -7.951   8.252  0.00  0.00    -0.003 A 
ATOM      6  C   UNL     1      -7.507  -8.580   8.466  0.00  0.00    +0.016 A 
ATOM      7  C   UNL     1      -7.687  -9.037   9.128  0.00  0.00    +0.075 A 
ATOM     33  C   UNL     1      -8.357  -8.866   9.577  0.00  0.00    +0.016 A 
ATOM     34  C   UNL     1      -8.847  -8.237   9.364  0.00  0.00    -0.003 A 
BRANCH   4   2
ATOM      1  C   UNL     1      -9.973  -7.260   8.448  0.00  0.00    +0.005 C 
ATOM      2  C   UNL     1      -9.156  -7.151   8.488  0.00  0.00    +0.022 C 
ATOM      3  C   UNL     1      -8.829  -6.414   8.314  0.00  0.00    +0.005 C 
ENDBRANCH   4   2
ENDBRANCH   8   7
ENDBRANCH  12  11
BRANCH  16  20
ATOM     20  O   UNL     1      -2.918 -10.166  11.716  0.00  0.00    -0.432 OA
BRANCH  20  21
ATOM     21  C   UNL     1      -2.733 -10.197  12.520  0.00  0.00    +0.425 C 
ATOM     22  O   UNL     1      -3.333 -10.288  13.078  0.00  0.00    -0.224 OA
ATOM     23  N   UNL     1      -1.948 -10.137  12.765  0.00  0.00    -0.142 NA
BRANCH  23  24
ATOM     24  C   UNL     1      -1.763 -10.168  13.568  0.00  0.00    +0.077 A 
ATOM     25  C   UNL     1      -2.102 -10.747  14.048  0.00  0.00    +0.017 A 
ATOM     26  C   UNL     1      -1.917 -10.779  14.850  0.00  0.00    +0.004 A 
ATOM     27  C   UNL     1      -1.392 -10.230  15.175  0.00  0.00    +0.035 A 
ATOM     28  C   UNL     1      -1.052  -9.651  14.695  0.00  0.00    +0.004 A 
ATOM     29  C   UNL     1      -1.238  -9.620  13.892  0.00  0.00    +0.017 A 
BRANCH  27  30
ATOM     30  C   UNL     1      -1.207 -10.261  15.977  0.00  0.00    +0.173 C 
ATOM     31  C   UNL     1      -0.495  -9.944  16.249  0.00  0.00    +0.077 C 
ATOM     32  O   UNL     1      -1.732 -10.609  16.510  0.00  0.00    -0.291 OA
ENDBRANCH  27  30
ENDBRANCH  23  24
ENDBRANCH  20  21
ENDBRANCH  16  20
TORSDOF 7
ENDMDL
MODEL 6
REMARK VINA RESULT:      -5.6     15.846     17.403
REMARK  Name = 
REMARK  7 active torsions:
REMARK  status: ('A' for Active; 'I' for Inactive)
REMARK    1  A    between atoms: C_2  and  C_4
REMARK    2  A    between atoms: C_7  and  N_8
REMARK    3  A    between atoms: N_11  and  C_12
REMARK    4  A    between atoms: C_16  and  O_20
REMARK    5  A    between atoms: O_20  and  C_21
REMARK    6  A    between atoms: N_23  and  C_24
REMARK    7  A    between atoms: C_27  and  C_30
REMARK                            x       y       z     vdW  Elec       q    Type
REMARK                         _______ _______ _______ _____ _____    ______ ____
ROOT
ATOM     12  C   UNL     1      -6.611 -10.251  14.208  0.00  0.00    +0.156 C 
ATOM     13  C   UNL     1      -7.162 -10.781  13.900  0.00  0.00    +0.166 C 
ATOM     14  O   UNL     1      -7.088 -10.776  13.079  0.00  0.00    -0.348 OA
ATOM     15  C   UNL     1      -6.492 -10.243  12.879  0.00  0.00    +0.186 C 
ATOM     16  C   UNL     1      -6.076  -9.909  12.249  0.00  0.00    +0.229 C 
ATOM     17  C   UNL     1      -5.526  -9.378  12.558  0.00  0.00    +0.188 C 
ATOM     18  O   UNL     1      -5.600  -9.383  13.379  0.00  0.00    -0.348 OA
ATOM     19  C   UNL     1      -6.197  -9.918  13.578  0.00  0.00    +0.168 C 
ENDROOT
BRANCH  12  11
ATOM      8  N   UNL     1      -7.014  -9.955  16.334  0.00  0.00    -0.161 NA
ATOM      9  C   UNL     1      -7.129 -10.123  15.535  0.00  0.00    +0.344 C 
ATOM     10  O   UNL     1      -7.879 -10.333  15.261  0.00  0.00    -0.249 OA
ATOM     11  N   UNL     1      -6.495 -10.082  15.008  0.00  0.00    -0.184 NA
BRANCH   8   7
ATOM      4  C   UNL     1      -8.915 -10.078  17.913  0.00  0.00    -0.022 A 
ATOM      5  C   UNL     1      -8.792  -9.393  17.468  0.00  0.00    -0.003 A 
ATOM      6  C   UNL     1      -8.158  -9.353  16.942  0.00  0.00    +0.016 A 
ATOM      7  C   UNL     1      -7.648  -9.996  16.860  0.00  0.00    +0.075 A 
ATOM     33  C   UNL     1      -7.772 -10.680  17.305  0.00  0.00    +0.016 A 
ATOM     34  C   UNL     1      -8.405 -10.721  17.831  0.00  0.00    -0.003 A 
BRANCH   4   2
ATOM      1  C   UNL     1     -10.182  -9.593  18.363  0.00  0.00    +0.005 C 
ATOM      2  C   UNL     1      -9.549 -10.118  18.440  0.00  0.00    +0.022 C 
ATOM      3  C   UNL     1      -9.551 -10.682  19.042  0.00  0.00    +0.005 C 
ENDBRANCH   4   2
ENDBRANCH   8   7
ENDBRANCH  12  11
BRANCH  16  20
ATOM     20  O   UNL     1      -6.192 -10.077  11.450  0.00  0.00    -0.432 OA
BRANCH  20  21
ATOM     21  C   UNL     1      -6.477  -9.492  10.942  0.00  0.00    +0.425 C 
ATOM     22  O   UNL     1      -6.141  -8.739  10.951  0.00  0.00    -0.224 OA
ATOM     23  N   UNL     1      -7.097  -9.661  10.425  0.00  0.00    -0.142 NA
BRANCH  23  24
ATOM     24  C   UNL     1      -7.382  -9.076   9.917  0.00  0.00    +0.077 A 
ATOM     25  C   UNL     1      -6.886  -8.750   9.344  0.00  0.00    +0.017 A 
ATOM     26  C   UNL     1      -7.170  -8.166   8.837  0.00  0.00    +0.004 A 
ATOM     27  C   UNL     1      -7.952  -7.907   8.902  0.00  0.00    +0.035 A 
ATOM     28  C   UNL     1      -8.448  -8.233   9.475  0.00  0.00    +0.004 A 
ATOM     29  C   UNL     1      -8.162  -8.817   9.983  0.00  0.00    +0.017 A 
BRANCH  27  30
ATOM     30  C   UNL     1      -8.236  -7.323   8.395  0.00  0.00    +0.173 C 
ATOM     31  C   UNL     1      -9.015  -7.357   8.124  0.00  0.00    +0.077 C 
ATOM     32  O   UNL     1      -7.744  -6.704   8.158  0.00  0.00    -0.291 OA
ENDBRANCH  27  30
ENDBRANCH  23  24
ENDBRANCH  20  21
ENDBRANCH  16  20
TORSDOF 7
ENDMDL
MODEL 7
REMARK VINA RESULT:      -5.4     15.491     16.863
REMARK  Name = 
REMARK  7 active torsions:
REMARK  status: ('A' for Active; 'I' for Inactive)
REMARK    1  A    between atoms: C_2  and  C_4
REMARK    2  A    between atoms: C_7  and  N_8
REMARK    3  A    between atoms: N_11  and  C_12
REMARK    4  A    between atoms: C_16  and  O_20
REMARK    5  A    between atoms: O_20  and  C_21
REMARK    6  A    between atoms: N_23  and  C_24
REMARK    7  A    between atoms: C_27  and  C_30
REMARK                            x       y       z     vdW  Elec       q    Type
REMARK                         _______ _______ _______ _____ _____    ______ ____
ROOT
ATOM     12  C   UNL     1      -4.648 -10.475  13.703  0.00  0.00    +0.156 C 
ATOM     13  C   UNL     1      -5.428 -10.709  13.573  0.00  0.00    +0.166 C 
ATOM     14  O   UNL     1      -5.543 -10.771  12.759  0.00  0.00    -0.348 OA
ATOM     15  C   UNL     1      -4.835 -10.574  12.386  0.00  0.00    +0.186 C 
ATOM     16  C   UNL     1      -4.466 -10.490  11.652  0.00  0.00    +0.229 C 
ATOM     17  C   UNL     1      -3.687 -10.256  11.782  0.00  0.00    +0.188 C 
ATOM     18  O   UNL     1      -3.572 -10.195  12.596  0.00  0.00    -0.348 OA
ATOM     19  C   UNL     1      -4.281 -10.392  12.970  0.00  0.00    +0.168 C 
ENDROOT
BRANCH  12  11
ATOM      8  N   UNL     1      -4.399 -10.266  15.862  0.00  0.00    -0.161 NA
ATOM      9  C   UNL     1      -4.750 -10.394  15.127  0.00  0.00    +0.344 C 
ATOM     10  O   UNL     1      -5.555 -10.571  15.079  0.00  0.00    -0.249 OA
ATOM     11  N   UNL     1      -4.297 -10.347  14.439  0.00  0.00    -0.184 NA
BRANCH   8   7
ATOM      4  C   UNL     1      -5.757 -10.410  17.926  0.00  0.00    -0.022 A 
ATOM      5  C   UNL     1      -5.020 -10.779  17.891  0.00  0.00    -0.003 A 
ATOM      6  C   UNL     1      -4.568 -10.731  17.202  0.00  0.00    +0.016 A 
ATOM      7  C   UNL     1      -4.852 -10.314  16.550  0.00  0.00    +0.075 A 
ATOM     33  C   UNL     1      -5.588  -9.945  16.586  0.00  0.00    +0.016 A 
ATOM     34  C   UNL     1      -6.041  -9.993  17.274  0.00  0.00    -0.003 A 
BRANCH   4   2
ATOM      1  C   UNL     1      -5.840 -10.442  19.352  0.00  0.00    +0.005 C 
ATOM      2  C   UNL     1      -6.210 -10.458  18.614  0.00  0.00    +0.022 C 
ATOM      3  C   UNL     1      -7.031 -10.522  18.565  0.00  0.00    +0.005 C 
ENDBRANCH   4   2
ENDBRANCH   8   7
ENDBRANCH  12  11
BRANCH  16  20
ATOM     20  O   UNL     1      -4.818 -10.619  10.916  0.00  0.00    -0.432 OA
BRANCH  20  21
ATOM     21  C   UNL     1      -5.229 -10.008  10.543  0.00  0.00    +0.425 C 
ATOM     22  O   UNL     1      -4.909  -9.248  10.525  0.00  0.00    -0.224 OA
ATOM     23  N   UNL     1      -5.957 -10.158  10.187  0.00  0.00    -0.142 NA
BRANCH  23  24
ATOM     24  C   UNL     1      -6.368  -9.547   9.814  0.00  0.00    +0.077 A 
ATOM     25  C   UNL     1      -6.445  -9.544   8.993  0.00  0.00    +0.017 A 
ATOM     26  C   UNL     1      -6.855  -8.934   8.620  0.00  0.00    +0.004 A 
ATOM     27  C   UNL     1      -7.189  -8.326   9.068  0.00  0.00    +0.035 A 
ATOM     28  C   UNL     1      -7.112  -8.329   9.889  0.00  0.00    +0.004 A 
ATOM     29  C   UNL     1      -6.701  -8.940  10.262  0.00  0.00    +0.017 A 
BRANCH  27  30
ATOM     30  C   UNL     1      -7.599  -7.716   8.695  0.00  0.00    +0.173 C 
ATOM     31  C   UNL     1      -8.414  -7.642   8.802  0.00  0.00    +0.077 C 
ATOM     32  O   UNL     1      -7.196  -7.178   8.216  0.00  0.00    -0.291 OA
ENDBRANCH  27  30
ENDBRANCH  23  24
ENDBRANCH  20  21
ENDBRANCH  16  20
TORSDOF 7
ENDMDL
