MODEL 1
REMARK VINA RESULT:     -12.1      0.000      0.000
REMARK  Name = 
REMARK  7 active torsions:
REMARK  status: ('A' for Active; 'I' for Inactive)
REMARK    1  A    between atoms: C_2  and  C_4
REMARK    2  A    between atoms: C_4  and  C_5
REMARK    3  A    between atoms: C_4  and  N_12
REMARK    4  A    between atoms: C_5  and  C_6
REMARK    5  A    between atoms: C_13  and  C_15
REMARK    6  A    between atoms: C_21  and  C_23
REMARK    7  A    between atoms: C_28  and  C_30
REMARK                            x       y       z     vdW  Elec       q    Type
REMARK                         _______ _______ _______ _____ _____    ______ ____
ROOT
ATOM     15  C   UNL     1      -2.024   1.103  24.379  0.00  0.00    +0.174 C 
ATOM     16  C   UNL     1      -2.733   0.744  24.603  0.00  0.00    +0.123 C 
ATOM     17  N   UNL     1      -2.814  -0.075  24.552  0.00  0.00    -0.272 N 
ATOM     18  C   UNL     1      -2.186  -0.536  24.279  0.00  0.00    +0.115 C 
ATOM     19  C   UNL     1      -1.478  -0.178  24.056  0.00  0.00    +0.116 C 
ATOM     20  N   UNL     1      -1.396   0.642  24.106  0.00  0.00    -0.266 N 
ATOM     21  C   UNL     1      -0.688   1.000  23.883  0.00  0.00    +0.255 C 
ATOM     22  O   UNL     1      -0.606   1.820  23.933  0.00  0.00    -0.269 OA
ATOM     28  C   UNL     1      -3.523  -0.434  24.776  0.00  0.00    +0.249 C 
ATOM     29  O   UNL     1      -4.150   0.027  25.049  0.00  0.00    -0.270 OA
ENDROOT
BRANCH  28  30
ATOM     30  C   UNL     1      -3.604  -1.253  24.726  0.00  0.00    +0.056 A 
ATOM     31  C   UNL     1      -3.302  -1.734  25.324  0.00  0.00    +0.005 A 
ATOM     32  C   UNL     1      -3.382  -2.554  25.274  0.00  0.00    +0.002 A 
ATOM     33  C   UNL     1      -3.764  -2.893  24.626  0.00  0.00    +0.030 A 
ATOM     34  C   UNL     1      -4.066  -2.411  24.028  0.00  0.00    +0.140 A 
ATOM     35  F   UNL     1      -4.448  -2.749  23.380  0.00  0.00    -0.204 F 
ATOM     36  C   UNL     1      -3.986  -1.592  24.077  0.00  0.00    +0.034 A 
ENDBRANCH  28  30
BRANCH  21  23
ATOM     23  C   UNL     1      -0.061   0.540  23.610  0.00  0.00    +0.083 A 
ATOM     24  C   UNL     1       0.032   0.253  22.842  0.00  0.00    +0.012 A 
ATOM     25  C   UNL     1       0.735  -0.179  22.814  0.00  0.00    +0.008 A 
ATOM     26  C   UNL     1       1.076  -0.160  23.565  0.00  0.00    +0.036 A 
ATOM     27  S   UNL     1       0.584   0.284  24.057  0.00  0.00    -0.082 S 
ENDBRANCH  21  23
BRANCH  15  13
ATOM     12  N   UNL     1      -2.198   2.321  25.106  0.00  0.00    -0.196 NA
ATOM     13  C   UNL     1      -1.943   1.922  24.430  0.00  0.00    +0.262 C 
ATOM     14  O   UNL     1      -1.608   2.343  23.804  0.00  0.00    -0.271 OA
BRANCH  12   4
ATOM      4  C   UNL     1      -2.117   3.140  25.157  0.00  0.00    +0.174 C 
BRANCH   4   2
ATOM      1  N   UNL     1      -1.083   4.118  25.276  0.00  0.00    -0.086 NA
ATOM      2  C   UNL     1      -1.490   3.468  25.580  0.00  0.00    +0.281 C 
ATOM      3  O   UNL     1      -1.269   3.145  26.306  0.00  0.00    -0.270 OA
ENDBRANCH   4   2
BRANCH   4   5
ATOM      5  C   UNL     1      -2.665   3.632  24.783  0.00  0.00    +0.031 C 
BRANCH   5   6
ATOM      6  C   UNL     1      -3.432   3.695  25.081  0.00  0.00    +0.002 C 
ATOM      7  C   UNL     1      -4.079   3.611  24.575  0.00  0.00    +0.000 C 
ATOM      8  C   UNL     1      -4.846   3.674  24.873  0.00  0.00    +0.000 C 
ATOM      9  C   UNL     1      -4.966   3.821  25.676  0.00  0.00    +0.000 C 
ATOM     10  C   UNL     1      -4.320   3.905  26.181  0.00  0.00    +0.000 C 
ATOM     11  C   UNL     1      -3.552   3.842  25.884  0.00  0.00    +0.000 C 
ENDBRANCH   5   6
ENDBRANCH   4   5
ENDBRANCH  12   4
ENDBRANCH  15  13
TORSDOF 7
ENDMDL
MODEL 2
REMARK VINA RESULT:     -11.4      1.918      3.649
REMARK  Name = 
REMARK  7 active torsions:
REMARK  status: ('A' for Active; 'I' for Inactive)
REMARK    1  A    between atoms: C_2  and  C_4
REMARK    2  A    between atoms: C_4  and  C_5
REMARK    3  A    between atoms: C_4  and  N_12
REMARK    4  A    between atoms: C_5  and  C_6
REMARK    5  A    between atoms: C_13  and  C_15
REMARK    6  A    between atoms: C_21  and  C_23
REMARK    7  A    between atoms: C_28  and  C_30
REMARK                            x       y       z     vdW  Elec       q    Type
REMARK                         _______ _______ _______ _____ _____    ______ ____
ROOT
ATOM     15  C   UNL     1      -3.408   1.572  24.773  0.00  0.00    +0.174 C 
ATOM     16  C   UNL     1      -2.961   0.894  24.624  0.00  0.00    +0.123 C 
ATOM     17  N   UNL     1      -3.325   0.154  24.618  0.00  0.00    -0.272 N 
ATOM     18  C   UNL     1      -4.135   0.091  24.761  0.00  0.00    +0.115 C 
ATOM     19  C   UNL     1      -4.581   0.769  24.909  0.00  0.00    +0.116 C 
ATOM     20  N   UNL     1      -4.218   1.510  24.915  0.00  0.00    -0.266 N 
ATOM     21  C   UNL     1      -4.664   2.187  25.063  0.00  0.00    +0.255 C 
ATOM     22  O   UNL     1      -4.301   2.928  25.069  0.00  0.00    -0.269 OA
ATOM     28  C   UNL     1      -2.878  -0.524  24.470  0.00  0.00    +0.249 C 
ATOM     29  O   UNL     1      -2.068  -0.461  24.327  0.00  0.00    -0.270 OA
ENDROOT
BRANCH  28  30
ATOM     30  C   UNL     1      -3.242  -1.264  24.464  0.00  0.00    +0.056 A 
ATOM     31  C   UNL     1      -3.683  -1.500  23.808  0.00  0.00    +0.005 A 
ATOM     32  C   UNL     1      -4.048  -2.241  23.802  0.00  0.00    +0.002 A 
ATOM     33  C   UNL     1      -3.971  -2.744  24.451  0.00  0.00    +0.030 A 
ATOM     34  C   UNL     1      -3.530  -2.507  25.106  0.00  0.00    +0.140 A 
ATOM     35  F   UNL     1      -3.453  -3.010  25.756  0.00  0.00    -0.204 F 
ATOM     36  C   UNL     1      -3.165  -1.767  25.113  0.00  0.00    +0.034 A 
ENDBRANCH  28  30
BRANCH  21  23
ATOM     23  C   UNL     1      -5.474   2.124  25.206  0.00  0.00    +0.083 A 
ATOM     24  C   UNL     1      -6.054   1.958  24.643  0.00  0.00    +0.012 A 
ATOM     25  C   UNL     1      -6.786   1.947  25.026  0.00  0.00    +0.008 A 
ATOM     26  C   UNL     1      -6.658   2.107  25.825  0.00  0.00    +0.036 A 
ATOM     27  S   UNL     1      -5.847   2.217  25.936  0.00  0.00    -0.082 S 
ENDBRANCH  21  23
BRANCH  15  13
ATOM     12  N   UNL     1      -2.441   2.471  25.320  0.00  0.00    -0.196 NA
ATOM     13  C   UNL     1      -3.044   2.312  24.779  0.00  0.00    +0.262 C 
ATOM     14  O   UNL     1      -3.282   2.894  24.244  0.00  0.00    -0.271 OA
BRANCH  12   4
ATOM      4  C   UNL     1      -2.076   3.211  25.326  0.00  0.00    +0.174 C 
BRANCH   4   2
ATOM      1  N   UNL     1      -2.458   4.567  25.563  0.00  0.00    -0.086 NA
ATOM      2  C   UNL     1      -2.343   3.798  25.839  0.00  0.00    +0.281 C 
ATOM      3  O   UNL     1      -2.496   3.617  26.630  0.00  0.00    -0.270 OA
ENDBRANCH   4   2
BRANCH   4   5
ATOM      5  C   UNL     1      -1.444   3.363  24.817  0.00  0.00    +0.031 C 
BRANCH   5   6
ATOM      6  C   UNL     1      -0.723   2.979  24.930  0.00  0.00    +0.002 C 
ATOM      7  C   UNL     1      -0.317   2.666  24.282  0.00  0.00    +0.000 C 
ATOM      8  C   UNL     1       0.404   2.282  24.395  0.00  0.00    +0.000 C 
ATOM      9  C   UNL     1       0.720   2.210  25.154  0.00  0.00    +0.000 C 
ATOM     10  C   UNL     1       0.314   2.523  25.800  0.00  0.00    +0.000 C 
ATOM     11  C   UNL     1      -0.408   2.907  25.689  0.00  0.00    +0.000 C 
ENDBRANCH   5   6
ENDBRANCH   4   5
ENDBRANCH  12   4
ENDBRANCH  15  13
TORSDOF 7
ENDMDL
MODEL 3
REMARK VINA RESULT:     -11.1      1.956      4.505
REMARK  Name = 
REMARK  7 active torsions:
REMARK  status: ('A' for Active; 'I' for Inactive)
REMARK    1  A    between atoms: C_2  and  C_4
REMARK    2  A    between atoms: C_4  and  C_5
REMARK    3  A    between atoms: C_4  and  N_12
REMARK    4  A    between atoms: C_5  and  C_6
REMARK    5  A    between atoms: C_13  and  C_15
REMARK    6  A    between atoms: C_21  and  C_23
REMARK    7  A    between atoms: C_28  and  C_30
REMARK                            x       y       z     vdW  Elec       q    Type
REMARK                         _______ _______ _______ _____ _____    ______ ____
ROOT
ATOM     15  C   UNL     1      -2.206   0.963  24.810  0.00  0.00    +0.174 C 
ATOM     16  C   UNL     1      -3.027   1.012  24.738  0.00  0.00    +0.123 C 
ATOM     17  N   UNL     1      -3.411   1.728  24.886  0.00  0.00    -0.272 N 
ATOM     18  C   UNL     1      -2.975   2.393  25.104  0.00  0.00    +0.115 C 
ATOM     19  C   UNL     1      -2.155   2.343  25.176  0.00  0.00    +0.116 C 
ATOM     20  N   UNL     1      -1.770   1.628  25.029  0.00  0.00    -0.266 N 
ATOM     21  C   UNL     1      -0.951   1.579  25.100  0.00  0.00    +0.255 C 
ATOM     22  O   UNL     1      -0.565   0.864  24.953  0.00  0.00    -0.269 OA
ATOM     28  C   UNL     1      -4.232   1.777  24.814  0.00  0.00    +0.249 C 
ATOM     29  O   UNL     1      -4.668   1.112  24.596  0.00  0.00    -0.270 OA
ENDROOT
BRANCH  28  30
ATOM     30  C   UNL     1      -4.616   2.492  24.961  0.00  0.00    +0.056 A 
ATOM     31  C   UNL     1      -4.514   3.128  24.445  0.00  0.00    +0.005 A 
ATOM     32  C   UNL     1      -4.898   3.844  24.592  0.00  0.00    +0.002 A 
ATOM     33  C   UNL     1      -5.383   3.923  25.255  0.00  0.00    +0.030 A 
ATOM     34  C   UNL     1      -5.484   3.287  25.770  0.00  0.00    +0.140 A 
ATOM     35  F   UNL     1      -5.969   3.367  26.433  0.00  0.00    -0.204 F 
ATOM     36  C   UNL     1      -5.101   2.572  25.624  0.00  0.00    +0.034 A 
ENDBRANCH  28  30
BRANCH  21  23
ATOM     23  C   UNL     1      -0.515   2.244  25.319  0.00  0.00    +0.083 A 
ATOM     24  C   UNL     1      -0.317   2.877  24.828  0.00  0.00    +0.012 A 
ATOM     25  C   UNL     1       0.120   3.418  25.273  0.00  0.00    +0.008 A 
ATOM     26  C   UNL     1       0.193   3.118  26.038  0.00  0.00    +0.036 A 
ATOM     27  S   UNL     1      -0.199   2.393  26.067  0.00  0.00    -0.082 S 
ENDBRANCH  21  23
BRANCH  15  13
ATOM     12  N   UNL     1      -2.053  -0.434  25.067  0.00  0.00    -0.196 NA
ATOM     13  C   UNL     1      -1.823   0.248  24.663  0.00  0.00    +0.262 C 
ATOM     14  O   UNL     1      -1.209   0.214  24.112  0.00  0.00    -0.271 OA
BRANCH  12   4
ATOM      4  C   UNL     1      -1.669  -1.149  24.920  0.00  0.00    +0.174 C 
BRANCH   4   2
ATOM      1  N   UNL     1      -0.363  -1.701  25.090  0.00  0.00    -0.086 NA
ATOM      2  C   UNL     1      -1.058  -1.400  25.414  0.00  0.00    +0.281 C 
ATOM      3  O   UNL     1      -1.144  -1.348  26.233  0.00  0.00    -0.270 OA
ENDBRANCH   4   2
BRANCH   4   5
ATOM      5  C   UNL     1      -1.897  -1.615  24.277  0.00  0.00    +0.031 C 
BRANCH   5   6
ATOM      6  C   UNL     1      -2.586  -2.066  24.319  0.00  0.00    +0.002 C 
ATOM      7  C   UNL     1      -3.246  -1.854  23.869  0.00  0.00    +0.000 C 
ATOM      8  C   UNL     1      -3.935  -2.305  23.912  0.00  0.00    +0.000 C 
ATOM      9  C   UNL     1      -3.966  -2.968  24.403  0.00  0.00    +0.000 C 
ATOM     10  C   UNL     1      -3.307  -3.179  24.851  0.00  0.00    +0.000 C 
ATOM     11  C   UNL     1      -2.617  -2.728  24.810  0.00  0.00    +0.000 C 
ENDBRANCH   5   6
ENDBRANCH   4   5
ENDBRANCH  12   4
ENDBRANCH  15  13
TORSDOF 7
ENDMDL
MODEL 4
REMARK VINA RESULT:     -11.0      2.002      3.883
REMARK  Name = 
REMARK  7 active torsions:
REMARK  status: ('A' for Active; 'I' for Inactive)
REMARK    1  A    between atoms: C_2  and  C_4
REMARK    2  A    between atoms: C_4  and  C_5
REMARK    3  A    between atoms: C_4  and  N_12
REMARK    4  A    between atoms: C_5  and  C_6
REMARK    5  A    between atoms: C_13  and  C_15
REMARK    6  A    between atoms: C_21  and  C_23
REMARK    7  A    between atoms: C_28  and  C_30
REMARK                            x       y       z     vdW  Elec       q    Type
REMARK                         _______ _______ _______ _____ _____    ______ ____
ROOT
ATOM     15  C   UNL     1      -2.647   0.403  24.860  0.00  0.00    +0.174 C 
ATOM     16  C   UNL     1      -3.040   1.120  24.980  0.00  0.00    +0.123 C 
ATOM     17  N   UNL     1      -3.863   1.132  25.044  0.00  0.00    -0.272 N 
ATOM     18  C   UNL     1      -4.292   0.430  24.988  0.00  0.00    +0.115 C 
ATOM     19  C   UNL     1      -3.900  -0.284  24.868  0.00  0.00    +0.116 C 
ATOM     20  N   UNL     1      -3.077  -0.299  24.804  0.00  0.00    -0.266 N 
ATOM     21  C   UNL     1      -2.685  -1.014  24.684  0.00  0.00    +0.255 C 
ATOM     22  O   UNL     1      -1.862  -1.028  24.619  0.00  0.00    -0.269 OA
ATOM     28  C   UNL     1      -4.255   1.849  25.164  0.00  0.00    +0.249 C 
ATOM     29  O   UNL     1      -3.826   2.551  25.220  0.00  0.00    -0.270 OA
ENDROOT
BRANCH  28  30
ATOM     30  C   UNL     1      -5.078   1.862  25.228  0.00  0.00    +0.056 A 
ATOM     31  C   UNL     1      -5.542   1.905  24.548  0.00  0.00    +0.005 A 
ATOM     32  C   UNL     1      -6.366   1.918  24.612  0.00  0.00    +0.002 A 
ATOM     33  C   UNL     1      -6.723   1.887  25.355  0.00  0.00    +0.030 A 
ATOM     34  C   UNL     1      -6.256   1.844  26.035  0.00  0.00    +0.140 A 
ATOM     35  F   UNL     1      -6.613   1.813  26.778  0.00  0.00    -0.204 F 
ATOM     36  C   UNL     1      -5.435   1.831  25.971  0.00  0.00    +0.034 A 
ENDBRANCH  28  30
BRANCH  21  23
ATOM     23  C   UNL     1      -3.115  -1.716  24.628  0.00  0.00    +0.083 A 
ATOM     24  C   UNL     1      -3.562  -1.960  23.979  0.00  0.00    +0.012 A 
ATOM     25  C   UNL     1      -3.896  -2.692  24.161  0.00  0.00    +0.008 A 
ATOM     26  C   UNL     1      -3.655  -2.901  24.922  0.00  0.00    +0.036 A 
ATOM     27  S   UNL     1      -3.172  -2.297  25.211  0.00  0.00    -0.082 S 
ENDBRANCH  21  23
BRANCH  15  13
ATOM     12  N   UNL     1      -1.439   0.958  24.337  0.00  0.00    -0.196 NA
ATOM     13  C   UNL     1      -1.825   0.390  24.795  0.00  0.00    +0.262 C 
ATOM     14  O   UNL     1      -1.389  -0.189  25.189  0.00  0.00    -0.271 OA
BRANCH  12   4
ATOM      4  C   UNL     1      -0.616   0.945  24.273  0.00  0.00    +0.174 C 
BRANCH   4   2
ATOM      1  N   UNL     1       0.388   0.089  23.728  0.00  0.00    -0.086 NA
ATOM      2  C   UNL     1      -0.258   0.589  23.621  0.00  0.00    +0.281 C 
ATOM      3  O   UNL     1      -0.548   0.734  22.862  0.00  0.00    -0.270 OA
ENDBRANCH   4   2
BRANCH   4   5
ATOM      5  C   UNL     1      -0.152   1.289  24.863  0.00  0.00    +0.031 C 
BRANCH   5   6
ATOM      6  C   UNL     1      -0.166   2.107  24.974  0.00  0.00    +0.002 C 
ATOM      7  C   UNL     1      -0.207   2.418  25.737  0.00  0.00    +0.000 C 
ATOM      8  C   UNL     1      -0.221   3.236  25.848  0.00  0.00    +0.000 C 
ATOM      9  C   UNL     1      -0.194   3.741  25.197  0.00  0.00    +0.000 C 
ATOM     10  C   UNL     1      -0.153   3.430  24.435  0.00  0.00    +0.000 C 
ATOM     11  C   UNL     1      -0.139   2.612  24.322  0.00  0.00    +0.000 C 
ENDBRANCH   5   6
ENDBRANCH   4   5
ENDBRANCH  12   4
ENDBRANCH  15  13
TORSDOF 7
ENDMDL
MODEL 5
REMARK VINA RESULT:     -11.0      2.079      4.552
REMARK  Name = 
REMARK  7 active torsions:
REMARK  status: ('A' for Active; 'I' for Inactive)
REMARK    1  A    between atoms: C_2  and  C_4
REMARK    2  A    between atoms: C_4  and  C_5
REMARK    3  A    between atoms: C_4  and  N_12
REMARK    4  A    between atoms: C_5  and  C_6
REMARK    5  A    between atoms: C_13  and  C_15
REMARK    6  A    between atoms: C_21  and  C_23
REMARK    7  A    between atoms: C_28  and  C_30
REMARK                            x       y       z     vdW  Elec       q    Type
REMARK                         _______ _______ _______ _____ _____    ______ ____
ROOT
ATOM     15  C   UNL     1      -1.412   0.785  24.552  0.00  0.00    +0.174 C 
ATOM     16  C   UNL     1      -0.996   0.172  24.186  0.00  0.00    +0.123 C 
ATOM     17  N   UNL     1      -0.257   0.319  23.850  0.00  0.00    -0.272 N 
ATOM     18  C   UNL     1       0.067   1.077  23.879  0.00  0.00    +0.115 C 
ATOM     19  C   UNL     1      -0.348   1.688  24.244  0.00  0.00    +0.116 C 
ATOM     20  N   UNL     1      -1.088   1.543  24.581  0.00  0.00    -0.266 N 
ATOM     21  C   UNL     1      -1.503   2.155  24.946  0.00  0.00    +0.255 C 
ATOM     22  O   UNL     1      -2.242   2.009  25.282  0.00  0.00    -0.269 OA
ATOM     28  C   UNL     1       0.158  -0.294  23.485  0.00  0.00    +0.249 C 
ATOM     29  O   UNL     1      -0.166  -1.052  23.456  0.00  0.00    -0.270 OA
ENDROOT
BRANCH  28  30
ATOM     30  C   UNL     1       0.897  -0.148  23.149  0.00  0.00    +0.056 A 
ATOM     31  C   UNL     1       1.528   0.083  23.628  0.00  0.00    +0.005 A 
ATOM     32  C   UNL     1       2.268   0.230  23.292  0.00  0.00    +0.002 A 
ATOM     33  C   UNL     1       2.376   0.146  22.478  0.00  0.00    +0.030 A 
ATOM     34  C   UNL     1       1.744  -0.086  22.001  0.00  0.00    +0.140 A 
ATOM     35  F   UNL     1       1.852  -0.170  21.187  0.00  0.00    -0.204 F 
ATOM     36  C   UNL     1       1.005  -0.232  22.335  0.00  0.00    +0.034 A 
ENDBRANCH  28  30
BRANCH  21  23
ATOM     23  C   UNL     1      -1.179   2.913  24.975  0.00  0.00    +0.083 A 
ATOM     24  C   UNL     1      -0.608   3.176  25.509  0.00  0.00    +0.012 A 
ATOM     25  C   UNL     1      -0.445   3.967  25.339  0.00  0.00    +0.008 A 
ATOM     26  C   UNL     1      -0.916   4.193  24.700  0.00  0.00    +0.036 A 
ATOM     27  S   UNL     1      -1.370   3.541  24.475  0.00  0.00    -0.082 S 
ENDBRANCH  21  23
BRANCH  15  13
ATOM     12  N   UNL     1      -2.746   0.285  24.437  0.00  0.00    -0.196 NA
ATOM     13  C   UNL     1      -2.151   0.638  24.887  0.00  0.00    +0.262 C 
ATOM     14  O   UNL     1      -2.296   0.845  25.673  0.00  0.00    -0.271 OA
BRANCH  12   4
ATOM      4  C   UNL     1      -3.485   0.138  24.772  0.00  0.00    +0.174 C 
BRANCH   4   2
ATOM      1  N   UNL     1      -4.616   0.863  25.257  0.00  0.00    -0.086 NA
ATOM      2  C   UNL     1      -4.110   0.660  24.639  0.00  0.00    +0.281 C 
ATOM      3  O   UNL     1      -4.228   0.977  23.886  0.00  0.00    -0.270 OA
ENDBRANCH   4   2
BRANCH   4   5
ATOM      5  C   UNL     1      -3.598  -0.531  25.243  0.00  0.00    +0.031 C 
BRANCH   5   6
ATOM      6  C   UNL     1      -3.698  -1.270  24.890  0.00  0.00    +0.002 C 
ATOM      7  C   UNL     1      -3.333  -1.935  25.216  0.00  0.00    +0.000 C 
ATOM      8  C   UNL     1      -3.433  -2.674  24.864  0.00  0.00    +0.000 C 
ATOM      9  C   UNL     1      -3.897  -2.748  24.185  0.00  0.00    +0.000 C 
ATOM     10  C   UNL     1      -4.261  -2.084  23.860  0.00  0.00    +0.000 C 
ATOM     11  C   UNL     1      -4.162  -1.345  24.212  0.00  0.00    +0.000 C 
ENDBRANCH   5   6
ENDBRANCH   4   5
ENDBRANCH  12   4
ENDBRANCH  15  13
TORSDOF 7
ENDMDL
