MODEL 1
REMARK VINA RESULT:     -10.5      0.000      0.000
REMARK  Name = 
REMARK  7 active torsions:
REMARK  status: ('A' for Active; 'I' for Inactive)
REMARK    1  A    between atoms: C_5  and  S_8
REMARK    2  A    between atoms: S_8  and  N_11
REMARK    3  A    between atoms: N_11  and  C_12
REMARK    4  A    between atoms: C_12  and  C_13
REMARK    5  A    between atoms: C_15  and  C_16
REMARK    6  A    between atoms: C_16  and  C_17
REMARK    7  A    between atoms: N_22  and  C_25
REMARK                            x       y       z     vdW  Elec       q    Type
REMARK                         _______ _______ _______ _____ _____    ______ ____
ROOT
ATOM     13  C   UNL     1      -4.632   3.284  25.620  0.00  0.00    +0.167 C 
ATOM     14  O   UNL     1      -4.422   2.523  25.381  0.00  0.00    -0.351 OA
ATOM     15  C   UNL     1      -5.095   2.047  25.422  0.00  0.00    +0.157 C 
ATOM     31  C   UNL     1      -5.722   2.514  25.686  0.00  0.00    +0.212 C 
ATOM     32  O   UNL     1      -6.497   2.261  25.806  0.00  0.00    -0.218 OA
ATOM     33  C   UNL     1      -5.436   3.279  25.808  0.00  0.00    +0.213 C 
ATOM     34  O   UNL     1      -5.876   3.924  26.072  0.00  0.00    -0.218 OA
ENDROOT
BRANCH  13  12
ATOM     12  C   UNL     1      -4.129   3.936  25.663  0.00  0.00    +0.148 C 
BRANCH  12  11
ATOM     11  N   UNL     1      -3.427   3.888  26.093  0.00  0.00    -0.075 NA
BRANCH  11   8
ATOM      8  S   UNL     1      -2.719   4.144  25.758  0.00  0.00    +0.077 S 
ATOM      9  O   UNL     1      -2.298   3.652  26.270  0.00  0.00    -0.152 OA
ATOM     10  O   UNL     1      -3.139   4.635  25.245  0.00  0.00    -0.152 OA
BRANCH   8   5
ATOM      1  C   UNL     1       0.116   5.169  24.414  0.00  0.00    +0.031 C 
ATOM      2  C   UNL     1      -0.592   4.913  24.750  0.00  0.00    -0.022 A 
ATOM      3  C   UNL     1      -0.713   4.110  24.897  0.00  0.00    -0.003 A 
ATOM      4  C   UNL     1      -1.422   3.854  25.233  0.00  0.00    +0.020 A 
ATOM      5  C   UNL     1      -2.009   4.400  25.421  0.00  0.00    +0.124 A 
ATOM      6  C   UNL     1      -1.890   5.204  25.275  0.00  0.00    +0.020 A 
ATOM      7  C   UNL     1      -1.181   5.460  24.939  0.00  0.00    -0.003 A 
ENDBRANCH   8   5
ENDBRANCH  11   8
ENDBRANCH  12  11
ENDBRANCH  13  12
BRANCH  15  16
ATOM     16  C   UNL     1      -5.133   1.245  25.233  0.00  0.00    +0.117 C 
BRANCH  16  17
ATOM     17  C   UNL     1      -4.774   0.966  24.544  0.00  0.00    +0.228 C 
ATOM     18  O   UNL     1      -4.833   1.399  23.844  0.00  0.00    -0.275 OA
ATOM     19  N   UNL     1      -4.358   0.254  24.555  0.00  0.00    -0.276 N 
ATOM     20  C   UNL     1      -3.999  -0.025  23.867  0.00  0.00    +0.115 C 
ATOM     21  C   UNL     1      -3.583  -0.737  23.878  0.00  0.00    +0.112 C 
ATOM     22  N   UNL     1      -3.524  -1.170  24.577  0.00  0.00    -0.304 N 
ATOM     23  C   UNL     1      -3.883  -0.891  25.266  0.00  0.00    +0.112 C 
ATOM     24  C   UNL     1      -4.300  -0.179  25.255  0.00  0.00    +0.115 C 
BRANCH  22  25
ATOM     25  C   UNL     1      -3.108  -1.882  24.588  0.00  0.00    +0.048 A 
ATOM     26  C   UNL     1      -3.515  -2.598  24.602  0.00  0.00    +0.015 A 
ATOM     27  C   UNL     1      -3.098  -3.310  24.612  0.00  0.00    +0.001 A 
ATOM     28  C   UNL     1      -2.273  -3.304  24.610  0.00  0.00    +0.000 A 
ATOM     29  C   UNL     1      -1.865  -2.588  24.597  0.00  0.00    +0.001 A 
ATOM     30  C   UNL     1      -2.282  -1.876  24.586  0.00  0.00    +0.015 A 
ENDBRANCH  22  25
ENDBRANCH  16  17
ENDBRANCH  15  16
TORSDOF 7
ENDMDL
MODEL 2
REMARK VINA RESULT:     -10.5      1.311      5.547
REMARK  Name = 
REMARK  7 active torsions:
REMARK  status: ('A' for Active; 'I' for Inactive)
REMARK    1  A    between atoms: C_5  and  S_8
REMARK    2  A    between atoms: S_8  and  N_11
REMARK    3  A    between atoms: N_11  and  C_12
REMARK    4  A    between atoms: C_12  and  C_13
REMARK    5  A    between atoms: C_15  and  C_16
REMARK    6  A    between atoms: C_16  and  C_17
REMARK    7  A    between atoms: N_22  and  C_25
REMARK                            x       y       z     vdW  Elec       q    Type
REMARK                         _______ _______ _______ _____ _____    ______ ____
ROOT
ATOM     13  C   UNL     1      -5.353   1.360  25.110  0.00  0.00    +0.167 C 
ATOM     14  O   UNL     1      -4.847   2.000  25.232  0.00  0.00    -0.351 OA
ATOM     15  C   UNL     1      -5.306   2.684  25.273  0.00  0.00    +0.157 C 
ATOM     31  C   UNL     1      -6.096   2.467  25.176  0.00  0.00    +0.212 C 
ATOM     32  O   UNL     1      -6.744   2.979  25.179  0.00  0.00    -0.218 OA
ATOM     33  C   UNL     1      -6.126   1.649  25.075  0.00  0.00    +0.213 C 
ATOM     34  O   UNL     1      -6.806   1.199  24.959  0.00  0.00    -0.218 OA
ENDROOT
BRANCH  13  12
ATOM     12  C   UNL     1      -5.127   0.570  25.036  0.00  0.00    +0.148 C 
BRANCH  12  11
ATOM     11  N   UNL     1      -4.344   0.379  24.861  0.00  0.00    -0.075 NA
BRANCH  11   8
ATOM      8  S   UNL     1      -4.124  -0.408  24.758  0.00  0.00    +0.077 S 
ATOM      9  O   UNL     1      -4.172  -0.528  25.574  0.00  0.00    -0.152 OA
ATOM     10  O   UNL     1      -4.076  -0.289  23.943  0.00  0.00    -0.152 OA
BRANCH   8   5
ATOM      1  C   UNL     1      -3.244  -3.562  24.347  0.00  0.00    +0.031 C 
ATOM      2  C   UNL     1      -3.464  -2.775  24.450  0.00  0.00    -0.022 A 
ATOM      3  C   UNL     1      -4.011  -2.429  23.939  0.00  0.00    -0.003 A 
ATOM      4  C   UNL     1      -4.231  -1.640  24.041  0.00  0.00    +0.020 A 
ATOM      5  C   UNL     1      -3.904  -1.198  24.655  0.00  0.00    +0.124 A 
ATOM      6  C   UNL     1      -3.356  -1.543  25.167  0.00  0.00    +0.020 A 
ATOM      7  C   UNL     1      -3.136  -2.331  25.065  0.00  0.00    -0.003 A 
ENDBRANCH   8   5
ENDBRANCH  11   8
ENDBRANCH  12  11
ENDBRANCH  13  12
BRANCH  15  16
ATOM     16  C   UNL     1      -5.025   3.450  25.391  0.00  0.00    +0.117 C 
BRANCH  16  17
ATOM     17  C   UNL     1      -4.439   3.593  25.954  0.00  0.00    +0.228 C 
ATOM     18  O   UNL     1      -4.606   3.496  26.756  0.00  0.00    -0.275 OA
ATOM     19  N   UNL     1      -3.686   3.833  25.716  0.00  0.00    -0.276 N 
ATOM     20  C   UNL     1      -3.101   3.976  26.279  0.00  0.00    +0.115 C 
ATOM     21  C   UNL     1      -2.349   4.216  26.040  0.00  0.00    +0.112 C 
ATOM     22  N   UNL     1      -2.181   4.313  25.238  0.00  0.00    -0.304 N 
ATOM     23  C   UNL     1      -2.767   4.170  24.675  0.00  0.00    +0.112 C 
ATOM     24  C   UNL     1      -3.520   3.930  24.913  0.00  0.00    +0.115 C 
BRANCH  22  25
ATOM     25  C   UNL     1      -1.429   4.552  25.000  0.00  0.00    +0.048 A 
ATOM     26  C   UNL     1      -0.856   3.989  24.816  0.00  0.00    +0.015 A 
ATOM     27  C   UNL     1      -0.103   4.230  24.578  0.00  0.00    +0.001 A 
ATOM     28  C   UNL     1       0.075   5.033  24.523  0.00  0.00    +0.000 A 
ATOM     29  C   UNL     1      -0.498   5.597  24.707  0.00  0.00    +0.001 A 
ATOM     30  C   UNL     1      -1.251   5.357  24.945  0.00  0.00    +0.015 A 
ENDBRANCH  22  25
ENDBRANCH  16  17
ENDBRANCH  15  16
TORSDOF 7
ENDMDL
MODEL 3
REMARK VINA RESULT:      -9.8      1.603      3.711
REMARK  Name = 
REMARK  7 active torsions:
REMARK  status: ('A' for Active; 'I' for Inactive)
REMARK    1  A    between atoms: C_5  and  S_8
REMARK    2  A    between atoms: S_8  and  N_11
REMARK    3  A    between atoms: N_11  and  C_12
REMARK    4  A    between atoms: C_12  and  C_13
REMARK    5  A    between atoms: C_15  and  C_16
REMARK    6  A    between atoms: C_16  and  C_17
REMARK    7  A    between atoms: N_22  and  C_25
REMARK                            x       y       z     vdW  Elec       q    Type
REMARK                         _______ _______ _______ _____ _____    ______ ____
ROOT
ATOM     13  C   UNL     1      -1.666   3.385  24.989  0.00  0.00    +0.167 C 
ATOM     14  O   UNL     1      -1.615   2.562  25.000  0.00  0.00    -0.351 OA
ATOM     15  C   UNL     1      -0.838   2.352  24.817  0.00  0.00    +0.157 C 
ATOM     31  C   UNL     1      -0.409   3.046  24.692  0.00  0.00    +0.212 C 
ATOM     32  O   UNL     1       0.391   3.093  24.496  0.00  0.00    -0.218 OA
ATOM     33  C   UNL     1      -0.921   3.684  24.798  0.00  0.00    +0.213 C 
ATOM     34  O   UNL     1      -0.723   4.481  24.727  0.00  0.00    -0.218 OA
ENDROOT
BRANCH  13  12
ATOM     12  C   UNL     1      -2.344   3.831  25.141  0.00  0.00    +0.148 C 
BRANCH  12  11
ATOM     11  N   UNL     1      -2.969   3.827  24.603  0.00  0.00    -0.075 NA
BRANCH  11   8
ATOM      8  S   UNL     1      -3.691   3.488  24.813  0.00  0.00    +0.077 S 
ATOM      9  O   UNL     1      -3.621   3.808  25.571  0.00  0.00    -0.152 OA
ATOM     10  O   UNL     1      -3.761   3.170  24.055  0.00  0.00    -0.152 OA
BRANCH   8   5
ATOM      1  C   UNL     1      -6.580   2.132  25.650  0.00  0.00    +0.031 C 
ATOM      2  C   UNL     1      -5.859   2.470  25.441  0.00  0.00    -0.022 A 
ATOM      3  C   UNL     1      -5.323   2.048  24.978  0.00  0.00    -0.003 A 
ATOM      4  C   UNL     1      -4.600   2.387  24.768  0.00  0.00    +0.020 A 
ATOM      5  C   UNL     1      -4.414   3.149  25.022  0.00  0.00    +0.124 A 
ATOM      6  C   UNL     1      -4.949   3.573  25.486  0.00  0.00    +0.020 A 
ATOM      7  C   UNL     1      -5.671   3.233  25.695  0.00  0.00    -0.003 A 
ENDBRANCH   8   5
ENDBRANCH  11   8
ENDBRANCH  12  11
ENDBRANCH  13  12
BRANCH  15  16
ATOM     16  C   UNL     1      -0.542   1.584  24.767  0.00  0.00    +0.117 C 
BRANCH  16  17
ATOM     17  C   UNL     1      -0.731   1.030  25.349  0.00  0.00    +0.228 C 
ATOM     18  O   UNL     1      -0.430   1.116  26.112  0.00  0.00    -0.275 OA
ATOM     19  N   UNL     1      -1.220   0.391  25.168  0.00  0.00    -0.276 N 
ATOM     20  C   UNL     1      -1.409  -0.162  25.749  0.00  0.00    +0.115 C 
ATOM     21  C   UNL     1      -1.898  -0.801  25.568  0.00  0.00    +0.112 C 
ATOM     22  N   UNL     1      -2.199  -0.887  24.805  0.00  0.00    -0.304 N 
ATOM     23  C   UNL     1      -2.010  -0.333  24.223  0.00  0.00    +0.112 C 
ATOM     24  C   UNL     1      -1.521   0.305  24.404  0.00  0.00    +0.115 C 
BRANCH  22  25
ATOM     25  C   UNL     1      -2.688  -1.526  24.624  0.00  0.00    +0.048 A 
ATOM     26  C   UNL     1      -2.382  -2.292  24.618  0.00  0.00    +0.015 A 
ATOM     27  C   UNL     1      -2.872  -2.931  24.437  0.00  0.00    +0.001 A 
ATOM     28  C   UNL     1      -3.668  -2.803  24.262  0.00  0.00    +0.000 A 
ATOM     29  C   UNL     1      -3.975  -2.038  24.267  0.00  0.00    +0.001 A 
ATOM     30  C   UNL     1      -3.485  -1.399  24.449  0.00  0.00    +0.015 A 
ENDBRANCH  22  25
ENDBRANCH  16  17
ENDBRANCH  15  16
TORSDOF 7
ENDMDL
MODEL 4
REMARK VINA RESULT:      -9.8      2.404      6.106
REMARK  Name = 
REMARK  7 active torsions:
REMARK  status: ('A' for Active; 'I' for Inactive)
REMARK    1  A    between atoms: C_5  and  S_8
REMARK    2  A    between atoms: S_8  and  N_11
REMARK    3  A    between atoms: N_11  and  C_12
REMARK    4  A    between atoms: C_12  and  C_13
REMARK    5  A    between atoms: C_15  and  C_16
REMARK    6  A    between atoms: C_16  and  C_17
REMARK    7  A    between atoms: N_22  and  C_25
REMARK                            x       y       z     vdW  Elec       q    Type
REMARK                         _______ _______ _______ _____ _____    ______ ____
ROOT
ATOM     13  C   UNL     1      -0.270   0.650  24.272  0.00  0.00    +0.167 C 
ATOM     14  O   UNL     1      -0.740   1.286  24.507  0.00  0.00    -0.351 OA
ATOM     15  C   UNL     1      -0.306   1.979  24.394  0.00  0.00    +0.157 C 
ATOM     31  C   UNL     1       0.432   1.771  24.089  0.00  0.00    +0.212 C 
ATOM     32  O   UNL     1       1.041   2.292  23.894  0.00  0.00    -0.218 OA
ATOM     33  C   UNL     1       0.454   0.949  24.014  0.00  0.00    +0.213 C 
ATOM     34  O   UNL     1       1.089   0.505  23.730  0.00  0.00    -0.218 OA
ENDROOT
BRANCH  13  12
ATOM     12  C   UNL     1      -0.486  -0.146  24.292  0.00  0.00    +0.148 C 
BRANCH  12  11
ATOM     11  N   UNL     1      -0.912  -0.443  24.933  0.00  0.00    -0.075 NA
BRANCH  11   8
ATOM      8  S   UNL     1      -1.534  -0.969  24.808  0.00  0.00    +0.077 S 
ATOM      9  O   UNL     1      -1.995  -0.554  25.353  0.00  0.00    -0.152 OA
ATOM     10  O   UNL     1      -1.073  -1.383  24.263  0.00  0.00    -0.152 OA
BRANCH   8   5
ATOM      1  C   UNL     1      -4.022  -3.078  24.306  0.00  0.00    +0.031 C 
ATOM      2  C   UNL     1      -3.401  -2.551  24.431  0.00  0.00    -0.022 A 
ATOM      3  C   UNL     1      -3.548  -1.741  24.470  0.00  0.00    -0.003 A 
ATOM      4  C   UNL     1      -2.926  -1.213  24.596  0.00  0.00    +0.020 A 
ATOM      5  C   UNL     1      -2.156  -1.497  24.682  0.00  0.00    +0.124 A 
ATOM      6  C   UNL     1      -2.008  -2.308  24.643  0.00  0.00    +0.020 A 
ATOM      7  C   UNL     1      -2.630  -2.835  24.518  0.00  0.00    -0.003 A 
ENDBRANCH   8   5
ENDBRANCH  11   8
ENDBRANCH  12  11
ENDBRANCH  13  12
BRANCH  15  16
ATOM     16  C   UNL     1      -0.565   2.745  24.557  0.00  0.00    +0.117 C 
BRANCH  16  17
ATOM     17  C   UNL     1      -0.923   2.914  25.281  0.00  0.00    +0.228 C 
ATOM     18  O   UNL     1      -0.469   2.942  25.969  0.00  0.00    -0.275 OA
ATOM     19  N   UNL     1      -1.735   3.056  25.316  0.00  0.00    -0.276 N 
ATOM     20  C   UNL     1      -2.093   3.225  26.040  0.00  0.00    +0.115 C 
ATOM     21  C   UNL     1      -2.904   3.367  26.075  0.00  0.00    +0.112 C 
ATOM     22  N   UNL     1      -3.359   3.339  25.387  0.00  0.00    -0.304 N 
ATOM     23  C   UNL     1      -3.001   3.169  24.663  0.00  0.00    +0.112 C 
ATOM     24  C   UNL     1      -2.189   3.028  24.628  0.00  0.00    +0.115 C 
BRANCH  22  25
ATOM     25  C   UNL     1      -4.171   3.480  25.423  0.00  0.00    +0.048 A 
ATOM     26  C   UNL     1      -4.456   4.254  25.414  0.00  0.00    +0.015 A 
ATOM     27  C   UNL     1      -5.268   4.395  25.450  0.00  0.00    +0.001 A 
ATOM     28  C   UNL     1      -5.794   3.762  25.495  0.00  0.00    +0.000 A 
ATOM     29  C   UNL     1      -5.511   2.988  25.504  0.00  0.00    +0.001 A 
ATOM     30  C   UNL     1      -4.698   2.847  25.469  0.00  0.00    +0.015 A 
ENDBRANCH  22  25
ENDBRANCH  16  17
ENDBRANCH  15  16
TORSDOF 7
ENDMDL
MODEL 5
REMARK VINA RESULT:      -9.7      3.333      5.137
REMARK  Name = 
REMARK  7 active torsions:
REMARK  status: ('A' for Active; 'I' for Inactive)
REMARK    1  A    between atoms: C_5  and  S_8
REMARK    2  A    between atoms: S_8  and  N_11
REMARK    3  A    between atoms: N_11  and  C_12
REMARK    4  A    between atoms: C_12  and  C_13
REMARK    5  A    between atoms: C_15  and  C_16
REMARK    6  A    between atoms: C_16  and  C_17
REMARK    7  A    between atoms: N_22  and  C_25
REMARK                            x       y       z     vdW  Elec       q    Type
REMARK                         _______ _______ _______ _____ _____    ______ ____
ROOT
ATOM     13  C   UNL     1      -3.148  -0.544  24.980  0.00  0.00    +0.167 C 
ATOM     14  O   UNL     1      -2.425  -0.236  24.731  0.00  0.00    -0.351 OA
ATOM     15  C   UNL     1      -1.898  -0.865  24.639  0.00  0.00    +0.157 C 
ATOM     31  C   UNL     1      -2.296  -1.562  24.831  0.00  0.00    +0.212 C 
ATOM     32  O   UNL     1      -1.978  -2.322  24.816  0.00  0.00    -0.218 OA
ATOM     33  C   UNL     1      -3.069  -1.364  25.043  0.00  0.00    +0.213 C 
ATOM     34  O   UNL     1      -3.658  -1.891  25.275  0.00  0.00    -0.218 OA
ENDROOT
BRANCH  13  12
ATOM     12  C   UNL     1      -3.831  -0.110  25.140  0.00  0.00    +0.148 C 
BRANCH  12  11
ATOM     11  N   UNL     1      -4.146   0.391  24.565  0.00  0.00    -0.075 NA
BRANCH  11   8
ATOM      8  S   UNL     1      -4.480   1.112  24.784  0.00  0.00    +0.077 S 
ATOM      9  O   UNL     1      -4.125   1.475  24.133  0.00  0.00    -0.152 OA
ATOM     10  O   UNL     1      -4.835   0.749  25.435  0.00  0.00    -0.152 OA
BRANCH   8   5
ATOM      1  C   UNL     1      -5.820   3.997  25.662  0.00  0.00    +0.031 C 
ATOM      2  C   UNL     1      -5.485   3.277  25.443  0.00  0.00    -0.022 A 
ATOM      3  C   UNL     1      -4.702   3.246  25.185  0.00  0.00    -0.003 A 
ATOM      4  C   UNL     1      -4.367   2.525  24.966  0.00  0.00    +0.020 A 
ATOM      5  C   UNL     1      -4.816   1.834  25.004  0.00  0.00    +0.124 A 
ATOM      6  C   UNL     1      -5.599   1.863  25.261  0.00  0.00    +0.020 A 
ATOM      7  C   UNL     1      -5.934   2.584  25.481  0.00  0.00    -0.003 A 
ENDBRANCH   8   5
ENDBRANCH  11   8
ENDBRANCH  12  11
ENDBRANCH  13  12
BRANCH  15  16
ATOM     16  C   UNL     1      -1.112  -0.807  24.396  0.00  0.00    +0.117 C 
BRANCH  16  17
ATOM     17  C   UNL     1      -0.724  -0.079  24.424  0.00  0.00    +0.228 C 
ATOM     18  O   UNL     1      -1.053   0.547  24.849  0.00  0.00    -0.275 OA
ATOM     19  N   UNL     1      -0.009   0.023  24.026  0.00  0.00    -0.276 N 
ATOM     20  C   UNL     1       0.379   0.751  24.053  0.00  0.00    +0.115 C 
ATOM     21  C   UNL     1       1.094   0.852  23.656  0.00  0.00    +0.112 C 
ATOM     22  N   UNL     1       1.423   0.226  23.230  0.00  0.00    -0.304 N 
ATOM     23  C   UNL     1       1.035  -0.502  23.203  0.00  0.00    +0.112 C 
ATOM     24  C   UNL     1       0.319  -0.604  23.601  0.00  0.00    +0.115 C 
BRANCH  22  25
ATOM     25  C   UNL     1       2.138   0.328  22.833  0.00  0.00    +0.048 A 
ATOM     26  C   UNL     1       2.254  -0.023  22.096  0.00  0.00    +0.015 A 
ATOM     27  C   UNL     1       2.970   0.079  21.698  0.00  0.00    +0.001 A 
ATOM     28  C   UNL     1       3.569   0.533  22.039  0.00  0.00    +0.000 A 
ATOM     29  C   UNL     1       3.454   0.884  22.776  0.00  0.00    +0.001 A 
ATOM     30  C   UNL     1       2.738   0.782  23.173  0.00  0.00    +0.015 A 
ENDBRANCH  22  25
ENDBRANCH  16  17
ENDBRANCH  15  16
TORSDOF 7
ENDMDL
MODEL 6
REMARK VINA RESULT:      -7.9     14.157     16.630
REMARK  Name = 
REMARK  7 active torsions:
REMARK  status: ('A' for Active; 'I' for Inactive)
REMARK    1  A    between atoms: C_5  and  S_8
REMARK    2  A    between atoms: S_8  and  N_11
REMARK    3  A    between atoms: N_11  and  C_12
REMARK    4  A    between atoms: C_12  and  C_13
REMARK    5  A    between atoms: C_15  and  C_16
REMARK    6  A    between atoms: C_16  and  C_17
REMARK    7  A    between atoms: N_22  and  C_25
REMARK                            x       y       z     vdW  Elec       q    Type
REMARK                         _______ _______ _______ _____ _____    ______ ____
ROOT
ATOM     13  C   UNL     1      -8.293  -9.768  15.348  0.00  0.00    +0.167 C 
ATOM     14  O   UNL     1      -7.758  -9.802  14.721  0.00  0.00    -0.351 OA
ATOM     15  C   UNL     1      -8.179  -9.689  14.020  0.00  0.00    +0.157 C 
ATOM     31  C   UNL     1      -8.974  -9.584  14.214  0.00  0.00    +0.212 C 
ATOM     32  O   UNL     1      -9.590  -9.454  13.682  0.00  0.00    -0.218 OA
ATOM     33  C   UNL     1      -9.045  -9.634  15.035  0.00  0.00    +0.213 C 
ATOM     34  O   UNL     1      -9.744  -9.561  15.467  0.00  0.00    -0.218 OA
ENDROOT
BRANCH  13  12
ATOM     12  C   UNL     1      -8.109  -9.854  16.148  0.00  0.00    +0.148 C 
BRANCH  12  11
ATOM     11  N   UNL     1      -7.347  -9.690  16.416  0.00  0.00    -0.075 NA
BRANCH  11   8
ATOM      8  S   UNL     1      -7.123  -9.903  17.180  0.00  0.00    +0.077 S 
ATOM      9  O   UNL     1      -6.996 -10.679  16.927  0.00  0.00    -0.152 OA
ATOM     10  O   UNL     1      -7.251  -9.129  17.434  0.00  0.00    -0.152 OA
BRANCH   8   5
ATOM      1  C   UNL     1      -6.229 -10.757  20.240  0.00  0.00    +0.031 C 
ATOM      2  C   UNL     1      -6.453 -10.544  19.476  0.00  0.00    -0.022 A 
ATOM      3  C   UNL     1      -7.248 -10.559  19.259  0.00  0.00    -0.003 A 
ATOM      4  C   UNL     1      -7.472 -10.346  18.494  0.00  0.00    +0.020 A 
ATOM      5  C   UNL     1      -6.900 -10.117  17.946  0.00  0.00    +0.124 A 
ATOM      6  C   UNL     1      -6.103 -10.102  18.162  0.00  0.00    +0.020 A 
ATOM      7  C   UNL     1      -5.880 -10.315  18.927  0.00  0.00    -0.003 A 
ENDBRANCH   8   5
ENDBRANCH  11   8
ENDBRANCH  12  11
ENDBRANCH  13  12
BRANCH  15  16
ATOM     16  C   UNL     1      -7.860  -9.681  13.260  0.00  0.00    +0.117 C 
BRANCH  16  17
ATOM     17  C   UNL     1      -7.172 -10.106  13.096  0.00  0.00    +0.228 C 
ATOM     18  O   UNL     1      -6.990 -10.780  13.536  0.00  0.00    -0.275 OA
ATOM     19  N   UNL     1      -6.667  -9.858  12.493  0.00  0.00    -0.276 N 
ATOM     20  C   UNL     1      -5.980 -10.283  12.329  0.00  0.00    +0.115 C 
ATOM     21  C   UNL     1      -5.475 -10.034  11.726  0.00  0.00    +0.112 C 
ATOM     22  N   UNL     1      -5.657  -9.361  11.286  0.00  0.00    -0.304 N 
ATOM     23  C   UNL     1      -6.345  -8.935  11.450  0.00  0.00    +0.112 C 
ATOM     24  C   UNL     1      -6.850  -9.184  12.053  0.00  0.00    +0.115 C 
BRANCH  22  25
ATOM     25  C   UNL     1      -5.152  -9.112  10.683  0.00  0.00    +0.048 A 
ATOM     26  C   UNL     1      -5.399  -8.534  10.150  0.00  0.00    +0.015 A 
ATOM     27  C   UNL     1      -4.894  -8.286   9.547  0.00  0.00    +0.001 A 
ATOM     28  C   UNL     1      -4.141  -8.616   9.478  0.00  0.00    +0.000 A 
ATOM     29  C   UNL     1      -3.893  -9.195  10.011  0.00  0.00    +0.001 A 
ATOM     30  C   UNL     1      -4.399  -9.443  10.614  0.00  0.00    +0.015 A 
ENDBRANCH  22  25
ENDBRANCH  16  17
ENDBRANCH  15  16
TORSDOF 7
ENDMDL
MODEL 7
REMARK VINA RESULT:      -7.1     15.302     17.681
REMARK  Name = 
REMARK  7 active torsions:
REMARK  status: ('A' for Active; 'I' for Inactive)
REMARK    1  A    between atoms: C_5  and  S_8
REMARK    2  A    between atoms: S_8  and  N_11
REMARK    3  A    between atoms: N_11  and  C_12
REMARK    4  A    between atoms: C_12  and  C_13
REMARK    5  A    between atoms: C_15  and  C_16
REMARK    6  A    between atoms: C_16  and  C_17
REMARK    7  A    between atoms: N_22  and  C_25
REMARK                            x       y       z     vdW  Elec       q    Type
REMARK                         _______ _______ _______ _____ _____    ______ ____
ROOT
ATOM     13  C   UNL     1      -9.269  -9.981  12.879  0.00  0.00    +0.167 C 
ATOM     14  O   UNL     1      -8.481  -9.891  12.652  0.00  0.00    -0.351 OA
ATOM     15  C   UNL     1      -8.402 -10.180  11.883  0.00  0.00    +0.157 C 
ATOM     31  C   UNL     1      -9.142 -10.448  11.634  0.00  0.00    +0.212 C 
ATOM     32  O   UNL     1      -9.315 -10.781  10.900  0.00  0.00    -0.218 OA
ATOM     33  C   UNL     1      -9.678 -10.325  12.250  0.00  0.00    +0.213 C 
ATOM     34  O   UNL     1     -10.481 -10.514  12.238  0.00  0.00    -0.218 OA
ENDROOT
BRANCH  13  12
ATOM     12  C   UNL     1      -9.593  -9.764  13.606  0.00  0.00    +0.148 C 
BRANCH  12  11
ATOM     11  N   UNL     1      -9.108  -9.456  14.198  0.00  0.00    -0.075 NA
BRANCH  11   8
ATOM      8  S   UNL     1      -9.427  -9.261  14.933  0.00  0.00    +0.077 S 
ATOM      9  O   UNL     1      -9.162  -9.981  15.239  0.00  0.00    -0.152 OA
ATOM     10  O   UNL     1      -9.691  -8.542  14.627  0.00  0.00    -0.152 OA
BRANCH   8   5
ATOM      1  C   UNL     1     -10.703  -8.480  17.874  0.00  0.00    +0.031 C 
ATOM      2  C   UNL     1     -10.385  -8.675  17.139  0.00  0.00    -0.022 A 
ATOM      3  C   UNL     1     -10.584  -9.390  16.779  0.00  0.00    -0.003 A 
ATOM      4  C   UNL     1     -10.265  -9.585  16.044  0.00  0.00    +0.020 A 
ATOM      5  C   UNL     1      -9.746  -9.065  15.669  0.00  0.00    +0.124 A 
ATOM      6  C   UNL     1      -9.546  -8.350  16.028  0.00  0.00    +0.020 A 
ATOM      7  C   UNL     1      -9.865  -8.155  16.763  0.00  0.00    -0.003 A 
ENDBRANCH   8   5
ENDBRANCH  11   8
ENDBRANCH  12  11
ENDBRANCH  13  12
BRANCH  15  16
ATOM     16  C   UNL     1      -7.706 -10.197  11.441  0.00  0.00    +0.117 C 
BRANCH  16  17
ATOM     17  C   UNL     1      -7.264  -9.507  11.340  0.00  0.00    +0.228 C 
ATOM     18  O   UNL     1      -7.644  -8.776  11.307  0.00  0.00    -0.275 OA
ATOM     19  N   UNL     1      -6.443  -9.550  11.272  0.00  0.00    -0.276 N 
ATOM     20  C   UNL     1      -6.001  -8.861  11.171  0.00  0.00    +0.115 C 
ATOM     21  C   UNL     1      -5.181  -8.903  11.103  0.00  0.00    +0.112 C 
ATOM     22  N   UNL     1      -4.801  -9.635  11.136  0.00  0.00    -0.304 N 
ATOM     23  C   UNL     1      -5.243 -10.325  11.237  0.00  0.00    +0.112 C 
ATOM     24  C   UNL     1      -6.064 -10.282  11.305  0.00  0.00    +0.115 C 
BRANCH  22  25
ATOM     25  C   UNL     1      -3.980  -9.678  11.068  0.00  0.00    +0.048 A 
ATOM     26  C   UNL     1      -3.536 -10.054  11.652  0.00  0.00    +0.015 A 
ATOM     27  C   UNL     1      -2.715 -10.096  11.583  0.00  0.00    +0.001 A 
ATOM     28  C   UNL     1      -2.338  -9.762  10.930  0.00  0.00    +0.000 A 
ATOM     29  C   UNL     1      -2.781  -9.385  10.346  0.00  0.00    +0.001 A 
ATOM     30  C   UNL     1      -3.603  -9.343  10.414  0.00  0.00    +0.015 A 
ENDBRANCH  22  25
ENDBRANCH  16  17
ENDBRANCH  15  16
TORSDOF 7
ENDMDL
MODEL 8
REMARK VINA RESULT:      -7.0     15.195     16.637
REMARK  Name = 
REMARK  7 active torsions:
REMARK  status: ('A' for Active; 'I' for Inactive)
REMARK    1  A    between atoms: C_5  and  S_8
REMARK    2  A    between atoms: S_8  and  N_11
REMARK    3  A    between atoms: N_11  and  C_12
REMARK    4  A    between atoms: C_12  and  C_13
REMARK    5  A    between atoms: C_15  and  C_16
REMARK    6  A    between atoms: C_16  and  C_17
REMARK    7  A    between atoms: N_22  and  C_25
REMARK                            x       y       z     vdW  Elec       q    Type
REMARK                         _______ _______ _______ _____ _____    ______ ____
ROOT
ATOM     13  C   UNL     1      -8.622  -9.936  15.057  0.00  0.00    +0.167 C 
ATOM     14  O   UNL     1      -7.857 -10.216  14.925  0.00  0.00    -0.351 OA
ATOM     15  C   UNL     1      -7.657 -10.050  14.141  0.00  0.00    +0.157 C 
ATOM     31  C   UNL     1      -8.298  -9.667  13.790  0.00  0.00    +0.212 C 
ATOM     32  O   UNL     1      -8.336  -9.402  13.010  0.00  0.00    -0.218 OA
ATOM     33  C   UNL     1      -8.894  -9.597  14.356  0.00  0.00    +0.213 C 
ATOM     34  O   UNL     1      -9.633  -9.249  14.241  0.00  0.00    -0.218 OA
ENDROOT
BRANCH  13  12
ATOM     12  C   UNL     1      -9.040  -9.986  15.766  0.00  0.00    +0.148 C 
BRANCH  12  11
ATOM     11  N   UNL     1      -8.646  -9.902  16.486  0.00  0.00    -0.075 NA
BRANCH  11   8
ATOM      8  S   UNL     1      -9.060  -9.976  17.194  0.00  0.00    +0.077 S 
ATOM      9  O   UNL     1      -9.175 -10.780  17.043  0.00  0.00    -0.152 OA
ATOM     10  O   UNL     1      -8.945  -9.173  17.346  0.00  0.00    -0.152 OA
BRANCH   8   5
ATOM      1  C   UNL     1     -10.718 -10.272  20.032  0.00  0.00    +0.031 C 
ATOM      2  C   UNL     1     -10.304 -10.198  19.324  0.00  0.00    -0.022 A 
ATOM      3  C   UNL     1      -9.615 -10.635  19.200  0.00  0.00    -0.003 A 
ATOM      4  C   UNL     1      -9.201 -10.561  18.491  0.00  0.00    +0.020 A 
ATOM      5  C   UNL     1      -9.475 -10.050  17.905  0.00  0.00    +0.124 A 
ATOM      6  C   UNL     1     -10.164  -9.612  18.027  0.00  0.00    +0.020 A 
ATOM      7  C   UNL     1     -10.578  -9.687  18.737  0.00  0.00    -0.003 A 
ENDBRANCH   8   5
ENDBRANCH  11   8
ENDBRANCH  12  11
ENDBRANCH  13  12
BRANCH  15  16
ATOM     16  C   UNL     1      -6.941 -10.234  13.775  0.00  0.00    +0.117 C 
BRANCH  16  17
ATOM     17  C   UNL     1      -6.247 -10.271  14.219  0.00  0.00    +0.228 C 
ATOM     18  O   UNL     1      -6.283 -10.248  15.043  0.00  0.00    -0.275 OA
ATOM     19  N   UNL     1      -5.517 -10.330  13.840  0.00  0.00    -0.276 N 
ATOM     20  C   UNL     1      -4.823 -10.367  14.284  0.00  0.00    +0.115 C 
ATOM     21  C   UNL     1      -4.093 -10.425  13.905  0.00  0.00    +0.112 C 
ATOM     22  N   UNL     1      -4.056 -10.448  13.081  0.00  0.00    -0.304 N 
ATOM     23  C   UNL     1      -4.751 -10.411  12.637  0.00  0.00    +0.112 C 
ATOM     24  C   UNL     1      -5.481 -10.352  13.016  0.00  0.00    +0.115 C 
BRANCH  22  25
ATOM     25  C   UNL     1      -3.326 -10.507  12.702  0.00  0.00    +0.048 A 
ATOM     26  C   UNL     1      -2.641 -10.632  13.143  0.00  0.00    +0.015 A 
ATOM     27  C   UNL     1      -1.911 -10.691  12.763  0.00  0.00    +0.001 A 
ATOM     28  C   UNL     1      -1.867 -10.625  11.942  0.00  0.00    +0.000 A 
ATOM     29  C   UNL     1      -2.552 -10.500  11.500  0.00  0.00    +0.001 A 
ATOM     30  C   UNL     1      -3.282 -10.441  11.880  0.00  0.00    +0.015 A 
ENDBRANCH  22  25
ENDBRANCH  16  17
ENDBRANCH  15  16
TORSDOF 7
ENDMDL
