REMARK  Name = 
REMARK  6 active torsions:
REMARK  status: ('A' for Active; 'I' for Inactive)
REMARK    1  A    between atoms: C_2  and  C_3
REMARK    2  A    between atoms: C_3  and  N_4
REMARK    3  A    between atoms: N_7  and  C_8
REMARK    4  A    between atoms: C_10  and  C_17
REMARK    5  A    between atoms: N_19  and  C_20
REMARK    6  A    between atoms: C_20  and  C_22
REMARK                            x       y       z     vdW  Elec       q    Type
REMARK                         _______ _______ _______ _____ _____    ______ ____
ROOT
ATOM      8  C   UNL     1       5.716  -4.125   0.000  0.00  0.00    +0.133 C 
ATOM      9  C   UNL     1       6.430  -3.712   0.000  0.00  0.00    +0.064 C 
ATOM     10  C   UNL     1       7.145  -4.125   0.000  0.00  0.00    +0.200 C 
ATOM     11  O   UNL     1       7.427  -3.350   0.000  0.00  0.00    -0.216 OA
ATOM     12  C   UNL     1       7.145  -4.950   0.000  0.00  0.00    +0.075 C 
ATOM     13  C   UNL     1       6.430  -5.362   0.000  0.00  0.00    +0.187 C 
ATOM     14  O   UNL     1       6.430  -6.188   0.000  0.00  0.00    -0.220 OA
ATOM     15  C   UNL     1       5.716  -4.950   0.000  0.00  0.00    +0.202 C 
ATOM     16  O   UNL     1       5.001  -5.362   0.000  0.00  0.00    -0.219 OA
ENDROOT
BRANCH   8   7
ATOM      4  N   UNL     1       3.572  -3.712   0.000  0.00  0.00    -0.187 NA
ATOM      5  C   UNL     1       4.287  -4.125   0.000  0.00  0.00    +0.339 C 
ATOM      6  O   UNL     1       4.287  -4.950   0.000  0.00  0.00    -0.249 OA
ATOM      7  N   UNL     1       5.001  -3.712   0.000  0.00  0.00    -0.186 NA
BRANCH   4   3
ATOM      3  C   UNL     1       2.858  -4.125   0.000  0.00  0.00    +0.117 C 
BRANCH   3   2
ATOM      1  C   UNL     1       1.429  -4.125   0.000  0.00  0.00    +0.002 C 
ATOM      2  C   UNL     1       2.143  -3.712   0.000  0.00  0.00    +0.023 C 
ENDBRANCH   3   2
ENDBRANCH   4   3
ENDBRANCH   8   7
BRANCH  10  17
ATOM     17  C   UNL     1       7.957  -4.268   0.000  0.00  0.00    +0.269 C 
ATOM     18  O   UNL     1       8.488  -3.636   0.000  0.00  0.00    -0.271 OA
ATOM     19  N   UNL     1       8.239  -5.043   0.000  0.00  0.00    -0.196 NA
BRANCH  19  20
ATOM     20  C   UNL     1       9.052  -5.187   0.000  0.00  0.00    +0.175 C 
ATOM     21  C   UNL     1       9.582  -4.555   0.000  0.00  0.00    +0.033 C 
BRANCH  20  22
ATOM     22  C   UNL     1       9.334  -5.962   0.000  0.00  0.00    +0.281 C 
ATOM     23  N   UNL     1      10.146  -6.105   0.000  0.00  0.00    -0.086 NA
ATOM     24  O   UNL     1       8.804  -6.594   0.000  0.00  0.00    -0.270 OA
ENDBRANCH  20  22
ENDBRANCH  19  20
ENDBRANCH  10  17
TORSDOF 6
