REMARK  Name = 
REMARK  6 active torsions:
REMARK  status: ('A' for Active; 'I' for Inactive)
REMARK    1  A    between atoms: C_2  and  C_3
REMARK    2  A    between atoms: C_3  and  C_4
REMARK    3  A    between atoms: C_9  and  C_10
REMARK    4  A    between atoms: C_10  and  C_11
REMARK    5  A    between atoms: C_14  and  C_16
REMARK    6  A    between atoms: N_22  and  C_23
REMARK                            x       y       z     vdW  Elec       q    Type
REMARK                         _______ _______ _______ _____ _____    ______ ____
ROOT
ATOM      4  C   UNL     1       2.143  -2.888   0.000  0.00  0.00    +0.012 C 
ATOM      5  C   UNL     1       2.858  -2.475   0.000  0.00  0.00    +0.019 C 
ATOM      6  C   UNL     1       3.572  -2.888   0.000  0.00  0.00    +0.089 C 
ATOM      7  N   UNL     1       3.572  -3.712   0.000  0.00  0.00    -0.218 NA
ATOM      8  C   UNL     1       2.858  -4.125   0.000  0.00  0.00    +0.089 C 
ATOM      9  C   UNL     1       2.143  -3.712   0.000  0.00  0.00    +0.024 C 
ENDROOT
BRANCH   4   3
ATOM      3  C   UNL     1       1.429  -2.475   0.000  0.00  0.00    +0.087 C 
BRANCH   3   2
ATOM      1  O   UNL     1       2.143  -1.238   0.000  0.00  0.00    -0.273 OA
ATOM      2  C   UNL     1       1.429  -1.650   0.000  0.00  0.00    +0.241 C 
ATOM     22  N   UNL     1       0.715  -1.238   0.000  0.00  0.00    -0.207 NA
BRANCH  22  23
ATOM     23  C   UNL     1       0.715  -0.412   0.000  0.00  0.00    +0.095 C 
ATOM     24  C   UNL     1       0.000   0.000   0.000  0.00  0.00    +0.022 C 
ATOM     25  C   UNL     1       0.000   0.825   0.000  0.00  0.00    +0.002 C 
ATOM     26  C   UNL     1       0.715   1.238   0.000  0.00  0.00    +0.000 C 
ATOM     27  C   UNL     1       1.429   0.825   0.000  0.00  0.00    +0.002 C 
ATOM     28  C   UNL     1       1.429   0.000   0.000  0.00  0.00    +0.022 C 
ENDBRANCH  22  23
ENDBRANCH   3   2
ENDBRANCH   4   3
BRANCH   9  10
ATOM     10  C   UNL     1       1.429  -4.125   0.000  0.00  0.00    +0.051 C 
BRANCH  10  11
ATOM     11  C   UNL     1       1.429  -4.950   0.000  0.00  0.00    +0.101 A 
ATOM     12  N   UNL     1       2.096  -5.435   0.000  0.00  0.00    -0.081 NA
ATOM     13  O   UNL     1       1.841  -6.220   0.000  0.00  0.00    -0.354 OA
ATOM     14  C   UNL     1       1.016  -6.220   0.000  0.00  0.00    +0.177 A 
ATOM     15  C   UNL     1       0.761  -5.435   0.000  0.00  0.00    +0.058 A 
BRANCH  14  16
ATOM     16  C   UNL     1       0.531  -6.887   0.000  0.00  0.00    +0.037 A 
ATOM     17  C   UNL     1       0.867  -7.641   0.000  0.00  0.00    +0.003 A 
ATOM     18  C   UNL     1       0.382  -8.308   0.000  0.00  0.00    +0.000 A 
ATOM     19  C   UNL     1      -0.438  -8.222   0.000  0.00  0.00    +0.000 A 
ATOM     20  C   UNL     1      -0.774  -7.468   0.000  0.00  0.00    +0.000 A 
ATOM     21  C   UNL     1      -0.289  -6.801   0.000  0.00  0.00    +0.003 A 
ENDBRANCH  14  16
ENDBRANCH  10  11
ENDBRANCH   9  10
TORSDOF 6
