MODEL 1
REMARK VINA RESULT:     -11.0      0.000      0.000
REMARK  Name = 
REMARK  7 active torsions:
REMARK  status: ('A' for Active; 'I' for Inactive)
REMARK    1  A    between atoms: N_4  and  C_5
REMARK    2  A    between atoms: C_5  and  C_6
REMARK    3  A    between atoms: C_6  and  C_7
REMARK    4  A    between atoms: C_11  and  C_12
REMARK    5  A    between atoms: C_14  and  N_15
REMARK    6  A    between atoms: N_15  and  C_16
REMARK    7  A    between atoms: C_16  and  C_17
REMARK                            x       y       z     vdW  Elec       q    Type
REMARK                         _______ _______ _______ _____ _____    ______ ____
ROOT
ATOM     12  C   UNL     1      -4.329   2.049  24.902  0.00  0.00    +0.048 C 
ATOM     13  C   UNL     1      -3.987   1.301  24.974  0.00  0.00    +0.031 C 
ATOM     14  C   UNL     1      -4.558   0.740  24.776  0.00  0.00    +0.095 C 
ATOM     24  C   UNL     1      -5.253   1.140  24.582  0.00  0.00    -0.013 C 
ATOM     25  C   UNL     1      -5.111   1.949  24.659  0.00  0.00    -0.025 C 
ENDROOT
BRANCH  12  11
ATOM      1  C   UNL     1      -4.815   3.263  26.131  0.00  0.00    +0.054 C 
ATOM      2  C   UNL     1      -4.178   3.327  25.611  0.00  0.00    +0.076 A 
ATOM      3  N   UNL     1      -3.652   3.961  25.565  0.00  0.00    -0.174 NA
ATOM      4  N   UNL     1      -3.103   3.795  24.971  0.00  0.00    -0.254 N 
ATOM      9  C   UNL     1      -3.289   3.059  24.651  0.00  0.00    +0.053 A 
ATOM     10  C   UNL     1      -2.884   2.678  24.042  0.00  0.00    +0.051 C 
ATOM     11  C   UNL     1      -3.954   2.770  25.046  0.00  0.00    +0.010 A 
BRANCH   4   5
ATOM      5  C   UNL     1      -2.478   4.280  24.740  0.00  0.00    +0.143 C 
BRANCH   5   6
ATOM      6  C   UNL     1      -2.013   4.655  25.310  0.00  0.00    +0.132 C 
BRANCH   6   7
ATOM      7  C   UNL     1      -1.326   5.054  25.086  0.00  0.00    +0.075 C 
ATOM      8  N   UNL     1      -0.639   5.453  24.862  0.00  0.00    -0.196 NA
ENDBRANCH   6   7
ENDBRANCH   5   6
ENDBRANCH   4   5
ENDBRANCH  12  11
BRANCH  14  15
ATOM     15  N   UNL     1      -4.452  -0.079  24.773  0.00  0.00    -0.210 NA
BRANCH  15  16
ATOM     16  C   UNL     1      -4.001  -0.434  24.181  0.00  0.00    +0.115 C 
BRANCH  16  17
ATOM     17  C   UNL     1      -3.832  -1.241  24.220  0.00  0.00    -0.004 A 
ATOM     18  C   UNL     1      -4.378  -1.791  23.938  0.00  0.00    -0.003 A 
ATOM     19  C   UNL     1      -4.209  -2.598  23.977  0.00  0.00    +0.001 A 
ATOM     20  C   UNL     1      -3.493  -2.854  24.298  0.00  0.00    +0.011 A 
ATOM     21  C   UNL     1      -2.947  -2.303  24.580  0.00  0.00    +0.057 A 
ATOM     22 CL   UNL     1      -2.231  -2.560  24.900  0.00  0.00    -0.082 Cl
ATOM     23  C   UNL     1      -3.116  -1.497  24.541  0.00  0.00    +0.009 A 
ENDBRANCH  16  17
ENDBRANCH  15  16
ENDBRANCH  14  15
TORSDOF 7
ENDMDL
MODEL 2
REMARK VINA RESULT:      -9.8      1.687      5.269
REMARK  Name = 
REMARK  7 active torsions:
REMARK  status: ('A' for Active; 'I' for Inactive)
REMARK    1  A    between atoms: N_4  and  C_5
REMARK    2  A    between atoms: C_5  and  C_6
REMARK    3  A    between atoms: C_6  and  C_7
REMARK    4  A    between atoms: C_11  and  C_12
REMARK    5  A    between atoms: C_14  and  N_15
REMARK    6  A    between atoms: N_15  and  C_16
REMARK    7  A    between atoms: C_16  and  C_17
REMARK                            x       y       z     vdW  Elec       q    Type
REMARK                         _______ _______ _______ _____ _____    ______ ____
ROOT
ATOM     12  C   UNL     1      -4.246   1.807  24.505  0.00  0.00    +0.048 C 
ATOM     13  C   UNL     1      -3.577   2.269  24.646  0.00  0.00    +0.031 C 
ATOM     14  C   UNL     1      -3.769   3.053  24.475  0.00  0.00    +0.095 C 
ATOM     24  C   UNL     1      -4.556   3.076  24.229  0.00  0.00    -0.013 C 
ATOM     25  C   UNL     1      -4.851   2.305  24.247  0.00  0.00    -0.025 C 
ENDROOT
BRANCH  12  11
ATOM      1  C   UNL     1      -5.289   0.956  25.692  0.00  0.00    +0.054 C 
ATOM      2  C   UNL     1      -4.780   0.598  25.150  0.00  0.00    +0.076 A 
ATOM      3  N   UNL     1      -4.661  -0.213  25.058  0.00  0.00    -0.174 NA
ATOM      4  N   UNL     1      -4.108  -0.323  24.455  0.00  0.00    -0.254 N 
ATOM      9  C   UNL     1      -3.886   0.419  24.175  0.00  0.00    +0.053 A 
ATOM     10  C   UNL     1      -3.343   0.567  23.572  0.00  0.00    +0.051 C 
ATOM     11  C   UNL     1      -4.301   0.989  24.604  0.00  0.00    +0.010 A 
BRANCH   4   5
ATOM      5  C   UNL     1      -3.828  -1.049  24.182  0.00  0.00    +0.143 C 
BRANCH   5   6
ATOM      6  C   UNL     1      -4.007  -1.742  24.592  0.00  0.00    +0.132 C 
BRANCH   6   7
ATOM      7  C   UNL     1      -3.638  -2.450  24.387  0.00  0.00    +0.075 C 
ATOM      8  N   UNL     1      -3.268  -3.159  24.182  0.00  0.00    -0.196 NA
ENDBRANCH   6   7
ENDBRANCH   5   6
ENDBRANCH   4   5
ENDBRANCH  12  11
BRANCH  14  15
ATOM     15  N   UNL     1      -3.262   3.701  24.539  0.00  0.00    -0.210 NA
BRANCH  15  16
ATOM     16  C   UNL     1      -2.752   3.763  25.185  0.00  0.00    +0.115 C 
BRANCH  16  17
ATOM     17  C   UNL     1      -2.057   4.203  25.121  0.00  0.00    -0.004 A 
ATOM     18  C   UNL     1      -2.087   5.027  25.151  0.00  0.00    -0.003 A 
ATOM     19  C   UNL     1      -1.393   5.468  25.087  0.00  0.00    +0.001 A 
ATOM     20  C   UNL     1      -0.668   5.085  24.993  0.00  0.00    +0.011 A 
ATOM     21  C   UNL     1      -0.639   4.261  24.963  0.00  0.00    +0.057 A 
ATOM     22 CL   UNL     1       0.087   3.878  24.869  0.00  0.00    -0.082 Cl
ATOM     23  C   UNL     1      -1.332   3.820  25.027  0.00  0.00    +0.009 A 
ENDBRANCH  16  17
ENDBRANCH  15  16
ENDBRANCH  14  15
TORSDOF 7
ENDMDL
MODEL 3
REMARK VINA RESULT:      -9.6      1.923      2.661
REMARK  Name = 
REMARK  7 active torsions:
REMARK  status: ('A' for Active; 'I' for Inactive)
REMARK    1  A    between atoms: N_4  and  C_5
REMARK    2  A    between atoms: C_5  and  C_6
REMARK    3  A    between atoms: C_6  and  C_7
REMARK    4  A    between atoms: C_11  and  C_12
REMARK    5  A    between atoms: C_14  and  N_15
REMARK    6  A    between atoms: N_15  and  C_16
REMARK    7  A    between atoms: C_16  and  C_17
REMARK                            x       y       z     vdW  Elec       q    Type
REMARK                         _______ _______ _______ _____ _____    ______ ____
ROOT
ATOM     12  C   UNL     1      -1.073   1.106  25.176  0.00  0.00    +0.048 C 
ATOM     13  C   UNL     1      -1.579   0.659  24.700  0.00  0.00    +0.031 C 
ATOM     14  C   UNL     1      -1.594  -0.110  24.998  0.00  0.00    +0.095 C 
ATOM     24  C   UNL     1      -1.098  -0.139  25.657  0.00  0.00    -0.013 C 
ATOM     25  C   UNL     1      -0.776   0.612  25.767  0.00  0.00    -0.025 C 
ENDROOT
BRANCH  12  11
ATOM      1  C   UNL     1       0.391   1.771  24.378  0.00  0.00    +0.054 C 
ATOM      2  C   UNL     1      -0.222   2.211  24.710  0.00  0.00    +0.076 A 
ATOM      3  N   UNL     1      -0.271   3.034  24.735  0.00  0.00    -0.174 NA
ATOM      4  N   UNL     1      -0.974   3.238  25.117  0.00  0.00    -0.254 N 
ATOM      9  C   UNL     1      -1.359   2.541  25.328  0.00  0.00    +0.053 A 
ATOM     10  C   UNL     1      -2.082   2.486  25.722  0.00  0.00    +0.051 C 
ATOM     11  C   UNL     1      -0.895   1.906  25.077  0.00  0.00    +0.010 A 
BRANCH   4   5
ATOM      5  C   UNL     1      -1.242   4.004  25.261  0.00  0.00    +0.143 C 
BRANCH   5   6
ATOM      6  C   UNL     1      -0.836   4.650  24.948  0.00  0.00    +0.132 C 
BRANCH   6   7
ATOM      7  C   UNL     1      -1.184   5.398  24.952  0.00  0.00    +0.075 C 
ATOM      8  N   UNL     1      -1.532   6.147  24.956  0.00  0.00    -0.196 NA
ENDBRANCH   6   7
ENDBRANCH   5   6
ENDBRANCH   4   5
ENDBRANCH  12  11
BRANCH  14  15
ATOM     15  N   UNL     1      -2.030  -0.740  24.690  0.00  0.00    -0.210 NA
BRANCH  15  16
ATOM     16  C   UNL     1      -2.728  -0.977  25.059  0.00  0.00    +0.115 C 
BRANCH  16  17
ATOM     17  C   UNL     1      -3.252  -1.480  24.667  0.00  0.00    -0.004 A 
ATOM     18  C   UNL     1      -3.862  -1.164  24.210  0.00  0.00    -0.003 A 
ATOM     19  C   UNL     1      -4.386  -1.668  23.818  0.00  0.00    +0.001 A 
ATOM     20  C   UNL     1      -4.298  -2.485  23.882  0.00  0.00    +0.011 A 
ATOM     21  C   UNL     1      -3.687  -2.800  24.338  0.00  0.00    +0.057 A 
ATOM     22 CL   UNL     1      -3.600  -3.618  24.402  0.00  0.00    -0.082 Cl
ATOM     23  C   UNL     1      -3.164  -2.298  24.730  0.00  0.00    +0.009 A 
ENDBRANCH  16  17
ENDBRANCH  15  16
ENDBRANCH  14  15
TORSDOF 7
ENDMDL
MODEL 4
REMARK VINA RESULT:      -9.4      3.078      4.703
REMARK  Name = 
REMARK  7 active torsions:
REMARK  status: ('A' for Active; 'I' for Inactive)
REMARK    1  A    between atoms: N_4  and  C_5
REMARK    2  A    between atoms: C_5  and  C_6
REMARK    3  A    between atoms: C_6  and  C_7
REMARK    4  A    between atoms: C_11  and  C_12
REMARK    5  A    between atoms: C_14  and  N_15
REMARK    6  A    between atoms: N_15  and  C_16
REMARK    7  A    between atoms: C_16  and  C_17
REMARK                            x       y       z     vdW  Elec       q    Type
REMARK                         _______ _______ _______ _____ _____    ______ ____
ROOT
ATOM     12  C   UNL     1      -2.222  -0.264  24.513  0.00  0.00    +0.048 C 
ATOM     13  C   UNL     1      -2.586   0.368  24.900  0.00  0.00    +0.031 C 
ATOM     14  C   UNL     1      -3.398   0.226  24.911  0.00  0.00    +0.095 C 
ATOM     24  C   UNL     1      -3.537  -0.493  24.532  0.00  0.00    -0.013 C 
ATOM     25  C   UNL     1      -2.810  -0.796  24.285  0.00  0.00    -0.025 C 
ENDROOT
BRANCH  12  11
ATOM      1  C   UNL     1      -1.160  -1.526  25.220  0.00  0.00    +0.054 C 
ATOM      2  C   UNL     1      -0.925  -0.929  24.702  0.00  0.00    +0.076 A 
ATOM      3  N   UNL     1      -0.160  -0.807  24.418  0.00  0.00    -0.174 NA
ATOM      4  N   UNL     1      -0.175  -0.151  23.917  0.00  0.00    -0.254 N 
ATOM      9  C   UNL     1      -0.949   0.132  23.891  0.00  0.00    +0.053 A 
ATOM     10  C   UNL     1      -1.214   0.781  23.457  0.00  0.00    +0.051 C 
ATOM     11  C   UNL     1      -1.412  -0.349  24.377  0.00  0.00    +0.010 A 
BRANCH   4   5
ATOM      5  C   UNL     1       0.470   0.165  23.513  0.00  0.00    +0.143 C 
BRANCH   5   6
ATOM      6  C   UNL     1       1.017  -0.336  23.151  0.00  0.00    +0.132 C 
BRANCH   6   7
ATOM      7  C   UNL     1       1.706  -0.025  22.821  0.00  0.00    +0.075 C 
ATOM      8  N   UNL     1       2.396   0.285  22.490  0.00  0.00    -0.196 NA
ENDBRANCH   6   7
ENDBRANCH   5   6
ENDBRANCH   4   5
ENDBRANCH  12  11
BRANCH  14  15
ATOM     15  N   UNL     1      -3.971   0.717  25.245  0.00  0.00    -0.210 NA
BRANCH  15  16
ATOM     16  C   UNL     1      -4.443   1.189  24.759  0.00  0.00    +0.115 C 
BRANCH  16  17
ATOM     17  C   UNL     1      -4.891   1.800  25.086  0.00  0.00    -0.004 A 
ATOM     18  C   UNL     1      -5.619   1.634  25.437  0.00  0.00    -0.003 A 
ATOM     19  C   UNL     1      -6.067   2.245  25.765  0.00  0.00    +0.001 A 
ATOM     20  C   UNL     1      -5.787   3.020  25.741  0.00  0.00    +0.011 A 
ATOM     21  C   UNL     1      -5.059   3.185  25.390  0.00  0.00    +0.057 A 
ATOM     22 CL   UNL     1      -4.779   3.961  25.366  0.00  0.00    -0.082 Cl
ATOM     23  C   UNL     1      -4.611   2.575  25.062  0.00  0.00    +0.009 A 
ENDBRANCH  16  17
ENDBRANCH  15  16
ENDBRANCH  14  15
TORSDOF 7
ENDMDL
MODEL 5
REMARK VINA RESULT:      -9.3      2.575      6.048
REMARK  Name = 
REMARK  7 active torsions:
REMARK  status: ('A' for Active; 'I' for Inactive)
REMARK    1  A    between atoms: N_4  and  C_5
REMARK    2  A    between atoms: C_5  and  C_6
REMARK    3  A    between atoms: C_6  and  C_7
REMARK    4  A    between atoms: C_11  and  C_12
REMARK    5  A    between atoms: C_14  and  N_15
REMARK    6  A    between atoms: N_15  and  C_16
REMARK    7  A    between atoms: C_16  and  C_17
REMARK                            x       y       z     vdW  Elec       q    Type
REMARK                         _______ _______ _______ _____ _____    ______ ____
ROOT
ATOM     12  C   UNL     1      -1.324   0.250  25.247  0.00  0.00    +0.048 C 
ATOM     13  C   UNL     1      -1.520   0.972  24.897  0.00  0.00    +0.031 C 
ATOM     14  C   UNL     1      -1.096   1.565  25.282  0.00  0.00    +0.095 C 
ATOM     24  C   UNL     1      -0.637   1.211  25.870  0.00  0.00    -0.013 C 
ATOM     25  C   UNL     1      -0.778   0.399  25.849  0.00  0.00    -0.025 C 
ENDROOT
BRANCH  12  11
ATOM      1  C   UNL     1      -0.404  -1.062  24.439  0.00  0.00    +0.054 C 
ATOM      2  C   UNL     1      -1.197  -1.092  24.662  0.00  0.00    +0.076 A 
ATOM      3  N   UNL     1      -1.708  -1.731  24.552  0.00  0.00    -0.174 NA
ATOM      4  N   UNL     1      -2.447  -1.522  24.856  0.00  0.00    -0.254 N 
ATOM      9  C   UNL     1      -2.392  -0.755  25.153  0.00  0.00    +0.053 A 
ATOM     10  C   UNL     1      -3.002  -0.328  25.508  0.00  0.00    +0.051 C 
ATOM     11  C   UNL     1      -1.620  -0.489  25.033  0.00  0.00    +0.010 A 
BRANCH   4   5
ATOM      5  C   UNL     1      -3.120  -1.998  24.861  0.00  0.00    +0.143 C 
BRANCH   5   6
ATOM      6  C   UNL     1      -3.184  -2.629  24.333  0.00  0.00    +0.132 C 
BRANCH   6   7
ATOM      7  C   UNL     1      -3.920  -2.833  24.022  0.00  0.00    +0.075 C 
ATOM      8  N   UNL     1      -4.657  -3.038  23.709  0.00  0.00    -0.196 NA
ENDBRANCH   6   7
ENDBRANCH   5   6
ENDBRANCH   4   5
ENDBRANCH  12  11
BRANCH  14  15
ATOM     15  N   UNL     1      -1.125   2.372  25.110  0.00  0.00    -0.210 NA
BRANCH  15  16
ATOM     16  C   UNL     1      -1.244   2.919  25.716  0.00  0.00    +0.115 C 
BRANCH  16  17
ATOM     17  C   UNL     1      -1.427   3.703  25.534  0.00  0.00    -0.004 A 
ATOM     18  C   UNL     1      -2.168   4.008  25.729  0.00  0.00    -0.003 A 
ATOM     19  C   UNL     1      -2.352   4.792  25.547  0.00  0.00    +0.001 A 
ATOM     20  C   UNL     1      -1.795   5.269  25.170  0.00  0.00    +0.011 A 
ATOM     21  C   UNL     1      -1.054   4.963  24.975  0.00  0.00    +0.057 A 
ATOM     22 CL   UNL     1      -0.496   5.441  24.598  0.00  0.00    -0.082 Cl
ATOM     23  C   UNL     1      -0.870   4.180  25.157  0.00  0.00    +0.009 A 
ENDBRANCH  16  17
ENDBRANCH  15  16
ENDBRANCH  14  15
TORSDOF 7
ENDMDL
MODEL 6
REMARK VINA RESULT:      -9.0      2.902      4.620
REMARK  Name = 
REMARK  7 active torsions:
REMARK  status: ('A' for Active; 'I' for Inactive)
REMARK    1  A    between atoms: N_4  and  C_5
REMARK    2  A    between atoms: C_5  and  C_6
REMARK    3  A    between atoms: C_6  and  C_7
REMARK    4  A    between atoms: C_11  and  C_12
REMARK    5  A    between atoms: C_14  and  N_15
REMARK    6  A    between atoms: N_15  and  C_16
REMARK    7  A    between atoms: C_16  and  C_17
REMARK                            x       y       z     vdW  Elec       q    Type
REMARK                         _______ _______ _______ _____ _____    ______ ____
ROOT
ATOM     12  C   UNL     1      -1.222   3.189  25.217  0.00  0.00    +0.048 C 
ATOM     13  C   UNL     1      -2.003   2.951  25.339  0.00  0.00    +0.031 C 
ATOM     14  C   UNL     1      -2.454   3.625  25.490  0.00  0.00    +0.095 C 
ATOM     24  C   UNL     1      -1.952   4.280  25.461  0.00  0.00    -0.013 C 
ATOM     25  C   UNL     1      -1.191   4.010  25.292  0.00  0.00    -0.025 C 
ENDROOT
BRANCH  12  11
ATOM      1  C   UNL     1      -0.030   2.564  26.405  0.00  0.00    +0.054 C 
ATOM      2  C   UNL     1      -0.036   2.406  25.595  0.00  0.00    +0.076 A 
ATOM      3  N   UNL     1       0.504   1.933  25.190  0.00  0.00    -0.174 NA
ATOM      4  N   UNL     1       0.290   1.928  24.392  0.00  0.00    -0.254 N 
ATOM      9  C   UNL     1      -0.382   2.397  24.306  0.00  0.00    +0.053 A 
ATOM     10  C   UNL     1      -0.782   2.546  23.600  0.00  0.00    +0.051 C 
ATOM     11  C   UNL     1      -0.584   2.693  25.049  0.00  0.00    +0.010 A 
BRANCH   4   5
ATOM      5  C   UNL     1       0.681   1.524  23.789  0.00  0.00    +0.143 C 
BRANCH   5   6
ATOM      6  C   UNL     1       0.784   0.706  23.839  0.00  0.00    +0.132 C 
BRANCH   6   7
ATOM      7  C   UNL     1       1.172   0.302  23.234  0.00  0.00    +0.075 C 
ATOM      8  N   UNL     1       1.560  -0.103  22.628  0.00  0.00    -0.196 NA
ENDBRANCH   6   7
ENDBRANCH   5   6
ENDBRANCH   4   5
ENDBRANCH  12  11
BRANCH  14  15
ATOM     15  N   UNL     1      -3.265   3.641  25.642  0.00  0.00    -0.210 NA
BRANCH  15  16
ATOM     16  C   UNL     1      -3.802   3.529  25.027  0.00  0.00    +0.115 C 
BRANCH  16  17
ATOM     17  C   UNL     1      -4.554   3.229  25.186  0.00  0.00    -0.004 A 
ATOM     18  C   UNL     1      -5.097   3.683  25.610  0.00  0.00    -0.003 A 
ATOM     19  C   UNL     1      -5.850   3.383  25.770  0.00  0.00    +0.001 A 
ATOM     20  C   UNL     1      -6.058   2.630  25.505  0.00  0.00    +0.011 A 
ATOM     21  C   UNL     1      -5.514   2.177  25.081  0.00  0.00    +0.057 A 
ATOM     22 CL   UNL     1      -5.724   1.423  24.816  0.00  0.00    -0.082 Cl
ATOM     23  C   UNL     1      -4.763   2.476  24.922  0.00  0.00    +0.009 A 
ENDBRANCH  16  17
ENDBRANCH  15  16
ENDBRANCH  14  15
TORSDOF 7
ENDMDL
MODEL 7
REMARK VINA RESULT:      -8.6      1.480      2.607
REMARK  Name = 
REMARK  7 active torsions:
REMARK  status: ('A' for Active; 'I' for Inactive)
REMARK    1  A    between atoms: N_4  and  C_5
REMARK    2  A    between atoms: C_5  and  C_6
REMARK    3  A    between atoms: C_6  and  C_7
REMARK    4  A    between atoms: C_11  and  C_12
REMARK    5  A    between atoms: C_14  and  N_15
REMARK    6  A    between atoms: N_15  and  C_16
REMARK    7  A    between atoms: C_16  and  C_17
REMARK                            x       y       z     vdW  Elec       q    Type
REMARK                         _______ _______ _______ _____ _____    ______ ____
ROOT
ATOM     12  C   UNL     1      -2.088   1.993  24.529  0.00  0.00    +0.048 C 
ATOM     13  C   UNL     1      -2.176   1.191  24.706  0.00  0.00    +0.031 C 
ATOM     14  C   UNL     1      -1.603   0.773  24.284  0.00  0.00    +0.095 C 
ATOM     24  C   UNL     1      -1.161   1.316  23.847  0.00  0.00    -0.013 C 
ATOM     25  C   UNL     1      -1.461   2.070  23.998  0.00  0.00    -0.025 C 
ENDROOT
BRANCH  12  11
ATOM      1  C   UNL     1      -1.564   3.199  25.750  0.00  0.00    +0.054 C 
ATOM      2  C   UNL     1      -2.306   3.163  25.391  0.00  0.00    +0.076 A 
ATOM      3  N   UNL     1      -2.937   3.675  25.531  0.00  0.00    -0.174 NA
ATOM      4  N   UNL     1      -3.569   3.437  25.056  0.00  0.00    -0.254 N 
ATOM      9  C   UNL     1      -3.328   2.778  24.623  0.00  0.00    +0.053 A 
ATOM     10  C   UNL     1      -3.786   2.362  24.079  0.00  0.00    +0.051 C 
ATOM     11  C   UNL     1      -2.547   2.609  24.830  0.00  0.00    +0.010 A 
BRANCH   4   5
ATOM      5  C   UNL     1      -4.311   3.795  25.021  0.00  0.00    +0.143 C 
BRANCH   5   6
ATOM      6  C   UNL     1      -4.786   3.828  25.695  0.00  0.00    +0.132 C 
BRANCH   6   7
ATOM      7  C   UNL     1      -5.523   4.197  25.663  0.00  0.00    +0.075 C 
ATOM      8  N   UNL     1      -6.261   4.566  25.631  0.00  0.00    -0.196 NA
ENDBRANCH   6   7
ENDBRANCH   5   6
ENDBRANCH   4   5
ENDBRANCH  12  11
BRANCH  14  15
ATOM     15  N   UNL     1      -1.491  -0.044  24.297  0.00  0.00    -0.210 NA
BRANCH  15  16
ATOM     16  C   UNL     1      -1.881  -0.504  24.860  0.00  0.00    +0.115 C 
BRANCH  16  17
ATOM     17  C   UNL     1      -1.995  -1.311  24.726  0.00  0.00    -0.004 A 
ATOM     18  C   UNL     1      -1.343  -1.811  24.648  0.00  0.00    -0.003 A 
ATOM     19  C   UNL     1      -1.456  -2.618  24.514  0.00  0.00    +0.001 A 
ATOM     20  C   UNL     1      -2.221  -2.923  24.459  0.00  0.00    +0.011 A 
ATOM     21  C   UNL     1      -2.872  -2.422  24.537  0.00  0.00    +0.057 A 
ATOM     22 CL   UNL     1      -3.636  -2.729  24.481  0.00  0.00    -0.082 Cl
ATOM     23  C   UNL     1      -2.759  -1.617  24.671  0.00  0.00    +0.009 A 
ENDBRANCH  16  17
ENDBRANCH  15  16
ENDBRANCH  14  15
TORSDOF 7
ENDMDL
