MODEL 1
REMARK VINA RESULT:     -12.0      0.000      0.000
REMARK  Name = 
REMARK  5 active torsions:
REMARK  status: ('A' for Active; 'I' for Inactive)
REMARK    1  A    between atoms: N_3  and  C_4
REMARK    2  A    between atoms: C_9  and  C_10
REMARK    3  A    between atoms: C_10  and  C_11
REMARK    4  A    between atoms: C_11  and  C_12
REMARK    5  A    between atoms: N_24  and  C_25
REMARK                            x       y       z     vdW  Elec       q    Type
REMARK                         _______ _______ _______ _____ _____    ______ ____
ROOT
ATOM      4  C   UNL     1      -3.478   3.068  25.262  0.00  0.00    +0.115 C 
ATOM      5  C   UNL     1      -4.269   3.282  25.174  0.00  0.00    +0.049 C 
ATOM      6  C   UNL     1      -4.714   2.591  25.106  0.00  0.00    +0.138 C 
ATOM      7  N   UNL     1      -4.197   1.950  25.151  0.00  0.00    -0.265 NA
ATOM      8  C   UNL     1      -3.433   2.244  25.248  0.00  0.00    +0.094 C 
ATOM      9  C   UNL     1      -4.489   1.180  25.098  0.00  0.00    +0.080 C 
ATOM     20  C   UNL     1      -5.298   1.051  25.000  0.00  0.00    +0.131 C 
ATOM     21  N   UNL     1      -5.815   1.693  24.955  0.00  0.00    -0.203 NA
ATOM     22  C   UNL     1      -5.523   2.462  25.007  0.00  0.00    +0.256 C 
ATOM     23  O   UNL     1      -6.040   3.104  24.962  0.00  0.00    -0.272 OA
ENDROOT
BRANCH   4   3
ATOM      1  O   UNL     1      -3.303   3.933  26.657  0.00  0.00    -0.249 OA
ATOM      2  C   UNL     1      -2.755   4.020  26.047  0.00  0.00    +0.343 C 
ATOM      3  N   UNL     1      -2.842   3.587  25.349  0.00  0.00    -0.187 NA
ATOM     24  N   UNL     1      -2.119   4.538  26.134  0.00  0.00    -0.161 NA
BRANCH  24  25
ATOM     25  C   UNL     1      -1.571   4.624  25.524  0.00  0.00    +0.075 A 
ATOM     26  C   UNL     1      -1.606   5.281  25.027  0.00  0.00    +0.017 A 
ATOM     27  C   UNL     1      -1.057   5.367  24.416  0.00  0.00    +0.001 A 
ATOM     28  C   UNL     1      -0.474   4.795  24.303  0.00  0.00    +0.000 A 
ATOM     29  C   UNL     1      -0.438   4.137  24.800  0.00  0.00    +0.001 A 
ATOM     30  C   UNL     1      -0.987   4.052  25.411  0.00  0.00    +0.017 A 
ENDBRANCH  24  25
ENDBRANCH   4   3
BRANCH   9  10
ATOM     10  C   UNL     1      -3.972   0.539  25.143  0.00  0.00    +0.027 C 
BRANCH  10  11
ATOM     11  C   UNL     1      -4.242  -0.222  24.975  0.00  0.00    +0.087 C 
BRANCH  11  12
ATOM     12  C   UNL     1      -3.822  -0.879  25.244  0.00  0.00    +0.226 C 
ATOM     13  O   UNL     1      -3.402  -0.837  25.952  0.00  0.00    -0.275 OA
ATOM     14  N   UNL     1      -3.823  -1.577  24.806  0.00  0.00    -0.280 N 
ATOM     15  C   UNL     1      -3.403  -2.234  25.076  0.00  0.00    +0.093 C 
ATOM     16  C   UNL     1      -3.404  -2.934  24.637  0.00  0.00    +0.022 C 
ATOM     17  C   UNL     1      -3.825  -2.975  23.929  0.00  0.00    +0.004 C 
ATOM     18  C   UNL     1      -4.245  -2.318  23.659  0.00  0.00    +0.022 C 
ATOM     19  C   UNL     1      -4.244  -1.620  24.098  0.00  0.00    +0.093 C 
ENDBRANCH  11  12
ENDBRANCH  10  11
ENDBRANCH   9  10
TORSDOF 5
ENDMDL
MODEL 2
REMARK VINA RESULT:     -11.2      1.091      5.490
REMARK  Name = 
REMARK  5 active torsions:
REMARK  status: ('A' for Active; 'I' for Inactive)
REMARK    1  A    between atoms: N_3  and  C_4
REMARK    2  A    between atoms: C_9  and  C_10
REMARK    3  A    between atoms: C_10  and  C_11
REMARK    4  A    between atoms: C_11  and  C_12
REMARK    5  A    between atoms: N_24  and  C_25
REMARK                            x       y       z     vdW  Elec       q    Type
REMARK                         _______ _______ _______ _____ _____    ______ ____
ROOT
ATOM      4  C   UNL     1      -3.979   0.062  24.849  0.00  0.00    +0.115 C 
ATOM      5  C   UNL     1      -4.746   0.340  24.969  0.00  0.00    +0.049 C 
ATOM      6  C   UNL     1      -4.752   1.149  24.811  0.00  0.00    +0.138 C 
ATOM      7  N   UNL     1      -3.988   1.372  24.593  0.00  0.00    -0.265 NA
ATOM      8  C   UNL     1      -3.510   0.701  24.617  0.00  0.00    +0.094 C 
ATOM      9  C   UNL     1      -3.828   2.159  24.402  0.00  0.00    +0.080 C 
ATOM     20  C   UNL     1      -4.429   2.721  24.429  0.00  0.00    +0.131 C 
ATOM     21  N   UNL     1      -5.193   2.498  24.646  0.00  0.00    -0.203 NA
ATOM     22  C   UNL     1      -5.355   1.712  24.837  0.00  0.00    +0.256 C 
ATOM     23  O   UNL     1      -6.119   1.489  25.055  0.00  0.00    -0.272 OA
ENDROOT
BRANCH   4   3
ATOM      1  O   UNL     1      -3.858  -0.587  26.361  0.00  0.00    -0.249 OA
ATOM      2  C   UNL     1      -3.664  -1.042  25.701  0.00  0.00    +0.343 C 
ATOM      3  N   UNL     1      -3.724  -0.717  24.944  0.00  0.00    -0.187 NA
ATOM     24  N   UNL     1      -3.409  -1.821  25.796  0.00  0.00    -0.161 NA
BRANCH  24  25
ATOM     25  C   UNL     1      -3.215  -2.274  25.134  0.00  0.00    +0.075 A 
ATOM     26  C   UNL     1      -3.803  -2.687  24.730  0.00  0.00    +0.017 A 
ATOM     27  C   UNL     1      -3.609  -3.141  24.068  0.00  0.00    +0.001 A 
ATOM     28  C   UNL     1      -2.826  -3.182  23.812  0.00  0.00    +0.000 A 
ATOM     29  C   UNL     1      -2.237  -2.768  24.217  0.00  0.00    +0.001 A 
ATOM     30  C   UNL     1      -2.432  -2.315  24.878  0.00  0.00    +0.017 A 
ENDBRANCH  24  25
ENDBRANCH   4   3
BRANCH   9  10
ATOM     10  C   UNL     1      -3.064   2.382  24.185  0.00  0.00    +0.027 C 
BRANCH  10  11
ATOM     11  C   UNL     1      -2.722   3.058  24.512  0.00  0.00    +0.087 C 
BRANCH  11  12
ATOM     12  C   UNL     1      -1.929   3.232  24.365  0.00  0.00    +0.226 C 
ATOM     13  O   UNL     1      -1.456   2.690  23.963  0.00  0.00    -0.275 OA
ATOM     14  N   UNL     1      -1.611   3.949  24.619  0.00  0.00    -0.280 N 
ATOM     15  C   UNL     1      -0.819   4.124  24.472  0.00  0.00    +0.093 C 
ATOM     16  C   UNL     1      -0.500   4.842  24.726  0.00  0.00    +0.022 C 
ATOM     17  C   UNL     1      -0.974   5.384  25.128  0.00  0.00    +0.004 C 
ATOM     18  C   UNL     1      -1.767   5.209  25.275  0.00  0.00    +0.022 C 
ATOM     19  C   UNL     1      -2.085   4.493  25.020  0.00  0.00    +0.093 C 
ENDBRANCH  11  12
ENDBRANCH  10  11
ENDBRANCH   9  10
TORSDOF 5
ENDMDL
MODEL 3
REMARK VINA RESULT:     -11.2      2.384      6.327
REMARK  Name = 
REMARK  5 active torsions:
REMARK  status: ('A' for Active; 'I' for Inactive)
REMARK    1  A    between atoms: N_3  and  C_4
REMARK    2  A    between atoms: C_9  and  C_10
REMARK    3  A    between atoms: C_10  and  C_11
REMARK    4  A    between atoms: C_11  and  C_12
REMARK    5  A    between atoms: N_24  and  C_25
REMARK                            x       y       z     vdW  Elec       q    Type
REMARK                         _______ _______ _______ _____ _____    ______ ____
ROOT
ATOM      4  C   UNL     1      -1.246  -0.419  24.468  0.00  0.00    +0.115 C 
ATOM      5  C   UNL     1      -0.602  -0.511  23.961  0.00  0.00    +0.049 C 
ATOM      6  C   UNL     1      -0.148   0.176  23.999  0.00  0.00    +0.138 C 
ATOM      7  N   UNL     1      -0.511   0.693  24.529  0.00  0.00    -0.265 NA
ATOM      8  C   UNL     1      -1.190   0.326  24.819  0.00  0.00    +0.094 C 
ATOM      9  C   UNL     1      -0.175   1.432  24.678  0.00  0.00    +0.080 C 
ATOM     20  C   UNL     1       0.522   1.654  24.298  0.00  0.00    +0.131 C 
ATOM     21  N   UNL     1       0.885   1.136  23.768  0.00  0.00    -0.203 NA
ATOM     22  C   UNL     1       0.550   0.397  23.618  0.00  0.00    +0.256 C 
ATOM     23  O   UNL     1       0.913  -0.120  23.088  0.00  0.00    -0.272 OA
ENDROOT
BRANCH   4   3
ATOM      1  O   UNL     1      -1.101  -1.507  25.700  0.00  0.00    -0.249 OA
ATOM      2  C   UNL     1      -1.770  -1.518  25.218  0.00  0.00    +0.343 C 
ATOM      3  N   UNL     1      -1.842  -0.973  24.601  0.00  0.00    -0.187 NA
ATOM     24  N   UNL     1      -2.366  -2.072  25.351  0.00  0.00    -0.161 NA
BRANCH  24  25
ATOM     25  C   UNL     1      -3.035  -2.082  24.867  0.00  0.00    +0.075 A 
ATOM     26  C   UNL     1      -3.619  -1.508  24.959  0.00  0.00    +0.017 A 
ATOM     27  C   UNL     1      -4.288  -1.518  24.476  0.00  0.00    +0.001 A 
ATOM     28  C   UNL     1      -4.372  -2.103  23.900  0.00  0.00    +0.000 A 
ATOM     29  C   UNL     1      -3.787  -2.679  23.808  0.00  0.00    +0.001 A 
ATOM     30  C   UNL     1      -3.119  -2.668  24.292  0.00  0.00    +0.017 A 
ENDBRANCH  24  25
ENDBRANCH   4   3
BRANCH   9  10
ATOM     10  C   UNL     1      -0.538   1.950  25.208  0.00  0.00    +0.027 C 
BRANCH  10  11
ATOM     11  C   UNL     1      -0.591   2.754  25.030  0.00  0.00    +0.087 C 
BRANCH  11  12
ATOM     12  C   UNL     1      -1.170   3.219  25.389  0.00  0.00    +0.226 C 
ATOM     13  O   UNL     1      -1.706   2.878  25.914  0.00  0.00    -0.275 OA
ATOM     14  N   UNL     1      -1.213   4.025  25.221  0.00  0.00    -0.280 N 
ATOM     15  C   UNL     1      -1.793   4.490  25.579  0.00  0.00    +0.093 C 
ATOM     16  C   UNL     1      -1.836   5.297  25.411  0.00  0.00    +0.022 C 
ATOM     17  C   UNL     1      -1.300   5.638  24.885  0.00  0.00    +0.004 C 
ATOM     18  C   UNL     1      -0.720   5.173  24.527  0.00  0.00    +0.022 C 
ATOM     19  C   UNL     1      -0.677   4.367  24.695  0.00  0.00    +0.093 C 
ENDBRANCH  11  12
ENDBRANCH  10  11
ENDBRANCH   9  10
TORSDOF 5
ENDMDL
MODEL 4
REMARK VINA RESULT:     -11.1      2.673      3.634
REMARK  Name = 
REMARK  5 active torsions:
REMARK  status: ('A' for Active; 'I' for Inactive)
REMARK    1  A    between atoms: N_3  and  C_4
REMARK    2  A    between atoms: C_9  and  C_10
REMARK    3  A    between atoms: C_10  and  C_11
REMARK    4  A    between atoms: C_11  and  C_12
REMARK    5  A    between atoms: N_24  and  C_25
REMARK                            x       y       z     vdW  Elec       q    Type
REMARK                         _______ _______ _______ _____ _____    ______ ____
ROOT
ATOM      4  C   UNL     1      -0.382   1.667  24.699  0.00  0.00    +0.115 C 
ATOM      5  C   UNL     1       0.229   1.583  24.151  0.00  0.00    +0.049 C 
ATOM      6  C   UNL     1       0.278   0.786  23.944  0.00  0.00    +0.138 C 
ATOM      7  N   UNL     1      -0.303   0.377  24.364  0.00  0.00    -0.265 NA
ATOM      8  C   UNL     1      -0.711   0.921  24.831  0.00  0.00    +0.094 C 
ATOM      9  C   UNL     1      -0.385  -0.438  24.267  0.00  0.00    +0.080 C 
ATOM     20  C   UNL     1       0.113  -0.844  23.751  0.00  0.00    +0.131 C 
ATOM     21  N   UNL     1       0.694  -0.436  23.331  0.00  0.00    -0.203 NA
ATOM     22  C   UNL     1       0.777   0.379  23.427  0.00  0.00    +0.256 C 
ATOM     23  O   UNL     1       1.357   0.788  23.007  0.00  0.00    -0.272 OA
ENDROOT
BRANCH   4   3
ATOM      1  O   UNL     1       0.429   2.248  26.013  0.00  0.00    -0.249 OA
ATOM      2  C   UNL     1      -0.216   2.663  25.711  0.00  0.00    +0.343 C 
ATOM      3  N   UNL     1      -0.622   2.372  25.053  0.00  0.00    -0.187 NA
ATOM     24  N   UNL     1      -0.457   3.369  26.065  0.00  0.00    -0.161 NA
BRANCH  24  25
ATOM     25  C   UNL     1      -1.103   3.783  25.761  0.00  0.00    +0.075 A 
ATOM     26  C   UNL     1      -1.866   3.600  26.014  0.00  0.00    +0.017 A 
ATOM     27  C   UNL     1      -2.512   4.014  25.710  0.00  0.00    +0.001 A 
ATOM     28  C   UNL     1      -2.393   4.612  25.154  0.00  0.00    +0.000 A 
ATOM     29  C   UNL     1      -1.629   4.795  24.901  0.00  0.00    +0.001 A 
ATOM     30  C   UNL     1      -0.984   4.380  25.205  0.00  0.00    +0.017 A 
ENDBRANCH  24  25
ENDBRANCH   4   3
BRANCH   9  10
ATOM     10  C   UNL     1      -0.965  -0.847  24.687  0.00  0.00    +0.027 C 
BRANCH  10  11
ATOM     11  C   UNL     1      -1.560  -1.251  24.283  0.00  0.00    +0.087 C 
BRANCH  11  12
ATOM     12  C   UNL     1      -1.962  -1.870  24.651  0.00  0.00    +0.226 C 
ATOM     13  O   UNL     1      -1.574  -2.344  25.202  0.00  0.00    -0.275 OA
ATOM     14  N   UNL     1      -2.753  -2.014  24.467  0.00  0.00    -0.280 N 
ATOM     15  C   UNL     1      -3.155  -2.633  24.836  0.00  0.00    +0.093 C 
ATOM     16  C   UNL     1      -3.947  -2.778  24.652  0.00  0.00    +0.022 C 
ATOM     17  C   UNL     1      -4.335  -2.304  24.100  0.00  0.00    +0.004 C 
ATOM     18  C   UNL     1      -3.933  -1.685  23.732  0.00  0.00    +0.022 C 
ATOM     19  C   UNL     1      -3.143  -1.540  23.916  0.00  0.00    +0.093 C 
ENDBRANCH  11  12
ENDBRANCH  10  11
ENDBRANCH   9  10
TORSDOF 5
ENDMDL
MODEL 5
REMARK VINA RESULT:     -10.3      1.992      3.674
REMARK  Name = 
REMARK  5 active torsions:
REMARK  status: ('A' for Active; 'I' for Inactive)
REMARK    1  A    between atoms: N_3  and  C_4
REMARK    2  A    between atoms: C_9  and  C_10
REMARK    3  A    between atoms: C_10  and  C_11
REMARK    4  A    between atoms: C_11  and  C_12
REMARK    5  A    between atoms: N_24  and  C_25
REMARK                            x       y       z     vdW  Elec       q    Type
REMARK                         _______ _______ _______ _____ _____    ______ ____
ROOT
ATOM      4  C   UNL     1      -2.542   2.307  25.018  0.00  0.00    +0.115 C 
ATOM      5  C   UNL     1      -1.941   2.760  25.355  0.00  0.00    +0.049 C 
ATOM      6  C   UNL     1      -1.240   2.329  25.305  0.00  0.00    +0.138 C 
ATOM      7  N   UNL     1      -1.408   1.610  24.936  0.00  0.00    -0.265 NA
ATOM      8  C   UNL     1      -2.213   1.596  24.759  0.00  0.00    +0.094 C 
ATOM      9  C   UNL     1      -0.805   1.061  24.810  0.00  0.00    +0.080 C 
ATOM     20  C   UNL     1      -0.035   1.230  25.052  0.00  0.00    +0.131 C 
ATOM     21  N   UNL     1       0.133   1.948  25.421  0.00  0.00    -0.203 NA
ATOM     22  C   UNL     1      -0.469   2.498  25.547  0.00  0.00    +0.256 C 
ATOM     23  O   UNL     1      -0.301   3.217  25.916  0.00  0.00    -0.272 OA
ENDROOT
BRANCH   4   3
ATOM      1  O   UNL     1      -2.996   3.426  23.893  0.00  0.00    -0.249 OA
ATOM      2  C   UNL     1      -3.562   3.087  24.388  0.00  0.00    +0.343 C 
ATOM      3  N   UNL     1      -3.335   2.527  24.951  0.00  0.00    -0.187 NA
ATOM     24  N   UNL     1      -4.355   3.306  24.321  0.00  0.00    -0.161 NA
BRANCH  24  25
ATOM     25  C   UNL     1      -4.920   2.966  24.817  0.00  0.00    +0.075 A 
ATOM     26  C   UNL     1      -5.123   3.335  25.526  0.00  0.00    +0.017 A 
ATOM     27  C   UNL     1      -5.688   2.994  26.022  0.00  0.00    +0.001 A 
ATOM     28  C   UNL     1      -6.050   2.285  25.808  0.00  0.00    +0.000 A 
ATOM     29  C   UNL     1      -5.847   1.915  25.098  0.00  0.00    +0.001 A 
ATOM     30  C   UNL     1      -5.282   2.256  24.603  0.00  0.00    +0.017 A 
ENDBRANCH  24  25
ENDBRANCH   4   3
BRANCH   9  10
ATOM     10  C   UNL     1      -0.973   0.342  24.442  0.00  0.00    +0.027 C 
BRANCH  10  11
ATOM     11  C   UNL     1      -1.132  -0.328  24.896  0.00  0.00    +0.087 C 
BRANCH  11  12
ATOM     12  C   UNL     1      -1.161  -1.071  24.540  0.00  0.00    +0.226 C 
ATOM     13  O   UNL     1      -0.558  -1.307  24.029  0.00  0.00    -0.275 OA
ATOM     14  N   UNL     1      -1.792  -1.578  24.695  0.00  0.00    -0.280 N 
ATOM     15  C   UNL     1      -1.821  -2.322  24.339  0.00  0.00    +0.093 C 
ATOM     16  C   UNL     1      -2.453  -2.830  24.494  0.00  0.00    +0.022 C 
ATOM     17  C   UNL     1      -3.055  -2.593  25.006  0.00  0.00    +0.004 C 
ATOM     18  C   UNL     1      -3.026  -1.850  25.362  0.00  0.00    +0.022 C 
ATOM     19  C   UNL     1      -2.395  -1.343  25.207  0.00  0.00    +0.093 C 
ENDBRANCH  11  12
ENDBRANCH  10  11
ENDBRANCH   9  10
TORSDOF 5
ENDMDL
