MODEL 1
REMARK VINA RESULT:     -12.3      0.000      0.000
REMARK  Name = 
REMARK  6 active torsions:
REMARK  status: ('A' for Active; 'I' for Inactive)
REMARK    1  A    between atoms: C_2  and  C_4
REMARK    2  A    between atoms: N_7  and  C_10
REMARK    3  A    between atoms: C_12  and  C_16
REMARK    4  A    between atoms: C_19  and  C_21
REMARK    5  A    between atoms: N_25  and  C_26
REMARK    6  A    between atoms: C_26  and  C_27
REMARK                            x       y       z     vdW  Elec       q    Type
REMARK                         _______ _______ _______ _____ _____    ______ ____
ROOT
ATOM     16  C   UNL     1      -4.025   2.660  24.579  0.00  0.00    +0.203 A 
ATOM     17  N   UNL     1      -4.124   3.158  23.929  0.00  0.00    -0.056 NA
ATOM     18  O   UNL     1      -3.544   3.743  23.967  0.00  0.00    -0.336 OA
ATOM     19  C   UNL     1      -3.088   3.608  24.640  0.00  0.00    +0.251 A 
ATOM     20  N   UNL     1      -3.385   2.938  25.019  0.00  0.00    -0.190 NA
ENDROOT
BRANCH  16  12
ATOM     10  C   UNL     1      -4.629   0.582  24.870  0.00  0.00    +0.132 A 
ATOM     11  C   UNL     1      -4.168   1.242  24.690  0.00  0.00    +0.037 A 
ATOM     12  C   UNL     1      -4.486   2.000  24.759  0.00  0.00    +0.043 A 
ATOM     13  C   UNL     1      -5.268   2.097  25.009  0.00  0.00    +0.024 A 
ATOM     14  C   UNL     1      -5.729   1.437  25.188  0.00  0.00    +0.100 A 
ATOM     15  N   UNL     1      -5.409   0.680  25.119  0.00  0.00    -0.229 NA
BRANCH  10   7
ATOM      4  C   UNL     1      -3.669  -1.690  24.659  0.00  0.00    +0.083 C 
ATOM      5  C   UNL     1      -3.585  -1.270  25.365  0.00  0.00    +0.031 C 
ATOM      6  C   UNL     1      -3.905  -0.513  25.434  0.00  0.00    +0.093 C 
ATOM      7  N   UNL     1      -4.309  -0.175  24.800  0.00  0.00    -0.293 N 
ATOM      8  C   UNL     1      -4.393  -0.595  24.095  0.00  0.00    +0.093 C 
ATOM      9  C   UNL     1      -4.074  -1.352  24.024  0.00  0.00    +0.031 C 
BRANCH   4   2
ATOM      1  N   UNL     1      -2.534  -2.557  24.637  0.00  0.00    -0.088 NA
ATOM      2  C   UNL     1      -3.350  -2.447  24.588  0.00  0.00    +0.260 C 
ATOM      3  O   UNL     1      -3.848  -3.095  24.469  0.00  0.00    -0.272 OA
ENDBRANCH   4   2
ENDBRANCH  10   7
ENDBRANCH  16  12
BRANCH  19  21
ATOM     21  C   UNL     1      -2.446   4.062  24.890  0.00  0.00    +0.138 C 
ATOM     22  C   UNL     1      -2.469   4.860  25.098  0.00  0.00    +0.027 C 
ATOM     23  C   UNL     1      -1.706   5.089  25.313  0.00  0.00    +0.019 C 
ATOM     24  C   UNL     1      -1.212   4.433  25.238  0.00  0.00    +0.073 C 
ATOM     25  N   UNL     1      -1.669   3.798  24.977  0.00  0.00    -0.262 NA
BRANCH  25  26
ATOM     26  C   UNL     1      -1.397   3.033  24.828  0.00  0.00    +0.106 C 
BRANCH  26  27
ATOM     27  C   UNL     1      -0.719   2.756  25.206  0.00  0.00    +0.023 A 
ATOM     28  C   UNL     1      -0.627   2.647  26.019  0.00  0.00    +0.004 A 
ATOM     29  C   UNL     1       0.136   2.363  26.153  0.00  0.00    +0.007 A 
ATOM     30  C   UNL     1       0.515   2.296  25.424  0.00  0.00    +0.035 A 
ATOM     31  S   UNL     1      -0.012   2.539  24.839  0.00  0.00    -0.089 S 
ENDBRANCH  26  27
ENDBRANCH  25  26
ENDBRANCH  19  21
TORSDOF 6
ENDMDL
MODEL 2
REMARK VINA RESULT:     -12.0      1.556      4.912
REMARK  Name = 
REMARK  6 active torsions:
REMARK  status: ('A' for Active; 'I' for Inactive)
REMARK    1  A    between atoms: C_2  and  C_4
REMARK    2  A    between atoms: N_7  and  C_10
REMARK    3  A    between atoms: C_12  and  C_16
REMARK    4  A    between atoms: C_19  and  C_21
REMARK    5  A    between atoms: N_25  and  C_26
REMARK    6  A    between atoms: C_26  and  C_27
REMARK                            x       y       z     vdW  Elec       q    Type
REMARK                         _______ _______ _______ _____ _____    ______ ____
ROOT
ATOM     16  C   UNL     1      -4.386   0.660  25.140  0.00  0.00    +0.203 A 
ATOM     17  N   UNL     1      -4.655   0.222  25.785  0.00  0.00    -0.056 NA
ATOM     18  O   UNL     1      -4.413  -0.559  25.681  0.00  0.00    -0.336 OA
ATOM     19  C   UNL     1      -3.995  -0.605  24.972  0.00  0.00    +0.251 A 
ATOM     20  N   UNL     1      -3.978   0.148  24.637  0.00  0.00    -0.190 NA
ENDROOT
BRANCH  16  12
ATOM     10  C   UNL     1      -3.987   2.798  24.948  0.00  0.00    +0.132 A 
ATOM     11  C   UNL     1      -3.869   1.990  25.070  0.00  0.00    +0.037 A 
ATOM     12  C   UNL     1      -4.504   1.467  25.018  0.00  0.00    +0.043 A 
ATOM     13  C   UNL     1      -5.260   1.753  24.845  0.00  0.00    +0.024 A 
ATOM     14  C   UNL     1      -5.378   2.560  24.724  0.00  0.00    +0.100 A 
ATOM     15  N   UNL     1      -4.741   3.082  24.775  0.00  0.00    -0.229 NA
BRANCH  10   7
ATOM      4  C   UNL     1      -2.076   4.363  25.102  0.00  0.00    +0.083 C 
ATOM      5  C   UNL     1      -2.559   4.237  25.759  0.00  0.00    +0.031 C 
ATOM      6  C   UNL     1      -3.196   3.715  25.707  0.00  0.00    +0.093 C 
ATOM      7  N   UNL     1      -3.350   3.320  25.000  0.00  0.00    -0.293 N 
ATOM      8  C   UNL     1      -2.867   3.446  24.343  0.00  0.00    +0.093 C 
ATOM      9  C   UNL     1      -2.230   3.968  24.394  0.00  0.00    +0.031 C 
BRANCH   4   2
ATOM      1  N   UNL     1      -0.666   4.598  25.118  0.00  0.00    -0.088 NA
ATOM      2  C   UNL     1      -1.439   4.885  25.153  0.00  0.00    +0.260 C 
ATOM      3  O   UNL     1      -1.575   5.695  25.238  0.00  0.00    -0.272 OA
ENDBRANCH   4   2
ENDBRANCH  10   7
ENDBRANCH  16  12
BRANCH  19  21
ATOM     21  C   UNL     1      -3.653  -1.285  24.653  0.00  0.00    +0.138 C 
ATOM     22  C   UNL     1      -4.033  -1.841  24.177  0.00  0.00    +0.027 C 
ATOM     23  C   UNL     1      -3.486  -2.428  23.985  0.00  0.00    +0.019 C 
ATOM     24  C   UNL     1      -2.768  -2.235  24.343  0.00  0.00    +0.073 C 
ATOM     25  N   UNL     1      -2.872  -1.529  24.756  0.00  0.00    -0.262 NA
BRANCH  25  26
ATOM     26  C   UNL     1      -2.294  -1.134  25.195  0.00  0.00    +0.106 C 
BRANCH  26  27
ATOM     27  C   UNL     1      -1.496  -1.284  25.053  0.00  0.00    +0.023 A 
ATOM     28  C   UNL     1      -1.052  -1.898  25.381  0.00  0.00    +0.004 A 
ATOM     29  C   UNL     1      -0.282  -1.839  25.090  0.00  0.00    +0.007 A 
ATOM     30  C   UNL     1      -0.250  -1.189  24.583  0.00  0.00    +0.035 A 
ATOM     31  S   UNL     1      -0.999  -0.846  24.561  0.00  0.00    -0.089 S 
ENDBRANCH  26  27
ENDBRANCH  25  26
ENDBRANCH  19  21
TORSDOF 6
ENDMDL
MODEL 3
REMARK VINA RESULT:     -12.0      1.867      3.273
REMARK  Name = 
REMARK  6 active torsions:
REMARK  status: ('A' for Active; 'I' for Inactive)
REMARK    1  A    between atoms: C_2  and  C_4
REMARK    2  A    between atoms: N_7  and  C_10
REMARK    3  A    between atoms: C_12  and  C_16
REMARK    4  A    between atoms: C_19  and  C_21
REMARK    5  A    between atoms: N_25  and  C_26
REMARK    6  A    between atoms: C_26  and  C_27
REMARK                            x       y       z     vdW  Elec       q    Type
REMARK                         _______ _______ _______ _____ _____    ______ ____
ROOT
ATOM     16  C   UNL     1      -0.584   1.666  25.068  0.00  0.00    +0.203 A 
ATOM     17  N   UNL     1      -0.253   1.871  25.795  0.00  0.00    -0.056 NA
ATOM     18  O   UNL     1      -0.463   2.650  25.961  0.00  0.00    -0.336 OA
ATOM     19  C   UNL     1      -0.924   2.929  25.336  0.00  0.00    +0.251 A 
ATOM     20  N   UNL     1      -1.000   2.321  24.784  0.00  0.00    -0.190 NA
ENDROOT
BRANCH  16  12
ATOM     10  C   UNL     1      -1.035  -0.361  24.395  0.00  0.00    +0.132 A 
ATOM     11  C   UNL     1      -1.106   0.369  24.773  0.00  0.00    +0.037 A 
ATOM     12  C   UNL     1      -0.513   0.936  24.690  0.00  0.00    +0.043 A 
ATOM     13  C   UNL     1       0.152   0.773  24.229  0.00  0.00    +0.024 A 
ATOM     14  C   UNL     1       0.223   0.043  23.851  0.00  0.00    +0.100 A 
ATOM     15  N   UNL     1      -0.371  -0.524  23.935  0.00  0.00    -0.229 NA
BRANCH  10   7
ATOM      4  C   UNL     1      -2.818  -2.060  24.645  0.00  0.00    +0.083 C 
ATOM      5  C   UNL     1      -2.025  -2.288  24.666  0.00  0.00    +0.031 C 
ATOM      6  C   UNL     1      -1.431  -1.721  24.582  0.00  0.00    +0.093 C 
ATOM      7  N   UNL     1      -1.629  -0.928  24.479  0.00  0.00    -0.293 N 
ATOM      8  C   UNL     1      -2.422  -0.699  24.458  0.00  0.00    +0.093 C 
ATOM      9  C   UNL     1      -3.017  -1.265  24.541  0.00  0.00    +0.031 C 
BRANCH   4   2
ATOM      1  N   UNL     1      -3.906  -2.802  24.092  0.00  0.00    -0.088 NA
ATOM      2  C   UNL     1      -3.413  -2.625  24.729  0.00  0.00    +0.260 C 
ATOM      3  O   UNL     1      -3.514  -3.013  25.450  0.00  0.00    -0.272 OA
ENDBRANCH   4   2
ENDBRANCH  10   7
ENDBRANCH  16  12
BRANCH  19  21
ATOM     21  C   UNL     1      -1.253   3.683  25.275  0.00  0.00    +0.138 C 
ATOM     22  C   UNL     1      -0.853   4.370  25.057  0.00  0.00    +0.027 C 
ATOM     23  C   UNL     1      -1.392   4.994  25.068  0.00  0.00    +0.019 C 
ATOM     24  C   UNL     1      -2.127   4.692  25.293  0.00  0.00    +0.073 C 
ATOM     25  N   UNL     1      -2.040   3.882  25.420  0.00  0.00    -0.262 NA
BRANCH  25  26
ATOM     26  C   UNL     1      -2.637   3.362  25.653  0.00  0.00    +0.106 C 
BRANCH  26  27
ATOM     27  C   UNL     1      -3.421   3.516  25.450  0.00  0.00    +0.023 A 
ATOM     28  C   UNL     1      -3.759   3.405  24.704  0.00  0.00    +0.004 A 
ATOM     29  C   UNL     1      -4.552   3.629  24.749  0.00  0.00    +0.007 A 
ATOM     30  C   UNL     1      -4.704   3.877  25.521  0.00  0.00    +0.035 A 
ATOM     31  S   UNL     1      -4.006   3.808  25.953  0.00  0.00    -0.089 S 
ENDBRANCH  26  27
ENDBRANCH  25  26
ENDBRANCH  19  21
TORSDOF 6
ENDMDL
MODEL 4
REMARK VINA RESULT:     -11.9      2.287      4.806
REMARK  Name = 
REMARK  6 active torsions:
REMARK  status: ('A' for Active; 'I' for Inactive)
REMARK    1  A    between atoms: C_2  and  C_4
REMARK    2  A    between atoms: N_7  and  C_10
REMARK    3  A    between atoms: C_12  and  C_16
REMARK    4  A    between atoms: C_19  and  C_21
REMARK    5  A    between atoms: N_25  and  C_26
REMARK    6  A    between atoms: C_26  and  C_27
REMARK                            x       y       z     vdW  Elec       q    Type
REMARK                         _______ _______ _______ _____ _____    ______ ____
ROOT
ATOM     16  C   UNL     1      -0.424   2.703  24.914  0.00  0.00    +0.203 A 
ATOM     17  N   UNL     1       0.235   2.532  25.380  0.00  0.00    -0.056 NA
ATOM     18  O   UNL     1       0.560   1.824  25.112  0.00  0.00    -0.336 OA
ATOM     19  C   UNL     1       0.102   1.556  24.480  0.00  0.00    +0.251 A 
ATOM     20  N   UNL     1      -0.506   2.100  24.357  0.00  0.00    -0.190 NA
ENDROOT
BRANCH  16  12
ATOM     10  C   UNL     1      -2.218   3.921  25.165  0.00  0.00    +0.132 A 
ATOM     11  C   UNL     1      -1.727   3.263  25.088  0.00  0.00    +0.037 A 
ATOM     12  C   UNL     1      -0.914   3.362  24.991  0.00  0.00    +0.043 A 
ATOM     13  C   UNL     1      -0.592   4.122  24.971  0.00  0.00    +0.024 A 
ATOM     14  C   UNL     1      -1.082   4.781  25.048  0.00  0.00    +0.100 A 
ATOM     15  N   UNL     1      -1.896   4.680  25.145  0.00  0.00    -0.229 NA
BRANCH  10   7
ATOM      4  C   UNL     1      -4.657   3.618  25.455  0.00  0.00    +0.083 C 
ATOM      5  C   UNL     1      -4.182   3.785  26.108  0.00  0.00    +0.031 C 
ATOM      6  C   UNL     1      -3.369   3.886  26.011  0.00  0.00    +0.093 C 
ATOM      7  N   UNL     1      -3.031   3.820  25.262  0.00  0.00    -0.293 N 
ATOM      8  C   UNL     1      -3.506   3.653  24.609  0.00  0.00    +0.093 C 
ATOM      9  C   UNL     1      -4.319   3.552  24.704  0.00  0.00    +0.031 C 
BRANCH   4   2
ATOM      1  N   UNL     1      -5.804   2.765  25.483  0.00  0.00    -0.088 NA
ATOM      2  C   UNL     1      -5.470   3.517  25.551  0.00  0.00    +0.260 C 
ATOM      3  O   UNL     1      -5.950   4.169  25.714  0.00  0.00    -0.272 OA
ENDBRANCH   4   2
ENDBRANCH  10   7
ENDBRANCH  16  12
BRANCH  19  21
ATOM     21  C   UNL     1       0.230   0.866  24.046  0.00  0.00    +0.138 C 
ATOM     22  C   UNL     1       0.705   0.795  23.376  0.00  0.00    +0.027 C 
ATOM     23  C   UNL     1       0.674   0.011  23.122  0.00  0.00    +0.019 C 
ATOM     24  C   UNL     1       0.179  -0.404  23.637  0.00  0.00    +0.073 C 
ATOM     25  N   UNL     1      -0.095   0.125  24.207  0.00  0.00    -0.262 NA
BRANCH  25  26
ATOM     26  C   UNL     1      -0.605  -0.056  24.830  0.00  0.00    +0.106 C 
BRANCH  26  27
ATOM     27  C   UNL     1      -1.018  -0.770  24.831  0.00  0.00    +0.023 A 
ATOM     28  C   UNL     1      -1.775  -0.892  24.524  0.00  0.00    +0.004 A 
ATOM     29  C   UNL     1      -1.972  -1.685  24.642  0.00  0.00    +0.007 A 
ATOM     30  C   UNL     1      -1.338  -2.051  25.021  0.00  0.00    +0.035 A 
ATOM     31  S   UNL     1      -0.749  -1.487  25.138  0.00  0.00    -0.089 S 
ENDBRANCH  26  27
ENDBRANCH  25  26
ENDBRANCH  19  21
TORSDOF 6
ENDMDL
MODEL 5
REMARK VINA RESULT:     -11.3      2.251      5.119
REMARK  Name = 
REMARK  6 active torsions:
REMARK  status: ('A' for Active; 'I' for Inactive)
REMARK    1  A    between atoms: C_2  and  C_4
REMARK    2  A    between atoms: N_7  and  C_10
REMARK    3  A    between atoms: C_12  and  C_16
REMARK    4  A    between atoms: C_19  and  C_21
REMARK    5  A    between atoms: N_25  and  C_26
REMARK    6  A    between atoms: C_26  and  C_27
REMARK                            x       y       z     vdW  Elec       q    Type
REMARK                         _______ _______ _______ _____ _____    ______ ____
ROOT
ATOM     16  C   UNL     1      -1.033   1.342  24.297  0.00  0.00    +0.203 A 
ATOM     17  N   UNL     1      -0.704   1.083  23.587  0.00  0.00    -0.056 NA
ATOM     18  O   UNL     1      -0.562   0.273  23.651  0.00  0.00    -0.336 OA
ATOM     19  C   UNL     1      -0.803   0.031  24.402  0.00  0.00    +0.251 A 
ATOM     20  N   UNL     1      -1.094   0.691  24.802  0.00  0.00    -0.190 NA
ENDROOT
BRANCH  16  12
ATOM     10  C   UNL     1      -2.274   3.054  24.840  0.00  0.00    +0.132 A 
ATOM     11  C   UNL     1      -2.046   2.280  24.664  0.00  0.00    +0.037 A 
ATOM     12  C   UNL     1      -1.261   2.115  24.473  0.00  0.00    +0.043 A 
ATOM     13  C   UNL     1      -0.703   2.723  24.458  0.00  0.00    +0.024 A 
ATOM     14  C   UNL     1      -0.931   3.496  24.634  0.00  0.00    +0.100 A 
ATOM     15  N   UNL     1      -1.716   3.661  24.825  0.00  0.00    -0.229 NA
BRANCH  10   7
ATOM      4  C   UNL     1      -4.631   3.547  25.412  0.00  0.00    +0.083 C 
ATOM      5  C   UNL     1      -4.031   3.723  25.950  0.00  0.00    +0.031 C 
ATOM      6  C   UNL     1      -3.245   3.558  25.759  0.00  0.00    +0.093 C 
ATOM      7  N   UNL     1      -3.059   3.218  25.031  0.00  0.00    -0.293 N 
ATOM      8  C   UNL     1      -3.660   3.042  24.494  0.00  0.00    +0.093 C 
ATOM      9  C   UNL     1      -4.445   3.206  24.683  0.00  0.00    +0.031 C 
BRANCH   4   2
ATOM      1  N   UNL     1      -5.894   3.122  25.928  0.00  0.00    -0.088 NA
ATOM      2  C   UNL     1      -5.417   3.711  25.602  0.00  0.00    +0.260 C 
ATOM      3  O   UNL     1      -5.725   4.464  25.466  0.00  0.00    -0.272 OA
ENDBRANCH   4   2
ENDBRANCH  10   7
ENDBRANCH  16  12
BRANCH  19  21
ATOM     21  C   UNL     1      -0.760  -0.737  24.701  0.00  0.00    +0.138 C 
ATOM     22  C   UNL     1      -0.094  -1.091  25.034  0.00  0.00    +0.027 C 
ATOM     23  C   UNL     1      -0.298  -1.858  25.258  0.00  0.00    +0.019 C 
ATOM     24  C   UNL     1      -1.091  -1.978  25.064  0.00  0.00    +0.073 C 
ATOM     25  N   UNL     1      -1.376  -1.285  24.720  0.00  0.00    -0.262 NA
BRANCH  25  26
ATOM     26  C   UNL     1      -2.144  -1.161  24.443  0.00  0.00    +0.106 C 
BRANCH  26  27
ATOM     27  C   UNL     1      -2.741  -1.699  24.629  0.00  0.00    +0.023 A 
ATOM     28  C   UNL     1      -3.219  -1.680  25.302  0.00  0.00    +0.004 A 
ATOM     29  C   UNL     1      -3.738  -2.320  25.263  0.00  0.00    +0.007 A 
ATOM     30  C   UNL     1      -3.581  -2.734  24.567  0.00  0.00    +0.035 A 
ATOM     31  S   UNL     1      -2.965  -2.351  24.175  0.00  0.00    -0.089 S 
ENDBRANCH  26  27
ENDBRANCH  25  26
ENDBRANCH  19  21
TORSDOF 6
ENDMDL
MODEL 6
REMARK VINA RESULT:     -10.0      2.056      3.749
REMARK  Name = 
REMARK  6 active torsions:
REMARK  status: ('A' for Active; 'I' for Inactive)
REMARK    1  A    between atoms: C_2  and  C_4
REMARK    2  A    between atoms: N_7  and  C_10
REMARK    3  A    between atoms: C_12  and  C_16
REMARK    4  A    between atoms: C_19  and  C_21
REMARK    5  A    between atoms: N_25  and  C_26
REMARK    6  A    between atoms: C_26  and  C_27
REMARK                            x       y       z     vdW  Elec       q    Type
REMARK                         _______ _______ _______ _____ _____    ______ ____
ROOT
ATOM     16  C   UNL     1      -1.626   2.837  25.328  0.00  0.00    +0.203 A 
ATOM     17  N   UNL     1      -1.678   3.376  25.950  0.00  0.00    -0.056 NA
ATOM     18  O   UNL     1      -2.375   3.806  25.857  0.00  0.00    -0.336 OA
ATOM     19  C   UNL     1      -2.754   3.534  25.177  0.00  0.00    +0.251 A 
ATOM     20  N   UNL     1      -2.292   2.935  24.850  0.00  0.00    -0.190 NA
ENDROOT
BRANCH  16  12
ATOM     10  C   UNL     1      -0.575   0.947  25.025  0.00  0.00    +0.132 A 
ATOM     11  C   UNL     1      -1.185   1.489  25.148  0.00  0.00    +0.037 A 
ATOM     12  C   UNL     1      -1.017   2.295  25.206  0.00  0.00    +0.043 A 
ATOM     13  C   UNL     1      -0.237   2.558  25.140  0.00  0.00    +0.024 A 
ATOM     14  C   UNL     1       0.373   2.016  25.018  0.00  0.00    +0.100 A 
ATOM     15  N   UNL     1       0.203   1.211  24.960  0.00  0.00    -0.229 NA
BRANCH  10   7
ATOM      4  C   UNL     1      -1.085  -1.469  24.852  0.00  0.00    +0.083 C 
ATOM      5  C   UNL     1      -1.305  -1.048  25.527  0.00  0.00    +0.031 C 
ATOM      6  C   UNL     1      -1.135  -0.243  25.584  0.00  0.00    +0.093 C 
ATOM      7  N   UNL     1      -0.745   0.142  24.968  0.00  0.00    -0.293 N 
ATOM      8  C   UNL     1      -0.525  -0.278  24.293  0.00  0.00    +0.093 C 
ATOM      9  C   UNL     1      -0.695  -1.083  24.234  0.00  0.00    +0.031 C 
BRANCH   4   2
ATOM      1  N   UNL     1      -1.921  -2.526  24.378  0.00  0.00    -0.088 NA
ATOM      2  C   UNL     1      -1.254  -2.274  24.793  0.00  0.00    +0.260 C 
ATOM      3  O   UNL     1      -0.756  -2.827  25.150  0.00  0.00    -0.272 OA
ENDBRANCH   4   2
ENDBRANCH  10   7
ENDBRANCH  16  12
BRANCH  19  21
ATOM     21  C   UNL     1      -3.471   3.813  24.876  0.00  0.00    +0.138 C 
ATOM     22  C   UNL     1      -3.567   4.458  24.372  0.00  0.00    +0.027 C 
ATOM     23  C   UNL     1      -4.372   4.539  24.212  0.00  0.00    +0.019 C 
ATOM     24  C   UNL     1      -4.773   3.942  24.617  0.00  0.00    +0.073 C 
ATOM     25  N   UNL     1      -4.216   3.494  25.027  0.00  0.00    -0.262 NA
BRANCH  25  26
ATOM     26  C   UNL     1      -4.377   2.840  25.505  0.00  0.00    +0.106 C 
BRANCH  26  27
ATOM     27  C   UNL     1      -5.096   2.444  25.433  0.00  0.00    +0.023 A 
ATOM     28  C   UNL     1      -5.270   1.850  24.886  0.00  0.00    +0.004 A 
ATOM     29  C   UNL     1      -6.050   1.610  25.010  0.00  0.00    +0.007 A 
ATOM     30  C   UNL     1      -6.357   2.055  25.634  0.00  0.00    +0.035 A 
ATOM     31  S   UNL     1      -5.768   2.569  25.895  0.00  0.00    -0.089 S 
ENDBRANCH  26  27
ENDBRANCH  25  26
ENDBRANCH  19  21
TORSDOF 6
ENDMDL
