REMARK  Name = 
REMARK  5 active torsions:
REMARK  status: ('A' for Active; 'I' for Inactive)
REMARK    1  A    between atoms: O_2  and  C_3
REMARK    2  A    between atoms: C_6  and  C_7
REMARK    3  A    between atoms: C_7  and  N_8
REMARK    4  A    between atoms: C_13  and  C_14
REMARK    5  A    between atoms: C_16  and  C_19
REMARK                            x       y       z     vdW  Elec       q    Type
REMARK                         _______ _______ _______ _____ _____    ______ ____
ROOT
ATOM      8  N   UNL     1       2.037   1.176   0.000  0.00  0.00    -0.260 NA
ATOM      9  C   UNL     1       2.037   2.001   0.000  0.00  0.00    +0.105 C 
ATOM     10  C   UNL     1       2.751   2.413   0.000  0.00  0.00    +0.160 C 
ATOM     11  O   UNL     1       3.466   2.001   0.000  0.00  0.00    -0.350 OA
ATOM     12  C   UNL     1       3.466   1.176   0.000  0.00  0.00    +0.166 C 
ATOM     13  C   UNL     1       2.751   0.763   0.000  0.00  0.00    +0.147 C 
ENDROOT
BRANCH  13  14
ATOM     14  C   UNL     1       2.751  -0.062   0.000  0.00  0.00    +0.156 A 
ATOM     15  N   UNL     1       3.419  -0.546   0.000  0.00  0.00    -0.227 NA
ATOM     16  C   UNL     1       3.164  -1.331   0.000  0.00  0.00    +0.108 A 
ATOM     17  C   UNL     1       2.339  -1.331   0.000  0.00  0.00    +0.120 A 
ATOM     18  N   UNL     1       2.084  -0.546   0.000  0.00  0.00    -0.226 NA
BRANCH  16  19
ATOM     19  C   UNL     1       3.649  -1.999   0.000  0.00  0.00    +0.049 A 
ATOM     20  C   UNL     1       4.474  -1.999   0.000  0.00  0.00    +0.009 A 
ATOM     21  C   UNL     1       4.729  -2.783   0.000  0.00  0.00    +0.019 A 
ATOM     22  C   UNL     1       4.061  -3.268   0.000  0.00  0.00    +0.087 A 
ATOM     23 CL   UNL     1       4.061  -4.093   0.000  0.00  0.00    -0.075 Cl
ATOM     24  S   UNL     1       3.394  -2.783   0.000  0.00  0.00    -0.074 S 
ENDBRANCH  16  19
ENDBRANCH  13  14
BRANCH   8   7
ATOM      7  C   UNL     1       1.322   0.763   0.000  0.00  0.00    +0.100 C 
BRANCH   7   6
ATOM      3  C   UNL     1      -0.821   2.001   0.000  0.00  0.00    +0.139 A 
ATOM      4  C   UNL     1      -0.107   2.413   0.000  0.00  0.00    +0.037 A 
ATOM      5  C   UNL     1       0.608   2.001   0.000  0.00  0.00    +0.000 A 
ATOM      6  C   UNL     1       0.608   1.176   0.000  0.00  0.00    -0.006 A 
ATOM     25  C   UNL     1      -0.107   0.763   0.000  0.00  0.00    +0.000 A 
ATOM     26  C   UNL     1      -0.821   1.176   0.000  0.00  0.00    +0.037 A 
BRANCH   3   2
ATOM      1  C   UNL     1      -2.250   2.001   0.000  0.00  0.00    +0.252 C 
ATOM      2  O   UNL     1      -1.536   2.413   0.000  0.00  0.00    -0.471 OA
ENDBRANCH   3   2
ENDBRANCH   7   6
ENDBRANCH   8   7
TORSDOF 5
