REMARK  Name = 
REMARK  4 active torsions:
REMARK  status: ('A' for Active; 'I' for Inactive)
REMARK    1  A    between atoms: C_2  and  C_4
REMARK    2  A    between atoms: C_7  and  C_9
REMARK    3  A    between atoms: N_14  and  C_15
REMARK    4  A    between atoms: C_15  and  C_16
REMARK                            x       y       z     vdW  Elec       q    Type
REMARK                         _______ _______ _______ _____ _____    ______ ____
ROOT
ATOM      9  C   UNL     1       2.070   1.110   0.000  0.00  0.00    +0.144 C 
ATOM     10  C   UNL     1       1.356   0.698   0.000  0.00  0.00    +0.073 C 
ATOM     11  C   UNL     1       0.641   1.110   0.000  0.00  0.00    +0.077 A 
ATOM     12  C   UNL     1       0.641   1.935   0.000  0.00  0.00    +0.090 A 
ATOM     13  C   UNL     1       1.356   2.348   0.000  0.00  0.00    +0.121 C 
ATOM     14  N   UNL     1       2.070   1.935   0.000  0.00  0.00    -0.257 NA
ATOM     23  N   UNL     1      -0.143   2.190   0.000  0.00  0.00    -0.226 NA
ATOM     24  C   UNL     1      -0.628   1.523   0.000  0.00  0.00    +0.198 A 
ATOM     25  N   UNL     1      -0.143   0.856   0.000  0.00  0.00    -0.227 NA
ENDROOT
BRANCH   9   7
ATOM      4  C   UNL     1       3.678  -0.294   0.000  0.00  0.00    +0.180 A 
ATOM      5  N   UNL     1       4.090   0.420   0.000  0.00  0.00    -0.061 NA
ATOM      6  O   UNL     1       3.538   1.034   0.000  0.00  0.00    -0.336 OA
ATOM      7  C   UNL     1       2.784   0.698   0.000  0.00  0.00    +0.251 A 
ATOM      8  N   UNL     1       2.871  -0.122   0.000  0.00  0.00    -0.194 NA
BRANCH   4   2
ATOM      1  C   UNL     1       4.834  -1.134   0.000  0.00  0.00    +0.008 C 
ATOM      2  C   UNL     1       4.013  -1.048   0.000  0.00  0.00    +0.062 C 
ATOM      3  C   UNL     1       3.528  -1.715   0.000  0.00  0.00    +0.008 C 
ENDBRANCH   4   2
ENDBRANCH   9   7
BRANCH  14  15
ATOM     15  C   UNL     1       2.784   2.348   0.000  0.00  0.00    +0.100 C 
BRANCH  15  16
ATOM     16  C   UNL     1       2.784   3.173   0.000  0.00  0.00    -0.006 A 
ATOM     17  C   UNL     1       2.070   3.585   0.000  0.00  0.00    -0.001 A 
ATOM     18  C   UNL     1       2.070   4.410   0.000  0.00  0.00    +0.029 A 
ATOM     19  C   UNL     1       2.784   4.823   0.000  0.00  0.00    +0.140 A 
ATOM     20  F   UNL     1       2.784   5.648   0.000  0.00  0.00    -0.204 F 
ATOM     21  C   UNL     1       3.499   4.410   0.000  0.00  0.00    +0.029 A 
ATOM     22  C   UNL     1       3.499   3.585   0.000  0.00  0.00    -0.001 A 
ENDBRANCH  15  16
ENDBRANCH  14  15
TORSDOF 4
