MODEL 1
REMARK VINA RESULT:      -8.3      0.000      0.000
REMARK  Name = 
REMARK  8 active torsions:
REMARK  status: ('A' for Active; 'I' for Inactive)
REMARK    1  A    between atoms: O_2  and  C_3
REMARK    2  A    between atoms: C_6  and  C_9
REMARK    3  A    between atoms: N_11  and  C_12
REMARK    4  A    between atoms: C_16  and  O_20
REMARK    5  A    between atoms: O_20  and  C_21
REMARK    6  A    between atoms: N_23  and  C_24
REMARK    7  A    between atoms: C_26  and  O_27
REMARK    8  A    between atoms: C_30  and  O_31
REMARK                            x       y       z     vdW  Elec       q    Type
REMARK                         _______ _______ _______ _____ _____    ______ ____
ROOT
ATOM     12  C   UNL     1       0.896   0.275  23.312  0.00  0.00    +0.155 C 
ATOM     13  C   UNL     1       0.509  -0.235  22.793  0.00  0.00    +0.166 C 
ATOM     14  O   UNL     1      -0.303  -0.117  22.879  0.00  0.00    -0.348 OA
ATOM     15  C   UNL     1      -0.417   0.466  23.451  0.00  0.00    +0.186 C 
ATOM     16  C   UNL     1      -0.989   0.900  23.858  0.00  0.00    +0.229 C 
ATOM     17  C   UNL     1      -0.601   1.410  24.377  0.00  0.00    +0.188 C 
ATOM     18  O   UNL     1       0.211   1.292  24.291  0.00  0.00    -0.348 OA
ATOM     19  C   UNL     1       0.325   0.708  23.718  0.00  0.00    +0.168 C 
ENDROOT
BRANCH  12  11
ATOM      9  C   UNL     1       2.219   0.151  22.783  0.00  0.00    +0.265 C 
ATOM     10  O   UNL     1       1.906  -0.105  22.064  0.00  0.00    -0.268 OA
ATOM     11  N   UNL     1       1.714   0.341  23.407  0.00  0.00    -0.198 NA
BRANCH   9   6
ATOM      3  C   UNL     1       4.669   0.347  23.069  0.00  0.00    +0.139 A 
ATOM      4  C   UNL     1       4.234   0.989  22.788  0.00  0.00    +0.037 A 
ATOM      5  C   UNL     1       3.417   0.924  22.693  0.00  0.00    +0.008 A 
ATOM      6  C   UNL     1       3.035   0.216  22.879  0.00  0.00    +0.055 A 
ATOM      7  C   UNL     1       3.470  -0.426  23.160  0.00  0.00    +0.008 A 
ATOM      8  C   UNL     1       4.287  -0.360  23.255  0.00  0.00    +0.037 A 
BRANCH   3   2
ATOM      1  C   UNL     1       5.858   0.041  23.800  0.00  0.00    +0.252 C 
ATOM      2  O   UNL     1       5.486   0.413  23.164  0.00  0.00    -0.471 OA
ENDBRANCH   3   2
ENDBRANCH   9   6
ENDBRANCH  12  11
BRANCH  16  20
ATOM     20  O   UNL     1      -1.806   0.834  23.763  0.00  0.00    -0.432 OA
BRANCH  20  21
ATOM     21  C   UNL     1      -2.315   1.248  24.263  0.00  0.00    +0.425 C 
ATOM     22  O   UNL     1      -2.247   1.165  25.080  0.00  0.00    -0.224 OA
ATOM     23  N   UNL     1      -2.890   1.746  23.945  0.00  0.00    -0.142 NA
BRANCH  23  24
ATOM     24  C   UNL     1      -3.399   2.161  24.446  0.00  0.00    +0.083 A 
ATOM     25  C   UNL     1      -4.099   1.810  24.705  0.00  0.00    +0.054 A 
ATOM     26  C   UNL     1      -4.607   2.224  25.205  0.00  0.00    +0.143 A 
ATOM     29  C   UNL     1      -4.416   2.991  25.445  0.00  0.00    +0.074 A 
ATOM     30  C   UNL     1      -3.716   3.342  25.185  0.00  0.00    +0.143 A 
ATOM     33  C   UNL     1      -3.208   2.926  24.686  0.00  0.00    +0.054 A 
BRANCH  26  27
ATOM     27  O   UNL     1      -5.307   1.873  25.465  0.00  0.00    -0.471 OA
ATOM     28  C   UNL     1      -5.993   1.937  25.011  0.00  0.00    +0.252 C 
ENDBRANCH  26  27
BRANCH  30  31
ATOM     31  O   UNL     1      -3.524   4.107  25.426  0.00  0.00    -0.471 OA
ATOM     32  C   UNL     1      -3.126   4.229  26.138  0.00  0.00    +0.252 C 
ENDBRANCH  30  31
ENDBRANCH  23  24
ENDBRANCH  20  21
ENDBRANCH  16  20
TORSDOF 8
ENDMDL
MODEL 2
REMARK VINA RESULT:      -7.6      1.237      1.979
REMARK  Name = 
REMARK  8 active torsions:
REMARK  status: ('A' for Active; 'I' for Inactive)
REMARK    1  A    between atoms: O_2  and  C_3
REMARK    2  A    between atoms: C_6  and  C_9
REMARK    3  A    between atoms: N_11  and  C_12
REMARK    4  A    between atoms: C_16  and  O_20
REMARK    5  A    between atoms: O_20  and  C_21
REMARK    6  A    between atoms: N_23  and  C_24
REMARK    7  A    between atoms: C_26  and  O_27
REMARK    8  A    between atoms: C_30  and  O_31
REMARK                            x       y       z     vdW  Elec       q    Type
REMARK                         _______ _______ _______ _____ _____    ______ ____
ROOT
ATOM     12  C   UNL     1       1.193   0.424  23.226  0.00  0.00    +0.155 C 
ATOM     13  C   UNL     1       0.794  -0.019  22.657  0.00  0.00    +0.166 C 
ATOM     14  O   UNL     1      -0.004   0.190  22.685  0.00  0.00    -0.348 OA
ATOM     15  C   UNL     1      -0.097   0.762  23.270  0.00  0.00    +0.186 C 
ATOM     16  C   UNL     1      -0.647   1.246  23.651  0.00  0.00    +0.229 C 
ATOM     17  C   UNL     1      -0.248   1.689  24.220  0.00  0.00    +0.188 C 
ATOM     18  O   UNL     1       0.550   1.480  24.192  0.00  0.00    -0.348 OA
ATOM     19  C   UNL     1       0.643   0.907  23.605  0.00  0.00    +0.168 C 
ENDROOT
BRANCH  12  11
ATOM      9  C   UNL     1       2.537   0.219  22.784  0.00  0.00    +0.265 C 
ATOM     10  O   UNL     1       2.262   0.082  22.017  0.00  0.00    -0.268 OA
ATOM     11  N   UNL     1       2.002   0.390  23.388  0.00  0.00    -0.198 NA
BRANCH   9   6
ATOM      3  C   UNL     1       4.961   0.117  23.267  0.00  0.00    +0.139 A 
ATOM      4  C   UNL     1       4.479  -0.530  23.438  0.00  0.00    +0.037 A 
ATOM      5  C   UNL     1       3.671  -0.496  23.277  0.00  0.00    +0.008 A 
ATOM      6  C   UNL     1       3.345   0.185  22.945  0.00  0.00    +0.055 A 
ATOM      7  C   UNL     1       3.827   0.832  22.773  0.00  0.00    +0.008 A 
ATOM      8  C   UNL     1       4.635   0.798  22.935  0.00  0.00    +0.037 A 
BRANCH   3   2
ATOM      1  C   UNL     1       6.041  -0.316  24.097  0.00  0.00    +0.252 C 
ATOM      2  O   UNL     1       5.770   0.084  23.428  0.00  0.00    -0.471 OA
ENDBRANCH   3   2
ENDBRANCH   9   6
ENDBRANCH  12  11
BRANCH  16  20
ATOM     20  O   UNL     1      -1.456   1.280  23.489  0.00  0.00    -0.432 OA
BRANCH  20  21
ATOM     21  C   UNL     1      -2.001   1.027  24.054  0.00  0.00    +0.425 C 
ATOM     22  O   UNL     1      -1.864   1.176  24.854  0.00  0.00    -0.224 OA
ATOM     23  N   UNL     1      -2.682   0.625  23.820  0.00  0.00    -0.142 NA
BRANCH  23  24
ATOM     24  C   UNL     1      -3.227   0.372  24.386  0.00  0.00    +0.083 A 
ATOM     25  C   UNL     1      -3.830   0.877  24.632  0.00  0.00    +0.054 A 
ATOM     26  C   UNL     1      -4.375   0.624  25.197  0.00  0.00    +0.143 A 
ATOM     29  C   UNL     1      -4.316  -0.135  25.517  0.00  0.00    +0.074 A 
ATOM     30  C   UNL     1      -3.712  -0.640  25.270  0.00  0.00    +0.143 A 
ATOM     33  C   UNL     1      -3.168  -0.386  24.705  0.00  0.00    +0.054 A 
BRANCH  26  27
ATOM     27  O   UNL     1      -4.979   1.130  25.444  0.00  0.00    -0.471 OA
ATOM     28  C   UNL     1      -5.492   1.461  24.889  0.00  0.00    +0.252 C 
ENDBRANCH  26  27
BRANCH  30  31
ATOM     31  O   UNL     1      -3.653  -1.399  25.589  0.00  0.00    -0.471 OA
ATOM     32  C   UNL     1      -3.646  -2.057  25.090  0.00  0.00    +0.252 C 
ENDBRANCH  30  31
ENDBRANCH  23  24
ENDBRANCH  20  21
ENDBRANCH  16  20
TORSDOF 8
ENDMDL
MODEL 3
REMARK VINA RESULT:      -6.0      1.405      2.587
REMARK  Name = 
REMARK  8 active torsions:
REMARK  status: ('A' for Active; 'I' for Inactive)
REMARK    1  A    between atoms: O_2  and  C_3
REMARK    2  A    between atoms: C_6  and  C_9
REMARK    3  A    between atoms: N_11  and  C_12
REMARK    4  A    between atoms: C_16  and  O_20
REMARK    5  A    between atoms: O_20  and  C_21
REMARK    6  A    between atoms: N_23  and  C_24
REMARK    7  A    between atoms: C_26  and  O_27
REMARK    8  A    between atoms: C_30  and  O_31
REMARK                            x       y       z     vdW  Elec       q    Type
REMARK                         _______ _______ _______ _____ _____    ______ ____
ROOT
ATOM     12  C   UNL     1       0.028   2.017  24.731  0.00  0.00    +0.155 C 
ATOM     13  C   UNL     1      -0.254   1.626  25.400  0.00  0.00    +0.166 C 
ATOM     14  O   UNL     1      -0.857   2.084  25.727  0.00  0.00    -0.348 OA
ATOM     15  C   UNL     1      -0.947   2.758  25.261  0.00  0.00    +0.186 C 
ATOM     16  C   UNL     1      -1.375   3.458  25.175  0.00  0.00    +0.229 C 
ATOM     17  C   UNL     1      -1.092   3.850  24.506  0.00  0.00    +0.188 C 
ATOM     18  O   UNL     1      -0.490   3.391  24.179  0.00  0.00    -0.348 OA
ATOM     19  C   UNL     1      -0.400   2.717  24.645  0.00  0.00    +0.168 C 
ENDROOT
BRANCH  12  11
ATOM      9  C   UNL     1       0.628   0.979  23.953  0.00  0.00    +0.265 C 
ATOM     10  O   UNL     1       0.018   0.466  24.169  0.00  0.00    -0.268 OA
ATOM     11  N   UNL     1       0.633   1.754  24.235  0.00  0.00    -0.198 NA
BRANCH   9   6
ATOM      3  C   UNL     1       2.441   0.190  22.466  0.00  0.00    +0.139 A 
ATOM      4  C   UNL     1       1.683  -0.128  22.396  0.00  0.00    +0.037 A 
ATOM      5  C   UNL     1       1.079   0.135  22.892  0.00  0.00    +0.008 A 
ATOM      6  C   UNL     1       1.232   0.716  23.458  0.00  0.00    +0.055 A 
ATOM      7  C   UNL     1       1.990   1.034  23.527  0.00  0.00    +0.008 A 
ATOM      8  C   UNL     1       2.595   0.771  23.030  0.00  0.00    +0.037 A 
BRANCH   3   2
ATOM      1  C   UNL     1       3.774   0.316  21.964  0.00  0.00    +0.252 C 
ATOM      2  O   UNL     1       3.046  -0.073  21.969  0.00  0.00    -0.471 OA
ENDBRANCH   3   2
ENDBRANCH   9   6
ENDBRANCH  12  11
BRANCH  16  20
ATOM     20  O   UNL     1      -1.979   3.721  25.671  0.00  0.00    -0.432 OA
BRANCH  20  21
ATOM     21  C   UNL     1      -2.767   3.646  25.437  0.00  0.00    +0.425 C 
ATOM     22  O   UNL     1      -3.016   3.964  24.718  0.00  0.00    -0.224 OA
ATOM     23  N   UNL     1      -3.306   3.254  25.923  0.00  0.00    -0.142 NA
BRANCH  23  24
ATOM     24  C   UNL     1      -4.094   3.179  25.689  0.00  0.00    +0.083 A 
ATOM     25  C   UNL     1      -4.644   3.754  25.902  0.00  0.00    +0.054 A 
ATOM     26  C   UNL     1      -5.431   3.679  25.669  0.00  0.00    +0.143 A 
ATOM     29  C   UNL     1      -5.669   3.027  25.221  0.00  0.00    +0.074 A 
ATOM     30  C   UNL     1      -5.118   2.451  25.008  0.00  0.00    +0.143 A 
ATOM     33  C   UNL     1      -4.331   2.527  25.242  0.00  0.00    +0.054 A 
BRANCH  26  27
ATOM     27  O   UNL     1      -5.982   4.256  25.882  0.00  0.00    -0.471 OA
ATOM     28  C   UNL     1      -6.120   4.899  25.385  0.00  0.00    +0.252 C 
ENDBRANCH  26  27
BRANCH  30  31
ATOM     31  O   UNL     1      -5.355   1.800  24.561  0.00  0.00    -0.471 OA
ATOM     32  C   UNL     1      -5.325   1.042  24.887  0.00  0.00    +0.252 C 
ENDBRANCH  30  31
ENDBRANCH  23  24
ENDBRANCH  20  21
ENDBRANCH  16  20
TORSDOF 8
ENDMDL
