MODEL 1
REMARK VINA RESULT:     -12.4      0.000      0.000
REMARK  Name = 
REMARK  5 active torsions:
REMARK  status: ('A' for Active; 'I' for Inactive)
REMARK    1  A    between atoms: N_2  and  C_4
REMARK    2  A    between atoms: C_4  and  C_5
REMARK    3  A    between atoms: N_7  and  C_8
REMARK    4  A    between atoms: N_20  and  C_21
REMARK    5  A    between atoms: C_24  and  C_27
REMARK                            x       y       z     vdW  Elec       q    Type
REMARK                         _______ _______ _______ _____ _____    ______ ____
ROOT
ATOM      8  C   UNL     1      -2.321   2.883  25.516  0.00  0.00    +0.129 A 
ATOM      9  C   UNL     1      -2.847   3.518  25.497  0.00  0.00    +0.023 A 
ATOM     10  C   UNL     1      -3.633   3.397  25.279  0.00  0.00    +0.014 A 
ATOM     11  C   UNL     1      -3.894   2.640  25.081  0.00  0.00    +0.041 A 
ATOM     12  C   UNL     1      -4.651   2.193  24.813  0.00  0.00    +0.058 C 
ATOM     13  C   UNL     1      -5.328   2.298  24.663  0.00  0.00    +0.011 C 
ATOM     14  C   UNL     1      -4.806   1.673  24.683  0.00  0.00    +0.043 C 
ATOM     15  C   UNL     1      -4.336   0.805  24.648  0.00  0.00    +0.097 C 
ATOM     16  N   UNL     1      -3.572   1.049  24.881  0.00  0.00    -0.262 N 
ATOM     17  C   UNL     1      -4.211   1.346  24.774  0.00  0.00    +0.101 C 
ATOM     18  C   UNL     1      -2.771   0.993  25.071  0.00  0.00    +0.327 C 
ATOM     19  O   UNL     1      -2.352   1.669  25.294  0.00  0.00    -0.250 OA
ATOM     20  N   UNL     1      -2.389   0.263  25.038  0.00  0.00    -0.162 NA
ATOM     30  C   UNL     1      -4.010   2.132  24.962  0.00  0.00    +0.110 C 
ATOM     31  N   UNL     1      -3.368   2.004  25.100  0.00  0.00    -0.298 N 
ATOM     32  C   UNL     1      -2.581   2.126  25.318  0.00  0.00    +0.276 A 
ATOM     33  O   UNL     1      -1.895   1.678  25.410  0.00  0.00    -0.266 OA
ENDROOT
BRANCH  20  21
ATOM     21  C   UNL     1      -2.807  -0.412  24.815  0.00  0.00    +0.075 A 
ATOM     22  C   UNL     1      -3.184  -0.871  25.387  0.00  0.00    +0.017 A 
ATOM     23  C   UNL     1      -3.602  -1.546  25.165  0.00  0.00    +0.004 A 
ATOM     24  C   UNL     1      -3.644  -1.762  24.369  0.00  0.00    +0.035 A 
ATOM     25  C   UNL     1      -3.267  -1.303  23.797  0.00  0.00    +0.004 A 
ATOM     26  C   UNL     1      -2.849  -0.628  24.019  0.00  0.00    +0.017 A 
BRANCH  24  27
ATOM     27  C   UNL     1      -4.062  -2.438  24.146  0.00  0.00    +0.173 C 
ATOM     28  C   UNL     1      -3.752  -3.186  24.305  0.00  0.00    +0.077 C 
ATOM     29  O   UNL     1      -4.790  -2.365  23.765  0.00  0.00    -0.291 OA
ENDBRANCH  24  27
ENDBRANCH  20  21
BRANCH   8   7
ATOM      5  C   UNL     1      -1.139   3.684  25.484  0.00  0.00    +0.262 C 
ATOM      6  O   UNL     1      -0.352   3.807  25.702  0.00  0.00    -0.271 OA
ATOM      7  N   UNL     1      -1.535   3.005  25.733  0.00  0.00    -0.173 NA
BRANCH   5   4
ATOM      4  C   UNL     1      -1.528   4.242  25.017  0.00  0.00    +0.161 C 
BRANCH   4   2
ATOM      1  C   UNL     1      -0.544   4.768  24.124  0.00  0.00    +0.090 C 
ATOM      2  N   UNL     1      -1.113   4.886  24.711  0.00  0.00    -0.263 NA
ATOM      3  C   UNL     1      -1.266   5.647  24.990  0.00  0.00    +0.090 C 
ENDBRANCH   4   2
ENDBRANCH   5   4
ENDBRANCH   8   7
TORSDOF 5
ENDMDL
MODEL 2
REMARK VINA RESULT:     -12.3      1.103      4.892
REMARK  Name = 
REMARK  5 active torsions:
REMARK  status: ('A' for Active; 'I' for Inactive)
REMARK    1  A    between atoms: N_2  and  C_4
REMARK    2  A    between atoms: C_4  and  C_5
REMARK    3  A    between atoms: N_7  and  C_8
REMARK    4  A    between atoms: N_20  and  C_21
REMARK    5  A    between atoms: C_24  and  C_27
REMARK                            x       y       z     vdW  Elec       q    Type
REMARK                         _______ _______ _______ _____ _____    ______ ____
ROOT
ATOM      8  C   UNL     1      -3.178  -0.350  25.020  0.00  0.00    +0.129 A 
ATOM      9  C   UNL     1      -3.984  -0.511  24.944  0.00  0.00    +0.023 A 
ATOM     10  C   UNL     1      -4.523   0.109  24.867  0.00  0.00    +0.014 A 
ATOM     11  C   UNL     1      -4.256   0.889  24.867  0.00  0.00    +0.041 A 
ATOM     12  C   UNL     1      -4.570   1.750  24.805  0.00  0.00    +0.058 C 
ATOM     13  C   UNL     1      -5.165   2.115  24.732  0.00  0.00    +0.011 C 
ATOM     14  C   UNL     1      -4.369   2.271  24.808  0.00  0.00    +0.043 C 
ATOM     15  C   UNL     1      -3.463   2.656  24.887  0.00  0.00    +0.097 C 
ATOM     16  N   UNL     1      -3.017   1.953  24.957  0.00  0.00    -0.262 N 
ATOM     17  C   UNL     1      -3.701   2.138  24.880  0.00  0.00    +0.101 C 
ATOM     18  C   UNL     1      -2.357   1.465  25.041  0.00  0.00    +0.327 C 
ATOM     19  O   UNL     1      -2.449   0.645  25.060  0.00  0.00    -0.250 OA
ATOM     20  N   UNL     1      -1.605   1.798  25.106  0.00  0.00    -0.162 NA
ATOM     30  C   UNL     1      -4.032   1.374  24.873  0.00  0.00    +0.110 C 
ATOM     31  N   UNL     1      -3.450   1.050  24.944  0.00  0.00    -0.298 N 
ATOM     32  C   UNL     1      -2.911   0.430  25.020  0.00  0.00    +0.276 A 
ATOM     33  O   UNL     1      -2.097   0.334  25.107  0.00  0.00    -0.266 OA
ENDROOT
BRANCH  20  21
ATOM     21  C   UNL     1      -1.512   2.617  25.087  0.00  0.00    +0.075 A 
ATOM     22  C   UNL     1      -1.546   3.052  25.787  0.00  0.00    +0.017 A 
ATOM     23  C   UNL     1      -1.453   3.871  25.769  0.00  0.00    +0.004 A 
ATOM     24  C   UNL     1      -1.328   4.256  25.050  0.00  0.00    +0.035 A 
ATOM     25  C   UNL     1      -1.294   3.821  24.350  0.00  0.00    +0.004 A 
ATOM     26  C   UNL     1      -1.387   3.002  24.368  0.00  0.00    +0.017 A 
BRANCH  24  27
ATOM     27  C   UNL     1      -1.235   5.076  25.031  0.00  0.00    +0.173 C 
ATOM     28  C   UNL     1      -0.563   5.407  24.687  0.00  0.00    +0.077 C 
ATOM     29  O   UNL     1      -1.815   5.563  25.356  0.00  0.00    -0.291 OA
ENDBRANCH  24  27
ENDBRANCH  20  21
BRANCH   8   7
ATOM      5  C   UNL     1      -2.844  -1.728  24.843  0.00  0.00    +0.262 C 
ATOM      6  O   UNL     1      -2.305  -2.349  24.920  0.00  0.00    -0.271 OA
ATOM      7  N   UNL     1      -2.640  -0.970  25.097  0.00  0.00    -0.173 NA
BRANCH   5   4
ATOM      4  C   UNL     1      -3.587  -1.866  24.513  0.00  0.00    +0.161 C 
BRANCH   4   2
ATOM      1  C   UNL     1      -4.132  -2.705  23.492  0.00  0.00    +0.090 C 
ATOM      2  N   UNL     1      -3.781  -2.619  24.234  0.00  0.00    -0.263 NA
ATOM      3  C   UNL     1      -3.625  -3.283  24.696  0.00  0.00    +0.090 C 
ENDBRANCH   4   2
ENDBRANCH   5   4
ENDBRANCH   8   7
TORSDOF 5
ENDMDL
MODEL 3
REMARK VINA RESULT:     -11.9      1.717      5.367
REMARK  Name = 
REMARK  5 active torsions:
REMARK  status: ('A' for Active; 'I' for Inactive)
REMARK    1  A    between atoms: N_2  and  C_4
REMARK    2  A    between atoms: C_4  and  C_5
REMARK    3  A    between atoms: N_7  and  C_8
REMARK    4  A    between atoms: N_20  and  C_21
REMARK    5  A    between atoms: C_24  and  C_27
REMARK                            x       y       z     vdW  Elec       q    Type
REMARK                         _______ _______ _______ _____ _____    ______ ____
ROOT
ATOM      8  C   UNL     1      -1.867  -0.824  25.216  0.00  0.00    +0.129 A 
ATOM      9  C   UNL     1      -1.390  -1.346  24.792  0.00  0.00    +0.023 A 
ATOM     10  C   UNL     1      -0.780  -1.055  24.317  0.00  0.00    +0.014 A 
ATOM     11  C   UNL     1      -0.649  -0.242  24.268  0.00  0.00    +0.041 A 
ATOM     12  C   UNL     1      -0.094   0.367  23.861  0.00  0.00    +0.058 C 
ATOM     13  C   UNL     1       0.451   0.407  23.421  0.00  0.00    +0.011 C 
ATOM     14  C   UNL     1      -0.022   0.920  23.842  0.00  0.00    +0.043 C 
ATOM     15  C   UNL     1      -0.478   1.687  24.266  0.00  0.00    +0.097 C 
ATOM     16  N   UNL     1      -1.058   1.278  24.708  0.00  0.00    -0.262 N 
ATOM     17  C   UNL     1      -0.524   1.119  24.263  0.00  0.00    +0.101 C 
ATOM     18  C   UNL     1      -1.696   1.162  25.218  0.00  0.00    +0.327 C 
ATOM     19  O   UNL     1      -1.961   0.396  25.379  0.00  0.00    -0.250 OA
ATOM     20  N   UNL     1      -2.069   1.809  25.567  0.00  0.00    -0.162 NA
ATOM     30  C   UNL     1      -0.606   0.290  24.271  0.00  0.00    +0.110 C 
ATOM     31  N   UNL     1      -1.126   0.280  24.693  0.00  0.00    -0.298 N 
ATOM     32  C   UNL     1      -1.735  -0.011  25.167  0.00  0.00    +0.276 A 
ATOM     33  O   UNL     1      -2.321   0.289  25.664  0.00  0.00    -0.266 OA
ENDROOT
BRANCH  20  21
ATOM     21  C   UNL     1      -1.804   2.574  25.406  0.00  0.00    +0.075 A 
ATOM     22  C   UNL     1      -2.144   3.007  24.792  0.00  0.00    +0.017 A 
ATOM     23  C   UNL     1      -1.880   3.771  24.631  0.00  0.00    +0.004 A 
ATOM     24  C   UNL     1      -1.276   4.103  25.085  0.00  0.00    +0.035 A 
ATOM     25  C   UNL     1      -0.936   3.670  25.699  0.00  0.00    +0.004 A 
ATOM     26  C   UNL     1      -1.200   2.906  25.860  0.00  0.00    +0.017 A 
BRANCH  24  27
ATOM     27  C   UNL     1      -1.011   4.869  24.924  0.00  0.00    +0.173 C 
ATOM     28  C   UNL     1      -1.509   5.513  25.058  0.00  0.00    +0.077 C 
ATOM     29  O   UNL     1      -0.251   4.988  24.629  0.00  0.00    -0.291 OA
ENDBRANCH  24  27
ENDBRANCH  20  21
BRANCH   8   7
ATOM      5  C   UNL     1      -3.027  -1.642  25.376  0.00  0.00    +0.262 C 
ATOM      6  O   UNL     1      -3.637  -1.934  25.851  0.00  0.00    -0.271 OA
ATOM      7  N   UNL     1      -2.476  -1.115  25.690  0.00  0.00    -0.173 NA
BRANCH   5   4
ATOM      4  C   UNL     1      -2.970  -1.878  24.588  0.00  0.00    +0.161 C 
BRANCH   4   2
ATOM      1  C   UNL     1      -3.567  -3.137  24.268  0.00  0.00    +0.090 C 
ATOM      2  N   UNL     1      -3.581  -2.312  24.242  0.00  0.00    -0.263 NA
ATOM      3  C   UNL     1      -4.206  -1.922  23.870  0.00  0.00    +0.090 C 
ENDBRANCH   4   2
ENDBRANCH   5   4
ENDBRANCH   8   7
TORSDOF 5
ENDMDL
MODEL 4
REMARK VINA RESULT:     -11.6      1.263      2.219
REMARK  Name = 
REMARK  5 active torsions:
REMARK  status: ('A' for Active; 'I' for Inactive)
REMARK    1  A    between atoms: N_2  and  C_4
REMARK    2  A    between atoms: C_4  and  C_5
REMARK    3  A    between atoms: N_7  and  C_8
REMARK    4  A    between atoms: N_20  and  C_21
REMARK    5  A    between atoms: C_24  and  C_27
REMARK                            x       y       z     vdW  Elec       q    Type
REMARK                         _______ _______ _______ _____ _____    ______ ____
ROOT
ATOM      8  C   UNL     1      -1.527   2.549  25.481  0.00  0.00    +0.129 A 
ATOM      9  C   UNL     1      -0.738   2.699  25.293  0.00  0.00    +0.023 A 
ATOM     10  C   UNL     1      -0.291   2.126  24.902  0.00  0.00    +0.014 A 
ATOM     11  C   UNL     1      -0.633   1.403  24.700  0.00  0.00    +0.041 A 
ATOM     12  C   UNL     1      -0.428   0.607  24.290  0.00  0.00    +0.058 C 
ATOM     13  C   UNL     1       0.101   0.270  23.975  0.00  0.00    +0.011 C 
ATOM     14  C   UNL     1      -0.679   0.125  24.163  0.00  0.00    +0.043 C 
ATOM     15  C   UNL     1      -1.590  -0.233  24.300  0.00  0.00    +0.097 C 
ATOM     16  N   UNL     1      -1.938   0.418  24.692  0.00  0.00    -0.262 N 
ATOM     17  C   UNL     1      -1.304   0.247  24.416  0.00  0.00    +0.101 C 
ATOM     18  C   UNL     1      -2.516   0.868  25.072  0.00  0.00    +0.327 C 
ATOM     19  O   UNL     1      -2.336   1.627  25.342  0.00  0.00    -0.250 OA
ATOM     20  N   UNL     1      -3.273   0.560  25.181  0.00  0.00    -0.162 NA
ATOM     30  C   UNL     1      -0.902   0.954  24.592  0.00  0.00    +0.110 C 
ATOM     31  N   UNL     1      -1.422   1.254  24.888  0.00  0.00    -0.298 N 
ATOM     32  C   UNL     1      -1.869   1.827  25.279  0.00  0.00    +0.276 A 
ATOM     33  O   UNL     1      -2.638   1.915  25.563  0.00  0.00    -0.266 OA
ENDROOT
BRANCH  20  21
ATOM     21  C   UNL     1      -3.453  -0.199  24.912  0.00  0.00    +0.075 A 
ATOM     22  C   UNL     1      -3.748  -0.306  24.149  0.00  0.00    +0.017 A 
ATOM     23  C   UNL     1      -3.928  -1.064  23.879  0.00  0.00    +0.004 A 
ATOM     24  C   UNL     1      -3.813  -1.716  24.372  0.00  0.00    +0.035 A 
ATOM     25  C   UNL     1      -3.517  -1.608  25.135  0.00  0.00    +0.004 A 
ATOM     26  C   UNL     1      -3.337  -0.851  25.405  0.00  0.00    +0.017 A 
BRANCH  24  27
ATOM     27  C   UNL     1      -3.993  -2.475  24.101  0.00  0.00    +0.173 C 
ATOM     28  C   UNL     1      -3.562  -3.122  24.376  0.00  0.00    +0.077 C 
ATOM     29  O   UNL     1      -4.603  -2.584  23.558  0.00  0.00    -0.291 OA
ENDBRANCH  24  27
ENDBRANCH  20  21
BRANCH   8   7
ATOM      5  C   UNL     1      -1.894   3.917  25.666  0.00  0.00    +0.262 C 
ATOM      6  O   UNL     1      -2.341   4.491  26.058  0.00  0.00    -0.271 OA
ATOM      7  N   UNL     1      -1.973   3.122  25.871  0.00  0.00    -0.173 NA
BRANCH   5   4
ATOM      4  C   UNL     1      -1.368   4.140  25.070  0.00  0.00    +0.161 C 
BRANCH   4   2
ATOM      1  C   UNL     1      -2.002   5.295  24.517  0.00  0.00    +0.090 C 
ATOM      2  N   UNL     1      -1.331   4.927  24.826  0.00  0.00    -0.263 NA
ATOM      3  C   UNL     1      -0.624   5.346  24.890  0.00  0.00    +0.090 C 
ENDBRANCH   4   2
ENDBRANCH   5   4
ENDBRANCH   8   7
TORSDOF 5
ENDMDL
MODEL 5
REMARK VINA RESULT:     -11.1      1.713      2.238
REMARK  Name = 
REMARK  5 active torsions:
REMARK  status: ('A' for Active; 'I' for Inactive)
REMARK    1  A    between atoms: N_2  and  C_4
REMARK    2  A    between atoms: C_4  and  C_5
REMARK    3  A    between atoms: N_7  and  C_8
REMARK    4  A    between atoms: N_20  and  C_21
REMARK    5  A    between atoms: C_24  and  C_27
REMARK                            x       y       z     vdW  Elec       q    Type
REMARK                         _______ _______ _______ _____ _____    ______ ____
ROOT
ATOM      8  C   UNL     1      -4.253   2.825  24.585  0.00  0.00    +0.129 A 
ATOM      9  C   UNL     1      -3.903   3.339  24.042  0.00  0.00    +0.023 A 
ATOM     10  C   UNL     1      -3.406   3.043  23.454  0.00  0.00    +0.014 A 
ATOM     11  C   UNL     1      -3.259   2.233  23.409  0.00  0.00    +0.041 A 
ATOM     12  C   UNL     1      -2.788   1.619  22.912  0.00  0.00    +0.058 C 
ATOM     13  C   UNL     1      -2.355   1.573  22.362  0.00  0.00    +0.011 C 
ATOM     14  C   UNL     1      -2.701   1.069  22.899  0.00  0.00    +0.043 C 
ATOM     15  C   UNL     1      -3.021   0.311  23.447  0.00  0.00    +0.097 C 
ATOM     16  N   UNL     1      -3.501   0.724  23.992  0.00  0.00    -0.262 N 
ATOM     17  C   UNL     1      -3.088   0.876  23.432  0.00  0.00    +0.101 C 
ATOM     18  C   UNL     1      -4.011   0.848  24.628  0.00  0.00    +0.327 C 
ATOM     19  O   UNL     1      -4.262   1.612  24.814  0.00  0.00    -0.250 OA
ATOM     20  N   UNL     1      -4.271   0.208  25.079  0.00  0.00    -0.162 NA
ATOM     30  C   UNL     1      -3.197   1.702  23.424  0.00  0.00    +0.110 C 
ATOM     31  N   UNL     1      -3.608   1.719  23.952  0.00  0.00    -0.298 N 
ATOM     32  C   UNL     1      -4.105   2.015  24.540  0.00  0.00    +0.276 A 
ATOM     33  O   UNL     1      -4.552   1.724  25.169  0.00  0.00    -0.266 OA
ENDROOT
BRANCH  20  21
ATOM     21  C   UNL     1      -4.022  -0.556  24.894  0.00  0.00    +0.075 A 
ATOM     22  C   UNL     1      -3.374  -0.884  25.286  0.00  0.00    +0.017 A 
ATOM     23  C   UNL     1      -3.124  -1.648  25.102  0.00  0.00    +0.004 A 
ATOM     24  C   UNL     1      -3.521  -2.084  24.524  0.00  0.00    +0.035 A 
ATOM     25  C   UNL     1      -4.168  -1.756  24.133  0.00  0.00    +0.004 A 
ATOM     26  C   UNL     1      -4.419  -0.992  24.317  0.00  0.00    +0.017 A 
BRANCH  24  27
ATOM     27  C   UNL     1      -3.271  -2.849  24.340  0.00  0.00    +0.173 C 
ATOM     28  C   UNL     1      -2.465  -3.015  24.280  0.00  0.00    +0.077 C 
ATOM     29  O   UNL     1      -3.826  -3.445  24.215  0.00  0.00    -0.291 OA
ENDBRANCH  24  27
ENDBRANCH  20  21
BRANCH   8   7
ATOM      5  C   UNL     1      -4.469   3.687  25.704  0.00  0.00    +0.262 C 
ATOM      6  O   UNL     1      -4.966   3.984  26.292  0.00  0.00    -0.271 OA
ATOM      7  N   UNL     1      -4.750   3.123  25.172  0.00  0.00    -0.173 NA
BRANCH   5   4
ATOM      4  C   UNL     1      -3.690   3.954  25.649  0.00  0.00    +0.161 C 
BRANCH   4   2
ATOM      1  C   UNL     1      -3.327   5.214  26.217  0.00  0.00    +0.090 C 
ATOM      2  N   UNL     1      -3.359   4.391  26.267  0.00  0.00    -0.263 NA
ATOM      3  C   UNL     1      -3.062   4.005  26.932  0.00  0.00    +0.090 C 
ENDBRANCH   4   2
ENDBRANCH   5   4
ENDBRANCH   8   7
TORSDOF 5
ENDMDL
MODEL 6
REMARK VINA RESULT:     -11.0      2.204      3.959
REMARK  Name = 
REMARK  5 active torsions:
REMARK  status: ('A' for Active; 'I' for Inactive)
REMARK    1  A    between atoms: N_2  and  C_4
REMARK    2  A    between atoms: C_4  and  C_5
REMARK    3  A    between atoms: N_7  and  C_8
REMARK    4  A    between atoms: N_20  and  C_21
REMARK    5  A    between atoms: C_24  and  C_27
REMARK                            x       y       z     vdW  Elec       q    Type
REMARK                         _______ _______ _______ _____ _____    ______ ____
ROOT
ATOM      8  C   UNL     1      -0.456   0.467  24.416  0.00  0.00    +0.129 A 
ATOM      9  C   UNL     1      -0.301  -0.338  24.509  0.00  0.00    +0.023 A 
ATOM     10  C   UNL     1      -0.911  -0.855  24.712  0.00  0.00    +0.014 A 
ATOM     11  C   UNL     1      -1.676  -0.566  24.823  0.00  0.00    +0.041 A 
ATOM     12  C   UNL     1      -2.522  -0.852  25.039  0.00  0.00    +0.058 C 
ATOM     13  C   UNL     1      -2.882  -1.432  25.201  0.00  0.00    +0.011 C 
ATOM     14  C   UNL     1      -3.031  -0.637  25.109  0.00  0.00    +0.043 C 
ATOM     15  C   UNL     1      -3.406   0.275  25.045  0.00  0.00    +0.097 C 
ATOM     16  N   UNL     1      -2.714   0.696  24.840  0.00  0.00    -0.262 N 
ATOM     17  C   UNL     1      -2.899   0.023  24.981  0.00  0.00    +0.101 C 
ATOM     18  C   UNL     1      -2.233   1.338  24.644  0.00  0.00    +0.327 C 
ATOM     19  O   UNL     1      -1.429   1.222  24.498  0.00  0.00    -0.250 OA
ATOM     20  N   UNL     1      -2.556   2.095  24.593  0.00  0.00    -0.162 NA
ATOM     30  C   UNL     1      -2.151  -0.329  24.883  0.00  0.00    +0.110 C 
ATOM     31  N   UNL     1      -1.830   0.239  24.731  0.00  0.00    -0.298 N 
ATOM     32  C   UNL     1      -1.220   0.756  24.527  0.00  0.00    +0.276 A 
ATOM     33  O   UNL     1      -1.122   1.562  24.384  0.00  0.00    -0.266 OA
ENDROOT
BRANCH  20  21
ATOM     21  C   UNL     1      -3.360   2.212  24.739  0.00  0.00    +0.075 A 
ATOM     22  C   UNL     1      -3.904   2.154  24.121  0.00  0.00    +0.017 A 
ATOM     23  C   UNL     1      -4.707   2.270  24.265  0.00  0.00    +0.004 A 
ATOM     24  C   UNL     1      -4.967   2.445  25.029  0.00  0.00    +0.035 A 
ATOM     25  C   UNL     1      -4.424   2.503  25.647  0.00  0.00    +0.004 A 
ATOM     26  C   UNL     1      -3.621   2.386  25.502  0.00  0.00    +0.017 A 
BRANCH  24  27
ATOM     27  C   UNL     1      -5.772   2.561  25.174  0.00  0.00    +0.173 C 
ATOM     28  C   UNL     1      -6.311   1.961  25.008  0.00  0.00    +0.077 C 
ATOM     29  O   UNL     1      -6.034   3.279  25.485  0.00  0.00    -0.291 OA
ENDBRANCH  24  27
ENDBRANCH  20  21
BRANCH   8   7
ATOM      5  C   UNL     1       0.722   0.754  23.660  0.00  0.00    +0.262 C 
ATOM      6  O   UNL     1       1.333   1.271  23.457  0.00  0.00    -0.271 OA
ATOM      7  N   UNL     1       0.155   0.983  24.213  0.00  0.00    -0.173 NA
BRANCH   5   4
ATOM      4  C   UNL     1       0.679   0.008  23.310  0.00  0.00    +0.161 C 
BRANCH   4   2
ATOM      1  C   UNL     1       2.010  -0.249  22.857  0.00  0.00    +0.090 C 
ATOM      2  N   UNL     1       1.202  -0.193  22.703  0.00  0.00    -0.263 NA
ATOM      3  C   UNL     1       0.915  -0.338  21.943  0.00  0.00    +0.090 C 
ENDBRANCH   4   2
ENDBRANCH   5   4
ENDBRANCH   8   7
TORSDOF 5
ENDMDL
MODEL 7
REMARK VINA RESULT:     -10.6      2.387      3.858
REMARK  Name = 
REMARK  5 active torsions:
REMARK  status: ('A' for Active; 'I' for Inactive)
REMARK    1  A    between atoms: N_2  and  C_4
REMARK    2  A    between atoms: C_4  and  C_5
REMARK    3  A    between atoms: N_7  and  C_8
REMARK    4  A    between atoms: N_20  and  C_21
REMARK    5  A    between atoms: C_24  and  C_27
REMARK                            x       y       z     vdW  Elec       q    Type
REMARK                         _______ _______ _______ _____ _____    ______ ____
ROOT
ATOM      8  C   UNL     1      -0.325   0.608  24.341  0.00  0.00    +0.129 A 
ATOM      9  C   UNL     1       0.305   1.119  24.492  0.00  0.00    +0.023 A 
ATOM     10  C   UNL     1       0.159   1.887  24.756  0.00  0.00    +0.014 A 
ATOM     11  C   UNL     1      -0.616   2.144  24.868  0.00  0.00    +0.041 A 
ATOM     12  C   UNL     1      -1.092   2.885  25.133  0.00  0.00    +0.058 C 
ATOM     13  C   UNL     1      -1.004   3.546  25.352  0.00  0.00    +0.011 C 
ATOM     14  C   UNL     1      -1.623   3.038  25.202  0.00  0.00    +0.043 C 
ATOM     15  C   UNL     1      -2.491   2.583  25.077  0.00  0.00    +0.097 C 
ATOM     16  N   UNL     1      -2.222   1.836  24.817  0.00  0.00    -0.262 N 
ATOM     17  C   UNL     1      -1.938   2.459  25.017  0.00  0.00    +0.101 C 
ATOM     18  C   UNL     1      -2.255   1.054  24.555  0.00  0.00    +0.327 C 
ATOM     19  O   UNL     1      -1.558   0.643  24.394  0.00  0.00    -0.250 OA
ATOM     20  N   UNL     1      -2.985   0.684  24.455  0.00  0.00    -0.162 NA
ATOM     30  C   UNL     1      -1.135   2.260  24.924  0.00  0.00    +0.110 C 
ATOM     31  N   UNL     1      -1.246   1.633  24.717  0.00  0.00    -0.298 N 
ATOM     32  C   UNL     1      -1.100   0.865  24.453  0.00  0.00    +0.276 A 
ATOM     33  O   UNL     1      -1.535   0.196  24.243  0.00  0.00    -0.266 OA
ENDROOT
BRANCH  20  21
ATOM     21  C   UNL     1      -3.682   1.095  24.616  0.00  0.00    +0.075 A 
ATOM     22  C   UNL     1      -4.053   1.007  25.348  0.00  0.00    +0.017 A 
ATOM     23  C   UNL     1      -4.749   1.417  25.510  0.00  0.00    +0.004 A 
ATOM     24  C   UNL     1      -5.076   1.916  24.939  0.00  0.00    +0.035 A 
ATOM     25  C   UNL     1      -4.705   2.004  24.208  0.00  0.00    +0.004 A 
ATOM     26  C   UNL     1      -4.009   1.594  24.046  0.00  0.00    +0.017 A 
BRANCH  24  27
ATOM     27  C   UNL     1      -5.774   2.326  25.101  0.00  0.00    +0.173 C 
ATOM     28  C   UNL     1      -5.742   3.058  25.480  0.00  0.00    +0.077 C 
ATOM     29  O   UNL     1      -6.501   2.004  24.883  0.00  0.00    -0.291 OA
ENDBRANCH  24  27
ENDBRANCH  20  21
BRANCH   8   7
ATOM      5  C   UNL     1       0.445  -0.305  23.557  0.00  0.00    +0.262 C 
ATOM      6  O   UNL     1       0.591  -1.074  23.294  0.00  0.00    -0.271 OA
ATOM      7  N   UNL     1      -0.178  -0.159  24.078  0.00  0.00    -0.173 NA
BRANCH   5   4
ATOM      4  C   UNL     1       0.921   0.317  23.299  0.00  0.00    +0.161 C 
BRANCH   4   2
ATOM      1  C   UNL     1       1.328  -0.096  21.992  0.00  0.00    +0.090 C 
ATOM      2  N   UNL     1       1.519   0.177  22.747  0.00  0.00    -0.263 NA
ATOM      3  C   UNL     1       2.308   0.309  22.951  0.00  0.00    +0.090 C 
ENDBRANCH   4   2
ENDBRANCH   5   4
ENDBRANCH   8   7
TORSDOF 5
ENDMDL
