REMARK  Name = 
REMARK  6 active torsions:
REMARK  status: ('A' for Active; 'I' for Inactive)
REMARK    1  A    between atoms: C_2  and  N_4
REMARK    2  A    between atoms: N_7  and  C_8
REMARK    3  A    between atoms: C_8  and  C_9
REMARK    4  A    between atoms: C_11  and  C_12
REMARK    5  A    between atoms: C_12  and  C_13
REMARK    6  A    between atoms: C_15  and  C_18
REMARK                            x       y       z     vdW  Elec       q    Type
REMARK                         _______ _______ _______ _____ _____    ______ ____
ROOT
ATOM      9  C   UNL     1       4.576  -9.193   0.000  0.00  0.00    +0.170 C 
ATOM     10  O   UNL     1       5.330  -8.858   0.000  0.00  0.00    -0.351 OA
ATOM     11  C   UNL     1       5.882  -9.471   0.000  0.00  0.00    +0.157 C 
ATOM     25  C   UNL     1       5.469 -10.185   0.000  0.00  0.00    +0.212 C 
ATOM     26  O   UNL     1       5.805 -10.939   0.000  0.00  0.00    -0.218 OA
ATOM     27  C   UNL     1       4.662 -10.014   0.000  0.00  0.00    +0.213 C 
ATOM     28  O   UNL     1       4.049 -10.566   0.000  0.00  0.00    -0.218 OA
ENDROOT
BRANCH   9   8
ATOM      8  C   UNL     1       3.862  -8.781   0.000  0.00  0.00    +0.149 C 
BRANCH   8   7
ATOM      4  N   UNL     1       1.718  -9.193   0.000  0.00  0.00    -0.189 NA
ATOM      5  C   UNL     1       2.433  -8.781   0.000  0.00  0.00    +0.339 C 
ATOM      6  O   UNL     1       2.433  -7.956   0.000  0.00  0.00    -0.249 OA
ATOM      7  N   UNL     1       3.147  -9.193   0.000  0.00  0.00    -0.185 NA
BRANCH   4   2
ATOM      1  C   UNL     1       0.289  -9.193   0.000  0.00  0.00    +0.023 C 
ATOM      2  C   UNL     1       1.004  -8.781   0.000  0.00  0.00    +0.097 C 
ATOM      3  C   UNL     1       1.004  -7.956   0.000  0.00  0.00    +0.023 C 
ENDBRANCH   4   2
ENDBRANCH   8   7
ENDBRANCH   9   8
BRANCH  11  12
ATOM     12  C   UNL     1       6.702  -9.384   0.000  0.00  0.00    +0.120 C 
BRANCH  12  13
ATOM     13  C   UNL     1       7.187 -10.052   0.000  0.00  0.00    +0.239 A 
ATOM     14  N   UNL     1       8.012 -10.052   0.000  0.00  0.00    -0.191 NA
ATOM     15  C   UNL     1       8.267 -10.837   0.000  0.00  0.00    +0.203 A 
ATOM     16  N   UNL     1       7.600 -11.322   0.000  0.00  0.00    -0.056 NA
ATOM     17  O   UNL     1       6.932 -10.837   0.000  0.00  0.00    -0.337 OA
BRANCH  15  18
ATOM     18  C   UNL     1       9.052 -11.091   0.000  0.00  0.00    +0.039 A 
ATOM     19  C   UNL     1       9.665 -10.540   0.000  0.00  0.00    +0.005 A 
ATOM     20  C   UNL     1      10.450 -10.794   0.000  0.00  0.00    +0.030 A 
ATOM     21  C   UNL     1      10.621 -11.601   0.000  0.00  0.00    +0.140 A 
ATOM     22  F   UNL     1      11.406 -11.856   0.000  0.00  0.00    -0.204 F 
ATOM     23  C   UNL     1      10.008 -12.153   0.000  0.00  0.00    +0.030 A 
ATOM     24  C   UNL     1       9.223 -11.899   0.000  0.00  0.00    +0.005 A 
ENDBRANCH  15  18
ENDBRANCH  12  13
ENDBRANCH  11  12
TORSDOF 6
