MODEL 1
REMARK VINA RESULT:      -8.4      0.000      0.000
REMARK  Name = 
REMARK  7 active torsions:
REMARK  status: ('A' for Active; 'I' for Inactive)
REMARK    1  A    between atoms: N_4  and  C_5
REMARK    2  A    between atoms: C_8  and  C_9
REMARK    3  A    between atoms: C_9  and  N_10
REMARK    4  A    between atoms: N_10  and  C_11
REMARK    5  A    between atoms: C_14  and  C_15
REMARK    6  A    between atoms: C_15  and  N_16
REMARK    7  A    between atoms: N_16  and  S_17
REMARK                            x       y       z     vdW  Elec       q    Type
REMARK                         _______ _______ _______ _____ _____    ______ ____
ROOT
ATOM     10  N   UNL     1      -3.817   1.405  24.411  0.00  0.00    -0.209 NA
ENDROOT
BRANCH  10  11
ATOM     11  C   UNL     1      -3.571   2.153  24.659  0.00  0.00    +0.135 C 
ATOM     12  C   UNL     1      -3.905   2.596  25.269  0.00  0.00    +0.162 C 
ATOM     13  O   UNL     1      -3.488   3.306  25.326  0.00  0.00    -0.350 OA
ATOM     14  C   UNL     1      -2.897   3.302  24.751  0.00  0.00    +0.166 C 
ATOM     21  C   UNL     1      -2.948   2.589  24.338  0.00  0.00    +0.199 C 
ATOM     22  O   UNL     1      -2.462   2.354  23.715  0.00  0.00    -0.219 OA
BRANCH  14  15
ATOM     15  C   UNL     1      -2.350   3.904  24.613  0.00  0.00    +0.147 C 
BRANCH  15  16
ATOM     16  N   UNL     1      -1.977   4.277  25.247  0.00  0.00    -0.079 NA
BRANCH  16  17
ATOM     17  S   UNL     1      -1.389   4.839  25.107  0.00  0.00    +0.059 S 
ATOM     18  C   UNL     1      -0.801   5.400  24.968  0.00  0.00    +0.197 C 
ATOM     19  O   UNL     1      -0.811   4.267  25.246  0.00  0.00    -0.156 OA
ATOM     20  O   UNL     1      -1.968   5.411  24.969  0.00  0.00    -0.156 OA
ENDBRANCH  16  17
ENDBRANCH  15  16
ENDBRANCH  14  15
ENDBRANCH  10  11
BRANCH  10   9
ATOM      9  C   UNL     1      -4.187   0.896  24.944  0.00  0.00    +0.115 C 
BRANCH   9   8
ATOM      5  C   UNL     1      -3.960  -1.553  24.674  0.00  0.00    +0.073 A 
ATOM      6  C   UNL     1      -3.740  -1.195  25.384  0.00  0.00    +0.016 A 
ATOM      7  C   UNL     1      -3.815  -0.378  25.474  0.00  0.00    -0.002 A 
ATOM      8  C   UNL     1      -4.111   0.080  24.854  0.00  0.00    -0.005 A 
ATOM     23  C   UNL     1      -4.330  -0.280  24.145  0.00  0.00    -0.002 A 
ATOM     24  C   UNL     1      -4.255  -1.096  24.055  0.00  0.00    +0.016 A 
BRANCH   5   4
ATOM      1  C   UNL     1      -3.074  -3.516  24.314  0.00  0.00    +0.097 C 
ATOM      2  C   UNL     1      -3.150  -2.699  24.404  0.00  0.00    +0.246 C 
ATOM      3  O   UNL     1      -2.491  -2.211  24.314  0.00  0.00    -0.273 OA
ATOM      4  N   UNL     1      -3.884  -2.370  24.584  0.00  0.00    -0.179 NA
ENDBRANCH   5   4
ENDBRANCH   9   8
ENDBRANCH  10   9
TORSDOF 7
ENDMDL
MODEL 2
REMARK VINA RESULT:      -8.2      1.889      5.686
REMARK  Name = 
REMARK  7 active torsions:
REMARK  status: ('A' for Active; 'I' for Inactive)
REMARK    1  A    between atoms: N_4  and  C_5
REMARK    2  A    between atoms: C_8  and  C_9
REMARK    3  A    between atoms: C_9  and  N_10
REMARK    4  A    between atoms: N_10  and  C_11
REMARK    5  A    between atoms: C_14  and  C_15
REMARK    6  A    between atoms: C_15  and  N_16
REMARK    7  A    between atoms: N_16  and  S_17
REMARK                            x       y       z     vdW  Elec       q    Type
REMARK                         _______ _______ _______ _____ _____    ______ ____
ROOT
ATOM     10  N   UNL     1      -3.737   1.838  24.463  0.00  0.00    -0.209 NA
ENDROOT
BRANCH  10  11
ATOM     11  C   UNL     1      -3.959   1.049  24.555  0.00  0.00    +0.135 C 
ATOM     12  C   UNL     1      -4.541   0.765  25.065  0.00  0.00    +0.162 C 
ATOM     13  O   UNL     1      -4.580  -0.055  24.978  0.00  0.00    -0.350 OA
ATOM     14  C   UNL     1      -4.021  -0.278  24.413  0.00  0.00    +0.166 C 
ATOM     21  C   UNL     1      -3.637   0.404  24.151  0.00  0.00    +0.199 C 
ATOM     22  O   UNL     1      -3.038   0.436  23.586  0.00  0.00    -0.219 OA
BRANCH  14  15
ATOM     15  C   UNL     1      -3.873  -1.047  24.155  0.00  0.00    +0.147 C 
BRANCH  15  16
ATOM     16  N   UNL     1      -4.046  -1.687  24.645  0.00  0.00    -0.079 NA
BRANCH  16  17
ATOM     17  S   UNL     1      -3.783  -2.443  24.445  0.00  0.00    +0.059 S 
ATOM     18  C   UNL     1      -3.520  -3.199  24.244  0.00  0.00    +0.197 C 
ATOM     19  O   UNL     1      -4.307  -2.457  23.808  0.00  0.00    -0.156 OA
ATOM     20  O   UNL     1      -3.258  -2.429  25.082  0.00  0.00    -0.156 OA
ENDBRANCH  16  17
ENDBRANCH  15  16
ENDBRANCH  14  15
ENDBRANCH  10  11
BRANCH  10   9
ATOM      9  C   UNL     1      -3.789   2.357  25.101  0.00  0.00    +0.115 C 
BRANCH   9   8
ATOM      5  C   UNL     1      -2.327   4.352  25.193  0.00  0.00    +0.073 A 
ATOM      6  C   UNL     1      -2.889   4.281  24.594  0.00  0.00    +0.016 A 
ATOM      7  C   UNL     1      -3.376   3.616  24.563  0.00  0.00    -0.002 A 
ATOM      8  C   UNL     1      -3.301   3.022  25.132  0.00  0.00    -0.005 A 
ATOM     23  C   UNL     1      -2.739   3.095  25.731  0.00  0.00    -0.002 A 
ATOM     24  C   UNL     1      -2.252   3.760  25.762  0.00  0.00    +0.016 A 
BRANCH   5   4
ATOM      1  C   UNL     1      -0.592   5.652  24.937  0.00  0.00    +0.097 C 
ATOM      2  C   UNL     1      -1.079   4.987  24.907  0.00  0.00    +0.246 C 
ATOM      3  O   UNL     1      -0.806   4.291  24.558  0.00  0.00    -0.273 OA
ATOM      4  N   UNL     1      -1.840   5.017  25.224  0.00  0.00    -0.179 NA
ENDBRANCH   5   4
ENDBRANCH   9   8
ENDBRANCH  10   9
TORSDOF 7
ENDMDL
MODEL 3
REMARK VINA RESULT:      -7.7      2.498      6.035
REMARK  Name = 
REMARK  7 active torsions:
REMARK  status: ('A' for Active; 'I' for Inactive)
REMARK    1  A    between atoms: N_4  and  C_5
REMARK    2  A    between atoms: C_8  and  C_9
REMARK    3  A    between atoms: C_9  and  N_10
REMARK    4  A    between atoms: N_10  and  C_11
REMARK    5  A    between atoms: C_14  and  C_15
REMARK    6  A    between atoms: C_15  and  N_16
REMARK    7  A    between atoms: N_16  and  S_17
REMARK                            x       y       z     vdW  Elec       q    Type
REMARK                         _______ _______ _______ _____ _____    ______ ____
ROOT
ATOM     10  N   UNL     1      -1.131   0.730  25.513  0.00  0.00    -0.209 NA
ENDROOT
BRANCH  10  11
ATOM     11  C   UNL     1      -1.344  -0.032  25.277  0.00  0.00    +0.135 C 
ATOM     12  C   UNL     1      -0.852  -0.580  24.906  0.00  0.00    +0.162 C 
ATOM     13  O   UNL     1      -1.291  -1.266  24.770  0.00  0.00    -0.350 OA
ATOM     14  C   UNL     1      -2.054  -1.141  25.058  0.00  0.00    +0.166 C 
ATOM     21  C   UNL     1      -2.088  -0.378  25.371  0.00  0.00    +0.199 C 
ATOM     22  O   UNL     1      -2.747  -0.025  25.717  0.00  0.00    -0.219 OA
BRANCH  14  15
ATOM     15  C   UNL     1      -2.675  -1.684  25.035  0.00  0.00    +0.147 C 
BRANCH  15  16
ATOM     16  N   UNL     1      -2.803  -2.137  24.359  0.00  0.00    -0.079 NA
BRANCH  16  17
ATOM     17  S   UNL     1      -3.484  -2.598  24.294  0.00  0.00    +0.059 S 
ATOM     18  C   UNL     1      -4.165  -3.059  24.229  0.00  0.00    +0.197 C 
ATOM     19  O   UNL     1      -3.773  -2.090  23.712  0.00  0.00    -0.156 OA
ATOM     20  O   UNL     1      -3.195  -3.107  24.877  0.00  0.00    -0.156 OA
ENDBRANCH  16  17
ENDBRANCH  15  16
ENDBRANCH  14  15
ENDBRANCH  10  11
BRANCH  10   9
ATOM      9  C   UNL     1      -0.566   1.151  25.086  0.00  0.00    +0.115 C 
BRANCH   9   8
ATOM      5  C   UNL     1      -0.637   3.624  25.043  0.00  0.00    +0.073 A 
ATOM      6  C   UNL     1      -0.661   3.199  24.337  0.00  0.00    +0.016 A 
ATOM      7  C   UNL     1      -0.638   2.375  24.351  0.00  0.00    -0.002 A 
ATOM      8  C   UNL     1      -0.590   1.975  25.072  0.00  0.00    -0.005 A 
ATOM     23  C   UNL     1      -0.565   2.401  25.778  0.00  0.00    -0.002 A 
ATOM     24  C   UNL     1      -0.588   3.226  25.763  0.00  0.00    +0.016 A 
BRANCH   5   4
ATOM      1  C   UNL     1      -1.406   5.667  25.069  0.00  0.00    +0.097 C 
ATOM      2  C   UNL     1      -1.383   4.842  25.083  0.00  0.00    +0.246 C 
ATOM      3  O   UNL     1      -2.082   4.410  25.151  0.00  0.00    -0.273 OA
ATOM      4  N   UNL     1      -0.660   4.449  25.029  0.00  0.00    -0.179 NA
ENDBRANCH   5   4
ENDBRANCH   9   8
ENDBRANCH  10   9
TORSDOF 7
ENDMDL
MODEL 4
REMARK VINA RESULT:      -7.7      3.316      4.562
REMARK  Name = 
REMARK  7 active torsions:
REMARK  status: ('A' for Active; 'I' for Inactive)
REMARK    1  A    between atoms: N_4  and  C_5
REMARK    2  A    between atoms: C_8  and  C_9
REMARK    3  A    between atoms: C_9  and  N_10
REMARK    4  A    between atoms: N_10  and  C_11
REMARK    5  A    between atoms: C_14  and  C_15
REMARK    6  A    between atoms: C_15  and  N_16
REMARK    7  A    between atoms: N_16  and  S_17
REMARK                            x       y       z     vdW  Elec       q    Type
REMARK                         _______ _______ _______ _____ _____    ______ ____
ROOT
ATOM     10  N   UNL     1      -1.904   0.759  24.388  0.00  0.00    -0.209 NA
ENDROOT
BRANCH  10  11
ATOM     11  C   UNL     1      -1.201   0.402  24.147  0.00  0.00    +0.135 C 
ATOM     12  C   UNL     1      -1.033  -0.406  24.172  0.00  0.00    +0.162 C 
ATOM     13  O   UNL     1      -0.270  -0.517  23.878  0.00  0.00    -0.350 OA
ATOM     14  C   UNL     1       0.034   0.221  23.672  0.00  0.00    +0.166 C 
ATOM     21  C   UNL     1      -0.541   0.790  23.838  0.00  0.00    +0.199 C 
ATOM     22  O   UNL     1      -0.469   1.602  23.716  0.00  0.00    -0.219 OA
BRANCH  14  15
ATOM     15  C   UNL     1       0.782   0.367  23.355  0.00  0.00    +0.147 C 
BRANCH  15  16
ATOM     16  N   UNL     1       1.180  -0.229  22.947  0.00  0.00    -0.079 NA
BRANCH  16  17
ATOM     17  S   UNL     1       1.899  -0.065  22.575  0.00  0.00    +0.059 S 
ATOM     18  C   UNL     1       2.617   0.099  22.204  0.00  0.00    +0.197 C 
ATOM     19  O   UNL     1       2.237   0.109  23.307  0.00  0.00    -0.156 OA
ATOM     20  O   UNL     1       1.560  -0.238  21.843  0.00  0.00    -0.156 OA
ENDBRANCH  16  17
ENDBRANCH  15  16
ENDBRANCH  14  15
ENDBRANCH  10  11
BRANCH  10   9
ATOM      9  C   UNL     1      -2.629   0.434  24.166  0.00  0.00    +0.115 C 
BRANCH   9   8
ATOM      5  C   UNL     1      -4.737   1.565  24.799  0.00  0.00    +0.073 A 
ATOM      6  C   UNL     1      -4.521   0.860  25.169  0.00  0.00    +0.016 A 
ATOM      7  C   UNL     1      -3.818   0.483  24.958  0.00  0.00    -0.002 A 
ATOM      8  C   UNL     1      -3.331   0.811  24.377  0.00  0.00    -0.005 A 
ATOM     23  C   UNL     1      -3.549   1.516  24.008  0.00  0.00    -0.002 A 
ATOM     24  C   UNL     1      -4.252   1.893  24.219  0.00  0.00    +0.016 A 
BRANCH   5   4
ATOM      1  C   UNL     1      -6.129   2.956  25.745  0.00  0.00    +0.097 C 
ATOM      2  C   UNL     1      -5.426   2.579  25.534  0.00  0.00    +0.246 C 
ATOM      3  O   UNL     1      -4.708   2.838  25.847  0.00  0.00    -0.273 OA
ATOM      4  N   UNL     1      -5.440   1.942  25.010  0.00  0.00    -0.179 NA
ENDBRANCH   5   4
ENDBRANCH   9   8
ENDBRANCH  10   9
TORSDOF 7
ENDMDL
MODEL 5
REMARK VINA RESULT:      -6.0     17.664     18.778
REMARK  Name = 
REMARK  7 active torsions:
REMARK  status: ('A' for Active; 'I' for Inactive)
REMARK    1  A    between atoms: N_4  and  C_5
REMARK    2  A    between atoms: C_8  and  C_9
REMARK    3  A    between atoms: C_9  and  N_10
REMARK    4  A    between atoms: N_10  and  C_11
REMARK    5  A    between atoms: C_14  and  C_15
REMARK    6  A    between atoms: C_15  and  N_16
REMARK    7  A    between atoms: N_16  and  S_17
REMARK                            x       y       z     vdW  Elec       q    Type
REMARK                         _______ _______ _______ _____ _____    ______ ____
ROOT
ATOM     10  N   UNL     1      -5.614  -9.216   9.664  0.00  0.00    -0.209 NA
ENDROOT
BRANCH  10  11
ATOM     11  C   UNL     1      -6.238  -8.877   9.244  0.00  0.00    +0.135 C 
ATOM     12  C   UNL     1      -6.274  -8.775   8.426  0.00  0.00    +0.162 C 
ATOM     13  O   UNL     1      -6.994  -8.414   8.245  0.00  0.00    -0.350 OA
ATOM     14  C   UNL     1      -7.403  -8.293   8.951  0.00  0.00    +0.166 C 
ATOM     21  C   UNL     1      -6.936  -8.579   9.569  0.00  0.00    +0.199 C 
ATOM     22  O   UNL     1      -7.132  -8.569  10.369  0.00  0.00    -0.219 OA
BRANCH  14  15
ATOM     15  C   UNL     1      -8.148  -7.947   9.027  0.00  0.00    +0.147 C 
BRANCH  15  16
ATOM     16  N   UNL     1      -8.480  -7.540   8.392  0.00  0.00    -0.079 NA
BRANCH  16  17
ATOM     17  S   UNL     1      -9.202  -7.150   8.484  0.00  0.00    +0.059 S 
ATOM     18  C   UNL     1      -9.924  -6.762   8.576  0.00  0.00    +0.197 C 
ATOM     19  O   UNL     1      -9.600  -7.867   8.390  0.00  0.00    -0.156 OA
ATOM     20  O   UNL     1      -8.804  -6.433   8.578  0.00  0.00    -0.156 OA
ENDBRANCH  16  17
ENDBRANCH  15  16
ENDBRANCH  14  15
ENDBRANCH  10  11
BRANCH  10   9
ATOM      9  C   UNL     1      -4.867  -9.270   9.320  0.00  0.00    +0.115 C 
BRANCH   9   8
ATOM      5  C   UNL     1      -2.947 -10.083  10.653  0.00  0.00    +0.073 A 
ATOM      6  C   UNL     1      -3.539 -10.609  10.420  0.00  0.00    +0.016 A 
ATOM      7  C   UNL     1      -4.179 -10.338   9.976  0.00  0.00    -0.002 A 
ATOM      8  C   UNL     1      -4.227  -9.541   9.764  0.00  0.00    -0.005 A 
ATOM     23  C   UNL     1      -3.635  -9.017   9.997  0.00  0.00    -0.002 A 
ATOM     24  C   UNL     1      -2.995  -9.288  10.442  0.00  0.00    +0.016 A 
BRANCH   5   4
ATOM      1  C   UNL     1      -1.735 -10.701  12.360  0.00  0.00    +0.097 C 
ATOM      2  C   UNL     1      -2.375 -10.430  11.916  0.00  0.00    +0.246 C 
ATOM      3  O   UNL     1      -3.085 -10.236  12.289  0.00  0.00    -0.273 OA
ATOM      4  N   UNL     1      -2.307 -10.354  11.097  0.00  0.00    -0.179 NA
ENDBRANCH   5   4
ENDBRANCH   9   8
ENDBRANCH  10   9
TORSDOF 7
ENDMDL
MODEL 6
REMARK VINA RESULT:      -5.7     14.195     14.779
REMARK  Name = 
REMARK  7 active torsions:
REMARK  status: ('A' for Active; 'I' for Inactive)
REMARK    1  A    between atoms: N_4  and  C_5
REMARK    2  A    between atoms: C_8  and  C_9
REMARK    3  A    between atoms: C_9  and  N_10
REMARK    4  A    between atoms: N_10  and  C_11
REMARK    5  A    between atoms: C_14  and  C_15
REMARK    6  A    between atoms: C_15  and  N_16
REMARK    7  A    between atoms: N_16  and  S_17
REMARK                            x       y       z     vdW  Elec       q    Type
REMARK                         _______ _______ _______ _____ _____    ______ ____
ROOT
ATOM     10  N   UNL     1      -5.827 -10.213  16.528  0.00  0.00    -0.209 NA
ENDROOT
BRANCH  10  11
ATOM     11  C   UNL     1      -5.024 -10.388  16.596  0.00  0.00    +0.135 C 
ATOM     12  C   UNL     1      -4.612 -10.510  17.300  0.00  0.00    +0.162 C 
ATOM     13  O   UNL     1      -3.824 -10.670  17.111  0.00  0.00    -0.350 OA
ATOM     14  C   UNL     1      -3.750 -10.647  16.290  0.00  0.00    +0.166 C 
ATOM     21  C   UNL     1      -4.491 -10.473  15.971  0.00  0.00    +0.199 C 
ATOM     22  O   UNL     1      -4.668 -10.397  15.170  0.00  0.00    -0.219 OA
BRANCH  14  15
ATOM     15  C   UNL     1      -3.057 -10.776  15.862  0.00  0.00    +0.147 C 
BRANCH  15  16
ATOM     16  N   UNL     1      -2.373 -10.353  16.047  0.00  0.00    -0.079 NA
BRANCH  16  17
ATOM     17  S   UNL     1      -1.651 -10.567  15.709  0.00  0.00    +0.059 S 
ATOM     18  C   UNL     1      -0.930 -10.781  15.371  0.00  0.00    +0.197 C 
ATOM     19  O   UNL     1      -1.975 -10.469  14.957  0.00  0.00    -0.156 OA
ATOM     20  O   UNL     1      -1.328 -10.666  16.462  0.00  0.00    -0.156 OA
ENDBRANCH  16  17
ENDBRANCH  15  16
ENDBRANCH  14  15
ENDBRANCH  10  11
BRANCH  10   9
ATOM      9  C   UNL     1      -6.271 -10.045  17.202  0.00  0.00    +0.115 C 
BRANCH   9   8
ATOM      5  C   UNL     1      -8.667  -9.464  16.993  0.00  0.00    +0.073 A 
ATOM      6  C   UNL     1      -8.145  -9.286  16.379  0.00  0.00    +0.016 A 
ATOM      7  C   UNL     1      -7.346  -9.480  16.449  0.00  0.00    -0.002 A 
ATOM      8  C   UNL     1      -7.070  -9.851  17.132  0.00  0.00    -0.005 A 
ATOM     23  C   UNL     1      -7.593 -10.029  17.745  0.00  0.00    -0.002 A 
ATOM     24  C   UNL     1      -8.391  -9.835  17.675  0.00  0.00    +0.016 A 
BRANCH   5   4
ATOM      1  C   UNL     1     -10.539  -8.349  17.127  0.00  0.00    +0.097 C 
ATOM      2  C   UNL     1      -9.740  -8.542  17.197  0.00  0.00    +0.246 C 
ATOM      3  O   UNL     1      -9.214  -8.008  17.541  0.00  0.00    -0.273 OA
ATOM      4  N   UNL     1      -9.466  -9.271  16.923  0.00  0.00    -0.179 NA
ENDBRANCH   5   4
ENDBRANCH   9   8
ENDBRANCH  10   9
TORSDOF 7
ENDMDL
MODEL 7
REMARK VINA RESULT:      -5.7     15.517     17.491
REMARK  Name = 
REMARK  7 active torsions:
REMARK  status: ('A' for Active; 'I' for Inactive)
REMARK    1  A    between atoms: N_4  and  C_5
REMARK    2  A    between atoms: C_8  and  C_9
REMARK    3  A    between atoms: C_9  and  N_10
REMARK    4  A    between atoms: N_10  and  C_11
REMARK    5  A    between atoms: C_14  and  C_15
REMARK    6  A    between atoms: C_15  and  N_16
REMARK    7  A    between atoms: N_16  and  S_17
REMARK                            x       y       z     vdW  Elec       q    Type
REMARK                         _______ _______ _______ _____ _____    ______ ____
ROOT
ATOM     10  N   UNL     1      -4.448  -9.835  12.077  0.00  0.00    -0.209 NA
ENDROOT
BRANCH  10  11
ATOM     11  C   UNL     1      -4.893  -9.734  11.389  0.00  0.00    +0.135 C 
ATOM     12  C   UNL     1      -4.778 -10.129  10.674  0.00  0.00    +0.162 C 
ATOM     13  O   UNL     1      -5.345  -9.858  10.139  0.00  0.00    -0.350 OA
ATOM     14  C   UNL     1      -5.811  -9.297  10.524  0.00  0.00    +0.166 C 
ATOM     21  C   UNL     1      -5.532  -9.220  11.297  0.00  0.00    +0.199 C 
ATOM     22  O   UNL     1      -5.837  -8.717  11.874  0.00  0.00    -0.219 OA
BRANCH  14  15
ATOM     15  C   UNL     1      -6.445  -8.885  10.194  0.00  0.00    +0.147 C 
BRANCH  15  16
ATOM     16  N   UNL     1      -6.609  -8.956   9.389  0.00  0.00    -0.079 NA
BRANCH  16  17
ATOM     17  S   UNL     1      -7.225  -8.520   9.054  0.00  0.00    +0.059 S 
ATOM     18  C   UNL     1      -7.840  -8.085   8.719  0.00  0.00    +0.197 C 
ATOM     19  O   UNL     1      -7.752  -9.130   9.230  0.00  0.00    -0.156 OA
ATOM     20  O   UNL     1      -6.697  -7.910   8.878  0.00  0.00    -0.156 OA
ENDBRANCH  16  17
ENDBRANCH  15  16
ENDBRANCH  14  15
ENDBRANCH  10  11
BRANCH  10   9
ATOM      9  C   UNL     1      -3.932 -10.474  12.143  0.00  0.00    +0.115 C 
BRANCH   9   8
ATOM      5  C   UNL     1      -2.498 -10.705  14.147  0.00  0.00    +0.073 A 
ATOM      6  C   UNL     1      -2.154 -10.602  13.404  0.00  0.00    +0.016 A 
ATOM      7  C   UNL     1      -2.632 -10.525  12.736  0.00  0.00    -0.002 A 
ATOM      8  C   UNL     1      -3.454 -10.551  12.811  0.00  0.00    -0.005 A 
ATOM     23  C   UNL     1      -3.796 -10.654  13.554  0.00  0.00    -0.002 A 
ATOM     24  C   UNL     1      -3.319 -10.731  14.222  0.00  0.00    +0.016 A 
BRANCH   5   4
ATOM      1  C   UNL     1      -0.956 -10.299  15.638  0.00  0.00    +0.097 C 
ATOM      2  C   UNL     1      -1.433 -10.223  14.970  0.00  0.00    +0.246 C 
ATOM      3  O   UNL     1      -1.325  -9.587  14.455  0.00  0.00    -0.273 OA
ATOM      4  N   UNL     1      -2.020 -10.781  14.815  0.00  0.00    -0.179 NA
ENDBRANCH   5   4
ENDBRANCH   9   8
ENDBRANCH  10   9
TORSDOF 7
ENDMDL
MODEL 8
REMARK VINA RESULT:      -5.7     17.806     18.812
REMARK  Name = 
REMARK  7 active torsions:
REMARK  status: ('A' for Active; 'I' for Inactive)
REMARK    1  A    between atoms: N_4  and  C_5
REMARK    2  A    between atoms: C_8  and  C_9
REMARK    3  A    between atoms: C_9  and  N_10
REMARK    4  A    between atoms: N_10  and  C_11
REMARK    5  A    between atoms: C_14  and  C_15
REMARK    6  A    between atoms: C_15  and  N_16
REMARK    7  A    between atoms: N_16  and  S_17
REMARK                            x       y       z     vdW  Elec       q    Type
REMARK                         _______ _______ _______ _____ _____    ______ ____
ROOT
ATOM     10  N   UNL     1      -6.426  -7.970   9.291  0.00  0.00    -0.209 NA
ENDROOT
BRANCH  10  11
ATOM     11  C   UNL     1      -5.778  -8.464   9.420  0.00  0.00    +0.135 C 
ATOM     12  C   UNL     1      -5.555  -9.105   8.952  0.00  0.00    +0.162 C 
ATOM     13  O   UNL     1      -4.879  -9.441   9.283  0.00  0.00    -0.350 OA
ATOM     14  C   UNL     1      -4.683  -9.008   9.957  0.00  0.00    +0.166 C 
ATOM     21  C   UNL     1      -5.238  -8.404  10.042  0.00  0.00    +0.199 C 
ATOM     22  O   UNL     1      -5.253  -7.839  10.643  0.00  0.00    -0.219 OA
BRANCH  14  15
ATOM     15  C   UNL     1      -4.044  -9.153  10.458  0.00  0.00    +0.147 C 
BRANCH  15  16
ATOM     16  N   UNL     1      -3.459  -9.691  10.237  0.00  0.00    -0.079 NA
BRANCH  16  17
ATOM     17  S   UNL     1      -2.837  -9.858  10.752  0.00  0.00    +0.059 S 
ATOM     18  C   UNL     1      -2.215 -10.026  11.267  0.00  0.00    +0.197 C 
ATOM     19  O   UNL     1      -3.284 -10.460  11.096  0.00  0.00    -0.156 OA
ATOM     20  O   UNL     1      -2.389  -9.256  10.408  0.00  0.00    -0.156 OA
ENDBRANCH  16  17
ENDBRANCH  15  16
ENDBRANCH  14  15
ENDBRANCH  10  11
BRANCH  10   9
ATOM      9  C   UNL     1      -7.028  -8.206   8.780  0.00  0.00    +0.115 C 
BRANCH   9   8
ATOM      5  C   UNL     1      -9.049  -6.801   8.519  0.00  0.00    +0.073 A 
ATOM      6  C   UNL     1      -8.353  -6.599   8.124  0.00  0.00    +0.016 A 
ATOM      7  C   UNL     1      -7.679  -7.068   8.211  0.00  0.00    -0.002 A 
ATOM      8  C   UNL     1      -7.702  -7.737   8.693  0.00  0.00    -0.005 A 
ATOM     23  C   UNL     1      -8.398  -7.938   9.087  0.00  0.00    -0.002 A 
ATOM     24  C   UNL     1      -9.071  -7.469   9.000  0.00  0.00    +0.016 A 
BRANCH   5   4
ATOM      1  C   UNL     1     -10.361  -5.056   8.508  0.00  0.00    +0.097 C 
ATOM      2  C   UNL     1      -9.688  -5.525   8.595  0.00  0.00    +0.246 C 
ATOM      3  O   UNL     1      -8.979  -5.186   8.846  0.00  0.00    -0.273 OA
ATOM      4  N   UNL     1      -9.722  -6.332   8.431  0.00  0.00    -0.179 NA
ENDBRANCH   5   4
ENDBRANCH   9   8
ENDBRANCH  10   9
TORSDOF 7
ENDMDL
MODEL 9
REMARK VINA RESULT:      -5.6     14.439     16.464
REMARK  Name = 
REMARK  7 active torsions:
REMARK  status: ('A' for Active; 'I' for Inactive)
REMARK    1  A    between atoms: N_4  and  C_5
REMARK    2  A    between atoms: C_8  and  C_9
REMARK    3  A    between atoms: C_9  and  N_10
REMARK    4  A    between atoms: N_10  and  C_11
REMARK    5  A    between atoms: C_14  and  C_15
REMARK    6  A    between atoms: C_15  and  N_16
REMARK    7  A    between atoms: N_16  and  S_17
REMARK                            x       y       z     vdW  Elec       q    Type
REMARK                         _______ _______ _______ _____ _____    ______ ____
ROOT
ATOM     10  N   UNL     1      -5.694 -10.033  13.716  0.00  0.00    -0.209 NA
ENDROOT
BRANCH  10  11
ATOM     11  C   UNL     1      -5.250 -10.035  13.020  0.00  0.00    +0.135 C 
ATOM     12  C   UNL     1      -4.560 -10.467  12.886  0.00  0.00    +0.162 C 
ATOM     13  O   UNL     1      -4.302 -10.304  12.120  0.00  0.00    -0.350 OA
ATOM     14  C   UNL     1      -4.832  -9.772  11.780  0.00  0.00    +0.166 C 
ATOM     21  C   UNL     1      -5.418  -9.605  12.336  0.00  0.00    +0.199 C 
ATOM     22  O   UNL     1      -6.059  -9.098  12.228  0.00  0.00    -0.219 OA
BRANCH  14  15
ATOM     15  C   UNL     1      -4.785  -9.460  11.017  0.00  0.00    +0.147 C 
BRANCH  15  16
ATOM     16  N   UNL     1      -4.146  -9.650  10.533  0.00  0.00    -0.079 NA
BRANCH  16  17
ATOM     17  S   UNL     1      -4.088  -9.321   9.778  0.00  0.00    +0.059 S 
ATOM     18  C   UNL     1      -4.029  -8.991   9.024  0.00  0.00    +0.197 C 
ATOM     19  O   UNL     1      -3.572  -8.747  10.069  0.00  0.00    -0.156 OA
ATOM     20  O   UNL     1      -4.604  -9.895   9.487  0.00  0.00    -0.156 OA
ENDBRANCH  16  17
ENDBRANCH  15  16
ENDBRANCH  14  15
ENDBRANCH  10  11
BRANCH  10   9
ATOM      9  C   UNL     1      -5.365 -10.320  14.415  0.00  0.00    +0.115 C 
BRANCH   9   8
ATOM      5  C   UNL     1      -6.649 -10.196  16.527  0.00  0.00    +0.073 A 
ATOM      6  C   UNL     1      -6.005  -9.694  16.406  0.00  0.00    +0.016 A 
ATOM      7  C   UNL     1      -5.577  -9.735  15.702  0.00  0.00    -0.002 A 
ATOM      8  C   UNL     1      -5.793 -10.279  15.119  0.00  0.00    -0.005 A 
ATOM     23  C   UNL     1      -6.437 -10.780  15.241  0.00  0.00    -0.002 A 
ATOM     24  C   UNL     1      -6.865 -10.739  15.946  0.00  0.00    +0.016 A 
BRANCH   5   4
ATOM      1  C   UNL     1      -8.158  -9.613  17.993  0.00  0.00    +0.097 C 
ATOM      2  C   UNL     1      -7.730  -9.654  17.289  0.00  0.00    +0.246 C 
ATOM      3  O   UNL     1      -7.956  -9.196  16.641  0.00  0.00    -0.273 OA
ATOM      4  N   UNL     1      -7.077 -10.154  17.232  0.00  0.00    -0.179 NA
ENDBRANCH   5   4
ENDBRANCH   9   8
ENDBRANCH  10   9
TORSDOF 7
ENDMDL
MODEL 10
REMARK VINA RESULT:      -5.3     14.028     16.504
REMARK  Name = 
REMARK  7 active torsions:
REMARK  status: ('A' for Active; 'I' for Inactive)
REMARK    1  A    between atoms: N_4  and  C_5
REMARK    2  A    between atoms: C_8  and  C_9
REMARK    3  A    between atoms: C_9  and  N_10
REMARK    4  A    between atoms: N_10  and  C_11
REMARK    5  A    between atoms: C_14  and  C_15
REMARK    6  A    between atoms: C_15  and  N_16
REMARK    7  A    between atoms: N_16  and  S_17
REMARK                            x       y       z     vdW  Elec       q    Type
REMARK                         _______ _______ _______ _____ _____    ______ ____
ROOT
ATOM     10  N   UNL     1      -5.775  -9.899  13.733  0.00  0.00    -0.209 NA
ENDROOT
BRANCH  10  11
ATOM     11  C   UNL     1      -6.235 -10.025  14.406  0.00  0.00    +0.135 C 
ATOM     12  C   UNL     1      -7.017 -10.288  14.416  0.00  0.00    +0.162 C 
ATOM     13  O   UNL     1      -7.260 -10.336  15.204  0.00  0.00    -0.350 OA
ATOM     14  C   UNL     1      -6.628 -10.102  15.680  0.00  0.00    +0.166 C 
ATOM     21  C   UNL     1      -5.995  -9.910  15.187  0.00  0.00    +0.199 C 
ATOM     22  O   UNL     1      -5.252  -9.648  15.431  0.00  0.00    -0.219 OA
BRANCH  14  15
ATOM     15  C   UNL     1      -6.629 -10.067  16.504  0.00  0.00    +0.147 C 
BRANCH  15  16
ATOM     16  N   UNL     1      -7.334 -10.162  16.920  0.00  0.00    -0.079 NA
BRANCH  16  17
ATOM     17  S   UNL     1      -7.345 -10.066  17.740  0.00  0.00    +0.059 S 
ATOM     18  C   UNL     1      -7.356  -9.971  18.559  0.00  0.00    +0.197 C 
ATOM     19  O   UNL     1      -6.943 -10.781  17.828  0.00  0.00    -0.156 OA
ATOM     20  O   UNL     1      -7.747  -9.351  17.651  0.00  0.00    -0.156 OA
ENDBRANCH  16  17
ENDBRANCH  15  16
ENDBRANCH  14  15
ENDBRANCH  10  11
BRANCH  10   9
ATOM      9  C   UNL     1      -6.099 -10.018  12.984  0.00  0.00    +0.115 C 
BRANCH   9   8
ATOM      5  C   UNL     1      -4.869  -9.268  10.972  0.00  0.00    +0.073 A 
ATOM      6  C   UNL     1      -4.672  -9.984  11.331  0.00  0.00    +0.016 A 
ATOM      7  C   UNL     1      -5.082 -10.234  12.002  0.00  0.00    -0.002 A 
ATOM      8  C   UNL     1      -5.689  -9.768  12.313  0.00  0.00    -0.005 A 
ATOM     23  C   UNL     1      -5.884  -9.052  11.953  0.00  0.00    -0.002 A 
ATOM     24  C   UNL     1      -5.474  -8.802  11.282  0.00  0.00    +0.016 A 
BRANCH   5   4
ATOM      1  C   UNL     1      -4.312  -8.987   8.880  0.00  0.00    +0.097 C 
ATOM      2  C   UNL     1      -4.721  -9.237   9.550  0.00  0.00    +0.246 C 
ATOM      3  O   UNL     1      -5.395  -9.707   9.472  0.00  0.00    -0.273 OA
ATOM      4  N   UNL     1      -4.459  -9.018  10.301  0.00  0.00    -0.179 NA
ENDBRANCH   5   4
ENDBRANCH   9   8
ENDBRANCH  10   9
TORSDOF 7
ENDMDL
