MODEL 1
REMARK VINA RESULT:     -12.9      0.000      0.000
REMARK  Name = 
REMARK  7 active torsions:
REMARK  status: ('A' for Active; 'I' for Inactive)
REMARK    1  A    between atoms: O_2  and  C_3
REMARK    2  A    between atoms: C_9  and  C_10
REMARK    3  A    between atoms: C_10  and  C_11
REMARK    4  A    between atoms: C_16  and  C_17
REMARK    5  A    between atoms: C_17  and  C_18
REMARK    6  A    between atoms: C_21  and  C_23
REMARK    7  A    between atoms: C_23  and  C_24
REMARK                            x       y       z     vdW  Elec       q    Type
REMARK                         _______ _______ _______ _____ _____    ______ ____
ROOT
ATOM     11  C   UNL     1      -1.635   1.424  24.926  0.00  0.00    +0.026 C 
ATOM     12  C   UNL     1      -2.038   0.706  24.955  0.00  0.00    +0.094 C 
ATOM     13  N   UNL     1      -1.621  -0.004  24.902  0.00  0.00    -0.279 N 
ATOM     14  C   UNL     1      -0.800   0.005  24.820  0.00  0.00    +0.093 C 
ATOM     15  C   UNL     1      -0.397   0.723  24.791  0.00  0.00    +0.022 C 
ATOM     16  C   UNL     1      -0.813   1.433  24.844  0.00  0.00    +0.015 C 
ATOM     21  C   UNL     1      -2.024  -0.723  24.931  0.00  0.00    +0.230 C 
ATOM     22  O   UNL     1      -1.607  -1.432  24.878  0.00  0.00    -0.275 OA
ENDROOT
BRANCH  11  10
ATOM     10  C   UNL     1      -2.051   2.134  24.979  0.00  0.00    +0.047 C 
BRANCH  10   9
ATOM      3  C   UNL     1      -4.724   3.429  25.158  0.00  0.00    +0.138 A 
ATOM      4  C   UNL     1      -4.617   3.231  24.364  0.00  0.00    +0.033 A 
ATOM      5  C   UNL     1      -3.923   2.858  24.120  0.00  0.00    -0.016 A 
ATOM      6  C   UNL     1      -3.334   2.682  24.671  0.00  0.00    +0.009 A 
ATOM      7  C   UNL     1      -3.440   2.880  25.465  0.00  0.00    +0.004 A 
ATOM      8  C   UNL     1      -4.135   3.253  25.709  0.00  0.00    +0.037 A 
ATOM      9  C   UNL     1      -2.640   2.310  24.428  0.00  0.00    +0.053 C 
ATOM     30  N   UNL     1      -2.533   2.113  23.635  0.00  0.00    -0.274 NA
ATOM     31  C   UNL     1      -3.123   2.289  23.083  0.00  0.00    +0.130 C 
ATOM     32  C   UNL     1      -3.817   2.661  23.326  0.00  0.00    +0.053 C 
BRANCH   3   2
ATOM      1  C   UNL     1      -6.005   3.369  25.786  0.00  0.00    +0.252 C 
ATOM      2  O   UNL     1      -5.418   3.801  25.401  0.00  0.00    -0.471 OA
ENDBRANCH   3   2
ENDBRANCH  10   9
ENDBRANCH  11  10
BRANCH  16  17
ATOM     17  C   UNL     1      -0.409   2.152  24.815  0.00  0.00    +0.114 C 
BRANCH  17  18
ATOM     18  C   UNL     1       0.401   2.176  24.961  0.00  0.00    +0.365 C 
ATOM     19  O   UNL     1       0.680   2.307  25.727  0.00  0.00    -0.246 OA
ATOM     20  O   UNL     1       0.936   2.068  24.341  0.00  0.00    -0.246 OA
ENDBRANCH  17  18
ENDBRANCH  16  17
BRANCH  21  23
ATOM     23  C   UNL     1      -2.845  -0.732  25.014  0.00  0.00    +0.112 C 
BRANCH  23  24
ATOM     24  C   UNL     1      -3.284  -1.359  24.705  0.00  0.00    -0.013 A 
ATOM     25  C   UNL     1      -3.199  -2.116  25.020  0.00  0.00    -0.004 A 
ATOM     26  C   UNL     1      -3.637  -2.743  24.712  0.00  0.00    -0.000 A 
ATOM     27  C   UNL     1      -4.161  -2.614  24.088  0.00  0.00    -0.000 A 
ATOM     28  C   UNL     1      -4.246  -1.856  23.772  0.00  0.00    -0.000 A 
ATOM     29  C   UNL     1      -3.808  -1.228  24.080  0.00  0.00    -0.004 A 
ENDBRANCH  23  24
ENDBRANCH  21  23
TORSDOF 7
ENDMDL
MODEL 2
REMARK VINA RESULT:     -12.3      1.290      3.576
REMARK  Name = 
REMARK  7 active torsions:
REMARK  status: ('A' for Active; 'I' for Inactive)
REMARK    1  A    between atoms: O_2  and  C_3
REMARK    2  A    between atoms: C_9  and  C_10
REMARK    3  A    between atoms: C_10  and  C_11
REMARK    4  A    between atoms: C_16  and  C_17
REMARK    5  A    between atoms: C_17  and  C_18
REMARK    6  A    between atoms: C_21  and  C_23
REMARK    7  A    between atoms: C_23  and  C_24
REMARK                            x       y       z     vdW  Elec       q    Type
REMARK                         _______ _______ _______ _____ _____    ______ ____
ROOT
ATOM     11  C   UNL     1      -3.887   2.155  25.040  0.00  0.00    +0.026 C 
ATOM     12  C   UNL     1      -3.839   1.347  24.890  0.00  0.00    +0.094 C 
ATOM     13  N   UNL     1      -4.529   0.907  24.773  0.00  0.00    -0.279 N 
ATOM     14  C   UNL     1      -5.264   1.279  24.807  0.00  0.00    +0.093 C 
ATOM     15  C   UNL     1      -5.312   2.087  24.957  0.00  0.00    +0.022 C 
ATOM     16  C   UNL     1      -4.624   2.527  25.074  0.00  0.00    +0.015 C 
ATOM     21  C   UNL     1      -4.481   0.097  24.623  0.00  0.00    +0.230 C 
ATOM     22  O   UNL     1      -5.169  -0.341  24.506  0.00  0.00    -0.275 OA
ENDROOT
BRANCH  11  10
ATOM     10  C   UNL     1      -3.199   2.595  25.157  0.00  0.00    +0.047 C 
BRANCH  10   9
ATOM      3  C   UNL     1      -0.253   2.478  25.564  0.00  0.00    +0.138 A 
ATOM      4  C   UNL     1      -0.377   2.385  24.753  0.00  0.00    +0.033 A 
ATOM      5  C   UNL     1      -1.144   2.391  24.448  0.00  0.00    -0.016 A 
ATOM      6  C   UNL     1      -1.789   2.490  24.955  0.00  0.00    +0.009 A 
ATOM      7  C   UNL     1      -1.665   2.583  25.766  0.00  0.00    +0.004 A 
ATOM      8  C   UNL     1      -0.898   2.577  26.071  0.00  0.00    +0.037 A 
ATOM      9  C   UNL     1      -2.555   2.496  24.651  0.00  0.00    +0.053 C 
ATOM     30  N   UNL     1      -2.678   2.403  23.841  0.00  0.00    -0.274 NA
ATOM     31  C   UNL     1      -2.033   2.304  23.334  0.00  0.00    +0.130 C 
ATOM     32  C   UNL     1      -1.267   2.298  23.638  0.00  0.00    +0.053 C 
BRANCH   3   2
ATOM      1  C   UNL     1       0.637   2.589  26.675  0.00  0.00    +0.252 C 
ATOM      2  O   UNL     1       0.513   2.472  25.868  0.00  0.00    -0.471 OA
ENDBRANCH   3   2
ENDBRANCH  10   9
ENDBRANCH  11  10
BRANCH  16  17
ATOM     17  C   UNL     1      -4.671   3.337  25.225  0.00  0.00    +0.114 C 
BRANCH  17  18
ATOM     18  C   UNL     1      -5.319   3.642  25.633  0.00  0.00    +0.365 C 
ATOM     19  O   UNL     1      -5.449   3.431  26.419  0.00  0.00    -0.246 OA
ATOM     20  O   UNL     1      -5.837   4.162  25.254  0.00  0.00    -0.246 OA
ENDBRANCH  17  18
ENDBRANCH  16  17
BRANCH  21  23
ATOM     23  C   UNL     1      -3.745  -0.273  24.589  0.00  0.00    +0.112 C 
BRANCH  23  24
ATOM     24  C   UNL     1      -3.697  -1.096  24.598  0.00  0.00    -0.013 A 
ATOM     25  C   UNL     1      -3.441  -1.488  25.277  0.00  0.00    -0.004 A 
ATOM     26  C   UNL     1      -3.393  -2.312  25.286  0.00  0.00    -0.000 A 
ATOM     27  C   UNL     1      -3.601  -2.745  24.616  0.00  0.00    -0.000 A 
ATOM     28  C   UNL     1      -3.857  -2.353  23.935  0.00  0.00    -0.000 A 
ATOM     29  C   UNL     1      -3.905  -1.529  23.926  0.00  0.00    -0.004 A 
ENDBRANCH  23  24
ENDBRANCH  21  23
TORSDOF 7
ENDMDL
MODEL 3
REMARK VINA RESULT:     -11.3      1.686      3.760
REMARK  Name = 
REMARK  7 active torsions:
REMARK  status: ('A' for Active; 'I' for Inactive)
REMARK    1  A    between atoms: O_2  and  C_3
REMARK    2  A    between atoms: C_9  and  C_10
REMARK    3  A    between atoms: C_10  and  C_11
REMARK    4  A    between atoms: C_16  and  C_17
REMARK    5  A    between atoms: C_17  and  C_18
REMARK    6  A    between atoms: C_21  and  C_23
REMARK    7  A    between atoms: C_23  and  C_24
REMARK                            x       y       z     vdW  Elec       q    Type
REMARK                         _______ _______ _______ _____ _____    ______ ____
ROOT
ATOM     11  C   UNL     1      -1.796   0.896  24.930  0.00  0.00    +0.026 C 
ATOM     12  C   UNL     1      -1.649   1.647  25.234  0.00  0.00    +0.094 C 
ATOM     13  N   UNL     1      -0.881   1.862  25.449  0.00  0.00    -0.279 N 
ATOM     14  C   UNL     1      -0.262   1.324  25.359  0.00  0.00    +0.093 C 
ATOM     15  C   UNL     1      -0.410   0.573  25.055  0.00  0.00    +0.022 C 
ATOM     16  C   UNL     1      -1.177   0.357  24.840  0.00  0.00    +0.015 C 
ATOM     21  C   UNL     1      -0.733   2.615  25.753  0.00  0.00    +0.230 C 
ATOM     22  O   UNL     1       0.033   2.829  25.968  0.00  0.00    -0.275 OA
ENDROOT
BRANCH  11  10
ATOM     10  C   UNL     1      -2.563   0.680  24.715  0.00  0.00    +0.047 C 
BRANCH  10   9
ATOM      3  C   UNL     1      -5.338   1.738  24.897  0.00  0.00    +0.138 A 
ATOM      4  C   UNL     1      -5.017   2.055  24.206  0.00  0.00    +0.033 A 
ATOM      5  C   UNL     1      -4.243   1.870  23.988  0.00  0.00    -0.016 A 
ATOM      6  C   UNL     1      -3.789   1.367  24.461  0.00  0.00    +0.009 A 
ATOM      7  C   UNL     1      -4.111   1.050  25.151  0.00  0.00    +0.004 A 
ATOM      8  C   UNL     1      -4.885   1.235  25.370  0.00  0.00    +0.037 A 
ATOM      9  C   UNL     1      -3.016   1.182  24.242  0.00  0.00    +0.053 C 
ATOM     30  N   UNL     1      -2.695   1.499  23.552  0.00  0.00    -0.274 NA
ATOM     31  C   UNL     1      -3.149   2.002  23.079  0.00  0.00    +0.130 C 
ATOM     32  C   UNL     1      -3.922   2.187  23.297  0.00  0.00    +0.053 C 
BRANCH   3   2
ATOM      1  C   UNL     1      -6.259   2.294  25.836  0.00  0.00    +0.252 C 
ATOM      2  O   UNL     1      -6.111   1.923  25.115  0.00  0.00    -0.471 OA
ENDBRANCH   3   2
ENDBRANCH  10   9
ENDBRANCH  11  10
BRANCH  16  17
ATOM     17  C   UNL     1      -1.325  -0.395  24.536  0.00  0.00    +0.114 C 
BRANCH  17  18
ATOM     18  C   UNL     1      -0.745  -0.979  24.582  0.00  0.00    +0.365 C 
ATOM     19  O   UNL     1      -0.724  -1.490  25.230  0.00  0.00    -0.246 OA
ATOM     20  O   UNL     1      -0.184  -1.053  23.980  0.00  0.00    -0.246 OA
ENDBRANCH  17  18
ENDBRANCH  16  17
BRANCH  21  23
ATOM     23  C   UNL     1      -1.353   3.152  25.842  0.00  0.00    +0.112 C 
BRANCH  23  24
ATOM     24  C   UNL     1      -1.290   3.910  25.523  0.00  0.00    -0.013 A 
ATOM     25  C   UNL     1      -0.611   4.130  25.110  0.00  0.00    -0.004 A 
ATOM     26  C   UNL     1      -0.548   4.888  24.791  0.00  0.00    -0.000 A 
ATOM     27  C   UNL     1      -1.164   5.428  24.885  0.00  0.00    -0.000 A 
ATOM     28  C   UNL     1      -1.845   5.209  25.298  0.00  0.00    -0.000 A 
ATOM     29  C   UNL     1      -1.908   4.451  25.617  0.00  0.00    -0.004 A 
ENDBRANCH  23  24
ENDBRANCH  21  23
TORSDOF 7
ENDMDL
MODEL 4
REMARK VINA RESULT:     -11.3      1.263      3.637
REMARK  Name = 
REMARK  7 active torsions:
REMARK  status: ('A' for Active; 'I' for Inactive)
REMARK    1  A    between atoms: O_2  and  C_3
REMARK    2  A    between atoms: C_9  and  C_10
REMARK    3  A    between atoms: C_10  and  C_11
REMARK    4  A    between atoms: C_16  and  C_17
REMARK    5  A    between atoms: C_17  and  C_18
REMARK    6  A    between atoms: C_21  and  C_23
REMARK    7  A    between atoms: C_23  and  C_24
REMARK                            x       y       z     vdW  Elec       q    Type
REMARK                         _______ _______ _______ _____ _____    ______ ____
ROOT
ATOM     11  C   UNL     1      -3.278  -0.400  24.871  0.00  0.00    +0.026 C 
ATOM     12  C   UNL     1      -2.631   0.028  25.148  0.00  0.00    +0.094 C 
ATOM     13  N   UNL     1      -1.908  -0.351  25.274  0.00  0.00    -0.279 N 
ATOM     14  C   UNL     1      -1.834  -1.158  25.121  0.00  0.00    +0.093 C 
ATOM     15  C   UNL     1      -2.481  -1.586  24.844  0.00  0.00    +0.022 C 
ATOM     16  C   UNL     1      -3.203  -1.209  24.718  0.00  0.00    +0.015 C 
ATOM     21  C   UNL     1      -1.260   0.078  25.551  0.00  0.00    +0.230 C 
ATOM     22  O   UNL     1      -0.539  -0.300  25.677  0.00  0.00    -0.275 OA
ENDROOT
BRANCH  11  10
ATOM     10  C   UNL     1      -4.000  -0.023  24.745  0.00  0.00    +0.047 C 
BRANCH  10   9
ATOM      3  C   UNL     1      -5.441   2.537  25.217  0.00  0.00    +0.138 A 
ATOM      4  C   UNL     1      -4.993   2.649  24.533  0.00  0.00    +0.033 A 
ATOM      5  C   UNL     1      -4.521   2.037  24.244  0.00  0.00    -0.016 A 
ATOM      6  C   UNL     1      -4.496   1.312  24.639  0.00  0.00    +0.009 A 
ATOM      7  C   UNL     1      -4.945   1.201  25.323  0.00  0.00    +0.004 A 
ATOM      8  C   UNL     1      -5.417   1.812  25.612  0.00  0.00    +0.037 A 
ATOM      9  C   UNL     1      -4.025   0.701  24.350  0.00  0.00    +0.053 C 
ATOM     30  N   UNL     1      -3.577   0.813  23.667  0.00  0.00    -0.274 NA
ATOM     31  C   UNL     1      -3.601   1.538  23.272  0.00  0.00    +0.130 C 
ATOM     32  C   UNL     1      -4.073   2.149  23.560  0.00  0.00    +0.053 C 
BRANCH   3   2
ATOM      1  C   UNL     1      -5.577   3.879  25.688  0.00  0.00    +0.252 C 
ATOM      2  O   UNL     1      -5.913   3.148  25.506  0.00  0.00    -0.471 OA
ENDBRANCH   3   2
ENDBRANCH  10   9
ENDBRANCH  11  10
BRANCH  16  17
ATOM     17  C   UNL     1      -3.851  -1.637  24.440  0.00  0.00    +0.114 C 
BRANCH  17  18
ATOM     18  C   UNL     1      -3.799  -2.456  24.358  0.00  0.00    +0.365 C 
ATOM     19  O   UNL     1      -3.745  -2.936  25.026  0.00  0.00    -0.246 OA
ATOM     20  O   UNL     1      -3.800  -2.796  23.605  0.00  0.00    -0.246 OA
ENDBRANCH  17  18
ENDBRANCH  16  17
BRANCH  21  23
ATOM     23  C   UNL     1      -1.335   0.886  25.704  0.00  0.00    +0.112 C 
BRANCH  23  24
ATOM     24  C   UNL     1      -0.715   1.398  25.524  0.00  0.00    -0.013 A 
ATOM     25  C   UNL     1      -0.338   1.349  24.791  0.00  0.00    -0.004 A 
ATOM     26  C   UNL     1       0.283   1.862  24.611  0.00  0.00    -0.000 A 
ATOM     27  C   UNL     1       0.528   2.424  25.163  0.00  0.00    -0.000 A 
ATOM     28  C   UNL     1       0.151   2.473  25.896  0.00  0.00    -0.000 A 
ATOM     29  C   UNL     1      -0.470   1.961  26.076  0.00  0.00    -0.004 A 
ENDBRANCH  23  24
ENDBRANCH  21  23
TORSDOF 7
ENDMDL
MODEL 5
REMARK VINA RESULT:     -11.3      1.886      5.249
REMARK  Name = 
REMARK  7 active torsions:
REMARK  status: ('A' for Active; 'I' for Inactive)
REMARK    1  A    between atoms: O_2  and  C_3
REMARK    2  A    between atoms: C_9  and  C_10
REMARK    3  A    between atoms: C_10  and  C_11
REMARK    4  A    between atoms: C_16  and  C_17
REMARK    5  A    between atoms: C_17  and  C_18
REMARK    6  A    between atoms: C_21  and  C_23
REMARK    7  A    between atoms: C_23  and  C_24
REMARK                            x       y       z     vdW  Elec       q    Type
REMARK                         _______ _______ _______ _____ _____    ______ ____
ROOT
ATOM     11  C   UNL     1      -3.951   2.017  25.157  0.00  0.00    +0.026 C 
ATOM     12  C   UNL     1      -3.392   2.582  25.373  0.00  0.00    +0.094 C 
ATOM     13  N   UNL     1      -3.635   3.334  25.611  0.00  0.00    -0.279 N 
ATOM     14  C   UNL     1      -4.439   3.520  25.631  0.00  0.00    +0.093 C 
ATOM     15  C   UNL     1      -4.998   2.955  25.414  0.00  0.00    +0.022 C 
ATOM     16  C   UNL     1      -4.756   2.203  25.177  0.00  0.00    +0.015 C 
ATOM     21  C   UNL     1      -3.075   3.900  25.827  0.00  0.00    +0.230 C 
ATOM     22  O   UNL     1      -3.318   4.651  26.064  0.00  0.00    -0.275 OA
ENDROOT
BRANCH  11  10
ATOM     10  C   UNL     1      -3.709   1.265  24.920  0.00  0.00    +0.047 C 
BRANCH  10   9
ATOM      3  C   UNL     1      -1.226  -0.353  24.661  0.00  0.00    +0.138 A 
ATOM      4  C   UNL     1      -1.294   0.076  23.960  0.00  0.00    +0.033 A 
ATOM      5  C   UNL     1      -1.932   0.588  23.848  0.00  0.00    -0.016 A 
ATOM      6  C   UNL     1      -2.502   0.671  24.440  0.00  0.00    +0.009 A 
ATOM      7  C   UNL     1      -2.434   0.242  25.141  0.00  0.00    +0.004 A 
ATOM      8  C   UNL     1      -1.796  -0.270  25.253  0.00  0.00    +0.037 A 
ATOM      9  C   UNL     1      -3.139   1.182  24.329  0.00  0.00    +0.053 C 
ATOM     30  N   UNL     1      -3.207   1.610  23.628  0.00  0.00    -0.274 NA
ATOM     31  C   UNL     1      -2.637   1.527  23.036  0.00  0.00    +0.130 C 
ATOM     32  C   UNL     1      -2.000   1.016  23.147  0.00  0.00    +0.053 C 
BRANCH   3   2
ATOM      1  C   UNL     1      -0.646  -1.483  25.314  0.00  0.00    +0.252 C 
ATOM      2  O   UNL     1      -0.589  -0.865  24.772  0.00  0.00    -0.471 OA
ENDBRANCH   3   2
ENDBRANCH  10   9
ENDBRANCH  11  10
BRANCH  16  17
ATOM     17  C   UNL     1      -5.316   1.638  24.960  0.00  0.00    +0.114 C 
BRANCH  17  18
ATOM     18  C   UNL     1      -6.103   1.728  25.189  0.00  0.00    +0.365 C 
ATOM     19  O   UNL     1      -6.331   1.550  25.962  0.00  0.00    -0.246 OA
ATOM     20  O   UNL     1      -6.663   1.998  24.645  0.00  0.00    -0.246 OA
ENDBRANCH  17  18
ENDBRANCH  16  17
BRANCH  21  23
ATOM     23  C   UNL     1      -2.271   3.713  25.807  0.00  0.00    +0.112 C 
BRANCH  23  24
ATOM     24  C   UNL     1      -1.737   4.232  25.453  0.00  0.00    -0.013 A 
ATOM     25  C   UNL     1      -1.938   5.025  25.349  0.00  0.00    -0.004 A 
ATOM     26  C   UNL     1      -1.403   5.544  24.995  0.00  0.00    -0.000 A 
ATOM     27  C   UNL     1      -0.666   5.271  24.745  0.00  0.00    -0.000 A 
ATOM     28  C   UNL     1      -0.464   4.477  24.848  0.00  0.00    -0.000 A 
ATOM     29  C   UNL     1      -0.999   3.958  25.202  0.00  0.00    -0.004 A 
ENDBRANCH  23  24
ENDBRANCH  21  23
TORSDOF 7
ENDMDL
MODEL 6
REMARK VINA RESULT:     -11.0      1.509      5.086
REMARK  Name = 
REMARK  7 active torsions:
REMARK  status: ('A' for Active; 'I' for Inactive)
REMARK    1  A    between atoms: O_2  and  C_3
REMARK    2  A    between atoms: C_9  and  C_10
REMARK    3  A    between atoms: C_10  and  C_11
REMARK    4  A    between atoms: C_16  and  C_17
REMARK    5  A    between atoms: C_17  and  C_18
REMARK    6  A    between atoms: C_21  and  C_23
REMARK    7  A    between atoms: C_23  and  C_24
REMARK                            x       y       z     vdW  Elec       q    Type
REMARK                         _______ _______ _______ _____ _____    ______ ____
ROOT
ATOM     11  C   UNL     1      -4.274   1.046  24.777  0.00  0.00    +0.026 C 
ATOM     12  C   UNL     1      -3.501   1.315  24.683  0.00  0.00    +0.094 C 
ATOM     13  N   UNL     1      -3.328   2.116  24.785  0.00  0.00    -0.279 N 
ATOM     14  C   UNL     1      -3.930   2.646  24.980  0.00  0.00    +0.093 C 
ATOM     15  C   UNL     1      -4.703   2.376  25.074  0.00  0.00    +0.022 C 
ATOM     16  C   UNL     1      -4.876   1.576  24.972  0.00  0.00    +0.015 C 
ATOM     21  C   UNL     1      -2.555   2.387  24.691  0.00  0.00    +0.230 C 
ATOM     22  O   UNL     1      -2.382   3.186  24.792  0.00  0.00    -0.275 OA
ENDROOT
BRANCH  11  10
ATOM     10  C   UNL     1      -4.447   0.245  24.675  0.00  0.00    +0.047 C 
BRANCH  10   9
ATOM      3  C   UNL     1      -3.675  -2.589  24.204  0.00  0.00    +0.138 A 
ATOM      4  C   UNL     1      -3.408  -2.401  24.961  0.00  0.00    +0.033 A 
ATOM      5  C   UNL     1      -3.534  -1.646  25.269  0.00  0.00    -0.016 A 
ATOM      6  C   UNL     1      -3.928  -1.077  24.818  0.00  0.00    +0.009 A 
ATOM      7  C   UNL     1      -4.195  -1.265  24.061  0.00  0.00    +0.004 A 
ATOM      8  C   UNL     1      -4.069  -2.020  23.753  0.00  0.00    +0.037 A 
ATOM      9  C   UNL     1      -4.054  -0.323  25.126  0.00  0.00    +0.053 C 
ATOM     30  N   UNL     1      -3.786  -0.136  25.883  0.00  0.00    -0.274 NA
ATOM     31  C   UNL     1      -3.392  -0.705  26.334  0.00  0.00    +0.130 C 
ATOM     32  C   UNL     1      -3.266  -1.459  26.026  0.00  0.00    +0.053 C 
BRANCH   3   2
ATOM      1  C   UNL     1      -2.798  -3.564  23.638  0.00  0.00    +0.252 C 
ATOM      2  O   UNL     1      -3.549  -3.343  23.896  0.00  0.00    -0.471 OA
ENDBRANCH   3   2
ENDBRANCH  10   9
ENDBRANCH  11  10
BRANCH  16  17
ATOM     17  C   UNL     1      -5.650   1.306  25.066  0.00  0.00    +0.114 C 
BRANCH  17  18
ATOM     18  C   UNL     1      -6.252   1.837  25.254  0.00  0.00    +0.365 C 
ATOM     19  O   UNL     1      -6.358   2.083  26.034  0.00  0.00    -0.246 OA
ATOM     20  O   UNL     1      -6.749   2.123  24.660  0.00  0.00    -0.246 OA
ENDBRANCH  17  18
ENDBRANCH  16  17
BRANCH  21  23
ATOM     23  C   UNL     1      -1.954   1.856  24.495  0.00  0.00    +0.112 C 
BRANCH  23  24
ATOM     24  C   UNL     1      -1.174   2.018  24.711  0.00  0.00    -0.013 A 
ATOM     25  C   UNL     1      -0.937   1.934  25.497  0.00  0.00    -0.004 A 
ATOM     26  C   UNL     1      -0.157   2.097  25.713  0.00  0.00    -0.000 A 
ATOM     27  C   UNL     1       0.386   2.344  25.143  0.00  0.00    -0.000 A 
ATOM     28  C   UNL     1       0.149   2.428  24.357  0.00  0.00    -0.000 A 
ATOM     29  C   UNL     1      -0.631   2.266  24.141  0.00  0.00    -0.004 A 
ENDBRANCH  23  24
ENDBRANCH  21  23
TORSDOF 7
ENDMDL
MODEL 7
REMARK VINA RESULT:     -10.7      1.303      4.437
REMARK  Name = 
REMARK  7 active torsions:
REMARK  status: ('A' for Active; 'I' for Inactive)
REMARK    1  A    between atoms: O_2  and  C_3
REMARK    2  A    between atoms: C_9  and  C_10
REMARK    3  A    between atoms: C_10  and  C_11
REMARK    4  A    between atoms: C_16  and  C_17
REMARK    5  A    between atoms: C_17  and  C_18
REMARK    6  A    between atoms: C_21  and  C_23
REMARK    7  A    between atoms: C_23  and  C_24
REMARK                            x       y       z     vdW  Elec       q    Type
REMARK                         _______ _______ _______ _____ _____    ______ ____
ROOT
ATOM     11  C   UNL     1      -2.899  -0.258  24.826  0.00  0.00    +0.026 C 
ATOM     12  C   UNL     1      -3.346   0.434  24.841  0.00  0.00    +0.094 C 
ATOM     13  N   UNL     1      -4.165   0.399  24.743  0.00  0.00    -0.279 N 
ATOM     14  C   UNL     1      -4.535  -0.330  24.630  0.00  0.00    +0.093 C 
ATOM     15  C   UNL     1      -4.088  -1.022  24.615  0.00  0.00    +0.022 C 
ATOM     16  C   UNL     1      -3.270  -0.987  24.713  0.00  0.00    +0.015 C 
ATOM     21  C   UNL     1      -4.612   1.092  24.758  0.00  0.00    +0.230 C 
ATOM     22  O   UNL     1      -5.430   1.056  24.660  0.00  0.00    -0.275 OA
ENDROOT
BRANCH  11  10
ATOM     10  C   UNL     1      -2.080  -0.224  24.924  0.00  0.00    +0.047 C 
BRANCH  10   9
ATOM      3  C   UNL     1      -0.039   1.838  25.583  0.00  0.00    +0.138 A 
ATOM      4  C   UNL     1      -0.123   1.852  24.762  0.00  0.00    +0.033 A 
ATOM      5  C   UNL     1      -0.653   1.340  24.391  0.00  0.00    -0.016 A 
ATOM      6  C   UNL     1      -1.102   0.814  24.843  0.00  0.00    +0.009 A 
ATOM      7  C   UNL     1      -1.019   0.800  25.664  0.00  0.00    +0.004 A 
ATOM      8  C   UNL     1      -0.488   1.312  26.034  0.00  0.00    +0.037 A 
ATOM      9  C   UNL     1      -1.632   0.302  24.473  0.00  0.00    +0.053 C 
ATOM     30  N   UNL     1      -1.715   0.316  23.653  0.00  0.00    -0.274 NA
ATOM     31  C   UNL     1      -1.266   0.843  23.201  0.00  0.00    +0.130 C 
ATOM     32  C   UNL     1      -0.736   1.354  23.571  0.00  0.00    +0.053 C 
BRANCH   3   2
ATOM      1  C   UNL     1       0.279   2.727  26.654  0.00  0.00    +0.252 C 
ATOM      2  O   UNL     1       0.491   2.350  25.953  0.00  0.00    -0.471 OA
ENDBRANCH   3   2
ENDBRANCH  10   9
ENDBRANCH  11  10
BRANCH  16  17
ATOM     17  C   UNL     1      -2.822  -1.680  24.698  0.00  0.00    +0.114 C 
BRANCH  17  18
ATOM     18  C   UNL     1      -3.198  -2.414  24.730  0.00  0.00    +0.365 C 
ATOM     19  O   UNL     1      -3.384  -2.814  24.033  0.00  0.00    -0.246 OA
ATOM     20  O   UNL     1      -3.387  -2.748  25.461  0.00  0.00    -0.246 OA
ENDBRANCH  17  18
ENDBRANCH  16  17
BRANCH  21  23
ATOM     23  C   UNL     1      -4.240   1.820  24.871  0.00  0.00    +0.112 C 
BRANCH  23  24
ATOM     24  C   UNL     1      -4.682   2.476  25.105  0.00  0.00    -0.013 A 
ATOM     25  C   UNL     1      -4.556   3.208  24.745  0.00  0.00    -0.004 A 
ATOM     26  C   UNL     1      -4.998   3.864  24.979  0.00  0.00    -0.000 A 
ATOM     27  C   UNL     1      -5.567   3.789  25.572  0.00  0.00    -0.000 A 
ATOM     28  C   UNL     1      -5.693   3.057  25.932  0.00  0.00    -0.000 A 
ATOM     29  C   UNL     1      -5.251   2.401  25.698  0.00  0.00    -0.004 A 
ENDBRANCH  23  24
ENDBRANCH  21  23
TORSDOF 7
ENDMDL
MODEL 8
REMARK VINA RESULT:     -10.7      1.741      2.403
REMARK  Name = 
REMARK  7 active torsions:
REMARK  status: ('A' for Active; 'I' for Inactive)
REMARK    1  A    between atoms: O_2  and  C_3
REMARK    2  A    between atoms: C_9  and  C_10
REMARK    3  A    between atoms: C_10  and  C_11
REMARK    4  A    between atoms: C_16  and  C_17
REMARK    5  A    between atoms: C_17  and  C_18
REMARK    6  A    between atoms: C_21  and  C_23
REMARK    7  A    between atoms: C_23  and  C_24
REMARK                            x       y       z     vdW  Elec       q    Type
REMARK                         _______ _______ _______ _____ _____    ______ ____
ROOT
ATOM     11  C   UNL     1      -2.040   3.252  25.159  0.00  0.00    +0.026 C 
ATOM     12  C   UNL     1      -1.815   2.470  25.287  0.00  0.00    +0.094 C 
ATOM     13  N   UNL     1      -1.014   2.272  25.332  0.00  0.00    -0.279 N 
ATOM     14  C   UNL     1      -0.440   2.859  25.248  0.00  0.00    +0.093 C 
ATOM     15  C   UNL     1      -0.665   3.641  25.119  0.00  0.00    +0.022 C 
ATOM     16  C   UNL     1      -1.465   3.839  25.075  0.00  0.00    +0.015 C 
ATOM     21  C   UNL     1      -0.789   1.489  25.461  0.00  0.00    +0.230 C 
ATOM     22  O   UNL     1       0.011   1.293  25.505  0.00  0.00    -0.275 OA
ENDROOT
BRANCH  11  10
ATOM     10  C   UNL     1      -2.839   3.450  25.114  0.00  0.00    +0.047 C 
BRANCH  10   9
ATOM      3  C   UNL     1      -5.606   2.380  25.349  0.00  0.00    +0.138 A 
ATOM      4  C   UNL     1      -5.349   2.187  24.589  0.00  0.00    +0.033 A 
ATOM      5  C   UNL     1      -4.593   2.406  24.339  0.00  0.00    -0.016 A 
ATOM      6  C   UNL     1      -4.093   2.819  24.851  0.00  0.00    +0.009 A 
ATOM      7  C   UNL     1      -4.350   3.011  25.612  0.00  0.00    +0.004 A 
ATOM      8  C   UNL     1      -5.106   2.792  25.861  0.00  0.00    +0.037 A 
ATOM      9  C   UNL     1      -3.339   3.038  24.603  0.00  0.00    +0.053 C 
ATOM     30  N   UNL     1      -3.083   2.845  23.843  0.00  0.00    -0.274 NA
ATOM     31  C   UNL     1      -3.582   2.433  23.331  0.00  0.00    +0.130 C 
ATOM     32  C   UNL     1      -4.337   2.214  23.580  0.00  0.00    +0.053 C 
BRANCH   3   2
ATOM      1  C   UNL     1      -6.469   1.829  26.344  0.00  0.00    +0.252 C 
ATOM      2  O   UNL     1      -6.360   2.161  25.598  0.00  0.00    -0.471 OA
ENDBRANCH   3   2
ENDBRANCH  10   9
ENDBRANCH  11  10
BRANCH  16  17
ATOM     17  C   UNL     1      -1.690   4.622  24.946  0.00  0.00    +0.114 C 
BRANCH  17  18
ATOM     18  C   UNL     1      -1.116   5.210  24.877  0.00  0.00    +0.365 C 
ATOM     19  O   UNL     1      -1.121   5.854  25.392  0.00  0.00    -0.246 OA
ATOM     20  O   UNL     1      -0.536   5.154  24.292  0.00  0.00    -0.246 OA
ENDBRANCH  17  18
ENDBRANCH  16  17
BRANCH  21  23
ATOM     23  C   UNL     1      -1.364   0.904  25.545  0.00  0.00    +0.112 C 
BRANCH  23  24
ATOM     24  C   UNL     1      -1.180   0.118  25.371  0.00  0.00    -0.013 A 
ATOM     25  C   UNL     1      -1.076  -0.426  25.982  0.00  0.00    -0.004 A 
ATOM     26  C   UNL     1      -0.893  -1.212  25.809  0.00  0.00    -0.000 A 
ATOM     27  C   UNL     1      -0.813  -1.454  25.024  0.00  0.00    -0.000 A 
ATOM     28  C   UNL     1      -0.916  -0.909  24.412  0.00  0.00    -0.000 A 
ATOM     29  C   UNL     1      -1.100  -0.123  24.586  0.00  0.00    -0.004 A 
ENDBRANCH  23  24
ENDBRANCH  21  23
TORSDOF 7
ENDMDL
MODEL 9
REMARK VINA RESULT:     -10.5      1.355      2.163
REMARK  Name = 
REMARK  7 active torsions:
REMARK  status: ('A' for Active; 'I' for Inactive)
REMARK    1  A    between atoms: O_2  and  C_3
REMARK    2  A    between atoms: C_9  and  C_10
REMARK    3  A    between atoms: C_10  and  C_11
REMARK    4  A    between atoms: C_16  and  C_17
REMARK    5  A    between atoms: C_17  and  C_18
REMARK    6  A    between atoms: C_21  and  C_23
REMARK    7  A    between atoms: C_23  and  C_24
REMARK                            x       y       z     vdW  Elec       q    Type
REMARK                         _______ _______ _______ _____ _____    ______ ____
ROOT
ATOM     11  C   UNL     1      -0.459   0.467  23.972  0.00  0.00    +0.026 C 
ATOM     12  C   UNL     1      -1.027  -0.033  24.299  0.00  0.00    +0.094 C 
ATOM     13  N   UNL     1      -0.880  -0.844  24.356  0.00  0.00    -0.279 N 
ATOM     14  C   UNL     1      -0.165  -1.152  24.084  0.00  0.00    +0.093 C 
ATOM     15  C   UNL     1       0.402  -0.653  23.756  0.00  0.00    +0.022 C 
ATOM     16  C   UNL     1       0.256   0.157  23.700  0.00  0.00    +0.015 C 
ATOM     21  C   UNL     1      -1.448  -1.344  24.683  0.00  0.00    +0.230 C 
ATOM     22  O   UNL     1      -1.301  -2.154  24.739  0.00  0.00    -0.275 OA
ENDROOT
BRANCH  11  10
ATOM     10  C   UNL     1      -0.606   1.277  23.916  0.00  0.00    +0.047 C 
BRANCH  10   9
ATOM      3  C   UNL     1      -2.605   3.356  24.643  0.00  0.00    +0.138 A 
ATOM      4  C   UNL     1      -2.130   3.252  25.309  0.00  0.00    +0.033 A 
ATOM      5  C   UNL     1      -1.511   2.707  25.295  0.00  0.00    -0.016 A 
ATOM      6  C   UNL     1      -1.367   2.264  24.612  0.00  0.00    +0.009 A 
ATOM      7  C   UNL     1      -1.843   2.368  23.946  0.00  0.00    +0.004 A 
ATOM      8  C   UNL     1      -2.462   2.914  23.960  0.00  0.00    +0.037 A 
ATOM      9  C   UNL     1      -0.749   1.719  24.597  0.00  0.00    +0.053 C 
ATOM     30  N   UNL     1      -0.274   1.615  25.263  0.00  0.00    -0.274 NA
ATOM     31  C   UNL     1      -0.418   2.058  25.946  0.00  0.00    +0.130 C 
ATOM     32  C   UNL     1      -1.036   2.603  25.961  0.00  0.00    +0.053 C 
BRANCH   3   2
ATOM      1  C   UNL     1      -4.003   3.644  24.583  0.00  0.00    +0.252 C 
ATOM      2  O   UNL     1      -3.223   3.902  24.658  0.00  0.00    -0.471 OA
ENDBRANCH   3   2
ENDBRANCH  10   9
ENDBRANCH  11  10
BRANCH  16  17
ATOM     17  C   UNL     1       0.824   0.658  23.372  0.00  0.00    +0.114 C 
BRANCH  17  18
ATOM     18  C   UNL     1       1.436   0.345  22.917  0.00  0.00    +0.365 C 
ATOM     19  O   UNL     1       1.275   0.018  22.177  0.00  0.00    -0.246 OA
ATOM     20  O   UNL     1       2.211   0.358  23.203  0.00  0.00    -0.246 OA
ENDBRANCH  17  18
ENDBRANCH  16  17
BRANCH  21  23
ATOM     23  C   UNL     1      -2.163  -1.034  24.955  0.00  0.00    +0.112 C 
BRANCH  23  24
ATOM     24  C   UNL     1      -2.875  -1.392  24.741  0.00  0.00    -0.013 A 
ATOM     25  C   UNL     1      -3.004  -2.189  24.911  0.00  0.00    -0.004 A 
ATOM     26  C   UNL     1      -3.716  -2.547  24.697  0.00  0.00    -0.000 A 
ATOM     27  C   UNL     1      -4.300  -2.108  24.314  0.00  0.00    -0.000 A 
ATOM     28  C   UNL     1      -4.171  -1.311  24.144  0.00  0.00    -0.000 A 
ATOM     29  C   UNL     1      -3.459  -0.953  24.357  0.00  0.00    -0.004 A 
ENDBRANCH  23  24
ENDBRANCH  21  23
TORSDOF 7
ENDMDL
