REMARK  Name = 
REMARK  6 active torsions:
REMARK  status: ('A' for Active; 'I' for Inactive)
REMARK    1  A    between atoms: C_5  and  C_8
REMARK    2  A    between atoms: N_10  and  C_11
REMARK    3  A    between atoms: C_11  and  C_12
REMARK    4  A    between atoms: C_14  and  C_15
REMARK    5  A    between atoms: C_15  and  C_16
REMARK    6  A    between atoms: N_18  and  C_19
REMARK                            x       y       z     vdW  Elec       q    Type
REMARK                         _______ _______ _______ _____ _____    ______ ____
ROOT
ATOM     12  C   UNL     1       3.500  10.377   0.000  0.00  0.00    +0.170 C 
ATOM     13  O   UNL     1       4.307  10.206   0.000  0.00  0.00    -0.351 OA
ATOM     14  C   UNL     1       4.394   9.385   0.000  0.00  0.00    +0.157 C 
ATOM     22  C   UNL     1       3.640   9.050   0.000  0.00  0.00    +0.212 C 
ATOM     23  O   UNL     1       3.468   8.243   0.000  0.00  0.00    -0.218 OA
ATOM     24  C   UNL     1       3.088   9.663   0.000  0.00  0.00    +0.213 C 
ATOM     25  O   UNL     1       2.267   9.577   0.000  0.00  0.00    -0.218 OA
ENDROOT
BRANCH  12  11
ATOM     11  C   UNL     1       3.165  11.131   0.000  0.00  0.00    +0.148 C 
BRANCH  11  10
ATOM      8  C   UNL     1       2.009  11.971   0.000  0.00  0.00    +0.265 C 
ATOM      9  O   UNL     1       2.494  12.639   0.000  0.00  0.00    -0.268 OA
ATOM     10  N   UNL     1       2.344  11.217   0.000  0.00  0.00    -0.199 NA
BRANCH   8   5
ATOM      1  C   UNL     1      -1.273  12.316   0.000  0.00  0.00    +0.031 C 
ATOM      2  C   UNL     1      -0.453  12.230   0.000  0.00  0.00    -0.022 A 
ATOM      3  C   UNL     1       0.032  12.897   0.000  0.00  0.00    -0.004 A 
ATOM      4  C   UNL     1       0.853  12.811   0.000  0.00  0.00    +0.004 A 
ATOM      5  C   UNL     1       1.188  12.057   0.000  0.00  0.00    +0.055 A 
ATOM      6  C   UNL     1       0.703  11.390   0.000  0.00  0.00    +0.004 A 
ATOM      7  C   UNL     1      -0.117  11.476   0.000  0.00  0.00    -0.004 A 
ENDBRANCH   8   5
ENDBRANCH  11  10
ENDBRANCH  12  11
BRANCH  14  15
ATOM     15  C   UNL     1       5.108   8.973   0.000  0.00  0.00    +0.119 C 
BRANCH  15  16
ATOM     16  C   UNL     1       5.108   8.148   0.000  0.00  0.00    +0.244 C 
ATOM     17  O   UNL     1       4.394   7.735   0.000  0.00  0.00    -0.273 OA
ATOM     18  N   UNL     1       5.822   7.735   0.000  0.00  0.00    -0.207 NA
BRANCH  18  19
ATOM     19  C   UNL     1       5.822   6.910   0.000  0.00  0.00    +0.095 C 
ATOM     20  C   UNL     1       6.235   6.196   0.000  0.00  0.00    +0.023 C 
ATOM     21  C   UNL     1       5.410   6.196   0.000  0.00  0.00    +0.023 C 
ENDBRANCH  18  19
ENDBRANCH  15  16
ENDBRANCH  14  15
TORSDOF 6
