MODEL 1
REMARK VINA RESULT:     -10.8      0.000      0.000
REMARK  Name = 
REMARK  6 active torsions:
REMARK  status: ('A' for Active; 'I' for Inactive)
REMARK    1  A    between atoms: O_2  and  C_3
REMARK    2  A    between atoms: C_6  and  C_7
REMARK    3  A    between atoms: C_7  and  N_8
REMARK    4  A    between atoms: N_12  and  C_13
REMARK    5  A    between atoms: C_13  and  C_14
REMARK    6  A    between atoms: C_19  and  O_20
REMARK                            x       y       z     vdW  Elec       q    Type
REMARK                         _______ _______ _______ _____ _____    ______ ____
ROOT
ATOM      8  N   UNL     1      -4.249   2.974  25.206  0.00  0.00    -0.258 N 
ATOM      9  C   UNL     1      -3.779   2.436  24.791  0.00  0.00    +0.116 C 
ATOM     10  C   UNL     1      -4.163   1.707  24.797  0.00  0.00    +0.113 C 
ATOM     11  C   UNL     1      -3.961   0.974  24.476  0.00  0.00    +0.094 C 
ATOM     12  N   UNL     1      -4.464   0.328  24.573  0.00  0.00    -0.266 NA
ATOM     22  C   UNL     1      -5.170   0.414  24.991  0.00  0.00    +0.094 C 
ATOM     23  C   UNL     1      -5.373   1.146  25.312  0.00  0.00    +0.112 C 
ATOM     24  N   UNL     1      -4.869   1.793  25.215  0.00  0.00    -0.261 N 
ATOM     25  C   UNL     1      -4.922   2.576  25.468  0.00  0.00    +0.308 C 
ATOM     26  O   UNL     1      -5.540   2.904  25.905  0.00  0.00    -0.252 OA
ENDROOT
BRANCH   8   7
ATOM      7  C   UNL     1      -4.075   3.770  25.335  0.00  0.00    +0.122 C 
BRANCH   7   6
ATOM      3  C   UNL     1      -1.723   4.541  25.338  0.00  0.00    +0.139 A 
ATOM      4  C   UNL     1      -2.057   4.232  26.026  0.00  0.00    +0.037 A 
ATOM      5  C   UNL     1      -2.841   3.975  26.026  0.00  0.00    +0.001 A 
ATOM      6  C   UNL     1      -3.291   4.027  25.336  0.00  0.00    -0.002 A 
ATOM     27  C   UNL     1      -2.957   4.336  24.647  0.00  0.00    +0.001 A 
ATOM     28  C   UNL     1      -2.173   4.592  24.649  0.00  0.00    +0.037 A 
BRANCH   3   2
ATOM      1  C   UNL     1      -0.513   4.824  24.633  0.00  0.00    +0.252 C 
ATOM      2  O   UNL     1      -0.939   4.798  25.338  0.00  0.00    -0.471 OA
ENDBRANCH   3   2
ENDBRANCH   7   6
ENDBRANCH   8   7
BRANCH  12  13
ATOM     13  C   UNL     1      -4.262  -0.405  24.252  0.00  0.00    +0.102 C 
BRANCH  13  14
ATOM     14  C   UNL     1      -3.912  -0.982  24.726  0.00  0.00    +0.028 A 
ATOM     15  C   UNL     1      -3.579  -0.773  25.452  0.00  0.00    +0.000 A 
ATOM     16  C   UNL     1      -3.229  -1.350  25.926  0.00  0.00    -0.000 A 
ATOM     17  C   UNL     1      -3.213  -2.136  25.676  0.00  0.00    +0.003 A 
ATOM     18  C   UNL     1      -3.546  -2.345  24.951  0.00  0.00    +0.037 A 
ATOM     19  C   UNL     1      -3.896  -1.768  24.476  0.00  0.00    +0.136 A 
BRANCH  19  20
ATOM     20  O   UNL     1      -4.229  -1.977  23.751  0.00  0.00    -0.472 OA
ATOM     21  C   UNL     1      -4.209  -2.762  23.498  0.00  0.00    +0.252 C 
ENDBRANCH  19  20
ENDBRANCH  13  14
ENDBRANCH  12  13
TORSDOF 6
ENDMDL
MODEL 2
REMARK VINA RESULT:     -10.5      1.098      5.170
REMARK  Name = 
REMARK  6 active torsions:
REMARK  status: ('A' for Active; 'I' for Inactive)
REMARK    1  A    between atoms: O_2  and  C_3
REMARK    2  A    between atoms: C_6  and  C_7
REMARK    3  A    between atoms: C_7  and  N_8
REMARK    4  A    between atoms: N_12  and  C_13
REMARK    5  A    between atoms: C_13  and  C_14
REMARK    6  A    between atoms: C_19  and  O_20
REMARK                            x       y       z     vdW  Elec       q    Type
REMARK                         _______ _______ _______ _____ _____    ______ ____
ROOT
ATOM      8  N   UNL     1      -4.462   0.564  24.695  0.00  0.00    -0.258 N 
ATOM      9  C   UNL     1      -3.759   0.823  24.348  0.00  0.00    +0.116 C 
ATOM     10  C   UNL     1      -3.647   1.612  24.560  0.00  0.00    +0.113 C 
ATOM     11  C   UNL     1      -3.050   2.153  24.380  0.00  0.00    +0.094 C 
ATOM     12  N   UNL     1      -3.086   2.921  24.677  0.00  0.00    -0.266 NA
ATOM     22  C   UNL     1      -3.720   3.150  25.154  0.00  0.00    +0.094 C 
ATOM     23  C   UNL     1      -4.317   2.610  25.334  0.00  0.00    +0.112 C 
ATOM     24  N   UNL     1      -4.280   1.840  25.037  0.00  0.00    -0.261 N 
ATOM     25  C   UNL     1      -4.783   1.193  25.120  0.00  0.00    +0.308 C 
ATOM     26  O   UNL     1      -5.486   1.176  25.553  0.00  0.00    -0.252 OA
ENDROOT
BRANCH   8   7
ATOM      7  C   UNL     1      -4.785  -0.192  24.627  0.00  0.00    +0.122 C 
BRANCH   7   6
ATOM      3  C   UNL     1      -3.304  -2.174  24.583  0.00  0.00    +0.139 A 
ATOM      4  C   UNL     1      -3.707  -1.946  23.901  0.00  0.00    +0.037 A 
ATOM      5  C   UNL     1      -4.201  -1.285  23.915  0.00  0.00    +0.001 A 
ATOM      6  C   UNL     1      -4.292  -0.853  24.612  0.00  0.00    -0.002 A 
ATOM     27  C   UNL     1      -3.888  -1.082  25.295  0.00  0.00    +0.001 A 
ATOM     28  C   UNL     1      -3.395  -1.742  25.280  0.00  0.00    +0.037 A 
BRANCH   3   2
ATOM      1  C   UNL     1      -1.998  -2.742  24.462  0.00  0.00    +0.252 C 
ATOM      2  O   UNL     1      -2.810  -2.835  24.569  0.00  0.00    -0.471 OA
ENDBRANCH   3   2
ENDBRANCH   7   6
ENDBRANCH   8   7
BRANCH  12  13
ATOM     13  C   UNL     1      -2.490   3.462  24.497  0.00  0.00    +0.102 C 
BRANCH  13  14
ATOM     14  C   UNL     1      -1.767   3.426  24.892  0.00  0.00    +0.028 A 
ATOM     15  C   UNL     1      -1.443   2.694  25.095  0.00  0.00    +0.000 A 
ATOM     16  C   UNL     1      -0.720   2.658  25.489  0.00  0.00    -0.000 A 
ATOM     17  C   UNL     1      -0.320   3.353  25.681  0.00  0.00    +0.003 A 
ATOM     18  C   UNL     1      -0.642   4.085  25.479  0.00  0.00    +0.037 A 
ATOM     19  C   UNL     1      -1.366   4.121  25.084  0.00  0.00    +0.136 A 
BRANCH  19  20
ATOM     20  O   UNL     1      -1.689   4.853  24.882  0.00  0.00    -0.472 OA
ATOM     21  C   UNL     1      -1.234   5.538  24.952  0.00  0.00    +0.252 C 
ENDBRANCH  19  20
ENDBRANCH  13  14
ENDBRANCH  12  13
TORSDOF 6
ENDMDL
MODEL 3
REMARK VINA RESULT:     -10.2      2.259      3.059
REMARK  Name = 
REMARK  6 active torsions:
REMARK  status: ('A' for Active; 'I' for Inactive)
REMARK    1  A    between atoms: O_2  and  C_3
REMARK    2  A    between atoms: C_6  and  C_7
REMARK    3  A    between atoms: C_7  and  N_8
REMARK    4  A    between atoms: N_12  and  C_13
REMARK    5  A    between atoms: C_13  and  C_14
REMARK    6  A    between atoms: C_19  and  O_20
REMARK                            x       y       z     vdW  Elec       q    Type
REMARK                         _______ _______ _______ _____ _____    ______ ____
ROOT
ATOM      8  N   UNL     1      -0.315   1.527  25.164  0.00  0.00    -0.258 N 
ATOM      9  C   UNL     1      -0.967   1.199  25.550  0.00  0.00    +0.116 C 
ATOM     10  C   UNL     1      -1.112   0.459  25.218  0.00  0.00    +0.113 C 
ATOM     11  C   UNL     1      -1.684  -0.115  25.377  0.00  0.00    +0.094 C 
ATOM     12  N   UNL     1      -1.694  -0.818  24.946  0.00  0.00    -0.266 NA
ATOM     22  C   UNL     1      -1.133  -0.948  24.356  0.00  0.00    +0.094 C 
ATOM     23  C   UNL     1      -0.561  -0.375  24.196  0.00  0.00    +0.112 C 
ATOM     24  N   UNL     1      -0.551   0.329  24.628  0.00  0.00    -0.261 N 
ATOM     25  C   UNL     1      -0.058   0.989  24.594  0.00  0.00    +0.308 C 
ATOM     26  O   UNL     1       0.580   1.093  24.081  0.00  0.00    -0.252 OA
ENDROOT
BRANCH   8   7
ATOM      7  C   UNL     1       0.021   2.264  25.321  0.00  0.00    +0.122 C 
BRANCH   7   6
ATOM      3  C   UNL     1      -1.390   4.297  25.313  0.00  0.00    +0.139 A 
ATOM      4  C   UNL     1      -1.388   3.800  25.970  0.00  0.00    +0.037 A 
ATOM      5  C   UNL     1      -0.918   3.122  25.973  0.00  0.00    +0.001 A 
ATOM      6  C   UNL     1      -0.449   2.942  25.318  0.00  0.00    -0.002 A 
ATOM     27  C   UNL     1      -0.451   3.440  24.660  0.00  0.00    +0.001 A 
ATOM     28  C   UNL     1      -0.922   4.117  24.658  0.00  0.00    +0.037 A 
BRANCH   3   2
ATOM      1  C   UNL     1      -1.571   5.677  24.988  0.00  0.00    +0.252 C 
ATOM      2  O   UNL     1      -1.861   4.975  25.309  0.00  0.00    -0.471 OA
ENDBRANCH   3   2
ENDBRANCH   7   6
ENDBRANCH   8   7
BRANCH  12  13
ATOM     13  C   UNL     1      -2.266  -1.391  25.105  0.00  0.00    +0.102 C 
BRANCH  13  14
ATOM     14  C   UNL     1      -2.985  -1.381  24.701  0.00  0.00    +0.028 A 
ATOM     15  C   UNL     1      -3.335  -0.661  24.499  0.00  0.00    +0.000 A 
ATOM     16  C   UNL     1      -4.054  -0.651  24.096  0.00  0.00    -0.000 A 
ATOM     17  C   UNL     1      -4.424  -1.360  23.894  0.00  0.00    +0.003 A 
ATOM     18  C   UNL     1      -4.075  -2.080  24.096  0.00  0.00    +0.037 A 
ATOM     19  C   UNL     1      -3.355  -2.090  24.500  0.00  0.00    +0.136 A 
BRANCH  19  20
ATOM     20  O   UNL     1      -3.006  -2.810  24.701  0.00  0.00    -0.472 OA
ATOM     21  C   UNL     1      -3.412  -3.516  24.573  0.00  0.00    +0.252 C 
ENDBRANCH  19  20
ENDBRANCH  13  14
ENDBRANCH  12  13
TORSDOF 6
ENDMDL
MODEL 4
REMARK VINA RESULT:      -9.9      2.285      5.976
REMARK  Name = 
REMARK  6 active torsions:
REMARK  status: ('A' for Active; 'I' for Inactive)
REMARK    1  A    between atoms: O_2  and  C_3
REMARK    2  A    between atoms: C_6  and  C_7
REMARK    3  A    between atoms: C_7  and  N_8
REMARK    4  A    between atoms: N_12  and  C_13
REMARK    5  A    between atoms: C_13  and  C_14
REMARK    6  A    between atoms: C_19  and  O_20
REMARK                            x       y       z     vdW  Elec       q    Type
REMARK                         _______ _______ _______ _____ _____    ______ ____
ROOT
ATOM      8  N   UNL     1      -0.830  -0.562  25.083  0.00  0.00    -0.258 N 
ATOM      9  C   UNL     1      -1.140   0.005  25.597  0.00  0.00    +0.116 C 
ATOM     10  C   UNL     1      -0.888   0.746  25.340  0.00  0.00    +0.113 C 
ATOM     11  C   UNL     1      -1.022   1.507  25.630  0.00  0.00    +0.094 C 
ATOM     12  N   UNL     1      -0.692   2.159  25.249  0.00  0.00    -0.266 NA
ATOM     22  C   UNL     1      -0.227   2.051  24.576  0.00  0.00    +0.094 C 
ATOM     23  C   UNL     1      -0.093   1.291  24.284  0.00  0.00    +0.112 C 
ATOM     24  N   UNL     1      -0.424   0.638  24.666  0.00  0.00    -0.261 N 
ATOM     25  C   UNL     1      -0.388  -0.170  24.508  0.00  0.00    +0.308 C 
ATOM     26  O   UNL     1       0.019  -0.525  23.884  0.00  0.00    -0.252 OA
ENDROOT
BRANCH   8   7
ATOM      7  C   UNL     1      -0.943  -1.378  25.136  0.00  0.00    +0.122 C 
BRANCH   7   6
ATOM      3  C   UNL     1      -3.180  -2.348  24.710  0.00  0.00    +0.139 A 
ATOM      4  C   UNL     1      -3.061  -1.857  25.361  0.00  0.00    +0.037 A 
ATOM      5  C   UNL     1      -2.316  -1.533  25.503  0.00  0.00    +0.001 A 
ATOM      6  C   UNL     1      -1.689  -1.701  24.994  0.00  0.00    -0.002 A 
ATOM     27  C   UNL     1      -1.808  -2.193  24.342  0.00  0.00    +0.001 A 
ATOM     28  C   UNL     1      -2.553  -2.516  24.200  0.00  0.00    +0.037 A 
BRANCH   3   2
ATOM      1  C   UNL     1      -4.341  -2.468  23.885  0.00  0.00    +0.252 C 
ATOM      2  O   UNL     1      -3.925  -2.672  24.567  0.00  0.00    -0.471 OA
ENDBRANCH   3   2
ENDBRANCH   7   6
ENDBRANCH   8   7
BRANCH  12  13
ATOM     13  C   UNL     1      -0.826   2.919  25.540  0.00  0.00    +0.102 C 
BRANCH  13  14
ATOM     14  C   UNL     1      -1.536   3.305  25.377  0.00  0.00    +0.028 A 
ATOM     15  C   UNL     1      -2.248   2.888  25.404  0.00  0.00    +0.000 A 
ATOM     16  C   UNL     1      -2.958   3.274  25.241  0.00  0.00    -0.000 A 
ATOM     17  C   UNL     1      -2.957   4.077  25.050  0.00  0.00    +0.003 A 
ATOM     18  C   UNL     1      -2.246   4.494  25.023  0.00  0.00    +0.037 A 
ATOM     19  C   UNL     1      -1.535   4.107  25.186  0.00  0.00    +0.136 A 
BRANCH  19  20
ATOM     20  O   UNL     1      -0.824   4.525  25.158  0.00  0.00    -0.472 OA
ATOM     21  C   UNL     1      -0.819   5.317  24.928  0.00  0.00    +0.252 C 
ENDBRANCH  19  20
ENDBRANCH  13  14
ENDBRANCH  12  13
TORSDOF 6
ENDMDL
MODEL 5
REMARK VINA RESULT:      -9.6      2.676      3.916
REMARK  Name = 
REMARK  6 active torsions:
REMARK  status: ('A' for Active; 'I' for Inactive)
REMARK    1  A    between atoms: O_2  and  C_3
REMARK    2  A    between atoms: C_6  and  C_7
REMARK    3  A    between atoms: C_7  and  N_8
REMARK    4  A    between atoms: N_12  and  C_13
REMARK    5  A    between atoms: C_13  and  C_14
REMARK    6  A    between atoms: C_19  and  O_20
REMARK                            x       y       z     vdW  Elec       q    Type
REMARK                         _______ _______ _______ _____ _____    ______ ____
ROOT
ATOM      8  N   UNL     1      -2.633   3.502  24.955  0.00  0.00    -0.258 N 
ATOM      9  C   UNL     1      -2.421   2.896  24.436  0.00  0.00    +0.116 C 
ATOM     10  C   UNL     1      -1.663   2.642  24.638  0.00  0.00    +0.113 C 
ATOM     11  C   UNL     1      -1.173   2.060  24.320  0.00  0.00    +0.094 C 
ATOM     12  N   UNL     1      -0.427   1.926  24.644  0.00  0.00    -0.266 NA
ATOM     22  C   UNL     1      -0.170   2.375  25.288  0.00  0.00    +0.094 C 
ATOM     23  C   UNL     1      -0.660   2.957  25.606  0.00  0.00    +0.112 C 
ATOM     24  N   UNL     1      -1.407   3.091  25.281  0.00  0.00    -0.261 N 
ATOM     25  C   UNL     1      -2.006   3.622  25.477  0.00  0.00    +0.308 C 
ATOM     26  O   UNL     1      -1.983   4.177  26.087  0.00  0.00    -0.252 OA
ENDROOT
BRANCH   8   7
ATOM      7  C   UNL     1      -3.347   3.916  24.951  0.00  0.00    +0.122 C 
BRANCH   7   6
ATOM      3  C   UNL     1      -5.486   2.696  25.201  0.00  0.00    +0.139 A 
ATOM      4  C   UNL     1      -5.102   2.709  24.471  0.00  0.00    +0.037 A 
ATOM      5  C   UNL     1      -4.389   3.116  24.387  0.00  0.00    +0.001 A 
ATOM      6  C   UNL     1      -4.060   3.509  25.034  0.00  0.00    -0.002 A 
ATOM     27  C   UNL     1      -4.445   3.496  25.764  0.00  0.00    +0.001 A 
ATOM     28  C   UNL     1      -5.158   3.089  25.847  0.00  0.00    +0.037 A 
BRANCH   3   2
ATOM      1  C   UNL     1      -6.248   1.493  25.079  0.00  0.00    +0.252 C 
ATOM      2  O   UNL     1      -6.200   2.290  25.285  0.00  0.00    -0.471 OA
ENDBRANCH   3   2
ENDBRANCH   7   6
ENDBRANCH   8   7
BRANCH  12  13
ATOM     13  C   UNL     1       0.064   1.344  24.326  0.00  0.00    +0.102 C 
BRANCH  13  14
ATOM     14  C   UNL     1      -0.131   0.548  24.411  0.00  0.00    +0.028 A 
ATOM     15  C   UNL     1      -0.588   0.300  25.052  0.00  0.00    +0.000 A 
ATOM     16  C   UNL     1      -0.784  -0.496  25.137  0.00  0.00    -0.000 A 
ATOM     17  C   UNL     1      -0.522  -1.046  24.580  0.00  0.00    +0.003 A 
ATOM     18  C   UNL     1      -0.066  -0.800  23.939  0.00  0.00    +0.037 A 
ATOM     19  C   UNL     1       0.130  -0.002  23.855  0.00  0.00    +0.136 A 
BRANCH  19  20
ATOM     20  O   UNL     1       0.587   0.244  23.213  0.00  0.00    -0.472 OA
ATOM     21  C   UNL     1       1.018  -0.308  22.777  0.00  0.00    +0.252 C 
ENDBRANCH  19  20
ENDBRANCH  13  14
ENDBRANCH  12  13
TORSDOF 6
ENDMDL
MODEL 6
REMARK VINA RESULT:      -9.5      1.837      2.795
REMARK  Name = 
REMARK  6 active torsions:
REMARK  status: ('A' for Active; 'I' for Inactive)
REMARK    1  A    between atoms: O_2  and  C_3
REMARK    2  A    between atoms: C_6  and  C_7
REMARK    3  A    between atoms: C_7  and  N_8
REMARK    4  A    between atoms: N_12  and  C_13
REMARK    5  A    between atoms: C_13  and  C_14
REMARK    6  A    between atoms: C_19  and  O_20
REMARK                            x       y       z     vdW  Elec       q    Type
REMARK                         _______ _______ _______ _____ _____    ______ ____
ROOT
ATOM      8  N   UNL     1      -1.898   2.507  24.935  0.00  0.00    -0.258 N 
ATOM      9  C   UNL     1      -2.254   1.852  24.582  0.00  0.00    +0.116 C 
ATOM     10  C   UNL     1      -1.834   1.180  24.810  0.00  0.00    +0.113 C 
ATOM     11  C   UNL     1      -1.933   0.380  24.632  0.00  0.00    +0.094 C 
ATOM     12  N   UNL     1      -1.416  -0.179  24.947  0.00  0.00    -0.266 NA
ATOM     22  C   UNL     1      -0.800   0.060  25.441  0.00  0.00    +0.094 C 
ATOM     23  C   UNL     1      -0.701   0.859  25.620  0.00  0.00    +0.112 C 
ATOM     24  N   UNL     1      -1.218   1.420  25.304  0.00  0.00    -0.261 N 
ATOM     25  C   UNL     1      -1.258   2.239  25.381  0.00  0.00    +0.308 C 
ATOM     26  O   UNL     1      -0.746   2.710  25.826  0.00  0.00    -0.252 OA
ENDROOT
BRANCH   8   7
ATOM      7  C   UNL     1      -2.139   3.292  24.856  0.00  0.00    +0.122 C 
BRANCH   7   6
ATOM      3  C   UNL     1      -4.508   3.903  25.230  0.00  0.00    +0.139 A 
ATOM      4  C   UNL     1      -3.985   3.873  25.866  0.00  0.00    +0.037 A 
ATOM      5  C   UNL     1      -3.195   3.669  25.742  0.00  0.00    +0.001 A 
ATOM      6  C   UNL     1      -2.929   3.496  24.981  0.00  0.00    -0.002 A 
ATOM     27  C   UNL     1      -3.452   3.526  24.344  0.00  0.00    +0.001 A 
ATOM     28  C   UNL     1      -4.242   3.730  24.469  0.00  0.00    +0.037 A 
BRANCH   3   2
ATOM      1  C   UNL     1      -5.827   3.548  25.649  0.00  0.00    +0.252 C 
ATOM      2  O   UNL     1      -5.298   4.107  25.354  0.00  0.00    -0.471 OA
ENDBRANCH   3   2
ENDBRANCH   7   6
ENDBRANCH   8   7
BRANCH  12  13
ATOM     13  C   UNL     1      -1.514  -0.979  24.769  0.00  0.00    +0.102 C 
BRANCH  13  14
ATOM     14  C   UNL     1      -2.181  -1.383  25.037  0.00  0.00    +0.028 A 
ATOM     15  C   UNL     1      -2.629  -1.075  25.659  0.00  0.00    +0.000 A 
ATOM     16  C   UNL     1      -3.296  -1.479  25.926  0.00  0.00    -0.000 A 
ATOM     17  C   UNL     1      -3.516  -2.191  25.573  0.00  0.00    +0.003 A 
ATOM     18  C   UNL     1      -3.070  -2.499  24.951  0.00  0.00    +0.037 A 
ATOM     19  C   UNL     1      -2.402  -2.095  24.683  0.00  0.00    +0.136 A 
BRANCH  19  20
ATOM     20  O   UNL     1      -1.956  -2.403  24.062  0.00  0.00    -0.472 OA
ATOM     21  C   UNL     1      -2.089  -3.174  23.801  0.00  0.00    +0.252 C 
ENDBRANCH  19  20
ENDBRANCH  13  14
ENDBRANCH  12  13
TORSDOF 6
ENDMDL
