MODEL 1
REMARK VINA RESULT:      -8.2      0.000      0.000
REMARK  Name = 
REMARK  6 active torsions:
REMARK  status: ('A' for Active; 'I' for Inactive)
REMARK    1  A    between atoms: C_2  and  C_3
REMARK    2  A    between atoms: C_2  and  C_26
REMARK    3  A    between atoms: C_14  and  C_16
REMARK    4  A    between atoms: C_16  and  N_17
REMARK    5  A    between atoms: N_28  and  C_30
REMARK    6  A    between atoms: C_30  and  C_31
REMARK                            x       y       z     vdW  Elec       q    Type
REMARK                         _______ _______ _______ _____ _____    ______ ____
ROOT
ATOM      3  C   UNL     1      -3.508   1.468  24.519  0.00  0.00    +0.039 C 
ATOM      4  C   UNL     1      -3.360   1.982  23.891  0.00  0.00    +0.003 C 
ATOM      5  C   UNL     1      -2.640   1.948  23.491  0.00  0.00    +0.001 C 
ATOM      6  C   UNL     1      -2.067   1.398  23.719  0.00  0.00    +0.007 C 
ATOM      7  C   UNL     1      -1.919   1.913  23.090  0.00  0.00    +0.000 C 
ATOM      8  C   UNL     1      -1.346   1.365  23.318  0.00  0.00    +0.034 C 
ATOM      9  C   UNL     1      -0.773   0.816  23.545  0.00  0.00    +0.023 A 
ATOM     10  C   UNL     1      -0.921   0.301  24.173  0.00  0.00    +0.063 A 
ATOM     11  N   UNL     1      -0.257  -0.178  24.272  0.00  0.00    -0.227 NA
ATOM     12  C   UNL     1       0.302   0.041  23.705  0.00  0.00    +0.185 A 
ATOM     13  N   UNL     1       1.048  -0.296  23.605  0.00  0.00    -0.153 NA
ATOM     14  C   UNL     1       1.549  -0.018  23.012  0.00  0.00    +0.264 C 
ATOM     15  O   UNL     1       1.304   0.595  22.519  0.00  0.00    -0.271 OA
ATOM     20  S   UNL     1      -0.018   0.655  23.256  0.00  0.00    -0.054 S 
ATOM     21  C   UNL     1      -1.642   0.336  24.573  0.00  0.00    +0.043 C 
ATOM     22  C   UNL     1      -1.789  -0.179  25.201  0.00  0.00    +0.006 C 
ATOM     23  C   UNL     1      -2.214   0.885  24.346  0.00  0.00    +0.036 C 
ATOM     24  C   UNL     1      -2.934   0.919  24.746  0.00  0.00    +0.153 C 
ATOM     25  O   UNL     1      -3.083   0.404  25.374  0.00  0.00    -0.223 OA
ENDROOT
BRANCH   3   2
ATOM      1  C   UNL     1      -4.741   0.856  24.899  0.00  0.00    +0.010 C 
ATOM      2  C   UNL     1      -4.228   1.502  24.919  0.00  0.00    +0.079 C 
BRANCH   2  26
ATOM     26  C   UNL     1      -4.435   2.180  25.340  0.00  0.00    +0.226 C 
ATOM     27  O   UNL     1      -3.865   2.581  25.783  0.00  0.00    -0.275 OA
ATOM     28  N   UNL     1      -5.212   2.458  25.319  0.00  0.00    -0.274 N 
ATOM     29  C   UNL     1      -5.781   2.057  24.877  0.00  0.00    +0.115 C 
BRANCH  28  30
ATOM     30  C   UNL     1      -5.419   3.136  25.739  0.00  0.00    +0.120 C 
BRANCH  30  31
ATOM     31  C   UNL     1      -6.016   3.631  25.457  0.00  0.00    -0.005 C 
ATOM     32  C   UNL     1      -6.075   4.406  25.733  0.00  0.00    -0.003 C 
ENDBRANCH  30  31
ENDBRANCH  28  30
ENDBRANCH   2  26
ENDBRANCH   3   2
BRANCH  14  16
ATOM     16  C   UNL     1       2.296  -0.355  22.912  0.00  0.00    +0.161 C 
BRANCH  16  17
ATOM     17  N   UNL     1       2.889   0.065  22.522  0.00  0.00    -0.263 NA
ATOM     18  C   UNL     1       3.414   0.533  22.951  0.00  0.00    +0.090 C 
ATOM     19  C   UNL     1       2.956   0.016  21.700  0.00  0.00    +0.090 C 
ENDBRANCH  16  17
ENDBRANCH  14  16
TORSDOF 6
ENDMDL
MODEL 2
REMARK VINA RESULT:      -7.1      1.274      6.140
REMARK  Name = 
REMARK  6 active torsions:
REMARK  status: ('A' for Active; 'I' for Inactive)
REMARK    1  A    between atoms: C_2  and  C_3
REMARK    2  A    between atoms: C_2  and  C_26
REMARK    3  A    between atoms: C_14  and  C_16
REMARK    4  A    between atoms: C_16  and  N_17
REMARK    5  A    between atoms: N_28  and  C_30
REMARK    6  A    between atoms: C_30  and  C_31
REMARK                            x       y       z     vdW  Elec       q    Type
REMARK                         _______ _______ _______ _____ _____    ______ ____
ROOT
ATOM      3  C   UNL     1      -0.085   0.549  23.520  0.00  0.00    +0.039 C 
ATOM      4  C   UNL     1      -0.218   1.254  23.115  0.00  0.00    +0.003 C 
ATOM      5  C   UNL     1      -0.946   1.635  23.178  0.00  0.00    +0.001 C 
ATOM      6  C   UNL     1      -1.543   1.310  23.648  0.00  0.00    +0.007 C 
ATOM      7  C   UNL     1      -1.676   2.016  23.242  0.00  0.00    +0.000 C 
ATOM      8  C   UNL     1      -2.272   1.691  23.712  0.00  0.00    +0.034 C 
ATOM      9  C   UNL     1      -2.867   1.366  24.181  0.00  0.00    +0.023 A 
ATOM     10  C   UNL     1      -2.734   0.660  24.587  0.00  0.00    +0.063 A 
ATOM     11  N   UNL     1      -3.420   0.473  25.005  0.00  0.00    -0.227 NA
ATOM     12  C   UNL     1      -3.978   1.064  24.857  0.00  0.00    +0.185 A 
ATOM     13  N   UNL     1      -4.742   1.096  25.165  0.00  0.00    -0.153 NA
ATOM     14  C   UNL     1      -5.240   1.723  24.968  0.00  0.00    +0.264 C 
ATOM     15  O   UNL     1      -4.973   2.318  24.463  0.00  0.00    -0.271 OA
ATOM     20  S   UNL     1      -3.636   1.615  24.348  0.00  0.00    -0.054 S 
ATOM     21  C   UNL     1      -2.005   0.279  24.523  0.00  0.00    +0.043 C 
ATOM     22  C   UNL     1      -1.872  -0.426  24.928  0.00  0.00    +0.006 C 
ATOM     23  C   UNL     1      -1.409   0.604  24.053  0.00  0.00    +0.036 C 
ATOM     24  C   UNL     1      -0.681   0.223  23.990  0.00  0.00    +0.153 C 
ATOM     25  O   UNL     1      -0.547  -0.483  24.395  0.00  0.00    -0.223 OA
ENDROOT
BRANCH   3   2
ATOM      1  C   UNL     1       0.673  -0.651  23.358  0.00  0.00    +0.010 C 
ATOM      2  C   UNL     1       0.644   0.167  23.457  0.00  0.00    +0.079 C 
BRANCH   2  26
ATOM     26  C   UNL     1       1.343   0.603  23.492  0.00  0.00    +0.226 C 
ATOM     27  O   UNL     1       1.415   1.225  24.031  0.00  0.00    -0.275 OA
ATOM     28  N   UNL     1       1.971   0.418  22.990  0.00  0.00    -0.274 N 
ATOM     29  C   UNL     1       1.900  -0.203  22.452  0.00  0.00    +0.115 C 
BRANCH  28  30
ATOM     30  C   UNL     1       2.670   0.854  23.026  0.00  0.00    +0.120 C 
BRANCH  30  31
ATOM     31  C   UNL     1       3.331   0.611  22.596  0.00  0.00    -0.005 C 
ATOM     32  C   UNL     1       4.066   0.956  22.739  0.00  0.00    -0.003 C 
ENDBRANCH  30  31
ENDBRANCH  28  30
ENDBRANCH   2  26
ENDBRANCH   3   2
BRANCH  14  16
ATOM     16  C   UNL     1      -6.005   1.755  25.276  0.00  0.00    +0.161 C 
BRANCH  16  17
ATOM     17  N   UNL     1      -6.178   2.271  25.896  0.00  0.00    -0.263 NA
ATOM     18  C   UNL     1      -6.392   1.971  26.634  0.00  0.00    +0.090 C 
ATOM     19  C   UNL     1      -6.136   3.087  25.779  0.00  0.00    +0.090 C 
ENDBRANCH  16  17
ENDBRANCH  14  16
TORSDOF 6
ENDMDL
MODEL 3
REMARK VINA RESULT:      -6.8     14.354     14.872
REMARK  Name = 
REMARK  6 active torsions:
REMARK  status: ('A' for Active; 'I' for Inactive)
REMARK    1  A    between atoms: C_2  and  C_3
REMARK    2  A    between atoms: C_2  and  C_26
REMARK    3  A    between atoms: C_14  and  C_16
REMARK    4  A    between atoms: C_16  and  N_17
REMARK    5  A    between atoms: N_28  and  C_30
REMARK    6  A    between atoms: C_30  and  C_31
REMARK                            x       y       z     vdW  Elec       q    Type
REMARK                         _______ _______ _______ _____ _____    ______ ____
ROOT
ATOM      3  C   UNL     1      -7.143 -10.157  16.481  0.00  0.00    +0.039 C 
ATOM      4  C   UNL     1      -7.486 -10.157  15.732  0.00  0.00    +0.003 C 
ATOM      5  C   UNL     1      -7.012 -10.229  15.061  0.00  0.00    +0.001 C 
ATOM      6  C   UNL     1      -6.193 -10.301  15.140  0.00  0.00    +0.007 C 
ATOM      7  C   UNL     1      -6.537 -10.301  14.389  0.00  0.00    +0.000 C 
ATOM      8  C   UNL     1      -5.719 -10.373  14.468  0.00  0.00    +0.034 C 
ATOM      9  C   UNL     1      -4.901 -10.445  14.547  0.00  0.00    +0.023 A 
ATOM     10  C   UNL     1      -4.557 -10.445  15.298  0.00  0.00    +0.063 A 
ATOM     11  N   UNL     1      -3.741 -10.524  15.204  0.00  0.00    -0.227 NA
ATOM     12  C   UNL     1      -3.580 -10.573  14.396  0.00  0.00    +0.185 A 
ATOM     13  N   UNL     1      -2.835 -10.656  14.054  0.00  0.00    -0.153 NA
ATOM     14  C   UNL     1      -2.759 -10.698  13.234  0.00  0.00    +0.264 C 
ATOM     15  O   UNL     1      -3.429 -10.656  12.756  0.00  0.00    -0.271 OA
ATOM     20  S   UNL     1      -4.297 -10.524  13.991  0.00  0.00    -0.054 S 
ATOM     21  C   UNL     1      -5.032 -10.373  15.969  0.00  0.00    +0.043 C 
ATOM     22  C   UNL     1      -4.687 -10.373  16.718  0.00  0.00    +0.006 C 
ATOM     23  C   UNL     1      -5.850 -10.301  15.890  0.00  0.00    +0.036 C 
ATOM     24  C   UNL     1      -6.324 -10.229  16.560  0.00  0.00    +0.153 C 
ATOM     25  O   UNL     1      -5.981 -10.229  17.311  0.00  0.00    -0.223 OA
ENDROOT
BRANCH   3   2
ATOM      1  C   UNL     1      -7.600 -10.671  17.733  0.00  0.00    +0.010 C 
ATOM      2  C   UNL     1      -7.617 -10.085  17.153  0.00  0.00    +0.079 C 
BRANCH   2  26
ATOM     26  C   UNL     1      -8.106  -9.428  17.244  0.00  0.00    +0.226 C 
ATOM     27  O   UNL     1      -7.812  -8.670  17.099  0.00  0.00    -0.275 OA
ATOM     28  N   UNL     1      -8.891  -9.527  17.481  0.00  0.00    -0.274 N 
ATOM     29  C   UNL     1      -9.185 -10.284  17.626  0.00  0.00    +0.115 C 
BRANCH  28  30
ATOM     30  C   UNL     1      -9.381  -8.871  17.572  0.00  0.00    +0.120 C 
BRANCH  30  31
ATOM     31  C   UNL     1     -10.171  -8.971  17.788  0.00  0.00    -0.005 C 
ATOM     32  C   UNL     1     -10.716  -8.368  17.651  0.00  0.00    -0.003 C 
ENDBRANCH  30  31
ENDBRANCH  28  30
ENDBRANCH   2  26
ENDBRANCH   3   2
BRANCH  14  16
ATOM     16  C   UNL     1      -2.012 -10.781  12.893  0.00  0.00    +0.161 C 
BRANCH  16  17
ATOM     17  N   UNL     1      -1.850 -10.425  12.166  0.00  0.00    -0.263 NA
ATOM     18  C   UNL     1      -2.102 -10.781  11.466  0.00  0.00    +0.090 C 
ATOM     19  C   UNL     1      -1.433  -9.713  12.140  0.00  0.00    +0.090 C 
ENDBRANCH  16  17
ENDBRANCH  14  16
TORSDOF 6
ENDMDL
MODEL 4
REMARK VINA RESULT:      -6.4     16.410     17.821
REMARK  Name = 
REMARK  6 active torsions:
REMARK  status: ('A' for Active; 'I' for Inactive)
REMARK    1  A    between atoms: C_2  and  C_3
REMARK    2  A    between atoms: C_2  and  C_26
REMARK    3  A    between atoms: C_14  and  C_16
REMARK    4  A    between atoms: C_16  and  N_17
REMARK    5  A    between atoms: N_28  and  C_30
REMARK    6  A    between atoms: C_30  and  C_31
REMARK                            x       y       z     vdW  Elec       q    Type
REMARK                         _______ _______ _______ _____ _____    ______ ____
ROOT
ATOM      3  C   UNL     1      -3.743 -10.234  12.130  0.00  0.00    +0.039 C 
ATOM      4  C   UNL     1      -4.437 -10.305  12.569  0.00  0.00    +0.003 C 
ATOM      5  C   UNL     1      -5.149 -10.024  12.263  0.00  0.00    +0.001 C 
ATOM      6  C   UNL     1      -5.167  -9.671  11.517  0.00  0.00    +0.007 C 
ATOM      7  C   UNL     1      -5.862  -9.742  11.957  0.00  0.00    +0.000 C 
ATOM      8  C   UNL     1      -5.880  -9.389  11.211  0.00  0.00    +0.034 C 
ATOM      9  C   UNL     1      -5.898  -9.037  10.465  0.00  0.00    +0.023 A 
ATOM     10  C   UNL     1      -5.203  -8.966  10.025  0.00  0.00    +0.063 A 
ATOM     11  N   UNL     1      -5.390  -8.596   9.312  0.00  0.00    -0.227 NA
ATOM     12  C   UNL     1      -6.200  -8.438   9.311  0.00  0.00    +0.185 A 
ATOM     13  N   UNL     1      -6.621  -8.072   8.704  0.00  0.00    -0.153 NA
ATOM     14  C   UNL     1      -7.433  -7.951   8.780  0.00  0.00    +0.264 C 
ATOM     15  O   UNL     1      -7.824  -8.195   9.464  0.00  0.00    -0.271 OA
ATOM     20  S   UNL     1      -6.513  -8.711  10.023  0.00  0.00    -0.054 S 
ATOM     21  C   UNL     1      -4.491  -9.247  10.332  0.00  0.00    +0.043 C 
ATOM     22  C   UNL     1      -3.796  -9.176   9.892  0.00  0.00    +0.006 C 
ATOM     23  C   UNL     1      -4.473  -9.600  11.078  0.00  0.00    +0.036 C 
ATOM     24  C   UNL     1      -3.761  -9.881  11.384  0.00  0.00    +0.153 C 
ATOM     25  O   UNL     1      -3.066  -9.810  10.945  0.00  0.00    -0.223 OA
ENDROOT
BRANCH   3   2
ATOM      1  C   UNL     1      -2.437 -10.776  11.925  0.00  0.00    +0.010 C 
ATOM      2  C   UNL     1      -3.030 -10.515  12.436  0.00  0.00    +0.079 C 
BRANCH   2  26
ATOM     26  C   UNL     1      -2.910 -10.536  13.251  0.00  0.00    +0.226 C 
ATOM     27  O   UNL     1      -3.520 -10.779  13.752  0.00  0.00    -0.275 OA
ATOM     28  N   UNL     1      -2.181 -10.313  13.568  0.00  0.00    -0.274 N 
ATOM     29  C   UNL     1      -1.572 -10.069  13.067  0.00  0.00    +0.115 C 
BRANCH  28  30
ATOM     30  C   UNL     1      -2.061 -10.334  14.383  0.00  0.00    +0.120 C 
BRANCH  30  31
ATOM     31  C   UNL     1      -1.344 -10.078  14.702  0.00  0.00    -0.005 C 
ATOM     32  C   UNL     1      -1.220 -10.107  15.516  0.00  0.00    -0.003 C 
ENDBRANCH  30  31
ENDBRANCH  28  30
ENDBRANCH   2  26
ENDBRANCH   3   2
BRANCH  14  16
ATOM     16  C   UNL     1      -7.855  -7.585   8.173  0.00  0.00    +0.161 C 
BRANCH  16  17
ATOM     17  N   UNL     1      -8.576  -7.218   8.334  0.00  0.00    -0.263 NA
ATOM     18  C   UNL     1      -8.607  -6.403   8.456  0.00  0.00    +0.090 C 
ATOM     19  C   UNL     1      -9.268  -7.667   8.374  0.00  0.00    +0.090 C 
ENDBRANCH  16  17
ENDBRANCH  14  16
TORSDOF 6
ENDMDL
MODEL 5
REMARK VINA RESULT:      -6.1     15.000     16.746
REMARK  Name = 
REMARK  6 active torsions:
REMARK  status: ('A' for Active; 'I' for Inactive)
REMARK    1  A    between atoms: C_2  and  C_3
REMARK    2  A    between atoms: C_2  and  C_26
REMARK    3  A    between atoms: C_14  and  C_16
REMARK    4  A    between atoms: C_16  and  N_17
REMARK    5  A    between atoms: N_28  and  C_30
REMARK    6  A    between atoms: C_30  and  C_31
REMARK                            x       y       z     vdW  Elec       q    Type
REMARK                         _______ _______ _______ _____ _____    ______ ____
ROOT
ATOM      3  C   UNL     1      -3.373 -10.550  12.567  0.00  0.00    +0.039 C 
ATOM      4  C   UNL     1      -3.030 -10.767  13.285  0.00  0.00    +0.003 C 
ATOM      5  C   UNL     1      -3.483 -10.774  13.974  0.00  0.00    +0.001 C 
ATOM      6  C   UNL     1      -4.281 -10.563  13.944  0.00  0.00    +0.007 C 
ATOM      7  C   UNL     1      -3.938 -10.781  14.663  0.00  0.00    +0.000 C 
ATOM      8  C   UNL     1      -4.735 -10.570  14.634  0.00  0.00    +0.034 C 
ATOM      9  C   UNL     1      -5.532 -10.360  14.605  0.00  0.00    +0.023 A 
ATOM     10  C   UNL     1      -5.876 -10.143  13.886  0.00  0.00    +0.063 A 
ATOM     11  N   UNL     1      -6.669  -9.964  14.027  0.00  0.00    -0.227 NA
ATOM     12  C   UNL     1      -6.816 -10.071  14.832  0.00  0.00    +0.185 A 
ATOM     13  N   UNL     1      -7.537  -9.954  15.213  0.00  0.00    -0.153 NA
ATOM     14  C   UNL     1      -7.601 -10.083  16.025  0.00  0.00    +0.264 C 
ATOM     15  O   UNL     1      -6.943 -10.329  16.456  0.00  0.00    -0.271 OA
ATOM     20  S   UNL     1      -6.113 -10.316  15.189  0.00  0.00    -0.054 S 
ATOM     21  C   UNL     1      -5.422 -10.136  13.198  0.00  0.00    +0.043 C 
ATOM     22  C   UNL     1      -5.766  -9.919  12.480  0.00  0.00    +0.006 C 
ATOM     23  C   UNL     1      -4.624 -10.347  13.227  0.00  0.00    +0.036 C 
ATOM     24  C   UNL     1      -4.171 -10.340  12.538  0.00  0.00    +0.153 C 
ATOM     25  O   UNL     1      -4.514 -10.123  11.820  0.00  0.00    -0.223 OA
ENDROOT
BRANCH   3   2
ATOM      1  C   UNL     1      -3.266 -10.737  11.155  0.00  0.00    +0.010 C 
ATOM      2  C   UNL     1      -2.920 -10.543  11.878  0.00  0.00    +0.079 C 
BRANCH   2  26
ATOM     26  C   UNL     1      -2.121 -10.343  11.911  0.00  0.00    +0.226 C 
ATOM     27  O   UNL     1      -1.621 -10.724  12.447  0.00  0.00    -0.275 OA
ATOM     28  N   UNL     1      -1.819  -9.762  11.409  0.00  0.00    -0.274 N 
ATOM     29  C   UNL     1      -2.318  -9.381  10.873  0.00  0.00    +0.115 C 
BRANCH  28  30
ATOM     30  C   UNL     1      -1.020  -9.561  11.442  0.00  0.00    +0.120 C 
BRANCH  30  31
ATOM     31  C   UNL     1      -0.754  -8.863  11.092  0.00  0.00    -0.005 C 
ATOM     32  C   UNL     1       0.054  -8.710  11.038  0.00  0.00    -0.003 C 
ENDBRANCH  30  31
ENDBRANCH  28  30
ENDBRANCH   2  26
ENDBRANCH   3   2
BRANCH  14  16
ATOM     16  C   UNL     1      -8.324  -9.965  16.406  0.00  0.00    +0.161 C 
BRANCH  16  17
ATOM     17  N   UNL     1      -8.353  -9.542  17.113  0.00  0.00    -0.263 NA
ATOM     18  C   UNL     1      -8.341  -8.717  17.102  0.00  0.00    +0.090 C 
ATOM     19  C   UNL     1      -8.394  -9.944  17.833  0.00  0.00    +0.090 C 
ENDBRANCH  16  17
ENDBRANCH  14  16
TORSDOF 6
ENDMDL
MODEL 6
REMARK VINA RESULT:      -5.8     17.115     17.703
REMARK  Name = 
REMARK  6 active torsions:
REMARK  status: ('A' for Active; 'I' for Inactive)
REMARK    1  A    between atoms: C_2  and  C_3
REMARK    2  A    between atoms: C_2  and  C_26
REMARK    3  A    between atoms: C_14  and  C_16
REMARK    4  A    between atoms: C_16  and  N_17
REMARK    5  A    between atoms: N_28  and  C_30
REMARK    6  A    between atoms: C_30  and  C_31
REMARK                            x       y       z     vdW  Elec       q    Type
REMARK                         _______ _______ _______ _____ _____    ______ ____
ROOT
ATOM      3  C   UNL     1      -7.242  -8.436   9.157  0.00  0.00    +0.039 C 
ATOM      4  C   UNL     1      -6.579  -8.408   8.667  0.00  0.00    +0.003 C 
ATOM      5  C   UNL     1      -5.848  -8.663   8.948  0.00  0.00    +0.001 C 
ATOM      6  C   UNL     1      -5.779  -8.948   9.720  0.00  0.00    +0.007 C 
ATOM      7  C   UNL     1      -5.115  -8.920   9.230  0.00  0.00    +0.000 C 
ATOM      8  C   UNL     1      -5.046  -9.204  10.001  0.00  0.00    +0.034 C 
ATOM      9  C   UNL     1      -4.978  -9.489  10.773  0.00  0.00    +0.023 A 
ATOM     10  C   UNL     1      -5.641  -9.517  11.263  0.00  0.00    +0.063 A 
ATOM     11  N   UNL     1      -5.406  -9.823  11.992  0.00  0.00    -0.227 NA
ATOM     12  C   UNL     1      -4.597  -9.983  11.953  0.00  0.00    +0.185 A 
ATOM     13  N   UNL     1      -4.135 -10.295  12.560  0.00  0.00    -0.153 NA
ATOM     14  C   UNL     1      -3.330 -10.427  12.440  0.00  0.00    +0.264 C 
ATOM     15  O   UNL     1      -2.987 -10.246  11.712  0.00  0.00    -0.271 OA
ATOM     20  S   UNL     1      -4.333  -9.777  11.199  0.00  0.00    -0.054 S 
ATOM     21  C   UNL     1      -6.373  -9.261  10.981  0.00  0.00    +0.043 C 
ATOM     22  C   UNL     1      -7.036  -9.290  11.471  0.00  0.00    +0.006 C 
ATOM     23  C   UNL     1      -6.442  -8.977  10.210  0.00  0.00    +0.036 C 
ATOM     24  C   UNL     1      -7.173  -8.721   9.929  0.00  0.00    +0.153 C 
ATOM     25  O   UNL     1      -7.837  -8.749  10.418  0.00  0.00    -0.223 OA
ENDROOT
BRANCH   3   2
ATOM      1  C   UNL     1      -8.597  -8.717   8.800  0.00  0.00    +0.010 C 
ATOM      2  C   UNL     1      -7.975  -8.180   8.876  0.00  0.00    +0.079 C 
BRANCH   2  26
ATOM     26  C   UNL     1      -8.085  -7.390   8.671  0.00  0.00    +0.226 C 
ATOM     27  O   UNL     1      -7.432  -6.909   8.514  0.00  0.00    -0.275 OA
ATOM     28  N   UNL     1      -8.848  -7.078   8.621  0.00  0.00    -0.274 N 
ATOM     29  C   UNL     1      -9.500  -7.558   8.777  0.00  0.00    +0.115 C 
BRANCH  28  30
ATOM     30  C   UNL     1      -8.958  -6.287   8.416  0.00  0.00    +0.120 C 
BRANCH  30  31
ATOM     31  C   UNL     1      -9.688  -5.924   8.546  0.00  0.00    -0.005 C 
ATOM     32  C   UNL     1      -9.759  -5.106   8.481  0.00  0.00    -0.003 C 
ENDBRANCH  30  31
ENDBRANCH  28  30
ENDBRANCH   2  26
ENDBRANCH   3   2
BRANCH  14  16
ATOM     16  C   UNL     1      -2.868 -10.739  13.048  0.00  0.00    +0.161 C 
BRANCH  16  17
ATOM     17  N   UNL     1      -2.072 -10.530  13.110  0.00  0.00    -0.263 NA
ATOM     18  C   UNL     1      -1.812 -10.072  13.744  0.00  0.00    +0.090 C 
ATOM     19  C   UNL     1      -1.534 -10.781  12.535  0.00  0.00    +0.090 C 
ENDBRANCH  16  17
ENDBRANCH  14  16
TORSDOF 6
ENDMDL
MODEL 7
REMARK VINA RESULT:      -5.7     15.402     15.910
REMARK  Name = 
REMARK  6 active torsions:
REMARK  status: ('A' for Active; 'I' for Inactive)
REMARK    1  A    between atoms: C_2  and  C_3
REMARK    2  A    between atoms: C_2  and  C_26
REMARK    3  A    between atoms: C_14  and  C_16
REMARK    4  A    between atoms: C_16  and  N_17
REMARK    5  A    between atoms: N_28  and  C_30
REMARK    6  A    between atoms: C_30  and  C_31
REMARK                            x       y       z     vdW  Elec       q    Type
REMARK                         _______ _______ _______ _____ _____    ______ ____
ROOT
ATOM      3  C   UNL     1      -7.615 -10.110  15.503  0.00  0.00    +0.039 C 
ATOM      4  C   UNL     1      -8.183 -10.051  14.908  0.00  0.00    +0.003 C 
ATOM      5  C   UNL     1      -7.951 -10.011  14.118  0.00  0.00    +0.001 C 
ATOM      6  C   UNL     1      -7.149 -10.030  13.922  0.00  0.00    +0.007 C 
ATOM      7  C   UNL     1      -7.718  -9.970  13.327  0.00  0.00    +0.000 C 
ATOM      8  C   UNL     1      -6.917  -9.990  13.131  0.00  0.00    +0.034 C 
ATOM      9  C   UNL     1      -6.116 -10.009  12.936  0.00  0.00    +0.023 A 
ATOM     10  C   UNL     1      -5.546 -10.069  13.531  0.00  0.00    +0.063 A 
ATOM     11  N   UNL     1      -4.803 -10.075  13.172  0.00  0.00    -0.227 NA
ATOM     12  C   UNL     1      -4.913 -10.020  12.356  0.00  0.00    +0.185 A 
ATOM     13  N   UNL     1      -4.316 -10.008  11.787  0.00  0.00    -0.153 NA
ATOM     14  C   UNL     1      -4.510  -9.950  10.987  0.00  0.00    +0.264 C 
ATOM     15  O   UNL     1      -5.300  -9.905  10.757  0.00  0.00    -0.271 OA
ATOM     20  S   UNL     1      -5.724  -9.979  12.210  0.00  0.00    -0.054 S 
ATOM     21  C   UNL     1      -5.779 -10.109  14.321  0.00  0.00    +0.043 C 
ATOM     22  C   UNL     1      -5.210 -10.168  14.915  0.00  0.00    +0.006 C 
ATOM     23  C   UNL     1      -6.581 -10.090  14.517  0.00  0.00    +0.036 C 
ATOM     24  C   UNL     1      -6.813 -10.130  15.307  0.00  0.00    +0.153 C 
ATOM     25  O   UNL     1      -6.244 -10.189  15.902  0.00  0.00    -0.223 OA
ENDROOT
BRANCH   3   2
ATOM      1  C   UNL     1      -7.591 -10.777  16.766  0.00  0.00    +0.010 C 
ATOM      2  C   UNL     1      -7.847 -10.151  16.293  0.00  0.00    +0.079 C 
BRANCH   2  26
ATOM     26  C   UNL     1      -8.334  -9.566  16.611  0.00  0.00    +0.226 C 
ATOM     27  O   UNL     1      -8.155  -8.769  16.490  0.00  0.00    -0.275 OA
ATOM     28  N   UNL     1      -8.999  -9.777  17.051  0.00  0.00    -0.274 N 
ATOM     29  C   UNL     1      -9.178 -10.573  17.173  0.00  0.00    +0.115 C 
BRANCH  28  30
ATOM     30  C   UNL     1      -9.486  -9.193  17.369  0.00  0.00    +0.120 C 
BRANCH  30  31
ATOM     31  C   UNL     1     -10.192  -9.401  17.742  0.00  0.00    -0.005 C 
ATOM     32  C   UNL     1     -10.719  -8.815  17.985  0.00  0.00    -0.003 C 
ENDBRANCH  30  31
ENDBRANCH  28  30
ENDBRANCH   2  26
ENDBRANCH   3   2
BRANCH  14  16
ATOM     16  C   UNL     1      -3.913  -9.938  10.418  0.00  0.00    +0.161 C 
BRANCH  16  17
ATOM     17  N   UNL     1      -4.095  -9.762   9.633  0.00  0.00    -0.263 NA
ATOM     18  C   UNL     1      -4.074  -8.981   9.369  0.00  0.00    +0.090 C 
ATOM     19  C   UNL     1      -4.299 -10.368   9.111  0.00  0.00    +0.090 C 
ENDBRANCH  16  17
ENDBRANCH  14  16
TORSDOF 6
ENDMDL
MODEL 8
REMARK VINA RESULT:      -5.3     17.264     18.005
REMARK  Name = 
REMARK  6 active torsions:
REMARK  status: ('A' for Active; 'I' for Inactive)
REMARK    1  A    between atoms: C_2  and  C_3
REMARK    2  A    between atoms: C_2  and  C_26
REMARK    3  A    between atoms: C_14  and  C_16
REMARK    4  A    between atoms: C_16  and  N_17
REMARK    5  A    between atoms: N_28  and  C_30
REMARK    6  A    between atoms: C_30  and  C_31
REMARK                            x       y       z     vdW  Elec       q    Type
REMARK                         _______ _______ _______ _____ _____    ______ ____
ROOT
ATOM      3  C   UNL     1      -6.711  -9.574   9.404  0.00  0.00    +0.039 C 
ATOM      4  C   UNL     1      -6.369  -9.072   8.847  0.00  0.00    +0.003 C 
ATOM      5  C   UNL     1      -5.568  -8.885   8.897  0.00  0.00    +0.001 C 
ATOM      6  C   UNL     1      -5.108  -9.200   9.506  0.00  0.00    +0.007 C 
ATOM      7  C   UNL     1      -4.766  -8.697   8.948  0.00  0.00    +0.000 C 
ATOM      8  C   UNL     1      -4.306  -9.012   9.556  0.00  0.00    +0.034 C 
ATOM      9  C   UNL     1      -3.846  -9.327  10.164  0.00  0.00    +0.023 A 
ATOM     10  C   UNL     1      -4.188  -9.830  10.723  0.00  0.00    +0.063 A 
ATOM     11  N   UNL     1      -3.600 -10.055  11.256  0.00  0.00    -0.227 NA
ATOM     12  C   UNL     1      -2.895  -9.691  11.028  0.00  0.00    +0.185 A 
ATOM     13  N   UNL     1      -2.168  -9.765  11.408  0.00  0.00    -0.153 NA
ATOM     14  C   UNL     1      -1.507  -9.366  11.116  0.00  0.00    +0.264 C 
ATOM     15  O   UNL     1      -1.575  -8.895  10.443  0.00  0.00    -0.271 OA
ATOM     20  S   UNL     1      -3.047  -9.242  10.354  0.00  0.00    -0.054 S 
ATOM     21  C   UNL     1      -4.990 -10.017  10.672  0.00  0.00    +0.043 C 
ATOM     22  C   UNL     1      -5.331 -10.520  11.229  0.00  0.00    +0.006 C 
ATOM     23  C   UNL     1      -5.449  -9.702  10.063  0.00  0.00    +0.036 C 
ATOM     24  C   UNL     1      -6.251  -9.890  10.013  0.00  0.00    +0.153 C 
ATOM     25  O   UNL     1      -6.593 -10.392  10.571  0.00  0.00    -0.223 OA
ENDROOT
BRANCH   3   2
ATOM      1  C   UNL     1      -7.746 -10.543   9.225  0.00  0.00    +0.010 C 
ATOM      2  C   UNL     1      -7.513  -9.762   9.354  0.00  0.00    +0.079 C 
BRANCH   2  26
ATOM     26  C   UNL     1      -8.082  -9.171   9.434  0.00  0.00    +0.226 C 
ATOM     27  O   UNL     1      -8.003  -8.600  10.026  0.00  0.00    -0.275 OA
ATOM     28  N   UNL     1      -8.729  -9.148   8.923  0.00  0.00    -0.274 N 
ATOM     29  C   UNL     1      -8.807  -9.718   8.331  0.00  0.00    +0.115 C 
BRANCH  28  30
ATOM     30  C   UNL     1      -9.298  -8.557   9.002  0.00  0.00    +0.120 C 
BRANCH  30  31
ATOM     31  C   UNL     1      -9.954  -8.545   8.503  0.00  0.00    -0.005 C 
ATOM     32  C   UNL     1     -10.498  -7.927   8.550  0.00  0.00    -0.003 C 
ENDBRANCH  30  31
ENDBRANCH  28  30
ENDBRANCH   2  26
ENDBRANCH   3   2
BRANCH  14  16
ATOM     16  C   UNL     1      -0.779  -9.441  11.496  0.00  0.00    +0.161 C 
BRANCH  16  17
ATOM     17  N   UNL     1      -0.216  -8.841  11.430  0.00  0.00    -0.263 NA
ATOM     18  C   UNL     1      -0.210  -8.218  11.970  0.00  0.00    +0.090 C 
ATOM     19  C   UNL     1       0.341  -8.864  10.821  0.00  0.00    +0.090 C 
ENDBRANCH  16  17
ENDBRANCH  14  16
TORSDOF 6
ENDMDL
MODEL 9
REMARK VINA RESULT:      -5.3     15.768     17.180
REMARK  Name = 
REMARK  6 active torsions:
REMARK  status: ('A' for Active; 'I' for Inactive)
REMARK    1  A    between atoms: C_2  and  C_3
REMARK    2  A    between atoms: C_2  and  C_26
REMARK    3  A    between atoms: C_14  and  C_16
REMARK    4  A    between atoms: C_16  and  N_17
REMARK    5  A    between atoms: N_28  and  C_30
REMARK    6  A    between atoms: C_30  and  C_31
REMARK                            x       y       z     vdW  Elec       q    Type
REMARK                         _______ _______ _______ _____ _____    ______ ____
ROOT
ATOM      3  C   UNL     1      -6.037 -10.130  12.313  0.00  0.00    +0.039 C 
ATOM      4  C   UNL     1      -5.580 -10.216  12.994  0.00  0.00    +0.003 C 
ATOM      5  C   UNL     1      -5.933 -10.162  13.737  0.00  0.00    +0.001 C 
ATOM      6  C   UNL     1      -6.745 -10.022  13.799  0.00  0.00    +0.007 C 
ATOM      7  C   UNL     1      -6.288 -10.108  14.481  0.00  0.00    +0.000 C 
ATOM      8  C   UNL     1      -7.098  -9.968  14.543  0.00  0.00    +0.034 C 
ATOM      9  C   UNL     1      -7.909  -9.828  14.605  0.00  0.00    +0.023 A 
ATOM     10  C   UNL     1      -8.366  -9.742  13.923  0.00  0.00    +0.063 A 
ATOM     11  N   UNL     1      -9.147  -9.609  14.155  0.00  0.00    -0.227 NA
ATOM     12  C   UNL     1      -9.172  -9.613  14.980  0.00  0.00    +0.185 A 
ATOM     13  N   UNL     1      -9.844  -9.501  15.445  0.00  0.00    -0.153 NA
ATOM     14  C   UNL     1      -9.784  -9.520  16.267  0.00  0.00    +0.264 C 
ATOM     15  O   UNL     1      -9.053  -9.650  16.624  0.00  0.00    -0.271 OA
ATOM     20  S   UNL     1      -8.407  -9.748  15.257  0.00  0.00    -0.054 S 
ATOM     21  C   UNL     1      -8.012  -9.796  13.180  0.00  0.00    +0.043 C 
ATOM     22  C   UNL     1      -8.470  -9.710  12.499  0.00  0.00    +0.006 C 
ATOM     23  C   UNL     1      -7.202  -9.936  13.118  0.00  0.00    +0.036 C 
ATOM     24  C   UNL     1      -6.848  -9.990  12.375  0.00  0.00    +0.153 C 
ATOM     25  O   UNL     1      -7.305  -9.903  11.693  0.00  0.00    -0.223 OA
ENDROOT
BRANCH   3   2
ATOM      1  C   UNL     1      -5.911 -10.781  11.048  0.00  0.00    +0.010 C 
ATOM      2  C   UNL     1      -5.684 -10.183  11.569  0.00  0.00    +0.079 C 
BRANCH   2  26
ATOM     26  C   UNL     1      -5.105  -9.641  11.347  0.00  0.00    +0.226 C 
ATOM     27  O   UNL     1      -5.214  -8.836  11.498  0.00  0.00    -0.275 OA
ATOM     28  N   UNL     1      -4.416  -9.900  10.973  0.00  0.00    -0.274 N 
ATOM     29  C   UNL     1      -4.307 -10.704  10.822  0.00  0.00    +0.115 C 
BRANCH  28  30
ATOM     30  C   UNL     1      -3.837  -9.357  10.751  0.00  0.00    +0.120 C 
BRANCH  30  31
ATOM     31  C   UNL     1      -3.127  -9.621  10.423  0.00  0.00    -0.005 C 
ATOM     32  C   UNL     1      -2.473  -9.120  10.398  0.00  0.00    -0.003 C 
ENDBRANCH  30  31
ENDBRANCH  28  30
ENDBRANCH   2  26
ENDBRANCH   3   2
BRANCH  14  16
ATOM     16  C   UNL     1     -10.457  -9.408  16.732  0.00  0.00    +0.161 C 
BRANCH  16  17
ATOM     17  N   UNL     1     -10.393  -9.037  17.466  0.00  0.00    -0.263 NA
ATOM     18  C   UNL     1     -10.341  -8.215  17.511  0.00  0.00    +0.090 C 
ATOM     19  C   UNL     1     -10.383  -9.490  18.157  0.00  0.00    +0.090 C 
ENDBRANCH  16  17
ENDBRANCH  14  16
TORSDOF 6
ENDMDL
MODEL 10
REMARK VINA RESULT:      -5.1     15.320     16.005
REMARK  Name = 
REMARK  6 active torsions:
REMARK  status: ('A' for Active; 'I' for Inactive)
REMARK    1  A    between atoms: C_2  and  C_3
REMARK    2  A    between atoms: C_2  and  C_26
REMARK    3  A    between atoms: C_14  and  C_16
REMARK    4  A    between atoms: C_16  and  N_17
REMARK    5  A    between atoms: N_28  and  C_30
REMARK    6  A    between atoms: C_30  and  C_31
REMARK                            x       y       z     vdW  Elec       q    Type
REMARK                         _______ _______ _______ _____ _____    ______ ____
ROOT
ATOM      3  C   UNL     1      -5.546 -10.229  15.715  0.00  0.00    +0.039 C 
ATOM      4  C   UNL     1      -6.284 -10.062  15.387  0.00  0.00    +0.003 C 
ATOM      5  C   UNL     1      -6.374 -10.028  14.569  0.00  0.00    +0.001 C 
ATOM      6  C   UNL     1      -5.724 -10.161  14.076  0.00  0.00    +0.007 C 
ATOM      7  C   UNL     1      -6.464  -9.994  13.748  0.00  0.00    +0.000 C 
ATOM      8  C   UNL     1      -5.815 -10.127  13.257  0.00  0.00    +0.034 C 
ATOM      9  C   UNL     1      -5.166 -10.260  12.765  0.00  0.00    +0.023 A 
ATOM     10  C   UNL     1      -4.427 -10.428  13.093  0.00  0.00    +0.063 A 
ATOM     11  N   UNL     1      -3.892 -10.534  12.473  0.00  0.00    -0.227 NA
ATOM     12  C   UNL     1      -4.300 -10.432  11.763  0.00  0.00    +0.185 A 
ATOM     13  N   UNL     1      -3.977 -10.489  11.007  0.00  0.00    -0.153 NA
ATOM     14  C   UNL     1      -4.455 -10.373  10.345  0.00  0.00    +0.264 C 
ATOM     15  O   UNL     1      -5.255 -10.200  10.439  0.00  0.00    -0.271 OA
ATOM     20  S   UNL     1      -5.087 -10.263  11.944  0.00  0.00    -0.054 S 
ATOM     21  C   UNL     1      -4.338 -10.461  13.912  0.00  0.00    +0.043 C 
ATOM     22  C   UNL     1      -3.599 -10.629  14.239  0.00  0.00    +0.006 C 
ATOM     23  C   UNL     1      -4.987 -10.328  14.404  0.00  0.00    +0.036 C 
ATOM     24  C   UNL     1      -4.897 -10.362  15.222  0.00  0.00    +0.153 C 
ATOM     25  O   UNL     1      -4.158 -10.529  15.551  0.00  0.00    -0.223 OA
ENDROOT
BRANCH   3   2
ATOM      1  C   UNL     1      -4.701 -10.302  16.864  0.00  0.00    +0.010 C 
ATOM      2  C   UNL     1      -5.456 -10.263  16.534  0.00  0.00    +0.079 C 
BRANCH   2  26
ATOM     26  C   UNL     1      -6.120 -10.258  17.023  0.00  0.00    +0.226 C 
ATOM     27  O   UNL     1      -6.846  -9.994  16.732  0.00  0.00    -0.275 OA
ATOM     28  N   UNL     1      -6.059 -10.517  17.805  0.00  0.00    -0.274 N 
ATOM     29  C   UNL     1      -5.334 -10.781  18.096  0.00  0.00    +0.115 C 
BRANCH  28  30
ATOM     30  C   UNL     1      -6.723 -10.512  18.294  0.00  0.00    +0.120 C 
BRANCH  30  31
ATOM     31  C   UNL     1      -6.665 -10.781  19.072  0.00  0.00    -0.005 C 
ATOM     32  C   UNL     1      -7.262 -10.610  19.613  0.00  0.00    -0.003 C 
ENDBRANCH  30  31
ENDBRANCH  28  30
ENDBRANCH   2  26
ENDBRANCH   3   2
BRANCH  14  16
ATOM     16  C   UNL     1      -4.131 -10.431   9.588  0.00  0.00    +0.161 C 
BRANCH  16  17
ATOM     17  N   UNL     1      -4.409  -9.943   8.983  0.00  0.00    -0.263 NA
ATOM     18  C   UNL     1      -4.962 -10.230   8.442  0.00  0.00    +0.090 C 
ATOM     19  C   UNL     1      -4.135  -9.167   8.919  0.00  0.00    +0.090 C 
ENDBRANCH  16  17
ENDBRANCH  14  16
TORSDOF 6
ENDMDL
