MODEL 1
REMARK VINA RESULT:     -12.6      0.000      0.000
REMARK  Name = 
REMARK  2 active torsions:
REMARK  status: ('A' for Active; 'I' for Inactive)
REMARK    1  A    between atoms: C_5  and  O_8
REMARK    2  A    between atoms: O_8  and  C_9
REMARK                            x       y       z     vdW  Elec       q    Type
REMARK                         _______ _______ _______ _____ _____    ______ ____
ROOT
ATOM      1  C   UNL     1      -5.107   1.994  25.219  0.00  0.00    +0.164 C 
ATOM      2  C   UNL     1      -4.407   2.432  25.189  0.00  0.00    +0.125 C 
ATOM      3  N   UNL     1      -3.675   2.211  24.881  0.00  0.00    -0.282 N 
ATOM      4  C   UNL     1      -3.460   1.497  24.527  0.00  0.00    +0.139 C 
ATOM      5  C   UNL     1      -3.925   0.828  24.394  0.00  0.00    +0.215 C 
ATOM      6  C   UNL     1      -4.720   0.708  24.582  0.00  0.00    +0.187 C 
ATOM      7  O   UNL     1      -5.246   1.227  24.949  0.00  0.00    -0.348 OA
ATOM     15  C   UNL     1      -3.078   2.778  24.933  0.00  0.00    +0.163 A 
ATOM     16  N   UNL     1      -2.302   2.692  24.668  0.00  0.00    -0.224 NA
ATOM     17  C   UNL     1      -1.898   3.392  24.831  0.00  0.00    +0.089 A 
ATOM     18  C   UNL     1      -2.424   3.911  25.198  0.00  0.00    +0.050 A 
ATOM     19  S   UNL     1      -3.153   3.532  25.262  0.00  0.00    -0.052 S 
ATOM     20  C   UNL     1      -2.169   4.662  25.427  0.00  0.00    +0.008 A 
ATOM     21  C   UNL     1      -1.390   4.894  25.290  0.00  0.00    +0.001 A 
ATOM     22  C   UNL     1      -0.865   4.375  24.922  0.00  0.00    +0.002 A 
ATOM     23  C   UNL     1      -1.118   3.624  24.693  0.00  0.00    +0.020 A 
ENDROOT
BRANCH   5   8
ATOM      8  O   UNL     1      -3.545   0.197  24.024  0.00  0.00    -0.475 OA
BRANCH   8   9
ATOM      9  C   UNL     1      -3.531  -0.545  24.387  0.00  0.00    +0.139 A 
ATOM     10  C   UNL     1      -3.994  -1.159  24.086  0.00  0.00    +0.037 A 
ATOM     11  C   UNL     1      -3.980  -1.901  24.448  0.00  0.00    +0.003 A 
ATOM     12  C   UNL     1      -3.505  -2.028  25.110  0.00  0.00    +0.000 A 
ATOM     13  C   UNL     1      -3.042  -1.414  25.410  0.00  0.00    +0.003 A 
ATOM     14  C   UNL     1      -3.056  -0.672  25.048  0.00  0.00    +0.037 A 
ENDBRANCH   8   9
ENDBRANCH   5   8
TORSDOF 2
ENDMDL
MODEL 2
REMARK VINA RESULT:     -12.6      1.534      2.412
REMARK  Name = 
REMARK  2 active torsions:
REMARK  status: ('A' for Active; 'I' for Inactive)
REMARK    1  A    between atoms: C_5  and  O_8
REMARK    2  A    between atoms: O_8  and  C_9
REMARK                            x       y       z     vdW  Elec       q    Type
REMARK                         _______ _______ _______ _____ _____    ______ ____
ROOT
ATOM      1  C   UNL     1      -0.297  -0.011  24.326  0.00  0.00    +0.164 C 
ATOM      2  C   UNL     1      -0.560   0.750  24.509  0.00  0.00    +0.125 C 
ATOM      3  N   UNL     1      -1.263   0.977  24.876  0.00  0.00    -0.282 N 
ATOM      4  C   UNL     1      -1.876   0.500  25.151  0.00  0.00    +0.139 C 
ATOM      5  C   UNL     1      -1.939  -0.323  25.128  0.00  0.00    +0.215 C 
ATOM      6  C   UNL     1      -1.403  -0.871  24.823  0.00  0.00    +0.187 C 
ATOM      7  O   UNL     1      -0.672  -0.732  24.466  0.00  0.00    -0.348 OA
ATOM     15  C   UNL     1      -1.365   1.789  24.981  0.00  0.00    +0.163 A 
ATOM     16  N   UNL     1      -2.016   2.154  25.331  0.00  0.00    -0.224 NA
ATOM     17  C   UNL     1      -1.888   2.969  25.321  0.00  0.00    +0.089 A 
ATOM     18  C   UNL     1      -1.157   3.107  24.964  0.00  0.00    +0.050 A 
ATOM     19  S   UNL     1      -0.834   2.379  24.754  0.00  0.00    -0.052 S 
ATOM     20  C   UNL     1      -0.881   3.880  24.878  0.00  0.00    +0.008 A 
ATOM     21  C   UNL     1      -1.335   4.513  25.147  0.00  0.00    +0.001 A 
ATOM     22  C   UNL     1      -2.066   4.375  25.504  0.00  0.00    +0.002 A 
ATOM     23  C   UNL     1      -2.343   3.603  25.591  0.00  0.00    +0.020 A 
ENDROOT
BRANCH   5   8
ATOM      8  O   UNL     1      -2.629  -0.638  25.453  0.00  0.00    -0.475 OA
BRANCH   8   9
ATOM      9  C   UNL     1      -3.153  -1.060  24.975  0.00  0.00    +0.139 A 
ATOM     10  C   UNL     1      -3.713  -0.657  24.522  0.00  0.00    +0.037 A 
ATOM     11  C   UNL     1      -4.238  -1.079  24.044  0.00  0.00    +0.003 A 
ATOM     12  C   UNL     1      -4.202  -1.902  24.020  0.00  0.00    +0.000 A 
ATOM     13  C   UNL     1      -3.642  -2.306  24.473  0.00  0.00    +0.003 A 
ATOM     14  C   UNL     1      -3.117  -1.883  24.951  0.00  0.00    +0.037 A 
ENDBRANCH   8   9
ENDBRANCH   5   8
TORSDOF 2
ENDMDL
MODEL 3
REMARK VINA RESULT:     -12.4      1.773      4.638
REMARK  Name = 
REMARK  2 active torsions:
REMARK  status: ('A' for Active; 'I' for Inactive)
REMARK    1  A    between atoms: C_5  and  O_8
REMARK    2  A    between atoms: O_8  and  C_9
REMARK                            x       y       z     vdW  Elec       q    Type
REMARK                         _______ _______ _______ _____ _____    ______ ____
ROOT
ATOM      1  C   UNL     1      -1.557   1.360  25.226  0.00  0.00    +0.164 C 
ATOM      2  C   UNL     1      -1.955   0.660  25.045  0.00  0.00    +0.125 C 
ATOM      3  N   UNL     1      -2.689   0.564  24.681  0.00  0.00    -0.282 N 
ATOM      4  C   UNL     1      -3.207   1.145  24.409  0.00  0.00    +0.139 C 
ATOM      5  C   UNL     1      -3.120   1.966  24.433  0.00  0.00    +0.215 C 
ATOM      6  C   UNL     1      -2.491   2.407  24.736  0.00  0.00    +0.187 C 
ATOM      7  O   UNL     1      -1.796   2.137  25.089  0.00  0.00    -0.348 OA
ATOM     15  C   UNL     1      -2.938  -0.215  24.576  0.00  0.00    +0.163 A 
ATOM     16  N   UNL     1      -3.646  -0.456  24.229  0.00  0.00    -0.224 NA
ATOM     17  C   UNL     1      -3.668  -1.280  24.238  0.00  0.00    +0.089 A 
ATOM     18  C   UNL     1      -2.972  -1.549  24.591  0.00  0.00    +0.050 A 
ATOM     19  S   UNL     1      -2.521  -0.892  24.800  0.00  0.00    -0.052 S 
ATOM     20  C   UNL     1      -2.841  -2.360  24.675  0.00  0.00    +0.008 A 
ATOM     21  C   UNL     1      -3.403  -2.900  24.408  0.00  0.00    +0.001 A 
ATOM     22  C   UNL     1      -4.099  -2.630  24.055  0.00  0.00    +0.002 A 
ATOM     23  C   UNL     1      -4.231  -1.820  23.970  0.00  0.00    +0.020 A 
ENDROOT
BRANCH   5   8
ATOM      8  O   UNL     1      -3.742   2.402  24.113  0.00  0.00    -0.475 OA
BRANCH   8   9
ATOM      9  C   UNL     1      -4.333   2.701  24.607  0.00  0.00    +0.139 A 
ATOM     10  C   UNL     1      -5.022   2.265  24.734  0.00  0.00    +0.037 A 
ATOM     11  C   UNL     1      -5.613   2.564  25.228  0.00  0.00    +0.003 A 
ATOM     12  C   UNL     1      -5.513   3.297  25.592  0.00  0.00    +0.000 A 
ATOM     13  C   UNL     1      -4.824   3.733  25.464  0.00  0.00    +0.003 A 
ATOM     14  C   UNL     1      -4.233   3.433  24.971  0.00  0.00    +0.037 A 
ENDBRANCH   8   9
ENDBRANCH   5   8
TORSDOF 2
ENDMDL
MODEL 4
REMARK VINA RESULT:     -12.3      1.316      4.546
REMARK  Name = 
REMARK  2 active torsions:
REMARK  status: ('A' for Active; 'I' for Inactive)
REMARK    1  A    between atoms: C_5  and  O_8
REMARK    2  A    between atoms: O_8  and  C_9
REMARK                            x       y       z     vdW  Elec       q    Type
REMARK                         _______ _______ _______ _____ _____    ______ ____
ROOT
ATOM      1  C   UNL     1      -4.603   2.774  24.127  0.00  0.00    +0.164 C 
ATOM      2  C   UNL     1      -4.376   1.993  24.268  0.00  0.00    +0.125 C 
ATOM      3  N   UNL     1      -3.759   1.714  24.739  0.00  0.00    -0.282 N 
ATOM      4  C   UNL     1      -3.216   2.147  25.185  0.00  0.00    +0.139 C 
ATOM      5  C   UNL     1      -3.157   2.966  25.271  0.00  0.00    +0.215 C 
ATOM      6  C   UNL     1      -3.626   3.554  24.931  0.00  0.00    +0.187 C 
ATOM      7  O   UNL     1      -4.270   3.469  24.422  0.00  0.00    -0.348 OA
ATOM     15  C   UNL     1      -3.673   0.894  24.768  0.00  0.00    +0.163 A 
ATOM     16  N   UNL     1      -3.102   0.481  25.196  0.00  0.00    -0.224 NA
ATOM     17  C   UNL     1      -3.219  -0.325  25.065  0.00  0.00    +0.089 A 
ATOM     18  C   UNL     1      -3.863  -0.410  24.557  0.00  0.00    +0.050 A 
ATOM     19  S   UNL     1      -4.143   0.343  24.372  0.00  0.00    -0.052 S 
ATOM     20  C   UNL     1      -4.109  -1.163  24.327  0.00  0.00    +0.008 A 
ATOM     21  C   UNL     1      -3.713  -1.830  24.606  0.00  0.00    +0.001 A 
ATOM     22  C   UNL     1      -3.070  -1.745  25.115  0.00  0.00    +0.002 A 
ATOM     23  C   UNL     1      -2.822  -0.993  25.345  0.00  0.00    +0.020 A 
ENDROOT
BRANCH   5   8
ATOM      8  O   UNL     1      -2.549   3.231  25.761  0.00  0.00    -0.475 OA
BRANCH   8   9
ATOM      9  C   UNL     1      -1.955   3.716  25.455  0.00  0.00    +0.139 A 
ATOM     10  C   UNL     1      -2.034   4.537  25.491  0.00  0.00    +0.037 A 
ATOM     11  C   UNL     1      -1.440   5.022  25.185  0.00  0.00    +0.003 A 
ATOM     12  C   UNL     1      -0.769   4.686  24.843  0.00  0.00    +0.000 A 
ATOM     13  C   UNL     1      -0.690   3.865  24.807  0.00  0.00    +0.003 A 
ATOM     14  C   UNL     1      -1.284   3.380  25.113  0.00  0.00    +0.037 A 
ENDBRANCH   8   9
ENDBRANCH   5   8
TORSDOF 2
ENDMDL
MODEL 5
REMARK VINA RESULT:     -12.0      2.282      5.126
REMARK  Name = 
REMARK  2 active torsions:
REMARK  status: ('A' for Active; 'I' for Inactive)
REMARK    1  A    between atoms: C_5  and  O_8
REMARK    2  A    between atoms: O_8  and  C_9
REMARK                            x       y       z     vdW  Elec       q    Type
REMARK                         _______ _______ _______ _____ _____    ______ ____
ROOT
ATOM      1  C   UNL     1       0.185   0.915  23.956  0.00  0.00    +0.164 C 
ATOM      2  C   UNL     1      -0.439   0.433  24.200  0.00  0.00    +0.125 C 
ATOM      3  N   UNL     1      -0.993   0.571  24.794  0.00  0.00    -0.282 N 
ATOM      4  C   UNL     1      -1.062   1.225  25.292  0.00  0.00    +0.139 C 
ATOM      5  C   UNL     1      -0.592   1.903  25.318  0.00  0.00    +0.215 C 
ATOM      6  C   UNL     1       0.062   2.094  24.852  0.00  0.00    +0.187 C 
ATOM      7  O   UNL     1       0.408   1.654  24.246  0.00  0.00    -0.348 OA
ATOM     15  C   UNL     1      -1.554  -0.024  24.906  0.00  0.00    +0.163 A 
ATOM     16  N   UNL     1      -2.163  -0.019  25.462  0.00  0.00    -0.224 NA
ATOM     17  C   UNL     1      -2.589  -0.720  25.381  0.00  0.00    +0.089 A 
ATOM     18  C   UNL     1      -2.243  -1.160  24.775  0.00  0.00    +0.050 A 
ATOM     19  S   UNL     1      -1.604  -0.730  24.481  0.00  0.00    -0.052 S 
ATOM     20  C   UNL     1      -2.556  -1.895  24.569  0.00  0.00    +0.008 A 
ATOM     21  C   UNL     1      -3.214  -2.190  24.968  0.00  0.00    +0.001 A 
ATOM     22  C   UNL     1      -3.560  -1.750  25.575  0.00  0.00    +0.002 A 
ATOM     23  C   UNL     1      -3.248  -1.015  25.781  0.00  0.00    +0.020 A 
ENDROOT
BRANCH   5   8
ATOM      8  O   UNL     1      -0.804   2.464  25.884  0.00  0.00    -0.475 OA
BRANCH   8   9
ATOM      9  C   UNL     1      -1.154   3.174  25.650  0.00  0.00    +0.139 A 
ATOM     10  C   UNL     1      -1.973   3.267  25.701  0.00  0.00    +0.037 A 
ATOM     11  C   UNL     1      -2.323   3.977  25.467  0.00  0.00    +0.003 A 
ATOM     12  C   UNL     1      -1.854   4.592  25.182  0.00  0.00    +0.000 A 
ATOM     13  C   UNL     1      -1.036   4.500  25.131  0.00  0.00    +0.003 A 
ATOM     14  C   UNL     1      -0.686   3.790  25.365  0.00  0.00    +0.037 A 
ENDBRANCH   8   9
ENDBRANCH   5   8
TORSDOF 2
ENDMDL
MODEL 6
REMARK VINA RESULT:      -9.0     17.484     19.180
REMARK  Name = 
REMARK  2 active torsions:
REMARK  status: ('A' for Active; 'I' for Inactive)
REMARK    1  A    between atoms: C_5  and  O_8
REMARK    2  A    between atoms: O_8  and  C_9
REMARK                            x       y       z     vdW  Elec       q    Type
REMARK                         _______ _______ _______ _____ _____    ______ ____
ROOT
ATOM      1  C   UNL     1      12.833   7.272  21.143  0.00  0.00    +0.164 C 
ATOM      2  C   UNL     1      13.613   7.097  20.938  0.00  0.00    +0.125 C 
ATOM      3  N   UNL     1      13.925   6.938  20.191  0.00  0.00    -0.282 N 
ATOM      4  C   UNL     1      13.535   6.915  19.465  0.00  0.00    +0.139 C 
ATOM      5  C   UNL     1      12.735   7.044  19.306  0.00  0.00    +0.215 C 
ATOM      6  C   UNL     1      12.129   7.230  19.835  0.00  0.00    +0.187 C 
ATOM      7  O   UNL     1      12.173   7.331  20.652  0.00  0.00    -0.348 OA
ATOM     15  C   UNL     1      14.735   6.782  20.167  0.00  0.00    +0.163 A 
ATOM     16  N   UNL     1      15.176   6.608  19.493  0.00  0.00    -0.224 NA
ATOM     17  C   UNL     1      15.959   6.491  19.723  0.00  0.00    +0.089 A 
ATOM     18  C   UNL     1      16.002   6.592  20.540  0.00  0.00    +0.050 A 
ATOM     19  S   UNL     1      15.246   6.772  20.816  0.00  0.00    -0.052 S 
ATOM     20  C   UNL     1      16.726   6.507  20.928  0.00  0.00    +0.008 A 
ATOM     21  C   UNL     1      17.405   6.321  20.499  0.00  0.00    +0.001 A 
ATOM     22  C   UNL     1      17.362   6.220  19.682  0.00  0.00    +0.002 A 
ATOM     23  C   UNL     1      16.639   6.305  19.293  0.00  0.00    +0.020 A 
ENDROOT
BRANCH   5   8
ATOM      8  O   UNL     1      12.513   6.980  18.514  0.00  0.00    -0.475 OA
BRANCH   8   9
ATOM      9  C   UNL     1      12.410   7.661  18.059  0.00  0.00    +0.139 A 
ATOM     10  C   UNL     1      13.032   7.946  17.597  0.00  0.00    +0.037 A 
ATOM     11  C   UNL     1      12.928   8.627  17.141  0.00  0.00    +0.003 A 
ATOM     12  C   UNL     1      12.204   9.022  17.149  0.00  0.00    +0.000 A 
ATOM     13  C   UNL     1      11.583   8.737  17.611  0.00  0.00    +0.003 A 
ATOM     14  C   UNL     1      11.686   8.056  18.067  0.00  0.00    +0.037 A 
ENDBRANCH   8   9
ENDBRANCH   5   8
TORSDOF 2
ENDMDL
MODEL 7
REMARK VINA RESULT:      -8.7     16.535     18.843
REMARK  Name = 
REMARK  2 active torsions:
REMARK  status: ('A' for Active; 'I' for Inactive)
REMARK    1  A    between atoms: C_5  and  O_8
REMARK    2  A    between atoms: O_8  and  C_9
REMARK                            x       y       z     vdW  Elec       q    Type
REMARK                         _______ _______ _______ _____ _____    ______ ____
ROOT
ATOM      1  C   UNL     1      13.132   7.472  18.130  0.00  0.00    +0.164 C 
ATOM      2  C   UNL     1      13.853   7.258  18.471  0.00  0.00    +0.125 C 
ATOM      3  N   UNL     1      14.083   7.308  19.262  0.00  0.00    -0.282 N 
ATOM      4  C   UNL     1      13.650   7.584  19.907  0.00  0.00    +0.139 C 
ATOM      5  C   UNL     1      12.879   7.879  19.921  0.00  0.00    +0.215 C 
ATOM      6  C   UNL     1      12.352   7.970  19.292  0.00  0.00    +0.187 C 
ATOM      7  O   UNL     1      12.464   7.789  18.495  0.00  0.00    -0.348 OA
ATOM     15  C   UNL     1      14.848   7.047  19.429  0.00  0.00    +0.163 A 
ATOM     16  N   UNL     1      15.206   7.040  20.172  0.00  0.00    -0.224 NA
ATOM     17  C   UNL     1      15.967   6.736  20.085  0.00  0.00    +0.089 A 
ATOM     18  C   UNL     1      16.080   6.555  19.288  0.00  0.00    +0.050 A 
ATOM     19  S   UNL     1      15.389   6.747  18.883  0.00  0.00    -0.052 S 
ATOM     20  C   UNL     1      16.799   6.238  19.036  0.00  0.00    +0.008 A 
ATOM     21  C   UNL     1      17.404   6.103  19.579  0.00  0.00    +0.001 A 
ATOM     22  C   UNL     1      17.291   6.284  20.376  0.00  0.00    +0.002 A 
ATOM     23  C   UNL     1      16.573   6.601  20.630  0.00  0.00    +0.020 A 
ENDROOT
BRANCH   5   8
ATOM      8  O   UNL     1      12.599   8.114  20.660  0.00  0.00    -0.475 OA
BRANCH   8   9
ATOM      9  C   UNL     1      11.956   7.724  21.000  0.00  0.00    +0.139 A 
ATOM     10  C   UNL     1      11.210   8.078  20.996  0.00  0.00    +0.037 A 
ATOM     11  C   UNL     1      10.567   7.688  21.336  0.00  0.00    +0.003 A 
ATOM     12  C   UNL     1      10.669   6.946  21.679  0.00  0.00    +0.000 A 
ATOM     13  C   UNL     1      11.415   6.591  21.683  0.00  0.00    +0.003 A 
ATOM     14  C   UNL     1      12.058   6.981  21.343  0.00  0.00    +0.037 A 
ENDBRANCH   8   9
ENDBRANCH   5   8
TORSDOF 2
ENDMDL
