REMARK  Name = 
REMARK  2 active torsions:
REMARK  status: ('A' for Active; 'I' for Inactive)
REMARK    1  A    between atoms: C_7  and  C_9
REMARK    2  A    between atoms: C_14  and  C_16
REMARK                            x       y       z     vdW  Elec       q    Type
REMARK                         _______ _______ _______ _____ _____    ______ ____
ROOT
ATOM      1  C   UNL     1       2.784   0.698   0.000  0.00  0.00    +0.031 C 
ATOM      2  C   UNL     1       2.070   1.110   0.000  0.00  0.00    -0.020 A 
ATOM      3  C   UNL     1       1.356   0.698   0.000  0.00  0.00    +0.018 A 
ATOM      4  C   UNL     1       0.641   1.110   0.000  0.00  0.00    +0.118 A 
ATOM      5  C   UNL     1       0.641   1.935   0.000  0.00  0.00    +0.164 A 
ATOM      6  O   UNL     1      -0.143   2.190   0.000  0.00  0.00    -0.438 OA
ATOM      7  C   UNL     1      -0.628   1.523   0.000  0.00  0.00    +0.207 A 
ATOM      8  N   UNL     1      -0.143   0.856   0.000  0.00  0.00    -0.212 NA
ATOM     19  C   UNL     1       1.356   2.348   0.000  0.00  0.00    +0.039 A 
ATOM     20  C   UNL     1       2.070   1.935   0.000  0.00  0.00    -0.001 A 
ENDROOT
BRANCH   7   9
ATOM      9  C   UNL     1      -1.453   1.523   0.000  0.00  0.00    +0.098 C 
ATOM     10  C   UNL     1      -1.938   0.856   0.000  0.00  0.00    +0.032 C 
ATOM     11  C   UNL     1      -2.723   1.110   0.000  0.00  0.00    +0.094 C 
ATOM     12  N   UNL     1      -2.723   1.935   0.000  0.00  0.00    -0.279 N 
ATOM     13  C   UNL     1      -1.938   2.190   0.000  0.00  0.00    +0.103 C 
ATOM     14  C   UNL     1      -3.390   2.420   0.000  0.00  0.00    +0.225 C 
ATOM     15  O   UNL     1      -4.144   2.085   0.000  0.00  0.00    -0.275 OA
BRANCH  14  16
ATOM     16  C   UNL     1      -3.304   3.241   0.000  0.00  0.00    +0.077 C 
ATOM     17  C   UNL     1      -3.640   3.994   0.000  0.00  0.00    +0.010 C 
ATOM     18  C   UNL     1      -2.819   3.908   0.000  0.00  0.00    +0.010 C 
ENDBRANCH  14  16
ENDBRANCH   7   9
TORSDOF 2
