MODEL 1
REMARK VINA RESULT:     -13.6      0.000      0.000
REMARK  Name = 
REMARK  5 active torsions:
REMARK  status: ('A' for Active; 'I' for Inactive)
REMARK    1  A    between atoms: C_2  and  C_5
REMARK    2  A    between atoms: C_9  and  N_10
REMARK    3  A    between atoms: N_13  and  C_14
REMARK    4  A    between atoms: C_18  and  N_22
REMARK    5  A    between atoms: C_26  and  C_27
REMARK                            x       y       z     vdW  Elec       q    Type
REMARK                         _______ _______ _______ _____ _____    ______ ____
ROOT
ATOM     14  C   UNL     1      -1.100   1.006  24.813  0.00  0.00    +0.156 C 
ATOM     15  C   UNL     1      -0.832   1.228  25.561  0.00  0.00    +0.166 C 
ATOM     16  O   UNL     1      -0.896   2.048  25.622  0.00  0.00    -0.350 OA
ATOM     17  C   UNL     1      -1.202   2.333  24.912  0.00  0.00    +0.169 C 
ATOM     18  C   UNL     1      -1.431   3.016  24.509  0.00  0.00    +0.167 C 
ATOM     19  C   UNL     1      -1.699   2.795  23.761  0.00  0.00    +0.169 C 
ATOM     20  O   UNL     1      -1.635   1.975  23.701  0.00  0.00    -0.350 OA
ATOM     21  C   UNL     1      -1.328   1.689  24.412  0.00  0.00    +0.167 C 
ENDROOT
BRANCH  18  22
ATOM     22  N   UNL     1      -1.398   3.786  24.804  0.00  0.00    -0.210 N 
ATOM     23  N   UNL     1      -0.715   4.240  24.902  0.00  0.00    -0.043 NA
ATOM     24  N   UNL     1      -0.937   4.971  25.211  0.00  0.00    -0.023 NA
ATOM     25  N   UNL     1      -1.756   4.971  25.304  0.00  0.00    -0.108 NA
ATOM     26  C   UNL     1      -2.041   4.238  25.053  0.00  0.00    +0.184 A 
BRANCH  26  27
ATOM     27  C   UNL     1      -2.831   4.000  25.051  0.00  0.00    +0.037 A 
ATOM     28  C   UNL     1      -3.267   4.020  24.350  0.00  0.00    +0.003 A 
ATOM     29  C   UNL     1      -4.057   3.782  24.349  0.00  0.00    +0.000 A 
ATOM     30  C   UNL     1      -4.411   3.523  25.048  0.00  0.00    +0.000 A 
ATOM     31  C   UNL     1      -3.975   3.503  25.748  0.00  0.00    +0.000 A 
ATOM     32  C   UNL     1      -3.186   3.741  25.749  0.00  0.00    +0.003 A 
ENDBRANCH  26  27
ENDBRANCH  18  22
BRANCH  14  13
ATOM     10  N   UNL     1      -1.768  -1.043  24.466  0.00  0.00    -0.161 NA
ATOM     11  C   UNL     1      -1.735  -0.273  24.761  0.00  0.00    +0.344 C 
ATOM     12  O   UNL     1      -2.304  -0.012  25.298  0.00  0.00    -0.249 OA
ATOM     13  N   UNL     1      -1.133   0.236  24.518  0.00  0.00    -0.184 NA
BRANCH  10   9
ATOM      5  C   UNL     1      -3.590  -2.244  24.436  0.00  0.00    +0.073 A 
ATOM      6  C   UNL     1      -3.574  -2.571  25.194  0.00  0.00    +0.004 A 
ATOM      7  C   UNL     1      -2.956  -2.388  25.709  0.00  0.00    +0.001 A 
ATOM      8  C   UNL     1      -2.354  -1.878  25.466  0.00  0.00    +0.017 A 
ATOM      9  C   UNL     1      -2.370  -1.552  24.709  0.00  0.00    +0.075 A 
ATOM     33  C   UNL     1      -2.988  -1.735  24.194  0.00  0.00    +0.021 A 
BRANCH   5   2
ATOM      1  F   UNL     1      -4.827  -2.611  23.407  0.00  0.00    -0.166 F 
ATOM      2  C   UNL     1      -4.208  -2.427  23.922  0.00  0.00    +0.419 C 
ATOM      3  F   UNL     1      -3.874  -3.168  23.784  0.00  0.00    -0.166 F 
ATOM      4  F   UNL     1      -4.543  -1.686  24.059  0.00  0.00    -0.166 F 
ENDBRANCH   5   2
ENDBRANCH  10   9
ENDBRANCH  14  13
TORSDOF 5
ENDMDL
MODEL 2
REMARK VINA RESULT:     -13.4      2.490      5.440
REMARK  Name = 
REMARK  5 active torsions:
REMARK  status: ('A' for Active; 'I' for Inactive)
REMARK    1  A    between atoms: C_2  and  C_5
REMARK    2  A    between atoms: C_9  and  N_10
REMARK    3  A    between atoms: N_13  and  C_14
REMARK    4  A    between atoms: C_18  and  N_22
REMARK    5  A    between atoms: C_26  and  C_27
REMARK                            x       y       z     vdW  Elec       q    Type
REMARK                         _______ _______ _______ _____ _____    ______ ____
ROOT
ATOM     14  C   UNL     1      -0.490   0.845  24.936  0.00  0.00    +0.156 C 
ATOM     15  C   UNL     1      -0.377   0.657  24.141  0.00  0.00    +0.166 C 
ATOM     16  O   UNL     1      -0.678  -0.100  24.014  0.00  0.00    -0.350 OA
ATOM     17  C   UNL     1      -0.976  -0.380  24.729  0.00  0.00    +0.169 C 
ATOM     18  C   UNL     1      -1.346  -1.021  25.095  0.00  0.00    +0.167 C 
ATOM     19  C   UNL     1      -1.458  -0.833  25.890  0.00  0.00    +0.169 C 
ATOM     20  O   UNL     1      -1.157  -0.075  26.016  0.00  0.00    -0.350 OA
ATOM     21  C   UNL     1      -0.859   0.205  25.300  0.00  0.00    +0.167 C 
ENDROOT
BRANCH  18  22
ATOM     22  N   UNL     1      -1.565  -1.727  24.728  0.00  0.00    -0.210 N 
ATOM     23  N   UNL     1      -1.053  -2.329  24.487  0.00  0.00    -0.043 NA
ATOM     24  N   UNL     1      -1.506  -2.928  24.148  0.00  0.00    -0.023 NA
ATOM     25  N   UNL     1      -2.298  -2.698  24.179  0.00  0.00    -0.108 NA
ATOM     26  C   UNL     1      -2.334  -1.956  24.537  0.00  0.00    +0.184 A 
BRANCH  26  27
ATOM     27  C   UNL     1      -3.019  -1.518  24.679  0.00  0.00    +0.037 A 
ATOM     28  C   UNL     1      -3.361  -1.519  25.430  0.00  0.00    +0.003 A 
ATOM     29  C   UNL     1      -4.046  -1.082  25.571  0.00  0.00    +0.000 A 
ATOM     30  C   UNL     1      -4.390  -0.644  24.962  0.00  0.00    +0.000 A 
ATOM     31  C   UNL     1      -4.048  -0.644  24.211  0.00  0.00    +0.000 A 
ATOM     32  C   UNL     1      -3.363  -1.081  24.070  0.00  0.00    +0.003 A 
ENDBRANCH  26  27
ENDBRANCH  18  22
BRANCH  14  13
ATOM     10  N   UNL     1      -0.494   2.942  25.544  0.00  0.00    -0.161 NA
ATOM     11  C   UNL     1      -0.713   2.236  25.178  0.00  0.00    +0.344 C 
ATOM     12  O   UNL     1      -1.376   2.215  24.686  0.00  0.00    -0.249 OA
ATOM     13  N   UNL     1      -0.270   1.552  25.303  0.00  0.00    -0.184 NA
BRANCH  10   9
ATOM      5  C   UNL     1      -2.147   4.367  25.591  0.00  0.00    +0.073 A 
ATOM      6  C   UNL     1      -1.822   4.997  25.170  0.00  0.00    +0.004 A 
ATOM      7  C   UNL     1      -1.054   4.942  24.873  0.00  0.00    +0.001 A 
ATOM      8  C   UNL     1      -0.612   4.257  24.998  0.00  0.00    +0.017 A 
ATOM      9  C   UNL     1      -0.937   3.627  25.420  0.00  0.00    +0.075 A 
ATOM     33  C   UNL     1      -1.704   3.682  25.716  0.00  0.00    +0.021 A 
BRANCH   5   2
ATOM      1  F   UNL     1      -3.683   4.477  26.184  0.00  0.00    -0.166 F 
ATOM      2  C   UNL     1      -2.915   4.422  25.887  0.00  0.00    +0.419 C 
ATOM      3  F   UNL     1      -2.615   4.465  26.654  0.00  0.00    -0.166 F 
ATOM      4  F   UNL     1      -3.215   4.380  25.120  0.00  0.00    -0.166 F 
ENDBRANCH   5   2
ENDBRANCH  10   9
ENDBRANCH  14  13
TORSDOF 5
ENDMDL
MODEL 3
REMARK VINA RESULT:     -13.2      2.911      5.909
REMARK  Name = 
REMARK  5 active torsions:
REMARK  status: ('A' for Active; 'I' for Inactive)
REMARK    1  A    between atoms: C_2  and  C_5
REMARK    2  A    between atoms: C_9  and  N_10
REMARK    3  A    between atoms: N_13  and  C_14
REMARK    4  A    between atoms: C_18  and  N_22
REMARK    5  A    between atoms: C_26  and  C_27
REMARK                            x       y       z     vdW  Elec       q    Type
REMARK                         _______ _______ _______ _____ _____    ______ ____
ROOT
ATOM     14  C   UNL     1      -4.141   1.198  24.392  0.00  0.00    +0.156 C 
ATOM     15  C   UNL     1      -4.620   0.872  24.978  0.00  0.00    +0.166 C 
ATOM     16  O   UNL     1      -4.529   0.053  24.955  0.00  0.00    -0.350 OA
ATOM     17  C   UNL     1      -3.994  -0.128  24.355  0.00  0.00    +0.169 C 
ATOM     18  C   UNL     1      -3.607  -0.746  23.969  0.00  0.00    +0.167 C 
ATOM     19  C   UNL     1      -3.127  -0.420  23.382  0.00  0.00    +0.169 C 
ATOM     20  O   UNL     1      -3.218   0.399  23.405  0.00  0.00    -0.350 OA
ATOM     21  C   UNL     1      -3.754   0.580  24.007  0.00  0.00    +0.167 C 
ENDROOT
BRANCH  18  22
ATOM     22  N   UNL     1      -3.686  -1.549  24.140  0.00  0.00    -0.210 N 
ATOM     23  N   UNL     1      -4.345  -2.018  23.976  0.00  0.00    -0.043 NA
ATOM     24  N   UNL     1      -4.186  -2.783  24.239  0.00  0.00    -0.023 NA
ATOM     25  N   UNL     1      -3.429  -2.788  24.566  0.00  0.00    -0.108 NA
ATOM     26  C   UNL     1      -3.120  -2.025  24.504  0.00  0.00    +0.184 A 
BRANCH  26  27
ATOM     27  C   UNL     1      -2.375  -1.781  24.763  0.00  0.00    +0.037 A 
ATOM     28  C   UNL     1      -2.276  -1.500  25.532  0.00  0.00    +0.003 A 
ATOM     29  C   UNL     1      -1.531  -1.257  25.790  0.00  0.00    +0.000 A 
ATOM     30  C   UNL     1      -0.885  -1.294  25.279  0.00  0.00    +0.000 A 
ATOM     31  C   UNL     1      -0.984  -1.576  24.509  0.00  0.00    +0.000 A 
ATOM     32  C   UNL     1      -1.728  -1.819  24.252  0.00  0.00    +0.003 A 
ENDBRANCH  26  27
ENDBRANCH  18  22
BRANCH  14  13
ATOM     10  N   UNL     1      -3.556   3.294  24.558  0.00  0.00    -0.161 NA
ATOM     11  C   UNL     1      -3.635   2.492  24.729  0.00  0.00    +0.344 C 
ATOM     12  O   UNL     1      -3.286   2.178  25.408  0.00  0.00    -0.249 OA
ATOM     13  N   UNL     1      -4.062   2.001  24.221  0.00  0.00    -0.184 NA
BRANCH  10   9
ATOM      5  C   UNL     1      -1.972   4.579  25.338  0.00  0.00    +0.073 A 
ATOM      6  C   UNL     1      -2.275   4.765  26.082  0.00  0.00    +0.004 A 
ATOM      7  C   UNL     1      -3.005   4.461  26.319  0.00  0.00    +0.001 A 
ATOM      8  C   UNL     1      -3.431   3.971  25.811  0.00  0.00    +0.017 A 
ATOM      9  C   UNL     1      -3.129   3.785  25.066  0.00  0.00    +0.075 A 
ATOM     33  C   UNL     1      -2.400   4.089  24.830  0.00  0.00    +0.021 A 
BRANCH   5   2
ATOM      1  F   UNL     1      -0.514   5.189  24.865  0.00  0.00    -0.166 F 
ATOM      2  C   UNL     1      -1.244   4.884  25.101  0.00  0.00    +0.419 C 
ATOM      3  F   UNL     1      -1.609   5.589  24.881  0.00  0.00    -0.166 F 
ATOM      4  F   UNL     1      -0.876   4.178  25.321  0.00  0.00    -0.166 F 
ENDBRANCH   5   2
ENDBRANCH  10   9
ENDBRANCH  14  13
TORSDOF 5
ENDMDL
MODEL 4
REMARK VINA RESULT:     -13.1      1.559      2.536
REMARK  Name = 
REMARK  5 active torsions:
REMARK  status: ('A' for Active; 'I' for Inactive)
REMARK    1  A    between atoms: C_2  and  C_5
REMARK    2  A    between atoms: C_9  and  N_10
REMARK    3  A    between atoms: N_13  and  C_14
REMARK    4  A    between atoms: C_18  and  N_22
REMARK    5  A    between atoms: C_26  and  C_27
REMARK                            x       y       z     vdW  Elec       q    Type
REMARK                         _______ _______ _______ _____ _____    ______ ____
ROOT
ATOM     14  C   UNL     1      -3.708   2.039  24.591  0.00  0.00    +0.156 C 
ATOM     15  C   UNL     1      -3.550   2.347  23.843  0.00  0.00    +0.166 C 
ATOM     16  O   UNL     1      -3.026   2.978  23.934  0.00  0.00    -0.350 OA
ATOM     17  C   UNL     1      -2.860   3.059  24.737  0.00  0.00    +0.169 C 
ATOM     18  C   UNL     1      -2.434   3.498  25.290  0.00  0.00    +0.167 C 
ATOM     19  C   UNL     1      -2.593   3.190  26.039  0.00  0.00    +0.169 C 
ATOM     20  O   UNL     1      -3.117   2.560  25.948  0.00  0.00    -0.350 OA
ATOM     21  C   UNL     1      -3.282   2.478  25.144  0.00  0.00    +0.167 C 
ENDROOT
BRANCH  18  22
ATOM     22  N   UNL     1      -1.937   4.135  25.124  0.00  0.00    -0.210 N 
ATOM     23  N   UNL     1      -2.176   4.905  24.945  0.00  0.00    -0.043 NA
ATOM     24  N   UNL     1      -1.500   5.359  24.818  0.00  0.00    -0.023 NA
ATOM     25  N   UNL     1      -0.843   4.871  24.918  0.00  0.00    -0.108 NA
ATOM     26  C   UNL     1      -1.113   4.115  25.107  0.00  0.00    +0.184 A 
BRANCH  26  27
ATOM     27  C   UNL     1      -0.640   3.454  25.253  0.00  0.00    +0.037 A 
ATOM     28  C   UNL     1      -0.343   3.012  24.623  0.00  0.00    +0.003 A 
ATOM     29  C   UNL     1       0.129   2.351  24.770  0.00  0.00    +0.000 A 
ATOM     30  C   UNL     1       0.304   2.133  25.547  0.00  0.00    +0.000 A 
ATOM     31  C   UNL     1       0.006   2.576  26.176  0.00  0.00    +0.000 A 
ATOM     32  C   UNL     1      -0.466   3.236  26.029  0.00  0.00    +0.003 A 
ENDBRANCH  26  27
ENDBRANCH  18  22
BRANCH  14  13
ATOM     10  N   UNL     1      -4.484   0.001  24.701  0.00  0.00    -0.161 NA
ATOM     11  C   UNL     1      -3.987   0.638  24.535  0.00  0.00    +0.344 C 
ATOM     12  O   UNL     1      -3.270   0.512  24.146  0.00  0.00    -0.249 OA
ATOM     13  N   UNL     1      -4.206   1.402  24.758  0.00  0.00    -0.184 NA
BRANCH  10   9
ATOM      5  C   UNL     1      -3.587  -1.988  24.761  0.00  0.00    +0.073 A 
ATOM      6  C   UNL     1      -3.829  -2.290  24.033  0.00  0.00    +0.004 A 
ATOM      7  C   UNL     1      -4.290  -1.828  23.527  0.00  0.00    +0.001 A 
ATOM      8  C   UNL     1      -4.508  -1.065  23.750  0.00  0.00    +0.017 A 
ATOM      9  C   UNL     1      -4.266  -0.763  24.479  0.00  0.00    +0.075 A 
ATOM     33  C   UNL     1      -3.805  -1.224  24.983  0.00  0.00    +0.021 A 
BRANCH   5   2
ATOM      1  F   UNL     1      -2.665  -2.911  25.771  0.00  0.00    -0.166 F 
ATOM      2  C   UNL     1      -3.126  -2.449  25.266  0.00  0.00    +0.419 C 
ATOM      3  F   UNL     1      -2.497  -2.403  24.734  0.00  0.00    -0.166 F 
ATOM      4  F   UNL     1      -3.755  -2.496  25.798  0.00  0.00    -0.166 F 
ENDBRANCH   5   2
ENDBRANCH  10   9
ENDBRANCH  14  13
TORSDOF 5
ENDMDL
MODEL 5
REMARK VINA RESULT:     -12.8      1.756      2.452
REMARK  Name = 
REMARK  5 active torsions:
REMARK  status: ('A' for Active; 'I' for Inactive)
REMARK    1  A    between atoms: C_2  and  C_5
REMARK    2  A    between atoms: C_9  and  N_10
REMARK    3  A    between atoms: N_13  and  C_14
REMARK    4  A    between atoms: C_18  and  N_22
REMARK    5  A    between atoms: C_26  and  C_27
REMARK                            x       y       z     vdW  Elec       q    Type
REMARK                         _______ _______ _______ _____ _____    ______ ____
ROOT
ATOM     14  C   UNL     1      -4.046   1.209  24.427  0.00  0.00    +0.156 C 
ATOM     15  C   UNL     1      -4.427   1.251  25.157  0.00  0.00    +0.166 C 
ATOM     16  O   UNL     1      -4.260   1.986  25.490  0.00  0.00    -0.350 OA
ATOM     17  C   UNL     1      -3.776   2.400  24.967  0.00  0.00    +0.169 C 
ATOM     18  C   UNL     1      -3.372   3.109  24.848  0.00  0.00    +0.167 C 
ATOM     19  C   UNL     1      -2.991   3.068  24.118  0.00  0.00    +0.169 C 
ATOM     20  O   UNL     1      -3.158   2.332  23.785  0.00  0.00    -0.350 OA
ATOM     21  C   UNL     1      -3.643   1.919  24.310  0.00  0.00    +0.167 C 
ENDROOT
BRANCH  18  22
ATOM     22  N   UNL     1      -3.354   3.749  25.369  0.00  0.00    -0.210 N 
ATOM     23  N   UNL     1      -4.005   4.189  25.621  0.00  0.00    -0.043 NA
ATOM     24  N   UNL     1      -3.735   4.773  26.137  0.00  0.00    -0.023 NA
ATOM     25  N   UNL     1      -2.917   4.694  26.205  0.00  0.00    -0.108 NA
ATOM     26  C   UNL     1      -2.682   4.061  25.731  0.00  0.00    +0.184 A 
BRANCH  26  27
ATOM     27  C   UNL     1      -1.908   3.788  25.635  0.00  0.00    +0.037 A 
ATOM     28  C   UNL     1      -1.430   4.105  25.041  0.00  0.00    +0.003 A 
ATOM     29  C   UNL     1      -0.657   3.833  24.946  0.00  0.00    +0.000 A 
ATOM     30  C   UNL     1      -0.363   3.243  25.443  0.00  0.00    +0.000 A 
ATOM     31  C   UNL     1      -0.842   2.927  26.035  0.00  0.00    +0.000 A 
ATOM     32  C   UNL     1      -1.614   3.200  26.131  0.00  0.00    +0.003 A 
ENDBRANCH  26  27
ENDBRANCH  18  22
BRANCH  14  13
ATOM     10  N   UNL     1      -3.898  -0.827  23.655  0.00  0.00    -0.161 NA
ATOM     11  C   UNL     1      -3.880  -0.188  24.176  0.00  0.00    +0.344 C 
ATOM     12  O   UNL     1      -3.677  -0.305  24.968  0.00  0.00    -0.249 OA
ATOM     13  N   UNL     1      -4.064   0.570  23.906  0.00  0.00    -0.184 NA
BRANCH  10   9
ATOM      5  C   UNL     1      -2.754  -2.528  24.408  0.00  0.00    +0.073 A 
ATOM      6  C   UNL     1      -3.345  -3.100  24.464  0.00  0.00    +0.004 A 
ATOM      7  C   UNL     1      -4.121  -2.915  24.251  0.00  0.00    +0.001 A 
ATOM      8  C   UNL     1      -4.304  -2.158  23.982  0.00  0.00    +0.017 A 
ATOM      9  C   UNL     1      -3.713  -1.585  23.925  0.00  0.00    +0.075 A 
ATOM     33  C   UNL     1      -2.939  -1.770  24.138  0.00  0.00    +0.021 A 
BRANCH   5   2
ATOM      1  F   UNL     1      -1.204  -2.898  24.834  0.00  0.00    -0.166 F 
ATOM      2  C   UNL     1      -1.979  -2.713  24.620  0.00  0.00    +0.419 C 
ATOM      3  F   UNL     1      -2.190  -2.677  25.417  0.00  0.00    -0.166 F 
ATOM      4  F   UNL     1      -1.768  -2.749  23.824  0.00  0.00    -0.166 F 
ENDBRANCH   5   2
ENDBRANCH  10   9
ENDBRANCH  14  13
TORSDOF 5
ENDMDL
