MODEL 1
REMARK VINA RESULT:     -12.2      0.000      0.000
REMARK  Name = 
REMARK  7 active torsions:
REMARK  status: ('A' for Active; 'I' for Inactive)
REMARK    1  A    between atoms: C_5  and  O_6
REMARK    2  A    between atoms: O_6  and  C_7
REMARK    3  A    between atoms: C_7  and  C_8
REMARK    4  A    between atoms: C_11  and  C_13
REMARK    5  A    between atoms: N_16  and  C_17
REMARK    6  A    between atoms: C_17  and  C_18
REMARK    7  A    between atoms: C_21  and  C_24
REMARK                            x       y       z     vdW  Elec       q    Type
REMARK                         _______ _______ _______ _____ _____    ______ ____
ROOT
ATOM     13  C   UNL     1      -4.539   2.792  25.414  0.00  0.00    +0.096 C 
ATOM     14  C   UNL     1      -4.915   3.519  25.310  0.00  0.00    +0.028 C 
ATOM     15  C   UNL     1      -4.425   4.106  25.619  0.00  0.00    +0.073 C 
ATOM     16  N   UNL     1      -3.746   3.743  25.913  0.00  0.00    -0.268 NA
ATOM     28  C   UNL     1      -3.816   2.930  25.787  0.00  0.00    +0.082 C 
ENDROOT
BRANCH  13  11
ATOM      8  C   UNL     1      -4.941   0.743  24.970  0.00  0.00    +0.270 A 
ATOM      9  N   UNL     1      -5.630   1.104  24.694  0.00  0.00    -0.108 NA
ATOM     10  N   UNL     1      -5.563   1.916  24.827  0.00  0.00    -0.112 NA
ATOM     11  C   UNL     1      -4.833   2.056  25.184  0.00  0.00    +0.227 A 
ATOM     12  O   UNL     1      -4.449   1.331  25.273  0.00  0.00    -0.420 OA
BRANCH   8   7
ATOM      7  C   UNL     1      -4.775  -0.065  24.947  0.00  0.00    +0.291 C 
BRANCH   7   6
ATOM      6  O   UNL     1      -4.181  -0.349  24.449  0.00  0.00    -0.465 OA
BRANCH   6   5
ATOM      1  F   UNL     1      -3.482  -3.573  24.392  0.00  0.00    -0.204 F 
ATOM      2  C   UNL     1      -3.657  -2.767  24.406  0.00  0.00    +0.140 A 
ATOM      3  C   UNL     1      -3.376  -2.296  25.021  0.00  0.00    +0.033 A 
ATOM      4  C   UNL     1      -3.551  -1.489  25.035  0.00  0.00    +0.039 A 
ATOM      5  C   UNL     1      -4.006  -1.155  24.435  0.00  0.00    +0.139 A 
ATOM     29  C   UNL     1      -4.288  -1.628  23.819  0.00  0.00    +0.039 A 
ATOM     30  C   UNL     1      -4.113  -2.434  23.805  0.00  0.00    +0.033 A 
ENDBRANCH   6   5
ENDBRANCH   7   6
ENDBRANCH   8   7
ENDBRANCH  13  11
BRANCH  16  17
ATOM     17  C   UNL     1      -3.108   4.124  26.272  0.00  0.00    +0.099 C 
BRANCH  17  18
ATOM     18  C   UNL     1      -2.431   4.297  25.834  0.00  0.00    -0.006 A 
ATOM     19  C   UNL     1      -2.355   5.031  25.464  0.00  0.00    -0.003 A 
ATOM     20  C   UNL     1      -1.678   5.204  25.026  0.00  0.00    +0.004 A 
ATOM     21  C   UNL     1      -1.077   4.643  24.957  0.00  0.00    +0.071 A 
ATOM     22  C   UNL     1      -1.153   3.909  25.325  0.00  0.00    +0.004 A 
ATOM     23  C   UNL     1      -1.830   3.736  25.765  0.00  0.00    -0.003 A 
BRANCH  21  24
ATOM     24  C   UNL     1      -0.400   4.816  24.518  0.00  0.00    +0.419 C 
ATOM     25  F   UNL     1       0.277   4.989  24.079  0.00  0.00    -0.166 F 
ATOM     26  F   UNL     1      -0.352   5.554  24.883  0.00  0.00    -0.166 F 
ATOM     27  F   UNL     1      -0.448   4.077  24.153  0.00  0.00    -0.166 F 
ENDBRANCH  21  24
ENDBRANCH  17  18
ENDBRANCH  16  17
TORSDOF 7
ENDMDL
MODEL 2
REMARK VINA RESULT:     -12.0      2.598      6.796
REMARK  Name = 
REMARK  7 active torsions:
REMARK  status: ('A' for Active; 'I' for Inactive)
REMARK    1  A    between atoms: C_5  and  O_6
REMARK    2  A    between atoms: O_6  and  C_7
REMARK    3  A    between atoms: C_7  and  C_8
REMARK    4  A    between atoms: C_11  and  C_13
REMARK    5  A    between atoms: N_16  and  C_17
REMARK    6  A    between atoms: C_17  and  C_18
REMARK    7  A    between atoms: C_21  and  C_24
REMARK                            x       y       z     vdW  Elec       q    Type
REMARK                         _______ _______ _______ _____ _____    ______ ____
ROOT
ATOM     13  C   UNL     1      -0.383  -0.049  24.562  0.00  0.00    +0.096 C 
ATOM     14  C   UNL     1       0.015  -0.730  24.319  0.00  0.00    +0.028 C 
ATOM     15  C   UNL     1      -0.395  -1.384  24.612  0.00  0.00    +0.073 C 
ATOM     16  N   UNL     1      -1.046  -1.107  25.036  0.00  0.00    -0.268 NA
ATOM     28  C   UNL     1      -1.039  -0.282  25.005  0.00  0.00    +0.082 C 
ENDROOT
BRANCH  13  11
ATOM      8  C   UNL     1      -0.188   2.058  24.281  0.00  0.00    +0.270 A 
ATOM      9  N   UNL     1       0.531   1.789  23.980  0.00  0.00    -0.108 NA
ATOM     10  N   UNL     1       0.546   0.967  24.049  0.00  0.00    -0.112 NA
ATOM     11  C   UNL     1      -0.165   0.728  24.392  0.00  0.00    +0.227 A 
ATOM     12  O   UNL     1      -0.618   1.402  24.536  0.00  0.00    -0.420 OA
BRANCH   8   7
ATOM      7  C   UNL     1      -0.434   2.844  24.320  0.00  0.00    +0.291 C 
BRANCH   7   6
ATOM      6  O   UNL     1      -0.538   3.207  25.054  0.00  0.00    -0.465 OA
BRANCH   6   5
ATOM      1  F   UNL     1      -2.029   6.145  25.243  0.00  0.00    -0.204 F 
ATOM      2  C   UNL     1      -1.656   5.411  25.196  0.00  0.00    +0.140 A 
ATOM      3  C   UNL     1      -0.912   5.348  24.847  0.00  0.00    +0.033 A 
ATOM      4  C   UNL     1      -0.539   4.614  24.800  0.00  0.00    +0.039 A 
ATOM      5  C   UNL     1      -0.911   3.942  25.102  0.00  0.00    +0.139 A 
ATOM     29  C   UNL     1      -1.656   4.005  25.451  0.00  0.00    +0.039 A 
ATOM     30  C   UNL     1      -2.029   4.739  25.499  0.00  0.00    +0.033 A 
ENDBRANCH   6   5
ENDBRANCH   7   6
ENDBRANCH   8   7
ENDBRANCH  13  11
BRANCH  16  17
ATOM     17  C   UNL     1      -1.606  -1.574  25.423  0.00  0.00    +0.099 C 
BRANCH  17  18
ATOM     18  C   UNL     1      -2.304  -1.785  25.037  0.00  0.00    -0.006 A 
ATOM     19  C   UNL     1      -2.317  -2.442  24.537  0.00  0.00    -0.003 A 
ATOM     20  C   UNL     1      -3.014  -2.653  24.151  0.00  0.00    +0.004 A 
ATOM     21  C   UNL     1      -3.700  -2.208  24.265  0.00  0.00    +0.071 A 
ATOM     22  C   UNL     1      -3.688  -1.552  24.765  0.00  0.00    +0.004 A 
ATOM     23  C   UNL     1      -2.989  -1.340  25.151  0.00  0.00    -0.003 A 
BRANCH  21  24
ATOM     24  C   UNL     1      -4.398  -2.420  23.879  0.00  0.00    +0.419 C 
ATOM     25  F   UNL     1      -5.096  -2.631  23.493  0.00  0.00    -0.166 F 
ATOM     26  F   UNL     1      -4.453  -1.660  23.563  0.00  0.00    -0.166 F 
ATOM     27  F   UNL     1      -4.342  -3.179  24.196  0.00  0.00    -0.166 F 
ENDBRANCH  21  24
ENDBRANCH  17  18
ENDBRANCH  16  17
TORSDOF 7
ENDMDL
MODEL 3
REMARK VINA RESULT:     -12.0      2.512      3.350
REMARK  Name = 
REMARK  7 active torsions:
REMARK  status: ('A' for Active; 'I' for Inactive)
REMARK    1  A    between atoms: C_5  and  O_6
REMARK    2  A    between atoms: O_6  and  C_7
REMARK    3  A    between atoms: C_7  and  C_8
REMARK    4  A    between atoms: C_11  and  C_13
REMARK    5  A    between atoms: N_16  and  C_17
REMARK    6  A    between atoms: C_17  and  C_18
REMARK    7  A    between atoms: C_21  and  C_24
REMARK                            x       y       z     vdW  Elec       q    Type
REMARK                         _______ _______ _______ _____ _____    ______ ____
ROOT
ATOM     13  C   UNL     1      -1.037   1.827  25.329  0.00  0.00    +0.096 C 
ATOM     14  C   UNL     1      -0.549   2.231  25.858  0.00  0.00    +0.028 C 
ATOM     15  C   UNL     1      -0.809   3.014  25.897  0.00  0.00    +0.073 C 
ATOM     16  N   UNL     1      -1.456   3.093  25.392  0.00  0.00    -0.268 NA
ATOM     28  C   UNL     1      -1.598   2.360  25.041  0.00  0.00    +0.082 C 
ENDROOT
BRANCH  13  11
ATOM      8  C   UNL     1      -1.292  -0.231  24.822  0.00  0.00    +0.270 A 
ATOM      9  N   UNL     1      -0.471  -0.161  24.798  0.00  0.00    -0.108 NA
ATOM     10  N   UNL     1      -0.274   0.619  24.985  0.00  0.00    -0.112 NA
ATOM     11  C   UNL     1      -0.975   1.031  25.125  0.00  0.00    +0.227 A 
ATOM     12  O   UNL     1      -1.604   0.505  25.024  0.00  0.00    -0.420 OA
BRANCH   8   7
ATOM      7  C   UNL     1      -1.725  -0.916  24.671  0.00  0.00    +0.291 C 
BRANCH   7   6
ATOM      6  O   UNL     1      -2.462  -1.025  25.027  0.00  0.00    -0.465 OA
BRANCH   6   5
ATOM      1  F   UNL     1      -4.667  -3.065  23.660  0.00  0.00    -0.204 F 
ATOM      2  C   UNL     1      -4.115  -2.555  24.001  0.00  0.00    +0.140 A 
ATOM      3  C   UNL     1      -3.479  -2.861  24.426  0.00  0.00    +0.033 A 
ATOM      4  C   UNL     1      -2.928  -2.351  24.768  0.00  0.00    +0.039 A 
ATOM      5  C   UNL     1      -3.013  -1.535  24.685  0.00  0.00    +0.139 A 
ATOM     29  C   UNL     1      -3.651  -1.228  24.259  0.00  0.00    +0.039 A 
ATOM     30  C   UNL     1      -4.202  -1.738  23.918  0.00  0.00    +0.033 A 
ENDBRANCH   6   5
ENDBRANCH   7   6
ENDBRANCH   8   7
ENDBRANCH  13  11
BRANCH  16  17
ATOM     17  C   UNL     1      -1.887   3.785  25.261  0.00  0.00    +0.099 C 
BRANCH  17  18
ATOM     18  C   UNL     1      -2.709   3.779  25.333  0.00  0.00    -0.006 A 
ATOM     19  C   UNL     1      -3.180   3.651  24.667  0.00  0.00    -0.003 A 
ATOM     20  C   UNL     1      -4.002   3.645  24.739  0.00  0.00    +0.004 A 
ATOM     21  C   UNL     1      -4.352   3.767  25.476  0.00  0.00    +0.071 A 
ATOM     22  C   UNL     1      -3.882   3.894  26.141  0.00  0.00    +0.004 A 
ATOM     23  C   UNL     1      -3.059   3.901  26.070  0.00  0.00    -0.003 A 
BRANCH  21  24
ATOM     24  C   UNL     1      -5.174   3.761  25.547  0.00  0.00    +0.419 C 
ATOM     25  F   UNL     1      -5.996   3.754  25.619  0.00  0.00    -0.166 F 
ATOM     26  F   UNL     1      -5.146   2.977  25.805  0.00  0.00    -0.166 F 
ATOM     27  F   UNL     1      -5.202   4.544  25.290  0.00  0.00    -0.166 F 
ENDBRANCH  21  24
ENDBRANCH  17  18
ENDBRANCH  16  17
TORSDOF 7
ENDMDL
MODEL 4
REMARK VINA RESULT:     -11.3      1.817      5.567
REMARK  Name = 
REMARK  7 active torsions:
REMARK  status: ('A' for Active; 'I' for Inactive)
REMARK    1  A    between atoms: C_5  and  O_6
REMARK    2  A    between atoms: O_6  and  C_7
REMARK    3  A    between atoms: C_7  and  C_8
REMARK    4  A    between atoms: C_11  and  C_13
REMARK    5  A    between atoms: N_16  and  C_17
REMARK    6  A    between atoms: C_17  and  C_18
REMARK    7  A    between atoms: C_21  and  C_24
REMARK                            x       y       z     vdW  Elec       q    Type
REMARK                         _______ _______ _______ _____ _____    ______ ____
ROOT
ATOM     13  C   UNL     1      -4.264   0.670  24.845  0.00  0.00    +0.096 C 
ATOM     14  C   UNL     1      -4.689   0.202  24.314  0.00  0.00    +0.028 C 
ATOM     15  C   UNL     1      -4.477  -0.586  24.443  0.00  0.00    +0.073 C 
ATOM     16  N   UNL     1      -3.922  -0.604  25.053  0.00  0.00    -0.268 NA
ATOM     28  C   UNL     1      -3.790   0.172  25.301  0.00  0.00    +0.082 C 
ENDROOT
BRANCH  13  11
ATOM      8  C   UNL     1      -3.958   2.779  24.961  0.00  0.00    +0.270 A 
ATOM      9  N   UNL     1      -4.777   2.732  25.046  0.00  0.00    -0.108 NA
ATOM     10  N   UNL     1      -4.992   1.936  25.013  0.00  0.00    -0.112 NA
ATOM     11  C   UNL     1      -4.305   1.491  24.907  0.00  0.00    +0.227 A 
ATOM     12  O   UNL     1      -3.666   2.013  24.876  0.00  0.00    -0.420 OA
BRANCH   8   7
ATOM      7  C   UNL     1      -3.510   3.472  24.962  0.00  0.00    +0.291 C 
BRANCH   7   6
ATOM      6  O   UNL     1      -2.910   3.574  25.520  0.00  0.00    -0.465 OA
BRANCH   6   5
ATOM      1  F   UNL     1      -0.348   5.541  24.842  0.00  0.00    -0.204 F 
ATOM      2  C   UNL     1      -0.989   5.049  25.012  0.00  0.00    +0.140 A 
ATOM      3  C   UNL     1      -0.885   4.232  25.039  0.00  0.00    +0.033 A 
ATOM      4  C   UNL     1      -1.525   3.740  25.208  0.00  0.00    +0.039 A 
ATOM      5  C   UNL     1      -2.270   4.066  25.350  0.00  0.00    +0.139 A 
ATOM     29  C   UNL     1      -2.374   4.884  25.323  0.00  0.00    +0.039 A 
ATOM     30  C   UNL     1      -1.733   5.376  25.154  0.00  0.00    +0.033 A 
ENDBRANCH   6   5
ENDBRANCH   7   6
ENDBRANCH   8   7
ENDBRANCH  13  11
BRANCH  16  17
ATOM     17  C   UNL     1      -3.563  -1.280  25.361  0.00  0.00    +0.099 C 
BRANCH  17  18
ATOM     18  C   UNL     1      -2.749  -1.389  25.276  0.00  0.00    -0.006 A 
ATOM     19  C   UNL     1      -2.457  -1.865  24.668  0.00  0.00    -0.003 A 
ATOM     20  C   UNL     1      -1.644  -1.974  24.584  0.00  0.00    +0.004 A 
ATOM     21  C   UNL     1      -1.123  -1.607  25.108  0.00  0.00    +0.071 A 
ATOM     22  C   UNL     1      -1.414  -1.132  25.715  0.00  0.00    +0.004 A 
ATOM     23  C   UNL     1      -2.228  -1.022  25.800  0.00  0.00    -0.003 A 
BRANCH  21  24
ATOM     24  C   UNL     1      -0.309  -1.716  25.024  0.00  0.00    +0.419 C 
ATOM     25  F   UNL     1       0.505  -1.824  24.939  0.00  0.00    -0.166 F 
ATOM     26  F   UNL     1      -0.320  -1.261  24.335  0.00  0.00    -0.166 F 
ATOM     27  F   UNL     1      -0.299  -2.171  25.712  0.00  0.00    -0.166 F 
ENDBRANCH  21  24
ENDBRANCH  17  18
ENDBRANCH  16  17
TORSDOF 7
ENDMDL
MODEL 5
REMARK VINA RESULT:     -11.3      2.711      6.250
REMARK  Name = 
REMARK  7 active torsions:
REMARK  status: ('A' for Active; 'I' for Inactive)
REMARK    1  A    between atoms: C_5  and  O_6
REMARK    2  A    between atoms: O_6  and  C_7
REMARK    3  A    between atoms: C_7  and  C_8
REMARK    4  A    between atoms: C_11  and  C_13
REMARK    5  A    between atoms: N_16  and  C_17
REMARK    6  A    between atoms: C_17  and  C_18
REMARK    7  A    between atoms: C_21  and  C_24
REMARK                            x       y       z     vdW  Elec       q    Type
REMARK                         _______ _______ _______ _____ _____    ______ ____
ROOT
ATOM     13  C   UNL     1      -0.584   0.497  24.759  0.00  0.00    +0.096 C 
ATOM     14  C   UNL     1      -0.101   0.122  24.205  0.00  0.00    +0.028 C 
ATOM     15  C   UNL     1      -0.205  -0.693  24.286  0.00  0.00    +0.073 C 
ATOM     16  N   UNL     1      -0.752  -0.821  24.890  0.00  0.00    -0.268 NA
ATOM     28  C   UNL     1      -0.986  -0.086  25.183  0.00  0.00    +0.082 C 
ENDROOT
BRANCH  13  11
ATOM      8  C   UNL     1      -1.161   2.520  25.119  0.00  0.00    +0.270 A 
ATOM      9  N   UNL     1      -0.356   2.609  24.964  0.00  0.00    -0.108 NA
ATOM     10  N   UNL     1      -0.041   1.862  24.810  0.00  0.00    -0.112 NA
ATOM     11  C   UNL     1      -0.652   1.311  24.870  0.00  0.00    +0.227 A 
ATOM     12  O   UNL     1      -1.344   1.718  25.061  0.00  0.00    -0.420 OA
BRANCH   8   7
ATOM      7  C   UNL     1      -1.690   3.127  25.300  0.00  0.00    +0.291 C 
BRANCH   7   6
ATOM      6  O   UNL     1      -2.231   3.385  24.733  0.00  0.00    -0.465 OA
BRANCH   6   5
ATOM      1  F   UNL     1      -5.331   4.094  25.614  0.00  0.00    -0.204 F 
ATOM      2  C   UNL     1      -4.556   3.917  25.394  0.00  0.00    +0.140 A 
ATOM      3  C   UNL     1      -3.937   4.053  25.920  0.00  0.00    +0.033 A 
ATOM      4  C   UNL     1      -3.162   3.876  25.700  0.00  0.00    +0.039 A 
ATOM      5  C   UNL     1      -3.006   3.562  24.953  0.00  0.00    +0.139 A 
ATOM     29  C   UNL     1      -3.627   3.426  24.426  0.00  0.00    +0.039 A 
ATOM     30  C   UNL     1      -4.402   3.603  24.646  0.00  0.00    +0.033 A 
ENDBRANCH   6   5
ENDBRANCH   7   6
ENDBRANCH   8   7
ENDBRANCH  13  11
BRANCH  16  17
ATOM     17  C   UNL     1      -1.018  -1.556  25.155  0.00  0.00    +0.099 C 
BRANCH  17  18
ATOM     18  C   UNL     1      -1.752  -1.842  24.911  0.00  0.00    -0.006 A 
ATOM     19  C   UNL     1      -2.437  -1.617  25.312  0.00  0.00    -0.003 A 
ATOM     20  C   UNL     1      -3.171  -1.902  25.068  0.00  0.00    +0.004 A 
ATOM     21  C   UNL     1      -3.220  -2.414  24.422  0.00  0.00    +0.071 A 
ATOM     22  C   UNL     1      -2.536  -2.639  24.021  0.00  0.00    +0.004 A 
ATOM     23  C   UNL     1      -1.801  -2.353  24.265  0.00  0.00    -0.003 A 
BRANCH  21  24
ATOM     24  C   UNL     1      -3.954  -2.699  24.177  0.00  0.00    +0.419 C 
ATOM     25  F   UNL     1      -4.689  -2.985  23.932  0.00  0.00    -0.166 F 
ATOM     26  F   UNL     1      -4.061  -2.027  23.711  0.00  0.00    -0.166 F 
ATOM     27  F   UNL     1      -3.848  -3.372  24.643  0.00  0.00    -0.166 F 
ENDBRANCH  21  24
ENDBRANCH  17  18
ENDBRANCH  16  17
TORSDOF 7
ENDMDL
