REMARK  Name = 
REMARK  4 active torsions:
REMARK  status: ('A' for Active; 'I' for Inactive)
REMARK    1  A    between atoms: C_4  and  C_8
REMARK    2  A    between atoms: C_11  and  C_13
REMARK    3  A    between atoms: N_18  and  C_19
REMARK    4  A    between atoms: C_19  and  C_20
REMARK                            x       y       z     vdW  Elec       q    Type
REMARK                         _______ _______ _______ _____ _____    ______ ____
ROOT
ATOM     13  C   UNL     1       1.278  -4.727   0.000  0.00  0.00    +0.140 C 
ATOM     14  C   UNL     1       1.023  -5.512   0.000  0.00  0.00    +0.060 C 
ATOM     15  C   UNL     1       1.690  -5.997   0.000  0.00  0.00    +0.170 C 
ATOM     16  O   UNL     1       1.690  -6.822   0.000  0.00  0.00    -0.222 OA
ATOM     17  C   UNL     1       2.358  -5.512   0.000  0.00  0.00    +0.106 C 
ATOM     18  N   UNL     1       2.103  -4.727   0.000  0.00  0.00    -0.260 NA
ENDROOT
BRANCH  13  11
ATOM      8  C   UNL     1       0.381  -2.790   0.000  0.00  0.00    +0.203 A 
ATOM      9  N   UNL     1      -0.287  -3.275   0.000  0.00  0.00    -0.056 NA
ATOM     10  O   UNL     1      -0.032  -4.060   0.000  0.00  0.00    -0.336 OA
ATOM     11  C   UNL     1       0.793  -4.060   0.000  0.00  0.00    +0.251 A 
ATOM     12  N   UNL     1       1.048  -3.275   0.000  0.00  0.00    -0.190 NA
BRANCH   8   4
ATOM      1  C   UNL     1       1.810  -0.315   0.000  0.00  0.00    +0.031 C 
ATOM      2  C   UNL     1       1.095  -0.728   0.000  0.00  0.00    -0.022 A 
ATOM      3  C   UNL     1       1.095  -1.553   0.000  0.00  0.00    -0.001 A 
ATOM      4  C   UNL     1       0.381  -1.965   0.000  0.00  0.00    +0.039 A 
ATOM      5  C   UNL     1      -0.334  -1.553   0.000  0.00  0.00    +0.003 A 
ATOM      6  C   UNL     1      -0.334  -0.728   0.000  0.00  0.00    -0.000 A 
ATOM      7  C   UNL     1       0.381  -0.315   0.000  0.00  0.00    -0.004 A 
ENDBRANCH   8   4
ENDBRANCH  13  11
BRANCH  18  19
ATOM     19  C   UNL     1       2.588  -4.060   0.000  0.00  0.00    +0.100 C 
BRANCH  19  20
ATOM     20  C   UNL     1       3.408  -4.146   0.000  0.00  0.00    -0.006 A 
ATOM     21  C   UNL     1       3.893  -3.479   0.000  0.00  0.00    -0.003 A 
ATOM     22  C   UNL     1       4.714  -3.565   0.000  0.00  0.00    -0.000 A 
ATOM     23  C   UNL     1       5.049  -4.319   0.000  0.00  0.00    -0.000 A 
ATOM     24  C   UNL     1       4.564  -4.986   0.000  0.00  0.00    -0.000 A 
ATOM     25  C   UNL     1       3.744  -4.900   0.000  0.00  0.00    -0.003 A 
ENDBRANCH  19  20
ENDBRANCH  18  19
TORSDOF 4
