MODEL 1
REMARK VINA RESULT:     -11.9      0.000      0.000
REMARK  Name = 
REMARK  4 active torsions:
REMARK  status: ('A' for Active; 'I' for Inactive)
REMARK    1  A    between atoms: C_7  and  C_8
REMARK    2  A    between atoms: C_8  and  N_9
REMARK    3  A    between atoms: N_15  and  C_16
REMARK    4  A    between atoms: C_16  and  C_17
REMARK                            x       y       z     vdW  Elec       q    Type
REMARK                         _______ _______ _______ _____ _____    ______ ____
ROOT
ATOM      9  N   UNL     1      -4.357   0.413  24.522  0.00  0.00    -0.265 NA
ATOM     10  C   UNL     1      -5.042   0.569  24.955  0.00  0.00    +0.094 C 
ATOM     11  C   UNL     1      -5.168   1.320  25.270  0.00  0.00    +0.112 C 
ATOM     12  N   UNL     1      -4.609   1.916  25.152  0.00  0.00    -0.261 N 
ATOM     13  C   UNL     1      -3.925   1.760  24.719  0.00  0.00    +0.113 C 
ATOM     14  C   UNL     1      -3.476   2.451  24.694  0.00  0.00    +0.116 C 
ATOM     15  N   UNL     1      -3.883   3.035  25.111  0.00  0.00    -0.258 N 
ATOM     24  C   UNL     1      -4.583   2.704  25.394  0.00  0.00    +0.308 C 
ATOM     25  O   UNL     1      -5.157   3.093  25.841  0.00  0.00    -0.252 OA
ATOM     26  C   UNL     1      -3.798   1.008  24.404  0.00  0.00    +0.094 C 
ENDROOT
BRANCH   9   8
ATOM      8  C   UNL     1      -4.230  -0.340  24.206  0.00  0.00    +0.118 C 
BRANCH   8   7
ATOM      1  C   UNL     1      -4.234  -1.902  23.676  0.00  0.00    +0.032 C 
ATOM      2  C   UNL     1      -3.912  -1.718  24.412  0.00  0.00    -0.007 A 
ATOM      3  C   UNL     1      -3.591  -2.313  24.884  0.00  0.00    -0.001 A 
ATOM      4  C   UNL     1      -3.269  -2.129  25.621  0.00  0.00    +0.020 A 
ATOM      5  C   UNL     1      -3.267  -1.348  25.886  0.00  0.00    +0.098 A 
ATOM      6  N   UNL     1      -3.587  -0.751  25.414  0.00  0.00    -0.247 NA
ATOM      7  C   UNL     1      -3.910  -0.936  24.678  0.00  0.00    +0.071 A 
ENDBRANCH   8   7
ENDBRANCH   9   8
BRANCH  15  16
ATOM     16  C   UNL     1      -3.633   3.813  25.225  0.00  0.00    +0.122 C 
BRANCH  16  17
ATOM     17  C   UNL     1      -2.828   3.990  25.246  0.00  0.00    -0.002 A 
ATOM     18  C   UNL     1      -2.384   3.817  25.919  0.00  0.00    -0.000 A 
ATOM     19  C   UNL     1      -1.578   3.994  25.939  0.00  0.00    +0.029 A 
ATOM     20  C   UNL     1      -1.217   4.343  25.286  0.00  0.00    +0.140 A 
ATOM     21  F   UNL     1      -0.411   4.520  25.305  0.00  0.00    -0.204 F 
ATOM     22  C   UNL     1      -1.660   4.516  24.612  0.00  0.00    +0.029 A 
ATOM     23  C   UNL     1      -2.466   4.340  24.591  0.00  0.00    -0.000 A 
ENDBRANCH  16  17
ENDBRANCH  15  16
TORSDOF 4
ENDMDL
MODEL 2
REMARK VINA RESULT:     -11.7      1.967      5.102
REMARK  Name = 
REMARK  4 active torsions:
REMARK  status: ('A' for Active; 'I' for Inactive)
REMARK    1  A    between atoms: C_7  and  C_8
REMARK    2  A    between atoms: C_8  and  N_9
REMARK    3  A    between atoms: N_15  and  C_16
REMARK    4  A    between atoms: C_16  and  C_17
REMARK                            x       y       z     vdW  Elec       q    Type
REMARK                         _______ _______ _______ _____ _____    ______ ____
ROOT
ATOM      9  N   UNL     1      -2.541   2.433  24.160  0.00  0.00    -0.265 NA
ATOM     10  C   UNL     1      -3.302   2.717  24.015  0.00  0.00    +0.094 C 
ATOM     11  C   UNL     1      -3.957   2.246  24.183  0.00  0.00    +0.112 C 
ATOM     12  N   UNL     1      -3.853   1.490  24.497  0.00  0.00    -0.261 N 
ATOM     13  C   UNL     1      -3.092   1.205  24.642  0.00  0.00    +0.113 C 
ATOM     14  C   UNL     1      -3.159   0.444  24.951  0.00  0.00    +0.116 C 
ATOM     15  N   UNL     1      -3.961   0.258  24.998  0.00  0.00    -0.258 N 
ATOM     24  C   UNL     1      -4.389   0.904  24.717  0.00  0.00    +0.308 C 
ATOM     25  O   UNL     1      -5.211   0.956  24.665  0.00  0.00    -0.252 OA
ATOM     26  C   UNL     1      -2.436   1.677  24.474  0.00  0.00    +0.094 C 
ENDROOT
BRANCH   9   8
ATOM      8  C   UNL     1      -1.885   2.904  23.992  0.00  0.00    +0.118 C 
BRANCH   8   7
ATOM      1  C   UNL     1      -0.319   3.387  24.188  0.00  0.00    +0.032 C 
ATOM      2  C   UNL     1      -0.928   3.796  24.568  0.00  0.00    -0.007 A 
ATOM      3  C   UNL     1      -0.754   4.445  25.045  0.00  0.00    -0.001 A 
ATOM      4  C   UNL     1      -1.362   4.853  25.424  0.00  0.00    +0.020 A 
ATOM      5  C   UNL     1      -2.145   4.612  25.326  0.00  0.00    +0.098 A 
ATOM      6  N   UNL     1      -2.320   3.962  24.848  0.00  0.00    -0.247 NA
ATOM      7  C   UNL     1      -1.711   3.554  24.469  0.00  0.00    +0.071 A 
ENDBRANCH   8   7
ENDBRANCH   9   8
BRANCH  15  16
ATOM     16  C   UNL     1      -4.279  -0.451  25.276  0.00  0.00    +0.122 C 
BRANCH  16  17
ATOM     17  C   UNL     1      -4.002  -1.171  24.984  0.00  0.00    -0.002 A 
ATOM     18  C   UNL     1      -4.267  -1.451  24.255  0.00  0.00    -0.000 A 
ATOM     19  C   UNL     1      -3.989  -2.172  23.964  0.00  0.00    +0.029 A 
ATOM     20  C   UNL     1      -3.446  -2.611  24.402  0.00  0.00    +0.140 A 
ATOM     21  F   UNL     1      -3.168  -3.332  24.111  0.00  0.00    -0.204 F 
ATOM     22  C   UNL     1      -3.181  -2.331  25.131  0.00  0.00    +0.029 A 
ATOM     23  C   UNL     1      -3.458  -1.611  25.423  0.00  0.00    -0.000 A 
ENDBRANCH  16  17
ENDBRANCH  15  16
TORSDOF 4
ENDMDL
MODEL 3
REMARK VINA RESULT:     -11.6      2.501      5.466
REMARK  Name = 
REMARK  4 active torsions:
REMARK  status: ('A' for Active; 'I' for Inactive)
REMARK    1  A    between atoms: C_7  and  C_8
REMARK    2  A    between atoms: C_8  and  N_9
REMARK    3  A    between atoms: N_15  and  C_16
REMARK    4  A    between atoms: C_16  and  C_17
REMARK                            x       y       z     vdW  Elec       q    Type
REMARK                         _______ _______ _______ _____ _____    ______ ____
ROOT
ATOM      9  N   UNL     1      -1.307   1.898  24.707  0.00  0.00    -0.265 NA
ATOM     10  C   UNL     1      -0.696   1.587  25.165  0.00  0.00    +0.094 C 
ATOM     11  C   UNL     1      -0.791   0.860  25.542  0.00  0.00    +0.112 C 
ATOM     12  N   UNL     1      -1.499   0.443  25.461  0.00  0.00    -0.261 N 
ATOM     13  C   UNL     1      -2.110   0.754  25.003  0.00  0.00    +0.113 C 
ATOM     14  C   UNL     1      -2.740   0.222  25.024  0.00  0.00    +0.116 C 
ATOM     15  N   UNL     1      -2.518  -0.418  25.494  0.00  0.00    -0.258 N 
ATOM     24  C   UNL     1      -1.751  -0.281  25.764  0.00  0.00    +0.308 C 
ATOM     25  O   UNL     1      -1.312  -0.780  26.253  0.00  0.00    -0.252 OA
ATOM     26  C   UNL     1      -2.015   1.482  24.625  0.00  0.00    +0.094 C 
ENDROOT
BRANCH   9   8
ATOM      8  C   UNL     1      -1.212   2.626  24.329  0.00  0.00    +0.118 C 
BRANCH   8   7
ATOM      1  C   UNL     1      -0.258   3.963  24.165  0.00  0.00    +0.032 C 
ATOM      2  C   UNL     1      -0.931   3.992  24.641  0.00  0.00    -0.007 A 
ATOM      3  C   UNL     1      -1.128   4.689  25.036  0.00  0.00    -0.001 A 
ATOM      4  C   UNL     1      -1.800   4.719  25.512  0.00  0.00    +0.020 A 
ATOM      5  C   UNL     1      -2.277   4.051  25.595  0.00  0.00    +0.098 A 
ATOM      6  N   UNL     1      -2.081   3.353  25.200  0.00  0.00    -0.247 NA
ATOM      7  C   UNL     1      -1.408   3.323  24.724  0.00  0.00    +0.071 A 
ENDBRANCH   8   7
ENDBRANCH   9   8
BRANCH  15  16
ATOM     16  C   UNL     1      -2.982  -1.078  25.665  0.00  0.00    +0.122 C 
BRANCH  16  17
ATOM     17  C   UNL     1      -3.365  -1.483  25.057  0.00  0.00    -0.002 A 
ATOM     18  C   UNL     1      -4.034  -1.156  24.702  0.00  0.00    -0.000 A 
ATOM     19  C   UNL     1      -4.417  -1.562  24.093  0.00  0.00    +0.029 A 
ATOM     20  C   UNL     1      -4.131  -2.292  23.840  0.00  0.00    +0.140 A 
ATOM     21  F   UNL     1      -4.513  -2.698  23.231  0.00  0.00    -0.204 F 
ATOM     22  C   UNL     1      -3.461  -2.618  24.195  0.00  0.00    +0.029 A 
ATOM     23  C   UNL     1      -3.078  -2.214  24.804  0.00  0.00    -0.000 A 
ENDBRANCH  16  17
ENDBRANCH  15  16
TORSDOF 4
ENDMDL
MODEL 4
REMARK VINA RESULT:     -11.5      2.286      2.919
REMARK  Name = 
REMARK  4 active torsions:
REMARK  status: ('A' for Active; 'I' for Inactive)
REMARK    1  A    between atoms: C_7  and  C_8
REMARK    2  A    between atoms: C_8  and  N_9
REMARK    3  A    between atoms: N_15  and  C_16
REMARK    4  A    between atoms: C_16  and  C_17
REMARK                            x       y       z     vdW  Elec       q    Type
REMARK                         _______ _______ _______ _____ _____    ______ ____
ROOT
ATOM      9  N   UNL     1      -1.638  -0.754  24.985  0.00  0.00    -0.265 NA
ATOM     10  C   UNL     1      -1.081  -0.831  24.382  0.00  0.00    +0.094 C 
ATOM     11  C   UNL     1      -0.552  -0.217  24.228  0.00  0.00    +0.112 C 
ATOM     12  N   UNL     1      -0.581   0.475  24.677  0.00  0.00    -0.261 N 
ATOM     13  C   UNL     1      -1.138   0.552  25.280  0.00  0.00    +0.113 C 
ATOM     14  C   UNL     1      -1.036   1.293  25.628  0.00  0.00    +0.116 C 
ATOM     15  N   UNL     1      -0.416   1.673  25.240  0.00  0.00    -0.258 N 
ATOM     24  C   UNL     1      -0.135   1.167  24.653  0.00  0.00    +0.308 C 
ATOM     25  O   UNL     1       0.485   1.327  24.131  0.00  0.00    -0.252 OA
ATOM     26  C   UNL     1      -1.667  -0.063  25.434  0.00  0.00    +0.094 C 
ENDROOT
BRANCH   9   8
ATOM      8  C   UNL     1      -2.167  -1.368  25.140  0.00  0.00    +0.118 C 
BRANCH   8   7
ATOM      1  C   UNL     1      -2.869  -2.835  24.858  0.00  0.00    +0.032 C 
ATOM      2  C   UNL     1      -3.231  -2.146  24.586  0.00  0.00    -0.007 A 
ATOM      3  C   UNL     1      -3.944  -2.189  24.173  0.00  0.00    -0.001 A 
ATOM      4  C   UNL     1      -4.306  -1.499  23.901  0.00  0.00    +0.020 A 
ATOM      5  C   UNL     1      -3.955  -0.767  24.042  0.00  0.00    +0.098 A 
ATOM      6  N   UNL     1      -3.242  -0.722  24.455  0.00  0.00    -0.247 NA
ATOM      7  C   UNL     1      -2.880  -1.412  24.727  0.00  0.00    +0.071 A 
ENDBRANCH   8   7
ENDBRANCH   9   8
BRANCH  15  16
ATOM     16  C   UNL     1      -0.127   2.427  25.410  0.00  0.00    +0.122 C 
BRANCH  16  17
ATOM     17  C   UNL     1      -0.634   3.078  25.390  0.00  0.00    -0.002 A 
ATOM     18  C   UNL     1      -1.164   3.208  26.008  0.00  0.00    -0.000 A 
ATOM     19  C   UNL     1      -1.670   3.860  25.986  0.00  0.00    +0.029 A 
ATOM     20  C   UNL     1      -1.647   4.379  25.347  0.00  0.00    +0.140 A 
ATOM     21  F   UNL     1      -2.153   5.031  25.325  0.00  0.00    -0.204 F 
ATOM     22  C   UNL     1      -1.117   4.249  24.728  0.00  0.00    +0.029 A 
ATOM     23  C   UNL     1      -0.610   3.598  24.749  0.00  0.00    -0.000 A 
ENDBRANCH  16  17
ENDBRANCH  15  16
TORSDOF 4
ENDMDL
