MODEL 1
REMARK VINA RESULT:     -11.6      0.000      0.000
REMARK  Name = 
REMARK  5 active torsions:
REMARK  status: ('A' for Active; 'I' for Inactive)
REMARK    1  A    between atoms: O_2  and  C_3
REMARK    2  A    between atoms: C_6  and  C_9
REMARK    3  A    between atoms: C_12  and  C_14
REMARK    4  A    between atoms: N_17  and  S_19
REMARK    5  A    between atoms: S_19  and  C_22
REMARK                            x       y       z     vdW  Elec       q    Type
REMARK                         _______ _______ _______ _____ _____    ______ ____
ROOT
ATOM     14  C   UNL     1      -4.234   2.046  25.086  0.00  0.00    +0.097 C 
ATOM     15  C   UNL     1      -4.724   2.681  25.280  0.00  0.00    +0.030 C 
ATOM     16  C   UNL     1      -4.262   3.364  25.299  0.00  0.00    +0.096 C 
ATOM     17  N   UNL     1      -3.486   3.151  25.116  0.00  0.00    -0.155 NA
ATOM     18  C   UNL     1      -3.469   2.336  24.985  0.00  0.00    +0.105 C 
ENDROOT
BRANCH  14  12
ATOM      9  C   UNL     1      -4.435  -0.065  24.841  0.00  0.00    +0.250 A 
ATOM     10  N   UNL     1      -5.224   0.160  24.933  0.00  0.00    -0.107 NA
ATOM     11  N   UNL     1      -5.244   0.979  25.036  0.00  0.00    -0.111 NA
ATOM     12  C   UNL     1      -4.469   1.259  25.008  0.00  0.00    +0.227 A 
ATOM     13  O   UNL     1      -3.969   0.614  24.887  0.00  0.00    -0.419 OA
BRANCH   9   6
ATOM      3  C   UNL     1      -3.614  -2.372  24.488  0.00  0.00    +0.139 A 
ATOM      4  C   UNL     1      -3.458  -1.984  25.199  0.00  0.00    +0.037 A 
ATOM      5  C   UNL     1      -3.732  -1.214  25.317  0.00  0.00    +0.008 A 
ATOM      6  C   UNL     1      -4.162  -0.834  24.723  0.00  0.00    +0.055 A 
ATOM      7  C   UNL     1      -4.317  -1.223  24.013  0.00  0.00    +0.008 A 
ATOM      8  C   UNL     1      -4.044  -1.993  23.896  0.00  0.00    +0.037 A 
BRANCH   3   2
ATOM      1  C   UNL     1      -2.535  -3.281  24.258  0.00  0.00    +0.252 C 
ATOM      2  O   UNL     1      -3.341  -3.142  24.370  0.00  0.00    -0.471 OA
ENDBRANCH   3   2
ENDBRANCH   9   6
ENDBRANCH  14  12
BRANCH  17  19
ATOM     19  S   UNL     1      -2.840   3.663  25.072  0.00  0.00    +0.063 S 
ATOM     20  O   UNL     1      -2.762   3.635  25.893  0.00  0.00    -0.153 OA
ATOM     21  O   UNL     1      -2.917   3.690  24.251  0.00  0.00    -0.153 OA
BRANCH  19  22
ATOM     22  C   UNL     1      -2.194   4.174  25.028  0.00  0.00    +0.122 A 
ATOM     23  C   UNL     1      -2.298   4.982  25.158  0.00  0.00    +0.020 A 
ATOM     24  C   UNL     1      -1.653   5.493  25.114  0.00  0.00    -0.003 A 
ATOM     25  C   UNL     1      -0.903   5.197  24.939  0.00  0.00    -0.022 A 
ATOM     26  C   UNL     1      -0.257   5.709  24.895  0.00  0.00    +0.031 C 
ATOM     27  C   UNL     1      -0.799   4.389  24.809  0.00  0.00    -0.003 A 
ATOM     28  C   UNL     1      -1.445   3.877  24.853  0.00  0.00    +0.020 A 
ENDBRANCH  19  22
ENDBRANCH  17  19
TORSDOF 5
ENDMDL
MODEL 2
REMARK VINA RESULT:     -11.5      1.218      5.798
REMARK  Name = 
REMARK  5 active torsions:
REMARK  status: ('A' for Active; 'I' for Inactive)
REMARK    1  A    between atoms: O_2  and  C_3
REMARK    2  A    between atoms: C_6  and  C_9
REMARK    3  A    between atoms: C_12  and  C_14
REMARK    4  A    between atoms: N_17  and  S_19
REMARK    5  A    between atoms: S_19  and  C_22
REMARK                            x       y       z     vdW  Elec       q    Type
REMARK                         _______ _______ _______ _____ _____    ______ ____
ROOT
ATOM     14  C   UNL     1      -4.311   1.739  25.103  0.00  0.00    +0.097 C 
ATOM     15  C   UNL     1      -5.109   1.551  25.014  0.00  0.00    +0.030 C 
ATOM     16  C   UNL     1      -5.167   0.741  24.874  0.00  0.00    +0.096 C 
ATOM     17  N   UNL     1      -4.404   0.427  24.876  0.00  0.00    -0.155 NA
ATOM     18  C   UNL     1      -3.875   1.044  25.018  0.00  0.00    +0.105 C 
ENDROOT
BRANCH  14  12
ATOM      9  C   UNL     1      -3.169   3.531  25.308  0.00  0.00    +0.250 A 
ATOM     10  N   UNL     1      -3.886   3.759  25.649  0.00  0.00    -0.107 NA
ATOM     11  N   UNL     1      -4.401   3.115  25.613  0.00  0.00    -0.111 NA
ATOM     12  C   UNL     1      -4.003   2.490  25.251  0.00  0.00    +0.227 A 
ATOM     13  O   UNL     1      -3.241   2.747  25.063  0.00  0.00    -0.419 OA
BRANCH   9   6
ATOM      3  C   UNL     1      -1.158   4.952  25.067  0.00  0.00    +0.139 A 
ATOM      4  C   UNL     1      -1.905   5.300  25.115  0.00  0.00    +0.037 A 
ATOM      5  C   UNL     1      -2.576   4.826  25.196  0.00  0.00    +0.008 A 
ATOM      6  C   UNL     1      -2.500   4.004  25.228  0.00  0.00    +0.055 A 
ATOM      7  C   UNL     1      -1.753   3.658  25.180  0.00  0.00    +0.008 A 
ATOM      8  C   UNL     1      -1.082   4.132  25.099  0.00  0.00    +0.037 A 
BRANCH   3   2
ATOM      1  C   UNL     1      -0.021   5.370  24.309  0.00  0.00    +0.252 C 
ATOM      2  O   UNL     1      -0.488   5.426  24.987  0.00  0.00    -0.471 OA
ENDBRANCH   3   2
ENDBRANCH   9   6
ENDBRANCH  14  12
BRANCH  17  19
ATOM     19  S   UNL     1      -4.205  -0.366  24.758  0.00  0.00    +0.063 S 
ATOM     20  O   UNL     1      -4.345  -0.520  25.556  0.00  0.00    -0.153 OA
ATOM     21  O   UNL     1      -4.065  -0.211  23.959  0.00  0.00    -0.153 OA
BRANCH  19  22
ATOM     22  C   UNL     1      -4.006  -1.157  24.639  0.00  0.00    +0.122 A 
ATOM     23  C   UNL     1      -3.547  -1.556  25.197  0.00  0.00    +0.020 A 
ATOM     24  C   UNL     1      -3.348  -2.347  25.078  0.00  0.00    -0.003 A 
ATOM     25  C   UNL     1      -3.608  -2.740  24.401  0.00  0.00    -0.022 A 
ATOM     26  C   UNL     1      -3.409  -3.532  24.282  0.00  0.00    +0.031 C 
ATOM     27  C   UNL     1      -4.067  -2.342  23.843  0.00  0.00    -0.003 A 
ATOM     28  C   UNL     1      -4.266  -1.550  23.963  0.00  0.00    +0.020 A 
ENDBRANCH  19  22
ENDBRANCH  17  19
TORSDOF 5
ENDMDL
MODEL 3
REMARK VINA RESULT:     -10.8      2.178      6.247
REMARK  Name = 
REMARK  5 active torsions:
REMARK  status: ('A' for Active; 'I' for Inactive)
REMARK    1  A    between atoms: O_2  and  C_3
REMARK    2  A    between atoms: C_6  and  C_9
REMARK    3  A    between atoms: C_12  and  C_14
REMARK    4  A    between atoms: N_17  and  S_19
REMARK    5  A    between atoms: S_19  and  C_22
REMARK                            x       y       z     vdW  Elec       q    Type
REMARK                         _______ _______ _______ _____ _____    ______ ____
ROOT
ATOM     14  C   UNL     1      -1.154   0.502  25.627  0.00  0.00    +0.097 C 
ATOM     15  C   UNL     1      -0.829  -0.160  25.997  0.00  0.00    +0.030 C 
ATOM     16  C   UNL     1      -1.279  -0.818  25.784  0.00  0.00    +0.096 C 
ATOM     17  N   UNL     1      -1.881  -0.563  25.281  0.00  0.00    -0.155 NA
ATOM     18  C   UNL     1      -1.804   0.253  25.184  0.00  0.00    +0.105 C 
ENDROOT
BRANCH  14  12
ATOM      9  C   UNL     1      -0.791   2.605  25.593  0.00  0.00    +0.250 A 
ATOM     10  N   UNL     1      -0.109   2.332  25.971  0.00  0.00    -0.107 NA
ATOM     11  N   UNL     1      -0.163   1.510  26.029  0.00  0.00    -0.111 NA
ATOM     12  C   UNL     1      -0.876   1.276  25.688  0.00  0.00    +0.227 A 
ATOM     13  O   UNL     1      -1.264   1.953  25.419  0.00  0.00    -0.419 OA
BRANCH   9   6
ATOM      3  C   UNL     1      -1.318   4.966  25.077  0.00  0.00    +0.139 A 
ATOM      4  C   UNL     1      -1.825   4.527  25.558  0.00  0.00    +0.037 A 
ATOM      5  C   UNL     1      -1.649   3.740  25.730  0.00  0.00    +0.008 A 
ATOM      6  C   UNL     1      -0.966   3.392  25.421  0.00  0.00    +0.055 A 
ATOM      7  C   UNL     1      -0.461   3.832  24.940  0.00  0.00    +0.008 A 
ATOM      8  C   UNL     1      -0.637   4.619  24.768  0.00  0.00    +0.037 A 
BRANCH   3   2
ATOM      1  C   UNL     1      -2.243   6.056  25.072  0.00  0.00    +0.252 C 
ATOM      2  O   UNL     1      -1.494   5.754  24.904  0.00  0.00    -0.471 OA
ENDBRANCH   3   2
ENDBRANCH   9   6
ENDBRANCH  14  12
BRANCH  17  19
ATOM     19  S   UNL     1      -2.460  -1.040  24.936  0.00  0.00    +0.063 S 
ATOM     20  O   UNL     1      -1.969  -1.164  24.284  0.00  0.00    -0.153 OA
ATOM     21  O   UNL     1      -2.951  -0.915  25.588  0.00  0.00    -0.153 OA
BRANCH  19  22
ATOM     22  C   UNL     1      -3.038  -1.516  24.592  0.00  0.00    +0.122 A 
ATOM     23  C   UNL     1      -3.679  -1.172  24.202  0.00  0.00    +0.020 A 
ATOM     24  C   UNL     1      -4.257  -1.648  23.858  0.00  0.00    -0.003 A 
ATOM     25  C   UNL     1      -4.195  -2.469  23.902  0.00  0.00    -0.022 A 
ATOM     26  C   UNL     1      -4.774  -2.946  23.558  0.00  0.00    +0.031 C 
ATOM     27  C   UNL     1      -3.555  -2.814  24.292  0.00  0.00    -0.003 A 
ATOM     28  C   UNL     1      -2.976  -2.337  24.637  0.00  0.00    +0.020 A 
ENDBRANCH  19  22
ENDBRANCH  17  19
TORSDOF 5
ENDMDL
MODEL 4
REMARK VINA RESULT:     -10.7      2.090      2.592
REMARK  Name = 
REMARK  5 active torsions:
REMARK  status: ('A' for Active; 'I' for Inactive)
REMARK    1  A    between atoms: O_2  and  C_3
REMARK    2  A    between atoms: C_6  and  C_9
REMARK    3  A    between atoms: C_12  and  C_14
REMARK    4  A    between atoms: N_17  and  S_19
REMARK    5  A    between atoms: S_19  and  C_22
REMARK                            x       y       z     vdW  Elec       q    Type
REMARK                         _______ _______ _______ _____ _____    ______ ____
ROOT
ATOM     14  C   UNL     1      -0.712   0.846  25.056  0.00  0.00    +0.097 C 
ATOM     15  C   UNL     1       0.044   1.064  24.807  0.00  0.00    +0.030 C 
ATOM     16  C   UNL     1       0.070   1.887  24.758  0.00  0.00    +0.096 C 
ATOM     17  N   UNL     1      -0.671   2.179  24.976  0.00  0.00    -0.155 NA
ATOM     18  C   UNL     1      -1.154   1.535  25.161  0.00  0.00    +0.105 C 
ENDROOT
BRANCH  14  12
ATOM      9  C   UNL     1      -1.704  -1.043  25.107  0.00  0.00    +0.250 A 
ATOM     10  N   UNL     1      -1.077  -1.178  25.627  0.00  0.00    -0.107 NA
ATOM     11  N   UNL     1      -0.629  -0.486  25.671  0.00  0.00    -0.111 NA
ATOM     12  C   UNL     1      -0.979   0.076  25.179  0.00  0.00    +0.227 A 
ATOM     13  O   UNL     1      -1.643  -0.269  24.830  0.00  0.00    -0.419 OA
BRANCH   9   6
ATOM      3  C   UNL     1      -3.456  -2.676  24.489  0.00  0.00    +0.139 A 
ATOM      4  C   UNL     1      -2.679  -2.789  24.233  0.00  0.00    +0.037 A 
ATOM      5  C   UNL     1      -2.095  -2.244  24.439  0.00  0.00    +0.008 A 
ATOM      6  C   UNL     1      -2.287  -1.587  24.901  0.00  0.00    +0.055 A 
ATOM      7  C   UNL     1      -3.064  -1.476  25.156  0.00  0.00    +0.008 A 
ATOM      8  C   UNL     1      -3.648  -2.021  24.950  0.00  0.00    +0.037 A 
BRANCH   3   2
ATOM      1  C   UNL     1      -4.531  -3.075  23.635  0.00  0.00    +0.252 C 
ATOM      2  O   UNL     1      -4.040  -3.221  24.283  0.00  0.00    -0.471 OA
ENDBRANCH   3   2
ENDBRANCH   9   6
ENDBRANCH  14  12
BRANCH  17  19
ATOM     19  S   UNL     1      -0.890   2.974  25.005  0.00  0.00    +0.063 S 
ATOM     20  O   UNL     1      -0.585   3.030  25.770  0.00  0.00    -0.153 OA
ATOM     21  O   UNL     1      -1.194   2.918  24.240  0.00  0.00    -0.153 OA
BRANCH  19  22
ATOM     22  C   UNL     1      -1.109   3.768  25.034  0.00  0.00    +0.122 A 
ATOM     23  C   UNL     1      -1.844   3.983  25.341  0.00  0.00    +0.020 A 
ATOM     24  C   UNL     1      -2.063   4.777  25.369  0.00  0.00    -0.003 A 
ATOM     25  C   UNL     1      -1.547   5.358  25.091  0.00  0.00    -0.022 A 
ATOM     26  C   UNL     1      -1.766   6.153  25.120  0.00  0.00    +0.031 C 
ATOM     27  C   UNL     1      -0.812   5.144  24.784  0.00  0.00    -0.003 A 
ATOM     28  C   UNL     1      -0.593   4.348  24.756  0.00  0.00    +0.020 A 
ENDBRANCH  19  22
ENDBRANCH  17  19
TORSDOF 5
ENDMDL
MODEL 5
REMARK VINA RESULT:      -9.4      3.421      4.544
REMARK  Name = 
REMARK  5 active torsions:
REMARK  status: ('A' for Active; 'I' for Inactive)
REMARK    1  A    between atoms: O_2  and  C_3
REMARK    2  A    between atoms: C_6  and  C_9
REMARK    3  A    between atoms: C_12  and  C_14
REMARK    4  A    between atoms: N_17  and  S_19
REMARK    5  A    between atoms: S_19  and  C_22
REMARK                            x       y       z     vdW  Elec       q    Type
REMARK                         _______ _______ _______ _____ _____    ______ ____
ROOT
ATOM     14  C   UNL     1      -2.242   0.297  24.253  0.00  0.00    +0.097 C 
ATOM     15  C   UNL     1      -2.879  -0.130  23.948  0.00  0.00    +0.030 C 
ATOM     16  C   UNL     1      -3.566   0.305  24.083  0.00  0.00    +0.096 C 
ATOM     17  N   UNL     1      -3.355   1.002  24.471  0.00  0.00    -0.155 NA
ATOM     18  C   UNL     1      -2.536   0.997  24.576  0.00  0.00    +0.105 C 
ENDROOT
BRANCH  14  12
ATOM      9  C   UNL     1      -0.167  -0.044  23.889  0.00  0.00    +0.250 A 
ATOM     10  N   UNL     1      -0.299  -0.540  24.536  0.00  0.00    -0.107 NA
ATOM     11  N   UNL     1      -1.093  -0.473  24.751  0.00  0.00    -0.111 NA
ATOM     12  C   UNL     1      -1.451   0.065  24.237  0.00  0.00    +0.227 A 
ATOM     13  O   UNL     1      -0.878   0.329  23.705  0.00  0.00    -0.419 OA
BRANCH   9   6
ATOM      3  C   UNL     1       1.987   0.266  22.711  0.00  0.00    +0.139 A 
ATOM      4  C   UNL     1       1.777   0.775  23.326  0.00  0.00    +0.037 A 
ATOM      5  C   UNL     1       1.058   0.671  23.719  0.00  0.00    +0.008 A 
ATOM      6  C   UNL     1       0.551   0.059  23.497  0.00  0.00    +0.055 A 
ATOM      7  C   UNL     1       0.762  -0.448  22.882  0.00  0.00    +0.008 A 
ATOM      8  C   UNL     1       1.480  -0.345  22.489  0.00  0.00    +0.037 A 
BRANCH   3   2
ATOM      1  C   UNL     1       3.349   0.697  22.715  0.00  0.00    +0.252 C 
ATOM      2  O   UNL     1       2.705   0.370  22.318  0.00  0.00    -0.471 OA
ENDBRANCH   3   2
ENDBRANCH   9   6
ENDBRANCH  14  12
BRANCH  17  19
ATOM     19  S   UNL     1      -3.871   1.599  24.712  0.00  0.00    +0.063 S 
ATOM     20  O   UNL     1      -4.065   1.161  25.384  0.00  0.00    -0.153 OA
ATOM     21  O   UNL     1      -3.677   2.038  24.040  0.00  0.00    -0.153 OA
BRANCH  19  22
ATOM     22  C   UNL     1      -4.386   2.196  24.952  0.00  0.00    +0.122 A 
ATOM     23  C   UNL     1      -4.113   2.970  25.035  0.00  0.00    +0.020 A 
ATOM     24  C   UNL     1      -4.628   3.567  25.275  0.00  0.00    -0.003 A 
ATOM     25  C   UNL     1      -5.418   3.390  25.434  0.00  0.00    -0.022 A 
ATOM     26  C   UNL     1      -5.934   3.987  25.674  0.00  0.00    +0.031 C 
ATOM     27  C   UNL     1      -5.693   2.617  25.352  0.00  0.00    -0.003 A 
ATOM     28  C   UNL     1      -5.176   2.019  25.111  0.00  0.00    +0.020 A 
ENDBRANCH  19  22
ENDBRANCH  17  19
TORSDOF 5
ENDMDL
MODEL 6
REMARK VINA RESULT:      -9.3      4.853      5.955
REMARK  Name = 
REMARK  5 active torsions:
REMARK  status: ('A' for Active; 'I' for Inactive)
REMARK    1  A    between atoms: O_2  and  C_3
REMARK    2  A    between atoms: C_6  and  C_9
REMARK    3  A    between atoms: C_12  and  C_14
REMARK    4  A    between atoms: N_17  and  S_19
REMARK    5  A    between atoms: S_19  and  C_22
REMARK                            x       y       z     vdW  Elec       q    Type
REMARK                         _______ _______ _______ _____ _____    ______ ____
ROOT
ATOM     14  C   UNL     1       0.096   0.224  23.523  0.00  0.00    +0.097 C 
ATOM     15  C   UNL     1      -0.239  -0.305  24.060  0.00  0.00    +0.030 C 
ATOM     16  C   UNL     1      -0.949   0.018  24.328  0.00  0.00    +0.096 C 
ATOM     17  N   UNL     1      -1.053   0.748  23.956  0.00  0.00    -0.155 NA
ATOM     18  C   UNL     1      -0.407   0.875  23.458  0.00  0.00    +0.105 C 
ENDROOT
BRANCH  14  12
ATOM      9  C   UNL     1       2.113   0.098  22.834  0.00  0.00    +0.250 A 
ATOM     10  N   UNL     1       1.701  -0.177  22.173  0.00  0.00    -0.107 NA
ATOM     11  N   UNL     1       0.895  -0.163  22.351  0.00  0.00    -0.111 NA
ATOM     12  C   UNL     1       0.809   0.120  23.121  0.00  0.00    +0.227 A 
ATOM     13  O   UNL     1       1.562   0.281  23.419  0.00  0.00    -0.419 OA
BRANCH   9   6
ATOM      3  C   UNL     1       4.568   0.329  23.023  0.00  0.00    +0.139 A 
ATOM      4  C   UNL     1       4.116   0.959  22.742  0.00  0.00    +0.037 A 
ATOM      5  C   UNL     1       3.297   0.882  22.679  0.00  0.00    +0.008 A 
ATOM      6  C   UNL     1       2.930   0.175  22.897  0.00  0.00    +0.055 A 
ATOM      7  C   UNL     1       3.384  -0.455  23.177  0.00  0.00    +0.008 A 
ATOM      8  C   UNL     1       4.203  -0.377  23.240  0.00  0.00    +0.037 A 
BRANCH   3   2
ATOM      1  C   UNL     1       5.777   0.132  23.759  0.00  0.00    +0.252 C 
ATOM      2  O   UNL     1       5.387   0.406  23.086  0.00  0.00    -0.471 OA
ENDBRANCH   3   2
ENDBRANCH   9   6
ENDBRANCH  14  12
BRANCH  17  19
ATOM     19  S   UNL     1      -1.691   1.260  24.063  0.00  0.00    +0.063 S 
ATOM     20  O   UNL     1      -1.169   1.896  24.130  0.00  0.00    -0.153 OA
ATOM     21  O   UNL     1      -2.213   0.625  23.995  0.00  0.00    -0.153 OA
BRANCH  19  22
ATOM     22  C   UNL     1      -2.328   1.772  24.169  0.00  0.00    +0.122 A 
ATOM     23  C   UNL     1      -2.440   2.148  24.895  0.00  0.00    +0.020 A 
ATOM     24  C   UNL     1      -3.078   2.659  25.002  0.00  0.00    -0.003 A 
ATOM     25  C   UNL     1      -3.604   2.796  24.382  0.00  0.00    -0.022 A 
ATOM     26  C   UNL     1      -4.243   3.309  24.488  0.00  0.00    +0.031 C 
ATOM     27  C   UNL     1      -3.494   2.421  23.656  0.00  0.00    -0.003 A 
ATOM     28  C   UNL     1      -2.855   1.909  23.549  0.00  0.00    +0.020 A 
ENDBRANCH  19  22
ENDBRANCH  17  19
TORSDOF 5
ENDMDL
MODEL 7
REMARK VINA RESULT:      -9.1      3.362      4.789
REMARK  Name = 
REMARK  5 active torsions:
REMARK  status: ('A' for Active; 'I' for Inactive)
REMARK    1  A    between atoms: O_2  and  C_3
REMARK    2  A    between atoms: C_6  and  C_9
REMARK    3  A    between atoms: C_12  and  C_14
REMARK    4  A    between atoms: N_17  and  S_19
REMARK    5  A    between atoms: S_19  and  C_22
REMARK                            x       y       z     vdW  Elec       q    Type
REMARK                         _______ _______ _______ _____ _____    ______ ____
ROOT
ATOM     14  C   UNL     1      -1.963   0.071  24.523  0.00  0.00    +0.097 C 
ATOM     15  C   UNL     1      -1.609  -0.427  25.079  0.00  0.00    +0.030 C 
ATOM     16  C   UNL     1      -0.812  -0.501  24.884  0.00  0.00    +0.096 C 
ATOM     17  N   UNL     1      -0.671  -0.049  24.207  0.00  0.00    -0.155 NA
ATOM     18  C   UNL     1      -1.383   0.304  23.984  0.00  0.00    +0.105 C 
ENDROOT
BRANCH  14  12
ATOM      9  C   UNL     1      -3.882   0.992  24.681  0.00  0.00    +0.250 A 
ATOM     10  N   UNL     1      -4.074   0.289  24.293  0.00  0.00    -0.107 NA
ATOM     11  N   UNL     1      -3.378  -0.142  24.187  0.00  0.00    -0.111 NA
ATOM     12  C   UNL     1      -2.756   0.295  24.509  0.00  0.00    +0.227 A 
ATOM     13  O   UNL     1      -3.068   0.995  24.814  0.00  0.00    -0.419 OA
BRANCH   9   6
ATOM      3  C   UNL     1      -5.470   2.775  25.329  0.00  0.00    +0.139 A 
ATOM      4  C   UNL     1      -4.786   2.965  24.908  0.00  0.00    +0.037 A 
ATOM      5  C   UNL     1      -4.257   2.371  24.692  0.00  0.00    +0.008 A 
ATOM      6  C   UNL     1      -4.411   1.586  24.897  0.00  0.00    +0.055 A 
ATOM      7  C   UNL     1      -5.094   1.397  25.318  0.00  0.00    +0.008 A 
ATOM      8  C   UNL     1      -5.624   1.992  25.534  0.00  0.00    +0.037 A 
BRANCH   3   2
ATOM      1  C   UNL     1      -5.732   4.143  25.648  0.00  0.00    +0.252 C 
ATOM      2  O   UNL     1      -5.999   3.370  25.546  0.00  0.00    -0.471 OA
ENDBRANCH   3   2
ENDBRANCH   9   6
ENDBRANCH  14  12
BRANCH  17  19
ATOM     19  S   UNL     1       0.054   0.034  23.821  0.00  0.00    +0.063 S 
ATOM     20  O   UNL     1      -0.056   0.852  23.793  0.00  0.00    -0.153 OA
ATOM     21  O   UNL     1       0.163  -0.783  23.850  0.00  0.00    -0.153 OA
BRANCH  19  22
ATOM     22  C   UNL     1       0.778   0.118  23.436  0.00  0.00    +0.122 A 
ATOM     23  C   UNL     1       1.308   0.702  23.676  0.00  0.00    +0.020 A 
ATOM     24  C   UNL     1       2.032   0.786  23.290  0.00  0.00    -0.003 A 
ATOM     25  C   UNL     1       2.226   0.284  22.664  0.00  0.00    -0.022 A 
ATOM     26  C   UNL     1       2.951   0.368  22.278  0.00  0.00    +0.031 C 
ATOM     27  C   UNL     1       1.696  -0.300  22.424  0.00  0.00    -0.003 A 
ATOM     28  C   UNL     1       0.971  -0.383  22.810  0.00  0.00    +0.020 A 
ENDBRANCH  19  22
ENDBRANCH  17  19
TORSDOF 5
ENDMDL
