MODEL 1
REMARK VINA RESULT:     -13.5      0.000      0.000
REMARK  Name = 
REMARK  9 active torsions:
REMARK  status: ('A' for Active; 'I' for Inactive)
REMARK    1  A    between atoms: C_2  and  C_4
REMARK    2  A    between atoms: C_4  and  C_5
REMARK    3  A    between atoms: C_4  and  N_13
REMARK    4  A    between atoms: C_5  and  C_6
REMARK    5  A    between atoms: C_14  and  C_16
REMARK    6  A    between atoms: C_23  and  N_25
REMARK    7  A    between atoms: N_25  and  S_26
REMARK    8  A    between atoms: S_26  and  C_29
REMARK    9  A    between atoms: C_31  and  C_35
REMARK                            x       y       z     vdW  Elec       q    Type
REMARK                         _______ _______ _______ _____ _____    ______ ____
ROOT
ATOM     16  C   UNL     1      -4.245   1.426  24.745  0.00  0.00    +0.200 C 
ATOM     17  O   UNL     1      -3.592   1.244  24.275  0.00  0.00    -0.216 OA
ATOM     18  C   UNL     1      -4.918   1.322  25.211  0.00  0.00    +0.075 C 
ATOM     19  C   UNL     1      -5.309   1.977  25.524  0.00  0.00    +0.187 C 
ATOM     20  O   UNL     1      -5.981   1.874  25.991  0.00  0.00    -0.220 OA
ATOM     21  C   UNL     1      -5.026   2.738  25.370  0.00  0.00    +0.200 C 
ATOM     22  O   UNL     1      -5.417   3.394  25.683  0.00  0.00    -0.219 OA
ATOM     23  C   UNL     1      -4.353   2.842  24.904  0.00  0.00    +0.133 C 
ATOM     24  C   UNL     1      -3.963   2.186  24.592  0.00  0.00    +0.062 C 
ENDROOT
BRANCH  16  14
ATOM     13  N   UNL     1      -3.650   0.149  24.510  0.00  0.00    -0.195 NA
ATOM     14  C   UNL     1      -4.300   0.603  24.735  0.00  0.00    +0.269 C 
ATOM     15  O   UNL     1      -5.007   0.234  24.951  0.00  0.00    -0.271 OA
BRANCH  13   4
ATOM      4  C   UNL     1      -3.705  -0.675  24.500  0.00  0.00    +0.179 C 
BRANCH   4   2
ATOM      1  N   UNL     1      -4.611  -1.651  23.980  0.00  0.00    -0.086 NA
ATOM      2  C   UNL     1      -4.051  -1.057  23.855  0.00  0.00    +0.281 C 
ATOM      3  O   UNL     1      -3.837  -0.846  23.088  0.00  0.00    -0.270 OA
ENDBRANCH   4   2
BRANCH   4   5
ATOM      5  C   UNL     1      -3.414  -1.116  25.133  0.00  0.00    +0.057 C 
BRANCH   5   6
ATOM      6  C   UNL     1      -2.605  -1.269  25.193  0.00  0.00    -0.020 A 
ATOM      7  C   UNL     1      -2.265  -1.872  24.745  0.00  0.00    -0.001 A 
ATOM      8  C   UNL     1      -1.457  -2.026  24.805  0.00  0.00    +0.042 A 
ATOM      9  C   UNL     1      -0.988  -1.576  25.315  0.00  0.00    +0.196 A 
ATOM     10  O   UNL     1      -0.180  -1.729  25.375  0.00  0.00    -0.287 OA
ATOM     11  C   UNL     1      -1.329  -0.973  25.763  0.00  0.00    +0.042 A 
ATOM     12  C   UNL     1      -2.137  -0.819  25.703  0.00  0.00    -0.001 A 
ENDBRANCH   5   6
ENDBRANCH   4   5
ENDBRANCH  13   4
ENDBRANCH  16  14
BRANCH  23  25
ATOM     25  N   UNL     1      -4.071   3.602  24.751  0.00  0.00    -0.076 NA
BRANCH  25  26
ATOM     26  S   UNL     1      -3.285   3.790  24.914  0.00  0.00    +0.077 S 
ATOM     27  O   UNL     1      -3.471   3.880  25.712  0.00  0.00    -0.152 OA
ATOM     28  O   UNL     1      -3.099   3.699  24.114  0.00  0.00    -0.152 OA
BRANCH  26  29
ATOM     29  C   UNL     1      -2.498   3.977  25.076  0.00  0.00    +0.124 A 
ATOM     30  C   UNL     1      -1.975   3.387  25.319  0.00  0.00    +0.024 A 
ATOM     31  C   UNL     1      -1.188   3.575  25.481  0.00  0.00    +0.073 A 
ATOM     32  C   UNL     1      -0.924   4.352  25.400  0.00  0.00    +0.004 A 
ATOM     33  C   UNL     1      -1.447   4.942  25.156  0.00  0.00    +0.001 A 
ATOM     34  C   UNL     1      -2.235   4.754  24.994  0.00  0.00    +0.020 A 
BRANCH  31  35
ATOM     35  C   UNL     1      -0.664   2.985  25.724  0.00  0.00    +0.419 C 
ATOM     36  F   UNL     1      -0.142   2.396  25.968  0.00  0.00    -0.166 F 
ATOM     37  F   UNL     1      -0.388   2.911  24.951  0.00  0.00    -0.166 F 
ATOM     38  F   UNL     1      -0.941   3.060  26.498  0.00  0.00    -0.166 F 
ENDBRANCH  31  35
ENDBRANCH  26  29
ENDBRANCH  25  26
ENDBRANCH  23  25
TORSDOF 9
ENDMDL
MODEL 2
REMARK VINA RESULT:     -13.5      2.543      5.670
REMARK  Name = 
REMARK  9 active torsions:
REMARK  status: ('A' for Active; 'I' for Inactive)
REMARK    1  A    between atoms: C_2  and  C_4
REMARK    2  A    between atoms: C_4  and  C_5
REMARK    3  A    between atoms: C_4  and  N_13
REMARK    4  A    between atoms: C_5  and  C_6
REMARK    5  A    between atoms: C_14  and  C_16
REMARK    6  A    between atoms: C_23  and  N_25
REMARK    7  A    between atoms: N_25  and  S_26
REMARK    8  A    between atoms: S_26  and  C_29
REMARK    9  A    between atoms: C_31  and  C_35
REMARK                            x       y       z     vdW  Elec       q    Type
REMARK                         _______ _______ _______ _____ _____    ______ ____
ROOT
ATOM     16  C   UNL     1      -1.072   1.026  24.776  0.00  0.00    +0.200 C 
ATOM     17  O   UNL     1      -1.666   1.107  25.344  0.00  0.00    -0.216 OA
ATOM     18  C   UNL     1      -0.518   1.229  24.199  0.00  0.00    +0.075 C 
ATOM     19  C   UNL     1      -0.058   0.643  23.845  0.00  0.00    +0.187 C 
ATOM     20  O   UNL     1       0.496   0.846  23.269  0.00  0.00    -0.220 OA
ATOM     21  C   UNL     1      -0.152  -0.146  24.069  0.00  0.00    +0.200 C 
ATOM     22  O   UNL     1       0.309  -0.732  23.714  0.00  0.00    -0.219 OA
ATOM     23  C   UNL     1      -0.706  -0.349  24.645  0.00  0.00    +0.133 C 
ATOM     24  C   UNL     1      -1.166   0.237  24.999  0.00  0.00    +0.062 C 
ENDROOT
BRANCH  16  14
ATOM     13  N   UNL     1      -1.803   2.188  25.174  0.00  0.00    -0.195 NA
ATOM     14  C   UNL     1      -1.185   1.843  24.751  0.00  0.00    +0.269 C 
ATOM     15  O   UNL     1      -0.678   2.316  24.301  0.00  0.00    -0.271 OA
BRANCH  13   4
ATOM      4  C   UNL     1      -1.916   3.005  25.148  0.00  0.00    +0.179 C 
BRANCH   4   2
ATOM      1  N   UNL     1      -1.090   4.161  25.307  0.00  0.00    -0.086 NA
ATOM      2  C   UNL     1      -1.462   3.499  25.630  0.00  0.00    +0.281 C 
ATOM      3  O   UNL     1      -1.380   3.330  26.433  0.00  0.00    -0.270 OA
ENDBRANCH   4   2
BRANCH   4   5
ATOM      5  C   UNL     1      -2.481   3.328  24.643  0.00  0.00    +0.057 C 
BRANCH   5   6
ATOM      6  C   UNL     1      -3.282   3.279  24.834  0.00  0.00    -0.020 A 
ATOM      7  C   UNL     1      -3.575   3.676  25.494  0.00  0.00    -0.001 A 
ATOM      8  C   UNL     1      -4.376   3.627  25.684  0.00  0.00    +0.042 A 
ATOM      9  C   UNL     1      -4.886   3.179  25.213  0.00  0.00    +0.196 A 
ATOM     10  O   UNL     1      -5.686   3.129  25.403  0.00  0.00    -0.287 OA
ATOM     11  C   UNL     1      -4.592   2.781  24.552  0.00  0.00    +0.042 A 
ATOM     12  C   UNL     1      -3.791   2.831  24.362  0.00  0.00    -0.001 A 
ENDBRANCH   5   6
ENDBRANCH   4   5
ENDBRANCH  13   4
ENDBRANCH  16  14
BRANCH  23  25
ATOM     25  N   UNL     1      -0.799  -1.138  24.868  0.00  0.00    -0.076 NA
BRANCH  25  26
ATOM     26  S   UNL     1      -1.530  -1.508  24.773  0.00  0.00    +0.077 S 
ATOM     27  O   UNL     1      -1.366  -1.629  23.974  0.00  0.00    -0.152 OA
ATOM     28  O   UNL     1      -1.694  -1.387  25.573  0.00  0.00    -0.152 OA
BRANCH  26  29
ATOM     29  C   UNL     1      -2.261  -1.878  24.679  0.00  0.00    +0.124 A 
ATOM     30  C   UNL     1      -2.922  -1.436  24.458  0.00  0.00    +0.024 A 
ATOM     31  C   UNL     1      -3.653  -1.807  24.364  0.00  0.00    +0.073 A 
ATOM     32  C   UNL     1      -3.724  -2.619  24.491  0.00  0.00    +0.004 A 
ATOM     33  C   UNL     1      -3.064  -3.060  24.712  0.00  0.00    +0.001 A 
ATOM     34  C   UNL     1      -2.332  -2.690  24.806  0.00  0.00    +0.020 A 
BRANCH  31  35
ATOM     35  C   UNL     1      -4.315  -1.364  24.143  0.00  0.00    +0.419 C 
ATOM     36  F   UNL     1      -4.975  -0.923  23.922  0.00  0.00    -0.166 F 
ATOM     37  F   UNL     1      -4.347  -1.035  24.899  0.00  0.00    -0.166 F 
ATOM     38  F   UNL     1      -4.283  -1.695  23.387  0.00  0.00    -0.166 F 
ENDBRANCH  31  35
ENDBRANCH  26  29
ENDBRANCH  25  26
ENDBRANCH  23  25
TORSDOF 9
ENDMDL
MODEL 3
REMARK VINA RESULT:     -13.0      2.071      3.455
REMARK  Name = 
REMARK  9 active torsions:
REMARK  status: ('A' for Active; 'I' for Inactive)
REMARK    1  A    between atoms: C_2  and  C_4
REMARK    2  A    between atoms: C_4  and  C_5
REMARK    3  A    between atoms: C_4  and  N_13
REMARK    4  A    between atoms: C_5  and  C_6
REMARK    5  A    between atoms: C_14  and  C_16
REMARK    6  A    between atoms: C_23  and  N_25
REMARK    7  A    between atoms: N_25  and  S_26
REMARK    8  A    between atoms: S_26  and  C_29
REMARK    9  A    between atoms: C_31  and  C_35
REMARK                            x       y       z     vdW  Elec       q    Type
REMARK                         _______ _______ _______ _____ _____    ______ ____
ROOT
ATOM     16  C   UNL     1      -1.538   1.421  25.188  0.00  0.00    +0.200 C 
ATOM     17  O   UNL     1      -2.139   0.976  24.840  0.00  0.00    -0.216 OA
ATOM     18  C   UNL     1      -0.834   1.602  25.579  0.00  0.00    +0.075 C 
ATOM     19  C   UNL     1      -0.633   2.388  25.726  0.00  0.00    +0.187 C 
ATOM     20  O   UNL     1       0.070   2.568  26.117  0.00  0.00    -0.220 OA
ATOM     21  C   UNL     1      -1.137   2.994  25.480  0.00  0.00    +0.200 C 
ATOM     22  O   UNL     1      -0.936   3.781  25.627  0.00  0.00    -0.219 OA
ATOM     23  C   UNL     1      -1.840   2.814  25.089  0.00  0.00    +0.133 C 
ATOM     24  C   UNL     1      -2.041   2.027  24.943  0.00  0.00    +0.062 C 
ENDROOT
BRANCH  16  14
ATOM     13  N   UNL     1      -1.447   0.050  24.796  0.00  0.00    -0.195 NA
ATOM     14  C   UNL     1      -1.244   0.660  25.312  0.00  0.00    +0.269 C 
ATOM     15  O   UNL     1      -0.747   0.509  25.954  0.00  0.00    -0.271 OA
BRANCH  13   4
ATOM      4  C   UNL     1      -1.153  -0.711  24.920  0.00  0.00    +0.179 C 
BRANCH   4   2
ATOM      1  N   UNL     1      -0.304  -0.747  23.771  0.00  0.00    -0.086 NA
ATOM      2  C   UNL     1      -0.449  -0.945  24.558  0.00  0.00    +0.281 C 
ATOM      3  O   UNL     1       0.110  -1.376  24.985  0.00  0.00    -0.270 OA
ENDBRANCH   4   2
BRANCH   4   5
ATOM      5  C   UNL     1      -1.563  -1.238  25.404  0.00  0.00    +0.057 C 
BRANCH   5   6
ATOM      6  C   UNL     1      -2.188  -1.681  25.097  0.00  0.00    -0.020 A 
ATOM      7  C   UNL     1      -2.039  -2.279  24.549  0.00  0.00    -0.001 A 
ATOM      8  C   UNL     1      -2.664  -2.723  24.242  0.00  0.00    +0.042 A 
ATOM      9  C   UNL     1      -3.438  -2.567  24.484  0.00  0.00    +0.196 A 
ATOM     10  O   UNL     1      -4.062  -3.010  24.177  0.00  0.00    -0.287 OA
ATOM     11  C   UNL     1      -3.586  -1.968  25.032  0.00  0.00    +0.042 A 
ATOM     12  C   UNL     1      -2.962  -1.526  25.338  0.00  0.00    -0.001 A 
ENDBRANCH   5   6
ENDBRANCH   4   5
ENDBRANCH  13   4
ENDBRANCH  16  14
BRANCH  23  25
ATOM     25  N   UNL     1      -2.343   3.421  24.844  0.00  0.00    -0.076 NA
BRANCH  25  26
ATOM     26  S   UNL     1      -3.151   3.376  25.007  0.00  0.00    +0.077 S 
ATOM     27  O   UNL     1      -3.001   3.541  25.801  0.00  0.00    -0.152 OA
ATOM     28  O   UNL     1      -3.301   3.212  24.212  0.00  0.00    -0.152 OA
BRANCH  26  29
ATOM     29  C   UNL     1      -3.958   3.332  25.168  0.00  0.00    +0.124 A 
ATOM     30  C   UNL     1      -4.372   2.634  25.015  0.00  0.00    +0.024 A 
ATOM     31  C   UNL     1      -5.180   2.590  25.177  0.00  0.00    +0.073 A 
ATOM     32  C   UNL     1      -5.574   3.242  25.492  0.00  0.00    +0.004 A 
ATOM     33  C   UNL     1      -5.161   3.939  25.645  0.00  0.00    +0.001 A 
ATOM     34  C   UNL     1      -4.352   3.984  25.483  0.00  0.00    +0.020 A 
BRANCH  31  35
ATOM     35  C   UNL     1      -5.594   1.892  25.023  0.00  0.00    +0.419 C 
ATOM     36  F   UNL     1      -6.007   1.196  24.870  0.00  0.00    -0.166 F 
ATOM     37  F   UNL     1      -5.869   2.211  24.314  0.00  0.00    -0.166 F 
ATOM     38  F   UNL     1      -5.319   1.574  25.733  0.00  0.00    -0.166 F 
ENDBRANCH  31  35
ENDBRANCH  26  29
ENDBRANCH  25  26
ENDBRANCH  23  25
TORSDOF 9
ENDMDL
MODEL 4
REMARK VINA RESULT:     -12.5      2.241      4.616
REMARK  Name = 
REMARK  9 active torsions:
REMARK  status: ('A' for Active; 'I' for Inactive)
REMARK    1  A    between atoms: C_2  and  C_4
REMARK    2  A    between atoms: C_4  and  C_5
REMARK    3  A    between atoms: C_4  and  N_13
REMARK    4  A    between atoms: C_5  and  C_6
REMARK    5  A    between atoms: C_14  and  C_16
REMARK    6  A    between atoms: C_23  and  N_25
REMARK    7  A    between atoms: N_25  and  S_26
REMARK    8  A    between atoms: S_26  and  C_29
REMARK    9  A    between atoms: C_31  and  C_35
REMARK                            x       y       z     vdW  Elec       q    Type
REMARK                         _______ _______ _______ _____ _____    ______ ____
ROOT
ATOM     16  C   UNL     1      -3.851   2.438  24.652  0.00  0.00    +0.200 C 
ATOM     17  O   UNL     1      -3.153   2.147  24.321  0.00  0.00    -0.216 OA
ATOM     18  C   UNL     1      -4.383   2.963  25.000  0.00  0.00    +0.075 C 
ATOM     19  C   UNL     1      -5.148   2.715  25.185  0.00  0.00    +0.187 C 
ATOM     20  O   UNL     1      -5.680   3.240  25.533  0.00  0.00    -0.220 OA
ATOM     21  C   UNL     1      -5.379   1.940  25.020  0.00  0.00    +0.200 C 
ATOM     22  O   UNL     1      -6.144   1.691  25.205  0.00  0.00    -0.219 OA
ATOM     23  C   UNL     1      -4.847   1.415  24.672  0.00  0.00    +0.133 C 
ATOM     24  C   UNL     1      -4.083   1.664  24.488  0.00  0.00    +0.062 C 
ENDROOT
BRANCH  16  14
ATOM     13  N   UNL     1      -2.726   3.122  25.208  0.00  0.00    -0.195 NA
ATOM     14  C   UNL     1      -3.376   3.111  24.701  0.00  0.00    +0.269 C 
ATOM     15  O   UNL     1      -3.552   3.775  24.241  0.00  0.00    -0.271 OA
BRANCH  13   4
ATOM      4  C   UNL     1      -2.251   3.796  25.257  0.00  0.00    +0.179 C 
BRANCH   4   2
ATOM      1  N   UNL     1      -2.406   5.190  25.530  0.00  0.00    -0.086 NA
ATOM      2  C   UNL     1      -2.451   4.405  25.778  0.00  0.00    +0.281 C 
ATOM      3  O   UNL     1      -2.696   4.227  26.545  0.00  0.00    -0.270 OA
ENDBRANCH   4   2
BRANCH   4   5
ATOM      5  C   UNL     1      -1.578   3.861  24.786  0.00  0.00    +0.057 C 
BRANCH   5   6
ATOM      6  C   UNL     1      -0.931   3.365  24.919  0.00  0.00    -0.020 A 
ATOM      7  C   UNL     1      -0.676   3.216  25.688  0.00  0.00    -0.001 A 
ATOM      8  C   UNL     1      -0.030   2.720  25.821  0.00  0.00    +0.042 A 
ATOM      9  C   UNL     1       0.361   2.373  25.182  0.00  0.00    +0.196 A 
ATOM     10  O   UNL     1       1.007   1.878  25.314  0.00  0.00    -0.287 OA
ATOM     11  C   UNL     1       0.106   2.522  24.411  0.00  0.00    +0.042 A 
ATOM     12  C   UNL     1      -0.540   3.018  24.279  0.00  0.00    -0.001 A 
ENDBRANCH   5   6
ENDBRANCH   4   5
ENDBRANCH  13   4
ENDBRANCH  16  14
BRANCH  23  25
ATOM     25  N   UNL     1      -5.080   0.640  24.508  0.00  0.00    -0.076 NA
BRANCH  25  26
ATOM     26  S   UNL     1      -4.602   0.009  24.740  0.00  0.00    +0.077 S 
ATOM     27  O   UNL     1      -4.895   0.068  25.509  0.00  0.00    -0.152 OA
ATOM     28  O   UNL     1      -4.308  -0.050  23.971  0.00  0.00    -0.152 OA
BRANCH  26  29
ATOM     29  C   UNL     1      -4.123  -0.622  24.971  0.00  0.00    +0.124 A 
ATOM     30  C   UNL     1      -4.063  -1.291  24.491  0.00  0.00    +0.024 A 
ATOM     31  C   UNL     1      -3.584  -1.922  24.723  0.00  0.00    +0.073 A 
ATOM     32  C   UNL     1      -3.166  -1.884  25.433  0.00  0.00    +0.004 A 
ATOM     33  C   UNL     1      -3.227  -1.216  25.912  0.00  0.00    +0.001 A 
ATOM     34  C   UNL     1      -3.706  -0.584  25.681  0.00  0.00    +0.020 A 
BRANCH  31  35
ATOM     35  C   UNL     1      -3.523  -2.592  24.244  0.00  0.00    +0.419 C 
ATOM     36  F   UNL     1      -3.463  -3.260  23.765  0.00  0.00    -0.166 F 
ATOM     37  F   UNL     1      -2.766  -2.359  24.015  0.00  0.00    -0.166 F 
ATOM     38  F   UNL     1      -4.281  -2.824  24.473  0.00  0.00    -0.166 F 
ENDBRANCH  31  35
ENDBRANCH  26  29
ENDBRANCH  25  26
ENDBRANCH  23  25
TORSDOF 9
ENDMDL
