REMARK  Name = 
REMARK  8 active torsions:
REMARK  status: ('A' for Active; 'I' for Inactive)
REMARK    1  A    between atoms: O_2  and  C_3
REMARK    2  A    between atoms: C_8  and  N_9
REMARK    3  A    between atoms: N_12  and  C_13
REMARK    4  A    between atoms: C_13  and  C_14
REMARK    5  A    between atoms: C_14  and  C_15
REMARK    6  A    between atoms: C_20  and  C_21
REMARK    7  A    between atoms: C_21  and  C_22
REMARK    8  A    between atoms: C_25  and  C_27
REMARK                            x       y       z     vdW  Elec       q    Type
REMARK                         _______ _______ _______ _____ _____    ______ ____
ROOT
ATOM     15  C   UNL     1      -2.143  -6.188   0.000  0.00  0.00    +0.022 C 
ATOM     16  C   UNL     1      -2.858  -6.600   0.000  0.00  0.00    +0.094 C 
ATOM     17  N   UNL     1      -3.572  -6.188   0.000  0.00  0.00    -0.276 N 
ATOM     18  C   UNL     1      -3.572  -5.362   0.000  0.00  0.00    +0.094 C 
ATOM     19  C   UNL     1      -2.858  -4.950   0.000  0.00  0.00    +0.022 C 
ATOM     20  C   UNL     1      -2.143  -5.362   0.000  0.00  0.00    +0.015 C 
ATOM     25  C   UNL     1      -4.287  -6.600   0.000  0.00  0.00    +0.249 C 
ATOM     26  O   UNL     1      -4.287  -7.425   0.000  0.00  0.00    -0.270 OA
ENDROOT
BRANCH  25  27
ATOM     27  C   UNL     1      -5.001  -6.188   0.000  0.00  0.00    +0.054 A 
ATOM     28  C   UNL     1      -5.716  -6.600   0.000  0.00  0.00    +0.005 A 
ATOM     29  C   UNL     1      -6.430  -6.188   0.000  0.00  0.00    +0.000 A 
ATOM     30  C   UNL     1      -6.430  -5.362   0.000  0.00  0.00    +0.000 A 
ATOM     31  C   UNL     1      -5.716  -4.950   0.000  0.00  0.00    +0.000 A 
ATOM     32  C   UNL     1      -5.001  -5.362   0.000  0.00  0.00    +0.005 A 
ENDBRANCH  25  27
BRANCH  15  14
ATOM     14  C   UNL     1      -1.429  -6.600   0.000  0.00  0.00    +0.019 C 
BRANCH  14  13
ATOM     13  C   UNL     1      -0.715  -6.188   0.000  0.00  0.00    +0.072 C 
BRANCH  13  12
ATOM      9  N   UNL     1       1.429  -7.425   0.000  0.00  0.00    -0.302 N 
ATOM     10  C   UNL     1       0.715  -7.838   0.000  0.00  0.00    +0.108 C 
ATOM     11  C   UNL     1       0.000  -7.425   0.000  0.00  0.00    +0.094 C 
ATOM     12  N   UNL     1       0.000  -6.600   0.000  0.00  0.00    -0.270 NA
ATOM     33  C   UNL     1       0.715  -6.188   0.000  0.00  0.00    +0.094 C 
ATOM     34  C   UNL     1       1.429  -6.600   0.000  0.00  0.00    +0.108 C 
BRANCH   9   8
ATOM      3  C   UNL     1       2.858  -7.425   0.000  0.00  0.00    +0.152 A 
ATOM      4  C   UNL     1       3.572  -7.838   0.000  0.00  0.00    +0.038 A 
ATOM      5  C   UNL     1       3.572  -8.662   0.000  0.00  0.00    +0.003 A 
ATOM      6  C   UNL     1       2.858  -9.075   0.000  0.00  0.00    +0.001 A 
ATOM      7  C   UNL     1       2.143  -8.662   0.000  0.00  0.00    +0.018 A 
ATOM      8  C   UNL     1       2.143  -7.838   0.000  0.00  0.00    +0.082 A 
BRANCH   3   2
ATOM      1  C   UNL     1       3.572  -6.188   0.000  0.00  0.00    +0.253 C 
ATOM      2  O   UNL     1       2.858  -6.600   0.000  0.00  0.00    -0.470 OA
ENDBRANCH   3   2
ENDBRANCH   9   8
ENDBRANCH  13  12
ENDBRANCH  14  13
ENDBRANCH  15  14
BRANCH  20  21
ATOM     21  C   UNL     1      -1.429  -4.950   0.000  0.00  0.00    +0.114 C 
BRANCH  21  22
ATOM     22  C   UNL     1      -1.429  -4.125   0.000  0.00  0.00    +0.365 C 
ATOM     23  O   UNL     1      -2.143  -3.712   0.000  0.00  0.00    -0.246 OA
ATOM     24  O   UNL     1      -0.715  -3.712   0.000  0.00  0.00    -0.246 OA
ENDBRANCH  21  22
ENDBRANCH  20  21
TORSDOF 8
