MODEL 1
REMARK VINA RESULT:     -11.5      0.000      0.000
REMARK  Name = 
REMARK  9 active torsions:
REMARK  status: ('A' for Active; 'I' for Inactive)
REMARK    1  A    between atoms: N_2  and  C_4
REMARK    2  A    between atoms: C_7  and  C_8
REMARK    3  A    between atoms: C_8  and  N_9
REMARK    4  A    between atoms: N_9  and  C_10
REMARK    5  A    between atoms: C_15  and  C_16
REMARK    6  A    between atoms: C_16  and  C_17
REMARK    7  A    between atoms: C_17  and  C_18
REMARK    8  A    between atoms: N_20  and  C_21
REMARK    9  A    between atoms: C_21  and  C_22
REMARK                            x       y       z     vdW  Elec       q    Type
REMARK                         _______ _______ _______ _____ _____    ______ ____
ROOT
ATOM     10  C   UNL     1      -0.835   0.395  24.793  0.00  0.00    +0.091 C 
ATOM     11  C   UNL     1      -0.423  -0.281  25.027  0.00  0.00    +0.044 C 
ATOM     12  C   UNL     1      -0.936  -0.925  24.972  0.00  0.00    +0.138 C 
ATOM     13  N   UNL     1      -1.666  -0.646  24.705  0.00  0.00    -0.265 NA
ATOM     14  C   UNL     1      -1.603   0.169  24.594  0.00  0.00    +0.090 C 
ATOM     15  C   UNL     1      -2.293  -1.171  24.596  0.00  0.00    +0.080 C 
ATOM     29  C   UNL     1      -2.191  -1.974  24.756  0.00  0.00    +0.131 C 
ATOM     30  N   UNL     1      -1.462  -2.252  25.023  0.00  0.00    -0.203 NA
ATOM     31  C   UNL     1      -0.834  -1.728  25.132  0.00  0.00    +0.256 C 
ATOM     32  O   UNL     1      -0.106  -2.005  25.399  0.00  0.00    -0.272 OA
ENDROOT
BRANCH  10   9
ATOM      9  N   UNL     1      -0.531   1.161  24.764  0.00  0.00    -0.213 NA
BRANCH   9   8
ATOM      8  C   UNL     1      -0.575   1.648  25.428  0.00  0.00    +0.115 C 
BRANCH   8   7
ATOM      4  C   UNL     1      -1.075   4.058  25.164  0.00  0.00    +0.048 A 
ATOM      5  C   UNL     1      -0.573   3.680  24.629  0.00  0.00    +0.014 A 
ATOM      6  C   UNL     1      -0.407   2.876  24.718  0.00  0.00    -0.002 A 
ATOM      7  C   UNL     1      -0.742   2.452  25.340  0.00  0.00    -0.005 A 
ATOM     33  C   UNL     1      -1.243   2.830  25.875  0.00  0.00    -0.002 A 
ATOM     34  C   UNL     1      -1.410   3.633  25.787  0.00  0.00    +0.014 A 
BRANCH   4   2
ATOM      1  C   UNL     1      -1.963   5.164  25.340  0.00  0.00    +0.112 C 
ATOM      2  N   UNL     1      -1.242   4.861  25.076  0.00  0.00    -0.304 N 
ATOM      3  C   UNL     1      -0.687   5.361  24.725  0.00  0.00    +0.112 C 
ENDBRANCH   4   2
ENDBRANCH   8   7
ENDBRANCH   9   8
ENDBRANCH  10   9
BRANCH  15  16
ATOM     16  C   UNL     1      -3.021  -0.893  24.329  0.00  0.00    +0.027 C 
BRANCH  16  17
ATOM     17  C   UNL     1      -3.665  -0.859  24.845  0.00  0.00    +0.088 C 
BRANCH  17  18
ATOM     18  C   UNL     1      -4.329  -0.409  24.649  0.00  0.00    +0.242 C 
ATOM     19  O   UNL     1      -4.901  -0.718  24.143  0.00  0.00    -0.273 OA
ATOM     20  N   UNL     1      -4.418   0.349  24.960  0.00  0.00    -0.201 NA
BRANCH  20  21
ATOM     21  C   UNL     1      -5.082   0.799  24.763  0.00  0.00    +0.141 C 
BRANCH  21  22
ATOM     22  C   UNL     1      -5.117   1.596  24.976  0.00  0.00    -0.000 A 
ATOM     23  C   UNL     1      -5.543   1.825  25.644  0.00  0.00    -0.000 A 
ATOM     24  C   UNL     1      -5.579   2.622  25.856  0.00  0.00    +0.029 A 
ATOM     25  C   UNL     1      -5.189   3.189  25.401  0.00  0.00    +0.140 A 
ATOM     26  F   UNL     1      -5.225   3.984  25.613  0.00  0.00    -0.204 F 
ATOM     27  C   UNL     1      -4.763   2.958  24.732  0.00  0.00    +0.029 A 
ATOM     28  C   UNL     1      -4.728   2.162  24.520  0.00  0.00    -0.000 A 
ENDBRANCH  21  22
ENDBRANCH  20  21
ENDBRANCH  17  18
ENDBRANCH  16  17
ENDBRANCH  15  16
TORSDOF 9
ENDMDL
MODEL 2
REMARK VINA RESULT:     -11.4      1.777      4.444
REMARK  Name = 
REMARK  9 active torsions:
REMARK  status: ('A' for Active; 'I' for Inactive)
REMARK    1  A    between atoms: N_2  and  C_4
REMARK    2  A    between atoms: C_7  and  C_8
REMARK    3  A    between atoms: C_8  and  N_9
REMARK    4  A    between atoms: N_9  and  C_10
REMARK    5  A    between atoms: C_15  and  C_16
REMARK    6  A    between atoms: C_16  and  C_17
REMARK    7  A    between atoms: C_17  and  C_18
REMARK    8  A    between atoms: N_20  and  C_21
REMARK    9  A    between atoms: C_21  and  C_22
REMARK                            x       y       z     vdW  Elec       q    Type
REMARK                         _______ _______ _______ _____ _____    ______ ____
ROOT
ATOM     10  C   UNL     1      -0.979   0.763  25.156  0.00  0.00    +0.091 C 
ATOM     11  C   UNL     1      -0.284   0.990  24.773  0.00  0.00    +0.044 C 
ATOM     12  C   UNL     1      -0.214   1.809  24.839  0.00  0.00    +0.138 C 
ATOM     13  N   UNL     1      -0.865   2.088  25.262  0.00  0.00    -0.265 NA
ATOM     14  C   UNL     1      -1.338   1.441  25.458  0.00  0.00    +0.090 C 
ATOM     15  C   UNL     1      -0.943   2.895  25.415  0.00  0.00    +0.080 C 
ATOM     29  C   UNL     1      -0.370   3.423  25.144  0.00  0.00    +0.131 C 
ATOM     30  N   UNL     1       0.281   3.145  24.722  0.00  0.00    -0.203 NA
ATOM     31  C   UNL     1       0.359   2.338  24.569  0.00  0.00    +0.256 C 
ATOM     32  O   UNL     1       1.010   2.059  24.146  0.00  0.00    -0.272 OA
ENDROOT
BRANCH  10   9
ATOM      9  N   UNL     1      -1.265  -0.008  25.223  0.00  0.00    -0.213 NA
BRANCH   9   8
ATOM      8  C   UNL     1      -2.032  -0.143  25.496  0.00  0.00    +0.115 C 
BRANCH   8   7
ATOM      4  C   UNL     1      -3.348  -2.038  24.601  0.00  0.00    +0.048 A 
ATOM      5  C   UNL     1      -2.530  -2.107  24.683  0.00  0.00    +0.014 A 
ATOM      6  C   UNL     1      -2.091  -1.475  24.981  0.00  0.00    -0.002 A 
ATOM      7  C   UNL     1      -2.470  -0.775  25.197  0.00  0.00    -0.005 A 
ATOM     33  C   UNL     1      -3.288  -0.706  25.115  0.00  0.00    -0.002 A 
ATOM     34  C   UNL     1      -3.727  -1.337  24.817  0.00  0.00    +0.014 A 
BRANCH   4   2
ATOM      1  C   UNL     1      -3.631  -3.438  24.557  0.00  0.00    +0.112 C 
ATOM      2  N   UNL     1      -3.787  -2.669  24.303  0.00  0.00    -0.304 N 
ATOM      3  C   UNL     1      -4.384  -2.531  23.749  0.00  0.00    +0.112 C 
ENDBRANCH   4   2
ENDBRANCH   8   7
ENDBRANCH   9   8
ENDBRANCH  10   9
BRANCH  15  16
ATOM     16  C   UNL     1      -1.594   3.173  25.838  0.00  0.00    +0.027 C 
BRANCH  16  17
ATOM     17  C   UNL     1      -2.043   3.798  25.539  0.00  0.00    +0.088 C 
BRANCH  17  18
ATOM     18  C   UNL     1      -2.823   3.903  25.791  0.00  0.00    +0.242 C 
ATOM     19  O   UNL     1      -2.988   4.415  26.416  0.00  0.00    -0.273 OA
ATOM     20  N   UNL     1      -3.435   3.496  25.417  0.00  0.00    -0.201 NA
BRANCH  20  21
ATOM     21  C   UNL     1      -4.213   3.602  25.670  0.00  0.00    +0.141 C 
BRANCH  21  22
ATOM     22  C   UNL     1      -4.794   3.056  25.454  0.00  0.00    -0.000 A 
ATOM     23  C   UNL     1      -5.379   2.843  25.995  0.00  0.00    -0.000 A 
ATOM     24  C   UNL     1      -5.960   2.297  25.779  0.00  0.00    +0.029 A 
ATOM     25  C   UNL     1      -5.954   1.964  25.024  0.00  0.00    +0.140 A 
ATOM     26  F   UNL     1      -6.534   1.419  24.809  0.00  0.00    -0.204 F 
ATOM     27  C   UNL     1      -5.368   2.178  24.484  0.00  0.00    +0.029 A 
ATOM     28  C   UNL     1      -4.788   2.723  24.699  0.00  0.00    -0.000 A 
ENDBRANCH  21  22
ENDBRANCH  20  21
ENDBRANCH  17  18
ENDBRANCH  16  17
ENDBRANCH  15  16
TORSDOF 9
ENDMDL
MODEL 3
REMARK VINA RESULT:     -11.4      1.422      3.834
REMARK  Name = 
REMARK  9 active torsions:
REMARK  status: ('A' for Active; 'I' for Inactive)
REMARK    1  A    between atoms: N_2  and  C_4
REMARK    2  A    between atoms: C_7  and  C_8
REMARK    3  A    between atoms: C_8  and  N_9
REMARK    4  A    between atoms: N_9  and  C_10
REMARK    5  A    between atoms: C_15  and  C_16
REMARK    6  A    between atoms: C_16  and  C_17
REMARK    7  A    between atoms: C_17  and  C_18
REMARK    8  A    between atoms: N_20  and  C_21
REMARK    9  A    between atoms: C_21  and  C_22
REMARK                            x       y       z     vdW  Elec       q    Type
REMARK                         _______ _______ _______ _____ _____    ______ ____
ROOT
ATOM     10  C   UNL     1      -3.755  -0.620  25.042  0.00  0.00    +0.091 C 
ATOM     11  C   UNL     1      -3.944  -1.399  24.843  0.00  0.00    +0.044 C 
ATOM     12  C   UNL     1      -3.239  -1.804  24.702  0.00  0.00    +0.138 C 
ATOM     13  N   UNL     1      -2.615  -1.275  24.812  0.00  0.00    -0.265 NA
ATOM     14  C   UNL     1      -2.935  -0.544  25.023  0.00  0.00    +0.090 C 
ATOM     15  C   UNL     1      -1.837  -1.529  24.707  0.00  0.00    +0.080 C 
ATOM     29  C   UNL     1      -1.683  -2.310  24.491  0.00  0.00    +0.131 C 
ATOM     30  N   UNL     1      -2.307  -2.837  24.381  0.00  0.00    -0.203 NA
ATOM     31  C   UNL     1      -3.085  -2.585  24.486  0.00  0.00    +0.256 C 
ATOM     32  O   UNL     1      -3.709  -3.113  24.375  0.00  0.00    -0.272 OA
ENDROOT
BRANCH  10   9
ATOM      9  N   UNL     1      -4.294  -0.024  25.227  0.00  0.00    -0.213 NA
BRANCH   9   8
ATOM      8  C   UNL     1      -4.536   0.510  24.646  0.00  0.00    +0.115 C 
BRANCH   8   7
ATOM      4  C   UNL     1      -4.927   2.882  25.231  0.00  0.00    +0.048 A 
ATOM      5  C   UNL     1      -5.395   2.292  25.567  0.00  0.00    +0.014 A 
ATOM      6  C   UNL     1      -5.265   1.501  25.372  0.00  0.00    -0.002 A 
ATOM      7  C   UNL     1      -4.666   1.301  24.841  0.00  0.00    -0.005 A 
ATOM     33  C   UNL     1      -4.198   1.891  24.505  0.00  0.00    -0.002 A 
ATOM     34  C   UNL     1      -4.328   2.682  24.700  0.00  0.00    +0.014 A 
BRANCH   4   2
ATOM      1  C   UNL     1      -5.815   3.930  25.628  0.00  0.00    +0.112 C 
ATOM      2  N   UNL     1      -5.057   3.673  25.426  0.00  0.00    -0.304 N 
ATOM      3  C   UNL     1      -4.428   4.208  25.419  0.00  0.00    +0.112 C 
ENDBRANCH   4   2
ENDBRANCH   8   7
ENDBRANCH   9   8
ENDBRANCH  10   9
BRANCH  15  16
ATOM     16  C   UNL     1      -1.214  -1.000  24.818  0.00  0.00    +0.027 C 
BRANCH  16  17
ATOM     17  C   UNL     1      -0.787  -0.724  24.167  0.00  0.00    +0.088 C 
BRANCH  17  18
ATOM     18  C   UNL     1      -0.241  -0.112  24.262  0.00  0.00    +0.242 C 
ATOM     19  O   UNL     1       0.566  -0.265  24.189  0.00  0.00    -0.273 OA
ATOM     20  N   UNL     1      -0.503   0.652  24.430  0.00  0.00    -0.201 NA
BRANCH  20  21
ATOM     21  C   UNL     1       0.043   1.263  24.524  0.00  0.00    +0.141 C 
BRANCH  21  22
ATOM     22  C   UNL     1      -0.213   2.012  24.758  0.00  0.00    -0.000 A 
ATOM     23  C   UNL     1      -0.217   2.215  25.557  0.00  0.00    -0.000 A 
ATOM     24  C   UNL     1      -0.474   2.964  25.791  0.00  0.00    +0.029 A 
ATOM     25  C   UNL     1      -0.725   3.510  25.225  0.00  0.00    +0.140 A 
ATOM     26  F   UNL     1      -0.980   4.258  25.458  0.00  0.00    -0.204 F 
ATOM     27  C   UNL     1      -0.720   3.305  24.425  0.00  0.00    +0.029 A 
ATOM     28  C   UNL     1      -0.464   2.557  24.192  0.00  0.00    -0.000 A 
ENDBRANCH  21  22
ENDBRANCH  20  21
ENDBRANCH  17  18
ENDBRANCH  16  17
ENDBRANCH  15  16
TORSDOF 9
ENDMDL
MODEL 4
REMARK VINA RESULT:     -11.3      2.182      5.736
REMARK  Name = 
REMARK  9 active torsions:
REMARK  status: ('A' for Active; 'I' for Inactive)
REMARK    1  A    between atoms: N_2  and  C_4
REMARK    2  A    between atoms: C_7  and  C_8
REMARK    3  A    between atoms: C_8  and  N_9
REMARK    4  A    between atoms: N_9  and  C_10
REMARK    5  A    between atoms: C_15  and  C_16
REMARK    6  A    between atoms: C_16  and  C_17
REMARK    7  A    between atoms: C_17  and  C_18
REMARK    8  A    between atoms: N_20  and  C_21
REMARK    9  A    between atoms: C_21  and  C_22
REMARK                            x       y       z     vdW  Elec       q    Type
REMARK                         _______ _______ _______ _____ _____    ______ ____
ROOT
ATOM     10  C   UNL     1      -4.737   1.560  24.932  0.00  0.00    +0.091 C 
ATOM     11  C   UNL     1      -5.373   1.978  25.252  0.00  0.00    +0.044 C 
ATOM     12  C   UNL     1      -5.150   2.770  25.318  0.00  0.00    +0.138 C 
ATOM     13  N   UNL     1      -4.376   2.841  25.038  0.00  0.00    -0.265 NA
ATOM     14  C   UNL     1      -4.122   2.093  24.800  0.00  0.00    +0.090 C 
ATOM     15  C   UNL     1      -4.005   3.577  25.038  0.00  0.00    +0.080 C 
ATOM     29  C   UNL     1      -4.405   4.242  25.316  0.00  0.00    +0.131 C 
ATOM     30  N   UNL     1      -5.178   4.171  25.594  0.00  0.00    -0.203 NA
ATOM     31  C   UNL     1      -5.551   3.435  25.596  0.00  0.00    +0.256 C 
ATOM     32  O   UNL     1      -6.323   3.364  25.875  0.00  0.00    -0.272 OA
ENDROOT
BRANCH  10   9
ATOM      9  N   UNL     1      -4.721   0.751  24.772  0.00  0.00    -0.213 NA
BRANCH   9   8
ATOM      8  C   UNL     1      -4.431   0.224  25.337  0.00  0.00    +0.115 C 
BRANCH   8   7
ATOM      4  C   UNL     1      -3.438  -1.928  24.625  0.00  0.00    +0.048 A 
ATOM      5  C   UNL     1      -3.859  -1.469  24.084  0.00  0.00    +0.014 A 
ATOM      6  C   UNL     1      -4.190  -0.752  24.321  0.00  0.00    -0.002 A 
ATOM      7  C   UNL     1      -4.100  -0.493  25.099  0.00  0.00    -0.005 A 
ATOM     33  C   UNL     1      -3.679  -0.952  25.640  0.00  0.00    -0.002 A 
ATOM     34  C   UNL     1      -3.348  -1.670  25.404  0.00  0.00    +0.014 A 
BRANCH   4   2
ATOM      1  C   UNL     1      -3.594  -3.291  24.222  0.00  0.00    +0.112 C 
ATOM      2  N   UNL     1      -3.107  -2.646  24.388  0.00  0.00    -0.304 N 
ATOM      3  C   UNL     1      -2.287  -2.718  24.318  0.00  0.00    +0.112 C 
ENDBRANCH   4   2
ENDBRANCH   8   7
ENDBRANCH   9   8
ENDBRANCH  10   9
BRANCH  15  16
ATOM     16  C   UNL     1      -3.232   3.647  24.758  0.00  0.00    +0.027 C 
BRANCH  16  17
ATOM     17  C   UNL     1      -2.632   3.901  25.266  0.00  0.00    +0.088 C 
BRANCH  17  18
ATOM     18  C   UNL     1      -1.847   3.698  25.111  0.00  0.00    +0.242 C 
ATOM     19  O   UNL     1      -1.297   4.284  24.930  0.00  0.00    -0.273 OA
ATOM     20  N   UNL     1      -1.613   2.907  25.136  0.00  0.00    -0.201 NA
BRANCH  20  21
ATOM     21  C   UNL     1      -0.829   2.704  24.981  0.00  0.00    +0.141 C 
BRANCH  21  22
ATOM     22  C   UNL     1      -0.628   1.917  24.836  0.00  0.00    -0.000 A 
ATOM     23  C   UNL     1      -0.401   1.683  24.078  0.00  0.00    -0.000 A 
ATOM     24  C   UNL     1      -0.200   0.896  23.932  0.00  0.00    +0.029 A 
ATOM     25  C   UNL     1      -0.226   0.343  24.544  0.00  0.00    +0.140 A 
ATOM     26  F   UNL     1      -0.025  -0.443  24.398  0.00  0.00    -0.204 F 
ATOM     27  C   UNL     1      -0.453   0.578  25.302  0.00  0.00    +0.029 A 
ATOM     28  C   UNL     1      -0.654   1.364  25.448  0.00  0.00    -0.000 A 
ENDBRANCH  21  22
ENDBRANCH  20  21
ENDBRANCH  17  18
ENDBRANCH  16  17
ENDBRANCH  15  16
TORSDOF 9
ENDMDL
MODEL 5
REMARK VINA RESULT:     -11.0      2.417      4.432
REMARK  Name = 
REMARK  9 active torsions:
REMARK  status: ('A' for Active; 'I' for Inactive)
REMARK    1  A    between atoms: N_2  and  C_4
REMARK    2  A    between atoms: C_7  and  C_8
REMARK    3  A    between atoms: C_8  and  N_9
REMARK    4  A    between atoms: N_9  and  C_10
REMARK    5  A    between atoms: C_15  and  C_16
REMARK    6  A    between atoms: C_16  and  C_17
REMARK    7  A    between atoms: C_17  and  C_18
REMARK    8  A    between atoms: N_20  and  C_21
REMARK    9  A    between atoms: C_21  and  C_22
REMARK                            x       y       z     vdW  Elec       q    Type
REMARK                         _______ _______ _______ _____ _____    ______ ____
ROOT
ATOM     10  C   UNL     1      -1.310   2.756  24.556  0.00  0.00    +0.091 C 
ATOM     11  C   UNL     1      -1.343   3.456  24.992  0.00  0.00    +0.044 C 
ATOM     12  C   UNL     1      -2.131   3.592  25.197  0.00  0.00    +0.138 C 
ATOM     13  N   UNL     1      -2.584   2.976  24.887  0.00  0.00    -0.265 NA
ATOM     14  C   UNL     1      -2.077   2.460  24.491  0.00  0.00    +0.090 C 
ATOM     15  C   UNL     1      -3.401   2.965  25.006  0.00  0.00    +0.080 C 
ATOM     29  C   UNL     1      -3.763   3.570  25.434  0.00  0.00    +0.131 C 
ATOM     30  N   UNL     1      -3.310   4.185  25.743  0.00  0.00    -0.203 NA
ATOM     31  C   UNL     1      -2.494   4.197  25.625  0.00  0.00    +0.256 C 
ATOM     32  O   UNL     1      -2.040   4.812  25.934  0.00  0.00    -0.272 OA
ENDROOT
BRANCH  10   9
ATOM      9  N   UNL     1      -0.629   2.414  24.241  0.00  0.00    -0.213 NA
BRANCH   9   8
ATOM      8  C   UNL     1      -0.418   1.645  24.451  0.00  0.00    +0.115 C 
BRANCH   8   7
ATOM      4  C   UNL     1       1.250   0.408  23.103  0.00  0.00    +0.048 A 
ATOM      5  C   UNL     1       1.447   1.138  23.435  0.00  0.00    +0.014 A 
ATOM      6  C   UNL     1       0.891   1.550  23.884  0.00  0.00    -0.002 A 
ATOM      7  C   UNL     1       0.139   1.233  24.002  0.00  0.00    -0.005 A 
ATOM     33  C   UNL     1      -0.058   0.504  23.670  0.00  0.00    -0.002 A 
ATOM     34  C   UNL     1       0.497   0.091  23.221  0.00  0.00    +0.014 A 
BRANCH   4   2
ATOM      1  C   UNL     1       2.604   0.025  22.856  0.00  0.00    +0.112 C 
ATOM      2  N   UNL     1       1.805  -0.004  22.654  0.00  0.00    -0.304 N 
ATOM      3  C   UNL     1       1.560  -0.447  22.001  0.00  0.00    +0.112 C 
ENDBRANCH   4   2
ENDBRANCH   8   7
ENDBRANCH   9   8
ENDBRANCH  10   9
BRANCH  15  16
ATOM     16  C   UNL     1      -3.853   2.349  24.696  0.00  0.00    +0.027 C 
BRANCH  16  17
ATOM     17  C   UNL     1      -4.359   1.921  25.189  0.00  0.00    +0.088 C 
BRANCH  17  18
ATOM     18  C   UNL     1      -4.706   1.223  24.917  0.00  0.00    +0.242 C 
ATOM     19  O   UNL     1      -5.464   1.239  24.594  0.00  0.00    -0.273 OA
ATOM     20  N   UNL     1      -4.295   0.510  24.970  0.00  0.00    -0.201 NA
BRANCH  20  21
ATOM     21  C   UNL     1      -4.642  -0.187  24.698  0.00  0.00    +0.141 C 
BRANCH  21  22
ATOM     22  C   UNL     1      -4.212  -0.891  24.704  0.00  0.00    -0.000 A 
ATOM     23  C   UNL     1      -3.748  -1.085  25.358  0.00  0.00    -0.000 A 
ATOM     24  C   UNL     1      -3.318  -1.790  25.364  0.00  0.00    +0.029 A 
ATOM     25  C   UNL     1      -3.352  -2.300  24.716  0.00  0.00    +0.140 A 
ATOM     26  F   UNL     1      -2.922  -3.003  24.722  0.00  0.00    -0.204 F 
ATOM     27  C   UNL     1      -3.817  -2.105  24.062  0.00  0.00    +0.029 A 
ATOM     28  C   UNL     1      -4.246  -1.401  24.056  0.00  0.00    -0.000 A 
ENDBRANCH  21  22
ENDBRANCH  20  21
ENDBRANCH  17  18
ENDBRANCH  16  17
ENDBRANCH  15  16
TORSDOF 9
ENDMDL
MODEL 6
REMARK VINA RESULT:     -10.7      1.869      4.432
REMARK  Name = 
REMARK  9 active torsions:
REMARK  status: ('A' for Active; 'I' for Inactive)
REMARK    1  A    between atoms: N_2  and  C_4
REMARK    2  A    between atoms: C_7  and  C_8
REMARK    3  A    between atoms: C_8  and  N_9
REMARK    4  A    between atoms: N_9  and  C_10
REMARK    5  A    between atoms: C_15  and  C_16
REMARK    6  A    between atoms: C_16  and  C_17
REMARK    7  A    between atoms: C_17  and  C_18
REMARK    8  A    between atoms: N_20  and  C_21
REMARK    9  A    between atoms: C_21  and  C_22
REMARK                            x       y       z     vdW  Elec       q    Type
REMARK                         _______ _______ _______ _____ _____    ______ ____
ROOT
ATOM     10  C   UNL     1      -1.938   2.915  25.044  0.00  0.00    +0.091 C 
ATOM     11  C   UNL     1      -1.310   3.314  24.686  0.00  0.00    +0.044 C 
ATOM     12  C   UNL     1      -0.677   2.789  24.622  0.00  0.00    +0.138 C 
ATOM     13  N   UNL     1      -0.915   2.064  24.940  0.00  0.00    -0.265 NA
ATOM     14  C   UNL     1      -1.693   2.143  25.200  0.00  0.00    +0.090 C 
ATOM     15  C   UNL     1      -0.390   1.428  24.950  0.00  0.00    +0.080 C 
ATOM     29  C   UNL     1       0.371   1.515  24.643  0.00  0.00    +0.131 C 
ATOM     30  N   UNL     1       0.607   2.238  24.326  0.00  0.00    -0.203 NA
ATOM     31  C   UNL     1       0.083   2.875  24.315  0.00  0.00    +0.256 C 
ATOM     32  O   UNL     1       0.320   3.599  23.998  0.00  0.00    -0.272 OA
ENDROOT
BRANCH  10   9
ATOM      9  N   UNL     1      -2.679   3.233  25.215  0.00  0.00    -0.213 NA
BRANCH   9   8
ATOM      8  C   UNL     1      -3.278   3.212  24.648  0.00  0.00    +0.115 C 
BRANCH   8   7
ATOM      4  C   UNL     1      -5.531   2.388  25.261  0.00  0.00    +0.048 A 
ATOM      5  C   UNL     1      -5.215   3.047  25.643  0.00  0.00    +0.014 A 
ATOM      6  C   UNL     1      -4.464   3.321  25.439  0.00  0.00    -0.002 A 
ATOM      7  C   UNL     1      -4.029   2.937  24.853  0.00  0.00    -0.005 A 
ATOM     33  C   UNL     1      -4.345   2.279  24.470  0.00  0.00    -0.002 A 
ATOM     34  C   UNL     1      -5.096   2.003  24.674  0.00  0.00    +0.014 A 
BRANCH   4   2
ATOM      1  C   UNL     1      -6.816   1.896  24.874  0.00  0.00    +0.112 C 
ATOM      2  N   UNL     1      -6.281   2.113  25.464  0.00  0.00    -0.304 N 
ATOM      3  C   UNL     1      -6.497   2.054  26.259  0.00  0.00    +0.112 C 
ENDBRANCH   4   2
ENDBRANCH   8   7
ENDBRANCH   9   8
ENDBRANCH  10   9
BRANCH  15  16
ATOM     16  C   UNL     1      -0.627   0.705  25.267  0.00  0.00    +0.027 C 
BRANCH  16  17
ATOM     17  C   UNL     1      -0.586   0.019  24.808  0.00  0.00    +0.088 C 
BRANCH  17  18
ATOM     18  C   UNL     1      -0.959  -0.671  25.063  0.00  0.00    +0.242 C 
ATOM     19  O   UNL     1      -0.626  -1.120  25.669  0.00  0.00    -0.273 OA
ATOM     20  N   UNL     1      -1.666  -0.911  24.712  0.00  0.00    -0.201 NA
BRANCH  20  21
ATOM     21  C   UNL     1      -2.039  -1.602  24.967  0.00  0.00    +0.141 C 
BRANCH  21  22
ATOM     22  C   UNL     1      -2.760  -1.828  24.634  0.00  0.00    -0.000 A 
ATOM     23  C   UNL     1      -3.325  -1.256  24.450  0.00  0.00    -0.000 A 
ATOM     24  C   UNL     1      -4.046  -1.483  24.117  0.00  0.00    +0.029 A 
ATOM     25  C   UNL     1      -4.201  -2.280  23.969  0.00  0.00    +0.140 A 
ATOM     26  F   UNL     1      -4.920  -2.505  23.637  0.00  0.00    -0.204 F 
ATOM     27  C   UNL     1      -3.634  -2.850  24.154  0.00  0.00    +0.029 A 
ATOM     28  C   UNL     1      -2.914  -2.625  24.486  0.00  0.00    -0.000 A 
ENDBRANCH  21  22
ENDBRANCH  20  21
ENDBRANCH  17  18
ENDBRANCH  16  17
ENDBRANCH  15  16
TORSDOF 9
ENDMDL
MODEL 7
REMARK VINA RESULT:     -10.5      1.933      4.575
REMARK  Name = 
REMARK  9 active torsions:
REMARK  status: ('A' for Active; 'I' for Inactive)
REMARK    1  A    between atoms: N_2  and  C_4
REMARK    2  A    between atoms: C_7  and  C_8
REMARK    3  A    between atoms: C_8  and  N_9
REMARK    4  A    between atoms: N_9  and  C_10
REMARK    5  A    between atoms: C_15  and  C_16
REMARK    6  A    between atoms: C_16  and  C_17
REMARK    7  A    between atoms: C_17  and  C_18
REMARK    8  A    between atoms: N_20  and  C_21
REMARK    9  A    between atoms: C_21  and  C_22
REMARK                            x       y       z     vdW  Elec       q    Type
REMARK                         _______ _______ _______ _____ _____    ______ ____
ROOT
ATOM     10  C   UNL     1      -0.816   2.689  25.269  0.00  0.00    +0.091 C 
ATOM     11  C   UNL     1      -0.466   3.408  25.062  0.00  0.00    +0.044 C 
ATOM     12  C   UNL     1      -1.029   4.002  25.159  0.00  0.00    +0.138 C 
ATOM     13  N   UNL     1      -1.727   3.651  25.425  0.00  0.00    -0.265 NA
ATOM     14  C   UNL     1      -1.595   2.840  25.493  0.00  0.00    +0.090 C 
ATOM     15  C   UNL     1      -2.392   4.117  25.571  0.00  0.00    +0.080 C 
ATOM     29  C   UNL     1      -2.360   4.933  25.451  0.00  0.00    +0.131 C 
ATOM     30  N   UNL     1      -1.663   5.283  25.185  0.00  0.00    -0.203 NA
ATOM     31  C   UNL     1      -0.997   4.818  25.039  0.00  0.00    +0.256 C 
ATOM     32  O   UNL     1      -0.299   5.168  24.773  0.00  0.00    -0.272 OA
ENDROOT
BRANCH  10   9
ATOM      9  N   UNL     1      -0.449   1.950  25.254  0.00  0.00    -0.213 NA
BRANCH   9   8
ATOM      8  C   UNL     1      -0.555   1.450  24.606  0.00  0.00    +0.115 C 
BRANCH   8   7
ATOM      4  C   UNL     1      -0.629  -1.002  24.935  0.00  0.00    +0.048 A 
ATOM      5  C   UNL     1      -0.848  -0.497  25.549  0.00  0.00    +0.014 A 
ATOM      6  C   UNL     1      -0.823   0.321  25.439  0.00  0.00    -0.002 A 
ATOM      7  C   UNL     1      -0.580   0.633  24.716  0.00  0.00    -0.005 A 
ATOM     33  C   UNL     1      -0.361   0.128  24.102  0.00  0.00    -0.002 A 
ATOM     34  C   UNL     1      -0.385  -0.690  24.211  0.00  0.00    +0.014 A 
BRANCH   4   2
ATOM      1  C   UNL     1      -0.041  -2.201  25.442  0.00  0.00    +0.112 C 
ATOM      2  N   UNL     1      -0.654  -1.819  25.044  0.00  0.00    -0.304 N 
ATOM      3  C   UNL     1      -1.293  -2.254  24.754  0.00  0.00    +0.112 C 
ENDBRANCH   4   2
ENDBRANCH   8   7
ENDBRANCH   9   8
ENDBRANCH  10   9
BRANCH  15  16
ATOM     16  C   UNL     1      -3.090   3.766  25.837  0.00  0.00    +0.027 C 
BRANCH  16  17
ATOM     17  C   UNL     1      -3.773   3.805  25.376  0.00  0.00    +0.088 C 
BRANCH  17  18
ATOM     18  C   UNL     1      -4.343   3.210  25.430  0.00  0.00    +0.242 C 
ATOM     19  O   UNL     1      -5.020   3.328  25.884  0.00  0.00    -0.273 OA
ATOM     20  N   UNL     1      -4.233   2.497  25.029  0.00  0.00    -0.201 NA
BRANCH  20  21
ATOM     21  C   UNL     1      -4.802   1.903  25.084  0.00  0.00    +0.141 C 
BRANCH  21  22
ATOM     22  C   UNL     1      -4.620   1.135  24.841  0.00  0.00    -0.000 A 
ATOM     23  C   UNL     1      -4.350   0.999  24.074  0.00  0.00    -0.000 A 
ATOM     24  C   UNL     1      -4.169   0.230  23.831  0.00  0.00    +0.029 A 
ATOM     25  C   UNL     1      -4.257  -0.400  24.356  0.00  0.00    +0.140 A 
ATOM     26  F   UNL     1      -4.076  -1.167  24.113  0.00  0.00    -0.204 F 
ATOM     27  C   UNL     1      -4.528  -0.262  25.123  0.00  0.00    +0.029 A 
ATOM     28  C   UNL     1      -4.709   0.504  25.366  0.00  0.00    -0.000 A 
ENDBRANCH  21  22
ENDBRANCH  20  21
ENDBRANCH  17  18
ENDBRANCH  16  17
ENDBRANCH  15  16
TORSDOF 9
ENDMDL
MODEL 8
REMARK VINA RESULT:      -8.2     16.293     18.774
REMARK  Name = 
REMARK  9 active torsions:
REMARK  status: ('A' for Active; 'I' for Inactive)
REMARK    1  A    between atoms: N_2  and  C_4
REMARK    2  A    between atoms: C_7  and  C_8
REMARK    3  A    between atoms: C_8  and  N_9
REMARK    4  A    between atoms: N_9  and  C_10
REMARK    5  A    between atoms: C_15  and  C_16
REMARK    6  A    between atoms: C_16  and  C_17
REMARK    7  A    between atoms: C_17  and  C_18
REMARK    8  A    between atoms: N_20  and  C_21
REMARK    9  A    between atoms: C_21  and  C_22
REMARK                            x       y       z     vdW  Elec       q    Type
REMARK                         _______ _______ _______ _____ _____    ______ ____
ROOT
ATOM     10  C   UNL     1      14.394   8.360  17.505  0.00  0.00    +0.091 C 
ATOM     11  C   UNL     1      14.492   8.384  16.686  0.00  0.00    +0.044 C 
ATOM     12  C   UNL     1      13.774   8.614  16.350  0.00  0.00    +0.138 C 
ATOM     13  N   UNL     1      13.233   8.732  16.962  0.00  0.00    -0.265 NA
ATOM     14  C   UNL     1      13.617   8.575  17.676  0.00  0.00    +0.090 C 
ATOM     15  C   UNL     1      12.461   8.967  16.790  0.00  0.00    +0.080 C 
ATOM     29  C   UNL     1      12.231   9.084  16.007  0.00  0.00    +0.131 C 
ATOM     30  N   UNL     1      12.771   8.966  15.396  0.00  0.00    -0.203 NA
ATOM     31  C   UNL     1      13.544   8.731  15.567  0.00  0.00    +0.256 C 
ATOM     32  O   UNL     1      14.084   8.612  14.956  0.00  0.00    -0.272 OA
ENDROOT
BRANCH  10   9
ATOM      9  N   UNL     1      14.973   8.157  18.056  0.00  0.00    -0.213 NA
BRANCH   9   8
ATOM      8  C   UNL     1      14.795   7.634  18.669  0.00  0.00    +0.115 C 
BRANCH   8   7
ATOM      4  C   UNL     1      16.431   7.259  20.488  0.00  0.00    +0.048 A 
ATOM      5  C   UNL     1      15.869   7.859  20.557  0.00  0.00    +0.014 A 
ATOM      6  C   UNL     1      15.324   7.983  19.950  0.00  0.00    -0.002 A 
ATOM      7  C   UNL     1      15.340   7.509  19.276  0.00  0.00    -0.005 A 
ATOM     33  C   UNL     1      15.903   6.910  19.207  0.00  0.00    -0.002 A 
ATOM     34  C   UNL     1      16.448   6.784  19.813  0.00  0.00    +0.014 A 
BRANCH   4   2
ATOM      1  C   UNL     1      17.095   6.373  21.392  0.00  0.00    +0.112 C 
ATOM      2  N   UNL     1      16.977   7.133  21.094  0.00  0.00    -0.304 N 
ATOM      3  C   UNL     1      17.405   7.768  21.402  0.00  0.00    +0.112 C 
ENDBRANCH   4   2
ENDBRANCH   8   7
ENDBRANCH   9   8
ENDBRANCH  10   9
BRANCH  15  16
ATOM     16  C   UNL     1      11.921   9.086  17.402  0.00  0.00    +0.027 C 
BRANCH  16  17
ATOM     17  C   UNL     1      11.309   8.545  17.521  0.00  0.00    +0.088 C 
BRANCH  17  18
ATOM     18  C   UNL     1      10.854   8.582  18.209  0.00  0.00    +0.242 C 
ATOM     19  O   UNL     1      10.059   8.797  18.167  0.00  0.00    -0.273 OA
ATOM     20  N   UNL     1      11.195   8.403  18.938  0.00  0.00    -0.201 NA
BRANCH  20  21
ATOM     21  C   UNL     1      10.740   8.440  19.625  0.00  0.00    +0.141 C 
BRANCH  21  22
ATOM     22  C   UNL     1      11.098   8.341  20.363  0.00  0.00    -0.000 A 
ATOM     23  C   UNL     1      11.185   8.987  20.868  0.00  0.00    -0.000 A 
ATOM     24  C   UNL     1      11.543   8.889  21.606  0.00  0.00    +0.029 A 
ATOM     25  C   UNL     1      11.814   8.144  21.836  0.00  0.00    +0.140 A 
ATOM     26  F   UNL     1      12.172   8.046  22.572  0.00  0.00    -0.204 F 
ATOM     27  C   UNL     1      11.727   7.499  21.329  0.00  0.00    +0.029 A 
ATOM     28  C   UNL     1      11.370   7.597  20.593  0.00  0.00    -0.000 A 
ENDBRANCH  21  22
ENDBRANCH  20  21
ENDBRANCH  17  18
ENDBRANCH  16  17
ENDBRANCH  15  16
TORSDOF 9
ENDMDL
MODEL 9
REMARK VINA RESULT:      -8.1     14.338     16.199
REMARK  Name = 
REMARK  9 active torsions:
REMARK  status: ('A' for Active; 'I' for Inactive)
REMARK    1  A    between atoms: N_2  and  C_4
REMARK    2  A    between atoms: C_7  and  C_8
REMARK    3  A    between atoms: C_8  and  N_9
REMARK    4  A    between atoms: N_9  and  C_10
REMARK    5  A    between atoms: C_15  and  C_16
REMARK    6  A    between atoms: C_16  and  C_17
REMARK    7  A    between atoms: C_17  and  C_18
REMARK    8  A    between atoms: N_20  and  C_21
REMARK    9  A    between atoms: C_21  and  C_22
REMARK                            x       y       z     vdW  Elec       q    Type
REMARK                         _______ _______ _______ _____ _____    ______ ____
ROOT
ATOM     10  C   UNL     1      -2.984 -10.624  13.660  0.00  0.00    +0.091 C 
ATOM     11  C   UNL     1      -2.204 -10.541  13.916  0.00  0.00    +0.044 C 
ATOM     12  C   UNL     1      -2.207 -10.528  14.741  0.00  0.00    +0.138 C 
ATOM     13  N   UNL     1      -2.989 -10.603  14.995  0.00  0.00    -0.265 NA
ATOM     14  C   UNL     1      -3.469 -10.661  14.326  0.00  0.00    +0.090 C 
ATOM     15  C   UNL     1      -3.162 -10.607  15.801  0.00  0.00    +0.080 C 
ATOM     29  C   UNL     1      -2.554 -10.537  16.354  0.00  0.00    +0.131 C 
ATOM     30  N   UNL     1      -1.773 -10.463  16.101  0.00  0.00    -0.203 NA
ATOM     31  C   UNL     1      -1.599 -10.458  15.294  0.00  0.00    +0.256 C 
ATOM     32  O   UNL     1      -0.818 -10.384  15.041  0.00  0.00    -0.272 OA
ENDROOT
BRANCH  10   9
ATOM      9  N   UNL     1      -3.234 -10.661  12.875  0.00  0.00    -0.213 NA
BRANCH   9   8
ATOM      8  C   UNL     1      -3.623 -10.019  12.534  0.00  0.00    +0.115 C 
BRANCH   8   7
ATOM      4  C   UNL     1      -4.161 -10.040  10.118  0.00  0.00    +0.048 A 
ATOM      5  C   UNL     1      -4.763  -9.943  10.673  0.00  0.00    +0.014 A 
ATOM      6  C   UNL     1      -4.583  -9.936  11.479  0.00  0.00    -0.002 A 
ATOM      7  C   UNL     1      -3.803 -10.026  11.729  0.00  0.00    -0.005 A 
ATOM     33  C   UNL     1      -3.201 -10.124  11.173  0.00  0.00    -0.002 A 
ATOM     34  C   UNL     1      -3.379 -10.131  10.368  0.00  0.00    +0.014 A 
BRANCH   4   2
ATOM      1  C   UNL     1      -4.464 -10.764   8.924  0.00  0.00    +0.112 C 
ATOM      2  N   UNL     1      -4.339 -10.048   9.313  0.00  0.00    -0.304 N 
ATOM      3  C   UNL     1      -4.392  -9.337   8.896  0.00  0.00    +0.112 C 
ENDBRANCH   4   2
ENDBRANCH   8   7
ENDBRANCH   9   8
ENDBRANCH  10   9
BRANCH  15  16
ATOM     16  C   UNL     1      -3.944 -10.681  16.054  0.00  0.00    +0.027 C 
BRANCH  16  17
ATOM     17  C   UNL     1      -4.268 -10.116  16.561  0.00  0.00    +0.088 C 
BRANCH  17  18
ATOM     18  C   UNL     1      -4.970 -10.279  16.965  0.00  0.00    +0.242 C 
ATOM     19  O   UNL     1      -4.962 -10.781  17.618  0.00  0.00    -0.273 OA
ATOM     20  N   UNL     1      -5.678  -9.939  16.714  0.00  0.00    -0.201 NA
BRANCH  20  21
ATOM     21  C   UNL     1      -6.378 -10.102  17.119  0.00  0.00    +0.141 C 
BRANCH  21  22
ATOM     22  C   UNL     1      -7.086  -9.754  16.874  0.00  0.00    -0.000 A 
ATOM     23  C   UNL     1      -7.561  -9.359  17.421  0.00  0.00    -0.000 A 
ATOM     24  C   UNL     1      -8.269  -9.011  17.177  0.00  0.00    +0.029 A 
ATOM     25  C   UNL     1      -8.500  -9.057  16.386  0.00  0.00    +0.140 A 
ATOM     26  F   UNL     1      -9.206  -8.709  16.143  0.00  0.00    -0.204 F 
ATOM     27  C   UNL     1      -8.024  -9.452  15.840  0.00  0.00    +0.029 A 
ATOM     28  C   UNL     1      -7.317  -9.800  16.084  0.00  0.00    -0.000 A 
ENDBRANCH  21  22
ENDBRANCH  20  21
ENDBRANCH  17  18
ENDBRANCH  16  17
ENDBRANCH  15  16
TORSDOF 9
ENDMDL
