REMARK  Name = 
REMARK  4 active torsions:
REMARK  status: ('A' for Active; 'I' for Inactive)
REMARK    1  A    between atoms: C_5  and  C_6
REMARK    2  A    between atoms: C_6  and  N_7
REMARK    3  A    between atoms: N_11  and  S_17
REMARK    4  A    between atoms: S_17  and  C_20
REMARK                            x       y       z     vdW  Elec       q    Type
REMARK                         _______ _______ _______ _____ _____    ______ ____
ROOT
ATOM      7  N   UNL     1       0.654  -0.698   0.000  0.00  0.00    -0.258 N 
ATOM      8  C   UNL     1       1.139  -0.030   0.000  0.00  0.00    +0.117 C 
ATOM      9  C   UNL     1       1.923  -0.285   0.000  0.00  0.00    +0.114 C 
ATOM     10  C   UNL     1       2.638   0.127   0.000  0.00  0.00    +0.117 C 
ATOM     11  N   UNL     1       3.352  -0.285   0.000  0.00  0.00    -0.152 NA
ATOM     12  C   UNL     1       3.352  -1.110   0.000  0.00  0.00    +0.117 C 
ATOM     13  C   UNL     1       2.638  -1.523   0.000  0.00  0.00    +0.114 C 
ATOM     14  N   UNL     1       1.923  -1.110   0.000  0.00  0.00    -0.261 N 
ATOM     15  C   UNL     1       1.139  -1.365   0.000  0.00  0.00    +0.308 C 
ATOM     16  O   UNL     1       0.884  -2.150   0.000  0.00  0.00    -0.252 OA
ENDROOT
BRANCH  11  17
ATOM     17  S   UNL     1       4.067   0.127   0.000  0.00  0.00    +0.063 S 
ATOM     18  O   UNL     1       4.479  -0.587   0.000  0.00  0.00    -0.153 OA
ATOM     19  O   UNL     1       3.654   0.842   0.000  0.00  0.00    -0.153 OA
BRANCH  17  20
ATOM     20  C   UNL     1       4.781   0.540   0.000  0.00  0.00    +0.122 A 
ATOM     21  C   UNL     1       4.781   1.365   0.000  0.00  0.00    +0.020 A 
ATOM     22  C   UNL     1       5.496   1.777   0.000  0.00  0.00    +0.001 A 
ATOM     23  C   UNL     1       6.210   1.365   0.000  0.00  0.00    +0.000 A 
ATOM     24  C   UNL     1       6.210   0.540   0.000  0.00  0.00    +0.001 A 
ATOM     25  C   UNL     1       5.496   0.127   0.000  0.00  0.00    +0.020 A 
ENDBRANCH  17  20
ENDBRANCH  11  17
BRANCH   7   6
ATOM      6  C   UNL     1      -0.171  -0.698   0.000  0.00  0.00    +0.122 C 
BRANCH   6   5
ATOM      1  F   UNL     1      -1.821  -3.556   0.000  0.00  0.00    -0.204 F 
ATOM      2  C   UNL     1      -1.409  -2.841   0.000  0.00  0.00    +0.140 A 
ATOM      3  C   UNL     1      -1.821  -2.127   0.000  0.00  0.00    +0.029 A 
ATOM      4  C   UNL     1      -1.409  -1.412   0.000  0.00  0.00    -0.000 A 
ATOM      5  C   UNL     1      -0.584  -1.412   0.000  0.00  0.00    -0.002 A 
ATOM     26  C   UNL     1      -0.171  -2.127   0.000  0.00  0.00    -0.000 A 
ATOM     27  C   UNL     1      -0.584  -2.841   0.000  0.00  0.00    +0.029 A 
ENDBRANCH   6   5
ENDBRANCH   7   6
TORSDOF 4
