MODEL 1
REMARK VINA RESULT:     -11.5      0.000      0.000
REMARK  Name = 
REMARK  6 active torsions:
REMARK  status: ('A' for Active; 'I' for Inactive)
REMARK    1  A    between atoms: O_2  and  C_3
REMARK    2  A    between atoms: C_7  and  C_8
REMARK    3  A    between atoms: C_8  and  N_9
REMARK    4  A    between atoms: N_9  and  C_10
REMARK    5  A    between atoms: C_16  and  C_17
REMARK    6  A    between atoms: C_20  and  N_23
REMARK                            x       y       z     vdW  Elec       q    Type
REMARK                         _______ _______ _______ _____ _____    ______ ____
ROOT
ATOM     10  C   UNL     1      -4.290   2.230  25.017  0.00  0.00    +0.110 C 
ATOM     11  C   UNL     1      -4.942   2.728  25.095  0.00  0.00    +0.198 C 
ATOM     12  O   UNL     1      -4.918   3.549  25.184  0.00  0.00    -0.219 OA
ATOM     13  C   UNL     1      -5.623   2.264  25.068  0.00  0.00    +0.184 C 
ATOM     14  O   UNL     1      -6.399   2.537  25.125  0.00  0.00    -0.220 OA
ATOM     15  C   UNL     1      -5.392   1.477  24.973  0.00  0.00    +0.041 C 
ATOM     16  C   UNL     1      -4.567   1.456  24.942  0.00  0.00    +0.045 C 
ENDROOT
BRANCH  16  17
ATOM     17  C   UNL     1      -4.103   0.780  24.851  0.00  0.00    -0.002 A 
ATOM     18  C   UNL     1      -3.988   0.270  25.490  0.00  0.00    +0.000 A 
ATOM     19  C   UNL     1      -3.524  -0.405  25.399  0.00  0.00    +0.034 A 
ATOM     20  C   UNL     1      -3.174  -0.571  24.670  0.00  0.00    +0.132 A 
ATOM     21  N   UNL     1      -3.289  -0.060  24.032  0.00  0.00    -0.229 NA
ATOM     22  C   UNL     1      -3.753   0.616  24.122  0.00  0.00    +0.096 A 
BRANCH  20  23
ATOM     23  N   UNL     1      -2.709  -1.246  24.579  0.00  0.00    -0.288 N 
ATOM     24  C   UNL     1      -1.889  -1.194  24.650  0.00  0.00    +0.124 C 
ATOM     25  C   UNL     1      -1.424  -1.870  24.559  0.00  0.00    +0.164 C 
ATOM     26  O   UNL     1      -1.779  -2.597  24.397  0.00  0.00    -0.350 OA
ATOM     27  C   UNL     1      -2.599  -2.648  24.325  0.00  0.00    +0.164 C 
ATOM     28  C   UNL     1      -3.064  -1.973  24.416  0.00  0.00    +0.124 C 
ENDBRANCH  20  23
ENDBRANCH  16  17
BRANCH  10   9
ATOM      9  N   UNL     1      -3.499   2.463  25.015  0.00  0.00    -0.212 NA
BRANCH   9   8
ATOM      8  C   UNL     1      -3.273   3.160  25.394  0.00  0.00    +0.115 C 
BRANCH   8   7
ATOM      3  C   UNL     1      -1.136   3.214  25.836  0.00  0.00    +0.138 A 
ATOM      4  C   UNL     1      -0.900   3.862  25.384  0.00  0.00    +0.037 A 
ATOM      5  C   UNL     1      -1.454   4.276  24.936  0.00  0.00    +0.003 A 
ATOM      6  C   UNL     1      -2.246   4.041  24.939  0.00  0.00    -0.003 A 
ATOM      7  C   UNL     1      -2.482   3.394  25.391  0.00  0.00    -0.002 A 
ATOM     29  C   UNL     1      -1.928   2.980  25.840  0.00  0.00    +0.034 A 
BRANCH   3   2
ATOM      1  C   UNL     1       0.016   2.371  25.911  0.00  0.00    +0.252 C 
ATOM      2  O   UNL     1      -0.582   2.799  26.286  0.00  0.00    -0.471 OA
ENDBRANCH   3   2
ENDBRANCH   8   7
ENDBRANCH   9   8
ENDBRANCH  10   9
TORSDOF 6
ENDMDL
MODEL 2
REMARK VINA RESULT:     -11.0      1.654      3.583
REMARK  Name = 
REMARK  6 active torsions:
REMARK  status: ('A' for Active; 'I' for Inactive)
REMARK    1  A    between atoms: O_2  and  C_3
REMARK    2  A    between atoms: C_7  and  C_8
REMARK    3  A    between atoms: C_8  and  N_9
REMARK    4  A    between atoms: N_9  and  C_10
REMARK    5  A    between atoms: C_16  and  C_17
REMARK    6  A    between atoms: C_20  and  N_23
REMARK                            x       y       z     vdW  Elec       q    Type
REMARK                         _______ _______ _______ _____ _____    ______ ____
ROOT
ATOM     10  C   UNL     1      -1.978   3.713  25.171  0.00  0.00    +0.110 C 
ATOM     11  C   UNL     1      -1.859   4.529  25.178  0.00  0.00    +0.198 C 
ATOM     12  O   UNL     1      -2.441   5.103  25.296  0.00  0.00    -0.219 OA
ATOM     13  C   UNL     1      -1.057   4.672  25.045  0.00  0.00    +0.184 C 
ATOM     14  O   UNL     1      -0.697   5.413  25.007  0.00  0.00    -0.220 OA
ATOM     15  C   UNL     1      -0.680   3.944  24.956  0.00  0.00    +0.041 C 
ATOM     16  C   UNL     1      -1.249   3.351  25.034  0.00  0.00    +0.045 C 
ENDROOT
BRANCH  16  17
ATOM     17  C   UNL     1      -1.113   2.538  24.984  0.00  0.00    -0.002 A 
ATOM     18  C   UNL     1      -0.959   2.103  25.669  0.00  0.00    +0.000 A 
ATOM     19  C   UNL     1      -0.823   1.292  25.618  0.00  0.00    +0.034 A 
ATOM     20  C   UNL     1      -0.841   0.915  24.885  0.00  0.00    +0.132 A 
ATOM     21  N   UNL     1      -0.994   1.350  24.201  0.00  0.00    -0.229 NA
ATOM     22  C   UNL     1      -1.130   2.162  24.250  0.00  0.00    +0.096 A 
BRANCH  20  23
ATOM     23  N   UNL     1      -0.705   0.103  24.834  0.00  0.00    -0.288 N 
ATOM     24  C   UNL     1      -1.063  -0.409  25.373  0.00  0.00    +0.124 C 
ATOM     25  C   UNL     1      -0.927  -1.222  25.322  0.00  0.00    +0.164 C 
ATOM     26  O   UNL     1      -0.433  -1.522  24.734  0.00  0.00    -0.350 OA
ATOM     27  C   UNL     1      -0.074  -1.010  24.196  0.00  0.00    +0.164 C 
ATOM     28  C   UNL     1      -0.210  -0.197  24.246  0.00  0.00    +0.124 C 
ENDBRANCH  20  23
ENDBRANCH  16  17
BRANCH  10   9
ATOM      9  N   UNL     1      -2.697   3.327  25.282  0.00  0.00    -0.212 NA
BRANCH   9   8
ATOM      8  C   UNL     1      -3.395   3.665  25.001  0.00  0.00    +0.115 C 
BRANCH   8   7
ATOM      3  C   UNL     1      -5.271   2.773  25.673  0.00  0.00    +0.138 A 
ATOM      4  C   UNL     1      -5.495   2.355  24.999  0.00  0.00    +0.037 A 
ATOM      5  C   UNL     1      -5.020   2.373  24.326  0.00  0.00    +0.003 A 
ATOM      6  C   UNL     1      -4.319   2.810  24.326  0.00  0.00    -0.003 A 
ATOM      7  C   UNL     1      -4.095   3.229  25.000  0.00  0.00    -0.002 A 
ATOM     29  C   UNL     1      -4.570   3.211  25.674  0.00  0.00    +0.034 A 
BRANCH   3   2
ATOM      1  C   UNL     1      -6.228   2.103  26.494  0.00  0.00    +0.252 C 
ATOM      2  O   UNL     1      -5.746   2.756  26.348  0.00  0.00    -0.471 OA
ENDBRANCH   3   2
ENDBRANCH   8   7
ENDBRANCH   9   8
ENDBRANCH  10   9
TORSDOF 6
ENDMDL
MODEL 3
REMARK VINA RESULT:     -10.9      1.484      3.971
REMARK  Name = 
REMARK  6 active torsions:
REMARK  status: ('A' for Active; 'I' for Inactive)
REMARK    1  A    between atoms: O_2  and  C_3
REMARK    2  A    between atoms: C_7  and  C_8
REMARK    3  A    between atoms: C_8  and  N_9
REMARK    4  A    between atoms: N_9  and  C_10
REMARK    5  A    between atoms: C_16  and  C_17
REMARK    6  A    between atoms: C_20  and  N_23
REMARK                            x       y       z     vdW  Elec       q    Type
REMARK                         _______ _______ _______ _____ _____    ______ ____
ROOT
ATOM     10  C   UNL     1      -4.445   1.479  24.711  0.00  0.00    +0.110 C 
ATOM     11  C   UNL     1      -5.205   1.736  24.903  0.00  0.00    +0.198 C 
ATOM     12  O   UNL     1      -5.894   1.283  24.866  0.00  0.00    -0.219 OA
ATOM     13  C   UNL     1      -5.156   2.526  25.137  0.00  0.00    +0.184 C 
ATOM     14  O   UNL     1      -5.787   3.001  25.376  0.00  0.00    -0.220 OA
ATOM     15  C   UNL     1      -4.365   2.757  25.090  0.00  0.00    +0.041 C 
ATOM     16  C   UNL     1      -3.926   2.111  24.827  0.00  0.00    +0.045 C 
ENDROOT
BRANCH  16  17
ATOM     17  C   UNL     1      -3.110   2.097  24.701  0.00  0.00    -0.002 A 
ATOM     18  C   UNL     1      -2.810   2.161  23.935  0.00  0.00    +0.000 A 
ATOM     19  C   UNL     1      -1.995   2.148  23.810  0.00  0.00    +0.034 A 
ATOM     20  C   UNL     1      -1.480   2.071  24.450  0.00  0.00    +0.132 A 
ATOM     21  N   UNL     1      -1.781   2.007  25.215  0.00  0.00    -0.229 NA
ATOM     22  C   UNL     1      -2.596   2.020  25.342  0.00  0.00    +0.096 A 
BRANCH  20  23
ATOM     23  N   UNL     1      -0.665   2.057  24.325  0.00  0.00    -0.288 N 
ATOM     24  C   UNL     1      -0.236   2.762  24.329  0.00  0.00    +0.124 C 
ATOM     25  C   UNL     1       0.580   2.749  24.204  0.00  0.00    +0.164 C 
ATOM     26  O   UNL     1       0.966   2.031  24.074  0.00  0.00    -0.350 OA
ATOM     27  C   UNL     1       0.537   1.327  24.070  0.00  0.00    +0.164 C 
ATOM     28  C   UNL     1      -0.279   1.340  24.196  0.00  0.00    +0.124 C 
ENDBRANCH  20  23
ENDBRANCH  16  17
BRANCH  10   9
ATOM      9  N   UNL     1      -4.240   0.725  24.450  0.00  0.00    -0.212 NA
BRANCH   9   8
ATOM      8  C   UNL     1      -4.519   0.060  24.849  0.00  0.00    +0.115 C 
BRANCH   8   7
ATOM      3  C   UNL     1      -3.372  -1.798  24.879  0.00  0.00    +0.138 A 
ATOM      4  C   UNL     1      -3.696  -2.191  24.231  0.00  0.00    +0.037 A 
ATOM      5  C   UNL     1      -4.294  -1.835  23.789  0.00  0.00    +0.003 A 
ATOM      6  C   UNL     1      -4.568  -1.084  23.995  0.00  0.00    -0.003 A 
ATOM      7  C   UNL     1      -4.245  -0.691  24.643  0.00  0.00    -0.002 A 
ATOM     29  C   UNL     1      -3.647  -1.047  25.086  0.00  0.00    +0.034 A 
BRANCH   3   2
ATOM      1  C   UNL     1      -2.018  -2.235  25.003  0.00  0.00    +0.252 C 
ATOM      2  O   UNL     1      -2.774  -2.154  25.323  0.00  0.00    -0.471 OA
ENDBRANCH   3   2
ENDBRANCH   8   7
ENDBRANCH   9   8
ENDBRANCH  10   9
TORSDOF 6
ENDMDL
MODEL 4
REMARK VINA RESULT:     -10.6      1.207      4.154
REMARK  Name = 
REMARK  6 active torsions:
REMARK  status: ('A' for Active; 'I' for Inactive)
REMARK    1  A    between atoms: O_2  and  C_3
REMARK    2  A    between atoms: C_7  and  C_8
REMARK    3  A    between atoms: C_8  and  N_9
REMARK    4  A    between atoms: N_9  and  C_10
REMARK    5  A    between atoms: C_16  and  C_17
REMARK    6  A    between atoms: C_20  and  N_23
REMARK                            x       y       z     vdW  Elec       q    Type
REMARK                         _______ _______ _______ _____ _____    ______ ____
ROOT
ATOM     10  C   UNL     1      -2.651  -1.219  24.505  0.00  0.00    +0.110 C 
ATOM     11  C   UNL     1      -2.483  -2.025  24.453  0.00  0.00    +0.198 C 
ATOM     12  O   UNL     1      -1.752  -2.357  24.263  0.00  0.00    -0.219 OA
ATOM     13  C   UNL     1      -3.175  -2.441  24.625  0.00  0.00    +0.184 C 
ATOM     14  O   UNL     1      -3.256  -3.262  24.637  0.00  0.00    -0.220 OA
ATOM     15  C   UNL     1      -3.770  -1.893  24.783  0.00  0.00    +0.041 C 
ATOM     16  C   UNL     1      -3.446  -1.137  24.709  0.00  0.00    +0.045 C 
ENDROOT
BRANCH  16  17
ATOM     17  C   UNL     1      -3.848  -0.424  24.820  0.00  0.00    -0.002 A 
ATOM     18  C   UNL     1      -4.057   0.036  24.167  0.00  0.00    +0.000 A 
ATOM     19  C   UNL     1      -4.458   0.748  24.278  0.00  0.00    +0.034 A 
ATOM     20  C   UNL     1      -4.650   1.000  25.040  0.00  0.00    +0.132 A 
ATOM     21  N   UNL     1      -4.441   0.539  25.691  0.00  0.00    -0.229 NA
ATOM     22  C   UNL     1      -4.039  -0.173  25.582  0.00  0.00    +0.096 A 
BRANCH  20  23
ATOM     23  N   UNL     1      -5.051   1.712  25.150  0.00  0.00    -0.288 N 
ATOM     24  C   UNL     1      -5.871   1.714  25.238  0.00  0.00    +0.124 C 
ATOM     25  C   UNL     1      -6.273   2.426  25.348  0.00  0.00    +0.164 C 
ATOM     26  O   UNL     1      -5.854   3.137  25.372  0.00  0.00    -0.350 OA
ATOM     27  C   UNL     1      -5.034   3.135  25.285  0.00  0.00    +0.164 C 
ATOM     28  C   UNL     1      -4.632   2.422  25.174  0.00  0.00    +0.124 C 
ENDBRANCH  20  23
ENDBRANCH  16  17
BRANCH  10   9
ATOM      9  N   UNL     1      -2.118  -0.604  24.376  0.00  0.00    -0.212 NA
BRANCH   9   8
ATOM      8  C   UNL     1      -1.364  -0.633  24.711  0.00  0.00    +0.115 C 
BRANCH   8   7
ATOM      3  C   UNL     1      -0.317   1.217  25.206  0.00  0.00    +0.138 A 
ATOM      4  C   UNL     1       0.147   1.318  24.532  0.00  0.00    +0.037 A 
ATOM      5  C   UNL     1       0.109   0.769  23.918  0.00  0.00    +0.003 A 
ATOM      6  C   UNL     1      -0.396   0.118  23.978  0.00  0.00    -0.003 A 
ATOM      7  C   UNL     1      -0.860   0.017  24.651  0.00  0.00    -0.002 A 
ATOM     29  C   UNL     1      -0.822   0.566  25.265  0.00  0.00    +0.034 A 
BRANCH   3   2
ATOM      1  C   UNL     1      -0.640   2.503  25.738  0.00  0.00    +0.252 C 
ATOM      2  O   UNL     1      -0.278   1.766  25.821  0.00  0.00    -0.471 OA
ENDBRANCH   3   2
ENDBRANCH   8   7
ENDBRANCH   9   8
ENDBRANCH  10   9
TORSDOF 6
ENDMDL
MODEL 5
REMARK VINA RESULT:     -10.5      1.545      5.156
REMARK  Name = 
REMARK  6 active torsions:
REMARK  status: ('A' for Active; 'I' for Inactive)
REMARK    1  A    between atoms: O_2  and  C_3
REMARK    2  A    between atoms: C_7  and  C_8
REMARK    3  A    between atoms: C_8  and  N_9
REMARK    4  A    between atoms: N_9  and  C_10
REMARK    5  A    between atoms: C_16  and  C_17
REMARK    6  A    between atoms: C_20  and  N_23
REMARK                            x       y       z     vdW  Elec       q    Type
REMARK                         _______ _______ _______ _____ _____    ______ ____
ROOT
ATOM     10  C   UNL     1      -1.299   0.671  24.298  0.00  0.00    +0.110 C 
ATOM     11  C   UNL     1      -0.510   0.541  24.099  0.00  0.00    +0.198 C 
ATOM     12  O   UNL     1      -0.153  -0.194  23.983  0.00  0.00    -0.219 OA
ATOM     13  C   UNL     1      -0.138   1.275  24.035  0.00  0.00    +0.184 C 
ATOM     14  O   UNL     1       0.654   1.403  23.844  0.00  0.00    -0.220 OA
ATOM     15  C   UNL     1      -0.699   1.859  24.195  0.00  0.00    +0.041 C 
ATOM     16  C   UNL     1      -1.417   1.485  24.358  0.00  0.00    +0.045 C 
ENDROOT
BRANCH  16  17
ATOM     17  C   UNL     1      -2.127   1.861  24.547  0.00  0.00    -0.002 A 
ATOM     18  C   UNL     1      -2.718   1.937  23.975  0.00  0.00    +0.000 A 
ATOM     19  C   UNL     1      -3.427   2.312  24.164  0.00  0.00    +0.034 A 
ATOM     20  C   UNL     1      -3.547   2.611  24.924  0.00  0.00    +0.132 A 
ATOM     21  N   UNL     1      -2.956   2.534  25.495  0.00  0.00    -0.229 NA
ATOM     22  C   UNL     1      -2.246   2.159  25.307  0.00  0.00    +0.096 A 
BRANCH  20  23
ATOM     23  N   UNL     1      -4.256   2.986  25.113  0.00  0.00    -0.288 N 
ATOM     24  C   UNL     1      -4.303   3.810  25.101  0.00  0.00    +0.124 C 
ATOM     25  C   UNL     1      -5.013   4.185  25.291  0.00  0.00    +0.164 C 
ATOM     26  O   UNL     1      -5.676   3.738  25.492  0.00  0.00    -0.350 OA
ATOM     27  C   UNL     1      -5.630   2.914  25.504  0.00  0.00    +0.164 C 
ATOM     28  C   UNL     1      -4.920   2.538  25.315  0.00  0.00    +0.124 C 
ENDBRANCH  20  23
ENDBRANCH  16  17
BRANCH  10   9
ATOM      9  N   UNL     1      -1.871   0.089  24.417  0.00  0.00    -0.212 NA
BRANCH   9   8
ATOM      8  C   UNL     1      -1.673  -0.610  24.807  0.00  0.00    +0.115 C 
BRANCH   8   7
ATOM      3  C   UNL     1      -3.154  -2.210  24.675  0.00  0.00    +0.138 A 
ATOM      4  C   UNL     1      -3.446  -2.216  25.446  0.00  0.00    +0.037 A 
ATOM      5  C   UNL     1      -3.147  -1.688  26.004  0.00  0.00    +0.003 A 
ATOM      6  C   UNL     1      -2.556  -1.152  25.791  0.00  0.00    -0.003 A 
ATOM      7  C   UNL     1      -2.264  -1.146  25.020  0.00  0.00    -0.002 A 
ATOM     29  C   UNL     1      -2.562  -1.674  24.462  0.00  0.00    +0.034 A 
BRANCH   3   2
ATOM      1  C   UNL     1      -4.209  -2.629  23.808  0.00  0.00    +0.252 C 
ATOM      2  O   UNL     1      -3.452  -2.738  24.116  0.00  0.00    -0.471 OA
ENDBRANCH   3   2
ENDBRANCH   8   7
ENDBRANCH   9   8
ENDBRANCH  10   9
TORSDOF 6
ENDMDL
