MODEL 1
REMARK VINA RESULT:      -8.7      0.000      0.000
REMARK  Name = 
REMARK  13 active torsions:
REMARK  status: ('A' for Active; 'I' for Inactive)
REMARK    1  A    between atoms: S_2  and  C_3
REMARK    2  A    between atoms: C_3  and  C_4
REMARK    3  A    between atoms: N_6  and  C_7
REMARK    4  A    between atoms: C_7  and  C_8
REMARK    5  A    between atoms: C_8  and  C_9
REMARK    6  A    between atoms: C_9  and  C_10
REMARK    7  A    between atoms: C_10  and  N_11
REMARK    8  A    between atoms: C_10  and  C_36
REMARK    9  A    between atoms: C_12  and  C_14
REMARK   10  A    between atoms: C_15  and  N_24
REMARK   11  A    between atoms: C_19  and  C_21
REMARK   12  A    between atoms: C_21  and  S_22
REMARK   13  A    between atoms: N_27  and  C_28
REMARK                            x       y       z     vdW  Elec       q    Type
REMARK                         _______ _______ _______ _____ _____    ______ ____
ROOT
ATOM     14  C   UNL     1      -0.118   0.508  24.106  0.00  0.00    +0.174 C 
ATOM     15  C   UNL     1      -0.578  -0.160  24.256  0.00  0.00    +0.126 C 
ATOM     16  C   UNL     1      -0.154  -0.823  24.009  0.00  0.00    +0.045 C 
ATOM     17  C   UNL     1       0.569  -0.565  23.705  0.00  0.00    +0.096 C 
ATOM     18  N   UNL     1       0.590   0.257  23.765  0.00  0.00    -0.271 N 
ATOM     19  C   UNL     1       1.212   0.744  23.526  0.00  0.00    +0.237 C 
ATOM     20  O   UNL     1       1.155   1.562  23.621  0.00  0.00    -0.274 OA
ENDROOT
BRANCH  15  24
ATOM     24  N   UNL     1      -1.331  -0.165  24.595  0.00  0.00    -0.186 NA
ATOM     25  C   UNL     1      -1.876  -0.744  24.380  0.00  0.00    +0.344 C 
ATOM     26  O   UNL     1      -1.670  -1.319  23.825  0.00  0.00    -0.249 OA
ATOM     27  N   UNL     1      -2.629  -0.749  24.718  0.00  0.00    -0.159 NA
BRANCH  27  28
ATOM     28  C   UNL     1      -3.175  -1.329  24.503  0.00  0.00    +0.102 A 
ATOM     29  C   UNL     1      -3.854  -1.120  24.084  0.00  0.00    +0.158 A 
ATOM     30  F   UNL     1      -3.987  -0.331  23.880  0.00  0.00    -0.203 F 
ATOM     31  C   UNL     1      -4.401  -1.699  23.868  0.00  0.00    +0.061 A 
ATOM     32  C   UNL     1      -4.267  -2.488  24.071  0.00  0.00    +0.142 A 
ATOM     33  F   UNL     1      -4.813  -3.067  23.855  0.00  0.00    -0.204 F 
ATOM     34  C   UNL     1      -3.588  -2.696  24.490  0.00  0.00    +0.031 A 
ATOM     35  C   UNL     1      -3.042  -2.117  24.706  0.00  0.00    +0.021 A 
ENDBRANCH  27  28
ENDBRANCH  15  24
BRANCH  14  12
ATOM     11  N   UNL     1      -0.438   1.534  25.047  0.00  0.00    -0.196 NA
ATOM     12  C   UNL     1      -0.330   1.288  24.267  0.00  0.00    +0.262 C 
ATOM     13  O   UNL     1      -0.432   1.824  23.648  0.00  0.00    -0.271 OA
BRANCH  11  10
ATOM     10  C   UNL     1      -0.650   2.315  25.209  0.00  0.00    +0.174 C 
BRANCH  10  36
ATOM     36  C   UNL     1      -0.191   2.767  25.724  0.00  0.00    +0.281 C 
ATOM     37  N   UNL     1      -0.011   2.479  26.476  0.00  0.00    -0.086 NA
ATOM     38  O   UNL     1       0.086   3.507  25.488  0.00  0.00    -0.270 OA
ENDBRANCH  10  36
BRANCH  10   9
ATOM      9  C   UNL     1      -1.318   2.643  24.856  0.00  0.00    +0.033 C 
BRANCH   9   8
ATOM      8  C   UNL     1      -1.979   2.828  25.314  0.00  0.00    +0.026 C 
BRANCH   8   7
ATOM      7  C   UNL     1      -2.705   2.973  24.952  0.00  0.00    +0.115 C 
BRANCH   7   6
ATOM      4  C   UNL     1      -4.128   2.838  24.968  0.00  0.00    +0.252 C 
ATOM      5  O   UNL     1      -4.148   2.951  24.150  0.00  0.00    -0.272 OA
ATOM      6  N   UNL     1      -3.407   2.849  25.368  0.00  0.00    -0.205 NA
BRANCH   4   3
ATOM      3  C   UNL     1      -4.829   2.714  25.384  0.00  0.00    +0.144 C 
BRANCH   3   2
ATOM      1  C   UNL     1      -6.066   2.006  25.490  0.00  0.00    +0.070 C 
ATOM      2  S   UNL     1      -5.455   2.312  25.028  0.00  0.00    -0.130 S 
ENDBRANCH   3   2
ENDBRANCH   4   3
ENDBRANCH   7   6
ENDBRANCH   8   7
ENDBRANCH   9   8
ENDBRANCH  10   9
ENDBRANCH  11  10
ENDBRANCH  14  12
BRANCH  19  21
ATOM     21  C   UNL     1       1.890   0.414  23.193  0.00  0.00    +0.143 C 
BRANCH  21  22
ATOM     22  S   UNL     1       2.536   0.895  23.010  0.00  0.00    -0.130 S 
ATOM     23  C   UNL     1       3.204   0.570  22.652  0.00  0.00    +0.070 C 
ENDBRANCH  21  22
ENDBRANCH  19  21
TORSDOF 13
ENDMDL
MODEL 2
REMARK VINA RESULT:      -8.2      1.305      4.643
REMARK  Name = 
REMARK  13 active torsions:
REMARK  status: ('A' for Active; 'I' for Inactive)
REMARK    1  A    between atoms: S_2  and  C_3
REMARK    2  A    between atoms: C_3  and  C_4
REMARK    3  A    between atoms: N_6  and  C_7
REMARK    4  A    between atoms: C_7  and  C_8
REMARK    5  A    between atoms: C_8  and  C_9
REMARK    6  A    between atoms: C_9  and  C_10
REMARK    7  A    between atoms: C_10  and  N_11
REMARK    8  A    between atoms: C_10  and  C_36
REMARK    9  A    between atoms: C_12  and  C_14
REMARK   10  A    between atoms: C_15  and  N_24
REMARK   11  A    between atoms: C_19  and  C_21
REMARK   12  A    between atoms: C_21  and  S_22
REMARK   13  A    between atoms: N_27  and  C_28
REMARK                            x       y       z     vdW  Elec       q    Type
REMARK                         _______ _______ _______ _____ _____    ______ ____
ROOT
ATOM     14  C   UNL     1      -3.724   2.130  24.861  0.00  0.00    +0.174 C 
ATOM     15  C   UNL     1      -3.873   1.318  24.850  0.00  0.00    +0.126 C 
ATOM     16  C   UNL     1      -4.663   1.201  25.057  0.00  0.00    +0.045 C 
ATOM     17  C   UNL     1      -5.003   1.940  25.198  0.00  0.00    +0.096 C 
ATOM     18  N   UNL     1      -4.422   2.513  25.077  0.00  0.00    -0.271 N 
ATOM     19  C   UNL     1      -4.522   3.328  25.157  0.00  0.00    +0.237 C 
ATOM     20  O   UNL     1      -3.888   3.838  25.017  0.00  0.00    -0.274 OA
ENDROOT
BRANCH  15  24
ATOM     24  N   UNL     1      -3.329   0.727  24.663  0.00  0.00    -0.186 NA
ATOM     25  C   UNL     1      -3.570  -0.060  24.625  0.00  0.00    +0.344 C 
ATOM     26  O   UNL     1      -4.357  -0.257  24.774  0.00  0.00    -0.249 OA
ATOM     27  N   UNL     1      -3.026  -0.651  24.438  0.00  0.00    -0.159 NA
BRANCH  27  28
ATOM     28  C   UNL     1      -3.268  -1.439  24.400  0.00  0.00    +0.102 A 
ATOM     29  C   UNL     1      -2.865  -2.015  24.832  0.00  0.00    +0.158 A 
ATOM     30  F   UNL     1      -2.221  -1.804  25.301  0.00  0.00    -0.203 F 
ATOM     31  C   UNL     1      -3.108  -2.803  24.794  0.00  0.00    +0.061 A 
ATOM     32  C   UNL     1      -3.752  -3.014  24.324  0.00  0.00    +0.142 A 
ATOM     33  F   UNL     1      -3.994  -3.802  24.286  0.00  0.00    -0.204 F 
ATOM     34  C   UNL     1      -4.154  -2.437  23.892  0.00  0.00    +0.031 A 
ATOM     35  C   UNL     1      -3.912  -1.650  23.930  0.00  0.00    +0.021 A 
ENDBRANCH  27  28
ENDBRANCH  15  24
BRANCH  14  12
ATOM     11  N   UNL     1      -2.368   2.416  25.208  0.00  0.00    -0.196 NA
ATOM     12  C   UNL     1      -3.004   2.493  24.689  0.00  0.00    +0.262 C 
ATOM     13  O   UNL     1      -2.920   2.933  23.996  0.00  0.00    -0.271 OA
BRANCH  11  10
ATOM     10  C   UNL     1      -1.648   2.780  25.035  0.00  0.00    +0.174 C 
BRANCH  10  36
ATOM     36  C   UNL     1      -1.366   3.386  25.519  0.00  0.00    +0.281 C 
ATOM     37  N   UNL     1      -1.137   4.105  25.186  0.00  0.00    -0.086 NA
ATOM     38  O   UNL     1      -1.314   3.272  26.334  0.00  0.00    -0.270 OA
ENDBRANCH  10  36
BRANCH  10   9
ATOM      9  C   UNL     1      -1.209   2.537  24.381  0.00  0.00    +0.033 C 
BRANCH   9   8
ATOM      8  C   UNL     1      -0.498   2.134  24.486  0.00  0.00    +0.026 C 
BRANCH   8   7
ATOM      7  C   UNL     1      -0.281   1.535  23.962  0.00  0.00    +0.115 C 
BRANCH   7   6
ATOM      4  C   UNL     1       0.735   0.653  23.482  0.00  0.00    +0.252 C 
ATOM      5  O   UNL     1       0.156   0.112  23.248  0.00  0.00    -0.272 OA
ATOM      6  N   UNL     1       0.517   1.363  23.838  0.00  0.00    -0.205 NA
BRANCH   4   3
ATOM      3  C   UNL     1       1.533   0.481  23.358  0.00  0.00    +0.144 C 
BRANCH   3   2
ATOM      1  C   UNL     1       2.558   0.039  22.465  0.00  0.00    +0.070 C 
ATOM      2  S   UNL     1       1.764   0.053  22.692  0.00  0.00    -0.130 S 
ENDBRANCH   3   2
ENDBRANCH   4   3
ENDBRANCH   7   6
ENDBRANCH   8   7
ENDBRANCH   9   8
ENDBRANCH  10   9
ENDBRANCH  11  10
ENDBRANCH  14  12
BRANCH  19  21
ATOM     21  C   UNL     1      -5.256   3.635  25.377  0.00  0.00    +0.143 C 
BRANCH  21  22
ATOM     22  S   UNL     1      -5.349   4.449  25.478  0.00  0.00    -0.130 S 
ATOM     23  C   UNL     1      -6.092   4.759  25.656  0.00  0.00    +0.070 C 
ENDBRANCH  21  22
ENDBRANCH  19  21
TORSDOF 13
ENDMDL
MODEL 3
REMARK VINA RESULT:      -7.9      2.280      4.677
REMARK  Name = 
REMARK  13 active torsions:
REMARK  status: ('A' for Active; 'I' for Inactive)
REMARK    1  A    between atoms: S_2  and  C_3
REMARK    2  A    between atoms: C_3  and  C_4
REMARK    3  A    between atoms: N_6  and  C_7
REMARK    4  A    between atoms: C_7  and  C_8
REMARK    5  A    between atoms: C_8  and  C_9
REMARK    6  A    between atoms: C_9  and  C_10
REMARK    7  A    between atoms: C_10  and  N_11
REMARK    8  A    between atoms: C_10  and  C_36
REMARK    9  A    between atoms: C_12  and  C_14
REMARK   10  A    between atoms: C_15  and  N_24
REMARK   11  A    between atoms: C_19  and  C_21
REMARK   12  A    between atoms: C_21  and  S_22
REMARK   13  A    between atoms: N_27  and  C_28
REMARK                            x       y       z     vdW  Elec       q    Type
REMARK                         _______ _______ _______ _____ _____    ______ ____
ROOT
ATOM     14  C   UNL     1      -3.074  -0.375  24.632  0.00  0.00    +0.174 C 
ATOM     15  C   UNL     1      -3.592   0.244  24.465  0.00  0.00    +0.126 C 
ATOM     16  C   UNL     1      -4.313  -0.082  24.231  0.00  0.00    +0.045 C 
ATOM     17  C   UNL     1      -4.241  -0.904  24.253  0.00  0.00    +0.096 C 
ATOM     18  N   UNL     1      -3.475  -1.085  24.501  0.00  0.00    -0.271 N 
ATOM     19  C   UNL     1      -3.165  -1.843  24.601  0.00  0.00    +0.237 C 
ATOM     20  O   UNL     1      -2.385  -1.939  24.854  0.00  0.00    -0.274 OA
ENDROOT
BRANCH  15  24
ATOM     24  N   UNL     1      -3.420   1.049  24.522  0.00  0.00    -0.186 NA
ATOM     25  C   UNL     1      -4.008   1.582  24.744  0.00  0.00    +0.344 C 
ATOM     26  O   UNL     1      -4.769   1.311  24.911  0.00  0.00    -0.249 OA
ATOM     27  N   UNL     1      -3.836   2.387  24.801  0.00  0.00    -0.159 NA
BRANCH  27  28
ATOM     28  C   UNL     1      -4.425   2.921  25.024  0.00  0.00    +0.102 A 
ATOM     29  C   UNL     1      -4.502   3.640  24.627  0.00  0.00    +0.158 A 
ATOM     30  F   UNL     1      -3.990   3.825  24.007  0.00  0.00    -0.203 F 
ATOM     31  C   UNL     1      -5.091   4.173  24.849  0.00  0.00    +0.061 A 
ATOM     32  C   UNL     1      -5.602   3.988  25.470  0.00  0.00    +0.142 A 
ATOM     33  F   UNL     1      -6.190   4.521  25.692  0.00  0.00    -0.204 F 
ATOM     34  C   UNL     1      -5.525   3.269  25.867  0.00  0.00    +0.031 A 
ATOM     35  C   UNL     1      -4.937   2.735  25.644  0.00  0.00    +0.021 A 
ENDBRANCH  27  28
ENDBRANCH  15  24
BRANCH  14  12
ATOM     11  N   UNL     1      -1.707  -0.071  24.353  0.00  0.00    -0.196 NA
ATOM     12  C   UNL     1      -2.293  -0.300  24.885  0.00  0.00    +0.262 C 
ATOM     13  O   UNL     1      -2.098  -0.453  25.672  0.00  0.00    -0.271 OA
BRANCH  11  10
ATOM     10  C   UNL     1      -0.925   0.005  24.606  0.00  0.00    +0.174 C 
BRANCH  10  36
ATOM     36  C   UNL     1      -0.347  -0.507  24.315  0.00  0.00    +0.281 C 
ATOM     37  N   UNL     1      -0.134  -0.478  23.519  0.00  0.00    -0.086 NA
ATOM     38  O   UNL     1       0.018  -1.046  24.821  0.00  0.00    -0.270 OA
ENDBRANCH  10  36
BRANCH  10   9
ATOM      9  C   UNL     1      -0.722   0.592  25.148  0.00  0.00    +0.033 C 
BRANCH   9   8
ATOM      8  C   UNL     1      -0.301   1.256  24.899  0.00  0.00    +0.026 C 
BRANCH   8   7
ATOM      7  C   UNL     1      -0.306   1.943  25.355  0.00  0.00    +0.115 C 
BRANCH   7   6
ATOM      4  C   UNL     1      -0.605   3.341  25.369  0.00  0.00    +0.252 C 
ATOM      5  O   UNL     1      -0.947   3.260  26.116  0.00  0.00    -0.272 OA
ATOM      6  N   UNL     1      -0.285   2.683  24.990  0.00  0.00    -0.205 NA
BRANCH   4   3
ATOM      3  C   UNL     1      -0.583   4.080  25.003  0.00  0.00    +0.144 C 
BRANCH   3   2
ATOM      1  C   UNL     1      -1.125   5.392  24.838  0.00  0.00    +0.070 C 
ATOM      2  S   UNL     1      -1.092   4.679  25.253  0.00  0.00    -0.130 S 
ENDBRANCH   3   2
ENDBRANCH   4   3
ENDBRANCH   7   6
ENDBRANCH   8   7
ENDBRANCH   9   8
ENDBRANCH  10   9
ENDBRANCH  11  10
ENDBRANCH  14  12
BRANCH  19  21
ATOM     21  C   UNL     1      -3.634  -2.504  24.448  0.00  0.00    +0.143 C 
BRANCH  21  22
ATOM     22  S   UNL     1      -3.304  -3.260  24.485  0.00  0.00    -0.130 S 
ATOM     23  C   UNL     1      -3.688  -3.895  24.124  0.00  0.00    +0.070 C 
ENDBRANCH  21  22
ENDBRANCH  19  21
TORSDOF 13
ENDMDL
MODEL 4
REMARK VINA RESULT:      -7.6      1.961      4.102
REMARK  Name = 
REMARK  13 active torsions:
REMARK  status: ('A' for Active; 'I' for Inactive)
REMARK    1  A    between atoms: S_2  and  C_3
REMARK    2  A    between atoms: C_3  and  C_4
REMARK    3  A    between atoms: N_6  and  C_7
REMARK    4  A    between atoms: C_7  and  C_8
REMARK    5  A    between atoms: C_8  and  C_9
REMARK    6  A    between atoms: C_9  and  C_10
REMARK    7  A    between atoms: C_10  and  N_11
REMARK    8  A    between atoms: C_10  and  C_36
REMARK    9  A    between atoms: C_12  and  C_14
REMARK   10  A    between atoms: C_15  and  N_24
REMARK   11  A    between atoms: C_19  and  C_21
REMARK   12  A    between atoms: C_21  and  S_22
REMARK   13  A    between atoms: N_27  and  C_28
REMARK                            x       y       z     vdW  Elec       q    Type
REMARK                         _______ _______ _______ _____ _____    ______ ____
ROOT
ATOM     14  C   UNL     1       0.017   0.857  24.054  0.00  0.00    +0.174 C 
ATOM     15  C   UNL     1      -0.002   1.597  24.420  0.00  0.00    +0.126 C 
ATOM     16  C   UNL     1       0.705   1.985  24.249  0.00  0.00    +0.045 C 
ATOM     17  C   UNL     1       1.163   1.485  23.778  0.00  0.00    +0.096 C 
ATOM     18  N   UNL     1       0.738   0.789  23.658  0.00  0.00    -0.271 N 
ATOM     19  C   UNL     1       0.989   0.137  23.219  0.00  0.00    +0.237 C 
ATOM     20  O   UNL     1       0.502  -0.525  23.146  0.00  0.00    -0.274 OA
ENDROOT
BRANCH  15  24
ATOM     24  N   UNL     1      -0.622   1.896  24.876  0.00  0.00    -0.186 NA
ATOM     25  C   UNL     1      -0.780   2.705  24.877  0.00  0.00    +0.344 C 
ATOM     26  O   UNL     1      -0.318   3.216  24.422  0.00  0.00    -0.249 OA
ATOM     27  N   UNL     1      -1.399   3.005  25.333  0.00  0.00    -0.159 NA
BRANCH  27  28
ATOM     28  C   UNL     1      -1.556   3.815  25.334  0.00  0.00    +0.102 A 
ATOM     29  C   UNL     1      -2.250   4.099  25.679  0.00  0.00    +0.158 A 
ATOM     30  F   UNL     1      -2.785   3.574  26.022  0.00  0.00    -0.203 F 
ATOM     31  C   UNL     1      -2.408   4.909  25.680  0.00  0.00    +0.061 A 
ATOM     32  C   UNL     1      -1.872   5.434  25.337  0.00  0.00    +0.142 A 
ATOM     33  F   UNL     1      -2.030   6.243  25.338  0.00  0.00    -0.204 F 
ATOM     34  C   UNL     1      -1.179   5.149  24.992  0.00  0.00    +0.031 A 
ATOM     35  C   UNL     1      -1.021   4.340  24.991  0.00  0.00    +0.021 A 
ENDBRANCH  27  28
ENDBRANCH  15  24
BRANCH  14  12
ATOM     11  N   UNL     1      -0.743  -0.105  24.787  0.00  0.00    -0.196 NA
ATOM     12  C   UNL     1      -0.578   0.287  24.081  0.00  0.00    +0.262 C 
ATOM     13  O   UNL     1      -1.008   0.109  23.400  0.00  0.00    -0.271 OA
BRANCH  11  10
ATOM     10  C   UNL     1      -1.339  -0.675  24.814  0.00  0.00    +0.174 C 
BRANCH  10  36
ATOM     36  C   UNL     1      -1.166  -1.438  25.076  0.00  0.00    +0.281 C 
ATOM     37  N   UNL     1      -1.433  -2.091  24.648  0.00  0.00    -0.086 NA
ATOM     38  O   UNL     1      -0.728  -1.548  25.765  0.00  0.00    -0.270 OA
ENDBRANCH  10  36
BRANCH  10   9
ATOM      9  C   UNL     1      -2.105  -0.484  24.578  0.00  0.00    +0.033 C 
BRANCH   9   8
ATOM      8  C   UNL     1      -2.701  -0.396  25.142  0.00  0.00    +0.026 C 
BRANCH   8   7
ATOM      7  C   UNL     1      -3.461  -0.179  24.910  0.00  0.00    +0.115 C 
BRANCH   7   6
ATOM      4  C   UNL     1      -4.568   0.719  25.006  0.00  0.00    +0.252 C 
ATOM      5  O   UNL     1      -4.891   0.396  24.318  0.00  0.00    -0.272 OA
ATOM      6  N   UNL     1      -3.854   0.432  25.301  0.00  0.00    -0.205 NA
BRANCH   4   3
ATOM      3  C   UNL     1      -4.962   1.330  25.398  0.00  0.00    +0.144 C 
BRANCH   3   2
ATOM      1  C   UNL     1      -5.815   2.475  25.355  0.00  0.00    +0.070 C 
ATOM      2  S   UNL     1      -5.483   1.817  24.985  0.00  0.00    -0.130 S 
ENDBRANCH   3   2
ENDBRANCH   4   3
ENDBRANCH   7   6
ENDBRANCH   8   7
ENDBRANCH   9   8
ENDBRANCH  10   9
ENDBRANCH  11  10
ENDBRANCH  14  12
BRANCH  19  21
ATOM     21  C   UNL     1       1.728   0.147  22.851  0.00  0.00    +0.143 C 
BRANCH  21  22
ATOM     22  S   UNL     1       1.865  -0.327  22.190  0.00  0.00    -0.130 S 
ATOM     23  C   UNL     1       2.566  -0.245  21.762  0.00  0.00    +0.070 C 
ENDBRANCH  21  22
ENDBRANCH  19  21
TORSDOF 13
ENDMDL
MODEL 5
REMARK VINA RESULT:      -7.2      2.247      4.523
REMARK  Name = 
REMARK  13 active torsions:
REMARK  status: ('A' for Active; 'I' for Inactive)
REMARK    1  A    between atoms: S_2  and  C_3
REMARK    2  A    between atoms: C_3  and  C_4
REMARK    3  A    between atoms: N_6  and  C_7
REMARK    4  A    between atoms: C_7  and  C_8
REMARK    5  A    between atoms: C_8  and  C_9
REMARK    6  A    between atoms: C_9  and  C_10
REMARK    7  A    between atoms: C_10  and  N_11
REMARK    8  A    between atoms: C_10  and  C_36
REMARK    9  A    between atoms: C_12  and  C_14
REMARK   10  A    between atoms: C_15  and  N_24
REMARK   11  A    between atoms: C_19  and  C_21
REMARK   12  A    between atoms: C_21  and  S_22
REMARK   13  A    between atoms: N_27  and  C_28
REMARK                            x       y       z     vdW  Elec       q    Type
REMARK                         _______ _______ _______ _____ _____    ______ ____
ROOT
ATOM     14  C   UNL     1      -1.556  -0.012  24.827  0.00  0.00    +0.174 C 
ATOM     15  C   UNL     1      -1.306   0.752  24.642  0.00  0.00    +0.126 C 
ATOM     16  C   UNL     1      -0.486   0.738  24.556  0.00  0.00    +0.045 C 
ATOM     17  C   UNL     1      -0.228  -0.034  24.688  0.00  0.00    +0.096 C 
ATOM     18  N   UNL     1      -0.889  -0.498  24.855  0.00  0.00    -0.271 N 
ATOM     19  C   UNL     1      -0.885  -1.306  25.022  0.00  0.00    +0.237 C 
ATOM     20  O   UNL     1      -1.594  -1.698  25.180  0.00  0.00    -0.274 OA
ENDROOT
BRANCH  15  24
ATOM     24  N   UNL     1      -1.791   1.414  24.557  0.00  0.00    -0.186 NA
ATOM     25  C   UNL     1      -1.487   2.168  24.690  0.00  0.00    +0.344 C 
ATOM     26  O   UNL     1      -0.697   2.262  24.908  0.00  0.00    -0.249 OA
ATOM     27  N   UNL     1      -1.972   2.830  24.605  0.00  0.00    -0.159 NA
BRANCH  27  28
ATOM     28  C   UNL     1      -1.667   3.586  24.738  0.00  0.00    +0.102 A 
ATOM     29  C   UNL     1      -2.005   4.070  25.315  0.00  0.00    +0.158 A 
ATOM     30  F   UNL     1      -2.646   3.800  25.757  0.00  0.00    -0.203 F 
ATOM     31  C   UNL     1      -1.700   4.826  25.448  0.00  0.00    +0.061 A 
ATOM     32  C   UNL     1      -1.058   5.095  25.005  0.00  0.00    +0.142 A 
ATOM     33  F   UNL     1      -0.754   5.850  25.138  0.00  0.00    -0.204 F 
ATOM     34  C   UNL     1      -0.722   4.610  24.429  0.00  0.00    +0.031 A 
ATOM     35  C   UNL     1      -1.026   3.855  24.296  0.00  0.00    +0.021 A 
ENDBRANCH  27  28
ENDBRANCH  15  24
BRANCH  14  12
ATOM     11  N   UNL     1      -2.864  -0.300  24.330  0.00  0.00    -0.196 NA
ATOM     12  C   UNL     1      -2.335  -0.249  24.960  0.00  0.00    +0.262 C 
ATOM     13  O   UNL     1      -2.584  -0.436  25.724  0.00  0.00    -0.271 OA
BRANCH  11  10
ATOM     10  C   UNL     1      -3.643  -0.536  24.463  0.00  0.00    +0.174 C 
BRANCH  10  36
ATOM     36  C   UNL     1      -3.942  -1.202  24.079  0.00  0.00    +0.281 C 
ATOM     37  N   UNL     1      -4.252  -1.828  24.520  0.00  0.00    -0.086 NA
ATOM     38  O   UNL     1      -3.931  -1.243  23.256  0.00  0.00    -0.270 OA
ENDBRANCH  10  36
BRANCH  10   9
ATOM      9  C   UNL     1      -4.123  -0.108  24.979  0.00  0.00    +0.033 C 
BRANCH   9   8
ATOM      8  C   UNL     1      -4.710   0.389  24.681  0.00  0.00    +0.026 C 
BRANCH   8   7
ATOM      7  C   UNL     1      -5.109   0.905  25.186  0.00  0.00    +0.115 C 
BRANCH   7   6
ATOM      4  C   UNL     1      -5.653   2.199  25.455  0.00  0.00    +0.252 C 
ATOM      5  O   UNL     1      -5.933   1.929  26.184  0.00  0.00    -0.272 OA
ATOM      6  N   UNL     1      -5.242   1.687  24.957  0.00  0.00    -0.205 NA
BRANCH   4   3
ATOM      3  C   UNL     1      -5.786   2.980  25.226  0.00  0.00    +0.144 C 
BRANCH   3   2
ATOM      1  C   UNL     1      -5.752   4.378  25.523  0.00  0.00    +0.070 C 
ATOM      2  S   UNL     1      -5.682   3.593  25.768  0.00  0.00    -0.130 S 
ENDBRANCH   3   2
ENDBRANCH   4   3
ENDBRANCH   7   6
ENDBRANCH   8   7
ENDBRANCH   9   8
ENDBRANCH  10   9
ENDBRANCH  11  10
ENDBRANCH  14  12
BRANCH  19  21
ATOM     21  C   UNL     1      -0.173  -1.722  25.032  0.00  0.00    +0.143 C 
BRANCH  21  22
ATOM     22  S   UNL     1      -0.155  -2.502  25.300  0.00  0.00    -0.130 S 
ATOM     23  C   UNL     1       0.568  -2.867  25.458  0.00  0.00    +0.070 C 
ENDBRANCH  21  22
ENDBRANCH  19  21
TORSDOF 13
ENDMDL
MODEL 6
REMARK VINA RESULT:      -6.5      2.177      5.231
REMARK  Name = 
REMARK  13 active torsions:
REMARK  status: ('A' for Active; 'I' for Inactive)
REMARK    1  A    between atoms: S_2  and  C_3
REMARK    2  A    between atoms: C_3  and  C_4
REMARK    3  A    between atoms: N_6  and  C_7
REMARK    4  A    between atoms: C_7  and  C_8
REMARK    5  A    between atoms: C_8  and  C_9
REMARK    6  A    between atoms: C_9  and  C_10
REMARK    7  A    between atoms: C_10  and  N_11
REMARK    8  A    between atoms: C_10  and  C_36
REMARK    9  A    between atoms: C_12  and  C_14
REMARK   10  A    between atoms: C_15  and  N_24
REMARK   11  A    between atoms: C_19  and  C_21
REMARK   12  A    between atoms: C_21  and  S_22
REMARK   13  A    between atoms: N_27  and  C_28
REMARK                            x       y       z     vdW  Elec       q    Type
REMARK                         _______ _______ _______ _____ _____    ______ ____
ROOT
ATOM     14  C   UNL     1      -2.084   0.470  24.771  0.00  0.00    +0.174 C 
ATOM     15  C   UNL     1      -2.766   0.932  24.726  0.00  0.00    +0.126 C 
ATOM     16  C   UNL     1      -3.405   0.432  24.581  0.00  0.00    +0.045 C 
ATOM     17  C   UNL     1      -3.119  -0.341  24.536  0.00  0.00    +0.096 C 
ATOM     18  N   UNL     1      -2.303  -0.317  24.654  0.00  0.00    -0.271 N 
ATOM     19  C   UNL     1      -1.794  -0.967  24.654  0.00  0.00    +0.237 C 
ATOM     20  O   UNL     1      -0.986  -0.858  24.780  0.00  0.00    -0.274 OA
ENDROOT
BRANCH  15  24
ATOM     24  N   UNL     1      -2.802   1.752  24.811  0.00  0.00    -0.186 NA
ATOM     25  C   UNL     1      -3.524   2.120  24.967  0.00  0.00    +0.344 C 
ATOM     26  O   UNL     1      -4.210   1.667  25.038  0.00  0.00    -0.249 OA
ATOM     27  N   UNL     1      -3.560   2.940  25.052  0.00  0.00    -0.159 NA
BRANCH  27  28
ATOM     28  C   UNL     1      -4.282   3.307  25.207  0.00  0.00    +0.102 A 
ATOM     29  C   UNL     1      -4.476   4.013  24.826  0.00  0.00    +0.158 A 
ATOM     30  F   UNL     1      -3.949   4.351  24.290  0.00  0.00    -0.203 F 
ATOM     31  C   UNL     1      -5.199   4.380  24.982  0.00  0.00    +0.061 A 
ATOM     32  C   UNL     1      -5.726   4.042  25.519  0.00  0.00    +0.142 A 
ATOM     33  F   UNL     1      -6.448   4.409  25.674  0.00  0.00    -0.204 F 
ATOM     34  C   UNL     1      -5.531   3.336  25.899  0.00  0.00    +0.031 A 
ATOM     35  C   UNL     1      -4.810   2.969  25.744  0.00  0.00    +0.021 A 
ENDBRANCH  27  28
ENDBRANCH  15  24
BRANCH  14  12
ATOM     11  N   UNL     1      -0.942   1.215  24.347  0.00  0.00    -0.196 NA
ATOM     12  C   UNL     1      -1.319   0.745  24.909  0.00  0.00    +0.262 C 
ATOM     13  O   UNL     1      -0.931   0.550  25.611  0.00  0.00    -0.271 OA
BRANCH  11  10
ATOM     10  C   UNL     1      -0.177   1.491  24.485  0.00  0.00    +0.174 C 
BRANCH  10  36
ATOM     36  C   UNL     1      -0.062   2.228  24.838  0.00  0.00    +0.281 C 
ATOM     37  N   UNL     1      -0.207   2.918  24.410  0.00  0.00    -0.086 NA
ATOM     38  O   UNL     1       0.198   2.273  25.619  0.00  0.00    -0.270 OA
ENDBRANCH  10  36
BRANCH  10   9
ATOM      9  C   UNL     1       0.473   1.032  24.269  0.00  0.00    +0.033 C 
BRANCH   9   8
ATOM      8  C   UNL     1       0.948   1.260  23.635  0.00  0.00    +0.026 C 
BRANCH   8   7
ATOM      7  C   UNL     1       1.520   0.744  23.341  0.00  0.00    +0.115 C 
BRANCH   7   6
ATOM      4  C   UNL     1       2.847   0.567  22.840  0.00  0.00    +0.252 C 
ATOM      5  O   UNL     1       2.590  -0.074  22.386  0.00  0.00    -0.272 OA
ATOM      6  N   UNL     1       2.312   0.975  23.316  0.00  0.00    -0.205 NA
BRANCH   4   3
ATOM      3  C   UNL     1       3.639   0.798  22.815  0.00  0.00    +0.144 C 
BRANCH   3   2
ATOM      1  C   UNL     1       4.988   0.464  23.145  0.00  0.00    +0.070 C 
ATOM      2  S   UNL     1       4.236   0.235  22.896  0.00  0.00    -0.130 S 
ENDBRANCH   3   2
ENDBRANCH   4   3
ENDBRANCH   7   6
ENDBRANCH   8   7
ENDBRANCH   9   8
ENDBRANCH  10   9
ENDBRANCH  11  10
ENDBRANCH  14  12
BRANCH  19  21
ATOM     21  C   UNL     1      -2.093  -1.725  24.529  0.00  0.00    +0.143 C 
BRANCH  21  22
ATOM     22  S   UNL     1      -1.577  -2.368  24.476  0.00  0.00    -0.130 S 
ATOM     23  C   UNL     1      -1.862  -3.107  24.245  0.00  0.00    +0.070 C 
ENDBRANCH  21  22
ENDBRANCH  19  21
TORSDOF 13
ENDMDL
MODEL 7
REMARK VINA RESULT:      -6.2      2.259      5.915
REMARK  Name = 
REMARK  13 active torsions:
REMARK  status: ('A' for Active; 'I' for Inactive)
REMARK    1  A    between atoms: S_2  and  C_3
REMARK    2  A    between atoms: C_3  and  C_4
REMARK    3  A    between atoms: N_6  and  C_7
REMARK    4  A    between atoms: C_7  and  C_8
REMARK    5  A    between atoms: C_8  and  C_9
REMARK    6  A    between atoms: C_9  and  C_10
REMARK    7  A    between atoms: C_10  and  N_11
REMARK    8  A    between atoms: C_10  and  C_36
REMARK    9  A    between atoms: C_12  and  C_14
REMARK   10  A    between atoms: C_15  and  N_24
REMARK   11  A    between atoms: C_19  and  C_21
REMARK   12  A    between atoms: C_21  and  S_22
REMARK   13  A    between atoms: N_27  and  C_28
REMARK                            x       y       z     vdW  Elec       q    Type
REMARK                         _______ _______ _______ _____ _____    ______ ____
ROOT
ATOM     14  C   UNL     1      -2.450   0.260  24.512  0.00  0.00    +0.174 C 
ATOM     15  C   UNL     1      -2.460   1.018  24.840  0.00  0.00    +0.126 C 
ATOM     16  C   UNL     1      -3.239   1.197  25.044  0.00  0.00    +0.045 C 
ATOM     17  C   UNL     1      -3.711   0.551  24.844  0.00  0.00    +0.096 C 
ATOM     18  N   UNL     1      -3.223  -0.028  24.515  0.00  0.00    -0.271 N 
ATOM     19  C   UNL     1      -3.466  -0.766  24.238  0.00  0.00    +0.237 C 
ATOM     20  O   UNL     1      -2.913  -1.291  23.922  0.00  0.00    -0.274 OA
ENDROOT
BRANCH  15  24
ATOM     24  N   UNL     1      -1.806   1.510  24.944  0.00  0.00    -0.186 NA
ATOM     25  C   UNL     1      -1.906   2.327  24.983  0.00  0.00    +0.344 C 
ATOM     26  O   UNL     1      -2.661   2.653  24.917  0.00  0.00    -0.249 OA
ATOM     27  N   UNL     1      -1.252   2.819  25.087  0.00  0.00    -0.159 NA
BRANCH  27  28
ATOM     28  C   UNL     1      -1.352   3.637  25.125  0.00  0.00    +0.102 A 
ATOM     29  C   UNL     1      -0.843   4.135  24.710  0.00  0.00    +0.158 A 
ATOM     30  F   UNL     1      -0.232   3.816  24.256  0.00  0.00    -0.203 F 
ATOM     31  C   UNL     1      -0.943   4.953  24.748  0.00  0.00    +0.061 A 
ATOM     32  C   UNL     1      -1.553   5.273  25.202  0.00  0.00    +0.142 A 
ATOM     33  F   UNL     1      -1.654   6.090  25.241  0.00  0.00    -0.204 F 
ATOM     34  C   UNL     1      -2.063   4.774  25.618  0.00  0.00    +0.031 A 
ATOM     35  C   UNL     1      -1.963   3.957  25.579  0.00  0.00    +0.021 A 
ENDBRANCH  27  28
ENDBRANCH  15  24
BRANCH  14  12
ATOM     11  N   UNL     1      -1.206  -0.397  24.759  0.00  0.00    -0.196 NA
ATOM     12  C   UNL     1      -1.785  -0.138  24.232  0.00  0.00    +0.262 C 
ATOM     13  O   UNL     1      -1.698  -0.278  23.424  0.00  0.00    -0.271 OA
BRANCH  11  10
ATOM     10  C   UNL     1      -0.540  -0.796  24.479  0.00  0.00    +0.174 C 
BRANCH  10  36
ATOM     36  C   UNL     1      -0.291  -1.491  24.848  0.00  0.00    +0.281 C 
ATOM     37  N   UNL     1      -0.139  -1.495  25.659  0.00  0.00    -0.086 NA
ATOM     38  O   UNL     1      -0.196  -2.180  24.406  0.00  0.00    -0.270 OA
ENDBRANCH  10  36
BRANCH  10   9
ATOM      9  C   UNL     1      -0.124  -0.501  23.832  0.00  0.00    +0.033 C 
BRANCH   9   8
ATOM      8  C   UNL     1       0.664  -0.270  23.917  0.00  0.00    +0.026 C 
BRANCH   8   7
ATOM      7  C   UNL     1       1.096  -0.027  23.259  0.00  0.00    +0.115 C 
BRANCH   7   6
ATOM      4  C   UNL     1       2.382   0.359  22.770  0.00  0.00    +0.252 C 
ATOM      5  O   UNL     1       2.249  -0.074  22.079  0.00  0.00    -0.272 OA
ATOM      6  N   UNL     1       1.806   0.382  23.359  0.00  0.00    -0.205 NA
BRANCH   4   3
ATOM      3  C   UNL     1       3.092   0.768  22.870  0.00  0.00    +0.144 C 
BRANCH   3   2
ATOM      1  C   UNL     1       4.520   0.718  22.848  0.00  0.00    +0.070 C 
ATOM      2  S   UNL     1       3.791   0.465  22.556  0.00  0.00    -0.130 S 
ENDBRANCH   3   2
ENDBRANCH   4   3
ENDBRANCH   7   6
ENDBRANCH   8   7
ENDBRANCH   9   8
ENDBRANCH  10   9
ENDBRANCH  11  10
ENDBRANCH  14  12
BRANCH  19  21
ATOM     21  C   UNL     1      -4.262  -0.980  24.276  0.00  0.00    +0.143 C 
BRANCH  21  22
ATOM     22  S   UNL     1      -4.475  -1.777  24.275  0.00  0.00    -0.130 S 
ATOM     23  C   UNL     1      -4.836  -2.107  23.610  0.00  0.00    +0.070 C 
ENDBRANCH  21  22
ENDBRANCH  19  21
TORSDOF 13
ENDMDL
MODEL 8
REMARK VINA RESULT:      -5.8      2.279      4.136
REMARK  Name = 
REMARK  13 active torsions:
REMARK  status: ('A' for Active; 'I' for Inactive)
REMARK    1  A    between atoms: S_2  and  C_3
REMARK    2  A    between atoms: C_3  and  C_4
REMARK    3  A    between atoms: N_6  and  C_7
REMARK    4  A    between atoms: C_7  and  C_8
REMARK    5  A    between atoms: C_8  and  C_9
REMARK    6  A    between atoms: C_9  and  C_10
REMARK    7  A    between atoms: C_10  and  N_11
REMARK    8  A    between atoms: C_10  and  C_36
REMARK    9  A    between atoms: C_12  and  C_14
REMARK   10  A    between atoms: C_15  and  N_24
REMARK   11  A    between atoms: C_19  and  C_21
REMARK   12  A    between atoms: C_21  and  S_22
REMARK   13  A    between atoms: N_27  and  C_28
REMARK                            x       y       z     vdW  Elec       q    Type
REMARK                         _______ _______ _______ _____ _____    ______ ____
ROOT
ATOM     14  C   UNL     1      -1.891   2.675  24.467  0.00  0.00    +0.174 C 
ATOM     15  C   UNL     1      -1.309   2.096  24.384  0.00  0.00    +0.126 C 
ATOM     16  C   UNL     1      -0.581   2.436  24.570  0.00  0.00    +0.045 C 
ATOM     17  C   UNL     1      -0.712   3.226  24.770  0.00  0.00    +0.096 C 
ATOM     18  N   UNL     1      -1.521   3.373  24.706  0.00  0.00    -0.271 N 
ATOM     19  C   UNL     1      -1.896   4.093  24.855  0.00  0.00    +0.237 C 
ATOM     20  O   UNL     1      -2.714   4.158  24.768  0.00  0.00    -0.274 OA
ENDROOT
BRANCH  15  24
ATOM     24  N   UNL     1      -1.433   1.313  24.153  0.00  0.00    -0.186 NA
ATOM     25  C   UNL     1      -1.042   0.701  24.543  0.00  0.00    +0.344 C 
ATOM     26  O   UNL     1      -0.526   0.871  25.164  0.00  0.00    -0.249 OA
ATOM     27  N   UNL     1      -1.166  -0.082  24.313  0.00  0.00    -0.159 NA
BRANCH  27  28
ATOM     28  C   UNL     1      -0.774  -0.694  24.704  0.00  0.00    +0.102 A 
ATOM     29  C   UNL     1      -0.258  -1.185  24.287  0.00  0.00    +0.158 A 
ATOM     30  F   UNL     1      -0.134  -1.063  23.481  0.00  0.00    -0.203 F 
ATOM     31  C   UNL     1       0.133  -1.797  24.678  0.00  0.00    +0.061 A 
ATOM     32  C   UNL     1       0.009  -1.919  25.484  0.00  0.00    +0.142 A 
ATOM     33  F   UNL     1       0.400  -2.531  25.874  0.00  0.00    -0.204 F 
ATOM     34  C   UNL     1      -0.508  -1.428  25.900  0.00  0.00    +0.031 A 
ATOM     35  C   UNL     1      -0.899  -0.816  25.510  0.00  0.00    +0.021 A 
ENDBRANCH  27  28
ENDBRANCH  15  24
BRANCH  14  12
ATOM     11  N   UNL     1      -3.178   2.268  24.932  0.00  0.00    -0.196 NA
ATOM     12  C   UNL     1      -2.698   2.574  24.336  0.00  0.00    +0.262 C 
ATOM     13  O   UNL     1      -3.026   2.779  23.607  0.00  0.00    -0.271 OA
BRANCH  11  10
ATOM     10  C   UNL     1      -3.986   2.166  24.801  0.00  0.00    +0.174 C 
BRANCH  10  36
ATOM     36  C   UNL     1      -4.528   2.682  25.150  0.00  0.00    +0.281 C 
ATOM     37  N   UNL     1      -4.565   2.747  25.972  0.00  0.00    -0.086 NA
ATOM     38  O   UNL     1      -5.032   3.132  24.677  0.00  0.00    -0.270 OA
ENDBRANCH  10  36
BRANCH  10   9
ATOM      9  C   UNL     1      -4.253   1.551  24.322  0.00  0.00    +0.033 C 
BRANCH   9   8
ATOM      8  C   UNL     1      -4.545   0.858  24.664  0.00  0.00    +0.026 C 
BRANCH   8   7
ATOM      7  C   UNL     1      -4.588   0.165  24.219  0.00  0.00    +0.115 C 
BRANCH   7   6
ATOM      4  C   UNL     1      -4.304  -1.233  24.137  0.00  0.00    +0.252 C 
ATOM      5  O   UNL     1      -4.213  -1.166  23.318  0.00  0.00    -0.272 OA
ATOM      6  N   UNL     1      -4.491  -0.568  24.586  0.00  0.00    -0.205 NA
BRANCH   4   3
ATOM      3  C   UNL     1      -4.208  -1.966  24.503  0.00  0.00    +0.144 C 
BRANCH   3   2
ATOM      1  C   UNL     1      -3.532  -3.225  24.515  0.00  0.00    +0.070 C 
ATOM      2  S   UNL     1      -3.846  -2.586  24.098  0.00  0.00    -0.130 S 
ENDBRANCH   3   2
ENDBRANCH   4   3
ENDBRANCH   7   6
ENDBRANCH   8   7
ENDBRANCH   9   8
ENDBRANCH  10   9
ENDBRANCH  11  10
ENDBRANCH  14  12
BRANCH  19  21
ATOM     21  C   UNL     1      -1.453   4.748  25.091  0.00  0.00    +0.143 C 
BRANCH  21  22
ATOM     22  S   UNL     1      -1.800   5.497  25.105  0.00  0.00    -0.130 S 
ATOM     23  C   UNL     1      -1.331   6.170  25.019  0.00  0.00    +0.070 C 
ENDBRANCH  21  22
ENDBRANCH  19  21
TORSDOF 13
ENDMDL
MODEL 9
REMARK VINA RESULT:      -5.8      2.352      4.750
REMARK  Name = 
REMARK  13 active torsions:
REMARK  status: ('A' for Active; 'I' for Inactive)
REMARK    1  A    between atoms: S_2  and  C_3
REMARK    2  A    between atoms: C_3  and  C_4
REMARK    3  A    between atoms: N_6  and  C_7
REMARK    4  A    between atoms: C_7  and  C_8
REMARK    5  A    between atoms: C_8  and  C_9
REMARK    6  A    between atoms: C_9  and  C_10
REMARK    7  A    between atoms: C_10  and  N_11
REMARK    8  A    between atoms: C_10  and  C_36
REMARK    9  A    between atoms: C_12  and  C_14
REMARK   10  A    between atoms: C_15  and  N_24
REMARK   11  A    between atoms: C_19  and  C_21
REMARK   12  A    between atoms: C_21  and  S_22
REMARK   13  A    between atoms: N_27  and  C_28
REMARK                            x       y       z     vdW  Elec       q    Type
REMARK                         _______ _______ _______ _____ _____    ______ ____
ROOT
ATOM     14  C   UNL     1      -0.510   1.545  24.690  0.00  0.00    +0.174 C 
ATOM     15  C   UNL     1       0.124   1.548  24.162  0.00  0.00    +0.126 C 
ATOM     16  C   UNL     1       0.331   2.333  24.015  0.00  0.00    +0.045 C 
ATOM     17  C   UNL     1      -0.175   2.817  24.452  0.00  0.00    +0.096 C 
ATOM     18  N   UNL     1      -0.694   2.330  24.869  0.00  0.00    -0.271 N 
ATOM     19  C   UNL     1      -1.293   2.583  25.376  0.00  0.00    +0.237 C 
ATOM     20  O   UNL     1      -1.772   2.030  25.758  0.00  0.00    -0.274 OA
ENDROOT
BRANCH  15  24
ATOM     24  N   UNL     1       0.488   0.882  23.838  0.00  0.00    -0.186 NA
ATOM     25  C   UNL     1       1.246   0.939  23.520  0.00  0.00    +0.344 C 
ATOM     26  O   UNL     1       1.642   1.663  23.525  0.00  0.00    -0.249 OA
ATOM     27  N   UNL     1       1.610   0.273  23.195  0.00  0.00    -0.159 NA
BRANCH  27  28
ATOM     28  C   UNL     1       2.369   0.331  22.877  0.00  0.00    +0.102 A 
ATOM     29  C   UNL     1       2.513   0.074  22.106  0.00  0.00    +0.158 A 
ATOM     30  F   UNL     1       1.898  -0.240  21.654  0.00  0.00    -0.203 F 
ATOM     31  C   UNL     1       3.272   0.132  21.787  0.00  0.00    +0.061 A 
ATOM     32  C   UNL     1       3.886   0.446  22.239  0.00  0.00    +0.142 A 
ATOM     33  F   UNL     1       4.644   0.504  21.920  0.00  0.00    -0.204 F 
ATOM     34  C   UNL     1       3.741   0.703  23.010  0.00  0.00    +0.031 A 
ATOM     35  C   UNL     1       2.983   0.645  23.329  0.00  0.00    +0.021 A 
ENDBRANCH  27  28
ENDBRANCH  15  24
BRANCH  14  12
ATOM     11  N   UNL     1      -1.354   0.412  24.489  0.00  0.00    -0.196 NA
ATOM     12  C   UNL     1      -0.891   0.878  24.987  0.00  0.00    +0.262 C 
ATOM     13  O   UNL     1      -0.809   0.676  25.783  0.00  0.00    -0.271 OA
BRANCH  11  10
ATOM     10  C   UNL     1      -1.737  -0.257  24.786  0.00  0.00    +0.174 C 
BRANCH  10  36
ATOM     36  C   UNL     1      -1.359  -0.990  24.768  0.00  0.00    +0.281 C 
ATOM     37  N   UNL     1      -1.114  -1.345  25.471  0.00  0.00    -0.086 NA
ATOM     38  O   UNL     1      -1.225  -1.366  24.047  0.00  0.00    -0.270 OA
ENDBRANCH  10  36
BRANCH  10   9
ATOM      9  C   UNL     1      -2.496  -0.193  25.101  0.00  0.00    +0.033 C 
BRANCH   9   8
ATOM      8  C   UNL     1      -3.154  -0.225  24.604  0.00  0.00    +0.026 C 
BRANCH   8   7
ATOM      7  C   UNL     1      -3.903  -0.050  24.899  0.00  0.00    +0.115 C 
BRANCH   7   6
ATOM      4  C   UNL     1      -4.929   0.923  25.111  0.00  0.00    +0.252 C 
ATOM      5  O   UNL     1      -5.201   0.494  25.762  0.00  0.00    -0.272 OA
ATOM      6  N   UNL     1      -4.280   0.651  24.680  0.00  0.00    -0.205 NA
BRANCH   4   3
ATOM      3  C   UNL     1      -5.306   1.623  24.892  0.00  0.00    +0.144 C 
BRANCH   3   2
ATOM      1  C   UNL     1      -5.746   2.900  25.359  0.00  0.00    +0.070 C 
ATOM      2  S   UNL     1      -5.685   2.084  25.461  0.00  0.00    -0.130 S 
ENDBRANCH   3   2
ENDBRANCH   4   3
ENDBRANCH   7   6
ENDBRANCH   8   7
ENDBRANCH   9   8
ENDBRANCH  10   9
ENDBRANCH  11  10
ENDBRANCH  14  12
BRANCH  19  21
ATOM     21  C   UNL     1      -1.414   3.389  25.503  0.00  0.00    +0.143 C 
BRANCH  21  22
ATOM     22  S   UNL     1      -2.104   3.649  25.874  0.00  0.00    -0.130 S 
ATOM     23  C   UNL     1      -2.336   4.438  25.805  0.00  0.00    +0.070 C 
ENDBRANCH  21  22
ENDBRANCH  19  21
TORSDOF 13
ENDMDL
MODEL 10
REMARK VINA RESULT:      -5.7      2.447      4.469
REMARK  Name = 
REMARK  13 active torsions:
REMARK  status: ('A' for Active; 'I' for Inactive)
REMARK    1  A    between atoms: S_2  and  C_3
REMARK    2  A    between atoms: C_3  and  C_4
REMARK    3  A    between atoms: N_6  and  C_7
REMARK    4  A    between atoms: C_7  and  C_8
REMARK    5  A    between atoms: C_8  and  C_9
REMARK    6  A    between atoms: C_9  and  C_10
REMARK    7  A    between atoms: C_10  and  N_11
REMARK    8  A    between atoms: C_10  and  C_36
REMARK    9  A    between atoms: C_12  and  C_14
REMARK   10  A    between atoms: C_15  and  N_24
REMARK   11  A    between atoms: C_19  and  C_21
REMARK   12  A    between atoms: C_21  and  S_22
REMARK   13  A    between atoms: N_27  and  C_28
REMARK                            x       y       z     vdW  Elec       q    Type
REMARK                         _______ _______ _______ _____ _____    ______ ____
ROOT
ATOM     14  C   UNL     1      -0.514   0.288  24.312  0.00  0.00    +0.174 C 
ATOM     15  C   UNL     1       0.105   0.142  23.787  0.00  0.00    +0.126 C 
ATOM     16  C   UNL     1       0.039  -0.638  23.526  0.00  0.00    +0.045 C 
ATOM     17  C   UNL     1      -0.621  -0.975  23.890  0.00  0.00    +0.096 C 
ATOM     18  N   UNL     1      -0.962  -0.402  24.376  0.00  0.00    -0.271 N 
ATOM     19  C   UNL     1      -1.635  -0.502  24.843  0.00  0.00    +0.237 C 
ATOM     20  O   UNL     1      -1.914   0.124  25.303  0.00  0.00    -0.274 OA
ENDROOT
BRANCH  15  24
ATOM     24  N   UNL     1       0.687   0.681  23.561  0.00  0.00    -0.186 NA
ATOM     25  C   UNL     1       1.455   0.420  23.413  0.00  0.00    +0.344 C 
ATOM     26  O   UNL     1       1.641  -0.380  23.490  0.00  0.00    -0.249 OA
ATOM     27  N   UNL     1       2.038   0.959  23.188  0.00  0.00    -0.159 NA
BRANCH  27  28
ATOM     28  C   UNL     1       2.807   0.698  23.039  0.00  0.00    +0.102 A 
ATOM     29  C   UNL     1       3.402   1.244  22.870  0.00  0.00    +0.158 A 
ATOM     30  F   UNL     1       3.229   2.050  22.850  0.00  0.00    -0.203 F 
ATOM     31  C   UNL     1       4.171   0.983  22.722  0.00  0.00    +0.061 A 
ATOM     32  C   UNL     1       4.344   0.177  22.742  0.00  0.00    +0.142 A 
ATOM     33  F   UNL     1       5.112  -0.084  22.594  0.00  0.00    -0.204 F 
ATOM     34  C   UNL     1       3.748  -0.369  22.911  0.00  0.00    +0.031 A 
ATOM     35  C   UNL     1       2.980  -0.108  23.060  0.00  0.00    +0.021 A 
ENDBRANCH  27  28
ENDBRANCH  15  24
BRANCH  14  12
ATOM     11  N   UNL     1      -0.943   1.650  24.287  0.00  0.00    -0.196 NA
ATOM     12  C   UNL     1      -0.660   0.999  24.705  0.00  0.00    +0.262 C 
ATOM     13  O   UNL     1      -0.521   1.057  25.516  0.00  0.00    -0.271 OA
BRANCH  11  10
ATOM     10  C   UNL     1      -1.089   2.361  24.680  0.00  0.00    +0.174 C 
BRANCH  10  36
ATOM     36  C   UNL     1      -0.520   2.958  24.675  0.00  0.00    +0.281 C 
ATOM     37  N   UNL     1      -0.147   3.178  25.378  0.00  0.00    -0.086 NA
ATOM     38  O   UNL     1      -0.324   3.335  23.969  0.00  0.00    -0.270 OA
ENDBRANCH  10  36
BRANCH  10   9
ATOM      9  C   UNL     1      -1.802   2.475  25.077  0.00  0.00    +0.033 C 
BRANCH   9   8
ATOM      8  C   UNL     1      -2.407   2.911  24.723  0.00  0.00    +0.026 C 
BRANCH   8   7
ATOM      7  C   UNL     1      -3.108   3.054  25.133  0.00  0.00    +0.115 C 
BRANCH   7   6
ATOM      4  C   UNL     1      -4.529   2.942  25.230  0.00  0.00    +0.252 C 
ATOM      5  O   UNL     1      -4.520   3.416  25.906  0.00  0.00    -0.272 OA
ATOM      6  N   UNL     1      -3.823   2.761  24.845  0.00  0.00    -0.205 NA
BRANCH   4   3
ATOM      3  C   UNL     1      -5.244   2.649  24.942  0.00  0.00    +0.144 C 
BRANCH   3   2
ATOM      1  C   UNL     1      -6.362   1.777  25.123  0.00  0.00    +0.070 C 
ATOM      2  S   UNL     1      -5.751   2.231  25.441  0.00  0.00    -0.130 S 
ENDBRANCH   3   2
ENDBRANCH   4   3
ENDBRANCH   7   6
ENDBRANCH   8   7
ENDBRANCH   9   8
ENDBRANCH  10   9
ENDBRANCH  11  10
ENDBRANCH  14  12
BRANCH  19  21
ATOM     21  C   UNL     1      -2.028  -1.227  24.851  0.00  0.00    +0.143 C 
BRANCH  21  22
ATOM     22  S   UNL     1      -2.763  -1.293  25.222  0.00  0.00    -0.130 S 
ATOM     23  C   UNL     1      -3.197  -1.991  25.153  0.00  0.00    +0.070 C 
ENDBRANCH  21  22
ENDBRANCH  19  21
TORSDOF 13
ENDMDL
