MODEL 1
REMARK VINA RESULT:     -12.0      0.000      0.000
REMARK  Name = 
REMARK  5 active torsions:
REMARK  status: ('A' for Active; 'I' for Inactive)
REMARK    1  A    between atoms: O_2  and  C_3
REMARK    2  A    between atoms: C_9  and  C_10
REMARK    3  A    between atoms: C_10  and  C_11
REMARK    4  A    between atoms: C_16  and  C_17
REMARK    5  A    between atoms: C_17  and  C_18
REMARK                            x       y       z     vdW  Elec       q    Type
REMARK                         _______ _______ _______ _____ _____    ______ ____
ROOT
ATOM     11  C   UNL     1      -3.755   1.305  24.809  0.00  0.00    +0.026 C 
ATOM     12  C   UNL     1      -2.979   1.548  24.676  0.00  0.00    +0.095 C 
ATOM     13  N   UNL     1      -2.759   2.329  24.826  0.00  0.00    -0.264 N 
ATOM     14  C   UNL     1      -3.317   2.867  25.108  0.00  0.00    +0.095 C 
ATOM     15  C   UNL     1      -4.093   2.625  25.241  0.00  0.00    +0.022 C 
ATOM     16  C   UNL     1      -4.313   1.844  25.092  0.00  0.00    +0.015 C 
ATOM     21  C   UNL     1      -1.981   2.572  24.693  0.00  0.00    +0.307 C 
ATOM     22  O   UNL     1      -1.424   2.033  24.410  0.00  0.00    -0.252 OA
ATOM     23  N   UNL     1      -1.762   3.352  24.843  0.00  0.00    -0.259 N 
ATOM     24  C   UNL     1      -0.985   3.595  24.710  0.00  0.00    +0.127 C 
ATOM     25  C   UNL     1      -0.765   4.376  24.859  0.00  0.00    +0.164 C 
ATOM     26  O   UNL     1      -1.323   4.914  25.142  0.00  0.00    -0.350 OA
ATOM     27  C   UNL     1      -2.100   4.672  25.275  0.00  0.00    +0.164 C 
ATOM     28  C   UNL     1      -2.319   3.891  25.125  0.00  0.00    +0.127 C 
ENDROOT
BRANCH  11  10
ATOM     10  C   UNL     1      -3.975   0.525  24.660  0.00  0.00    +0.047 C 
BRANCH  10   9
ATOM      3  C   UNL     1      -3.814  -2.408  24.185  0.00  0.00    +0.138 A 
ATOM      4  C   UNL     1      -3.343  -2.256  24.845  0.00  0.00    +0.033 A 
ATOM      5  C   UNL     1      -3.265  -1.486  25.129  0.00  0.00    -0.016 A 
ATOM      6  C   UNL     1      -3.659  -0.865  24.752  0.00  0.00    +0.009 A 
ATOM      7  C   UNL     1      -4.130  -1.017  24.093  0.00  0.00    +0.004 A 
ATOM      8  C   UNL     1      -4.208  -1.788  23.808  0.00  0.00    +0.037 A 
ATOM      9  C   UNL     1      -3.581  -0.095  25.036  0.00  0.00    +0.053 C 
ATOM     29  N   UNL     1      -3.110   0.056  25.695  0.00  0.00    -0.274 NA
ATOM     30  C   UNL     1      -2.716  -0.564  26.072  0.00  0.00    +0.130 C 
ATOM     31  C   UNL     1      -2.793  -1.334  25.789  0.00  0.00    +0.053 C 
BRANCH   3   2
ATOM      1  C   UNL     1      -4.520  -3.374  23.404  0.00  0.00    +0.252 C 
ATOM      2  O   UNL     1      -3.892  -3.178  23.902  0.00  0.00    -0.471 OA
ENDBRANCH   3   2
ENDBRANCH  10   9
ENDBRANCH  11  10
BRANCH  16  17
ATOM     17  C   UNL     1      -5.090   1.601  25.225  0.00  0.00    +0.114 C 
BRANCH  17  18
ATOM     18  C   UNL     1      -5.670   2.158  25.408  0.00  0.00    +0.365 C 
ATOM     19  O   UNL     1      -5.788   2.391  26.191  0.00  0.00    -0.246 OA
ATOM     20  O   UNL     1      -6.134   2.484  24.807  0.00  0.00    -0.246 OA
ENDBRANCH  17  18
ENDBRANCH  16  17
TORSDOF 5
ENDMDL
MODEL 2
REMARK VINA RESULT:     -10.9      1.747      5.096
REMARK  Name = 
REMARK  5 active torsions:
REMARK  status: ('A' for Active; 'I' for Inactive)
REMARK    1  A    between atoms: O_2  and  C_3
REMARK    2  A    between atoms: C_9  and  C_10
REMARK    3  A    between atoms: C_10  and  C_11
REMARK    4  A    between atoms: C_16  and  C_17
REMARK    5  A    between atoms: C_17  and  C_18
REMARK                            x       y       z     vdW  Elec       q    Type
REMARK                         _______ _______ _______ _____ _____    ______ ____
ROOT
ATOM     11  C   UNL     1      -1.787   1.648  24.984  0.00  0.00    +0.026 C 
ATOM     12  C   UNL     1      -2.253   0.971  24.928  0.00  0.00    +0.095 C 
ATOM     13  N   UNL     1      -1.897   0.227  24.887  0.00  0.00    -0.264 N 
ATOM     14  C   UNL     1      -1.075   0.163  24.903  0.00  0.00    +0.095 C 
ATOM     15  C   UNL     1      -0.609   0.840  24.960  0.00  0.00    +0.022 C 
ATOM     16  C   UNL     1      -0.964   1.583  25.001  0.00  0.00    +0.015 C 
ATOM     21  C   UNL     1      -2.363  -0.451  24.830  0.00  0.00    +0.307 C 
ATOM     22  O   UNL     1      -3.186  -0.386  24.814  0.00  0.00    -0.252 OA
ATOM     23  N   UNL     1      -2.007  -1.194  24.790  0.00  0.00    -0.259 N 
ATOM     24  C   UNL     1      -2.473  -1.872  24.733  0.00  0.00    +0.127 C 
ATOM     25  C   UNL     1      -2.117  -2.616  24.693  0.00  0.00    +0.164 C 
ATOM     26  O   UNL     1      -1.295  -2.680  24.709  0.00  0.00    -0.350 OA
ATOM     27  C   UNL     1      -0.829  -2.002  24.765  0.00  0.00    +0.164 C 
ATOM     28  C   UNL     1      -1.185  -1.259  24.806  0.00  0.00    +0.127 C 
ENDROOT
BRANCH  11  10
ATOM     10  C   UNL     1      -2.143   2.391  25.025  0.00  0.00    +0.047 C 
BRANCH  10   9
ATOM      3  C   UNL     1      -4.789   3.731  25.259  0.00  0.00    +0.138 A 
ATOM      4  C   UNL     1      -4.688   3.561  24.458  0.00  0.00    +0.033 A 
ATOM      5  C   UNL     1      -4.001   3.184  24.198  0.00  0.00    -0.016 A 
ATOM      6  C   UNL     1      -3.414   2.976  24.741  0.00  0.00    +0.009 A 
ATOM      7  C   UNL     1      -3.516   3.145  25.543  0.00  0.00    +0.004 A 
ATOM      8  C   UNL     1      -4.203   3.522  25.802  0.00  0.00    +0.037 A 
ATOM      9  C   UNL     1      -2.728   2.599  24.483  0.00  0.00    +0.053 C 
ATOM     29  N   UNL     1      -2.627   2.430  23.682  0.00  0.00    -0.274 NA
ATOM     30  C   UNL     1      -3.214   2.639  23.139  0.00  0.00    +0.130 C 
ATOM     31  C   UNL     1      -3.900   3.015  23.398  0.00  0.00    +0.053 C 
BRANCH   3   2
ATOM      1  C   UNL     1      -6.122   3.661  25.768  0.00  0.00    +0.252 C 
ATOM      2  O   UNL     1      -5.475   4.107  25.518  0.00  0.00    -0.471 OA
ENDBRANCH   3   2
ENDBRANCH  10   9
ENDBRANCH  11  10
BRANCH  16  17
ATOM     17  C   UNL     1      -0.498   2.262  25.057  0.00  0.00    +0.114 C 
BRANCH  17  18
ATOM     18  C   UNL     1       0.304   2.197  25.238  0.00  0.00    +0.365 C 
ATOM     19  O   UNL     1       0.852   2.050  24.639  0.00  0.00    -0.246 OA
ATOM     20  O   UNL     1       0.558   2.278  26.020  0.00  0.00    -0.246 OA
ENDBRANCH  17  18
ENDBRANCH  16  17
TORSDOF 5
ENDMDL
MODEL 3
REMARK VINA RESULT:     -10.6      1.024      4.946
REMARK  Name = 
REMARK  5 active torsions:
REMARK  status: ('A' for Active; 'I' for Inactive)
REMARK    1  A    between atoms: O_2  and  C_3
REMARK    2  A    between atoms: C_9  and  C_10
REMARK    3  A    between atoms: C_10  and  C_11
REMARK    4  A    between atoms: C_16  and  C_17
REMARK    5  A    between atoms: C_17  and  C_18
REMARK                            x       y       z     vdW  Elec       q    Type
REMARK                         _______ _______ _______ _____ _____    ______ ____
ROOT
ATOM     11  C   UNL     1      -3.535   1.217  24.819  0.00  0.00    +0.026 C 
ATOM     12  C   UNL     1      -3.013   0.581  24.787  0.00  0.00    +0.095 C 
ATOM     13  N   UNL     1      -3.303  -0.187  24.700  0.00  0.00    -0.264 N 
ATOM     14  C   UNL     1      -4.116  -0.317  24.646  0.00  0.00    +0.095 C 
ATOM     15  C   UNL     1      -4.638   0.320  24.679  0.00  0.00    +0.022 C 
ATOM     16  C   UNL     1      -4.349   1.087  24.765  0.00  0.00    +0.015 C 
ATOM     21  C   UNL     1      -2.780  -0.825  24.667  0.00  0.00    +0.307 C 
ATOM     22  O   UNL     1      -1.968  -0.694  24.721  0.00  0.00    -0.252 OA
ATOM     23  N   UNL     1      -3.070  -1.592  24.581  0.00  0.00    -0.259 N 
ATOM     24  C   UNL     1      -2.548  -2.229  24.548  0.00  0.00    +0.127 C 
ATOM     25  C   UNL     1      -2.838  -2.997  24.461  0.00  0.00    +0.164 C 
ATOM     26  O   UNL     1      -3.651  -3.127  24.407  0.00  0.00    -0.350 OA
ATOM     27  C   UNL     1      -4.173  -2.489  24.440  0.00  0.00    +0.164 C 
ATOM     28  C   UNL     1      -3.883  -1.722  24.527  0.00  0.00    +0.127 C 
ENDROOT
BRANCH  11  10
ATOM     10  C   UNL     1      -3.246   1.985  24.906  0.00  0.00    +0.047 C 
BRANCH  10   9
ATOM      3  C   UNL     1      -1.217   4.153  25.097  0.00  0.00    +0.138 A 
ATOM      4  C   UNL     1      -1.110   3.803  24.357  0.00  0.00    +0.033 A 
ATOM      5  C   UNL     1      -1.590   3.173  24.124  0.00  0.00    -0.016 A 
ATOM      6  C   UNL     1      -2.179   2.893  24.632  0.00  0.00    +0.009 A 
ATOM      7  C   UNL     1      -2.286   3.244  25.371  0.00  0.00    +0.004 A 
ATOM      8  C   UNL     1      -1.806   3.873  25.604  0.00  0.00    +0.037 A 
ATOM      9  C   UNL     1      -2.658   2.264  24.399  0.00  0.00    +0.053 C 
ATOM     29  N   UNL     1      -2.551   1.915  23.660  0.00  0.00    -0.274 NA
ATOM     30  C   UNL     1      -1.962   2.194  23.153  0.00  0.00    +0.130 C 
ATOM     31  C   UNL     1      -1.483   2.823  23.385  0.00  0.00    +0.053 C 
BRANCH   3   2
ATOM      1  C   UNL     1      -0.826   5.521  24.975  0.00  0.00    +0.252 C 
ATOM      2  O   UNL     1      -0.738   4.782  25.329  0.00  0.00    -0.471 OA
ENDBRANCH   3   2
ENDBRANCH  10   9
ENDBRANCH  11  10
BRANCH  16  17
ATOM     17  C   UNL     1      -4.872   1.725  24.798  0.00  0.00    +0.114 C 
BRANCH  17  18
ATOM     18  C   UNL     1      -5.634   1.618  25.094  0.00  0.00    +0.365 C 
ATOM     19  O   UNL     1      -5.766   1.624  25.908  0.00  0.00    -0.246 OA
ATOM     20  O   UNL     1      -6.266   1.504  24.574  0.00  0.00    -0.246 OA
ENDBRANCH  17  18
ENDBRANCH  16  17
TORSDOF 5
ENDMDL
MODEL 4
REMARK VINA RESULT:     -10.4      2.170      3.877
REMARK  Name = 
REMARK  5 active torsions:
REMARK  status: ('A' for Active; 'I' for Inactive)
REMARK    1  A    between atoms: O_2  and  C_3
REMARK    2  A    between atoms: C_9  and  C_10
REMARK    3  A    between atoms: C_10  and  C_11
REMARK    4  A    between atoms: C_16  and  C_17
REMARK    5  A    between atoms: C_17  and  C_18
REMARK                            x       y       z     vdW  Elec       q    Type
REMARK                         _______ _______ _______ _____ _____    ______ ____
ROOT
ATOM     11  C   UNL     1      -1.904   2.386  24.894  0.00  0.00    +0.026 C 
ATOM     12  C   UNL     1      -2.595   1.957  24.760  0.00  0.00    +0.095 C 
ATOM     13  N   UNL     1      -3.328   2.285  24.955  0.00  0.00    -0.264 N 
ATOM     14  C   UNL     1      -3.367   3.040  25.283  0.00  0.00    +0.095 C 
ATOM     15  C   UNL     1      -2.676   3.468  25.417  0.00  0.00    +0.022 C 
ATOM     16  C   UNL     1      -1.944   3.142  25.223  0.00  0.00    +0.015 C 
ATOM     21  C   UNL     1      -4.020   1.856  24.821  0.00  0.00    +0.307 C 
ATOM     22  O   UNL     1      -3.979   1.100  24.492  0.00  0.00    -0.252 OA
ATOM     23  N   UNL     1      -4.751   2.183  25.015  0.00  0.00    -0.259 N 
ATOM     24  C   UNL     1      -5.443   1.754  24.881  0.00  0.00    +0.127 C 
ATOM     25  C   UNL     1      -6.176   2.081  25.076  0.00  0.00    +0.164 C 
ATOM     26  O   UNL     1      -6.215   2.836  25.405  0.00  0.00    -0.350 OA
ATOM     27  C   UNL     1      -5.523   3.265  25.538  0.00  0.00    +0.164 C 
ATOM     28  C   UNL     1      -4.792   2.938  25.344  0.00  0.00    +0.127 C 
ENDROOT
BRANCH  11  10
ATOM     10  C   UNL     1      -1.171   2.059  24.699  0.00  0.00    +0.047 C 
BRANCH  10   9
ATOM      3  C   UNL     1       0.426  -0.076  23.379  0.00  0.00    +0.138 A 
ATOM      4  C   UNL     1       0.110  -0.415  24.062  0.00  0.00    +0.033 A 
ATOM      5  C   UNL     1      -0.369   0.034  24.563  0.00  0.00    -0.016 A 
ATOM      6  C   UNL     1      -0.531   0.823  24.381  0.00  0.00    +0.009 A 
ATOM      7  C   UNL     1      -0.215   1.162  23.698  0.00  0.00    +0.004 A 
ATOM      8  C   UNL     1       0.263   0.713  23.197  0.00  0.00    +0.037 A 
ATOM      9  C   UNL     1      -1.009   1.271  24.881  0.00  0.00    +0.053 C 
ATOM     29  N   UNL     1      -1.324   0.933  25.564  0.00  0.00    -0.274 NA
ATOM     30  C   UNL     1      -1.162   0.144  25.746  0.00  0.00    +0.130 C 
ATOM     31  C   UNL     1      -0.684  -0.305  25.245  0.00  0.00    +0.053 C 
BRANCH   3   2
ATOM      1  C   UNL     1       1.567  -0.184  22.528  0.00  0.00    +0.252 C 
ATOM      2  O   UNL     1       0.903  -0.524  22.879  0.00  0.00    -0.471 OA
ENDBRANCH   3   2
ENDBRANCH  10   9
ENDBRANCH  11  10
BRANCH  16  17
ATOM     17  C   UNL     1      -1.252   3.571  25.357  0.00  0.00    +0.114 C 
BRANCH  17  18
ATOM     18  C   UNL     1      -1.243   4.387  25.238  0.00  0.00    +0.365 C 
ATOM     19  O   UNL     1      -1.681   4.881  25.733  0.00  0.00    -0.246 OA
ATOM     20  O   UNL     1      -0.795   4.710  24.624  0.00  0.00    -0.246 OA
ENDBRANCH  17  18
ENDBRANCH  16  17
TORSDOF 5
ENDMDL
MODEL 5
REMARK VINA RESULT:     -10.2      1.560      2.726
REMARK  Name = 
REMARK  5 active torsions:
REMARK  status: ('A' for Active; 'I' for Inactive)
REMARK    1  A    between atoms: O_2  and  C_3
REMARK    2  A    between atoms: C_9  and  C_10
REMARK    3  A    between atoms: C_10  and  C_11
REMARK    4  A    between atoms: C_16  and  C_17
REMARK    5  A    between atoms: C_17  and  C_18
REMARK                            x       y       z     vdW  Elec       q    Type
REMARK                         _______ _______ _______ _____ _____    ______ ____
ROOT
ATOM     11  C   UNL     1      -3.542   0.963  24.019  0.00  0.00    +0.026 C 
ATOM     12  C   UNL     1      -4.160   1.104  24.545  0.00  0.00    +0.095 C 
ATOM     13  N   UNL     1      -4.404   1.878  24.699  0.00  0.00    -0.264 N 
ATOM     14  C   UNL     1      -4.029   2.510  24.325  0.00  0.00    +0.095 C 
ATOM     15  C   UNL     1      -3.411   2.369  23.798  0.00  0.00    +0.022 C 
ATOM     16  C   UNL     1      -3.167   1.596  23.644  0.00  0.00    +0.015 C 
ATOM     21  C   UNL     1      -5.023   2.018  25.226  0.00  0.00    +0.307 C 
ATOM     22  O   UNL     1      -5.398   1.385  25.600  0.00  0.00    -0.252 OA
ATOM     23  N   UNL     1      -5.266   2.791  25.379  0.00  0.00    -0.259 N 
ATOM     24  C   UNL     1      -5.885   2.932  25.907  0.00  0.00    +0.127 C 
ATOM     25  C   UNL     1      -6.129   3.705  26.060  0.00  0.00    +0.164 C 
ATOM     26  O   UNL     1      -5.753   4.337  25.686  0.00  0.00    -0.350 OA
ATOM     27  C   UNL     1      -5.134   4.197  25.159  0.00  0.00    +0.164 C 
ATOM     28  C   UNL     1      -4.891   3.424  25.006  0.00  0.00    +0.127 C 
ENDROOT
BRANCH  11  10
ATOM     10  C   UNL     1      -3.299   0.191  23.865  0.00  0.00    +0.047 C 
BRANCH  10   9
ATOM      3  C   UNL     1      -3.728  -2.685  24.496  0.00  0.00    +0.138 A 
ATOM      4  C   UNL     1      -3.272  -2.380  25.113  0.00  0.00    +0.033 A 
ATOM      5  C   UNL     1      -3.051  -1.585  25.110  0.00  0.00    -0.016 A 
ATOM      6  C   UNL     1      -3.285  -1.094  24.488  0.00  0.00    +0.009 A 
ATOM      7  C   UNL     1      -3.741  -1.399  23.871  0.00  0.00    +0.004 A 
ATOM      8  C   UNL     1      -3.962  -2.194  23.874  0.00  0.00    +0.037 A 
ATOM      9  C   UNL     1      -3.064  -0.300  24.485  0.00  0.00    +0.053 C 
ATOM     29  N   UNL     1      -2.610   0.004  25.102  0.00  0.00    -0.274 NA
ATOM     30  C   UNL     1      -2.375  -0.487  25.723  0.00  0.00    +0.130 C 
ATOM     31  C   UNL     1      -2.596  -1.281  25.726  0.00  0.00    +0.053 C 
BRANCH   3   2
ATOM      1  C   UNL     1      -3.944  -3.912  23.797  0.00  0.00    +0.252 C 
ATOM      2  O   UNL     1      -3.949  -3.479  24.499  0.00  0.00    -0.471 OA
ENDBRANCH   3   2
ENDBRANCH  10   9
ENDBRANCH  11  10
BRANCH  16  17
ATOM     17  C   UNL     1      -2.548   1.456  23.117  0.00  0.00    +0.114 C 
BRANCH  17  18
ATOM     18  C   UNL     1      -2.249   2.072  22.658  0.00  0.00    +0.365 C 
ATOM     19  O   UNL     1      -1.648   2.554  22.954  0.00  0.00    -0.246 OA
ATOM     20  O   UNL     1      -2.552   2.208  21.902  0.00  0.00    -0.246 OA
ENDBRANCH  17  18
ENDBRANCH  16  17
TORSDOF 5
ENDMDL
MODEL 6
REMARK VINA RESULT:     -10.1      2.187      5.827
REMARK  Name = 
REMARK  5 active torsions:
REMARK  status: ('A' for Active; 'I' for Inactive)
REMARK    1  A    between atoms: O_2  and  C_3
REMARK    2  A    between atoms: C_9  and  C_10
REMARK    3  A    between atoms: C_10  and  C_11
REMARK    4  A    between atoms: C_16  and  C_17
REMARK    5  A    between atoms: C_17  and  C_18
REMARK                            x       y       z     vdW  Elec       q    Type
REMARK                         _______ _______ _______ _____ _____    ______ ____
ROOT
ATOM     11  C   UNL     1      -0.678   0.785  24.213  0.00  0.00    +0.026 C 
ATOM     12  C   UNL     1      -1.396   0.561  24.551  0.00  0.00    +0.095 C 
ATOM     13  N   UNL     1      -1.628  -0.231  24.541  0.00  0.00    -0.264 N 
ATOM     14  C   UNL     1      -1.141  -0.798  24.192  0.00  0.00    +0.095 C 
ATOM     15  C   UNL     1      -0.423  -0.575  23.854  0.00  0.00    +0.022 C 
ATOM     16  C   UNL     1      -0.191   0.216  23.864  0.00  0.00    +0.015 C 
ATOM     21  C   UNL     1      -2.346  -0.455  24.879  0.00  0.00    +0.307 C 
ATOM     22  O   UNL     1      -2.833   0.113  25.227  0.00  0.00    -0.252 OA
ATOM     23  N   UNL     1      -2.578  -1.246  24.868  0.00  0.00    -0.259 N 
ATOM     24  C   UNL     1      -3.296  -1.470  25.206  0.00  0.00    +0.127 C 
ATOM     25  C   UNL     1      -3.529  -2.262  25.196  0.00  0.00    +0.164 C 
ATOM     26  O   UNL     1      -3.042  -2.830  24.847  0.00  0.00    -0.350 OA
ATOM     27  C   UNL     1      -2.323  -2.606  24.509  0.00  0.00    +0.164 C 
ATOM     28  C   UNL     1      -2.092  -1.815  24.520  0.00  0.00    +0.127 C 
ENDROOT
BRANCH  11  10
ATOM     10  C   UNL     1      -0.446   1.576  24.223  0.00  0.00    +0.047 C 
BRANCH  10   9
ATOM      3  C   UNL     1      -0.948   4.398  25.022  0.00  0.00    +0.138 A 
ATOM      4  C   UNL     1      -0.722   4.001  25.710  0.00  0.00    +0.033 A 
ATOM      5  C   UNL     1      -0.540   3.197  25.683  0.00  0.00    -0.016 A 
ATOM      6  C   UNL     1      -0.584   2.788  24.966  0.00  0.00    +0.009 A 
ATOM      7  C   UNL     1      -0.810   3.184  24.279  0.00  0.00    +0.004 A 
ATOM      8  C   UNL     1      -0.992   3.989  24.306  0.00  0.00    +0.037 A 
ATOM      9  C   UNL     1      -0.402   1.985  24.939  0.00  0.00    +0.053 C 
ATOM     29  N   UNL     1      -0.176   1.589  25.626  0.00  0.00    -0.274 NA
ATOM     30  C   UNL     1      -0.131   1.998  26.342  0.00  0.00    +0.130 C 
ATOM     31  C   UNL     1      -0.313   2.801  26.370  0.00  0.00    +0.053 C 
BRANCH   3   2
ATOM      1  C   UNL     1      -1.917   5.445  25.086  0.00  0.00    +0.252 C 
ATOM      2  O   UNL     1      -1.130   5.201  25.050  0.00  0.00    -0.471 OA
ENDBRANCH   3   2
ENDBRANCH  10   9
ENDBRANCH  11  10
BRANCH  16  17
ATOM     17  C   UNL     1       0.527   0.440  23.526  0.00  0.00    +0.114 C 
BRANCH  17  18
ATOM     18  C   UNL     1       0.947  -0.094  23.059  0.00  0.00    +0.365 C 
ATOM     19  O   UNL     1       0.779  -0.159  22.254  0.00  0.00    -0.246 OA
ATOM     20  O   UNL     1       1.536  -0.564  23.397  0.00  0.00    -0.246 OA
ENDBRANCH  17  18
ENDBRANCH  16  17
TORSDOF 5
ENDMDL
MODEL 7
REMARK VINA RESULT:     -10.0      2.119      3.955
REMARK  Name = 
REMARK  5 active torsions:
REMARK  status: ('A' for Active; 'I' for Inactive)
REMARK    1  A    between atoms: O_2  and  C_3
REMARK    2  A    between atoms: C_9  and  C_10
REMARK    3  A    between atoms: C_10  and  C_11
REMARK    4  A    between atoms: C_16  and  C_17
REMARK    5  A    between atoms: C_17  and  C_18
REMARK                            x       y       z     vdW  Elec       q    Type
REMARK                         _______ _______ _______ _____ _____    ______ ____
ROOT
ATOM     11  C   UNL     1      -2.714   0.419  24.641  0.00  0.00    +0.026 C 
ATOM     12  C   UNL     1      -2.944   1.210  24.647  0.00  0.00    +0.095 C 
ATOM     13  N   UNL     1      -3.706   1.417  24.890  0.00  0.00    -0.264 N 
ATOM     14  C   UNL     1      -4.236   0.831  25.126  0.00  0.00    +0.095 C 
ATOM     15  C   UNL     1      -4.006   0.040  25.119  0.00  0.00    +0.022 C 
ATOM     16  C   UNL     1      -3.246  -0.168  24.877  0.00  0.00    +0.015 C 
ATOM     21  C   UNL     1      -3.936   2.209  24.896  0.00  0.00    +0.307 C 
ATOM     22  O   UNL     1      -3.405   2.794  24.660  0.00  0.00    -0.252 OA
ATOM     23  N   UNL     1      -4.697   2.415  25.138  0.00  0.00    -0.259 N 
ATOM     24  C   UNL     1      -4.927   3.207  25.145  0.00  0.00    +0.127 C 
ATOM     25  C   UNL     1      -5.689   3.414  25.387  0.00  0.00    +0.164 C 
ATOM     26  O   UNL     1      -6.219   2.828  25.623  0.00  0.00    -0.350 OA
ATOM     27  C   UNL     1      -5.989   2.036  25.617  0.00  0.00    +0.164 C 
ATOM     28  C   UNL     1      -5.228   1.830  25.375  0.00  0.00    +0.127 C 
ENDROOT
BRANCH  11  10
ATOM     10  C   UNL     1      -1.954   0.212  24.399  0.00  0.00    +0.047 C 
BRANCH  10   9
ATOM      3  C   UNL     1       0.819   0.626  23.402  0.00  0.00    +0.138 A 
ATOM      4  C   UNL     1       0.763   1.049  24.108  0.00  0.00    +0.033 A 
ATOM      5  C   UNL     1       0.057   1.052  24.535  0.00  0.00    -0.016 A 
ATOM      6  C   UNL     1      -0.596   0.630  24.254  0.00  0.00    +0.009 A 
ATOM      7  C   UNL     1      -0.540   0.207  23.548  0.00  0.00    +0.004 A 
ATOM      8  C   UNL     1       0.167   0.204  23.121  0.00  0.00    +0.037 A 
ATOM      9  C   UNL     1      -1.302   0.633  24.679  0.00  0.00    +0.053 C 
ATOM     29  N   UNL     1      -1.357   1.056  25.385  0.00  0.00    -0.274 NA
ATOM     30  C   UNL     1      -0.705   1.477  25.665  0.00  0.00    +0.130 C 
ATOM     31  C   UNL     1       0.002   1.475  25.240  0.00  0.00    +0.053 C 
BRANCH   3   2
ATOM      1  C   UNL     1       1.756  -0.052  22.564  0.00  0.00    +0.252 C 
ATOM      2  O   UNL     1       1.525   0.623  22.977  0.00  0.00    -0.471 OA
ENDBRANCH   3   2
ENDBRANCH  10   9
ENDBRANCH  11  10
BRANCH  16  17
ATOM     17  C   UNL     1      -3.015  -0.960  24.871  0.00  0.00    +0.114 C 
BRANCH  17  18
ATOM     18  C   UNL     1      -3.566  -1.550  25.037  0.00  0.00    +0.365 C 
ATOM     19  O   UNL     1      -4.023  -1.872  24.430  0.00  0.00    -0.246 OA
ATOM     20  O   UNL     1      -3.661  -1.820  25.812  0.00  0.00    -0.246 OA
ENDBRANCH  17  18
ENDBRANCH  16  17
TORSDOF 5
ENDMDL
MODEL 8
REMARK VINA RESULT:      -9.9      1.540      2.952
REMARK  Name = 
REMARK  5 active torsions:
REMARK  status: ('A' for Active; 'I' for Inactive)
REMARK    1  A    between atoms: O_2  and  C_3
REMARK    2  A    between atoms: C_9  and  C_10
REMARK    3  A    between atoms: C_10  and  C_11
REMARK    4  A    between atoms: C_16  and  C_17
REMARK    5  A    between atoms: C_17  and  C_18
REMARK                            x       y       z     vdW  Elec       q    Type
REMARK                         _______ _______ _______ _____ _____    ______ ____
ROOT
ATOM     11  C   UNL     1      -1.431   1.118  24.758  0.00  0.00    +0.026 C 
ATOM     12  C   UNL     1      -1.861   1.762  25.040  0.00  0.00    +0.095 C 
ATOM     13  N   UNL     1      -1.558   2.526  24.961  0.00  0.00    -0.264 N 
ATOM     14  C   UNL     1      -0.826   2.644  24.601  0.00  0.00    +0.095 C 
ATOM     15  C   UNL     1      -0.396   2.000  24.319  0.00  0.00    +0.022 C 
ATOM     16  C   UNL     1      -0.698   1.237  24.397  0.00  0.00    +0.015 C 
ATOM     21  C   UNL     1      -1.989   3.171  25.244  0.00  0.00    +0.307 C 
ATOM     22  O   UNL     1      -2.721   3.051  25.604  0.00  0.00    -0.252 OA
ATOM     23  N   UNL     1      -1.686   3.934  25.165  0.00  0.00    -0.259 N 
ATOM     24  C   UNL     1      -2.117   4.579  25.448  0.00  0.00    +0.127 C 
ATOM     25  C   UNL     1      -1.814   5.343  25.370  0.00  0.00    +0.164 C 
ATOM     26  O   UNL     1      -1.082   5.461  25.009  0.00  0.00    -0.350 OA
ATOM     27  C   UNL     1      -0.652   4.816  24.727  0.00  0.00    +0.164 C 
ATOM     28  C   UNL     1      -0.954   4.053  24.805  0.00  0.00    +0.127 C 
ENDROOT
BRANCH  11  10
ATOM     10  C   UNL     1      -1.732   0.354  24.836  0.00  0.00    +0.047 C 
BRANCH  10   9
ATOM      3  C   UNL     1      -3.464  -2.064  24.925  0.00  0.00    +0.138 A 
ATOM      4  C   UNL     1      -3.870  -1.507  24.471  0.00  0.00    +0.033 A 
ATOM      5  C   UNL     1      -3.540  -0.764  24.335  0.00  0.00    -0.016 A 
ATOM      6  C   UNL     1      -2.801  -0.576  24.653  0.00  0.00    +0.009 A 
ATOM      7  C   UNL     1      -2.395  -1.133  25.107  0.00  0.00    +0.004 A 
ATOM      8  C   UNL     1      -2.725  -1.876  25.244  0.00  0.00    +0.037 A 
ATOM      9  C   UNL     1      -2.470   0.167  24.518  0.00  0.00    +0.053 C 
ATOM     29  N   UNL     1      -2.877   0.722  24.064  0.00  0.00    -0.274 NA
ATOM     30  C   UNL     1      -3.615   0.535  23.746  0.00  0.00    +0.130 C 
ATOM     31  C   UNL     1      -3.946  -0.208  23.882  0.00  0.00    +0.053 C 
BRANCH   3   2
ATOM      1  C   UNL     1      -3.513  -3.465  24.653  0.00  0.00    +0.252 C 
ATOM      2  O   UNL     1      -3.795  -2.807  25.061  0.00  0.00    -0.471 OA
ENDBRANCH   3   2
ENDBRANCH  10   9
ENDBRANCH  11  10
BRANCH  16  17
ATOM     17  C   UNL     1      -0.268   0.592  24.114  0.00  0.00    +0.114 C 
BRANCH  17  18
ATOM     18  C   UNL     1       0.400   0.715  23.647  0.00  0.00    +0.365 C 
ATOM     19  O   UNL     1       1.093   1.010  23.985  0.00  0.00    -0.246 OA
ATOM     20  O   UNL     1       0.377   0.543  22.839  0.00  0.00    -0.246 OA
ENDBRANCH  17  18
ENDBRANCH  16  17
TORSDOF 5
ENDMDL
MODEL 9
REMARK VINA RESULT:      -9.9      2.720      3.850
REMARK  Name = 
REMARK  5 active torsions:
REMARK  status: ('A' for Active; 'I' for Inactive)
REMARK    1  A    between atoms: O_2  and  C_3
REMARK    2  A    between atoms: C_9  and  C_10
REMARK    3  A    between atoms: C_10  and  C_11
REMARK    4  A    between atoms: C_16  and  C_17
REMARK    5  A    between atoms: C_17  and  C_18
REMARK                            x       y       z     vdW  Elec       q    Type
REMARK                         _______ _______ _______ _____ _____    ______ ____
ROOT
ATOM     11  C   UNL     1      -0.921   0.922  24.862  0.00  0.00    +0.026 C 
ATOM     12  C   UNL     1      -0.574   0.422  24.306  0.00  0.00    +0.095 C 
ATOM     13  N   UNL     1       0.173   0.598  24.003  0.00  0.00    -0.264 N 
ATOM     14  C   UNL     1       0.572   1.275  24.256  0.00  0.00    +0.095 C 
ATOM     15  C   UNL     1       0.224   1.774  24.811  0.00  0.00    +0.022 C 
ATOM     16  C   UNL     1      -0.522   1.599  25.115  0.00  0.00    +0.015 C 
ATOM     21  C   UNL     1       0.521   0.098  23.447  0.00  0.00    +0.307 C 
ATOM     22  O   UNL     1       0.122  -0.579  23.194  0.00  0.00    -0.252 OA
ATOM     23  N   UNL     1       1.268   0.274  23.144  0.00  0.00    -0.259 N 
ATOM     24  C   UNL     1       1.615  -0.227  22.588  0.00  0.00    +0.127 C 
ATOM     25  C   UNL     1       2.363  -0.051  22.284  0.00  0.00    +0.164 C 
ATOM     26  O   UNL     1       2.761   0.626  22.537  0.00  0.00    -0.350 OA
ATOM     27  C   UNL     1       2.413   1.126  23.093  0.00  0.00    +0.164 C 
ATOM     28  C   UNL     1       1.667   0.950  23.396  0.00  0.00    +0.127 C 
ENDROOT
BRANCH  11  10
ATOM     10  C   UNL     1      -1.668   0.747  25.165  0.00  0.00    +0.047 C 
BRANCH  10   9
ATOM      3  C   UNL     1      -3.623  -1.476  24.866  0.00  0.00    +0.138 A 
ATOM      4  C   UNL     1      -3.813  -0.923  24.283  0.00  0.00    +0.033 A 
ATOM      5  C   UNL     1      -3.372  -0.230  24.212  0.00  0.00    -0.016 A 
ATOM      6  C   UNL     1      -2.740  -0.088  24.724  0.00  0.00    +0.009 A 
ATOM      7  C   UNL     1      -2.550  -0.641  25.307  0.00  0.00    +0.004 A 
ATOM      8  C   UNL     1      -2.991  -1.334  25.379  0.00  0.00    +0.037 A 
ATOM      9  C   UNL     1      -2.299   0.605  24.653  0.00  0.00    +0.053 C 
ATOM     29  N   UNL     1      -2.489   1.157  24.071  0.00  0.00    -0.274 NA
ATOM     30  C   UNL     1      -3.121   1.015  23.558  0.00  0.00    +0.130 C 
ATOM     31  C   UNL     1      -3.562   0.322  23.629  0.00  0.00    +0.053 C 
BRANCH   3   2
ATOM      1  C   UNL     1      -3.718  -2.897  24.766  0.00  0.00    +0.252 C 
ATOM      2  O   UNL     1      -4.064  -2.169  24.937  0.00  0.00    -0.471 OA
ENDBRANCH   3   2
ENDBRANCH  10   9
ENDBRANCH  11  10
BRANCH  16  17
ATOM     17  C   UNL     1      -0.870   2.099  25.671  0.00  0.00    +0.114 C 
BRANCH  17  18
ATOM     18  C   UNL     1      -0.431   2.712  26.006  0.00  0.00    +0.365 C 
ATOM     19  O   UNL     1       0.048   2.566  26.662  0.00  0.00    -0.246 OA
ATOM     20  O   UNL     1      -0.471   3.472  25.684  0.00  0.00    -0.246 OA
ENDBRANCH  17  18
ENDBRANCH  16  17
TORSDOF 5
ENDMDL
MODEL 10
REMARK VINA RESULT:      -9.7      1.992      4.393
REMARK  Name = 
REMARK  5 active torsions:
REMARK  status: ('A' for Active; 'I' for Inactive)
REMARK    1  A    between atoms: O_2  and  C_3
REMARK    2  A    between atoms: C_9  and  C_10
REMARK    3  A    between atoms: C_10  and  C_11
REMARK    4  A    between atoms: C_16  and  C_17
REMARK    5  A    between atoms: C_17  and  C_18
REMARK                            x       y       z     vdW  Elec       q    Type
REMARK                         _______ _______ _______ _____ _____    ______ ____
ROOT
ATOM     11  C   UNL     1      -3.082   0.614  24.548  0.00  0.00    +0.026 C 
ATOM     12  C   UNL     1      -2.353   0.975  24.419  0.00  0.00    +0.095 C 
ATOM     13  N   UNL     1      -1.690   0.516  24.244  0.00  0.00    -0.264 N 
ATOM     14  C   UNL     1      -1.758  -0.305  24.199  0.00  0.00    +0.095 C 
ATOM     15  C   UNL     1      -2.487  -0.666  24.328  0.00  0.00    +0.022 C 
ATOM     16  C   UNL     1      -3.150  -0.207  24.503  0.00  0.00    +0.015 C 
ATOM     21  C   UNL     1      -0.960   0.878  24.115  0.00  0.00    +0.307 C 
ATOM     22  O   UNL     1      -0.893   1.699  24.160  0.00  0.00    -0.252 OA
ATOM     23  N   UNL     1      -0.298   0.418  23.940  0.00  0.00    -0.259 N 
ATOM     24  C   UNL     1       0.432   0.780  23.810  0.00  0.00    +0.127 C 
ATOM     25  C   UNL     1       1.096   0.321  23.635  0.00  0.00    +0.164 C 
ATOM     26  O   UNL     1       1.028  -0.500  23.590  0.00  0.00    -0.350 OA
ATOM     27  C   UNL     1       0.298  -0.862  23.720  0.00  0.00    +0.164 C 
ATOM     28  C   UNL     1      -0.364  -0.403  23.895  0.00  0.00    +0.127 C 
ENDROOT
BRANCH  11  10
ATOM     10  C   UNL     1      -3.745   1.073  24.723  0.00  0.00    +0.047 C 
BRANCH  10   9
ATOM      3  C   UNL     1      -5.030   3.654  25.457  0.00  0.00    +0.138 A 
ATOM      4  C   UNL     1      -4.774   3.739  24.677  0.00  0.00    +0.033 A 
ATOM      5  C   UNL     1      -4.388   3.115  24.298  0.00  0.00    -0.016 A 
ATOM      6  C   UNL     1      -4.259   2.405  24.700  0.00  0.00    +0.009 A 
ATOM      7  C   UNL     1      -4.515   2.321  25.480  0.00  0.00    +0.004 A 
ATOM      8  C   UNL     1      -4.901   2.944  25.859  0.00  0.00    +0.037 A 
ATOM      9  C   UNL     1      -3.874   1.782  24.322  0.00  0.00    +0.053 C 
ATOM     29  N   UNL     1      -3.619   1.867  23.543  0.00  0.00    -0.274 NA
ATOM     30  C   UNL     1      -3.748   2.577  23.141  0.00  0.00    +0.130 C 
ATOM     31  C   UNL     1      -4.133   3.200  23.519  0.00  0.00    +0.053 C 
BRANCH   3   2
ATOM      1  C   UNL     1      -6.236   4.338  25.799  0.00  0.00    +0.252 C 
ATOM      2  O   UNL     1      -5.415   4.278  25.835  0.00  0.00    -0.471 OA
ENDBRANCH   3   2
ENDBRANCH  10   9
ENDBRANCH  11  10
BRANCH  16  17
ATOM     17  C   UNL     1      -3.880  -0.569  24.633  0.00  0.00    +0.114 C 
BRANCH  17  18
ATOM     18  C   UNL     1      -3.949  -1.389  24.580  0.00  0.00    +0.365 C 
ATOM     19  O   UNL     1      -3.783  -1.861  25.237  0.00  0.00    -0.246 OA
ATOM     20  O   UNL     1      -4.183  -1.739  23.870  0.00  0.00    -0.246 OA
ENDBRANCH  17  18
ENDBRANCH  16  17
TORSDOF 5
ENDMDL
