MODEL 1
REMARK VINA RESULT:     -10.9      0.000      0.000
REMARK  Name = 
REMARK  6 active torsions:
REMARK  status: ('A' for Active; 'I' for Inactive)
REMARK    1  A    between atoms: C_2  and  C_4
REMARK    2  A    between atoms: C_7  and  C_8
REMARK    3  A    between atoms: C_8  and  N_9
REMARK    4  A    between atoms: C_13  and  C_14
REMARK    5  A    between atoms: C_16  and  C_19
REMARK    6  A    between atoms: C_22  and  N_25
REMARK                            x       y       z     vdW  Elec       q    Type
REMARK                         _______ _______ _______ _____ _____    ______ ____
ROOT
ATOM     14  C   UNL     1      -5.158   2.090  25.424  0.00  0.00    +0.251 A 
ATOM     15  N   UNL     1      -4.560   1.584  25.164  0.00  0.00    -0.190 NA
ATOM     16  C   UNL     1      -4.813   0.808  25.281  0.00  0.00    +0.205 A 
ATOM     17  N   UNL     1      -5.568   0.834  25.612  0.00  0.00    -0.056 NA
ATOM     18  O   UNL     1      -5.780   1.625  25.701  0.00  0.00    -0.336 OA
ENDROOT
BRANCH  16  19
ATOM     19  C   UNL     1      -4.387   0.125  25.098  0.00  0.00    +0.058 A 
ATOM     20  C   UNL     1      -4.347  -0.139  24.317  0.00  0.00    +0.008 A 
ATOM     21  C   UNL     1      -3.921  -0.821  24.134  0.00  0.00    +0.034 A 
ATOM     22  C   UNL     1      -3.534  -1.239  24.731  0.00  0.00    +0.132 A 
ATOM     23  N   UNL     1      -3.574  -0.974  25.512  0.00  0.00    -0.229 NA
ATOM     24  C   UNL     1      -4.000  -0.292  25.695  0.00  0.00    +0.103 A 
BRANCH  22  25
ATOM     25  N   UNL     1      -3.108  -1.921  24.548  0.00  0.00    -0.288 N 
ATOM     26  C   UNL     1      -3.504  -2.635  24.428  0.00  0.00    +0.124 C 
ATOM     27  C   UNL     1      -3.077  -3.317  24.245  0.00  0.00    +0.164 C 
ATOM     28  O   UNL     1      -2.255  -3.285  24.182  0.00  0.00    -0.350 OA
ATOM     29  C   UNL     1      -1.859  -2.572  24.302  0.00  0.00    +0.164 C 
ATOM     30  C   UNL     1      -2.286  -1.889  24.485  0.00  0.00    +0.124 C 
ENDBRANCH  22  25
ENDBRANCH  16  19
BRANCH  14  13
ATOM      9  N   UNL     1      -4.467   3.383  25.516  0.00  0.00    -0.263 NA
ATOM     10  C   UNL     1      -4.697   4.173  25.457  0.00  0.00    +0.073 C 
ATOM     11  C   UNL     1      -5.509   4.192  25.314  0.00  0.00    +0.019 C 
ATOM     12  C   UNL     1      -5.781   3.414  25.284  0.00  0.00    +0.027 C 
ATOM     13  C   UNL     1      -5.136   2.914  25.409  0.00  0.00    +0.138 C 
BRANCH   9   8
ATOM      8  C   UNL     1      -3.702   3.110  25.656  0.00  0.00    +0.099 C 
BRANCH   8   7
ATOM      4  C   UNL     1      -1.759   4.563  25.161  0.00  0.00    +0.080 A 
ATOM      5  C   UNL     1      -2.045   4.047  24.585  0.00  0.00    +0.006 A 
ATOM      6  C   UNL     1      -2.693   3.562  24.749  0.00  0.00    -0.003 A 
ATOM      7  C   UNL     1      -3.054   3.595  25.491  0.00  0.00    -0.006 A 
ATOM     31  C   UNL     1      -2.767   4.111  26.067  0.00  0.00    -0.003 A 
ATOM     32  C   UNL     1      -2.120   4.595  25.902  0.00  0.00    +0.006 A 
BRANCH   4   2
ATOM      1  O   UNL     1      -0.385   4.710  24.802  0.00  0.00    -0.241 OA
ATOM      2  C   UNL     1      -1.112   5.047  24.996  0.00  0.00    +0.388 C 
ATOM      3  O   UNL     1      -1.192   5.868  25.025  0.00  0.00    -0.241 OA
ENDBRANCH   4   2
ENDBRANCH   8   7
ENDBRANCH   9   8
ENDBRANCH  14  13
TORSDOF 6
ENDMDL
MODEL 2
REMARK VINA RESULT:     -10.4      3.261      4.602
REMARK  Name = 
REMARK  6 active torsions:
REMARK  status: ('A' for Active; 'I' for Inactive)
REMARK    1  A    between atoms: C_2  and  C_4
REMARK    2  A    between atoms: C_7  and  C_8
REMARK    3  A    between atoms: C_8  and  N_9
REMARK    4  A    between atoms: C_13  and  C_14
REMARK    5  A    between atoms: C_16  and  C_19
REMARK    6  A    between atoms: C_22  and  N_25
REMARK                            x       y       z     vdW  Elec       q    Type
REMARK                         _______ _______ _______ _____ _____    ______ ____
ROOT
ATOM     14  C   UNL     1      -2.261  -0.054  24.897  0.00  0.00    +0.251 A 
ATOM     15  N   UNL     1      -1.730  -0.021  24.266  0.00  0.00    -0.190 NA
ATOM     16  C   UNL     1      -0.968   0.032  24.577  0.00  0.00    +0.205 A 
ATOM     17  N   UNL     1      -1.028   0.031  25.399  0.00  0.00    -0.056 NA
ATOM     18  O   UNL     1      -1.826  -0.021  25.597  0.00  0.00    -0.336 OA
ENDROOT
BRANCH  16  19
ATOM     19  C   UNL     1      -0.268   0.077  24.142  0.00  0.00    +0.058 A 
ATOM     20  C   UNL     1       0.060   0.812  23.964  0.00  0.00    +0.008 A 
ATOM     21  C   UNL     1       0.759   0.858  23.528  0.00  0.00    +0.034 A 
ATOM     22  C   UNL     1       1.130   0.167  23.271  0.00  0.00    +0.132 A 
ATOM     23  N   UNL     1       0.802  -0.569  23.449  0.00  0.00    -0.229 NA
ATOM     24  C   UNL     1       0.103  -0.614  23.884  0.00  0.00    +0.103 A 
BRANCH  22  25
ATOM     25  N   UNL     1       1.830   0.212  22.835  0.00  0.00    -0.288 N 
ATOM     26  C   UNL     1       2.482   0.612  23.144  0.00  0.00    +0.124 C 
ATOM     27  C   UNL     1       3.182   0.657  22.709  0.00  0.00    +0.164 C 
ATOM     28  O   UNL     1       3.229   0.303  21.965  0.00  0.00    -0.350 OA
ATOM     29  C   UNL     1       2.576  -0.097  21.656  0.00  0.00    +0.164 C 
ATOM     30  C   UNL     1       1.876  -0.142  22.092  0.00  0.00    +0.124 C 
ENDBRANCH  22  25
ENDBRANCH  16  19
BRANCH  14  13
ATOM      9  N   UNL     1      -3.601   0.516  24.702  0.00  0.00    -0.263 NA
ATOM     10  C   UNL     1      -4.368   0.212  24.683  0.00  0.00    +0.073 C 
ATOM     11  C   UNL     1      -4.322  -0.603  24.807  0.00  0.00    +0.019 C 
ATOM     12  C   UNL     1      -3.527  -0.802  24.902  0.00  0.00    +0.027 C 
ATOM     13  C   UNL     1      -3.081  -0.110  24.837  0.00  0.00    +0.138 C 
BRANCH   9   8
ATOM      8  C   UNL     1      -3.391   1.307  24.604  0.00  0.00    +0.099 C 
BRANCH   8   7
ATOM      4  C   UNL     1      -4.962   3.098  25.277  0.00  0.00    +0.080 A 
ATOM      5  C   UNL     1      -4.301   2.934  25.742  0.00  0.00    +0.006 A 
ATOM      6  C   UNL     1      -3.777   2.337  25.518  0.00  0.00    -0.003 A 
ATOM      7  C   UNL     1      -3.915   1.905  24.828  0.00  0.00    -0.006 A 
ATOM     31  C   UNL     1      -4.576   2.070  24.363  0.00  0.00    -0.003 A 
ATOM     32  C   UNL     1      -5.100   2.667  24.588  0.00  0.00    +0.006 A 
BRANCH   4   2
ATOM      1  O   UNL     1      -6.215   3.500  25.833  0.00  0.00    -0.241 OA
ATOM      2  C   UNL     1      -5.485   3.695  25.501  0.00  0.00    +0.388 C 
ATOM      3  O   UNL     1      -5.279   4.487  25.394  0.00  0.00    -0.241 OA
ENDBRANCH   4   2
ENDBRANCH   8   7
ENDBRANCH   9   8
ENDBRANCH  14  13
TORSDOF 6
ENDMDL
MODEL 3
REMARK VINA RESULT:      -9.9      2.073      3.633
REMARK  Name = 
REMARK  6 active torsions:
REMARK  status: ('A' for Active; 'I' for Inactive)
REMARK    1  A    between atoms: C_2  and  C_4
REMARK    2  A    between atoms: C_7  and  C_8
REMARK    3  A    between atoms: C_8  and  N_9
REMARK    4  A    between atoms: C_13  and  C_14
REMARK    5  A    between atoms: C_16  and  C_19
REMARK    6  A    between atoms: C_22  and  N_25
REMARK                            x       y       z     vdW  Elec       q    Type
REMARK                         _______ _______ _______ _____ _____    ______ ____
ROOT
ATOM     14  C   UNL     1      -0.677   3.218  25.273  0.00  0.00    +0.251 A 
ATOM     15  N   UNL     1      -1.033   2.493  25.098  0.00  0.00    -0.190 NA
ATOM     16  C   UNL     1      -0.484   1.897  25.252  0.00  0.00    +0.205 A 
ATOM     17  N   UNL     1       0.210   2.252  25.521  0.00  0.00    -0.056 NA
ATOM     18  O   UNL     1       0.090   3.067  25.534  0.00  0.00    -0.336 OA
ENDROOT
BRANCH  16  19
ATOM     19  C   UNL     1      -0.608   1.087  25.153  0.00  0.00    +0.058 A 
ATOM     20  C   UNL     1      -0.973   0.650  25.751  0.00  0.00    +0.008 A 
ATOM     21  C   UNL     1      -1.097  -0.160  25.652  0.00  0.00    +0.034 A 
ATOM     22  C   UNL     1      -0.856  -0.532  24.957  0.00  0.00    +0.132 A 
ATOM     23  N   UNL     1      -0.492  -0.096  24.359  0.00  0.00    -0.229 NA
ATOM     24  C   UNL     1      -0.367   0.714  24.458  0.00  0.00    +0.103 A 
BRANCH  22  25
ATOM     25  N   UNL     1      -0.981  -1.342  24.858  0.00  0.00    -0.288 N 
ATOM     26  C   UNL     1      -0.430  -1.882  25.151  0.00  0.00    +0.124 C 
ATOM     27  C   UNL     1      -0.554  -2.692  25.052  0.00  0.00    +0.164 C 
ATOM     28  O   UNL     1      -1.228  -2.961  24.661  0.00  0.00    -0.350 OA
ATOM     29  C   UNL     1      -1.779  -2.422  24.368  0.00  0.00    +0.164 C 
ATOM     30  C   UNL     1      -1.655  -1.612  24.467  0.00  0.00    +0.124 C 
ENDBRANCH  22  25
ENDBRANCH  16  19
BRANCH  14  13
ATOM      9  N   UNL     1      -1.751   4.189  25.523  0.00  0.00    -0.263 NA
ATOM     10  C   UNL     1      -1.888   4.975  25.312  0.00  0.00    +0.073 C 
ATOM     11  C   UNL     1      -1.249   5.232  24.857  0.00  0.00    +0.019 C 
ATOM     12  C   UNL     1      -0.718   4.605  24.787  0.00  0.00    +0.027 C 
ATOM     13  C   UNL     1      -1.028   3.960  25.199  0.00  0.00    +0.138 C 
BRANCH   9   8
ATOM      8  C   UNL     1      -2.249   3.715  25.978  0.00  0.00    +0.099 C 
BRANCH   8   7
ATOM      4  C   UNL     1      -4.700   3.818  25.644  0.00  0.00    +0.080 A 
ATOM      5  C   UNL     1      -4.363   4.134  26.328  0.00  0.00    +0.006 A 
ATOM      6  C   UNL     1      -3.547   4.100  26.440  0.00  0.00    -0.003 A 
ATOM      7  C   UNL     1      -3.067   3.750  25.867  0.00  0.00    -0.006 A 
ATOM     31  C   UNL     1      -3.404   3.434  25.183  0.00  0.00    -0.003 A 
ATOM     32  C   UNL     1      -4.221   3.469  25.072  0.00  0.00    +0.006 A 
BRANCH   4   2
ATOM      1  O   UNL     1      -5.913   4.572  25.611  0.00  0.00    -0.241 OA
ATOM      2  C   UNL     1      -5.516   3.853  25.534  0.00  0.00    +0.388 C 
ATOM      3  O   UNL     1      -5.937   3.169  25.345  0.00  0.00    -0.241 OA
ENDBRANCH   4   2
ENDBRANCH   8   7
ENDBRANCH   9   8
ENDBRANCH  14  13
TORSDOF 6
ENDMDL
MODEL 4
REMARK VINA RESULT:      -9.5      3.294      4.686
REMARK  Name = 
REMARK  6 active torsions:
REMARK  status: ('A' for Active; 'I' for Inactive)
REMARK    1  A    between atoms: C_2  and  C_4
REMARK    2  A    between atoms: C_7  and  C_8
REMARK    3  A    between atoms: C_8  and  N_9
REMARK    4  A    between atoms: C_13  and  C_14
REMARK    5  A    between atoms: C_16  and  C_19
REMARK    6  A    between atoms: C_22  and  N_25
REMARK                            x       y       z     vdW  Elec       q    Type
REMARK                         _______ _______ _______ _____ _____    ______ ____
ROOT
ATOM     14  C   UNL     1      -1.441   2.684  25.460  0.00  0.00    +0.251 A 
ATOM     15  N   UNL     1      -1.010   2.493  24.782  0.00  0.00    -0.190 NA
ATOM     16  C   UNL     1      -0.480   1.892  24.978  0.00  0.00    +0.205 A 
ATOM     17  N   UNL     1      -0.583   1.712  25.776  0.00  0.00    -0.056 NA
ATOM     18  O   UNL     1      -1.176   2.201  26.073  0.00  0.00    -0.336 OA
ENDROOT
BRANCH  16  19
ATOM     19  C   UNL     1       0.059   1.535  24.466  0.00  0.00    +0.058 A 
ATOM     20  C   UNL     1      -0.100   0.786  24.157  0.00  0.00    +0.008 A 
ATOM     21  C   UNL     1       0.439   0.429  23.644  0.00  0.00    +0.034 A 
ATOM     22  C   UNL     1       1.136   0.819  23.441  0.00  0.00    +0.132 A 
ATOM     23  N   UNL     1       1.295   1.567  23.749  0.00  0.00    -0.229 NA
ATOM     24  C   UNL     1       0.756   1.925  24.262  0.00  0.00    +0.103 A 
BRANCH  22  25
ATOM     25  N   UNL     1       1.675   0.461  22.928  0.00  0.00    -0.288 N 
ATOM     26  C   UNL     1       1.404  -0.033  22.326  0.00  0.00    +0.124 C 
ATOM     27  C   UNL     1       1.943  -0.391  21.813  0.00  0.00    +0.164 C 
ATOM     28  O   UNL     1       2.752  -0.254  21.903  0.00  0.00    -0.350 OA
ATOM     29  C   UNL     1       3.022   0.241  22.505  0.00  0.00    +0.164 C 
ATOM     30  C   UNL     1       2.483   0.598  23.018  0.00  0.00    +0.124 C 
ENDBRANCH  22  25
ENDBRANCH  16  19
BRANCH  14  13
ATOM      9  N   UNL     1      -2.799   3.190  25.221  0.00  0.00    -0.263 NA
ATOM     10  C   UNL     1      -3.201   3.889  25.395  0.00  0.00    +0.073 C 
ATOM     11  C   UNL     1      -2.680   4.389  25.795  0.00  0.00    +0.019 C 
ATOM     12  C   UNL     1      -1.957   3.999  25.868  0.00  0.00    +0.027 C 
ATOM     13  C   UNL     1      -2.031   3.257  25.513  0.00  0.00    +0.138 C 
BRANCH   9   8
ATOM      8  C   UNL     1      -3.111   2.538  24.824  0.00  0.00    +0.099 C 
BRANCH   8   7
ATOM      4  C   UNL     1      -5.508   1.968  25.073  0.00  0.00    +0.080 A 
ATOM      5  C   UNL     1      -4.930   1.472  25.392  0.00  0.00    +0.006 A 
ATOM      6  C   UNL     1      -4.132   1.661  25.309  0.00  0.00    -0.003 A 
ATOM      7  C   UNL     1      -3.911   2.348  24.907  0.00  0.00    -0.006 A 
ATOM     31  C   UNL     1      -4.488   2.844  24.589  0.00  0.00    -0.003 A 
ATOM     32  C   UNL     1      -5.286   2.653  24.672  0.00  0.00    +0.006 A 
BRANCH   4   2
ATOM      1  O   UNL     1      -6.653   1.774  25.905  0.00  0.00    -0.241 OA
ATOM      2  C   UNL     1      -6.306   1.778  25.156  0.00  0.00    +0.388 C 
ATOM      3  O   UNL     1      -6.757   1.592  24.491  0.00  0.00    -0.241 OA
ENDBRANCH   4   2
ENDBRANCH   8   7
ENDBRANCH   9   8
ENDBRANCH  14  13
TORSDOF 6
ENDMDL
MODEL 5
REMARK VINA RESULT:      -9.4      2.830      5.444
REMARK  Name = 
REMARK  6 active torsions:
REMARK  status: ('A' for Active; 'I' for Inactive)
REMARK    1  A    between atoms: C_2  and  C_4
REMARK    2  A    between atoms: C_7  and  C_8
REMARK    3  A    between atoms: C_8  and  N_9
REMARK    4  A    between atoms: C_13  and  C_14
REMARK    5  A    between atoms: C_16  and  C_19
REMARK    6  A    between atoms: C_22  and  N_25
REMARK                            x       y       z     vdW  Elec       q    Type
REMARK                         _______ _______ _______ _____ _____    ______ ____
ROOT
ATOM     14  C   UNL     1      -2.030  -0.649  24.574  0.00  0.00    +0.251 A 
ATOM     15  N   UNL     1      -2.308   0.056  24.902  0.00  0.00    -0.190 NA
ATOM     16  C   UNL     1      -3.066   0.193  24.606  0.00  0.00    +0.205 A 
ATOM     17  N   UNL     1      -3.256  -0.426  24.096  0.00  0.00    -0.056 NA
ATOM     18  O   UNL     1      -2.616  -0.946  24.076  0.00  0.00    -0.336 OA
ENDROOT
BRANCH  16  19
ATOM     19  C   UNL     1      -3.549   0.837  24.789  0.00  0.00    +0.058 A 
ATOM     20  C   UNL     1      -4.352   0.720  24.935  0.00  0.00    +0.008 A 
ATOM     21  C   UNL     1      -4.835   1.364  25.118  0.00  0.00    +0.034 A 
ATOM     22  C   UNL     1      -4.514   2.123  25.154  0.00  0.00    +0.132 A 
ATOM     23  N   UNL     1      -3.711   2.240  25.007  0.00  0.00    -0.229 NA
ATOM     24  C   UNL     1      -3.228   1.596  24.825  0.00  0.00    +0.103 A 
BRANCH  22  25
ATOM     25  N   UNL     1      -4.997   2.767  25.337  0.00  0.00    -0.288 N 
ATOM     26  C   UNL     1      -4.713   3.536  25.243  0.00  0.00    +0.124 C 
ATOM     27  C   UNL     1      -5.196   4.180  25.425  0.00  0.00    +0.164 C 
ATOM     28  O   UNL     1      -5.963   4.055  25.702  0.00  0.00    -0.350 OA
ATOM     29  C   UNL     1      -6.247   3.286  25.796  0.00  0.00    +0.164 C 
ATOM     30  C   UNL     1      -5.765   2.642  25.613  0.00  0.00    +0.124 C 
ENDBRANCH  22  25
ENDBRANCH  16  19
BRANCH  14  13
ATOM      9  N   UNL     1      -0.587  -0.801  24.347  0.00  0.00    -0.263 NA
ATOM     10  C   UNL     1       0.007  -1.280  24.660  0.00  0.00    +0.073 C 
ATOM     11  C   UNL     1      -0.336  -1.771  25.228  0.00  0.00    +0.019 C 
ATOM     12  C   UNL     1      -1.141  -1.594  25.265  0.00  0.00    +0.027 C 
ATOM     13  C   UNL     1      -1.296  -0.994  24.720  0.00  0.00    +0.138 C 
BRANCH   9   8
ATOM      8  C   UNL     1      -0.488  -0.227  23.762  0.00  0.00    +0.099 C 
BRANCH   8   7
ATOM      4  C   UNL     1       1.787   0.390  23.004  0.00  0.00    +0.080 A 
ATOM      5  C   UNL     1       1.417   0.827  23.598  0.00  0.00    +0.006 A 
ATOM      6  C   UNL     1       0.659   0.622  23.850  0.00  0.00    -0.003 A 
ATOM      7  C   UNL     1       0.271  -0.021  23.509  0.00  0.00    -0.006 A 
ATOM     31  C   UNL     1       0.641  -0.459  22.916  0.00  0.00    -0.003 A 
ATOM     32  C   UNL     1       1.399  -0.253  22.664  0.00  0.00    +0.006 A 
BRANCH   4   2
ATOM      1  O   UNL     1       2.892   0.193  22.121  0.00  0.00    -0.241 OA
ATOM      2  C   UNL     1       2.544   0.595  22.752  0.00  0.00    +0.388 C 
ATOM      3  O   UNL     1       2.955   1.203  23.130  0.00  0.00    -0.241 OA
ENDBRANCH   4   2
ENDBRANCH   8   7
ENDBRANCH   9   8
ENDBRANCH  14  13
TORSDOF 6
ENDMDL
MODEL 6
REMARK VINA RESULT:      -9.2      3.464      5.490
REMARK  Name = 
REMARK  6 active torsions:
REMARK  status: ('A' for Active; 'I' for Inactive)
REMARK    1  A    between atoms: C_2  and  C_4
REMARK    2  A    between atoms: C_7  and  C_8
REMARK    3  A    between atoms: C_8  and  N_9
REMARK    4  A    between atoms: C_13  and  C_14
REMARK    5  A    between atoms: C_16  and  C_19
REMARK    6  A    between atoms: C_22  and  N_25
REMARK                            x       y       z     vdW  Elec       q    Type
REMARK                         _______ _______ _______ _____ _____    ______ ____
ROOT
ATOM     14  C   UNL     1      -2.117   1.618  24.750  0.00  0.00    +0.251 A 
ATOM     15  N   UNL     1      -1.566   1.322  24.211  0.00  0.00    -0.190 NA
ATOM     16  C   UNL     1      -0.812   1.487  24.501  0.00  0.00    +0.205 A 
ATOM     17  N   UNL     1      -0.896   1.884  25.218  0.00  0.00    -0.056 NA
ATOM     18  O   UNL     1      -1.702   1.965  25.372  0.00  0.00    -0.336 OA
ENDROOT
BRANCH  16  19
ATOM     19  C   UNL     1      -0.099   1.288  24.136  0.00  0.00    +0.058 A 
ATOM     20  C   UNL     1      -0.038   0.590  23.702  0.00  0.00    +0.008 A 
ATOM     21  C   UNL     1       0.676   0.391  23.337  0.00  0.00    +0.034 A 
ATOM     22  C   UNL     1       1.328   0.892  23.408  0.00  0.00    +0.132 A 
ATOM     23  N   UNL     1       1.267   1.590  23.843  0.00  0.00    -0.229 NA
ATOM     24  C   UNL     1       0.554   1.788  24.207  0.00  0.00    +0.103 A 
BRANCH  22  25
ATOM     25  N   UNL     1       2.041   0.693  23.044  0.00  0.00    -0.288 N 
ATOM     26  C   UNL     1       2.075   0.054  22.523  0.00  0.00    +0.124 C 
ATOM     27  C   UNL     1       2.788  -0.144  22.159  0.00  0.00    +0.164 C 
ATOM     28  O   UNL     1       3.468   0.297  22.316  0.00  0.00    -0.350 OA
ATOM     29  C   UNL     1       3.434   0.936  22.836  0.00  0.00    +0.164 C 
ATOM     30  C   UNL     1       2.721   1.134  23.200  0.00  0.00    +0.124 C 
ENDBRANCH  22  25
ENDBRANCH  16  19
BRANCH  14  13
ATOM      9  N   UNL     1      -3.411   0.942  24.913  0.00  0.00    -0.263 NA
ATOM     10  C   UNL     1      -4.195   1.131  24.739  0.00  0.00    +0.073 C 
ATOM     11  C   UNL     1      -4.206   1.881  24.396  0.00  0.00    +0.019 C 
ATOM     12  C   UNL     1      -3.428   2.155  24.358  0.00  0.00    +0.027 C 
ATOM     13  C   UNL     1      -2.937   1.574  24.678  0.00  0.00    +0.138 C 
BRANCH   9   8
ATOM      8  C   UNL     1      -3.147   0.242  25.261  0.00  0.00    +0.099 C 
BRANCH   8   7
ATOM      4  C   UNL     1      -3.900  -1.943  24.373  0.00  0.00    +0.080 A 
ATOM      5  C   UNL     1      -3.584  -1.894  25.134  0.00  0.00    +0.006 A 
ATOM      6  C   UNL     1      -3.333  -1.166  25.430  0.00  0.00    -0.003 A 
ATOM      7  C   UNL     1      -3.398  -0.487  24.965  0.00  0.00    -0.006 A 
ATOM     31  C   UNL     1      -3.714  -0.536  24.205  0.00  0.00    -0.003 A 
ATOM     32  C   UNL     1      -3.965  -1.265  23.909  0.00  0.00    +0.006 A 
BRANCH   4   2
ATOM      1  O   UNL     1      -4.799  -2.708  23.569  0.00  0.00    -0.241 OA
ATOM      2  C   UNL     1      -4.150  -2.671  24.078  0.00  0.00    +0.388 C 
ATOM      3  O   UNL     1      -3.753  -3.362  24.291  0.00  0.00    -0.241 OA
ENDBRANCH   4   2
ENDBRANCH   8   7
ENDBRANCH   9   8
ENDBRANCH  14  13
TORSDOF 6
ENDMDL
