REMARK  Name = 
REMARK  3 active torsions:
REMARK  status: ('A' for Active; 'I' for Inactive)
REMARK    1  A    between atoms: C_7  and  N_10
REMARK    2  A    between atoms: C_13  and  C_15
REMARK    3  A    between atoms: C_20  and  C_24
REMARK                            x       y       z     vdW  Elec       q    Type
REMARK                         _______ _______ _______ _____ _____    ______ ____
ROOT
ATOM     10  N   UNL     1      -2.723  -1.110   0.000  0.00  0.00    -0.273 NA
ATOM     11  C   UNL     1      -2.723  -0.285   0.000  0.00  0.00    +0.073 C 
ATOM     12  C   UNL     1      -1.938  -0.030   0.000  0.00  0.00    +0.026 C 
ATOM     13  C   UNL     1      -1.453  -0.698   0.000  0.00  0.00    +0.076 C 
ATOM     14  C   UNL     1      -1.938  -1.365   0.000  0.00  0.00    +0.080 C 
ENDROOT
BRANCH  10   7
ATOM      1  C   UNL     1      -5.306  -3.871   0.000  0.00  0.00    +0.095 C 
ATOM      2  C   UNL     1      -5.393  -3.050   0.000  0.00  0.00    +0.226 C 
ATOM      3  O   UNL     1      -6.146  -2.715   0.000  0.00  0.00    -0.275 OA
ATOM      4  N   UNL     1      -4.725  -2.565   0.000  0.00  0.00    -0.279 N 
ATOM      5  C   UNL     1      -4.811  -1.745   0.000  0.00  0.00    +0.095 C 
ATOM      6  C   UNL     1      -4.144  -1.260   0.000  0.00  0.00    +0.038 C 
ATOM      7  C   UNL     1      -3.390  -1.595   0.000  0.00  0.00    +0.061 C 
ATOM      8  C   UNL     1      -3.304  -2.416   0.000  0.00  0.00    +0.038 C 
ATOM      9  C   UNL     1      -3.972  -2.901   0.000  0.00  0.00    +0.095 C 
ENDBRANCH  10   7
BRANCH  13  15
ATOM     15  C   UNL     1      -0.628  -0.698   0.000  0.00  0.00    +0.140 A 
ATOM     16  N   UNL     1      -0.143  -1.365   0.000  0.00  0.00    -0.229 NA
ATOM     17  C   UNL     1       0.641  -1.110   0.000  0.00  0.00    +0.100 A 
ATOM     18  C   UNL     1       0.641  -0.285   0.000  0.00  0.00    +0.105 A 
ATOM     19  N   UNL     1      -0.143  -0.030   0.000  0.00  0.00    -0.229 NA
ATOM     20  C   UNL     1       1.356   0.127   0.000  0.00  0.00    +0.076 A 
ATOM     21  C   UNL     1       2.070  -0.285   0.000  0.00  0.00    +0.006 A 
ATOM     22  C   UNL     1       2.070  -1.110   0.000  0.00  0.00    +0.002 A 
ATOM     23  C   UNL     1       1.356  -1.523   0.000  0.00  0.00    +0.021 A 
BRANCH  20  24
ATOM     24  C   UNL     1       1.356   0.952   0.000  0.00  0.00    +0.286 C 
ATOM     25  N   UNL     1       0.641   1.365   0.000  0.00  0.00    -0.084 NA
ATOM     26  O   UNL     1       2.070   1.365   0.000  0.00  0.00    -0.267 OA
ENDBRANCH  20  24
ENDBRANCH  13  15
TORSDOF 3
