REMARK  Name = 
REMARK  7 active torsions:
REMARK  status: ('A' for Active; 'I' for Inactive)
REMARK    1  A    between atoms: C_5  and  C_6
REMARK    2  A    between atoms: C_6  and  C_7
REMARK    3  A    between atoms: N_9  and  C_10
REMARK    4  A    between atoms: C_10  and  C_11
REMARK    5  A    between atoms: C_14  and  C_15
REMARK    6  A    between atoms: C_15  and  N_16
REMARK    7  A    between atoms: C_17  and  C_19
REMARK                            x       y       z     vdW  Elec       q    Type
REMARK                         _______ _______ _______ _____ _____    ______ ____
ROOT
ATOM      1  O   UNL     1       2.673  -1.290   0.000  0.00  0.00    -0.218 OA
ATOM      2  C   UNL     1       3.009  -2.043   0.000  0.00  0.00    +0.213 C 
ATOM      3  C   UNL     1       3.816  -2.215   0.000  0.00  0.00    +0.212 C 
ATOM      4  O   UNL     1       4.429  -1.663   0.000  0.00  0.00    -0.218 OA
ATOM      5  C   UNL     1       3.902  -3.035   0.000  0.00  0.00    +0.157 C 
ATOM     13  O   UNL     1       3.148  -3.371   0.000  0.00  0.00    -0.351 OA
ATOM     14  C   UNL     1       2.596  -2.758   0.000  0.00  0.00    +0.170 C 
ENDROOT
BRANCH   5   6
ATOM      6  C   UNL     1       4.617  -3.448   0.000  0.00  0.00    +0.119 C 
BRANCH   6   7
ATOM      7  C   UNL     1       5.331  -3.035   0.000  0.00  0.00    +0.245 C 
ATOM      8  O   UNL     1       5.331  -2.210   0.000  0.00  0.00    -0.273 OA
ATOM      9  N   UNL     1       6.045  -3.448   0.000  0.00  0.00    -0.191 NA
BRANCH   9  10
ATOM     10  C   UNL     1       6.760  -3.035   0.000  0.00  0.00    +0.191 C 
BRANCH  10  11
ATOM     11  C   UNL     1       7.474  -3.448   0.000  0.00  0.00    -0.054 C 
ATOM     12  C   UNL     1       8.189  -3.860   0.000  0.00  0.00    -0.012 C 
ENDBRANCH  10  11
ENDBRANCH   9  10
ENDBRANCH   6   7
ENDBRANCH   5   6
BRANCH  14  15
ATOM     15  C   UNL     1       1.776  -2.844   0.000  0.00  0.00    +0.148 C 
BRANCH  15  16
ATOM     16  N   UNL     1       1.291  -2.176   0.000  0.00  0.00    -0.196 NA
ATOM     17  C   UNL     1       0.470  -2.263   0.000  0.00  0.00    +0.300 C 
ATOM     18  O   UNL     1       0.135  -3.016   0.000  0.00  0.00    -0.265 OA
BRANCH  17  19
ATOM     19  C   UNL     1      -0.015  -1.595   0.000  0.00  0.00    +0.200 A 
ATOM     20  C   UNL     1      -0.840  -1.595   0.000  0.00  0.00    +0.046 A 
ATOM     21  C   UNL     1      -1.094  -0.811   0.000  0.00  0.00    +0.044 A 
ATOM     22  C   UNL     1      -0.427  -0.326   0.000  0.00  0.00    +0.180 A 
ATOM     23  O   UNL     1       0.240  -0.811   0.000  0.00  0.00    -0.446 OA
ENDBRANCH  17  19
ENDBRANCH  15  16
ENDBRANCH  14  15
TORSDOF 7
