MODEL 1
REMARK VINA RESULT:     -13.3      0.000      0.000
REMARK  Name = 
REMARK  3 active torsions:
REMARK  status: ('A' for Active; 'I' for Inactive)
REMARK    1  A    between atoms: C_5  and  S_8
REMARK    2  A    between atoms: S_8  and  N_11
REMARK    3  A    between atoms: N_17  and  C_18
REMARK                            x       y       z     vdW  Elec       q    Type
REMARK                         _______ _______ _______ _____ _____    ______ ____
ROOT
ATOM     11  N   UNL     1      -2.885   2.290  24.885  0.00  0.00    -0.152 NA
ATOM     12  C   UNL     1      -3.700   2.366  24.985  0.00  0.00    +0.117 C 
ATOM     13  C   UNL     1      -4.182   1.697  24.958  0.00  0.00    +0.114 C 
ATOM     14  N   UNL     1      -3.849   0.953  24.831  0.00  0.00    -0.261 N 
ATOM     15  C   UNL     1      -3.034   0.878  24.731  0.00  0.00    +0.114 C 
ATOM     16  C   UNL     1      -2.863   0.079  24.616  0.00  0.00    +0.116 C 
ATOM     17  N   UNL     1      -3.573  -0.340  24.644  0.00  0.00    -0.264 N 
ATOM     24  C   UNL     1      -4.182   0.201  24.777  0.00  0.00    +0.307 C 
ATOM     25  O   UNL     1      -4.984   0.020  24.845  0.00  0.00    -0.252 OA
ATOM     26  C   UNL     1      -2.551   1.547  24.758  0.00  0.00    +0.117 C 
ENDROOT
BRANCH  17  18
ATOM     18  C   UNL     1      -3.659  -1.155  24.556  0.00  0.00    +0.077 C 
ATOM     19  C   UNL     1      -3.376  -1.666  25.139  0.00  0.00    +0.020 C 
ATOM     20  C   UNL     1      -3.462  -2.482  25.050  0.00  0.00    +0.002 C 
ATOM     21  C   UNL     1      -3.831  -2.787  24.378  0.00  0.00    +0.000 C 
ATOM     22  C   UNL     1      -4.114  -2.277  23.795  0.00  0.00    +0.002 C 
ATOM     23  C   UNL     1      -4.028  -1.461  23.884  0.00  0.00    +0.020 C 
ENDBRANCH  17  18
BRANCH  11   8
ATOM      8  S   UNL     1      -2.402   2.960  24.912  0.00  0.00    +0.063 S 
ATOM      9  O   UNL     1      -2.590   3.127  24.127  0.00  0.00    -0.153 OA
ATOM     10  O   UNL     1      -2.215   2.792  25.698  0.00  0.00    -0.153 OA
BRANCH   8   5
ATOM      1  F   UNL     1      -0.471   5.634  25.022  0.00  0.00    -0.204 F 
ATOM      2  C   UNL     1      -0.954   4.965  24.995  0.00  0.00    +0.140 A 
ATOM      3  C   UNL     1      -1.743   5.016  25.231  0.00  0.00    +0.031 A 
ATOM      4  C   UNL     1      -2.225   4.348  25.203  0.00  0.00    +0.022 A 
ATOM      5  C   UNL     1      -1.920   3.628  24.940  0.00  0.00    +0.122 A 
ATOM      6  C   UNL     1      -1.131   3.577  24.704  0.00  0.00    +0.022 A 
ATOM      7  C   UNL     1      -0.648   4.246  24.731  0.00  0.00    +0.031 A 
ENDBRANCH   8   5
ENDBRANCH  11   8
TORSDOF 3
ENDMDL
MODEL 2
REMARK VINA RESULT:     -12.9      2.352      5.534
REMARK  Name = 
REMARK  3 active torsions:
REMARK  status: ('A' for Active; 'I' for Inactive)
REMARK    1  A    between atoms: C_5  and  S_8
REMARK    2  A    between atoms: S_8  and  N_11
REMARK    3  A    between atoms: N_17  and  C_18
REMARK                            x       y       z     vdW  Elec       q    Type
REMARK                         _______ _______ _______ _____ _____    ______ ____
ROOT
ATOM     11  N   UNL     1      -2.206   0.140  25.016  0.00  0.00    -0.152 NA
ATOM     12  C   UNL     1      -1.513   0.069  25.458  0.00  0.00    +0.117 C 
ATOM     13  C   UNL     1      -1.081   0.743  25.656  0.00  0.00    +0.114 C 
ATOM     14  N   UNL     1      -1.342   1.487  25.414  0.00  0.00    -0.261 N 
ATOM     15  C   UNL     1      -2.035   1.558  24.972  0.00  0.00    +0.114 C 
ATOM     16  C   UNL     1      -2.155   2.357  24.811  0.00  0.00    +0.116 C 
ATOM     17  N   UNL     1      -1.536   2.782  25.153  0.00  0.00    -0.264 N 
ATOM     24  C   UNL     1      -1.034   2.244  25.526  0.00  0.00    +0.307 C 
ATOM     25  O   UNL     1      -0.344   2.430  25.938  0.00  0.00    -0.252 OA
ATOM     26  C   UNL     1      -2.468   0.883  24.773  0.00  0.00    +0.117 C 
ENDROOT
BRANCH  17  18
ATOM     18  C   UNL     1      -1.438   3.600  25.128  0.00  0.00    +0.077 C 
ATOM     19  C   UNL     1      -1.985   4.094  25.499  0.00  0.00    +0.020 C 
ATOM     20  C   UNL     1      -1.887   4.913  25.473  0.00  0.00    +0.002 C 
ATOM     21  C   UNL     1      -1.240   5.238  25.077  0.00  0.00    +0.000 C 
ATOM     22  C   UNL     1      -0.693   4.745  24.707  0.00  0.00    +0.002 C 
ATOM     23  C   UNL     1      -0.791   3.926  24.732  0.00  0.00    +0.020 C 
ENDBRANCH  17  18
BRANCH  11   8
ATOM      8  S   UNL     1      -2.639  -0.535  24.817  0.00  0.00    +0.063 S 
ATOM      9  O   UNL     1      -2.097  -0.706  24.219  0.00  0.00    -0.153 OA
ATOM     10  O   UNL     1      -3.180  -0.363  25.416  0.00  0.00    -0.153 OA
BRANCH   8   5
ATOM      1  F   UNL     1      -4.370  -3.230  24.023  0.00  0.00    -0.204 F 
ATOM      2  C   UNL     1      -3.937  -2.556  24.222  0.00  0.00    +0.140 A 
ATOM      3  C   UNL     1      -3.286  -2.617  24.724  0.00  0.00    +0.031 A 
ATOM      4  C   UNL     1      -2.853  -1.944  24.923  0.00  0.00    +0.022 A 
ATOM      5  C   UNL     1      -3.071  -1.208  24.619  0.00  0.00    +0.122 A 
ATOM      6  C   UNL     1      -3.723  -1.147  24.116  0.00  0.00    +0.022 A 
ATOM      7  C   UNL     1      -4.156  -1.821  23.917  0.00  0.00    +0.031 A 
ENDBRANCH   8   5
ENDBRANCH  11   8
TORSDOF 3
ENDMDL
MODEL 3
REMARK VINA RESULT:      -9.7      2.107      2.610
REMARK  Name = 
REMARK  3 active torsions:
REMARK  status: ('A' for Active; 'I' for Inactive)
REMARK    1  A    between atoms: C_5  and  S_8
REMARK    2  A    between atoms: S_8  and  N_11
REMARK    3  A    between atoms: N_17  and  C_18
REMARK                            x       y       z     vdW  Elec       q    Type
REMARK                         _______ _______ _______ _____ _____    ______ ____
ROOT
ATOM     11  N   UNL     1      -4.074   1.759  24.920  0.00  0.00    -0.152 NA
ATOM     12  C   UNL     1      -3.271   1.796  24.738  0.00  0.00    +0.117 C 
ATOM     13  C   UNL     1      -2.849   1.103  24.591  0.00  0.00    +0.114 C 
ATOM     14  N   UNL     1      -3.230   0.372  24.627  0.00  0.00    -0.261 N 
ATOM     15  C   UNL     1      -4.034   0.335  24.810  0.00  0.00    +0.114 C 
ATOM     16  C   UNL     1      -4.260  -0.458  24.806  0.00  0.00    +0.116 C 
ATOM     17  N   UNL     1      -3.596  -0.911  24.621  0.00  0.00    -0.264 N 
ATOM     24  C   UNL     1      -2.960  -0.398  24.510  0.00  0.00    +0.307 C 
ATOM     25  O   UNL     1      -2.188  -0.617  24.317  0.00  0.00    -0.252 OA
ATOM     26  C   UNL     1      -4.456   1.029  24.956  0.00  0.00    +0.117 C 
ENDROOT
BRANCH  17  18
ATOM     18  C   UNL     1      -3.573  -1.733  24.557  0.00  0.00    +0.077 C 
ATOM     19  C   UNL     1      -3.203  -2.183  25.143  0.00  0.00    +0.020 C 
ATOM     20  C   UNL     1      -3.179  -3.005  25.079  0.00  0.00    +0.002 C 
ATOM     21  C   UNL     1      -3.525  -3.378  24.430  0.00  0.00    +0.000 C 
ATOM     22  C   UNL     1      -3.895  -2.930  23.844  0.00  0.00    +0.002 C 
ATOM     23  C   UNL     1      -3.918  -2.107  23.908  0.00  0.00    +0.020 C 
ENDBRANCH  17  18
BRANCH  11   8
ATOM      8  S   UNL     1      -4.497   2.453  25.067  0.00  0.00    +0.063 S 
ATOM      9  O   UNL     1      -4.260   2.430  25.856  0.00  0.00    -0.153 OA
ATOM     10  O   UNL     1      -4.734   2.475  24.276  0.00  0.00    -0.153 OA
BRANCH   8   5
ATOM      1  F   UNL     1      -6.187   5.227  25.651  0.00  0.00    -0.204 F 
ATOM      2  C   UNL     1      -5.764   4.533  25.505  0.00  0.00    +0.140 A 
ATOM      3  C   UNL     1      -6.090   3.802  25.704  0.00  0.00    +0.031 A 
ATOM      4  C   UNL     1      -5.668   3.109  25.558  0.00  0.00    +0.022 A 
ATOM      5  C   UNL     1      -4.919   3.146  25.213  0.00  0.00    +0.122 A 
ATOM      6  C   UNL     1      -4.594   3.877  25.013  0.00  0.00    +0.022 A 
ATOM      7  C   UNL     1      -5.016   4.571  25.159  0.00  0.00    +0.031 A 
ENDBRANCH   8   5
ENDBRANCH  11   8
TORSDOF 3
ENDMDL
MODEL 4
REMARK VINA RESULT:      -9.4      3.022      4.280
REMARK  Name = 
REMARK  3 active torsions:
REMARK  status: ('A' for Active; 'I' for Inactive)
REMARK    1  A    between atoms: C_5  and  S_8
REMARK    2  A    between atoms: S_8  and  N_11
REMARK    3  A    between atoms: N_17  and  C_18
REMARK                            x       y       z     vdW  Elec       q    Type
REMARK                         _______ _______ _______ _____ _____    ______ ____
ROOT
ATOM     11  N   UNL     1      -2.575   0.741  24.581  0.00  0.00    -0.152 NA
ATOM     12  C   UNL     1      -2.409   0.052  25.003  0.00  0.00    +0.117 C 
ATOM     13  C   UNL     1      -1.679  -0.321  24.914  0.00  0.00    +0.114 C 
ATOM     14  N   UNL     1      -1.114  -0.004  24.402  0.00  0.00    -0.261 N 
ATOM     15  C   UNL     1      -1.280   0.685  23.980  0.00  0.00    +0.114 C 
ATOM     16  C   UNL     1      -0.621   0.867  23.520  0.00  0.00    +0.116 C 
ATOM     17  N   UNL     1      -0.047   0.291  23.657  0.00  0.00    -0.264 N 
ATOM     24  C   UNL     1      -0.352  -0.247  24.202  0.00  0.00    +0.307 C 
ATOM     25  O   UNL     1       0.037  -0.913  24.497  0.00  0.00    -0.252 OA
ATOM     26  C   UNL     1      -2.011   1.058  24.070  0.00  0.00    +0.117 C 
ENDROOT
BRANCH  17  18
ATOM     18  C   UNL     1       0.701   0.258  23.310  0.00  0.00    +0.077 C 
ATOM     19  C   UNL     1       1.306   0.749  23.586  0.00  0.00    +0.020 C 
ATOM     20  C   UNL     1       2.053   0.716  23.239  0.00  0.00    +0.002 C 
ATOM     21  C   UNL     1       2.196   0.193  22.616  0.00  0.00    +0.000 C 
ATOM     22  C   UNL     1       1.593  -0.296  22.341  0.00  0.00    +0.002 C 
ATOM     23  C   UNL     1       0.845  -0.264  22.688  0.00  0.00    +0.020 C 
ENDBRANCH  17  18
BRANCH  11   8
ATOM      8  S   UNL     1      -3.306   1.114  24.671  0.00  0.00    +0.063 S 
ATOM      9  O   UNL     1      -2.983   1.610  25.245  0.00  0.00    -0.153 OA
ATOM     10  O   UNL     1      -3.629   0.618  24.096  0.00  0.00    -0.153 OA
BRANCH   8   5
ATOM      1  F   UNL     1      -6.229   2.605  25.027  0.00  0.00    -0.204 F 
ATOM      2  C   UNL     1      -5.498   2.232  24.938  0.00  0.00    +0.140 A 
ATOM      3  C   UNL     1      -5.430   1.420  25.070  0.00  0.00    +0.031 A 
ATOM      4  C   UNL     1      -4.700   1.048  24.981  0.00  0.00    +0.022 A 
ATOM      5  C   UNL     1      -4.036   1.486  24.760  0.00  0.00    +0.122 A 
ATOM      6  C   UNL     1      -4.104   2.298  24.628  0.00  0.00    +0.022 A 
ATOM      7  C   UNL     1      -4.836   2.671  24.717  0.00  0.00    +0.031 A 
ENDBRANCH   8   5
ENDBRANCH  11   8
TORSDOF 3
ENDMDL
