MODEL 1
REMARK VINA RESULT:     -13.2      0.000      0.000
REMARK  Name = 
REMARK  5 active torsions:
REMARK  status: ('A' for Active; 'I' for Inactive)
REMARK    1  A    between atoms: O_2  and  C_3
REMARK    2  A    between atoms: C_6  and  C_9
REMARK    3  A    between atoms: C_12  and  C_14
REMARK    4  A    between atoms: N_19  and  C_20
REMARK    5  A    between atoms: C_20  and  C_21
REMARK                            x       y       z     vdW  Elec       q    Type
REMARK                         _______ _______ _______ _____ _____    ______ ____
ROOT
ATOM     14  C   UNL     1      -4.522   2.347  25.028  0.00  0.00    +0.140 C 
ATOM     15  C   UNL     1      -5.297   2.597  25.154  0.00  0.00    +0.060 C 
ATOM     16  C   UNL     1      -5.270   3.337  25.518  0.00  0.00    +0.170 C 
ATOM     17  O   UNL     1      -5.921   3.790  25.744  0.00  0.00    -0.222 OA
ATOM     18  C   UNL     1      -4.478   3.543  25.617  0.00  0.00    +0.106 C 
ATOM     19  N   UNL     1      -4.014   2.931  25.315  0.00  0.00    -0.260 NA
ENDROOT
BRANCH  14  12
ATOM      9  C   UNL     1      -3.998   0.347  24.493  0.00  0.00    +0.203 A 
ATOM     10  N   UNL     1      -3.879   0.740  23.777  0.00  0.00    -0.056 NA
ATOM     11  O   UNL     1      -4.061   1.536  23.891  0.00  0.00    -0.336 OA
ATOM     12  C   UNL     1      -4.292   1.636  24.676  0.00  0.00    +0.251 A 
ATOM     13  N   UNL     1      -4.253   0.901  25.049  0.00  0.00    -0.190 NA
BRANCH   9   6
ATOM      3  C   UNL     1      -3.649  -2.069  24.903  0.00  0.00    +0.139 A 
ATOM      4  C   UNL     1      -3.390  -1.515  25.456  0.00  0.00    +0.037 A 
ATOM      5  C   UNL     1      -3.506  -0.710  25.320  0.00  0.00    +0.006 A 
ATOM      6  C   UNL     1      -3.882  -0.458  24.630  0.00  0.00    +0.039 A 
ATOM      7  C   UNL     1      -4.141  -1.012  24.076  0.00  0.00    +0.006 A 
ATOM      8  C   UNL     1      -4.025  -1.817  24.212  0.00  0.00    +0.037 A 
BRANCH   3   2
ATOM      1  C   UNL     1      -3.003  -3.300  24.570  0.00  0.00    +0.252 C 
ATOM      2  O   UNL     1      -3.533  -2.875  25.039  0.00  0.00    -0.471 OA
ENDBRANCH   3   2
ENDBRANCH   9   6
ENDBRANCH  14  12
BRANCH  19  20
ATOM     20  C   UNL     1      -3.190   2.908  25.300  0.00  0.00    +0.101 C 
BRANCH  20  21
ATOM     21  C   UNL     1      -2.755   3.598  25.420  0.00  0.00    +0.014 A 
ATOM     22  C   UNL     1      -3.002   4.260  25.847  0.00  0.00    +0.096 A 
ATOM     23  N   UNL     1      -2.396   4.819  25.824  0.00  0.00    -0.244 NA
ATOM     24  C   UNL     1      -1.775   4.503  25.384  0.00  0.00    +0.081 A 
ATOM     25  C   UNL     1      -1.996   3.749  25.134  0.00  0.00    +0.016 A 
ATOM     26  C   UNL     1      -1.478   3.297  24.678  0.00  0.00    +0.001 A 
ATOM     27  C   UNL     1      -0.739   3.599  24.473  0.00  0.00    +0.000 A 
ATOM     28  C   UNL     1      -0.517   4.353  24.723  0.00  0.00    +0.002 A 
ATOM     29  C   UNL     1      -1.035   4.806  25.178  0.00  0.00    +0.019 A 
ENDBRANCH  20  21
ENDBRANCH  19  20
TORSDOF 5
ENDMDL
MODEL 2
REMARK VINA RESULT:     -12.1      2.277      5.582
REMARK  Name = 
REMARK  5 active torsions:
REMARK  status: ('A' for Active; 'I' for Inactive)
REMARK    1  A    between atoms: O_2  and  C_3
REMARK    2  A    between atoms: C_6  and  C_9
REMARK    3  A    between atoms: C_12  and  C_14
REMARK    4  A    between atoms: N_19  and  C_20
REMARK    5  A    between atoms: C_20  and  C_21
REMARK                            x       y       z     vdW  Elec       q    Type
REMARK                         _______ _______ _______ _____ _____    ______ ____
ROOT
ATOM     14  C   UNL     1      -0.693   0.701  24.430  0.00  0.00    +0.140 C 
ATOM     15  C   UNL     1      -0.048   0.793  23.925  0.00  0.00    +0.060 C 
ATOM     16  C   UNL     1       0.164   0.047  23.644  0.00  0.00    +0.170 C 
ATOM     17  O   UNL     1       0.782  -0.117  23.123  0.00  0.00    -0.222 OA
ATOM     18  C   UNL     1      -0.351  -0.506  23.976  0.00  0.00    +0.106 C 
ATOM     19  N   UNL     1      -0.881  -0.102  24.462  0.00  0.00    -0.260 NA
ENDROOT
BRANCH  14  12
ATOM      9  C   UNL     1      -1.989   2.224  25.178  0.00  0.00    +0.203 A 
ATOM     10  N   UNL     1      -1.378   2.248  25.734  0.00  0.00    -0.056 NA
ATOM     11  O   UNL     1      -0.819   1.680  25.520  0.00  0.00    -0.336 OA
ATOM     12  C   UNL     1      -1.084   1.306  24.834  0.00  0.00    +0.251 A 
ATOM     13  N   UNL     1      -1.806   1.642  24.623  0.00  0.00    -0.190 NA
BRANCH   9   6
ATOM      3  C   UNL     1      -4.013   3.650  25.181  0.00  0.00    +0.139 A 
ATOM      4  C   UNL     1      -4.000   2.952  24.742  0.00  0.00    +0.037 A 
ATOM      5  C   UNL     1      -3.326   2.476  24.741  0.00  0.00    +0.006 A 
ATOM      6  C   UNL     1      -2.663   2.699  25.179  0.00  0.00    +0.039 A 
ATOM      7  C   UNL     1      -2.676   3.397  25.619  0.00  0.00    +0.006 A 
ATOM      8  C   UNL     1      -3.350   3.872  25.620  0.00  0.00    +0.037 A 
BRANCH   3   2
ATOM      1  C   UNL     1      -5.385   3.849  25.524  0.00  0.00    +0.252 C 
ATOM      2  O   UNL     1      -4.687   4.125  25.182  0.00  0.00    -0.471 OA
ENDBRANCH   3   2
ENDBRANCH   9   6
ENDBRANCH  14  12
BRANCH  19  20
ATOM     20  C   UNL     1      -1.491  -0.441  24.902  0.00  0.00    +0.101 C 
BRANCH  20  21
ATOM     21  C   UNL     1      -1.690  -1.233  24.790  0.00  0.00    +0.014 A 
ATOM     22  C   UNL     1      -1.163  -1.868  24.771  0.00  0.00    +0.096 A 
ATOM     23  N   UNL     1      -1.599  -2.557  24.647  0.00  0.00    -0.244 NA
ATOM     24  C   UNL     1      -2.394  -2.349  24.588  0.00  0.00    +0.081 A 
ATOM     25  C   UNL     1      -2.451  -1.530  24.677  0.00  0.00    +0.016 A 
ATOM     26  C   UNL     1      -3.189  -1.162  24.643  0.00  0.00    +0.001 A 
ATOM     27  C   UNL     1      -3.869  -1.611  24.520  0.00  0.00    +0.000 A 
ATOM     28  C   UNL     1      -3.812  -2.429  24.432  0.00  0.00    +0.002 A 
ATOM     29  C   UNL     1      -3.076  -2.799  24.466  0.00  0.00    +0.019 A 
ENDBRANCH  20  21
ENDBRANCH  19  20
TORSDOF 5
ENDMDL
MODEL 3
REMARK VINA RESULT:     -11.7      2.055      3.312
REMARK  Name = 
REMARK  5 active torsions:
REMARK  status: ('A' for Active; 'I' for Inactive)
REMARK    1  A    between atoms: O_2  and  C_3
REMARK    2  A    between atoms: C_6  and  C_9
REMARK    3  A    between atoms: C_12  and  C_14
REMARK    4  A    between atoms: N_19  and  C_20
REMARK    5  A    between atoms: C_20  and  C_21
REMARK                            x       y       z     vdW  Elec       q    Type
REMARK                         _______ _______ _______ _____ _____    ______ ____
ROOT
ATOM     14  C   UNL     1      -1.801   3.209  24.662  0.00  0.00    +0.140 C 
ATOM     15  C   UNL     1      -1.290   3.804  24.913  0.00  0.00    +0.060 C 
ATOM     16  C   UNL     1      -1.746   4.453  25.140  0.00  0.00    +0.170 C 
ATOM     17  O   UNL     1      -1.459   5.170  25.428  0.00  0.00    -0.222 OA
ATOM     18  C   UNL     1      -2.539   4.258  25.030  0.00  0.00    +0.106 C 
ATOM     19  N   UNL     1      -2.575   3.489  24.734  0.00  0.00    -0.260 NA
ENDROOT
BRANCH  14  12
ATOM      9  C   UNL     1      -1.242   1.172  24.348  0.00  0.00    +0.203 A 
ATOM     10  N   UNL     1      -1.239   1.459  23.574  0.00  0.00    -0.056 NA
ATOM     11  O   UNL     1      -1.448   2.257  23.598  0.00  0.00    -0.336 OA
ATOM     12  C   UNL     1      -1.580   2.463  24.386  0.00  0.00    +0.251 A 
ATOM     13  N   UNL     1      -1.453   1.793  24.849  0.00  0.00    -0.190 NA
BRANCH   9   6
ATOM      3  C   UNL     1      -0.712  -1.144  25.042  0.00  0.00    +0.139 A 
ATOM      4  C   UNL     1      -1.343  -0.743  25.390  0.00  0.00    +0.037 A 
ATOM      5  C   UNL     1      -1.520   0.029  25.159  0.00  0.00    +0.006 A 
ATOM      6  C   UNL     1      -1.065   0.400  24.579  0.00  0.00    +0.039 A 
ATOM      7  C   UNL     1      -0.434  -0.001  24.231  0.00  0.00    +0.006 A 
ATOM      8  C   UNL     1      -0.257  -0.773  24.462  0.00  0.00    +0.037 A 
BRANCH   3   2
ATOM      1  C   UNL     1      -1.026  -2.538  25.043  0.00  0.00    +0.252 C 
ATOM      2  O   UNL     1      -0.535  -1.916  25.273  0.00  0.00    -0.471 OA
ENDBRANCH   3   2
ENDBRANCH   9   6
ENDBRANCH  14  12
BRANCH  19  20
ATOM     20  C   UNL     1      -3.261   3.072  24.543  0.00  0.00    +0.101 C 
BRANCH  20  21
ATOM     21  C   UNL     1      -3.959   3.216  24.958  0.00  0.00    +0.014 A 
ATOM     22  C   UNL     1      -4.134   3.895  25.394  0.00  0.00    +0.096 A 
ATOM     23  N   UNL     1      -4.888   3.804  25.715  0.00  0.00    -0.244 NA
ATOM     24  C   UNL     1      -5.180   3.070  25.478  0.00  0.00    +0.081 A 
ATOM     25  C   UNL     1      -4.606   2.707  25.010  0.00  0.00    +0.016 A 
ATOM     26  C   UNL     1      -4.747   1.958  24.692  0.00  0.00    +0.001 A 
ATOM     27  C   UNL     1      -5.460   1.574  24.841  0.00  0.00    +0.000 A 
ATOM     28  C   UNL     1      -6.034   1.937  25.309  0.00  0.00    +0.002 A 
ATOM     29  C   UNL     1      -5.895   2.685  25.628  0.00  0.00    +0.019 A 
ENDBRANCH  20  21
ENDBRANCH  19  20
TORSDOF 5
ENDMDL
MODEL 4
REMARK VINA RESULT:     -11.7      1.808      2.917
REMARK  Name = 
REMARK  5 active torsions:
REMARK  status: ('A' for Active; 'I' for Inactive)
REMARK    1  A    between atoms: O_2  and  C_3
REMARK    2  A    between atoms: C_6  and  C_9
REMARK    3  A    between atoms: C_12  and  C_14
REMARK    4  A    between atoms: N_19  and  C_20
REMARK    5  A    between atoms: C_20  and  C_21
REMARK                            x       y       z     vdW  Elec       q    Type
REMARK                         _______ _______ _______ _____ _____    ______ ____
ROOT
ATOM     14  C   UNL     1      -0.930   1.643  25.282  0.00  0.00    +0.140 C 
ATOM     15  C   UNL     1      -0.230   1.680  25.716  0.00  0.00    +0.060 C 
ATOM     16  C   UNL     1      -0.164   2.441  26.028  0.00  0.00    +0.170 C 
ATOM     17  O   UNL     1       0.454   2.719  26.499  0.00  0.00    -0.222 OA
ATOM     18  C   UNL     1      -0.822   2.874  25.787  0.00  0.00    +0.106 C 
ATOM     19  N   UNL     1      -1.297   2.382  25.326  0.00  0.00    -0.260 NA
ENDROOT
BRANCH  14  12
ATOM      9  C   UNL     1      -1.832  -0.165  24.594  0.00  0.00    +0.203 A 
ATOM     10  N   UNL     1      -1.475   0.108  23.901  0.00  0.00    -0.056 NA
ATOM     11  O   UNL     1      -1.094   0.819  24.076  0.00  0.00    -0.336 OA
ATOM     12  C   UNL     1      -1.216   0.984  24.875  0.00  0.00    +0.251 A 
ATOM     13  N   UNL     1      -1.671   0.377  25.195  0.00  0.00    -0.190 NA
BRANCH   9   6
ATOM      3  C   UNL     1      -3.154  -2.245  24.824  0.00  0.00    +0.139 A 
ATOM      4  C   UNL     1      -3.528  -1.512  24.869  0.00  0.00    +0.037 A 
ATOM      5  C   UNL     1      -3.088  -0.818  24.792  0.00  0.00    +0.006 A 
ATOM      6  C   UNL     1      -2.273  -0.858  24.670  0.00  0.00    +0.039 A 
ATOM      7  C   UNL     1      -1.898  -1.592  24.626  0.00  0.00    +0.006 A 
ATOM      8  C   UNL     1      -2.339  -2.286  24.702  0.00  0.00    +0.037 A 
BRANCH   3   2
ATOM      1  C   UNL     1      -3.969  -3.264  24.242  0.00  0.00    +0.252 C 
ATOM      2  O   UNL     1      -3.594  -2.939  24.901  0.00  0.00    -0.471 OA
ENDBRANCH   3   2
ENDBRANCH   9   6
ENDBRANCH  14  12
BRANCH  19  20
ATOM     20  C   UNL     1      -2.012   2.590  24.970  0.00  0.00    +0.101 C 
BRANCH  20  21
ATOM     21  C   UNL     1      -2.496   3.158  25.320  0.00  0.00    +0.014 A 
ATOM     22  C   UNL     1      -2.244   3.796  25.779  0.00  0.00    +0.096 A 
ATOM     23  N   UNL     1      -2.910   4.220  26.015  0.00  0.00    -0.244 NA
ATOM     24  C   UNL     1      -3.575   3.846  25.702  0.00  0.00    +0.081 A 
ATOM     25  C   UNL     1      -3.319   3.189  25.272  0.00  0.00    +0.016 A 
ATOM     26  C   UNL     1      -3.869   2.705  24.894  0.00  0.00    +0.001 A 
ATOM     27  C   UNL     1      -4.674   2.876  24.944  0.00  0.00    +0.000 A 
ATOM     28  C   UNL     1      -4.930   3.533  25.374  0.00  0.00    +0.002 A 
ATOM     29  C   UNL     1      -4.381   4.018  25.753  0.00  0.00    +0.019 A 
ENDBRANCH  20  21
ENDBRANCH  19  20
TORSDOF 5
ENDMDL
MODEL 5
REMARK VINA RESULT:     -11.6      1.399      5.031
REMARK  Name = 
REMARK  5 active torsions:
REMARK  status: ('A' for Active; 'I' for Inactive)
REMARK    1  A    between atoms: O_2  and  C_3
REMARK    2  A    between atoms: C_6  and  C_9
REMARK    3  A    between atoms: C_12  and  C_14
REMARK    4  A    between atoms: N_19  and  C_20
REMARK    5  A    between atoms: C_20  and  C_21
REMARK                            x       y       z     vdW  Elec       q    Type
REMARK                         _______ _______ _______ _____ _____    ______ ____
ROOT
ATOM     14  C   UNL     1      -4.748   1.753  25.031  0.00  0.00    +0.140 C 
ATOM     15  C   UNL     1      -5.400   2.023  25.458  0.00  0.00    +0.060 C 
ATOM     16  C   UNL     1      -5.833   1.365  25.704  0.00  0.00    +0.170 C 
ATOM     17  O   UNL     1      -6.529   1.381  26.147  0.00  0.00    -0.222 OA
ATOM     18  C   UNL     1      -5.449   0.690  25.429  0.00  0.00    +0.106 C 
ATOM     19  N   UNL     1      -4.778   0.928  25.013  0.00  0.00    -0.260 NA
ENDROOT
BRANCH  14  12
ATOM      9  C   UNL     1      -3.111   3.024  24.518  0.00  0.00    +0.203 A 
ATOM     10  N   UNL     1      -3.436   2.874  23.774  0.00  0.00    -0.056 NA
ATOM     11  O   UNL     1      -4.088   2.379  23.876  0.00  0.00    -0.336 OA
ATOM     12  C   UNL     1      -4.167   2.225  24.683  0.00  0.00    +0.251 A 
ATOM     13  N   UNL     1      -3.564   2.623  25.079  0.00  0.00    -0.190 NA
BRANCH   9   6
ATOM      3  C   UNL     1      -1.130   4.434  24.983  0.00  0.00    +0.139 A 
ATOM      4  C   UNL     1      -1.884   4.704  25.179  0.00  0.00    +0.037 A 
ATOM      5  C   UNL     1      -2.545   4.235  25.024  0.00  0.00    +0.006 A 
ATOM      6  C   UNL     1      -2.451   3.494  24.673  0.00  0.00    +0.039 A 
ATOM      7  C   UNL     1      -1.697   3.224  24.476  0.00  0.00    +0.006 A 
ATOM      8  C   UNL     1      -1.037   3.693  24.631  0.00  0.00    +0.037 A 
BRANCH   3   2
ATOM      1  C   UNL     1      -0.331   5.581  24.687  0.00  0.00    +0.252 C 
ATOM      2  O   UNL     1      -0.470   4.904  25.137  0.00  0.00    -0.471 OA
ENDBRANCH   3   2
ENDBRANCH   9   6
ENDBRANCH  14  12
BRANCH  19  20
ATOM     20  C   UNL     1      -4.233   0.431  24.643  0.00  0.00    +0.101 C 
BRANCH  20  21
ATOM     21  C   UNL     1      -4.004  -0.272  25.006  0.00  0.00    +0.014 A 
ATOM     22  C   UNL     1      -3.779  -0.361  25.796  0.00  0.00    +0.096 A 
ATOM     23  N   UNL     1      -3.596  -1.155  25.921  0.00  0.00    -0.244 NA
ATOM     24  C   UNL     1      -3.706  -1.557  25.211  0.00  0.00    +0.081 A 
ATOM     25  C   UNL     1      -3.958  -1.012  24.645  0.00  0.00    +0.016 A 
ATOM     26  C   UNL     1      -4.114  -1.261  23.874  0.00  0.00    +0.001 A 
ATOM     27  C   UNL     1      -4.018  -2.053  23.668  0.00  0.00    +0.000 A 
ATOM     28  C   UNL     1      -3.766  -2.598  24.234  0.00  0.00    +0.002 A 
ATOM     29  C   UNL     1      -3.610  -2.351  25.005  0.00  0.00    +0.019 A 
ENDBRANCH  20  21
ENDBRANCH  19  20
TORSDOF 5
ENDMDL
