MODEL 1
REMARK VINA RESULT:     -10.0      0.000      0.000
REMARK  Name = 
REMARK  6 active torsions:
REMARK  status: ('A' for Active; 'I' for Inactive)
REMARK    1  A    between atoms: O_2  and  C_3
REMARK    2  A    between atoms: C_6  and  C_7
REMARK    3  A    between atoms: C_7  and  N_8
REMARK    4  A    between atoms: N_8  and  C_9
REMARK    5  A    between atoms: C_9  and  C_10
REMARK    6  A    between atoms: C_17  and  C_18
REMARK                            x       y       z     vdW  Elec       q    Type
REMARK                         _______ _______ _______ _____ _____    ______ ____
ROOT
ATOM      9  C   UNL     1      -4.211   0.981  24.696  0.00  0.00    +0.105 C 
ENDROOT
BRANCH   9  10
ATOM     10  C   UNL     1      -4.010   0.206  24.892  0.00  0.00    +0.075 C 
ATOM     11  C   UNL     1      -3.726  -0.338  25.371  0.00  0.00    +0.018 C 
ATOM     12  C   UNL     1      -3.673  -1.129  25.208  0.00  0.00    +0.008 C 
ATOM     13  C   UNL     1      -3.317  -1.588  25.891  0.00  0.00    +0.018 C 
ATOM     14  C   UNL     1      -3.529  -1.055  25.578  0.00  0.00    +0.072 C 
ATOM     15  N   UNL     1      -3.953  -0.602  24.733  0.00  0.00    -0.272 NA
ATOM     16  C   UNL     1      -4.183  -1.098  24.003  0.00  0.00    +0.076 C 
ATOM     17  C   UNL     1      -3.897  -1.600  24.502  0.00  0.00    +0.038 C 
BRANCH  17  18
ATOM     18  C   UNL     1      -3.816  -2.415  24.399  0.00  0.00    -0.025 C 
ATOM     19  C   UNL     1      -4.116  -2.777  23.722  0.00  0.00    -0.005 C 
ENDBRANCH  17  18
ENDBRANCH   9  10
BRANCH   9   8
ATOM      8  N   UNL     1      -3.763   1.610  24.988  0.00  0.00    -0.212 NA
BRANCH   8   7
ATOM      7  C   UNL     1      -3.955   2.385  24.778  0.00  0.00    +0.115 C 
BRANCH   7   6
ATOM      3  C   UNL     1      -2.436   4.241  25.386  0.00  0.00    +0.139 A 
ATOM      4  C   UNL     1      -3.091   4.074  25.858  0.00  0.00    +0.037 A 
ATOM      5  C   UNL     1      -3.598   3.455  25.655  0.00  0.00    +0.000 A 
ATOM      6  C   UNL     1      -3.448   3.004  24.981  0.00  0.00    -0.005 A 
ATOM     20  C   UNL     1      -2.793   3.172  24.509  0.00  0.00    +0.000 A 
ATOM     21  C   UNL     1      -2.287   3.791  24.711  0.00  0.00    +0.037 A 
BRANCH   3   2
ATOM      1  C   UNL     1      -1.290   5.046  25.101  0.00  0.00    +0.252 C 
ATOM      2  O   UNL     1      -1.930   4.861  25.589  0.00  0.00    -0.471 OA
ENDBRANCH   3   2
ENDBRANCH   7   6
ENDBRANCH   8   7
ENDBRANCH   9   8
TORSDOF 6
ENDMDL
MODEL 2
REMARK VINA RESULT:     -10.0      1.964      5.284
REMARK  Name = 
REMARK  6 active torsions:
REMARK  status: ('A' for Active; 'I' for Inactive)
REMARK    1  A    between atoms: O_2  and  C_3
REMARK    2  A    between atoms: C_6  and  C_7
REMARK    3  A    between atoms: C_7  and  N_8
REMARK    4  A    between atoms: N_8  and  C_9
REMARK    5  A    between atoms: C_9  and  C_10
REMARK    6  A    between atoms: C_17  and  C_18
REMARK                            x       y       z     vdW  Elec       q    Type
REMARK                         _______ _______ _______ _____ _____    ______ ____
ROOT
ATOM      9  C   UNL     1      -3.267   1.925  24.861  0.00  0.00    +0.105 C 
ENDROOT
BRANCH   9  10
ATOM     10  C   UNL     1      -2.586   2.359  25.028  0.00  0.00    +0.075 C 
ATOM     11  C   UNL     1      -1.847   2.428  25.261  0.00  0.00    +0.018 C 
ATOM     12  C   UNL     1      -1.430   3.120  25.307  0.00  0.00    +0.008 C 
ATOM     13  C   UNL     1      -0.592   2.987  25.599  0.00  0.00    +0.018 C 
ATOM     14  C   UNL     1      -1.197   2.811  25.424  0.00  0.00    +0.072 C 
ATOM     15  N   UNL     1      -2.154   3.060  25.078  0.00  0.00    -0.272 NA
ATOM     16  C   UNL     1      -2.374   3.927  24.892  0.00  0.00    +0.076 C 
ATOM     17  C   UNL     1      -1.648   3.951  25.127  0.00  0.00    +0.038 C 
BRANCH  17  18
ATOM     18  C   UNL     1      -1.168   4.619  25.197  0.00  0.00    -0.025 C 
ATOM     19  C   UNL     1      -1.484   5.369  25.062  0.00  0.00    -0.005 C 
ENDBRANCH  17  18
ENDBRANCH   9  10
BRANCH   9   8
ATOM      8  N   UNL     1      -3.248   1.101  24.884  0.00  0.00    -0.212 NA
BRANCH   8   7
ATOM      7  C   UNL     1      -3.948   0.670  24.818  0.00  0.00    +0.115 C 
BRANCH   7   6
ATOM      3  C   UNL     1      -3.867  -1.791  24.573  0.00  0.00    +0.139 A 
ATOM      4  C   UNL     1      -4.069  -1.319  23.927  0.00  0.00    +0.037 A 
ATOM      5  C   UNL     1      -4.096  -0.499  24.008  0.00  0.00    +0.000 A 
ATOM      6  C   UNL     1      -3.921  -0.151  24.736  0.00  0.00    -0.005 A 
ATOM     20  C   UNL     1      -3.720  -0.623  25.382  0.00  0.00    +0.000 A 
ATOM     21  C   UNL     1      -3.693  -1.444  25.300  0.00  0.00    +0.037 A 
BRANCH   3   2
ATOM      1  C   UNL     1      -3.119  -3.008  24.551  0.00  0.00    +0.252 C 
ATOM      2  O   UNL     1      -3.840  -2.612  24.490  0.00  0.00    -0.471 OA
ENDBRANCH   3   2
ENDBRANCH   7   6
ENDBRANCH   8   7
ENDBRANCH   9   8
TORSDOF 6
ENDMDL
MODEL 3
REMARK VINA RESULT:      -9.8      1.781      5.212
REMARK  Name = 
REMARK  6 active torsions:
REMARK  status: ('A' for Active; 'I' for Inactive)
REMARK    1  A    between atoms: O_2  and  C_3
REMARK    2  A    between atoms: C_6  and  C_7
REMARK    3  A    between atoms: C_7  and  N_8
REMARK    4  A    between atoms: N_8  and  C_9
REMARK    5  A    between atoms: C_9  and  C_10
REMARK    6  A    between atoms: C_17  and  C_18
REMARK                            x       y       z     vdW  Elec       q    Type
REMARK                         _______ _______ _______ _____ _____    ______ ____
ROOT
ATOM      9  C   UNL     1      -3.589   2.032  24.384  0.00  0.00    +0.105 C 
ENDROOT
BRANCH   9  10
ATOM     10  C   UNL     1      -3.326   2.681  24.821  0.00  0.00    +0.075 C 
ATOM     11  C   UNL     1      -3.375   3.188  25.409  0.00  0.00    +0.018 C 
ATOM     12  C   UNL     1      -2.857   3.793  25.554  0.00  0.00    +0.008 C 
ATOM     13  C   UNL     1      -3.090   4.265  26.280  0.00  0.00    +0.018 C 
ATOM     14  C   UNL     1      -3.149   3.792  25.834  0.00  0.00    +0.072 C 
ATOM     15  N   UNL     1      -2.802   3.300  24.975  0.00  0.00    -0.272 NA
ATOM     16  C   UNL     1      -2.047   3.582  24.547  0.00  0.00    +0.076 C 
ATOM     17  C   UNL     1      -2.132   4.060  25.137  0.00  0.00    +0.038 C 
BRANCH  17  18
ATOM     18  C   UNL     1      -1.643   4.693  25.340  0.00  0.00    -0.025 C 
ATOM     19  C   UNL     1      -0.963   4.846  24.901  0.00  0.00    -0.005 C 
ENDBRANCH  17  18
ENDBRANCH   9  10
BRANCH   9   8
ATOM      8  N   UNL     1      -3.676   1.298  24.749  0.00  0.00    -0.212 NA
BRANCH   8   7
ATOM      7  C   UNL     1      -4.150   0.718  24.401  0.00  0.00    +0.115 C 
BRANCH   7   6
ATOM      3  C   UNL     1      -3.748  -1.672  24.901  0.00  0.00    +0.139 A 
ATOM      4  C   UNL     1      -3.623  -1.102  25.484  0.00  0.00    +0.037 A 
ATOM      5  C   UNL     1      -3.757  -0.305  25.318  0.00  0.00    +0.000 A 
ATOM      6  C   UNL     1      -4.016  -0.078  24.568  0.00  0.00    -0.005 A 
ATOM     20  C   UNL     1      -4.140  -0.648  23.985  0.00  0.00    +0.000 A 
ATOM     21  C   UNL     1      -4.006  -1.445  24.151  0.00  0.00    +0.037 A 
BRANCH   3   2
ATOM      1  C   UNL     1      -3.062  -2.895  24.626  0.00  0.00    +0.252 C 
ATOM      2  O   UNL     1      -3.614  -2.469  25.068  0.00  0.00    -0.471 OA
ENDBRANCH   3   2
ENDBRANCH   7   6
ENDBRANCH   8   7
ENDBRANCH   9   8
TORSDOF 6
ENDMDL
MODEL 4
REMARK VINA RESULT:      -9.4      1.430      1.753
REMARK  Name = 
REMARK  6 active torsions:
REMARK  status: ('A' for Active; 'I' for Inactive)
REMARK    1  A    between atoms: O_2  and  C_3
REMARK    2  A    between atoms: C_6  and  C_7
REMARK    3  A    between atoms: C_7  and  N_8
REMARK    4  A    between atoms: N_8  and  C_9
REMARK    5  A    between atoms: C_9  and  C_10
REMARK    6  A    between atoms: C_17  and  C_18
REMARK                            x       y       z     vdW  Elec       q    Type
REMARK                         _______ _______ _______ _____ _____    ______ ____
ROOT
ATOM      9  C   UNL     1      -1.763   0.396  25.154  0.00  0.00    +0.105 C 
ENDROOT
BRANCH   9  10
ATOM     10  C   UNL     1      -2.438  -0.006  24.902  0.00  0.00    +0.075 C 
ATOM     11  C   UNL     1      -3.173  -0.037  24.649  0.00  0.00    +0.018 C 
ATOM     12  C   UNL     1      -3.582  -0.713  24.473  0.00  0.00    +0.008 C 
ATOM     13  C   UNL     1      -4.417  -0.535  24.197  0.00  0.00    +0.018 C 
ATOM     14  C   UNL     1      -3.817  -0.389  24.410  0.00  0.00    +0.072 C 
ATOM     15  N   UNL     1      -2.862  -0.690  24.720  0.00  0.00    -0.272 NA
ATOM     16  C   UNL     1      -2.636  -1.574  24.750  0.00  0.00    +0.076 C 
ATOM     17  C   UNL     1      -3.359  -1.561  24.504  0.00  0.00    +0.038 C 
BRANCH  17  18
ATOM     18  C   UNL     1      -3.831  -2.209  24.308  0.00  0.00    -0.025 C 
ATOM     19  C   UNL     1      -3.534  -2.974  24.388  0.00  0.00    -0.005 C 
ENDBRANCH  17  18
ENDBRANCH   9  10
BRANCH   9   8
ATOM      8  N   UNL     1      -1.724   1.218  25.090  0.00  0.00    -0.212 NA
BRANCH   8   7
ATOM      7  C   UNL     1      -1.058   1.621  25.363  0.00  0.00    +0.115 C 
BRANCH   7   6
ATOM      3  C   UNL     1      -0.884   4.071  25.057  0.00  0.00    +0.139 A 
ATOM      4  C   UNL     1      -1.337   3.763  25.676  0.00  0.00    +0.037 A 
ATOM      5  C   UNL     1      -1.394   2.947  25.778  0.00  0.00    +0.000 A 
ATOM      6  C   UNL     1      -1.000   2.438  25.261  0.00  0.00    -0.005 A 
ATOM     20  C   UNL     1      -0.548   2.745  24.644  0.00  0.00    +0.000 A 
ATOM     21  C   UNL     1      -0.490   3.562  24.542  0.00  0.00    +0.037 A 
BRANCH   3   2
ATOM      1  C   UNL     1      -1.491   5.364  25.070  0.00  0.00    +0.252 C 
ATOM      2  O   UNL     1      -0.827   4.887  24.956  0.00  0.00    -0.471 OA
ENDBRANCH   3   2
ENDBRANCH   7   6
ENDBRANCH   8   7
ENDBRANCH   9   8
TORSDOF 6
ENDMDL
