MODEL 1
REMARK VINA RESULT:     -10.0      0.000      0.000
REMARK  Name = 
REMARK  8 active torsions:
REMARK  status: ('A' for Active; 'I' for Inactive)
REMARK    1  A    between atoms: C_4  and  C_26
REMARK    2  A    between atoms: C_6  and  C_8
REMARK    3  A    between atoms: C_15  and  C_16
REMARK    4  A    between atoms: C_16  and  N_17
REMARK    5  A    between atoms: C_18  and  C_20
REMARK    6  A    between atoms: C_20  and  S_21
REMARK    7  A    between atoms: S_21  and  C_22
REMARK    8  A    between atoms: C_22  and  C_23
REMARK                            x       y       z     vdW  Elec       q    Type
REMARK                         _______ _______ _______ _____ _____    ______ ____
ROOT
ATOM      8  C   UNL     1      -0.417  -0.512  24.193  0.00  0.00    +0.056 C 
ATOM      9  C   UNL     1       0.055  -1.083  23.956  0.00  0.00    +0.078 C 
ATOM     10  N   UNL     1       0.121  -0.283  23.762  0.00  0.00    -0.272 NA
ATOM     11  C   UNL     1      -0.666   0.217  24.240  0.00  0.00    +0.072 C 
ATOM     12  C   UNL     1      -0.991   0.768  24.374  0.00  0.00    +0.018 C 
ATOM     13  C   UNL     1      -0.346   0.271  23.998  0.00  0.00    +0.010 C 
ATOM     14  C   UNL     1       0.233   0.702  23.500  0.00  0.00    +0.018 C 
ATOM     15  C   UNL     1       0.719   0.172  23.244  0.00  0.00    +0.079 C 
ENDROOT
BRANCH   8   6
ATOM      1  C   UNL     1      -1.565  -0.676  26.806  0.00  0.00    +0.074 C 
ATOM      2  C   UNL     1      -1.618  -0.804  25.992  0.00  0.00    +0.139 A 
ATOM      3  N   UNL     1      -2.300  -1.142  25.673  0.00  0.00    -0.231 NA
ATOM      4  C   UNL     1      -2.354  -1.270  24.859  0.00  0.00    +0.084 A 
ATOM      5  C   UNL     1      -1.726  -1.060  24.367  0.00  0.00    +0.034 A 
ATOM      6  C   UNL     1      -1.045  -0.722  24.687  0.00  0.00    +0.063 A 
ATOM      7  N   UNL     1      -0.991  -0.594  25.500  0.00  0.00    -0.235 NA
BRANCH   4  26
ATOM     26  C   UNL     1      -3.035  -1.608  24.539  0.00  0.00    +0.018 A 
ATOM     27  C   UNL     1      -3.095  -2.427  24.469  0.00  0.00    +0.001 A 
ATOM     28  C   UNL     1      -3.776  -2.765  24.149  0.00  0.00    +0.000 A 
ATOM     29  C   UNL     1      -4.397  -2.283  23.898  0.00  0.00    +0.000 A 
ATOM     30  C   UNL     1      -4.337  -1.463  23.967  0.00  0.00    +0.000 A 
ATOM     31  C   UNL     1      -3.655  -1.125  24.288  0.00  0.00    +0.001 A 
ENDBRANCH   4  26
ENDBRANCH   8   6
BRANCH  15  16
ATOM     16  C   UNL     1       1.390   0.071  22.777  0.00  0.00    +0.131 C 
BRANCH  16  17
ATOM     17  N   UNL     1       2.105   0.419  22.998  0.00  0.00    -0.203 NA
ATOM     18  C   UNL     1       2.758   0.376  22.496  0.00  0.00    +0.252 C 
ATOM     19  O   UNL     1       2.697  -0.015  21.772  0.00  0.00    -0.272 OA
BRANCH  18  20
ATOM     20  C   UNL     1       3.472   0.724  22.718  0.00  0.00    +0.145 C 
BRANCH  20  21
ATOM     21  S   UNL     1       4.111   0.250  22.939  0.00  0.00    -0.119 S 
BRANCH  21  22
ATOM     22  C   UNL     1       4.796   0.596  23.242  0.00  0.00    +0.172 C 
BRANCH  22  23
ATOM     23  C   UNL     1       5.398   0.123  23.546  0.00  0.00    +0.376 C 
ATOM     24  O   UNL     1       5.438  -0.025  24.357  0.00  0.00    -0.245 OA
ATOM     25  O   UNL     1       5.961  -0.204  23.039  0.00  0.00    -0.245 OA
ENDBRANCH  22  23
ENDBRANCH  21  22
ENDBRANCH  20  21
ENDBRANCH  18  20
ENDBRANCH  16  17
ENDBRANCH  15  16
TORSDOF 8
ENDMDL
MODEL 2
REMARK VINA RESULT:      -9.3      1.947      2.706
REMARK  Name = 
REMARK  8 active torsions:
REMARK  status: ('A' for Active; 'I' for Inactive)
REMARK    1  A    between atoms: C_4  and  C_26
REMARK    2  A    between atoms: C_6  and  C_8
REMARK    3  A    between atoms: C_15  and  C_16
REMARK    4  A    between atoms: C_16  and  N_17
REMARK    5  A    between atoms: C_18  and  C_20
REMARK    6  A    between atoms: C_20  and  S_21
REMARK    7  A    between atoms: S_21  and  C_22
REMARK    8  A    between atoms: C_22  and  C_23
REMARK                            x       y       z     vdW  Elec       q    Type
REMARK                         _______ _______ _______ _____ _____    ______ ____
ROOT
ATOM      8  C   UNL     1      -1.422   0.503  24.026  0.00  0.00    +0.056 C 
ATOM      9  C   UNL     1      -1.322   0.517  23.254  0.00  0.00    +0.078 C 
ATOM     10  N   UNL     1      -0.737   0.371  23.819  0.00  0.00    -0.272 NA
ATOM     11  C   UNL     1      -1.196   0.423  24.760  0.00  0.00    +0.072 C 
ATOM     12  C   UNL     1      -1.162   0.387  25.411  0.00  0.00    +0.018 C 
ATOM     13  C   UNL     1      -0.843   0.359  24.574  0.00  0.00    +0.010 C 
ATOM     14  C   UNL     1       0.014   0.186  24.493  0.00  0.00    +0.018 C 
ATOM     15  C   UNL     1       0.154   0.190  23.742  0.00  0.00    +0.079 C 
ENDROOT
BRANCH   8   6
ATOM      1  C   UNL     1      -3.880  -0.462  25.119  0.00  0.00    +0.074 C 
ATOM      2  C   UNL     1      -3.411   0.165  24.857  0.00  0.00    +0.139 A 
ATOM      3  N   UNL     1      -3.705   0.935  24.880  0.00  0.00    -0.231 NA
ATOM      4  C   UNL     1      -3.236   1.562  24.618  0.00  0.00    +0.084 A 
ATOM      5  C   UNL     1      -2.476   1.418  24.334  0.00  0.00    +0.034 A 
ATOM      6  C   UNL     1      -2.183   0.647  24.311  0.00  0.00    +0.063 A 
ATOM      7  N   UNL     1      -2.651   0.020  24.573  0.00  0.00    -0.235 NA
BRANCH   4  26
ATOM     26  C   UNL     1      -3.529   2.334  24.641  0.00  0.00    +0.018 A 
ATOM     27  C   UNL     1      -3.547   2.747  25.354  0.00  0.00    +0.001 A 
ATOM     28  C   UNL     1      -3.839   3.518  25.377  0.00  0.00    +0.000 A 
ATOM     29  C   UNL     1      -4.114   3.876  24.686  0.00  0.00    +0.000 A 
ATOM     30  C   UNL     1      -4.096   3.462  23.972  0.00  0.00    +0.000 A 
ATOM     31  C   UNL     1      -3.804   2.691  23.950  0.00  0.00    +0.001 A 
ENDBRANCH   4  26
ENDBRANCH   8   6
BRANCH  15  16
ATOM     16  C   UNL     1       0.757   0.091  23.189  0.00  0.00    +0.131 C 
BRANCH  16  17
ATOM     17  N   UNL     1       1.461   0.513  23.265  0.00  0.00    -0.203 NA
ATOM     18  C   UNL     1       2.092   0.358  22.757  0.00  0.00    +0.252 C 
ATOM     19  O   UNL     1       2.018  -0.220  22.172  0.00  0.00    -0.272 OA
BRANCH  18  20
ATOM     20  C   UNL     1       2.796   0.780  22.833  0.00  0.00    +0.145 C 
BRANCH  20  21
ATOM     21  S   UNL     1       3.516   0.379  22.880  0.00  0.00    -0.119 S 
BRANCH  21  22
ATOM     22  C   UNL     1       4.224   0.802  22.902  0.00  0.00    +0.172 C 
BRANCH  22  23
ATOM     23  C   UNL     1       4.893   0.469  23.250  0.00  0.00    +0.376 C 
ATOM     24  O   UNL     1       5.322  -0.111  22.849  0.00  0.00    -0.245 OA
ATOM     25  O   UNL     1       5.133   0.715  24.000  0.00  0.00    -0.245 OA
ENDBRANCH  22  23
ENDBRANCH  21  22
ENDBRANCH  20  21
ENDBRANCH  18  20
ENDBRANCH  16  17
ENDBRANCH  15  16
TORSDOF 8
ENDMDL
MODEL 3
REMARK VINA RESULT:      -9.3      2.702      3.411
REMARK  Name = 
REMARK  8 active torsions:
REMARK  status: ('A' for Active; 'I' for Inactive)
REMARK    1  A    between atoms: C_4  and  C_26
REMARK    2  A    between atoms: C_6  and  C_8
REMARK    3  A    between atoms: C_15  and  C_16
REMARK    4  A    between atoms: C_16  and  N_17
REMARK    5  A    between atoms: C_18  and  C_20
REMARK    6  A    between atoms: C_20  and  S_21
REMARK    7  A    between atoms: S_21  and  C_22
REMARK    8  A    between atoms: C_22  and  C_23
REMARK                            x       y       z     vdW  Elec       q    Type
REMARK                         _______ _______ _______ _____ _____    ______ ____
ROOT
ATOM      8  C   UNL     1      -1.564   2.087  24.324  0.00  0.00    +0.056 C 
ATOM      9  C   UNL     1      -1.541   2.001  23.551  0.00  0.00    +0.078 C 
ATOM     10  N   UNL     1      -1.083   1.589  24.101  0.00  0.00    -0.272 NA
ATOM     11  C   UNL     1      -1.355   1.937  25.052  0.00  0.00    +0.072 C 
ATOM     12  C   UNL     1      -1.288   1.924  25.702  0.00  0.00    +0.018 C 
ATOM     13  C   UNL     1      -1.111   1.679  24.857  0.00  0.00    +0.010 C 
ATOM     14  C   UNL     1      -0.498   1.060  24.756  0.00  0.00    +0.018 C 
ATOM     15  C   UNL     1      -0.444   0.945  24.003  0.00  0.00    +0.079 C 
ENDROOT
BRANCH   8   6
ATOM      1  C   UNL     1      -2.101   4.701  25.346  0.00  0.00    +0.074 C 
ATOM      2  C   UNL     1      -2.364   3.948  25.138  0.00  0.00    +0.139 A 
ATOM      3  N   UNL     1      -3.159   3.748  25.232  0.00  0.00    -0.231 NA
ATOM      4  C   UNL     1      -3.423   2.995  25.024  0.00  0.00    +0.084 A 
ATOM      5  C   UNL     1      -2.891   2.441  24.721  0.00  0.00    +0.034 A 
ATOM      6  C   UNL     1      -2.096   2.641  24.627  0.00  0.00    +0.063 A 
ATOM      7  N   UNL     1      -1.833   3.394  24.835  0.00  0.00    -0.235 NA
BRANCH   4  26
ATOM     26  C   UNL     1      -4.218   2.794  25.118  0.00  0.00    +0.018 A 
ATOM     27  C   UNL     1      -4.625   3.032  25.795  0.00  0.00    +0.001 A 
ATOM     28  C   UNL     1      -5.420   2.832  25.889  0.00  0.00    +0.000 A 
ATOM     29  C   UNL     1      -5.807   2.394  25.307  0.00  0.00    +0.000 A 
ATOM     30  C   UNL     1      -5.399   2.156  24.630  0.00  0.00    +0.000 A 
ATOM     31  C   UNL     1      -4.604   2.356  24.536  0.00  0.00    +0.001 A 
ENDBRANCH   4  26
ENDBRANCH   8   6
BRANCH  15  16
ATOM     16  C   UNL     1      -0.044   0.501  23.436  0.00  0.00    +0.131 C 
BRANCH  16  17
ATOM     17  N   UNL     1       0.749   0.304  23.549  0.00  0.00    -0.203 NA
ATOM     18  C   UNL     1       1.186  -0.018  22.928  0.00  0.00    +0.252 C 
ATOM     19  O   UNL     1       0.830  -0.144  22.194  0.00  0.00    -0.272 OA
BRANCH  18  20
ATOM     20  C   UNL     1       1.979  -0.214  23.041  0.00  0.00    +0.145 C 
BRANCH  20  21
ATOM     21  S   UNL     1       2.571   0.237  22.685  0.00  0.00    -0.119 S 
BRANCH  21  22
ATOM     22  C   UNL     1       3.365   0.053  22.814  0.00  0.00    +0.172 C 
BRANCH  22  23
ATOM     23  C   UNL     1       3.946   0.625  22.693  0.00  0.00    +0.376 C 
ATOM     24  O   UNL     1       4.402   0.892  23.327  0.00  0.00    -0.245 OA
ATOM     25  O   UNL     1       4.073   0.931  21.938  0.00  0.00    -0.245 OA
ENDBRANCH  22  23
ENDBRANCH  21  22
ENDBRANCH  20  21
ENDBRANCH  18  20
ENDBRANCH  16  17
ENDBRANCH  15  16
TORSDOF 8
ENDMDL
MODEL 4
REMARK VINA RESULT:      -9.2      3.736      5.391
REMARK  Name = 
REMARK  8 active torsions:
REMARK  status: ('A' for Active; 'I' for Inactive)
REMARK    1  A    between atoms: C_4  and  C_26
REMARK    2  A    between atoms: C_6  and  C_8
REMARK    3  A    between atoms: C_15  and  C_16
REMARK    4  A    between atoms: C_16  and  N_17
REMARK    5  A    between atoms: C_18  and  C_20
REMARK    6  A    between atoms: C_20  and  S_21
REMARK    7  A    between atoms: S_21  and  C_22
REMARK    8  A    between atoms: C_22  and  C_23
REMARK                            x       y       z     vdW  Elec       q    Type
REMARK                         _______ _______ _______ _____ _____    ______ ____
ROOT
ATOM      8  C   UNL     1      -1.285   1.969  24.851  0.00  0.00    +0.056 C 
ATOM      9  C   UNL     1      -1.295   1.489  25.463  0.00  0.00    +0.078 C 
ATOM     10  N   UNL     1      -0.997   1.316  24.713  0.00  0.00    -0.272 NA
ATOM     11  C   UNL     1      -1.134   2.170  24.121  0.00  0.00    +0.072 C 
ATOM     12  C   UNL     1      -1.073   2.481  23.549  0.00  0.00    +0.018 C 
ATOM     13  C   UNL     1      -0.991   1.792  24.117  0.00  0.00    +0.010 C 
ATOM     14  C   UNL     1      -0.618   1.067  23.793  0.00  0.00    +0.018 C 
ATOM     15  C   UNL     1      -0.608   0.566  24.369  0.00  0.00    +0.079 C 
ENDROOT
BRANCH   8   6
ATOM      1  C   UNL     1      -0.922   4.792  25.113  0.00  0.00    +0.074 C 
ATOM      2  C   UNL     1      -1.420   4.135  25.089  0.00  0.00    +0.139 A 
ATOM      3  N   UNL     1      -2.235   4.233  25.171  0.00  0.00    -0.231 NA
ATOM      4  C   UNL     1      -2.734   3.576  25.146  0.00  0.00    +0.084 A 
ATOM      5  C   UNL     1      -2.417   2.822  25.040  0.00  0.00    +0.034 A 
ATOM      6  C   UNL     1      -1.602   2.725  24.957  0.00  0.00    +0.063 A 
ATOM      7  N   UNL     1      -1.104   3.381  24.982  0.00  0.00    -0.235 NA
BRANCH   4  26
ATOM     26  C   UNL     1      -3.549   3.673  25.228  0.00  0.00    +0.018 A 
ATOM     27  C   UNL     1      -3.889   3.683  25.980  0.00  0.00    +0.001 A 
ATOM     28  C   UNL     1      -4.705   3.780  26.062  0.00  0.00    +0.000 A 
ATOM     29  C   UNL     1      -5.179   3.867  25.392  0.00  0.00    +0.000 A 
ATOM     30  C   UNL     1      -4.839   3.857  24.641  0.00  0.00    +0.000 A 
ATOM     31  C   UNL     1      -4.023   3.760  24.559  0.00  0.00    +0.001 A 
ENDBRANCH   4  26
ENDBRANCH   8   6
BRANCH  15  16
ATOM     16  C   UNL     1      -0.380  -0.202  24.564  0.00  0.00    +0.131 C 
BRANCH  16  17
ATOM     17  N   UNL     1      -0.853  -0.842  24.344  0.00  0.00    -0.203 NA
ATOM     18  C   UNL     1      -0.789  -1.559  24.746  0.00  0.00    +0.252 C 
ATOM     19  O   UNL     1      -0.253  -1.637  25.369  0.00  0.00    -0.272 OA
BRANCH  18  20
ATOM     20  C   UNL     1      -1.261  -2.198  24.526  0.00  0.00    +0.145 C 
BRANCH  20  21
ATOM     21  S   UNL     1      -2.055  -2.221  24.749  0.00  0.00    -0.119 S 
BRANCH  21  22
ATOM     22  C   UNL     1      -2.554  -2.802  24.441  0.00  0.00    +0.172 C 
BRANCH  22  23
ATOM     23  C   UNL     1      -3.361  -2.785  24.610  0.00  0.00    +0.376 C 
ATOM     24  O   UNL     1      -3.910  -2.732  23.996  0.00  0.00    -0.245 OA
ATOM     25  O   UNL     1      -3.619  -2.821  25.392  0.00  0.00    -0.245 OA
ENDBRANCH  22  23
ENDBRANCH  21  22
ENDBRANCH  20  21
ENDBRANCH  18  20
ENDBRANCH  16  17
ENDBRANCH  15  16
TORSDOF 8
ENDMDL
MODEL 5
REMARK VINA RESULT:      -8.8      3.796      5.340
REMARK  Name = 
REMARK  8 active torsions:
REMARK  status: ('A' for Active; 'I' for Inactive)
REMARK    1  A    between atoms: C_4  and  C_26
REMARK    2  A    between atoms: C_6  and  C_8
REMARK    3  A    between atoms: C_15  and  C_16
REMARK    4  A    between atoms: C_16  and  N_17
REMARK    5  A    between atoms: C_18  and  C_20
REMARK    6  A    between atoms: C_20  and  S_21
REMARK    7  A    between atoms: S_21  and  C_22
REMARK    8  A    between atoms: C_22  and  C_23
REMARK                            x       y       z     vdW  Elec       q    Type
REMARK                         _______ _______ _______ _____ _____    ______ ____
ROOT
ATOM      8  C   UNL     1      -3.794   0.296  24.395  0.00  0.00    +0.056 C 
ATOM      9  C   UNL     1      -3.511   0.802  23.877  0.00  0.00    +0.078 C 
ATOM     10  N   UNL     1      -4.029   0.976  24.495  0.00  0.00    -0.272 NA
ATOM     11  C   UNL     1      -4.214   0.079  25.005  0.00  0.00    +0.072 C 
ATOM     12  C   UNL     1      -4.509  -0.250  25.486  0.00  0.00    +0.018 C 
ATOM     13  C   UNL     1      -4.302   0.474  24.999  0.00  0.00    +0.010 C 
ATOM     14  C   UNL     1      -4.674   1.228  25.252  0.00  0.00    +0.018 C 
ATOM     15  C   UNL     1      -4.419   1.756  24.764  0.00  0.00    +0.079 C 
ENDROOT
BRANCH   8   6
ATOM      1  C   UNL     1      -4.368  -2.411  23.680  0.00  0.00    +0.074 C 
ATOM      2  C   UNL     1      -3.842  -1.844  23.966  0.00  0.00    +0.139 A 
ATOM      3  N   UNL     1      -3.077  -2.064  24.181  0.00  0.00    -0.231 NA
ATOM      4  C   UNL     1      -2.549  -1.497  24.467  0.00  0.00    +0.084 A 
ATOM      5  C   UNL     1      -2.788  -0.711  24.538  0.00  0.00    +0.034 A 
ATOM      6  C   UNL     1      -3.554  -0.492  24.324  0.00  0.00    +0.063 A 
ATOM      7  N   UNL     1      -4.081  -1.058  24.038  0.00  0.00    -0.235 NA
BRANCH   4  26
ATOM     26  C   UNL     1      -1.783  -1.717  24.682  0.00  0.00    +0.018 A 
ATOM     27  C   UNL     1      -1.662  -2.387  25.147  0.00  0.00    +0.001 A 
ATOM     28  C   UNL     1      -0.896  -2.606  25.362  0.00  0.00    +0.000 A 
ATOM     29  C   UNL     1      -0.252  -2.155  25.111  0.00  0.00    +0.000 A 
ATOM     30  C   UNL     1      -0.374  -1.485  24.646  0.00  0.00    +0.000 A 
ATOM     31  C   UNL     1      -1.140  -1.265  24.431  0.00  0.00    +0.001 A 
ENDBRANCH   4  26
ENDBRANCH   8   6
BRANCH  15  16
ATOM     16  C   UNL     1      -4.468   2.559  24.584  0.00  0.00    +0.131 C 
BRANCH  16  17
ATOM     17  N   UNL     1      -3.973   3.099  24.965  0.00  0.00    -0.203 NA
ATOM     18  C   UNL     1      -3.816   3.830  24.618  0.00  0.00    +0.252 C 
ATOM     19  O   UNL     1      -4.154   4.023  23.890  0.00  0.00    -0.272 OA
BRANCH  18  20
ATOM     20  C   UNL     1      -3.321   4.369  24.998  0.00  0.00    +0.145 C 
BRANCH  20  21
ATOM     21  S   UNL     1      -2.510   4.362  24.847  0.00  0.00    -0.119 S 
BRANCH  21  22
ATOM     22  C   UNL     1      -1.996   4.786  25.334  0.00  0.00    +0.172 C 
BRANCH  22  23
ATOM     23  C   UNL     1      -1.193   4.825  25.152  0.00  0.00    +0.376 C 
ATOM     24  O   UNL     1      -0.865   5.532  24.881  0.00  0.00    -0.245 OA
ATOM     25  O   UNL     1      -0.717   4.157  25.240  0.00  0.00    -0.245 OA
ENDBRANCH  22  23
ENDBRANCH  21  22
ENDBRANCH  20  21
ENDBRANCH  18  20
ENDBRANCH  16  17
ENDBRANCH  15  16
TORSDOF 8
ENDMDL
MODEL 6
REMARK VINA RESULT:      -8.7      3.847      5.327
REMARK  Name = 
REMARK  8 active torsions:
REMARK  status: ('A' for Active; 'I' for Inactive)
REMARK    1  A    between atoms: C_4  and  C_26
REMARK    2  A    between atoms: C_6  and  C_8
REMARK    3  A    between atoms: C_15  and  C_16
REMARK    4  A    between atoms: C_16  and  N_17
REMARK    5  A    between atoms: C_18  and  C_20
REMARK    6  A    between atoms: C_20  and  S_21
REMARK    7  A    between atoms: S_21  and  C_22
REMARK    8  A    between atoms: C_22  and  C_23
REMARK                            x       y       z     vdW  Elec       q    Type
REMARK                         _______ _______ _______ _____ _____    ______ ____
ROOT
ATOM      8  C   UNL     1      -1.465   0.499  24.998  0.00  0.00    +0.056 C 
ATOM      9  C   UNL     1      -1.888   0.832  25.561  0.00  0.00    +0.078 C 
ATOM     10  N   UNL     1      -1.437   1.226  24.993  0.00  0.00    -0.272 NA
ATOM     11  C   UNL     1      -0.994   0.494  24.387  0.00  0.00    +0.072 C 
ATOM     12  C   UNL     1      -0.611   0.328  23.884  0.00  0.00    +0.018 C 
ATOM     13  C   UNL     1      -1.025   0.893  24.444  0.00  0.00    +0.010 C 
ATOM     14  C   UNL     1      -0.887   1.748  24.302  0.00  0.00    +0.018 C 
ATOM     15  C   UNL     1      -1.289   2.113  24.839  0.00  0.00    +0.079 C 
ENDROOT
BRANCH   8   6
ATOM      1  C   UNL     1      -0.099  -1.992  25.308  0.00  0.00    +0.074 C 
ATOM      2  C   UNL     1      -0.782  -1.571  25.118  0.00  0.00    +0.139 A 
ATOM      3  N   UNL     1      -1.465  -1.974  24.892  0.00  0.00    -0.231 NA
ATOM      4  C   UNL     1      -2.149  -1.553  24.701  0.00  0.00    +0.084 A 
ATOM      5  C   UNL     1      -2.149  -0.729  24.737  0.00  0.00    +0.034 A 
ATOM      6  C   UNL     1      -1.465  -0.326  24.963  0.00  0.00    +0.063 A 
ATOM      7  N   UNL     1      -0.782  -0.747  25.153  0.00  0.00    -0.235 NA
BRANCH   4  26
ATOM     26  C   UNL     1      -2.833  -1.956  24.475  0.00  0.00    +0.018 A 
ATOM     27  C   UNL     1      -2.893  -2.769  24.601  0.00  0.00    +0.001 A 
ATOM     28  C   UNL     1      -3.577  -3.171  24.375  0.00  0.00    +0.000 A 
ATOM     29  C   UNL     1      -4.200  -2.761  24.023  0.00  0.00    +0.000 A 
ATOM     30  C   UNL     1      -4.139  -1.948  23.897  0.00  0.00    +0.000 A 
ATOM     31  C   UNL     1      -3.456  -1.545  24.123  0.00  0.00    +0.001 A 
ENDBRANCH   4  26
ENDBRANCH   8   6
BRANCH  15  16
ATOM     16  C   UNL     1      -1.477   2.866  25.116  0.00  0.00    +0.131 C 
BRANCH  16  17
ATOM     17  N   UNL     1      -2.217   3.193  24.954  0.00  0.00    -0.203 NA
ATOM     18  C   UNL     1      -2.476   3.855  25.372  0.00  0.00    +0.252 C 
ATOM     19  O   UNL     1      -1.996   4.190  25.953  0.00  0.00    -0.272 OA
BRANCH  18  20
ATOM     20  C   UNL     1      -3.216   4.182  25.209  0.00  0.00    +0.145 C 
BRANCH  20  21
ATOM     21  S   UNL     1      -3.889   3.886  25.583  0.00  0.00    -0.119 S 
BRANCH  21  22
ATOM     22  C   UNL     1      -4.608   3.859  25.179  0.00  0.00    +0.172 C 
BRANCH  22  23
ATOM     23  C   UNL     1      -5.298   3.650  25.577  0.00  0.00    +0.376 C 
ATOM     24  O   UNL     1      -5.434   2.862  25.783  0.00  0.00    -0.245 OA
ATOM     25  O   UNL     1      -5.853   4.228  25.771  0.00  0.00    -0.245 OA
ENDBRANCH  22  23
ENDBRANCH  21  22
ENDBRANCH  20  21
ENDBRANCH  18  20
ENDBRANCH  16  17
ENDBRANCH  15  16
TORSDOF 8
ENDMDL
MODEL 7
REMARK VINA RESULT:      -8.6      3.714      5.737
REMARK  Name = 
REMARK  8 active torsions:
REMARK  status: ('A' for Active; 'I' for Inactive)
REMARK    1  A    between atoms: C_4  and  C_26
REMARK    2  A    between atoms: C_6  and  C_8
REMARK    3  A    between atoms: C_15  and  C_16
REMARK    4  A    between atoms: C_16  and  N_17
REMARK    5  A    between atoms: C_18  and  C_20
REMARK    6  A    between atoms: C_20  and  S_21
REMARK    7  A    between atoms: S_21  and  C_22
REMARK    8  A    between atoms: C_22  and  C_23
REMARK                            x       y       z     vdW  Elec       q    Type
REMARK                         _______ _______ _______ _____ _____    ______ ____
ROOT
ATOM      8  C   UNL     1      -3.830   1.593  24.867  0.00  0.00    +0.056 C 
ATOM      9  C   UNL     1      -3.721   1.080  25.442  0.00  0.00    +0.078 C 
ATOM     10  N   UNL     1      -3.871   0.900  24.651  0.00  0.00    -0.272 NA
ATOM     11  C   UNL     1      -3.968   1.810  24.139  0.00  0.00    +0.072 C 
ATOM     12  C   UNL     1      -4.073   2.143  23.587  0.00  0.00    +0.018 C 
ATOM     13  C   UNL     1      -3.977   1.409  24.093  0.00  0.00    +0.010 C 
ATOM     14  C   UNL     1      -4.056   0.641  23.676  0.00  0.00    +0.018 C 
ATOM     15  C   UNL     1      -3.955   0.105  24.211  0.00  0.00    +0.079 C 
ENDROOT
BRANCH   8   6
ATOM      1  C   UNL     1      -5.129   4.007  25.678  0.00  0.00    +0.074 C 
ATOM      2  C   UNL     1      -4.442   3.600  25.468  0.00  0.00    +0.139 A 
ATOM      3  N   UNL     1      -3.718   3.995  25.455  0.00  0.00    -0.231 NA
ATOM      4  C   UNL     1      -3.031   3.589  25.246  0.00  0.00    +0.084 A 
ATOM      5  C   UNL     1      -3.068   2.789  25.050  0.00  0.00    +0.034 A 
ATOM      6  C   UNL     1      -3.793   2.395  25.063  0.00  0.00    +0.063 A 
ATOM      7  N   UNL     1      -4.479   2.800  25.272  0.00  0.00    -0.235 NA
BRANCH   4  26
ATOM     26  C   UNL     1      -2.306   3.984  25.233  0.00  0.00    +0.018 A 
ATOM     27  C   UNL     1      -2.253   4.737  24.902  0.00  0.00    +0.001 A 
ATOM     28  C   UNL     1      -1.528   5.132  24.889  0.00  0.00    +0.000 A 
ATOM     29  C   UNL     1      -0.857   4.772  25.206  0.00  0.00    +0.000 A 
ATOM     30  C   UNL     1      -0.910   4.018  25.537  0.00  0.00    +0.000 A 
ATOM     31  C   UNL     1      -1.635   3.623  25.550  0.00  0.00    +0.001 A 
ENDBRANCH   4  26
ENDBRANCH   8   6
BRANCH  15  16
ATOM     16  C   UNL     1      -3.934  -0.711  24.324  0.00  0.00    +0.131 C 
BRANCH  16  17
ATOM     17  N   UNL     1      -3.220  -1.119  24.256  0.00  0.00    -0.203 NA
ATOM     18  C   UNL     1      -3.175  -1.911  24.482  0.00  0.00    +0.252 C 
ATOM     19  O   UNL     1      -3.844  -2.296  24.774  0.00  0.00    -0.272 OA
BRANCH  18  20
ATOM     20  C   UNL     1      -2.461  -2.319  24.414  0.00  0.00    +0.145 C 
BRANCH  20  21
ATOM     21  S   UNL     1      -1.816  -2.102  24.882  0.00  0.00    -0.119 S 
BRANCH  21  22
ATOM     22  C   UNL     1      -1.048  -2.232  24.610  0.00  0.00    +0.172 C 
BRANCH  22  23
ATOM     23  C   UNL     1      -0.413  -1.847  24.968  0.00  0.00    +0.376 C 
ATOM     24  O   UNL     1      -0.061  -1.199  24.598  0.00  0.00    -0.245 OA
ATOM     25  O   UNL     1      -0.130  -2.109  25.697  0.00  0.00    -0.245 OA
ENDBRANCH  22  23
ENDBRANCH  21  22
ENDBRANCH  20  21
ENDBRANCH  18  20
ENDBRANCH  16  17
ENDBRANCH  15  16
TORSDOF 8
ENDMDL
