MODEL 1
REMARK VINA RESULT:      -9.3      0.000      0.000
REMARK  Name = 
REMARK  1 active torsions:
REMARK  status: ('A' for Active; 'I' for Inactive)
REMARK    1  A    between atoms: C_2  and  C_13
REMARK                            x       y       z     vdW  Elec       q    Type
REMARK                         _______ _______ _______ _____ _____    ______ ____
ROOT
ATOM      1  O   UNL     1      -2.609   0.508  23.893  0.00  0.00    -0.270 OA
ATOM      2  C   UNL     1      -3.303   0.317  24.298  0.00  0.00    +0.251 C 
ATOM      3  N   UNL     1      -3.797   0.917  24.576  0.00  0.00    -0.273 N 
ATOM      4  C   UNL     1      -4.490   0.725  24.981  0.00  0.00    +0.115 C 
ATOM      5  C   UNL     1      -4.984   1.324  25.259  0.00  0.00    +0.117 C 
ATOM      6  N   UNL     1      -4.785   2.115  25.133  0.00  0.00    -0.259 N 
ATOM      7  C   UNL     1      -4.092   2.307  24.729  0.00  0.00    +0.118 C 
ATOM      8  C   UNL     1      -4.039   3.128  24.688  0.00  0.00    +0.138 C 
ATOM      9  N   UNL     1      -4.700   3.445  25.066  0.00  0.00    -0.187 NA
ATOM     10  C   UNL     1      -5.160   2.819  25.341  0.00  0.00    +0.323 C 
ATOM     11  O   UNL     1      -5.873   2.885  25.753  0.00  0.00    -0.251 OA
ATOM     12  C   UNL     1      -3.597   1.707  24.450  0.00  0.00    +0.115 C 
ENDROOT
BRANCH   2  13
ATOM     13  C   UNL     1      -3.502  -0.473  24.424  0.00  0.00    +0.073 A 
ATOM     14  C   UNL     1      -3.946  -0.881  23.860  0.00  0.00    +0.008 A 
ATOM     15  C   UNL     1      -4.146  -1.672  23.986  0.00  0.00    +0.021 A 
ATOM     16  C   UNL     1      -3.903  -2.054  24.675  0.00  0.00    +0.099 A 
ATOM     17  N   UNL     1      -3.459  -1.647  25.238  0.00  0.00    -0.242 NA
ATOM     18  C   UNL     1      -3.259  -0.856  25.113  0.00  0.00    +0.103 A 
ENDBRANCH   2  13
TORSDOF 1
ENDMDL
MODEL 2
REMARK VINA RESULT:      -9.1      1.316      1.961
REMARK  Name = 
REMARK  1 active torsions:
REMARK  status: ('A' for Active; 'I' for Inactive)
REMARK    1  A    between atoms: C_2  and  C_13
REMARK                            x       y       z     vdW  Elec       q    Type
REMARK                         _______ _______ _______ _____ _____    ______ ____
ROOT
ATOM      1  O   UNL     1      -4.882   0.388  25.300  0.00  0.00    -0.270 OA
ATOM      2  C   UNL     1      -4.154   0.162  24.985  0.00  0.00    +0.251 C 
ATOM      3  N   UNL     1      -3.600   0.735  24.771  0.00  0.00    -0.273 N 
ATOM      4  C   UNL     1      -2.873   0.508  24.455  0.00  0.00    +0.115 C 
ATOM      5  C   UNL     1      -2.320   1.081  24.241  0.00  0.00    +0.117 C 
ATOM      6  N   UNL     1      -2.493   1.881  24.342  0.00  0.00    -0.259 N 
ATOM      7  C   UNL     1      -3.221   2.108  24.658  0.00  0.00    +0.118 C 
ATOM      8  C   UNL     1      -3.238   2.932  24.694  0.00  0.00    +0.138 C 
ATOM      9  N   UNL     1      -2.521   3.214  24.401  0.00  0.00    -0.187 NA
ATOM     10  C   UNL     1      -2.061   2.565  24.184  0.00  0.00    +0.323 C 
ATOM     11  O   UNL     1      -1.301   2.594  23.863  0.00  0.00    -0.251 OA
ATOM     12  C   UNL     1      -3.775   1.535  24.872  0.00  0.00    +0.115 C 
ENDROOT
BRANCH   2  13
ATOM     13  C   UNL     1      -3.979  -0.638  24.883  0.00  0.00    +0.073 A 
ATOM     14  C   UNL     1      -4.182  -1.018  24.178  0.00  0.00    +0.008 A 
ATOM     15  C   UNL     1      -4.007  -1.817  24.076  0.00  0.00    +0.021 A 
ATOM     16  C   UNL     1      -3.630  -2.238  24.678  0.00  0.00    +0.099 A 
ATOM     17  N   UNL     1      -3.429  -1.859  25.381  0.00  0.00    -0.242 NA
ATOM     18  C   UNL     1      -3.603  -1.059  25.484  0.00  0.00    +0.103 A 
ENDBRANCH   2  13
TORSDOF 1
ENDMDL
MODEL 3
REMARK VINA RESULT:      -8.6      2.431      3.581
REMARK  Name = 
REMARK  1 active torsions:
REMARK  status: ('A' for Active; 'I' for Inactive)
REMARK    1  A    between atoms: C_2  and  C_13
REMARK                            x       y       z     vdW  Elec       q    Type
REMARK                         _______ _______ _______ _____ _____    ______ ____
ROOT
ATOM      1  O   UNL     1      -1.969   4.442  25.655  0.00  0.00    -0.270 OA
ATOM      2  C   UNL     1      -2.007   3.650  25.426  0.00  0.00    +0.251 C 
ATOM      3  N   UNL     1      -2.741   3.283  25.330  0.00  0.00    -0.273 N 
ATOM      4  C   UNL     1      -2.780   2.492  25.101  0.00  0.00    +0.115 C 
ATOM      5  C   UNL     1      -3.512   2.126  25.005  0.00  0.00    +0.117 C 
ATOM      6  N   UNL     1      -4.207   2.551  25.138  0.00  0.00    -0.259 N 
ATOM      7  C   UNL     1      -4.168   3.342  25.368  0.00  0.00    +0.118 C 
ATOM      8  C   UNL     1      -4.939   3.619  25.459  0.00  0.00    +0.138 C 
ATOM      9  N   UNL     1      -5.455   2.999  25.287  0.00  0.00    -0.187 NA
ATOM     10  C   UNL     1      -5.002   2.339  25.089  0.00  0.00    +0.323 C 
ATOM     11  O   UNL     1      -5.293   1.597  24.877  0.00  0.00    -0.251 OA
ATOM     12  C   UNL     1      -3.435   3.709  25.464  0.00  0.00    +0.115 C 
ENDROOT
BRANCH   2  13
ATOM     13  C   UNL     1      -1.314   3.225  25.292  0.00  0.00    +0.073 A 
ATOM     14  C   UNL     1      -0.930   2.854  25.922  0.00  0.00    +0.008 A 
ATOM     15  C   UNL     1      -0.236   2.428  25.789  0.00  0.00    +0.021 A 
ATOM     16  C   UNL     1       0.074   2.373  25.026  0.00  0.00    +0.099 A 
ATOM     17  N   UNL     1      -0.309   2.743  24.397  0.00  0.00    -0.242 NA
ATOM     18  C   UNL     1      -1.004   3.169  24.530  0.00  0.00    +0.103 A 
ENDBRANCH   2  13
TORSDOF 1
ENDMDL
MODEL 4
REMARK VINA RESULT:      -8.5      1.010      3.869
REMARK  Name = 
REMARK  1 active torsions:
REMARK  status: ('A' for Active; 'I' for Inactive)
REMARK    1  A    between atoms: C_2  and  C_13
REMARK                            x       y       z     vdW  Elec       q    Type
REMARK                         _______ _______ _______ _____ _____    ______ ____
ROOT
ATOM      1  O   UNL     1      -5.373   1.357  24.741  0.00  0.00    -0.270 OA
ATOM      2  C   UNL     1      -4.559   1.492  24.718  0.00  0.00    +0.251 C 
ATOM      3  N   UNL     1      -4.035   0.855  24.710  0.00  0.00    -0.273 N 
ATOM      4  C   UNL     1      -3.221   0.990  24.687  0.00  0.00    +0.115 C 
ATOM      5  C   UNL     1      -2.698   0.353  24.679  0.00  0.00    +0.117 C 
ATOM      6  N   UNL     1      -2.987  -0.420  24.694  0.00  0.00    -0.259 N 
ATOM      7  C   UNL     1      -3.801  -0.555  24.717  0.00  0.00    +0.118 C 
ATOM      8  C   UNL     1      -3.923  -1.370  24.728  0.00  0.00    +0.138 C 
ATOM      9  N   UNL     1      -3.186  -1.739  24.711  0.00  0.00    -0.187 NA
ATOM     10  C   UNL     1      -2.608  -1.152  24.690  0.00  0.00    +0.323 C 
ATOM     11  O   UNL     1      -1.792  -1.274  24.670  0.00  0.00    -0.251 OA
ATOM     12  C   UNL     1      -4.325   0.083  24.725  0.00  0.00    +0.115 C 
ENDROOT
BRANCH   2  13
ATOM     13  C   UNL     1      -4.269   2.264  24.704  0.00  0.00    +0.073 A 
ATOM     14  C   UNL     1      -4.117   2.634  23.981  0.00  0.00    +0.008 A 
ATOM     15  C   UNL     1      -3.827   3.406  23.966  0.00  0.00    +0.021 A 
ATOM     16  C   UNL     1      -3.689   3.809  24.672  0.00  0.00    +0.099 A 
ATOM     17  N   UNL     1      -3.841   3.440  25.394  0.00  0.00    -0.242 NA
ATOM     18  C   UNL     1      -4.131   2.667  25.410  0.00  0.00    +0.103 A 
ENDBRANCH   2  13
TORSDOF 1
ENDMDL
MODEL 5
REMARK VINA RESULT:      -8.5      2.025      3.629
REMARK  Name = 
REMARK  1 active torsions:
REMARK  status: ('A' for Active; 'I' for Inactive)
REMARK    1  A    between atoms: C_2  and  C_13
REMARK                            x       y       z     vdW  Elec       q    Type
REMARK                         _______ _______ _______ _____ _____    ______ ____
ROOT
ATOM      1  O   UNL     1      -3.930   3.101  23.481  0.00  0.00    -0.270 OA
ATOM      2  C   UNL     1      -3.888   2.595  24.132  0.00  0.00    +0.251 C 
ATOM      3  N   UNL     1      -3.229   2.109  24.235  0.00  0.00    -0.273 N 
ATOM      4  C   UNL     1      -3.187   1.603  24.886  0.00  0.00    +0.115 C 
ATOM      5  C   UNL     1      -2.529   1.118  24.989  0.00  0.00    +0.117 C 
ATOM      6  N   UNL     1      -1.911   1.138  24.442  0.00  0.00    -0.259 N 
ATOM      7  C   UNL     1      -1.953   1.643  23.792  0.00  0.00    +0.118 C 
ATOM      8  C   UNL     1      -1.266   1.544  23.347  0.00  0.00    +0.138 C 
ATOM      9  N   UNL     1      -0.799   0.977  23.722  0.00  0.00    -0.187 NA
ATOM     10  C   UNL     1      -1.198   0.726  24.399  0.00  0.00    +0.323 C 
ATOM     11  O   UNL     1      -0.931   0.162  24.938  0.00  0.00    -0.251 OA
ATOM     12  C   UNL     1      -2.612   2.130  23.688  0.00  0.00    +0.115 C 
ENDROOT
BRANCH   2  13
ATOM     13  C   UNL     1      -4.505   2.575  24.679  0.00  0.00    +0.073 A 
ATOM     14  C   UNL     1      -5.124   2.037  24.582  0.00  0.00    +0.008 A 
ATOM     15  C   UNL     1      -5.741   2.016  25.130  0.00  0.00    +0.021 A 
ATOM     16  C   UNL     1      -5.739   2.532  25.773  0.00  0.00    +0.099 A 
ATOM     17  N   UNL     1      -5.121   3.069  25.870  0.00  0.00    -0.242 NA
ATOM     18  C   UNL     1      -4.503   3.091  25.323  0.00  0.00    +0.103 A 
ENDBRANCH   2  13
TORSDOF 1
ENDMDL
