REMARK  Name = 
REMARK  4 active torsions:
REMARK  status: ('A' for Active; 'I' for Inactive)
REMARK    1  A    between atoms: C_1  and  C_2
REMARK    2  A    between atoms: C_1  and  C_18
REMARK    3  A    between atoms: C_5  and  C_7
REMARK    4  A    between atoms: N_10  and  C_12
REMARK                            x       y       z     vdW  Elec       q    Type
REMARK                         _______ _______ _______ _____ _____    ______ ____
ROOT
ATOM      2  C   UNL     1      -1.205   0.926   0.000  0.00  0.00    +0.231 A 
ATOM      3  N   UNL     1      -1.819   0.374   0.000  0.00  0.00    -0.111 NA
ATOM      4  N   UNL     1      -2.533   0.786   0.000  0.00  0.00    -0.112 NA
ATOM      5  C   UNL     1      -2.361   1.593   0.000  0.00  0.00    +0.227 A 
ATOM      6  O   UNL     1      -1.541   1.679   0.000  0.00  0.00    -0.423 OA
ENDROOT
BRANCH   5   7
ATOM      7  C   UNL     1      -2.913   2.206   0.000  0.00  0.00    +0.095 C 
ATOM      8  C   UNL     1      -3.734   2.120   0.000  0.00  0.00    +0.028 C 
ATOM      9  C   UNL     1      -4.069   2.874   0.000  0.00  0.00    +0.073 C 
ATOM     10  N   UNL     1      -3.456   3.426   0.000  0.00  0.00    -0.274 NA
ATOM     11  C   UNL     1      -2.742   3.013   0.000  0.00  0.00    +0.081 C 
BRANCH  10  12
ATOM     12  C   UNL     1      -3.543   4.246   0.000  0.00  0.00    +0.058 C 
ATOM     13  C   UNL     1      -4.296   4.582   0.000  0.00  0.00    +0.016 C 
ATOM     14  C   UNL     1      -4.383   5.402   0.000  0.00  0.00    +0.001 C 
ATOM     15  C   UNL     1      -3.715   5.887   0.000  0.00  0.00    +0.000 C 
ATOM     16  C   UNL     1      -2.962   5.551   0.000  0.00  0.00    +0.001 C 
ATOM     17  C   UNL     1      -2.875   4.731   0.000  0.00  0.00    +0.016 C 
ENDBRANCH  10  12
ENDBRANCH   5   7
BRANCH   2   1
ATOM      1  C   UNL     1      -0.398   0.754   0.000  0.00  0.00    +0.115 C 
BRANCH   1  18
ATOM     18  C   UNL     1      -0.143  -0.030   0.000  0.00  0.00    +0.008 A 
ATOM     19  C   UNL     1      -0.628  -0.698   0.000  0.00  0.00    +0.095 A 
ATOM     20  N   UNL     1      -0.143  -1.365   0.000  0.00  0.00    -0.244 NA
ATOM     21  C   UNL     1       0.641  -1.110   0.000  0.00  0.00    +0.081 A 
ATOM     22  C   UNL     1       0.641  -0.285   0.000  0.00  0.00    +0.016 A 
ATOM     23  C   UNL     1       1.356   0.127   0.000  0.00  0.00    +0.001 A 
ATOM     24  C   UNL     1       2.070  -0.285   0.000  0.00  0.00    +0.000 A 
ATOM     25  C   UNL     1       2.070  -1.110   0.000  0.00  0.00    +0.002 A 
ATOM     26  C   UNL     1       1.356  -1.523   0.000  0.00  0.00    +0.019 A 
ENDBRANCH   1  18
ENDBRANCH   2   1
TORSDOF 4
