MODEL 1
REMARK VINA RESULT:     -14.3      0.000      0.000
REMARK  Name = 
REMARK  6 active torsions:
REMARK  status: ('A' for Active; 'I' for Inactive)
REMARK    1  A    between atoms: O_2  and  C_3
REMARK    2  A    between atoms: C_7  and  C_9
REMARK    3  A    between atoms: N_13  and  C_14
REMARK    4  A    between atoms: C_18  and  N_22
REMARK    5  A    between atoms: N_22  and  S_23
REMARK    6  A    between atoms: S_23  and  C_26
REMARK                            x       y       z     vdW  Elec       q    Type
REMARK                         _______ _______ _______ _____ _____    ______ ____
ROOT
ATOM     14  C   UNL     1      -0.841   3.033  25.422  0.00  0.00    +0.167 C 
ATOM     15  C   UNL     1      -0.855   2.831  26.221  0.00  0.00    +0.169 C 
ATOM     16  O   UNL     1      -0.804   2.010  26.278  0.00  0.00    -0.350 OA
ATOM     17  C   UNL     1      -0.760   1.704  25.513  0.00  0.00    +0.164 C 
ATOM     18  C   UNL     1      -0.702   1.007  25.075  0.00  0.00    +0.157 C 
ATOM     19  C   UNL     1      -0.689   1.209  24.275  0.00  0.00    +0.164 C 
ATOM     20  O   UNL     1      -0.739   2.031  24.219  0.00  0.00    -0.350 OA
ATOM     21  C   UNL     1      -0.783   2.337  24.983  0.00  0.00    +0.169 C 
ENDROOT
BRANCH  14  13
ATOM      9  C   UNL     1      -1.555   4.272  25.077  0.00  0.00    +0.184 A 
ATOM     10  N   UNL     1      -1.343   4.990  24.731  0.00  0.00    -0.108 NA
ATOM     11  N   UNL     1      -0.538   4.959  24.554  0.00  0.00    -0.023 NA
ATOM     12  N   UNL     1      -0.251   4.224  24.791  0.00  0.00    -0.043 NA
ATOM     13  N   UNL     1      -0.880   3.798  25.115  0.00  0.00    -0.210 N 
BRANCH   9   7
ATOM      3  C   UNL     1      -3.610   3.538  25.074  0.00  0.00    +0.139 A 
ATOM      4  C   UNL     1      -3.816   3.648  25.866  0.00  0.00    +0.037 A 
ATOM      5  C   UNL     1      -3.268   3.965  26.394  0.00  0.00    +0.003 A 
ATOM      6  C   UNL     1      -2.514   4.174  26.132  0.00  0.00    +0.003 A 
ATOM      7  C   UNL     1      -2.308   4.064  25.340  0.00  0.00    +0.040 A 
ATOM      8  C   UNL     1      -2.857   3.746  24.811  0.00  0.00    +0.040 A 
BRANCH   3   2
ATOM      1  C   UNL     1      -4.542   2.512  24.725  0.00  0.00    +0.252 C 
ATOM      2  O   UNL     1      -4.158   3.220  24.546  0.00  0.00    -0.471 OA
ENDBRANCH   3   2
ENDBRANCH   9   7
ENDBRANCH  14  13
BRANCH  18  22
ATOM     22  N   UNL     1      -0.664   0.243  25.382  0.00  0.00    -0.074 NA
BRANCH  22  23
ATOM     23  S   UNL     1      -1.209  -0.327  25.141  0.00  0.00    +0.077 S 
ATOM     24  O   UNL     1      -1.627  -0.226  25.844  0.00  0.00    -0.152 OA
ATOM     25  O   UNL     1      -0.790  -0.429  24.437  0.00  0.00    -0.152 OA
BRANCH  23  26
ATOM     26  C   UNL     1      -1.754  -0.898  24.899  0.00  0.00    +0.124 A 
ATOM     27  C   UNL     1      -2.524  -0.677  24.704  0.00  0.00    +0.020 A 
ATOM     28  C   UNL     1      -3.068  -1.247  24.463  0.00  0.00    +0.001 A 
ATOM     29  C   UNL     1      -3.839  -1.027  24.267  0.00  0.00    +0.000 A 
ATOM     30  C   UNL     1      -4.383  -1.597  24.026  0.00  0.00    +0.000 A 
ATOM     31  C   UNL     1      -4.156  -2.390  23.979  0.00  0.00    +0.000 A 
ATOM     32  C   UNL     1      -3.386  -2.611  24.174  0.00  0.00    +0.000 A 
ATOM     33  C   UNL     1      -2.841  -2.040  24.416  0.00  0.00    +0.000 A 
ATOM     34  C   UNL     1      -2.071  -2.261  24.611  0.00  0.00    +0.001 A 
ATOM     35  C   UNL     1      -1.527  -1.691  24.852  0.00  0.00    +0.020 A 
ENDBRANCH  23  26
ENDBRANCH  22  23
ENDBRANCH  18  22
TORSDOF 6
ENDMDL
MODEL 2
REMARK VINA RESULT:     -13.5      1.447      2.757
REMARK  Name = 
REMARK  6 active torsions:
REMARK  status: ('A' for Active; 'I' for Inactive)
REMARK    1  A    between atoms: O_2  and  C_3
REMARK    2  A    between atoms: C_7  and  C_9
REMARK    3  A    between atoms: N_13  and  C_14
REMARK    4  A    between atoms: C_18  and  N_22
REMARK    5  A    between atoms: N_22  and  S_23
REMARK    6  A    between atoms: S_23  and  C_26
REMARK                            x       y       z     vdW  Elec       q    Type
REMARK                         _______ _______ _______ _____ _____    ______ ____
ROOT
ATOM     14  C   UNL     1      -2.494   3.734  25.336  0.00  0.00    +0.167 C 
ATOM     15  C   UNL     1      -2.733   3.495  26.088  0.00  0.00    +0.169 C 
ATOM     16  O   UNL     1      -3.340   2.943  25.999  0.00  0.00    -0.350 OA
ATOM     17  C   UNL     1      -3.474   2.841  25.192  0.00  0.00    +0.164 C 
ATOM     18  C   UNL     1      -3.932   2.436  24.637  0.00  0.00    +0.157 C 
ATOM     19  C   UNL     1      -3.692   2.675  23.884  0.00  0.00    +0.164 C 
ATOM     20  O   UNL     1      -3.086   3.228  23.974  0.00  0.00    -0.350 OA
ATOM     21  C   UNL     1      -2.951   3.330  24.781  0.00  0.00    +0.169 C 
ENDROOT
BRANCH  14  13
ATOM      9  C   UNL     1      -1.088   4.133  25.171  0.00  0.00    +0.184 A 
ATOM     10  N   UNL     1      -0.699   4.833  24.973  0.00  0.00    -0.108 NA
ATOM     11  N   UNL     1      -1.271   5.414  24.848  0.00  0.00    -0.023 NA
ATOM     12  N   UNL     1      -2.012   5.075  24.968  0.00  0.00    -0.043 NA
ATOM     13  N   UNL     1      -1.900   4.282  25.168  0.00  0.00    -0.210 N 
BRANCH   9   7
ATOM      3  C   UNL     1      -0.137   2.187  24.899  0.00  0.00    +0.139 A 
ATOM      4  C   UNL     1      -0.009   1.966  25.684  0.00  0.00    +0.037 A 
ATOM      5  C   UNL     1      -0.241   2.466  26.297  0.00  0.00    +0.003 A 
ATOM      6  C   UNL     1      -0.601   3.189  26.127  0.00  0.00    +0.003 A 
ATOM      7  C   UNL     1      -0.728   3.410  25.342  0.00  0.00    +0.040 A 
ATOM      8  C   UNL     1      -0.497   2.909  24.728  0.00  0.00    +0.040 A 
BRANCH   3   2
ATOM      1  C   UNL     1      -0.246   0.938  24.213  0.00  0.00    +0.252 C 
ATOM      2  O   UNL     1       0.095   1.687  24.286  0.00  0.00    -0.471 OA
ENDBRANCH   3   2
ENDBRANCH   9   7
ENDBRANCH  14  13
BRANCH  18  22
ATOM     22  N   UNL     1      -4.525   1.889  24.805  0.00  0.00    -0.074 NA
BRANCH  22  23
ATOM     23  S   UNL     1      -4.381   1.082  24.713  0.00  0.00    +0.077 S 
ATOM     24  O   UNL     1      -4.067   1.223  23.963  0.00  0.00    -0.152 OA
ATOM     25  O   UNL     1      -4.695   0.940  25.463  0.00  0.00    -0.152 OA
BRANCH  23  26
ATOM     26  C   UNL     1      -4.237   0.274  24.621  0.00  0.00    +0.124 A 
ATOM     27  C   UNL     1      -3.830  -0.142  25.204  0.00  0.00    +0.020 A 
ATOM     28  C   UNL     1      -3.687  -0.948  25.112  0.00  0.00    +0.001 A 
ATOM     29  C   UNL     1      -3.280  -1.365  25.696  0.00  0.00    +0.000 A 
ATOM     30  C   UNL     1      -3.136  -2.172  25.603  0.00  0.00    +0.000 A 
ATOM     31  C   UNL     1      -3.400  -2.563  24.925  0.00  0.00    +0.000 A 
ATOM     32  C   UNL     1      -3.806  -2.147  24.341  0.00  0.00    +0.000 A 
ATOM     33  C   UNL     1      -3.950  -1.339  24.434  0.00  0.00    +0.000 A 
ATOM     34  C   UNL     1      -4.357  -0.923  23.850  0.00  0.00    +0.001 A 
ATOM     35  C   UNL     1      -4.501  -0.117  23.943  0.00  0.00    +0.020 A 
ENDBRANCH  23  26
ENDBRANCH  22  23
ENDBRANCH  18  22
TORSDOF 6
ENDMDL
MODEL 3
REMARK VINA RESULT:     -12.8      1.556      4.861
REMARK  Name = 
REMARK  6 active torsions:
REMARK  status: ('A' for Active; 'I' for Inactive)
REMARK    1  A    between atoms: O_2  and  C_3
REMARK    2  A    between atoms: C_7  and  C_9
REMARK    3  A    between atoms: N_13  and  C_14
REMARK    4  A    between atoms: C_18  and  N_22
REMARK    5  A    between atoms: N_22  and  S_23
REMARK    6  A    between atoms: S_23  and  C_26
REMARK                            x       y       z     vdW  Elec       q    Type
REMARK                         _______ _______ _______ _____ _____    ______ ____
ROOT
ATOM     14  C   UNL     1      -1.357  -1.040  25.006  0.00  0.00    +0.167 C 
ATOM     15  C   UNL     1      -1.258  -0.924  25.817  0.00  0.00    +0.169 C 
ATOM     16  O   UNL     1      -0.832  -0.226  25.924  0.00  0.00    -0.350 OA
ATOM     17  C   UNL     1      -0.668   0.089  25.180  0.00  0.00    +0.164 C 
ATOM     18  C   UNL     1      -0.303   0.715  24.785  0.00  0.00    +0.157 C 
ATOM     19  C   UNL     1      -0.402   0.599  23.974  0.00  0.00    +0.164 C 
ATOM     20  O   UNL     1      -0.828  -0.099  23.868  0.00  0.00    -0.350 OA
ATOM     21  C   UNL     1      -0.992  -0.415  24.612  0.00  0.00    +0.169 C 
ENDROOT
BRANCH  14  13
ATOM      9  C   UNL     1      -2.571  -1.768  24.608  0.00  0.00    +0.184 A 
ATOM     10  N   UNL     1      -2.723  -2.474  24.209  0.00  0.00    -0.108 NA
ATOM     11  N   UNL     1      -1.999  -2.815  24.009  0.00  0.00    -0.023 NA
ATOM     12  N   UNL     1      -1.399  -2.320  24.282  0.00  0.00    -0.043 NA
ATOM     13  N   UNL     1      -1.752  -1.673  24.653  0.00  0.00    -0.210 N 
BRANCH   9   7
ATOM      3  C   UNL     1      -4.035  -0.153  24.719  0.00  0.00    +0.139 A 
ATOM      4  C   UNL     1      -4.269  -0.210  25.509  0.00  0.00    +0.037 A 
ATOM      5  C   UNL     1      -3.938  -0.786  25.997  0.00  0.00    +0.003 A 
ATOM      6  C   UNL     1      -3.371  -1.306  25.697  0.00  0.00    +0.003 A 
ATOM      7  C   UNL     1      -3.137  -1.249  24.908  0.00  0.00    +0.040 A 
ATOM      8  C   UNL     1      -3.469  -0.673  24.419  0.00  0.00    +0.040 A 
BRANCH   3   2
ATOM      1  C   UNL     1      -4.421   1.204  24.491  0.00  0.00    +0.252 C 
ATOM      2  O   UNL     1      -4.367   0.422  24.231  0.00  0.00    -0.471 OA
ENDBRANCH   3   2
ENDBRANCH   9   7
ENDBRANCH  14  13
BRANCH  18  22
ATOM     22  N   UNL     1       0.092   1.347  25.139  0.00  0.00    -0.074 NA
BRANCH  22  23
ATOM     23  S   UNL     1      -0.246   2.100  25.135  0.00  0.00    +0.077 S 
ATOM     24  O   UNL     1      -0.326   2.068  25.956  0.00  0.00    -0.152 OA
ATOM     25  O   UNL     1      -0.166   2.131  24.315  0.00  0.00    -0.152 OA
BRANCH  23  26
ATOM     26  C   UNL     1      -0.584   2.853  25.131  0.00  0.00    +0.124 A 
ATOM     27  C   UNL     1      -1.324   2.975  25.472  0.00  0.00    +0.020 A 
ATOM     28  C   UNL     1      -1.662   3.727  25.468  0.00  0.00    +0.001 A 
ATOM     29  C   UNL     1      -2.403   3.849  25.809  0.00  0.00    +0.000 A 
ATOM     30  C   UNL     1      -2.740   4.602  25.805  0.00  0.00    +0.000 A 
ATOM     31  C   UNL     1      -2.335   5.234  25.459  0.00  0.00    +0.000 A 
ATOM     32  C   UNL     1      -1.595   5.111  25.119  0.00  0.00    +0.000 A 
ATOM     33  C   UNL     1      -1.257   4.359  25.122  0.00  0.00    +0.000 A 
ATOM     34  C   UNL     1      -0.516   4.237  24.782  0.00  0.00    +0.001 A 
ATOM     35  C   UNL     1      -0.179   3.484  24.786  0.00  0.00    +0.020 A 
ENDBRANCH  23  26
ENDBRANCH  22  23
ENDBRANCH  18  22
TORSDOF 6
ENDMDL
MODEL 4
REMARK VINA RESULT:     -12.7      1.531      2.838
REMARK  Name = 
REMARK  6 active torsions:
REMARK  status: ('A' for Active; 'I' for Inactive)
REMARK    1  A    between atoms: O_2  and  C_3
REMARK    2  A    between atoms: C_7  and  C_9
REMARK    3  A    between atoms: N_13  and  C_14
REMARK    4  A    between atoms: C_18  and  N_22
REMARK    5  A    between atoms: N_22  and  S_23
REMARK    6  A    between atoms: S_23  and  C_26
REMARK                            x       y       z     vdW  Elec       q    Type
REMARK                         _______ _______ _______ _____ _____    ______ ____
ROOT
ATOM     14  C   UNL     1      -2.748   3.561  24.543  0.00  0.00    +0.167 C 
ATOM     15  C   UNL     1      -2.671   3.292  23.768  0.00  0.00    +0.169 C 
ATOM     16  O   UNL     1      -3.185   2.655  23.667  0.00  0.00    -0.350 OA
ATOM     17  C   UNL     1      -3.579   2.531  24.380  0.00  0.00    +0.164 C 
ATOM     18  C   UNL     1      -4.141   2.060  24.759  0.00  0.00    +0.157 C 
ATOM     19  C   UNL     1      -4.218   2.329  25.536  0.00  0.00    +0.164 C 
ATOM     20  O   UNL     1      -3.704   2.966  25.636  0.00  0.00    -0.350 OA
ATOM     21  C   UNL     1      -3.309   3.091  24.923  0.00  0.00    +0.169 C 
ENDROOT
BRANCH  14  13
ATOM      9  C   UNL     1      -1.534   4.194  25.080  0.00  0.00    +0.184 A 
ATOM     10  N   UNL     1      -1.354   4.933  25.401  0.00  0.00    -0.108 NA
ATOM     11  N   UNL     1      -2.043   5.386  25.398  0.00  0.00    -0.023 NA
ATOM     12  N   UNL     1      -2.649   4.929  25.078  0.00  0.00    -0.043 NA
ATOM     13  N   UNL     1      -2.335   4.191  24.881  0.00  0.00    -0.210 N 
BRANCH   9   7
ATOM      3  C   UNL     1      -0.367   2.394  25.482  0.00  0.00    +0.139 A 
ATOM      4  C   UNL     1       0.049   2.317  24.773  0.00  0.00    +0.037 A 
ATOM      5  C   UNL     1      -0.062   2.866  24.168  0.00  0.00    +0.003 A 
ATOM      6  C   UNL     1      -0.590   3.492  24.269  0.00  0.00    +0.003 A 
ATOM      7  C   UNL     1      -1.006   3.569  24.978  0.00  0.00    +0.040 A 
ATOM      8  C   UNL     1      -0.894   3.020  25.584  0.00  0.00    +0.040 A 
BRANCH   3   2
ATOM      1  C   UNL     1      -0.501   1.064  25.987  0.00  0.00    +0.252 C 
ATOM      2  O   UNL     1      -0.255   1.846  26.087  0.00  0.00    -0.471 OA
ENDBRANCH   3   2
ENDBRANCH   9   7
ENDBRANCH  14  13
BRANCH  18  22
ATOM     22  N   UNL     1      -4.553   1.430  24.422  0.00  0.00    -0.074 NA
BRANCH  22  23
ATOM     23  S   UNL     1      -4.329   0.653  24.588  0.00  0.00    +0.077 S 
ATOM     24  O   UNL     1      -3.894   0.629  23.887  0.00  0.00    -0.152 OA
ATOM     25  O   UNL     1      -4.764   0.678  25.289  0.00  0.00    -0.152 OA
BRANCH  23  26
ATOM     26  C   UNL     1      -4.106  -0.123  24.754  0.00  0.00    +0.124 A 
ATOM     27  C   UNL     1      -4.225  -0.716  24.194  0.00  0.00    +0.020 A 
ATOM     28  C   UNL     1      -4.002  -1.492  24.360  0.00  0.00    +0.001 A 
ATOM     29  C   UNL     1      -4.122  -2.086  23.800  0.00  0.00    +0.000 A 
ATOM     30  C   UNL     1      -3.898  -2.862  23.966  0.00  0.00    +0.000 A 
ATOM     31  C   UNL     1      -3.554  -3.045  24.694  0.00  0.00    +0.000 A 
ATOM     32  C   UNL     1      -3.434  -2.452  25.254  0.00  0.00    +0.000 A 
ATOM     33  C   UNL     1      -3.658  -1.676  25.088  0.00  0.00    +0.000 A 
ATOM     34  C   UNL     1      -3.538  -1.083  25.648  0.00  0.00    +0.001 A 
ATOM     35  C   UNL     1      -3.762  -0.307  25.482  0.00  0.00    +0.020 A 
ENDBRANCH  23  26
ENDBRANCH  22  23
ENDBRANCH  18  22
TORSDOF 6
ENDMDL
MODEL 5
REMARK VINA RESULT:     -12.0      2.237      5.581
REMARK  Name = 
REMARK  6 active torsions:
REMARK  status: ('A' for Active; 'I' for Inactive)
REMARK    1  A    between atoms: O_2  and  C_3
REMARK    2  A    between atoms: C_7  and  C_9
REMARK    3  A    between atoms: N_13  and  C_14
REMARK    4  A    between atoms: C_18  and  N_22
REMARK    5  A    between atoms: N_22  and  S_23
REMARK    6  A    between atoms: S_23  and  C_26
REMARK                            x       y       z     vdW  Elec       q    Type
REMARK                         _______ _______ _______ _____ _____    ______ ____
ROOT
ATOM     14  C   UNL     1      -3.579  -0.831  24.295  0.00  0.00    +0.167 C 
ATOM     15  C   UNL     1      -3.335  -0.554  23.557  0.00  0.00    +0.169 C 
ATOM     16  O   UNL     1      -3.568   0.235  23.491  0.00  0.00    -0.350 OA
ATOM     17  C   UNL     1      -3.955   0.445  24.187  0.00  0.00    +0.164 C 
ATOM     18  C   UNL     1      -4.339   1.063  24.578  0.00  0.00    +0.157 C 
ATOM     19  C   UNL     1      -4.583   0.786  25.316  0.00  0.00    +0.164 C 
ATOM     20  O   UNL     1      -4.350  -0.003  25.382  0.00  0.00    -0.350 OA
ATOM     21  C   UNL     1      -3.962  -0.214  24.685  0.00  0.00    +0.169 C 
ENDROOT
BRANCH  14  13
ATOM      9  C   UNL     1      -2.759  -1.881  24.916  0.00  0.00    +0.184 A 
ATOM     10  N   UNL     1      -2.885  -2.665  25.139  0.00  0.00    -0.108 NA
ATOM     11  N   UNL     1      -3.665  -2.860  24.950  0.00  0.00    -0.023 NA
ATOM     12  N   UNL     1      -4.019  -2.198  24.612  0.00  0.00    -0.043 NA
ATOM     13  N   UNL     1      -3.460  -1.592  24.590  0.00  0.00    -0.210 N 
BRANCH   9   7
ATOM      3  C   UNL     1      -0.792  -1.038  24.485  0.00  0.00    +0.139 A 
ATOM      4  C   UNL     1      -0.647  -0.617  25.180  0.00  0.00    +0.037 A 
ATOM      5  C   UNL     1      -1.206  -0.618  25.786  0.00  0.00    +0.003 A 
ATOM      6  C   UNL     1      -1.910  -1.039  25.699  0.00  0.00    +0.003 A 
ATOM      7  C   UNL     1      -2.055  -1.460  25.004  0.00  0.00    +0.040 A 
ATOM      8  C   UNL     1      -1.496  -1.459  24.397  0.00  0.00    +0.040 A 
BRANCH   3   2
ATOM      1  C   UNL     1       0.201  -0.354  23.717  0.00  0.00    +0.252 C 
ATOM      2  O   UNL     1      -0.234  -1.038  23.878  0.00  0.00    -0.471 OA
ENDBRANCH   3   2
ENDBRANCH   9   7
ENDBRANCH  14  13
BRANCH  18  22
ATOM     22  N   UNL     1      -4.457   1.823  24.283  0.00  0.00    -0.074 NA
BRANCH  22  23
ATOM     23  S   UNL     1      -3.956   2.438  24.510  0.00  0.00    +0.077 S 
ATOM     24  O   UNL     1      -3.687   2.505  23.732  0.00  0.00    -0.152 OA
ATOM     25  O   UNL     1      -4.225   2.371  25.287  0.00  0.00    -0.152 OA
BRANCH  23  26
ATOM     26  C   UNL     1      -3.454   3.053  24.737  0.00  0.00    +0.124 A 
ATOM     27  C   UNL     1      -2.642   2.993  24.606  0.00  0.00    +0.020 A 
ATOM     28  C   UNL     1      -2.142   3.607  24.833  0.00  0.00    +0.001 A 
ATOM     29  C   UNL     1      -1.329   3.548  24.702  0.00  0.00    +0.000 A 
ATOM     30  C   UNL     1      -0.828   4.162  24.929  0.00  0.00    +0.000 A 
ATOM     31  C   UNL     1      -1.140   4.838  25.287  0.00  0.00    +0.000 A 
ATOM     32  C   UNL     1      -1.952   4.897  25.418  0.00  0.00    +0.000 A 
ATOM     33  C   UNL     1      -2.454   4.283  25.191  0.00  0.00    +0.000 A 
ATOM     34  C   UNL     1      -3.265   4.342  25.322  0.00  0.00    +0.001 A 
ATOM     35  C   UNL     1      -3.766   3.728  25.095  0.00  0.00    +0.020 A 
ENDBRANCH  23  26
ENDBRANCH  22  23
ENDBRANCH  18  22
TORSDOF 6
ENDMDL
MODEL 6
REMARK VINA RESULT:     -11.7      1.539      4.368
REMARK  Name = 
REMARK  6 active torsions:
REMARK  status: ('A' for Active; 'I' for Inactive)
REMARK    1  A    between atoms: O_2  and  C_3
REMARK    2  A    between atoms: C_7  and  C_9
REMARK    3  A    between atoms: N_13  and  C_14
REMARK    4  A    between atoms: C_18  and  N_22
REMARK    5  A    between atoms: N_22  and  S_23
REMARK    6  A    between atoms: S_23  and  C_26
REMARK                            x       y       z     vdW  Elec       q    Type
REMARK                         _______ _______ _______ _____ _____    ______ ____
ROOT
ATOM     14  C   UNL     1      -0.375   1.047  24.282  0.00  0.00    +0.167 C 
ATOM     15  C   UNL     1      -0.249   1.265  25.067  0.00  0.00    +0.169 C 
ATOM     16  O   UNL     1      -0.737   1.909  25.234  0.00  0.00    -0.350 OA
ATOM     17  C   UNL     1      -1.163   2.088  24.551  0.00  0.00    +0.164 C 
ATOM     18  C   UNL     1      -1.729   2.597  24.232  0.00  0.00    +0.157 C 
ATOM     19  C   UNL     1      -1.855   2.379  23.446  0.00  0.00    +0.164 C 
ATOM     20  O   UNL     1      -1.367   1.735  23.280  0.00  0.00    -0.350 OA
ATOM     21  C   UNL     1      -0.940   1.555  23.962  0.00  0.00    +0.169 C 
ENDROOT
BRANCH  14  13
ATOM      9  C   UNL     1      -0.160  -0.377  23.982  0.00  0.00    +0.184 A 
ATOM     10  N   UNL     1       0.341  -0.799  23.480  0.00  0.00    -0.108 NA
ATOM     11  N   UNL     1       0.810  -0.255  23.074  0.00  0.00    -0.023 NA
ATOM     12  N   UNL     1       0.600   0.502  23.324  0.00  0.00    -0.043 NA
ATOM     13  N   UNL     1       0.000   0.427  23.885  0.00  0.00    -0.210 N 
BRANCH   9   7
ATOM      3  C   UNL     1      -2.031  -1.231  24.712  0.00  0.00    +0.139 A 
ATOM      4  C   UNL     1      -1.847  -1.352  25.508  0.00  0.00    +0.037 A 
ATOM      5  C   UNL     1      -1.101  -1.148  25.794  0.00  0.00    +0.003 A 
ATOM      6  C   UNL     1      -0.538  -0.823  25.285  0.00  0.00    +0.003 A 
ATOM      7  C   UNL     1      -0.722  -0.702  24.490  0.00  0.00    +0.040 A 
ATOM      8  C   UNL     1      -1.469  -0.906  24.204  0.00  0.00    +0.040 A 
BRANCH   3   2
ATOM      1  C   UNL     1      -3.428  -1.438  24.934  0.00  0.00    +0.252 C 
ATOM      2  O   UNL     1      -2.777  -1.435  24.426  0.00  0.00    -0.471 OA
ENDBRANCH   3   2
ENDBRANCH   9   7
ENDBRANCH  14  13
BRANCH  18  22
ATOM     22  N   UNL     1      -2.103   3.216  24.628  0.00  0.00    -0.074 NA
BRANCH  22  23
ATOM     23  S   UNL     1      -2.901   3.156  24.829  0.00  0.00    +0.077 S 
ATOM     24  O   UNL     1      -3.109   3.288  24.041  0.00  0.00    -0.152 OA
ATOM     25  O   UNL     1      -2.694   3.024  25.616  0.00  0.00    -0.152 OA
BRANCH  23  26
ATOM     26  C   UNL     1      -3.700   3.096  25.029  0.00  0.00    +0.124 A 
ATOM     27  C   UNL     1      -4.091   2.374  24.954  0.00  0.00    +0.020 A 
ATOM     28  C   UNL     1      -4.889   2.314  25.154  0.00  0.00    +0.001 A 
ATOM     29  C   UNL     1      -5.281   1.592  25.079  0.00  0.00    +0.000 A 
ATOM     30  C   UNL     1      -6.078   1.533  25.279  0.00  0.00    +0.000 A 
ATOM     31  C   UNL     1      -6.485   2.196  25.555  0.00  0.00    +0.000 A 
ATOM     32  C   UNL     1      -6.094   2.918  25.631  0.00  0.00    +0.000 A 
ATOM     33  C   UNL     1      -5.295   2.978  25.430  0.00  0.00    +0.000 A 
ATOM     34  C   UNL     1      -4.904   3.699  25.506  0.00  0.00    +0.001 A 
ATOM     35  C   UNL     1      -4.107   3.759  25.306  0.00  0.00    +0.020 A 
ENDBRANCH  23  26
ENDBRANCH  22  23
ENDBRANCH  18  22
TORSDOF 6
ENDMDL
