MODEL 1
REMARK VINA RESULT:     -10.3      0.000      0.000
REMARK  Name = 
REMARK  4 active torsions:
REMARK  status: ('A' for Active; 'I' for Inactive)
REMARK    1  A    between atoms: N_2  and  C_3
REMARK    2  A    between atoms: C_6  and  C_9
REMARK    3  A    between atoms: C_12  and  C_14
REMARK    4  A    between atoms: N_18  and  C_19
REMARK                            x       y       z     vdW  Elec       q    Type
REMARK                         _______ _______ _______ _____ _____    ______ ____
ROOT
ATOM      9  C   UNL     1      -4.172   0.796  24.476  0.00  0.00    +0.205 A 
ATOM     10  N   UNL     1      -3.691   0.808  23.807  0.00  0.00    -0.056 NA
ATOM     11  O   UNL     1      -3.460   0.033  23.646  0.00  0.00    -0.336 OA
ATOM     12  C   UNL     1      -3.799  -0.459  24.216  0.00  0.00    +0.251 A 
ATOM     13  N   UNL     1      -4.239   0.013  24.729  0.00  0.00    -0.190 NA
ENDROOT
BRANCH   9   6
ATOM      3  C   UNL     1      -5.233   2.762  25.542  0.00  0.00    +0.148 A 
ATOM      4  C   UNL     1      -5.688   2.101  25.352  0.00  0.00    +0.036 A 
ATOM      5  C   UNL     1      -5.335   1.445  24.997  0.00  0.00    +0.008 A 
ATOM      6  C   UNL     1      -4.526   1.452  24.832  0.00  0.00    +0.058 A 
ATOM      7  C   UNL     1      -4.072   2.113  25.022  0.00  0.00    +0.103 A 
ATOM      8  N   UNL     1      -4.425   2.769  25.377  0.00  0.00    -0.228 NA
BRANCH   3   2
ATOM      1  C   UNL     1      -5.573   4.150  25.517  0.00  0.00    +0.137 C 
ATOM      2  N   UNL     1      -5.586   3.418  25.898  0.00  0.00    -0.218 NA
ENDBRANCH   3   2
ENDBRANCH   9   6
BRANCH  12  14
ATOM     14  C   UNL     1      -3.712  -1.277  24.263  0.00  0.00    +0.138 C 
ATOM     15  C   UNL     1      -4.227  -1.839  23.944  0.00  0.00    +0.027 C 
ATOM     16  C   UNL     1      -3.928  -2.587  24.122  0.00  0.00    +0.019 C 
ATOM     17  C   UNL     1      -3.230  -2.488  24.550  0.00  0.00    +0.072 C 
ATOM     18  N   UNL     1      -3.097  -1.680  24.637  0.00  0.00    -0.268 NA
BRANCH  18  19
ATOM     19  C   UNL     1      -2.459  -1.332  25.030  0.00  0.00    +0.058 C 
ATOM     20  C   UNL     1      -1.704  -1.083  24.810  0.00  0.00    +0.016 C 
ATOM     21  C   UNL     1      -1.558  -0.841  25.584  0.00  0.00    +0.003 C 
ATOM     22  C   UNL     1      -2.313  -1.090  25.805  0.00  0.00    +0.016 C 
ENDBRANCH  18  19
ENDBRANCH  12  14
TORSDOF 4
ENDMDL
MODEL 2
REMARK VINA RESULT:     -10.1      1.125      4.395
REMARK  Name = 
REMARK  4 active torsions:
REMARK  status: ('A' for Active; 'I' for Inactive)
REMARK    1  A    between atoms: N_2  and  C_3
REMARK    2  A    between atoms: C_6  and  C_9
REMARK    3  A    between atoms: C_12  and  C_14
REMARK    4  A    between atoms: N_18  and  C_19
REMARK                            x       y       z     vdW  Elec       q    Type
REMARK                         _______ _______ _______ _____ _____    ______ ____
ROOT
ATOM      9  C   UNL     1      -3.739   0.746  24.334  0.00  0.00    +0.205 A 
ATOM     10  N   UNL     1      -3.613   1.231  23.679  0.00  0.00    -0.056 NA
ATOM     11  O   UNL     1      -3.915   1.978  23.854  0.00  0.00    -0.336 OA
ATOM     12  C   UNL     1      -4.229   1.955  24.617  0.00  0.00    +0.251 A 
ATOM     13  N   UNL     1      -4.120   1.193  24.913  0.00  0.00    -0.190 NA
ENDROOT
BRANCH   9   6
ATOM      3  C   UNL     1      -3.093  -1.635  24.527  0.00  0.00    +0.148 A 
ATOM      4  C   UNL     1      -3.856  -1.434  24.289  0.00  0.00    +0.036 A 
ATOM      5  C   UNL     1      -4.072  -0.640  24.225  0.00  0.00    +0.008 A 
ATOM      6  C   UNL     1      -3.523  -0.048  24.398  0.00  0.00    +0.058 A 
ATOM      7  C   UNL     1      -2.760  -0.250  24.636  0.00  0.00    +0.103 A 
ATOM      8  N   UNL     1      -2.544  -1.044  24.700  0.00  0.00    -0.228 NA
BRANCH   3   2
ATOM      1  C   UNL     1      -3.457  -3.017  24.589  0.00  0.00    +0.137 C 
ATOM      2  N   UNL     1      -2.876  -2.430  24.591  0.00  0.00    -0.218 NA
ENDBRANCH   3   2
ENDBRANCH   9   6
BRANCH  12  14
ATOM     14  C   UNL     1      -4.587   2.582  25.013  0.00  0.00    +0.138 C 
ATOM     15  C   UNL     1      -5.394   2.660  25.171  0.00  0.00    +0.027 C 
ATOM     16  C   UNL     1      -5.508   3.369  25.576  0.00  0.00    +0.019 C 
ATOM     17  C   UNL     1      -4.771   3.730  25.670  0.00  0.00    +0.072 C 
ATOM     18  N   UNL     1      -4.204   3.244  25.322  0.00  0.00    -0.268 NA
BRANCH  18  19
ATOM     19  C   UNL     1      -3.392   3.394  25.289  0.00  0.00    +0.058 C 
ATOM     20  C   UNL     1      -2.885   3.741  24.739  0.00  0.00    +0.016 C 
ATOM     21  C   UNL     1      -2.246   3.604  25.241  0.00  0.00    +0.003 C 
ATOM     22  C   UNL     1      -2.753   3.257  25.792  0.00  0.00    +0.016 C 
ENDBRANCH  18  19
ENDBRANCH  12  14
TORSDOF 4
ENDMDL
MODEL 3
REMARK VINA RESULT:     -10.0      1.516      4.592
REMARK  Name = 
REMARK  4 active torsions:
REMARK  status: ('A' for Active; 'I' for Inactive)
REMARK    1  A    between atoms: N_2  and  C_3
REMARK    2  A    between atoms: C_6  and  C_9
REMARK    3  A    between atoms: C_12  and  C_14
REMARK    4  A    between atoms: N_18  and  C_19
REMARK                            x       y       z     vdW  Elec       q    Type
REMARK                         _______ _______ _______ _____ _____    ______ ____
ROOT
ATOM      9  C   UNL     1      -3.007   0.931  24.342  0.00  0.00    +0.205 A 
ATOM     10  N   UNL     1      -3.093   1.325  23.623  0.00  0.00    -0.056 NA
ATOM     11  O   UNL     1      -2.888   2.115  23.739  0.00  0.00    -0.336 OA
ATOM     12  C   UNL     1      -2.676   2.210  24.531  0.00  0.00    +0.251 A 
ATOM     13  N   UNL     1      -2.749   1.478  24.903  0.00  0.00    -0.190 NA
ENDROOT
BRANCH   9   6
ATOM      3  C   UNL     1      -3.448  -1.471  24.747  0.00  0.00    +0.148 A 
ATOM      4  C   UNL     1      -4.060  -0.975  24.502  0.00  0.00    +0.036 A 
ATOM      5  C   UNL     1      -3.913  -0.174  24.367  0.00  0.00    +0.008 A 
ATOM      6  C   UNL     1      -3.154   0.130  24.477  0.00  0.00    +0.058 A 
ATOM      7  C   UNL     1      -2.543  -0.366  24.722  0.00  0.00    +0.103 A 
ATOM      8  N   UNL     1      -2.689  -1.167  24.857  0.00  0.00    -0.228 NA
BRANCH   3   2
ATOM      1  C   UNL     1      -3.593  -2.804  24.251  0.00  0.00    +0.137 C 
ATOM      2  N   UNL     1      -3.595  -2.272  24.882  0.00  0.00    -0.218 NA
ENDBRANCH   3   2
ENDBRANCH   9   6
BRANCH  12  14
ATOM     14  C   UNL     1      -2.432   2.913  24.887  0.00  0.00    +0.138 C 
ATOM     15  C   UNL     1      -1.652   3.156  24.997  0.00  0.00    +0.027 C 
ATOM     16  C   UNL     1      -1.664   3.890  25.374  0.00  0.00    +0.019 C 
ATOM     17  C   UNL     1      -2.453   4.100  25.496  0.00  0.00    +0.072 C 
ATOM     18  N   UNL     1      -2.926   3.497  25.195  0.00  0.00    -0.268 NA
BRANCH  18  19
ATOM     19  C   UNL     1      -3.752   3.480  25.202  0.00  0.00    +0.058 C 
ATOM     20  C   UNL     1      -4.327   3.253  25.748  0.00  0.00    +0.016 C 
ATOM     21  C   UNL     1      -4.918   3.455  25.210  0.00  0.00    +0.003 C 
ATOM     22  C   UNL     1      -4.344   3.682  24.663  0.00  0.00    +0.016 C 
ENDBRANCH  18  19
ENDBRANCH  12  14
TORSDOF 4
ENDMDL
