MODEL 1
REMARK VINA RESULT:      -7.7      0.000      0.000
REMARK  Name = 
REMARK  10 active torsions:
REMARK  status: ('A' for Active; 'I' for Inactive)
REMARK    1  A    between atoms: C_2  and  O_3
REMARK    2  A    between atoms: O_3  and  C_4
REMARK    3  A    between atoms: C_4  and  C_6
REMARK    4  A    between atoms: C_6  and  C_7
REMARK    5  A    between atoms: C_9  and  C_10
REMARK    6  A    between atoms: C_13  and  C_14
REMARK    7  A    between atoms: C_14  and  N_15
REMARK    8  A    between atoms: N_15  and  S_16
REMARK    9  A    between atoms: S_16  and  C_19
REMARK   10  A    between atoms: C_22  and  N_23
REMARK                            x       y       z     vdW  Elec       q    Type
REMARK                         _______ _______ _______ _____ _____    ______ ____
ROOT
ATOM      7  C   UNL     1      -3.565   0.547  24.790  0.00  0.00    +0.029 C 
ATOM      8  C   UNL     1      -3.385   1.179  24.292  0.00  0.00    +0.005 C 
ATOM      9  C   UNL     1      -2.623   1.262  23.987  0.00  0.00    +0.006 C 
ATOM     13  C   UNL     1      -2.040   0.711  24.181  0.00  0.00    +0.041 C 
ATOM     29  C   UNL     1      -2.220   0.078  24.679  0.00  0.00    -0.033 C 
ATOM     30  C   UNL     1      -2.981  -0.004  24.984  0.00  0.00    -0.048 C 
ATOM     31  C   UNL     1      -3.161  -0.636  25.482  0.00  0.00    +0.026 C 
ENDROOT
BRANCH   9  10
ATOM     10  C   UNL     1      -2.444   1.894  23.489  0.00  0.00    +0.000 C 
ATOM     11  C   UNL     1      -2.542   1.818  22.673  0.00  0.00    +0.000 C 
ATOM     12  C   UNL     1      -2.166   2.603  23.807  0.00  0.00    +0.000 C 
ENDBRANCH   9  10
BRANCH   7   6
ATOM      6  C   UNL     1      -4.327   0.464  25.095  0.00  0.00    +0.114 C 
BRANCH   6   4
ATOM      4  C   UNL     1      -4.888   1.055  24.969  0.00  0.00    +0.317 C 
ATOM      5  O   UNL     1      -5.352   1.044  24.287  0.00  0.00    -0.250 OA
BRANCH   4   3
ATOM      3  O   UNL     1      -4.987   1.657  25.525  0.00  0.00    -0.448 OA
BRANCH   3   2
ATOM      1  C   UNL     1      -5.791   2.708  26.062  0.00  0.00    +0.051 C 
ATOM      2  C   UNL     1      -5.723   2.015  25.619  0.00  0.00    +0.209 C 
ENDBRANCH   3   2
ENDBRANCH   4   3
ENDBRANCH   6   4
ENDBRANCH   7   6
BRANCH  13  14
ATOM     14  C   UNL     1      -1.278   0.793  23.876  0.00  0.00    +0.120 C 
BRANCH  14  15
ATOM     15  N   UNL     1      -0.680   0.278  24.115  0.00  0.00    -0.077 NA
BRANCH  15  16
ATOM     16  S   UNL     1       0.068   0.326  23.771  0.00  0.00    +0.077 S 
ATOM     17  O   UNL     1      -0.154  -0.237  23.210  0.00  0.00    -0.152 OA
ATOM     18  O   UNL     1       0.291   0.889  24.332  0.00  0.00    -0.152 OA
BRANCH  16  19
ATOM     19  C   UNL     1       0.817   0.373  23.427  0.00  0.00    +0.124 A 
ATOM     20  C   UNL     1       1.294   1.031  23.567  0.00  0.00    +0.021 A 
ATOM     21  C   UNL     1       2.042   1.079  23.223  0.00  0.00    +0.018 A 
ATOM     22  C   UNL     1       2.313   0.469  22.738  0.00  0.00    +0.073 A 
ATOM     27  C   UNL     1       1.835  -0.189  22.598  0.00  0.00    +0.018 A 
ATOM     28  C   UNL     1       1.087  -0.237  22.942  0.00  0.00    +0.021 A 
BRANCH  22  23
ATOM     23  N   UNL     1       3.061   0.516  22.394  0.00  0.00    -0.179 NA
ATOM     24  C   UNL     1       3.733   0.548  22.871  0.00  0.00    +0.246 C 
ATOM     25  C   UNL     1       4.481   0.596  22.528  0.00  0.00    +0.097 C 
ATOM     26  O   UNL     1       3.658   0.532  23.692  0.00  0.00    -0.273 OA
ENDBRANCH  22  23
ENDBRANCH  16  19
ENDBRANCH  15  16
ENDBRANCH  14  15
ENDBRANCH  13  14
TORSDOF 10
ENDMDL
MODEL 2
REMARK VINA RESULT:      -7.4      1.707      6.240
REMARK  Name = 
REMARK  10 active torsions:
REMARK  status: ('A' for Active; 'I' for Inactive)
REMARK    1  A    between atoms: C_2  and  O_3
REMARK    2  A    between atoms: O_3  and  C_4
REMARK    3  A    between atoms: C_4  and  C_6
REMARK    4  A    between atoms: C_6  and  C_7
REMARK    5  A    between atoms: C_9  and  C_10
REMARK    6  A    between atoms: C_13  and  C_14
REMARK    7  A    between atoms: C_14  and  N_15
REMARK    8  A    between atoms: N_15  and  S_16
REMARK    9  A    between atoms: S_16  and  C_19
REMARK   10  A    between atoms: C_22  and  N_23
REMARK                            x       y       z     vdW  Elec       q    Type
REMARK                         _______ _______ _______ _____ _____    ______ ____
ROOT
ATOM      7  C   UNL     1       0.874   0.134  23.545  0.00  0.00    +0.029 C 
ATOM      8  C   UNL     1       0.846   0.900  23.847  0.00  0.00    +0.005 C 
ATOM      9  C   UNL     1       0.124   1.233  24.065  0.00  0.00    +0.006 C 
ATOM     13  C   UNL     1      -0.572   0.798  23.982  0.00  0.00    +0.041 C 
ATOM     29  C   UNL     1      -0.545   0.030  23.680  0.00  0.00    -0.033 C 
ATOM     30  C   UNL     1       0.178  -0.302  23.461  0.00  0.00    -0.048 C 
ATOM     31  C   UNL     1       0.205  -1.069  23.159  0.00  0.00    +0.026 C 
ENDROOT
BRANCH   9  10
ATOM     10  C   UNL     1       0.096   1.999  24.367  0.00  0.00    +0.000 C 
ATOM     11  C   UNL     1       0.147   2.125  25.181  0.00  0.00    +0.000 C 
ATOM     12  C   UNL     1       0.019   2.642  23.855  0.00  0.00    +0.000 C 
ENDBRANCH   9  10
BRANCH   7   6
ATOM      6  C   UNL     1       1.596  -0.199  23.326  0.00  0.00    +0.114 C 
BRANCH   6   4
ATOM      4  C   UNL     1       2.062   0.166  22.753  0.00  0.00    +0.317 C 
ATOM      5  O   UNL     1       1.849   0.120  21.957  0.00  0.00    -0.250 OA
BRANCH   4   3
ATOM      3  O   UNL     1       2.742   0.579  22.974  0.00  0.00    -0.448 OA
BRANCH   3   2
ATOM      1  C   UNL     1       4.117   0.899  22.760  0.00  0.00    +0.051 C 
ATOM      2  C   UNL     1       3.422   0.533  22.510  0.00  0.00    +0.209 C 
ENDBRANCH   3   2
ENDBRANCH   4   3
ENDBRANCH   6   4
ENDBRANCH   7   6
BRANCH  13  14
ATOM     14  C   UNL     1      -1.295   1.130  24.200  0.00  0.00    +0.120 C 
BRANCH  14  15
ATOM     15  N   UNL     1      -1.999   0.731  24.038  0.00  0.00    -0.077 NA
BRANCH  15  16
ATOM     16  S   UNL     1      -2.722   1.074  24.233  0.00  0.00    +0.077 S 
ATOM     17  O   UNL     1      -2.815   1.326  23.453  0.00  0.00    -0.152 OA
ATOM     18  O   UNL     1      -2.631   0.824  25.014  0.00  0.00    -0.152 OA
BRANCH  16  19
ATOM     19  C   UNL     1      -3.447   1.418  24.429  0.00  0.00    +0.124 A 
ATOM     20  C   UNL     1      -3.633   2.173  24.151  0.00  0.00    +0.021 A 
ATOM     21  C   UNL     1      -4.358   2.517  24.347  0.00  0.00    +0.018 A 
ATOM     22  C   UNL     1      -4.895   2.106  24.820  0.00  0.00    +0.073 A 
ATOM     27  C   UNL     1      -4.708   1.352  25.097  0.00  0.00    +0.018 A 
ATOM     28  C   UNL     1      -3.984   1.008  24.902  0.00  0.00    +0.021 A 
BRANCH  22  23
ATOM     23  N   UNL     1      -5.618   2.450  25.015  0.00  0.00    -0.179 NA
ATOM     24  C   UNL     1      -5.660   3.008  25.621  0.00  0.00    +0.246 C 
ATOM     25  C   UNL     1      -6.383   3.352  25.817  0.00  0.00    +0.097 C 
ATOM     26  O   UNL     1      -4.978   3.221  26.033  0.00  0.00    -0.273 OA
ENDBRANCH  22  23
ENDBRANCH  16  19
ENDBRANCH  15  16
ENDBRANCH  14  15
ENDBRANCH  13  14
TORSDOF 10
ENDMDL
MODEL 3
REMARK VINA RESULT:      -6.8      3.077      4.987
REMARK  Name = 
REMARK  10 active torsions:
REMARK  status: ('A' for Active; 'I' for Inactive)
REMARK    1  A    between atoms: C_2  and  O_3
REMARK    2  A    between atoms: O_3  and  C_4
REMARK    3  A    between atoms: C_4  and  C_6
REMARK    4  A    between atoms: C_6  and  C_7
REMARK    5  A    between atoms: C_9  and  C_10
REMARK    6  A    between atoms: C_13  and  C_14
REMARK    7  A    between atoms: C_14  and  N_15
REMARK    8  A    between atoms: N_15  and  S_16
REMARK    9  A    between atoms: S_16  and  C_19
REMARK   10  A    between atoms: C_22  and  N_23
REMARK                            x       y       z     vdW  Elec       q    Type
REMARK                         _______ _______ _______ _____ _____    ______ ____
ROOT
ATOM      7  C   UNL     1      -0.773   3.238  25.207  0.00  0.00    +0.029 C 
ATOM      8  C   UNL     1      -1.324   3.157  24.599  0.00  0.00    +0.005 C 
ATOM      9  C   UNL     1      -1.661   2.420  24.443  0.00  0.00    +0.006 C 
ATOM     13  C   UNL     1      -1.446   1.765  24.895  0.00  0.00    +0.041 C 
ATOM     29  C   UNL     1      -0.895   1.847  25.503  0.00  0.00    -0.033 C 
ATOM     30  C   UNL     1      -0.559   2.583  25.659  0.00  0.00    -0.048 C 
ATOM     31  C   UNL     1      -0.007   2.665  26.268  0.00  0.00    +0.026 C 
ENDROOT
BRANCH   9  10
ATOM     10  C   UNL     1      -2.212   2.339  23.835  0.00  0.00    +0.000 C 
ATOM     11  C   UNL     1      -3.010   2.490  23.977  0.00  0.00    +0.000 C 
ATOM     12  C   UNL     1      -1.965   2.105  23.083  0.00  0.00    +0.000 C 
ENDBRANCH   9  10
BRANCH   7   6
ATOM      6  C   UNL     1      -0.436   3.975  25.363  0.00  0.00    +0.114 C 
BRANCH   6   4
ATOM      4  C   UNL     1      -0.685   4.640  24.945  0.00  0.00    +0.317 C 
ATOM      5  O   UNL     1      -0.320   4.840  24.232  0.00  0.00    -0.250 OA
BRANCH   4   3
ATOM      3  O   UNL     1      -1.299   5.107  25.237  0.00  0.00    -0.448 OA
BRANCH   3   2
ATOM      1  C   UNL     1      -2.118   6.263  25.055  0.00  0.00    +0.051 C 
ATOM      2  C   UNL     1      -1.391   5.883  24.973  0.00  0.00    +0.209 C 
ENDBRANCH   3   2
ENDBRANCH   4   3
ENDBRANCH   6   4
ENDBRANCH   7   6
BRANCH  13  14
ATOM     14  C   UNL     1      -1.783   1.028  24.739  0.00  0.00    +0.120 C 
BRANCH  14  15
ATOM     15  N   UNL     1      -1.634   0.391  25.242  0.00  0.00    -0.077 NA
BRANCH  15  16
ATOM     16  S   UNL     1      -2.013  -0.330  25.117  0.00  0.00    +0.077 S 
ATOM     17  O   UNL     1      -2.588  -0.125  25.672  0.00  0.00    -0.152 OA
ATOM     18  O   UNL     1      -1.438  -0.537  24.563  0.00  0.00    -0.152 OA
BRANCH  16  19
ATOM     19  C   UNL     1      -2.392  -1.053  24.993  0.00  0.00    +0.124 A 
ATOM     20  C   UNL     1      -2.005  -1.656  24.584  0.00  0.00    +0.021 A 
ATOM     21  C   UNL     1      -2.384  -2.379  24.459  0.00  0.00    +0.018 A 
ATOM     22  C   UNL     1      -3.150  -2.498  24.743  0.00  0.00    +0.073 A 
ATOM     27  C   UNL     1      -3.536  -1.894  25.152  0.00  0.00    +0.018 A 
ATOM     28  C   UNL     1      -3.158  -1.172  25.276  0.00  0.00    +0.021 A 
BRANCH  22  23
ATOM     23  N   UNL     1      -3.528  -3.219  24.618  0.00  0.00    -0.179 NA
ATOM     24  C   UNL     1      -4.088  -3.293  24.016  0.00  0.00    +0.246 C 
ATOM     25  C   UNL     1      -4.467  -4.014  23.891  0.00  0.00    +0.097 C 
ATOM     26  O   UNL     1      -4.269  -2.645  23.539  0.00  0.00    -0.273 OA
ENDBRANCH  22  23
ENDBRANCH  16  19
ENDBRANCH  15  16
ENDBRANCH  14  15
ENDBRANCH  13  14
TORSDOF 10
ENDMDL
MODEL 4
REMARK VINA RESULT:      -6.6      2.970      4.338
REMARK  Name = 
REMARK  10 active torsions:
REMARK  status: ('A' for Active; 'I' for Inactive)
REMARK    1  A    between atoms: C_2  and  O_3
REMARK    2  A    between atoms: O_3  and  C_4
REMARK    3  A    between atoms: C_4  and  C_6
REMARK    4  A    between atoms: C_6  and  C_7
REMARK    5  A    between atoms: C_9  and  C_10
REMARK    6  A    between atoms: C_13  and  C_14
REMARK    7  A    between atoms: C_14  and  N_15
REMARK    8  A    between atoms: N_15  and  S_16
REMARK    9  A    between atoms: S_16  and  C_19
REMARK   10  A    between atoms: C_22  and  N_23
REMARK                            x       y       z     vdW  Elec       q    Type
REMARK                         _______ _______ _______ _____ _____    ______ ____
ROOT
ATOM      7  C   UNL     1      -2.365  -1.803  24.721  0.00  0.00    +0.029 C 
ATOM      8  C   UNL     1      -3.015  -1.299  24.670  0.00  0.00    +0.005 C 
ATOM      9  C   UNL     1      -2.912  -0.483  24.737  0.00  0.00    +0.006 C 
ATOM     13  C   UNL     1      -2.157  -0.172  24.856  0.00  0.00    +0.041 C 
ATOM     29  C   UNL     1      -1.507  -0.677  24.907  0.00  0.00    -0.033 C 
ATOM     30  C   UNL     1      -1.610  -1.492  24.840  0.00  0.00    -0.048 C 
ATOM     31  C   UNL     1      -0.960  -1.997  24.891  0.00  0.00    +0.026 C 
ENDROOT
BRANCH   9  10
ATOM     10  C   UNL     1      -3.562   0.021  24.686  0.00  0.00    +0.000 C 
ATOM     11  C   UNL     1      -3.778   0.345  23.958  0.00  0.00    +0.000 C 
ATOM     12  C   UNL     1      -3.998   0.202  25.363  0.00  0.00    +0.000 C 
ENDBRANCH   9  10
BRANCH   7   6
ATOM      6  C   UNL     1      -2.469  -2.619  24.654  0.00  0.00    +0.114 C 
BRANCH   6   4
ATOM      4  C   UNL     1      -3.228  -2.939  24.630  0.00  0.00    +0.317 C 
ATOM      5  O   UNL     1      -3.608  -3.151  25.331  0.00  0.00    -0.250 OA
BRANCH   4   3
ATOM      3  O   UNL     1      -3.609  -3.046  23.906  0.00  0.00    -0.448 OA
BRANCH   3   2
ATOM      1  C   UNL     1      -4.781  -3.442  23.193  0.00  0.00    +0.051 C 
ATOM      2  C   UNL     1      -4.309  -3.480  23.867  0.00  0.00    +0.209 C 
ENDBRANCH   3   2
ENDBRANCH   4   3
ENDBRANCH   6   4
ENDBRANCH   7   6
BRANCH  13  14
ATOM     14  C   UNL     1      -2.053   0.643  24.923  0.00  0.00    +0.120 C 
BRANCH  14  15
ATOM     15  N   UNL     1      -1.295   0.958  25.009  0.00  0.00    -0.077 NA
BRANCH  15  16
ATOM     16  S   UNL     1      -1.185   1.774  25.008  0.00  0.00    +0.077 S 
ATOM     17  O   UNL     1      -1.107   1.763  24.186  0.00  0.00    -0.152 OA
ATOM     18  O   UNL     1      -1.262   1.787  25.829  0.00  0.00    -0.152 OA
BRANCH  16  19
ATOM     19  C   UNL     1      -1.074   2.593  25.006  0.00  0.00    +0.124 A 
ATOM     20  C   UNL     1      -1.299   3.040  25.662  0.00  0.00    +0.021 A 
ATOM     21  C   UNL     1      -1.188   3.858  25.660  0.00  0.00    +0.018 A 
ATOM     22  C   UNL     1      -0.852   4.228  25.004  0.00  0.00    +0.073 A 
ATOM     27  C   UNL     1      -0.627   3.779  24.349  0.00  0.00    +0.018 A 
ATOM     28  C   UNL     1      -0.738   2.962  24.350  0.00  0.00    +0.021 A 
BRANCH  22  23
ATOM     23  N   UNL     1      -0.741   5.045  25.003  0.00  0.00    -0.179 NA
ATOM     24  C   UNL     1      -1.393   5.549  24.954  0.00  0.00    +0.246 C 
ATOM     25  C   UNL     1      -1.283   6.366  24.953  0.00  0.00    +0.097 C 
ATOM     26  O   UNL     1      -2.154   5.236  24.907  0.00  0.00    -0.273 OA
ENDBRANCH  22  23
ENDBRANCH  16  19
ENDBRANCH  15  16
ENDBRANCH  14  15
ENDBRANCH  13  14
TORSDOF 10
ENDMDL
