MODEL 1
REMARK VINA RESULT:     -13.7      0.000      0.000
REMARK  Name = 
REMARK  5 active torsions:
REMARK  status: ('A' for Active; 'I' for Inactive)
REMARK    1  A    between atoms: O_2  and  C_3
REMARK    2  A    between atoms: C_6  and  C_7
REMARK    3  A    between atoms: C_7  and  C_8
REMARK    4  A    between atoms: N_10  and  C_11
REMARK    5  A    between atoms: C_21  and  C_23
REMARK                            x       y       z     vdW  Elec       q    Type
REMARK                         _______ _______ _______ _____ _____    ______ ____
ROOT
ATOM     11  C   UNL     1      -3.551   0.212  24.381  0.00  0.00    +0.129 A 
ATOM     12  C   UNL     1      -4.293  -0.143  24.315  0.00  0.00    +0.023 A 
ATOM     13  C   UNL     1      -4.361  -0.965  24.345  0.00  0.00    +0.014 A 
ATOM     14  C   UNL     1      -3.688  -1.431  24.442  0.00  0.00    +0.041 A 
ATOM     15  C   UNL     1      -3.433  -2.311  24.511  0.00  0.00    +0.058 C 
ATOM     16  C   UNL     1      -3.696  -2.962  24.512  0.00  0.00    +0.011 C 
ATOM     17  C   UNL     1      -2.965  -2.608  24.576  0.00  0.00    +0.043 C 
ATOM     18  C   UNL     1      -2.010  -2.372  24.671  0.00  0.00    +0.096 C 
ATOM     19  N   UNL     1      -2.067  -1.540  24.627  0.00  0.00    -0.270 N 
ATOM     20  C   UNL     1      -2.506  -2.100  24.604  0.00  0.00    +0.100 C 
ATOM     21  C   UNL     1      -1.446  -0.914  24.667  0.00  0.00    +0.329 C 
ATOM     22  O   UNL     1      -0.605  -0.812  24.755  0.00  0.00    -0.263 OA
ATOM     26  C   UNL     1      -3.222  -1.686  24.505  0.00  0.00    +0.110 C 
ATOM     27  N   UNL     1      -2.946  -1.076  24.508  0.00  0.00    -0.298 N 
ATOM     28  C   UNL     1      -2.878  -0.254  24.477  0.00  0.00    +0.276 A 
ATOM     29  O   UNL     1      -1.917   0.099  24.567  0.00  0.00    -0.266 OA
ENDROOT
BRANCH  11  10
ATOM      8  C   UNL     1      -4.007   1.870  24.631  0.00  0.00    +0.250 C 
ATOM      9  O   UNL     1      -3.985   1.962  25.476  0.00  0.00    -0.273 OA
ATOM     10  N   UNL     1      -3.798   1.070  24.314  0.00  0.00    -0.174 NA
BRANCH   8   7
ATOM      7  C   UNL     1      -4.203   2.436  24.007  0.00  0.00    +0.113 C 
BRANCH   7   6
ATOM      3  C   UNL     1      -2.824   3.999  25.317  0.00  0.00    +0.139 A 
ATOM      4  C   UNL     1      -2.529   3.675  24.619  0.00  0.00    +0.037 A 
ATOM      5  C   UNL     1      -2.991   3.151  24.179  0.00  0.00    -0.001 A 
ATOM      6  C   UNL     1      -3.749   2.952  24.439  0.00  0.00    -0.013 A 
ATOM     30  C   UNL     1      -4.044   3.276  25.137  0.00  0.00    -0.001 A 
ATOM     31  C   UNL     1      -3.582   3.800  25.577  0.00  0.00    +0.037 A 
BRANCH   3   2
ATOM      1  C   UNL     1      -1.682   4.851  25.427  0.00  0.00    +0.252 C 
ATOM      2  O   UNL     1      -2.363   4.523  25.757  0.00  0.00    -0.471 OA
ENDBRANCH   3   2
ENDBRANCH   7   6
ENDBRANCH   8   7
ENDBRANCH  11  10
BRANCH  21  23
ATOM     23  C   UNL     1      -2.213  -0.415  24.558  0.00  0.00    +0.440 C 
ATOM     24  O   UNL     1      -2.835  -0.072  25.148  0.00  0.00    -0.235 OA
ATOM     25  O   UNL     1      -2.642  -0.070  23.770  0.00  0.00    -0.235 OA
ENDBRANCH  21  23
TORSDOF 5
ENDMDL
MODEL 2
REMARK VINA RESULT:     -13.6      1.580      4.839
REMARK  Name = 
REMARK  5 active torsions:
REMARK  status: ('A' for Active; 'I' for Inactive)
REMARK    1  A    between atoms: O_2  and  C_3
REMARK    2  A    between atoms: C_6  and  C_7
REMARK    3  A    between atoms: C_7  and  C_8
REMARK    4  A    between atoms: N_10  and  C_11
REMARK    5  A    between atoms: C_21  and  C_23
REMARK                            x       y       z     vdW  Elec       q    Type
REMARK                         _______ _______ _______ _____ _____    ______ ____
ROOT
ATOM     11  C   UNL     1      -2.884   2.384  25.043  0.00  0.00    +0.129 A 
ATOM     12  C   UNL     1      -3.411   3.019  25.033  0.00  0.00    +0.023 A 
ATOM     13  C   UNL     1      -3.125   3.792  25.050  0.00  0.00    +0.014 A 
ATOM     14  C   UNL     1      -2.313   3.931  25.077  0.00  0.00    +0.041 A 
ATOM     15  C   UNL     1      -1.707   4.622  25.103  0.00  0.00    +0.058 C 
ATOM     16  C   UNL     1      -1.672   5.323  25.111  0.00  0.00    +0.011 C 
ATOM     17  C   UNL     1      -1.155   4.694  25.121  0.00  0.00    +0.043 C 
ATOM     18  C   UNL     1      -0.382   4.077  25.139  0.00  0.00    +0.096 C 
ATOM     19  N   UNL     1      -0.786   3.346  25.118  0.00  0.00    -0.270 N 
ATOM     20  C   UNL     1      -0.951   4.039  25.120  0.00  0.00    +0.100 C 
ATOM     21  C   UNL     1      -0.485   2.517  25.119  0.00  0.00    +0.329 C 
ATOM     22  O   UNL     1       0.240   2.070  25.137  0.00  0.00    -0.263 OA
ATOM     26  C   UNL     1      -1.780   3.965  25.094  0.00  0.00    +0.110 C 
ATOM     27  N   UNL     1      -1.786   3.296  25.087  0.00  0.00    -0.298 N 
ATOM     28  C   UNL     1      -2.072   2.522  25.070  0.00  0.00    +0.276 A 
ATOM     29  O   UNL     1      -1.344   1.798  25.085  0.00  0.00    -0.266 OA
ENDROOT
BRANCH  11  10
ATOM      8  C   UNL     1      -3.871   1.007  24.653  0.00  0.00    +0.250 C 
ATOM      9  O   UNL     1      -3.593   0.769  23.885  0.00  0.00    -0.273 OA
ATOM     10  N   UNL     1      -3.473   1.710  25.017  0.00  0.00    -0.174 NA
BRANCH   8   7
ATOM      7  C   UNL     1      -4.491   0.676  25.156  0.00  0.00    +0.113 C 
BRANCH   7   6
ATOM      3  C   UNL     1      -3.612  -1.497  24.404  0.00  0.00    +0.139 A 
ATOM      4  C   UNL     1      -3.453  -1.230  25.168  0.00  0.00    +0.037 A 
ATOM      5  C   UNL     1      -3.748  -0.502  25.420  0.00  0.00    -0.001 A 
ATOM      6  C   UNL     1      -4.202  -0.041  24.908  0.00  0.00    -0.013 A 
ATOM     30  C   UNL     1      -4.361  -0.308  24.144  0.00  0.00    -0.001 A 
ATOM     31  C   UNL     1      -4.066  -1.036  23.892  0.00  0.00    +0.037 A 
BRANCH   3   2
ATOM      1  C   UNL     1      -3.540  -2.918  24.540  0.00  0.00    +0.252 C 
ATOM      2  O   UNL     1      -3.318  -2.225  24.151  0.00  0.00    -0.471 OA
ENDBRANCH   3   2
ENDBRANCH   7   6
ENDBRANCH   8   7
ENDBRANCH  11  10
BRANCH  21  23
ATOM     23  C   UNL     1      -1.396   2.388  25.089  0.00  0.00    +0.440 C 
ATOM     24  O   UNL     1      -2.008   2.334  24.399  0.00  0.00    -0.235 OA
ATOM     25  O   UNL     1      -2.044   2.262  25.788  0.00  0.00    -0.235 OA
ENDBRANCH  21  23
TORSDOF 5
ENDMDL
MODEL 3
REMARK VINA RESULT:     -13.3      1.274      4.678
REMARK  Name = 
REMARK  5 active torsions:
REMARK  status: ('A' for Active; 'I' for Inactive)
REMARK    1  A    between atoms: O_2  and  C_3
REMARK    2  A    between atoms: C_6  and  C_7
REMARK    3  A    between atoms: C_7  and  C_8
REMARK    4  A    between atoms: N_10  and  C_11
REMARK    5  A    between atoms: C_21  and  C_23
REMARK                            x       y       z     vdW  Elec       q    Type
REMARK                         _______ _______ _______ _____ _____    ______ ____
ROOT
ATOM     11  C   UNL     1      -4.384   1.019  24.709  0.00  0.00    +0.129 A 
ATOM     12  C   UNL     1      -5.146   1.025  25.026  0.00  0.00    +0.023 A 
ATOM     13  C   UNL     1      -5.477   1.733  25.292  0.00  0.00    +0.014 A 
ATOM     14  C   UNL     1      -5.047   2.434  25.240  0.00  0.00    +0.041 A 
ATOM     15  C   UNL     1      -5.117   3.330  25.432  0.00  0.00    +0.058 C 
ATOM     16  C   UNL     1      -5.560   3.802  25.701  0.00  0.00    +0.011 C 
ATOM     17  C   UNL     1      -4.808   3.793  25.388  0.00  0.00    +0.043 C 
ATOM     18  C   UNL     1      -3.901   3.984  25.046  0.00  0.00    +0.096 C 
ATOM     19  N   UNL     1      -3.675   3.214  24.813  0.00  0.00    -0.270 N 
ATOM     20  C   UNL     1      -4.242   3.531  25.105  0.00  0.00    +0.100 C 
ATOM     21  C   UNL     1      -2.928   2.915  24.449  0.00  0.00    +0.329 C 
ATOM     22  O   UNL     1      -2.164   3.177  24.180  0.00  0.00    -0.263 OA
ATOM     26  C   UNL     1      -4.726   2.858  25.184  0.00  0.00    +0.110 C 
ATOM     27  N   UNL     1      -4.285   2.428  24.923  0.00  0.00    -0.298 N 
ATOM     28  C   UNL     1      -3.954   1.721  24.658  0.00  0.00    +0.276 A 
ATOM     29  O   UNL     1      -3.003   1.809  24.280  0.00  0.00    -0.266 OA
ENDROOT
BRANCH  11  10
ATOM      8  C   UNL     1      -4.147  -0.703  24.712  0.00  0.00    +0.250 C 
ATOM      9  O   UNL     1      -3.905  -0.873  25.510  0.00  0.00    -0.273 OA
ATOM     10  N   UNL     1      -4.315   0.147  24.523  0.00  0.00    -0.174 NA
BRANCH   8   7
ATOM      7  C   UNL     1      -4.260  -1.226  24.033  0.00  0.00    +0.113 C 
BRANCH   7   6
ATOM      3  C   UNL     1      -2.180  -2.292  24.807  0.00  0.00    +0.139 A 
ATOM      4  C   UNL     1      -2.159  -1.747  24.188  0.00  0.00    +0.037 A 
ATOM      5  C   UNL     1      -2.856  -1.390  23.928  0.00  0.00    -0.001 A 
ATOM      6  C   UNL     1      -3.574  -1.578  24.288  0.00  0.00    -0.013 A 
ATOM     30  C   UNL     1      -3.596  -2.122  24.907  0.00  0.00    -0.001 A 
ATOM     31  C   UNL     1      -2.898  -2.480  25.167  0.00  0.00    +0.037 A 
BRANCH   3   2
ATOM      1  C   UNL     1      -0.787  -2.211  25.115  0.00  0.00    +0.252 C 
ATOM      2  O   UNL     1      -1.484  -2.649  25.066  0.00  0.00    -0.471 OA
ENDBRANCH   3   2
ENDBRANCH   7   6
ENDBRANCH   8   7
ENDBRANCH  11  10
BRANCH  21  23
ATOM     23  C   UNL     1      -3.430   2.145  24.517  0.00  0.00    +0.440 C 
ATOM     24  O   UNL     1      -3.548   1.522  25.188  0.00  0.00    -0.235 OA
ATOM     25  O   UNL     1      -4.020   1.712  23.894  0.00  0.00    -0.235 OA
ENDBRANCH  21  23
TORSDOF 5
ENDMDL
MODEL 4
REMARK VINA RESULT:     -13.1      1.303      1.769
REMARK  Name = 
REMARK  5 active torsions:
REMARK  status: ('A' for Active; 'I' for Inactive)
REMARK    1  A    between atoms: O_2  and  C_3
REMARK    2  A    between atoms: C_6  and  C_7
REMARK    3  A    between atoms: C_7  and  C_8
REMARK    4  A    between atoms: N_10  and  C_11
REMARK    5  A    between atoms: C_21  and  C_23
REMARK                            x       y       z     vdW  Elec       q    Type
REMARK                         _______ _______ _______ _____ _____    ______ ____
ROOT
ATOM     11  C   UNL     1      -2.142   0.210  25.013  0.00  0.00    +0.129 A 
ATOM     12  C   UNL     1      -2.860   0.574  24.830  0.00  0.00    +0.023 A 
ATOM     13  C   UNL     1      -3.495   0.122  24.562  0.00  0.00    +0.014 A 
ATOM     14  C   UNL     1      -3.413  -0.695  24.477  0.00  0.00    +0.041 A 
ATOM     15  C   UNL     1      -3.890  -1.437  24.221  0.00  0.00    +0.058 C 
ATOM     16  C   UNL     1      -4.524  -1.631  23.989  0.00  0.00    +0.011 C 
ATOM     17  C   UNL     1      -3.814  -1.987  24.170  0.00  0.00    +0.043 C 
ATOM     18  C   UNL     1      -3.050  -2.592  24.334  0.00  0.00    +0.096 C 
ATOM     19  N   UNL     1      -2.484  -2.035  24.594  0.00  0.00    -0.270 N 
ATOM     20  C   UNL     1      -3.161  -2.034  24.375  0.00  0.00    +0.100 C 
ATOM     21  C   UNL     1      -1.646  -2.137  24.851  0.00  0.00    +0.329 C 
ATOM     22  O   UNL     1      -1.049  -2.735  24.962  0.00  0.00    -0.263 OA
ATOM     26  C   UNL     1      -3.307  -1.217  24.439  0.00  0.00    +0.110 C 
ATOM     27  N   UNL     1      -2.695  -1.058  24.659  0.00  0.00    -0.298 N 
ATOM     28  C   UNL     1      -2.060  -0.606  24.927  0.00  0.00    +0.276 A 
ATOM     29  O   UNL     1      -1.208  -1.143  25.129  0.00  0.00    -0.266 OA
ENDROOT
BRANCH  11  10
ATOM      8  C   UNL     1      -1.395   1.770  25.188  0.00  0.00    +0.250 C 
ATOM      9  O   UNL     1      -1.689   2.212  24.524  0.00  0.00    -0.273 OA
ATOM     10  N   UNL     1      -1.676   0.933  25.262  0.00  0.00    -0.174 NA
BRANCH   8   7
ATOM      7  C   UNL     1      -0.853   1.998  25.823  0.00  0.00    +0.113 C 
BRANCH   7   6
ATOM      3  C   UNL     1      -1.467   4.299  25.196  0.00  0.00    +0.139 A 
ATOM      4  C   UNL     1      -0.838   3.922  24.818  0.00  0.00    +0.037 A 
ATOM      5  C   UNL     1      -0.632   3.151  25.028  0.00  0.00    -0.001 A 
ATOM      6  C   UNL     1      -1.056   2.757  25.617  0.00  0.00    -0.013 A 
ATOM     30  C   UNL     1      -1.684   3.133  25.995  0.00  0.00    -0.001 A 
ATOM     31  C   UNL     1      -1.890   3.905  25.785  0.00  0.00    +0.037 A 
BRANCH   3   2
ATOM      1  C   UNL     1      -1.092   5.651  24.926  0.00  0.00    +0.252 C 
ATOM      2  O   UNL     1      -1.673   5.069  24.987  0.00  0.00    -0.471 OA
ENDBRANCH   3   2
ENDBRANCH   7   6
ENDBRANCH   8   7
ENDBRANCH  11  10
BRANCH  21  23
ATOM     23  C   UNL     1      -1.762  -1.227  24.938  0.00  0.00    +0.440 C 
ATOM     24  O   UNL     1      -1.659  -0.516  24.359  0.00  0.00    -0.235 OA
ATOM     25  O   UNL     1      -2.041  -0.690  25.685  0.00  0.00    -0.235 OA
ENDBRANCH  21  23
TORSDOF 5
ENDMDL
