MODEL 1
REMARK VINA RESULT:     -12.9      0.000      0.000
REMARK  Name = 
REMARK  7 active torsions:
REMARK  status: ('A' for Active; 'I' for Inactive)
REMARK    1  A    between atoms: O_2  and  C_3
REMARK    2  A    between atoms: C_8  and  C_9
REMARK    3  A    between atoms: C_9  and  N_10
REMARK    4  A    between atoms: C_14  and  C_15
REMARK    5  A    between atoms: C_17  and  C_20
REMARK    6  A    between atoms: C_24  and  N_26
REMARK    7  A    between atoms: C_29  and  C_32
REMARK                            x       y       z     vdW  Elec       q    Type
REMARK                         _______ _______ _______ _____ _____    ______ ____
ROOT
ATOM     15  C   UNL     1      -3.132   3.698  24.633  0.00  0.00    +0.251 A 
ATOM     16  N   UNL     1      -3.415   3.018  25.005  0.00  0.00    -0.190 NA
ATOM     17  C   UNL     1      -4.068   2.747  24.580  0.00  0.00    +0.203 A 
ATOM     18  N   UNL     1      -4.189   3.260  23.945  0.00  0.00    -0.056 NA
ATOM     19  O   UNL     1      -3.611   3.848  23.978  0.00  0.00    -0.336 OA
ENDROOT
BRANCH  17  20
ATOM     20  C   UNL     1      -4.521   2.081  24.757  0.00  0.00    +0.043 A 
ATOM     21  C   UNL     1      -5.314   2.166  24.968  0.00  0.00    +0.024 A 
ATOM     22  C   UNL     1      -5.768   1.501  25.146  0.00  0.00    +0.100 A 
ATOM     23  N   UNL     1      -5.429   0.750  25.112  0.00  0.00    -0.229 NA
ATOM     24  C   UNL     1      -4.636   0.664  24.901  0.00  0.00    +0.132 A 
ATOM     25  C   UNL     1      -4.182   1.330  24.724  0.00  0.00    +0.037 A 
BRANCH  24  26
ATOM     26  N   UNL     1      -4.297  -0.087  24.868  0.00  0.00    -0.293 N 
ATOM     27  C   UNL     1      -3.917  -0.398  25.530  0.00  0.00    +0.093 C 
ATOM     28  C   UNL     1      -3.578  -1.149  25.497  0.00  0.00    +0.031 C 
ATOM     29  C   UNL     1      -3.619  -1.590  24.801  0.00  0.00    +0.083 C 
ATOM     30  C   UNL     1      -3.999  -1.279  24.137  0.00  0.00    +0.031 C 
ATOM     31  C   UNL     1      -4.338  -0.528  24.171  0.00  0.00    +0.093 C 
BRANCH  29  32
ATOM     32  C   UNL     1      -3.280  -2.341  24.767  0.00  0.00    +0.260 C 
ATOM     33  N   UNL     1      -2.627  -2.478  24.281  0.00  0.00    -0.088 NA
ATOM     34  O   UNL     1      -3.594  -2.956  25.220  0.00  0.00    -0.272 OA
ENDBRANCH  29  32
ENDBRANCH  24  26
ENDBRANCH  17  20
BRANCH  15  14
ATOM     10  N   UNL     1      -1.694   3.916  24.847  0.00  0.00    -0.263 NA
ATOM     11  C   UNL     1      -1.236   4.537  25.140  0.00  0.00    +0.073 C 
ATOM     12  C   UNL     1      -1.744   5.153  25.348  0.00  0.00    +0.019 C 
ATOM     13  C   UNL     1      -2.516   4.914  25.183  0.00  0.00    +0.027 C 
ATOM     14  C   UNL     1      -2.485   4.149  24.874  0.00  0.00    +0.138 C 
BRANCH  10   9
ATOM      9  C   UNL     1      -1.411   3.191  24.576  0.00  0.00    +0.103 C 
BRANCH   9   8
ATOM      3  C   UNL     1      -0.469   2.121  24.673  0.00  0.00    +0.136 A 
ATOM      4  C   UNL     1       0.127   1.730  25.088  0.00  0.00    +0.037 A 
ATOM      5  C   UNL     1       0.378   2.017  25.818  0.00  0.00    +0.003 A 
ATOM      6  C   UNL     1       0.033   2.696  26.136  0.00  0.00    -0.000 A 
ATOM      7  C   UNL     1      -0.564   3.087  25.722  0.00  0.00    +0.000 A 
ATOM      8  C   UNL     1      -0.815   2.800  24.990  0.00  0.00    +0.028 A 
BRANCH   3   2
ATOM      1  C   UNL     1      -0.594   1.042  23.744  0.00  0.00    +0.252 C 
ATOM      2  O   UNL     1      -0.720   1.834  23.942  0.00  0.00    -0.472 OA
ENDBRANCH   3   2
ENDBRANCH   9   8
ENDBRANCH  10   9
ENDBRANCH  15  14
TORSDOF 7
ENDMDL
MODEL 2
REMARK VINA RESULT:     -12.6      1.655      4.747
REMARK  Name = 
REMARK  7 active torsions:
REMARK  status: ('A' for Active; 'I' for Inactive)
REMARK    1  A    between atoms: O_2  and  C_3
REMARK    2  A    between atoms: C_8  and  C_9
REMARK    3  A    between atoms: C_9  and  N_10
REMARK    4  A    between atoms: C_14  and  C_15
REMARK    5  A    between atoms: C_17  and  C_20
REMARK    6  A    between atoms: C_24  and  N_26
REMARK    7  A    between atoms: C_29  and  C_32
REMARK                            x       y       z     vdW  Elec       q    Type
REMARK                         _______ _______ _______ _____ _____    ______ ____
ROOT
ATOM     15  C   UNL     1      -0.048   1.435  24.537  0.00  0.00    +0.251 A 
ATOM     16  N   UNL     1      -0.637   1.997  24.403  0.00  0.00    -0.190 NA
ATOM     17  C   UNL     1      -0.547   2.599  24.958  0.00  0.00    +0.203 A 
ATOM     18  N   UNL     1       0.099   2.410  25.437  0.00  0.00    -0.056 NA
ATOM     19  O   UNL     1       0.407   1.691  25.176  0.00  0.00    -0.336 OA
ENDROOT
BRANCH  17  20
ATOM     20  C   UNL     1      -1.019   3.273  25.025  0.00  0.00    +0.043 A 
ATOM     21  C   UNL     1      -0.673   4.022  24.998  0.00  0.00    +0.024 A 
ATOM     22  C   UNL     1      -1.144   4.696  25.064  0.00  0.00    +0.100 A 
ATOM     23  N   UNL     1      -1.960   4.621  25.159  0.00  0.00    -0.229 NA
ATOM     24  C   UNL     1      -2.306   3.873  25.186  0.00  0.00    +0.132 A 
ATOM     25  C   UNL     1      -1.835   3.198  25.119  0.00  0.00    +0.037 A 
BRANCH  24  26
ATOM     26  N   UNL     1      -3.122   3.799  25.280  0.00  0.00    -0.293 N 
ATOM     27  C   UNL     1      -3.601   3.655  24.624  0.00  0.00    +0.093 C 
ATOM     28  C   UNL     1      -4.417   3.581  24.719  0.00  0.00    +0.031 C 
ATOM     29  C   UNL     1      -4.754   3.650  25.468  0.00  0.00    +0.083 C 
ATOM     30  C   UNL     1      -4.274   3.793  26.124  0.00  0.00    +0.031 C 
ATOM     31  C   UNL     1      -3.458   3.867  26.030  0.00  0.00    +0.093 C 
BRANCH  29  32
ATOM     32  C   UNL     1      -5.570   3.575  25.562  0.00  0.00    +0.260 C 
ATOM     33  N   UNL     1      -5.926   2.833  25.506  0.00  0.00    -0.088 NA
ATOM     34  O   UNL     1      -6.030   4.244  25.713  0.00  0.00    -0.272 OA
ENDBRANCH  29  32
ENDBRANCH  24  26
ENDBRANCH  17  20
BRANCH  15  14
ATOM     10  N   UNL     1      -0.362   0.040  24.193  0.00  0.00    -0.263 NA
ATOM     11  C   UNL     1      -0.062  -0.509  23.657  0.00  0.00    +0.073 C 
ATOM     12  C   UNL     1       0.553  -0.150  23.240  0.00  0.00    +0.019 C 
ATOM     13  C   UNL     1       0.633   0.622  23.520  0.00  0.00    +0.027 C 
ATOM     14  C   UNL     1       0.067   0.740  24.109  0.00  0.00    +0.138 C 
BRANCH  10   9
ATOM      9  C   UNL     1      -0.982  -0.086  24.721  0.00  0.00    +0.103 C 
BRANCH   9   8
ATOM      3  C   UNL     1      -2.188  -0.851  24.788  0.00  0.00    +0.136 A 
ATOM      4  C   UNL     1      -2.570  -1.582  24.808  0.00  0.00    +0.037 A 
ATOM      5  C   UNL     1      -2.130  -2.279  24.781  0.00  0.00    +0.003 A 
ATOM      6  C   UNL     1      -1.307  -2.245  24.734  0.00  0.00    -0.000 A 
ATOM      7  C   UNL     1      -0.924  -1.514  24.714  0.00  0.00    +0.000 A 
ATOM      8  C   UNL     1      -1.365  -0.817  24.741  0.00  0.00    +0.028 A 
BRANCH   3   2
ATOM      1  C   UNL     1      -3.438  -0.184  24.975  0.00  0.00    +0.252 C 
ATOM      2  O   UNL     1      -2.628  -0.154  24.816  0.00  0.00    -0.472 OA
ENDBRANCH   3   2
ENDBRANCH   9   8
ENDBRANCH  10   9
ENDBRANCH  15  14
TORSDOF 7
ENDMDL
MODEL 3
REMARK VINA RESULT:     -12.5      1.440      4.778
REMARK  Name = 
REMARK  7 active torsions:
REMARK  status: ('A' for Active; 'I' for Inactive)
REMARK    1  A    between atoms: O_2  and  C_3
REMARK    2  A    between atoms: C_8  and  C_9
REMARK    3  A    between atoms: C_9  and  N_10
REMARK    4  A    between atoms: C_14  and  C_15
REMARK    5  A    between atoms: C_17  and  C_20
REMARK    6  A    between atoms: C_24  and  N_26
REMARK    7  A    between atoms: C_29  and  C_32
REMARK                            x       y       z     vdW  Elec       q    Type
REMARK                         _______ _______ _______ _____ _____    ______ ____
ROOT
ATOM     15  C   UNL     1      -4.341  -0.267  24.897  0.00  0.00    +0.251 A 
ATOM     16  N   UNL     1      -4.268   0.518  24.654  0.00  0.00    -0.190 NA
ATOM     17  C   UNL     1      -4.646   0.994  25.210  0.00  0.00    +0.203 A 
ATOM     18  N   UNL     1      -4.954   0.504  25.799  0.00  0.00    -0.056 NA
ATOM     19  O   UNL     1      -4.765  -0.276  25.605  0.00  0.00    -0.336 OA
ENDROOT
BRANCH  17  20
ATOM     20  C   UNL     1      -4.707   1.816  25.185  0.00  0.00    +0.043 A 
ATOM     21  C   UNL     1      -5.450   2.174  25.169  0.00  0.00    +0.024 A 
ATOM     22  C   UNL     1      -5.512   2.996  25.144  0.00  0.00    +0.100 A 
ATOM     23  N   UNL     1      -4.831   3.461  25.134  0.00  0.00    -0.229 NA
ATOM     24  C   UNL     1      -4.087   3.104  25.149  0.00  0.00    +0.132 A 
ATOM     25  C   UNL     1      -4.025   2.281  25.175  0.00  0.00    +0.037 A 
BRANCH  24  26
ATOM     26  N   UNL     1      -3.406   3.568  25.139  0.00  0.00    -0.293 N 
ATOM     27  C   UNL     1      -3.063   3.781  24.420  0.00  0.00    +0.093 C 
ATOM     28  C   UNL     1      -2.381   4.245  24.410  0.00  0.00    +0.031 C 
ATOM     29  C   UNL     1      -2.043   4.498  25.118  0.00  0.00    +0.083 C 
ATOM     30  C   UNL     1      -2.386   4.285  25.838  0.00  0.00    +0.031 C 
ATOM     31  C   UNL     1      -3.068   3.820  25.848  0.00  0.00    +0.093 C 
BRANCH  29  32
ATOM     32  C   UNL     1      -1.361   4.963  25.108  0.00  0.00    +0.260 C 
ATOM     33  N   UNL     1      -0.619   4.606  25.053  0.00  0.00    -0.088 NA
ATOM     34  O   UNL     1      -1.422   5.784  25.153  0.00  0.00    -0.272 OA
ENDBRANCH  29  32
ENDBRANCH  24  26
ENDBRANCH  17  20
BRANCH  15  14
ATOM     10  N   UNL     1      -3.267  -1.205  24.537  0.00  0.00    -0.263 NA
ATOM     11  C   UNL     1      -3.215  -1.876  24.061  0.00  0.00    +0.073 C 
ATOM     12  C   UNL     1      -3.959  -2.014  23.732  0.00  0.00    +0.019 C 
ATOM     13  C   UNL     1      -4.472  -1.428  24.005  0.00  0.00    +0.027 C 
ATOM     14  C   UNL     1      -4.044  -0.928  24.503  0.00  0.00    +0.138 C 
BRANCH  10   9
ATOM      9  C   UNL     1      -2.652  -0.869  24.971  0.00  0.00    +0.103 C 
BRANCH   9   8
ATOM      3  C   UNL     1      -1.230  -0.731  24.933  0.00  0.00    +0.136 A 
ATOM      4  C   UNL     1      -0.480  -1.073  24.916  0.00  0.00    +0.037 A 
ATOM      5  C   UNL     1      -0.400  -1.894  24.921  0.00  0.00    +0.003 A 
ATOM      6  C   UNL     1      -1.071  -2.373  24.943  0.00  0.00    -0.000 A 
ATOM      7  C   UNL     1      -1.822  -2.032  24.960  0.00  0.00    +0.000 A 
ATOM      8  C   UNL     1      -1.901  -1.210  24.955  0.00  0.00    +0.028 A 
BRANCH   3   2
ATOM      1  C   UNL     1      -0.640   0.570  24.970  0.00  0.00    +0.252 C 
ATOM      2  O   UNL     1      -1.310   0.090  24.928  0.00  0.00    -0.472 OA
ENDBRANCH   3   2
ENDBRANCH   9   8
ENDBRANCH  10   9
ENDBRANCH  15  14
TORSDOF 7
ENDMDL
MODEL 4
REMARK VINA RESULT:     -12.3      1.644      5.143
REMARK  Name = 
REMARK  7 active torsions:
REMARK  status: ('A' for Active; 'I' for Inactive)
REMARK    1  A    between atoms: O_2  and  C_3
REMARK    2  A    between atoms: C_8  and  C_9
REMARK    3  A    between atoms: C_9  and  N_10
REMARK    4  A    between atoms: C_14  and  C_15
REMARK    5  A    between atoms: C_17  and  C_20
REMARK    6  A    between atoms: C_24  and  N_26
REMARK    7  A    between atoms: C_29  and  C_32
REMARK                            x       y       z     vdW  Elec       q    Type
REMARK                         _______ _______ _______ _____ _____    ______ ____
ROOT
ATOM     15  C   UNL     1      -0.770   0.120  24.539  0.00  0.00    +0.251 A 
ATOM     16  N   UNL     1      -1.106   0.777  24.909  0.00  0.00    -0.190 NA
ATOM     17  C   UNL     1      -0.949   1.440  24.445  0.00  0.00    +0.203 A 
ATOM     18  N   UNL     1      -0.516   1.194  23.787  0.00  0.00    -0.056 NA
ATOM     19  O   UNL     1      -0.405   0.379  23.845  0.00  0.00    -0.336 OA
ENDROOT
BRANCH  17  20
ATOM     20  C   UNL     1      -1.184   2.214  24.609  0.00  0.00    +0.043 A 
ATOM     21  C   UNL     1      -0.627   2.822  24.612  0.00  0.00    +0.024 A 
ATOM     22  C   UNL     1      -0.860   3.595  24.775  0.00  0.00    +0.100 A 
ATOM     23  N   UNL     1      -1.652   3.762  24.935  0.00  0.00    -0.229 NA
ATOM     24  C   UNL     1      -2.210   3.154  24.932  0.00  0.00    +0.132 A 
ATOM     25  C   UNL     1      -1.976   2.380  24.769  0.00  0.00    +0.037 A 
BRANCH  24  26
ATOM     26  N   UNL     1      -3.002   3.321  25.093  0.00  0.00    -0.293 N 
ATOM     27  C   UNL     1      -3.565   3.260  24.494  0.00  0.00    +0.093 C 
ATOM     28  C   UNL     1      -4.357   3.426  24.654  0.00  0.00    +0.031 C 
ATOM     29  C   UNL     1      -4.586   3.654  25.413  0.00  0.00    +0.083 C 
ATOM     30  C   UNL     1      -4.022   3.715  26.013  0.00  0.00    +0.031 C 
ATOM     31  C   UNL     1      -3.230   3.548  25.852  0.00  0.00    +0.093 C 
BRANCH  29  32
ATOM     32  C   UNL     1      -5.378   3.820  25.573  0.00  0.00    +0.260 C 
ATOM     33  N   UNL     1      -5.871   3.230  25.874  0.00  0.00    -0.088 NA
ATOM     34  O   UNL     1      -5.677   4.576  25.433  0.00  0.00    -0.272 OA
ENDBRANCH  29  32
ENDBRANCH  24  26
ENDBRANCH  17  20
BRANCH  15  14
ATOM     10  N   UNL     1      -1.426  -1.181  24.734  0.00  0.00    -0.263 NA
ATOM     11  C   UNL     1      -1.211  -1.895  25.086  0.00  0.00    +0.073 C 
ATOM     12  C   UNL     1      -0.446  -1.812  25.384  0.00  0.00    +0.019 C 
ATOM     13  C   UNL     1      -0.187  -1.047  25.215  0.00  0.00    +0.027 C 
ATOM     14  C   UNL     1      -0.793  -0.657  24.813  0.00  0.00    +0.138 C 
BRANCH  10   9
ATOM      9  C   UNL     1      -2.145  -1.019  24.366  0.00  0.00    +0.103 C 
BRANCH   9   8
ATOM      3  C   UNL     1      -3.532  -1.365  24.345  0.00  0.00    +0.136 A 
ATOM      4  C   UNL     1      -4.124  -1.940  24.328  0.00  0.00    +0.037 A 
ATOM      5  C   UNL     1      -3.924  -2.739  24.317  0.00  0.00    +0.003 A 
ATOM      6  C   UNL     1      -3.131  -2.966  24.321  0.00  0.00    -0.000 A 
ATOM      7  C   UNL     1      -2.538  -2.393  24.338  0.00  0.00    +0.000 A 
ATOM      8  C   UNL     1      -2.739  -1.592  24.350  0.00  0.00    +0.028 A 
BRANCH   3   2
ATOM      1  C   UNL     1      -4.525  -0.339  24.400  0.00  0.00    +0.252 C 
ATOM      2  O   UNL     1      -3.732  -0.566  24.357  0.00  0.00    -0.472 OA
ENDBRANCH   3   2
ENDBRANCH   9   8
ENDBRANCH  10   9
ENDBRANCH  15  14
TORSDOF 7
ENDMDL
MODEL 5
REMARK VINA RESULT:     -12.3      1.414      3.382
REMARK  Name = 
REMARK  7 active torsions:
REMARK  status: ('A' for Active; 'I' for Inactive)
REMARK    1  A    between atoms: O_2  and  C_3
REMARK    2  A    between atoms: C_8  and  C_9
REMARK    3  A    between atoms: C_9  and  N_10
REMARK    4  A    between atoms: C_14  and  C_15
REMARK    5  A    between atoms: C_17  and  C_20
REMARK    6  A    between atoms: C_24  and  N_26
REMARK    7  A    between atoms: C_29  and  C_32
REMARK                            x       y       z     vdW  Elec       q    Type
REMARK                         _______ _______ _______ _____ _____    ______ ____
ROOT
ATOM     15  C   UNL     1      -0.863   2.863  25.269  0.00  0.00    +0.251 A 
ATOM     16  N   UNL     1      -0.952   2.238  24.738  0.00  0.00    -0.190 NA
ATOM     17  C   UNL     1      -0.512   1.599  25.017  0.00  0.00    +0.203 A 
ATOM     18  N   UNL     1      -0.150   1.828  25.723  0.00  0.00    -0.056 NA
ATOM     19  O   UNL     1      -0.367   2.609  25.878  0.00  0.00    -0.336 OA
ENDROOT
BRANCH  17  20
ATOM     20  C   UNL     1      -0.445   0.860  24.656  0.00  0.00    +0.043 A 
ATOM     21  C   UNL     1       0.222   0.681  24.205  0.00  0.00    +0.024 A 
ATOM     22  C   UNL     1       0.290  -0.057  23.844  0.00  0.00    +0.100 A 
ATOM     23  N   UNL     1      -0.309  -0.617  23.934  0.00  0.00    -0.229 NA
ATOM     24  C   UNL     1      -0.976  -0.439  24.385  0.00  0.00    +0.132 A 
ATOM     25  C   UNL     1      -1.044   0.300  24.747  0.00  0.00    +0.037 A 
BRANCH  24  26
ATOM     26  N   UNL     1      -1.575  -0.999  24.476  0.00  0.00    -0.293 N 
ATOM     27  C   UNL     1      -1.383  -1.784  24.636  0.00  0.00    +0.093 C 
ATOM     28  C   UNL     1      -1.982  -2.344  24.727  0.00  0.00    +0.031 C 
ATOM     29  C   UNL     1      -2.772  -2.119  24.656  0.00  0.00    +0.083 C 
ATOM     30  C   UNL     1      -2.964  -1.332  24.495  0.00  0.00    +0.031 C 
ATOM     31  C   UNL     1      -2.365  -0.772  24.405  0.00  0.00    +0.093 C 
BRANCH  29  32
ATOM     32  C   UNL     1      -3.371  -2.679  24.747  0.00  0.00    +0.260 C 
ATOM     33  N   UNL     1      -3.864  -2.863  24.110  0.00  0.00    -0.088 NA
ATOM     34  O   UNL     1      -3.477  -3.056  25.473  0.00  0.00    -0.272 OA
ENDBRANCH  29  32
ENDBRANCH  24  26
ENDBRANCH  17  20
BRANCH  15  14
ATOM     10  N   UNL     1      -2.017   3.770  25.185  0.00  0.00    -0.263 NA
ATOM     11  C   UNL     1      -2.112   4.586  25.116  0.00  0.00    +0.073 C 
ATOM     12  C   UNL     1      -1.362   4.930  25.093  0.00  0.00    +0.019 C 
ATOM     13  C   UNL     1      -0.803   4.326  25.148  0.00  0.00    +0.027 C 
ATOM     14  C   UNL     1      -1.207   3.608  25.204  0.00  0.00    +0.138 C 
BRANCH  10   9
ATOM      9  C   UNL     1      -2.623   3.213  25.226  0.00  0.00    +0.103 C 
BRANCH   9   8
ATOM      3  C   UNL     1      -4.033   3.139  25.008  0.00  0.00    +0.136 A 
ATOM      4  C   UNL     1      -4.799   3.376  25.201  0.00  0.00    +0.037 A 
ATOM      5  C   UNL     1      -4.921   3.924  25.805  0.00  0.00    +0.003 A 
ATOM      6  C   UNL     1      -4.277   4.235  26.216  0.00  0.00    -0.000 A 
ATOM      7  C   UNL     1      -3.511   3.998  26.024  0.00  0.00    +0.000 A 
ATOM      8  C   UNL     1      -3.389   3.450  25.419  0.00  0.00    +0.028 A 
BRANCH   3   2
ATOM      1  C   UNL     1      -4.544   2.144  24.117  0.00  0.00    +0.252 C 
ATOM      2  O   UNL     1      -3.911   2.591  24.404  0.00  0.00    -0.472 OA
ENDBRANCH   3   2
ENDBRANCH   9   8
ENDBRANCH  10   9
ENDBRANCH  15  14
TORSDOF 7
ENDMDL
MODEL 6
REMARK VINA RESULT:     -10.8      1.493      5.563
REMARK  Name = 
REMARK  7 active torsions:
REMARK  status: ('A' for Active; 'I' for Inactive)
REMARK    1  A    between atoms: O_2  and  C_3
REMARK    2  A    between atoms: C_8  and  C_9
REMARK    3  A    between atoms: C_9  and  N_10
REMARK    4  A    between atoms: C_14  and  C_15
REMARK    5  A    between atoms: C_17  and  C_20
REMARK    6  A    between atoms: C_24  and  N_26
REMARK    7  A    between atoms: C_29  and  C_32
REMARK                            x       y       z     vdW  Elec       q    Type
REMARK                         _______ _______ _______ _____ _____    ______ ____
ROOT
ATOM     15  C   UNL     1      -2.455  -0.658  24.537  0.00  0.00    +0.251 A 
ATOM     16  N   UNL     1      -2.062   0.029  24.302  0.00  0.00    -0.190 NA
ATOM     17  C   UNL     1      -1.285  -0.014  24.575  0.00  0.00    +0.203 A 
ATOM     18  N   UNL     1      -1.197  -0.728  24.980  0.00  0.00    -0.056 NA
ATOM     19  O   UNL     1      -1.920  -1.126  24.956  0.00  0.00    -0.336 OA
ENDROOT
BRANCH  17  20
ATOM     20  C   UNL     1      -0.699   0.555  24.465  0.00  0.00    +0.043 A 
ATOM     21  C   UNL     1       0.058   0.326  24.228  0.00  0.00    +0.024 A 
ATOM     22  C   UNL     1       0.645   0.895  24.117  0.00  0.00    +0.100 A 
ATOM     23  N   UNL     1       0.476   1.692  24.243  0.00  0.00    -0.229 NA
ATOM     24  C   UNL     1      -0.280   1.922  24.479  0.00  0.00    +0.132 A 
ATOM     25  C   UNL     1      -0.868   1.353  24.590  0.00  0.00    +0.037 A 
BRANCH  24  26
ATOM     26  N   UNL     1      -0.450   2.719  24.605  0.00  0.00    -0.293 N 
ATOM     27  C   UNL     1      -0.647   2.984  25.360  0.00  0.00    +0.093 C 
ATOM     28  C   UNL     1      -0.816   3.782  25.485  0.00  0.00    +0.031 C 
ATOM     29  C   UNL     1      -0.788   4.314  24.856  0.00  0.00    +0.083 C 
ATOM     30  C   UNL     1      -0.591   4.048  24.100  0.00  0.00    +0.031 C 
ATOM     31  C   UNL     1      -0.421   3.251  23.974  0.00  0.00    +0.093 C 
BRANCH  29  32
ATOM     32  C   UNL     1      -0.957   5.112  24.981  0.00  0.00    +0.260 C 
ATOM     33  N   UNL     1      -1.674   5.332  25.327  0.00  0.00    -0.088 NA
ATOM     34  O   UNL     1      -0.410   5.689  24.761  0.00  0.00    -0.272 OA
ENDBRANCH  29  32
ENDBRANCH  24  26
ENDBRANCH  17  20
BRANCH  15  14
ATOM     10  N   UNL     1      -3.875  -0.314  24.372  0.00  0.00    -0.263 NA
ATOM     11  C   UNL     1      -4.559  -0.737  24.192  0.00  0.00    +0.073 C 
ATOM     12  C   UNL     1      -4.351  -1.529  24.089  0.00  0.00    +0.019 C 
ATOM     13  C   UNL     1      -3.537  -1.595  24.205  0.00  0.00    +0.027 C 
ATOM     14  C   UNL     1      -3.242  -0.844  24.381  0.00  0.00    +0.138 C 
BRANCH  10   9
ATOM      9  C   UNL     1      -3.830   0.496  24.519  0.00  0.00    +0.103 C 
BRANCH   9   8
ATOM      3  C   UNL     1      -4.633   1.678  24.518  0.00  0.00    +0.136 A 
ATOM      4  C   UNL     1      -5.300   2.088  24.777  0.00  0.00    +0.037 A 
ATOM      5  C   UNL     1      -5.831   1.727  25.294  0.00  0.00    +0.003 A 
ATOM      6  C   UNL     1      -5.696   0.956  25.553  0.00  0.00    -0.000 A 
ATOM      7  C   UNL     1      -5.028   0.545  25.295  0.00  0.00    +0.000 A 
ATOM      8  C   UNL     1      -4.497   0.907  24.777  0.00  0.00    +0.028 A 
BRANCH   3   2
ATOM      1  C   UNL     1      -4.158   2.849  23.849  0.00  0.00    +0.252 C 
ATOM      2  O   UNL     1      -4.101   2.039  24.001  0.00  0.00    -0.472 OA
ENDBRANCH   3   2
ENDBRANCH   9   8
ENDBRANCH  10   9
ENDBRANCH  15  14
TORSDOF 7
ENDMDL
MODEL 7
REMARK VINA RESULT:     -10.7      1.596      2.414
REMARK  Name = 
REMARK  7 active torsions:
REMARK  status: ('A' for Active; 'I' for Inactive)
REMARK    1  A    between atoms: O_2  and  C_3
REMARK    2  A    between atoms: C_8  and  C_9
REMARK    3  A    between atoms: C_9  and  N_10
REMARK    4  A    between atoms: C_14  and  C_15
REMARK    5  A    between atoms: C_17  and  C_20
REMARK    6  A    between atoms: C_24  and  N_26
REMARK    7  A    between atoms: C_29  and  C_32
REMARK                            x       y       z     vdW  Elec       q    Type
REMARK                         _______ _______ _______ _____ _____    ______ ____
ROOT
ATOM     15  C   UNL     1      -4.175   2.423  24.930  0.00  0.00    +0.251 A 
ATOM     16  N   UNL     1      -3.940   1.665  25.154  0.00  0.00    -0.190 NA
ATOM     17  C   UNL     1      -4.152   1.142  24.553  0.00  0.00    +0.203 A 
ATOM     18  N   UNL     1      -4.519   1.577  23.956  0.00  0.00    -0.056 NA
ATOM     19  O   UNL     1      -4.533   2.369  24.188  0.00  0.00    -0.336 OA
ENDROOT
BRANCH  17  20
ATOM     20  C   UNL     1      -4.022   0.328  24.549  0.00  0.00    +0.043 A 
ATOM     21  C   UNL     1      -4.651  -0.190  24.415  0.00  0.00    +0.024 A 
ATOM     22  C   UNL     1      -4.521  -1.004  24.410  0.00  0.00    +0.100 A 
ATOM     23  N   UNL     1      -3.763  -1.302  24.539  0.00  0.00    -0.229 NA
ATOM     24  C   UNL     1      -3.134  -0.785  24.673  0.00  0.00    +0.132 A 
ATOM     25  C   UNL     1      -3.263   0.030  24.678  0.00  0.00    +0.037 A 
BRANCH  24  26
ATOM     26  N   UNL     1      -2.375  -1.083  24.802  0.00  0.00    -0.293 N 
ATOM     27  C   UNL     1      -1.905  -0.767  25.401  0.00  0.00    +0.093 C 
ATOM     28  C   UNL     1      -1.147  -1.065  25.530  0.00  0.00    +0.031 C 
ATOM     29  C   UNL     1      -0.858  -1.678  25.060  0.00  0.00    +0.083 C 
ATOM     30  C   UNL     1      -1.329  -1.994  24.460  0.00  0.00    +0.031 C 
ATOM     31  C   UNL     1      -2.088  -1.696  24.331  0.00  0.00    +0.093 C 
BRANCH  29  32
ATOM     32  C   UNL     1      -0.100  -1.976  25.189  0.00  0.00    +0.260 C 
ATOM     33  N   UNL     1       0.018  -2.581  25.738  0.00  0.00    -0.088 NA
ATOM     34  O   UNL     1       0.540  -1.669  24.769  0.00  0.00    -0.272 OA
ENDBRANCH  29  32
ENDBRANCH  24  26
ENDBRANCH  17  20
BRANCH  15  14
ATOM     10  N   UNL     1      -3.368   3.540  25.443  0.00  0.00    -0.263 NA
ATOM     11  C   UNL     1      -3.515   4.189  25.930  0.00  0.00    +0.073 C 
ATOM     12  C   UNL     1      -4.309   4.165  26.155  0.00  0.00    +0.019 C 
ATOM     13  C   UNL     1      -4.652   3.501  25.807  0.00  0.00    +0.027 C 
ATOM     14  C   UNL     1      -4.071   3.114  25.368  0.00  0.00    +0.138 C 
BRANCH  10   9
ATOM      9  C   UNL     1      -2.646   3.349  25.094  0.00  0.00    +0.103 C 
BRANCH   9   8
ATOM      3  C   UNL     1      -1.250   3.651  25.120  0.00  0.00    +0.136 A 
ATOM      4  C   UNL     1      -0.638   4.205  25.108  0.00  0.00    +0.037 A 
ATOM      5  C   UNL     1      -0.812   5.010  25.058  0.00  0.00    +0.003 A 
ATOM      6  C   UNL     1      -1.596   5.261  25.021  0.00  0.00    -0.000 A 
ATOM      7  C   UNL     1      -2.208   4.708  25.033  0.00  0.00    +0.000 A 
ATOM      8  C   UNL     1      -2.035   3.902  25.083  0.00  0.00    +0.028 A 
BRANCH   3   2
ATOM      1  C   UNL     1      -0.290   2.593  25.175  0.00  0.00    +0.252 C 
ATOM      2  O   UNL     1      -1.077   2.846  25.169  0.00  0.00    -0.472 OA
ENDBRANCH   3   2
ENDBRANCH   9   8
ENDBRANCH  10   9
ENDBRANCH  15  14
TORSDOF 7
ENDMDL
