MODEL 1
REMARK VINA RESULT:     -10.8      0.000      0.000
REMARK  Name = 
REMARK  9 active torsions:
REMARK  status: ('A' for Active; 'I' for Inactive)
REMARK    1  A    between atoms: C_2  and  O_3
REMARK    2  A    between atoms: O_3  and  C_4
REMARK    3  A    between atoms: C_4  and  C_6
REMARK    4  A    between atoms: C_6  and  C_7
REMARK    5  A    between atoms: C_9  and  C_10
REMARK    6  A    between atoms: C_13  and  C_14
REMARK    7  A    between atoms: C_14  and  N_15
REMARK    8  A    between atoms: N_15  and  S_16
REMARK    9  A    between atoms: S_16  and  C_19
REMARK                            x       y       z     vdW  Elec       q    Type
REMARK                         _______ _______ _______ _____ _____    ______ ____
ROOT
ATOM      7  C   UNL     1      -3.335   3.020  24.885  0.00  0.00    +0.029 C 
ATOM      8  C   UNL     1      -2.613   2.647  24.749  0.00  0.00    +0.005 C 
ATOM      9  C   UNL     1      -2.584   1.829  24.640  0.00  0.00    +0.006 C 
ATOM     13  C   UNL     1      -3.279   1.385  24.666  0.00  0.00    +0.041 C 
ATOM     25  C   UNL     1      -4.002   1.759  24.802  0.00  0.00    -0.033 C 
ATOM     26  C   UNL     1      -4.030   2.576  24.911  0.00  0.00    -0.048 C 
ATOM     27  C   UNL     1      -4.753   2.950  25.047  0.00  0.00    +0.026 C 
ENDROOT
BRANCH   9  10
ATOM     10  C   UNL     1      -1.861   1.456  24.504  0.00  0.00    +0.000 C 
ATOM     11  C   UNL     1      -1.586   1.356  23.733  0.00  0.00    +0.000 C 
ATOM     12  C   UNL     1      -1.413   1.182  25.140  0.00  0.00    +0.000 C 
ENDBRANCH   9  10
BRANCH   7   6
ATOM      6  C   UNL     1      -3.364   3.837  24.994  0.00  0.00    +0.114 C 
BRANCH   6   4
ATOM      4  C   UNL     1      -2.745   4.225  25.377  0.00  0.00    +0.317 C 
ATOM      5  O   UNL     1      -2.710   4.232  26.201  0.00  0.00    -0.250 OA
BRANCH   4   3
ATOM      3  O   UNL     1      -2.160   4.605  24.936  0.00  0.00    -0.448 OA
BRANCH   3   2
ATOM      1  C   UNL     1      -1.046   5.497  24.884  0.00  0.00    +0.051 C 
ATOM      2  C   UNL     1      -1.705   5.200  25.280  0.00  0.00    +0.209 C 
ENDBRANCH   3   2
ENDBRANCH   4   3
ENDBRANCH   6   4
ENDBRANCH   7   6
BRANCH  13  14
ATOM     14  C   UNL     1      -3.250   0.569  24.557  0.00  0.00    +0.120 C 
BRANCH  14  15
ATOM     15  N   UNL     1      -3.934   0.115  24.650  0.00  0.00    -0.077 NA
BRANCH  15  16
ATOM     16  S   UNL     1      -3.900  -0.704  24.564  0.00  0.00    +0.077 S 
ATOM     17  O   UNL     1      -3.893  -0.789  25.385  0.00  0.00    -0.152 OA
ATOM     18  O   UNL     1      -3.907  -0.620  23.744  0.00  0.00    -0.152 OA
BRANCH  16  19
ATOM     19  C   UNL     1      -3.867  -1.525  24.480  0.00  0.00    +0.124 A 
ATOM     20  C   UNL     1      -4.277  -1.892  23.866  0.00  0.00    +0.020 A 
ATOM     21  C   UNL     1      -4.243  -2.713  23.781  0.00  0.00    +0.001 A 
ATOM     22  C   UNL     1      -3.800  -3.165  24.310  0.00  0.00    +0.000 A 
ATOM     23  C   UNL     1      -3.390  -2.796  24.924  0.00  0.00    +0.001 A 
ATOM     24  C   UNL     1      -3.423  -1.977  25.009  0.00  0.00    +0.020 A 
ENDBRANCH  16  19
ENDBRANCH  15  16
ENDBRANCH  14  15
ENDBRANCH  13  14
TORSDOF 9
ENDMDL
MODEL 2
REMARK VINA RESULT:     -10.1      1.514      5.528
REMARK  Name = 
REMARK  9 active torsions:
REMARK  status: ('A' for Active; 'I' for Inactive)
REMARK    1  A    between atoms: C_2  and  O_3
REMARK    2  A    between atoms: O_3  and  C_4
REMARK    3  A    between atoms: C_4  and  C_6
REMARK    4  A    between atoms: C_6  and  C_7
REMARK    5  A    between atoms: C_9  and  C_10
REMARK    6  A    between atoms: C_13  and  C_14
REMARK    7  A    between atoms: C_14  and  N_15
REMARK    8  A    between atoms: N_15  and  S_16
REMARK    9  A    between atoms: S_16  and  C_19
REMARK                            x       y       z     vdW  Elec       q    Type
REMARK                         _______ _______ _______ _____ _____    ______ ____
ROOT
ATOM      7  C   UNL     1      -2.281  -0.656  25.068  0.00  0.00    +0.029 C 
ATOM      8  C   UNL     1      -2.900  -0.225  24.736  0.00  0.00    +0.005 C 
ATOM      9  C   UNL     1      -2.855   0.598  24.693  0.00  0.00    +0.006 C 
ATOM     13  C   UNL     1      -2.189   0.989  24.982  0.00  0.00    +0.041 C 
ATOM     25  C   UNL     1      -1.569   0.558  25.314  0.00  0.00    -0.033 C 
ATOM     26  C   UNL     1      -1.615  -0.264  25.357  0.00  0.00    -0.048 C 
ATOM     27  C   UNL     1      -0.995  -0.696  25.689  0.00  0.00    +0.026 C 
ENDROOT
BRANCH   9  10
ATOM     10  C   UNL     1      -3.475   1.028  24.361  0.00  0.00    +0.000 C 
ATOM     11  C   UNL     1      -3.468   1.209  23.556  0.00  0.00    +0.000 C 
ATOM     12  C   UNL     1      -4.102   1.279  24.834  0.00  0.00    +0.000 C 
ENDBRANCH   9  10
BRANCH   7   6
ATOM      6  C   UNL     1      -2.326  -1.479  25.112  0.00  0.00    +0.114 C 
BRANCH   6   4
ATOM      4  C   UNL     1      -3.060  -1.854  25.089  0.00  0.00    +0.317 C 
ATOM      5  O   UNL     1      -3.526  -1.887  25.769  0.00  0.00    -0.250 OA
BRANCH   4   3
ATOM      3  O   UNL     1      -3.328  -2.196  24.388  0.00  0.00    -0.448 OA
BRANCH   3   2
ATOM      1  C   UNL     1      -4.150  -3.157  23.726  0.00  0.00    +0.051 C 
ATOM      2  C   UNL     1      -3.785  -2.882  24.411  0.00  0.00    +0.209 C 
ENDBRANCH   3   2
ENDBRANCH   4   3
ENDBRANCH   6   4
ENDBRANCH   7   6
BRANCH  13  14
ATOM     14  C   UNL     1      -2.143   1.811  24.939  0.00  0.00    +0.120 C 
BRANCH  14  15
ATOM     15  N   UNL     1      -1.483   2.205  25.237  0.00  0.00    -0.077 NA
BRANCH  15  16
ATOM     16  S   UNL     1      -1.432   3.026  25.185  0.00  0.00    +0.077 S 
ATOM     17  O   UNL     1      -1.106   2.958  24.430  0.00  0.00    -0.152 OA
ATOM     18  O   UNL     1      -1.758   3.096  25.939  0.00  0.00    -0.152 OA
BRANCH  16  19
ATOM     19  C   UNL     1      -1.381   3.849  25.131  0.00  0.00    +0.124 A 
ATOM     20  C   UNL     1      -2.012   4.317  25.382  0.00  0.00    +0.020 A 
ATOM     21  C   UNL     1      -1.961   5.139  25.329  0.00  0.00    +0.001 A 
ATOM     22  C   UNL     1      -1.280   5.492  25.025  0.00  0.00    +0.000 A 
ATOM     23  C   UNL     1      -0.650   5.022  24.774  0.00  0.00    +0.001 A 
ATOM     24  C   UNL     1      -0.700   4.201  24.827  0.00  0.00    +0.020 A 
ENDBRANCH  16  19
ENDBRANCH  15  16
ENDBRANCH  14  15
ENDBRANCH  13  14
TORSDOF 9
ENDMDL
