MODEL 1
REMARK VINA RESULT:     -12.4      0.000      0.000
REMARK  Name = 
REMARK  6 active torsions:
REMARK  status: ('A' for Active; 'I' for Inactive)
REMARK    1  A    between atoms: C_2  and  C_3
REMARK    2  A    between atoms: C_3  and  S_4
REMARK    3  A    between atoms: S_4  and  N_7
REMARK    4  A    between atoms: N_7  and  C_8
REMARK    5  A    between atoms: N_16  and  C_17
REMARK    6  A    between atoms: C_17  and  C_18
REMARK                            x       y       z     vdW  Elec       q    Type
REMARK                         _______ _______ _______ _____ _____    ______ ____
ROOT
ATOM      8  C   UNL     1      -3.810   0.811  24.676  0.00  0.00    +0.147 A 
ATOM      9  C   UNL     1      -4.632   0.769  24.739  0.00  0.00    +0.024 A 
ATOM     10  C   UNL     1      -5.064   1.439  24.951  0.00  0.00    +0.014 A 
ATOM     11  C   UNL     1      -4.675   2.150  25.101  0.00  0.00    +0.041 A 
ATOM     12  C   UNL     1      -4.846   3.020  25.343  0.00  0.00    +0.054 C 
ATOM     13  C   UNL     1      -5.375   3.453  25.502  0.00  0.00    +0.011 C 
ATOM     14  C   UNL     1      -4.564   3.491  25.440  0.00  0.00    +0.039 C 
ATOM     15  C   UNL     1      -3.606   3.734  25.417  0.00  0.00    +0.074 C 
ATOM     16  N   UNL     1      -3.280   2.998  25.197  0.00  0.00    -0.269 NA
ATOM     28  C   UNL     1      -3.925   3.271  25.325  0.00  0.00    +0.078 C 
ATOM     29  C   UNL     1      -4.375   2.584  25.187  0.00  0.00    +0.110 C 
ATOM     30  N   UNL     1      -3.853   2.192  25.039  0.00  0.00    -0.298 N 
ATOM     31  C   UNL     1      -3.421   1.523  24.826  0.00  0.00    +0.277 A 
ATOM     32  O   UNL     1      -2.599   1.565  24.763  0.00  0.00    -0.266 OA
ENDROOT
BRANCH   8   7
ATOM      7  N   UNL     1      -3.379   0.141  24.464  0.00  0.00    -0.096 NA
BRANCH   7   4
ATOM      4  S   UNL     1      -3.760  -0.586  24.382  0.00  0.00    +0.073 S 
ATOM      5  O   UNL     1      -3.639  -0.740  25.183  0.00  0.00    -0.153 OA
ATOM      6  O   UNL     1      -3.881  -0.432  23.580  0.00  0.00    -0.153 OA
BRANCH   4   3
ATOM      3  C   UNL     1      -4.142  -1.313  24.299  0.00  0.00    +0.174 C 
BRANCH   3   2
ATOM      1  C   UNL     1      -4.083  -2.724  24.079  0.00  0.00    +0.002 C 
ATOM      2  C   UNL     1      -3.701  -1.997  24.161  0.00  0.00    +0.027 C 
ENDBRANCH   3   2
ENDBRANCH   4   3
ENDBRANCH   7   4
ENDBRANCH   8   7
BRANCH  16  17
ATOM     17  C   UNL     1      -2.706   2.438  25.000  0.00  0.00    +0.101 C 
BRANCH  17  18
ATOM     18  C   UNL     1      -1.931   2.677  24.849  0.00  0.00    +0.012 A 
ATOM     19  C   UNL     1      -1.656   3.018  24.149  0.00  0.00    +0.073 A 
ATOM     20  N   UNL     1      -0.850   3.169  24.239  0.00  0.00    -0.324 N 
ATOM     21  C   UNL     1      -0.354   3.508  23.673  0.00  0.00    +0.130 C 
ATOM     22  C   UNL     1      -0.627   2.923  24.994  0.00  0.00    +0.060 A 
ATOM     23  C   UNL     1      -1.295   2.619  25.372  0.00  0.00    +0.015 A 
ATOM     24  C   UNL     1      -1.237   2.328  26.141  0.00  0.00    +0.001 A 
ATOM     25  C   UNL     1      -0.512   2.342  26.534  0.00  0.00    +0.000 A 
ATOM     26  C   UNL     1       0.156   2.646  26.157  0.00  0.00    +0.001 A 
ATOM     27  C   UNL     1       0.098   2.936  25.388  0.00  0.00    +0.017 A 
ENDBRANCH  17  18
ENDBRANCH  16  17
TORSDOF 6
ENDMDL
MODEL 2
REMARK VINA RESULT:     -12.2      1.249      3.920
REMARK  Name = 
REMARK  6 active torsions:
REMARK  status: ('A' for Active; 'I' for Inactive)
REMARK    1  A    between atoms: C_2  and  C_3
REMARK    2  A    between atoms: C_3  and  S_4
REMARK    3  A    between atoms: S_4  and  N_7
REMARK    4  A    between atoms: N_7  and  C_8
REMARK    5  A    between atoms: N_16  and  C_17
REMARK    6  A    between atoms: C_17  and  C_18
REMARK                            x       y       z     vdW  Elec       q    Type
REMARK                         _______ _______ _______ _____ _____    ______ ____
ROOT
ATOM      8  C   UNL     1      -2.757   2.044  24.699  0.00  0.00    +0.147 A 
ATOM      9  C   UNL     1      -2.975   2.833  24.805  0.00  0.00    +0.024 A 
ATOM     10  C   UNL     1      -3.761   3.026  24.966  0.00  0.00    +0.014 A 
ATOM     11  C   UNL     1      -4.329   2.431  25.021  0.00  0.00    +0.041 A 
ATOM     12  C   UNL     1      -5.227   2.313  25.177  0.00  0.00    +0.054 C 
ATOM     13  C   UNL     1      -5.813   2.673  25.315  0.00  0.00    +0.011 C 
ATOM     14  C   UNL     1      -5.595   1.895  25.211  0.00  0.00    +0.039 C 
ATOM     15  C   UNL     1      -5.529   0.914  25.118  0.00  0.00    +0.074 C 
ATOM     16  N   UNL     1      -4.712   0.842  24.961  0.00  0.00    -0.269 NA
ATOM     28  C   UNL     1      -5.180   1.363  25.091  0.00  0.00    +0.078 C 
ATOM     29  C   UNL     1      -4.656   2.008  25.047  0.00  0.00    +0.110 C 
ATOM     30  N   UNL     1      -4.111   1.642  24.916  0.00  0.00    -0.298 N 
ATOM     31  C   UNL     1      -3.325   1.448  24.755  0.00  0.00    +0.277 A 
ATOM     32  O   UNL     1      -3.108   0.659  24.650  0.00  0.00    -0.266 OA
ENDROOT
BRANCH   8   7
ATOM      7  N   UNL     1      -1.972   1.852  24.539  0.00  0.00    -0.096 NA
BRANCH   7   4
ATOM      4  S   UNL     1      -1.362   2.294  24.875  0.00  0.00    +0.073 S 
ATOM      5  O   UNL     1      -1.388   1.818  25.548  0.00  0.00    -0.153 OA
ATOM      6  O   UNL     1      -1.336   2.770  24.202  0.00  0.00    -0.153 OA
BRANCH   4   3
ATOM      3  C   UNL     1      -0.752   2.737  25.211  0.00  0.00    +0.174 C 
BRANCH   3   2
ATOM      1  C   UNL     1       0.366   2.741  26.101  0.00  0.00    +0.002 C 
ATOM      2  C   UNL     1      -0.097   2.356  25.538  0.00  0.00    +0.027 C 
ENDBRANCH   3   2
ENDBRANCH   4   3
ENDBRANCH   7   4
ENDBRANCH   8   7
BRANCH  16  17
ATOM     17  C   UNL     1      -3.989   0.480  24.798  0.00  0.00    +0.101 C 
BRANCH  17  18
ATOM     18  C   UNL     1      -3.963  -0.322  24.607  0.00  0.00    +0.012 A 
ATOM     19  C   UNL     1      -4.188  -0.657  23.887  0.00  0.00    +0.073 A 
ATOM     20  N   UNL     1      -4.072  -1.472  23.937  0.00  0.00    -0.324 N 
ATOM     21  C   UNL     1      -4.226  -2.021  23.341  0.00  0.00    +0.130 C 
ATOM     22  C   UNL     1      -3.774  -1.641  24.688  0.00  0.00    +0.060 A 
ATOM     23  C   UNL     1      -3.707  -0.930  25.102  0.00  0.00    +0.015 A 
ATOM     24  C   UNL     1      -3.421  -0.930  25.876  0.00  0.00    +0.001 A 
ATOM     25  C   UNL     1      -3.203  -1.639  26.235  0.00  0.00    +0.000 A 
ATOM     26  C   UNL     1      -3.270  -2.350  25.822  0.00  0.00    +0.001 A 
ATOM     27  C   UNL     1      -3.556  -2.350  25.048  0.00  0.00    +0.017 A 
ENDBRANCH  17  18
ENDBRANCH  16  17
TORSDOF 6
ENDMDL
MODEL 3
REMARK VINA RESULT:     -11.6      1.921      3.156
REMARK  Name = 
REMARK  6 active torsions:
REMARK  status: ('A' for Active; 'I' for Inactive)
REMARK    1  A    between atoms: C_2  and  C_3
REMARK    2  A    between atoms: C_3  and  S_4
REMARK    3  A    between atoms: S_4  and  N_7
REMARK    4  A    between atoms: N_7  and  C_8
REMARK    5  A    between atoms: N_16  and  C_17
REMARK    6  A    between atoms: C_17  and  C_18
REMARK                            x       y       z     vdW  Elec       q    Type
REMARK                         _______ _______ _______ _____ _____    ______ ____
ROOT
ATOM      8  C   UNL     1      -3.181   2.551  24.607  0.00  0.00    +0.147 A 
ATOM      9  C   UNL     1      -3.381   3.342  24.730  0.00  0.00    +0.024 A 
ATOM     10  C   UNL     1      -2.795   3.892  24.915  0.00  0.00    +0.014 A 
ATOM     11  C   UNL     1      -2.008   3.651  24.977  0.00  0.00    +0.041 A 
ATOM     12  C   UNL     1      -1.171   3.986  25.155  0.00  0.00    +0.054 C 
ATOM     13  C   UNL     1      -0.840   4.584  25.314  0.00  0.00    +0.011 C 
ATOM     14  C   UNL     1      -0.646   3.802  25.192  0.00  0.00    +0.039 C 
ATOM     15  C   UNL     1      -0.218   2.918  25.082  0.00  0.00    +0.074 C 
ATOM     16  N   UNL     1      -0.892   2.458  24.902  0.00  0.00    -0.269 NA
ATOM     28  C   UNL     1      -0.743   3.138  25.052  0.00  0.00    +0.078 C 
ATOM     29  C   UNL     1      -1.516   3.443  25.004  0.00  0.00    +0.110 C 
ATOM     30  N   UNL     1      -1.808   2.860  24.853  0.00  0.00    -0.298 N 
ATOM     31  C   UNL     1      -2.394   2.310  24.668  0.00  0.00    +0.277 A 
ATOM     32  O   UNL     1      -2.194   1.519  24.545  0.00  0.00    -0.266 OA
ENDROOT
BRANCH   8   7
ATOM      7  N   UNL     1      -3.767   2.002  24.422  0.00  0.00    -0.096 NA
BRANCH   7   4
ATOM      4  S   UNL     1      -4.553   2.153  24.625  0.00  0.00    +0.073 S 
ATOM      5  O   UNL     1      -4.666   2.536  23.903  0.00  0.00    -0.153 OA
ATOM      6  O   UNL     1      -4.439   1.771  25.348  0.00  0.00    -0.153 OA
BRANCH   4   3
ATOM      3  C   UNL     1      -5.338   2.305  24.829  0.00  0.00    +0.174 C 
BRANCH   3   2
ATOM      1  C   UNL     1      -6.653   1.831  25.128  0.00  0.00    +0.002 C 
ATOM      2  C   UNL     1      -5.870   1.680  24.916  0.00  0.00    +0.027 C 
ENDBRANCH   3   2
ENDBRANCH   4   3
ENDBRANCH   7   4
ENDBRANCH   8   7
BRANCH  16  17
ATOM     17  C   UNL     1      -1.341   1.792  24.714  0.00  0.00    +0.101 C 
BRANCH  17  18
ATOM     18  C   UNL     1      -0.967   1.092  24.490  0.00  0.00    +0.012 A 
ATOM     19  C   UNL     1      -0.540   0.971  23.793  0.00  0.00    +0.073 A 
ATOM     20  N   UNL     1      -0.262   0.195  23.796  0.00  0.00    -0.324 N 
ATOM     21  C   UNL     1       0.191  -0.160  23.205  0.00  0.00    +0.130 C 
ATOM     22  C   UNL     1      -0.517  -0.165  24.493  0.00  0.00    +0.060 A 
ATOM     23  C   UNL     1      -0.953   0.390  24.922  0.00  0.00    +0.015 A 
ATOM     24  C   UNL     1      -1.280   0.182  25.651  0.00  0.00    +0.001 A 
ATOM     25  C   UNL     1      -1.172  -0.578  25.950  0.00  0.00    +0.000 A 
ATOM     26  C   UNL     1      -0.736  -1.133  25.521  0.00  0.00    +0.001 A 
ATOM     27  C   UNL     1      -0.410  -0.926  24.793  0.00  0.00    +0.017 A 
ENDBRANCH  17  18
ENDBRANCH  16  17
TORSDOF 6
ENDMDL
MODEL 4
REMARK VINA RESULT:     -11.5      1.546      3.233
REMARK  Name = 
REMARK  6 active torsions:
REMARK  status: ('A' for Active; 'I' for Inactive)
REMARK    1  A    between atoms: C_2  and  C_3
REMARK    2  A    between atoms: C_3  and  S_4
REMARK    3  A    between atoms: S_4  and  N_7
REMARK    4  A    between atoms: N_7  and  C_8
REMARK    5  A    between atoms: N_16  and  C_17
REMARK    6  A    between atoms: C_17  and  C_18
REMARK                            x       y       z     vdW  Elec       q    Type
REMARK                         _______ _______ _______ _____ _____    ______ ____
ROOT
ATOM      8  C   UNL     1      -3.951   1.183  24.801  0.00  0.00    +0.147 A 
ATOM      9  C   UNL     1      -4.615   0.714  24.937  0.00  0.00    +0.024 A 
ATOM     10  C   UNL     1      -4.525  -0.082  25.137  0.00  0.00    +0.014 A 
ATOM     11  C   UNL     1      -3.770  -0.408  25.200  0.00  0.00    +0.041 A 
ATOM     12  C   UNL     1      -3.349  -1.202  25.391  0.00  0.00    +0.054 C 
ATOM     13  C   UNL     1      -3.484  -1.869  25.564  0.00  0.00    +0.011 C 
ATOM     14  C   UNL     1      -2.830  -1.402  25.429  0.00  0.00    +0.039 C 
ATOM     15  C   UNL     1      -1.932  -1.009  25.305  0.00  0.00    +0.074 C 
ATOM     16  N   UNL     1      -2.147  -0.226  25.112  0.00  0.00    -0.269 NA
ATOM     28  C   UNL     1      -2.474  -0.837  25.276  0.00  0.00    +0.078 C 
ATOM     29  C   UNL     1      -3.261  -0.568  25.228  0.00  0.00    +0.110 C 
ATOM     30  N   UNL     1      -3.105   0.062  25.064  0.00  0.00    -0.298 N 
ATOM     31  C   UNL     1      -3.196   0.857  24.864  0.00  0.00    +0.277 A 
ATOM     32  O   UNL     1      -2.531   1.327  24.727  0.00  0.00    -0.266 OA
ENDROOT
BRANCH   8   7
ATOM      7  N   UNL     1      -4.042   1.978  24.601  0.00  0.00    -0.096 NA
BRANCH   7   4
ATOM      4  S   UNL     1      -4.683   2.406  24.896  0.00  0.00    +0.073 S 
ATOM      5  O   UNL     1      -4.247   2.592  25.572  0.00  0.00    -0.153 OA
ATOM      6  O   UNL     1      -5.118   2.220  24.220  0.00  0.00    -0.153 OA
BRANCH   4   3
ATOM      3  C   UNL     1      -5.324   2.834  25.191  0.00  0.00    +0.174 C 
BRANCH   3   2
ATOM      1  C   UNL     1      -5.894   4.073  25.616  0.00  0.00    +0.002 C 
ATOM      2  C   UNL     1      -5.251   3.644  25.329  0.00  0.00    +0.027 C 
ENDBRANCH   3   2
ENDBRANCH   4   3
ENDBRANCH   7   4
ENDBRANCH   8   7
BRANCH  16  17
ATOM     17  C   UNL     1      -2.058   0.569  24.908  0.00  0.00    +0.101 C 
BRANCH  17  18
ATOM     18  C   UNL     1      -1.317   0.857  24.689  0.00  0.00    +0.012 A 
ATOM     19  C   UNL     1      -0.910   0.673  23.994  0.00  0.00    +0.073 A 
ATOM     20  N   UNL     1      -0.194   1.082  24.002  0.00  0.00    -0.324 N 
ATOM     21  C   UNL     1       0.385   1.059  23.415  0.00  0.00    +0.130 C 
ATOM     22  C   UNL     1      -0.158   1.520  24.700  0.00  0.00    +0.060 A 
ATOM     23  C   UNL     1      -0.852   1.381  25.125  0.00  0.00    +0.015 A 
ATOM     24  C   UNL     1      -0.970   1.750  25.854  0.00  0.00    +0.001 A 
ATOM     25  C   UNL     1      -0.396   2.257  26.158  0.00  0.00    +0.000 A 
ATOM     26  C   UNL     1       0.298   2.396  25.734  0.00  0.00    +0.001 A 
ATOM     27  C   UNL     1       0.417   2.027  25.005  0.00  0.00    +0.017 A 
ENDBRANCH  17  18
ENDBRANCH  16  17
TORSDOF 6
ENDMDL
MODEL 5
REMARK VINA RESULT:     -11.2      2.373      5.128
REMARK  Name = 
REMARK  6 active torsions:
REMARK  status: ('A' for Active; 'I' for Inactive)
REMARK    1  A    between atoms: C_2  and  C_3
REMARK    2  A    between atoms: C_3  and  S_4
REMARK    3  A    between atoms: S_4  and  N_7
REMARK    4  A    between atoms: N_7  and  C_8
REMARK    5  A    between atoms: N_16  and  C_17
REMARK    6  A    between atoms: C_17  and  C_18
REMARK                            x       y       z     vdW  Elec       q    Type
REMARK                         _______ _______ _______ _____ _____    ______ ____
ROOT
ATOM      8  C   UNL     1      -0.787   2.004  24.797  0.00  0.00    +0.147 A 
ATOM      9  C   UNL     1      -0.070   2.267  24.486  0.00  0.00    +0.024 A 
ATOM     10  C   UNL     1       0.419   1.744  24.077  0.00  0.00    +0.014 A 
ATOM     11  C   UNL     1       0.191   0.958  23.979  0.00  0.00    +0.041 A 
ATOM     12  C   UNL     1       0.483   0.171  23.603  0.00  0.00    +0.054 C 
ATOM     13  C   UNL     1       1.018  -0.099  23.239  0.00  0.00    +0.011 C 
ATOM     14  C   UNL     1       0.310  -0.356  23.548  0.00  0.00    +0.039 C 
ATOM     15  C   UNL     1      -0.495  -0.849  23.842  0.00  0.00    +0.074 C 
ATOM     16  N   UNL     1      -0.902  -0.232  24.232  0.00  0.00    -0.269 NA
ATOM     28  C   UNL     1      -0.289  -0.318  23.879  0.00  0.00    +0.078 C 
ATOM     29  C   UNL     1      -0.003   0.461  23.944  0.00  0.00    +0.110 C 
ATOM     30  N   UNL     1      -0.526   0.694  24.290  0.00  0.00    -0.298 N 
ATOM     31  C   UNL     1      -1.016   1.218  24.699  0.00  0.00    +0.277 A 
ATOM     32  O   UNL     1      -1.733   0.954  25.011  0.00  0.00    -0.266 OA
ENDROOT
BRANCH   8   7
ATOM      7  N   UNL     1      -1.276   2.528  25.206  0.00  0.00    -0.096 NA
BRANCH   7   4
ATOM      4  S   UNL     1      -1.152   3.341  25.143  0.00  0.00    +0.073 S 
ATOM      5  O   UNL     1      -0.654   3.316  25.800  0.00  0.00    -0.153 OA
ATOM      6  O   UNL     1      -1.650   3.367  24.485  0.00  0.00    -0.153 OA
BRANCH   4   3
ATOM      3  C   UNL     1      -1.028   4.155  25.080  0.00  0.00    +0.174 C 
BRANCH   3   2
ATOM      1  C   UNL     1      -1.543   5.487  25.116  0.00  0.00    +0.002 C 
ATOM      2  C   UNL     1      -1.638   4.680  25.258  0.00  0.00    +0.027 C 
ENDBRANCH   3   2
ENDBRANCH   4   3
ENDBRANCH   7   4
ENDBRANCH   8   7
BRANCH  16  17
ATOM     17  C   UNL     1      -1.498   0.148  24.659  0.00  0.00    +0.101 C 
BRANCH  17  18
ATOM     18  C   UNL     1      -2.111  -0.292  24.991  0.00  0.00    +0.012 A 
ATOM     19  C   UNL     1      -2.076  -0.715  25.700  0.00  0.00    +0.073 A 
ATOM     20  N   UNL     1      -2.810  -1.071  25.820  0.00  0.00    -0.324 N 
ATOM     21  C   UNL     1      -3.019  -1.546  26.462  0.00  0.00    +0.130 C 
ATOM     22  C   UNL     1      -3.299  -0.869  25.188  0.00  0.00    +0.060 A 
ATOM     23  C   UNL     1      -2.867  -0.387  24.675  0.00  0.00    +0.015 A 
ATOM     24  C   UNL     1      -3.218  -0.099  23.986  0.00  0.00    +0.001 A 
ATOM     25  C   UNL     1      -4.000  -0.290  23.811  0.00  0.00    +0.000 A 
ATOM     26  C   UNL     1      -4.433  -0.772  24.323  0.00  0.00    +0.001 A 
ATOM     27  C   UNL     1      -4.082  -1.060  25.011  0.00  0.00    +0.017 A 
ENDBRANCH  17  18
ENDBRANCH  16  17
TORSDOF 6
ENDMDL
MODEL 6
REMARK VINA RESULT:     -11.1      1.501      3.321
REMARK  Name = 
REMARK  6 active torsions:
REMARK  status: ('A' for Active; 'I' for Inactive)
REMARK    1  A    between atoms: C_2  and  C_3
REMARK    2  A    between atoms: C_3  and  S_4
REMARK    3  A    between atoms: S_4  and  N_7
REMARK    4  A    between atoms: N_7  and  C_8
REMARK    5  A    between atoms: N_16  and  C_17
REMARK    6  A    between atoms: C_17  and  C_18
REMARK                            x       y       z     vdW  Elec       q    Type
REMARK                         _______ _______ _______ _____ _____    ______ ____
ROOT
ATOM      8  C   UNL     1      -1.771   0.064  24.908  0.00  0.00    +0.147 A 
ATOM      9  C   UNL     1      -1.110  -0.403  24.746  0.00  0.00    +0.024 A 
ATOM     10  C   UNL     1      -0.400  -0.049  24.519  0.00  0.00    +0.014 A 
ATOM     11  C   UNL     1      -0.351   0.772  24.454  0.00  0.00    +0.041 A 
ATOM     12  C   UNL     1       0.246   1.436  24.240  0.00  0.00    +0.054 C 
ATOM     13  C   UNL     1       0.912   1.535  24.041  0.00  0.00    +0.011 C 
ATOM     14  C   UNL     1       0.258   1.993  24.202  0.00  0.00    +0.039 C 
ATOM     15  C   UNL     1      -0.411   2.705  24.350  0.00  0.00    +0.074 C 
ATOM     16  N   UNL     1      -1.067   2.237  24.569  0.00  0.00    -0.269 NA
ATOM     28  C   UNL     1      -0.388   2.136  24.379  0.00  0.00    +0.078 C 
ATOM     29  C   UNL     1      -0.374   1.305  24.427  0.00  0.00    +0.110 C 
ATOM     30  N   UNL     1      -1.012   1.239  24.615  0.00  0.00    -0.298 N 
ATOM     31  C   UNL     1      -1.722   0.885  24.842  0.00  0.00    +0.277 A 
ATOM     32  O   UNL     1      -2.383   1.352  25.004  0.00  0.00    -0.266 OA
ENDROOT
BRANCH   8   7
ATOM      7  N   UNL     1      -2.480  -0.291  25.134  0.00  0.00    -0.096 NA
BRANCH   7   4
ATOM      4  S   UNL     1      -2.611  -1.089  24.973  0.00  0.00    +0.073 S 
ATOM      5  O   UNL     1      -2.305  -1.289  25.713  0.00  0.00    -0.153 OA
ATOM      6  O   UNL     1      -2.918  -0.890  24.234  0.00  0.00    -0.153 OA
BRANCH   4   3
ATOM      3  C   UNL     1      -2.743  -1.888  24.812  0.00  0.00    +0.174 C 
BRANCH   3   2
ATOM      1  C   UNL     1      -3.654  -2.960  24.562  0.00  0.00    +0.002 C 
ATOM      2  C   UNL     1      -3.510  -2.190  24.822  0.00  0.00    +0.027 C 
ENDBRANCH   3   2
ENDBRANCH   4   3
ENDBRANCH   7   4
ENDBRANCH   8   7
BRANCH  16  17
ATOM     17  C   UNL     1      -1.837   2.053  24.802  0.00  0.00    +0.101 C 
BRANCH  17  18
ATOM     18  C   UNL     1      -2.353   2.653  25.032  0.00  0.00    +0.012 A 
ATOM     19  C   UNL     1      -2.327   3.070  25.745  0.00  0.00    +0.073 A 
ATOM     20  N   UNL     1      -2.944   3.617  25.743  0.00  0.00    -0.324 N 
ATOM     21  C   UNL     1      -3.122   4.148  26.349  0.00  0.00    +0.130 C 
ATOM     22  C   UNL     1      -3.351   3.540  25.031  0.00  0.00    +0.060 A 
ATOM     23  C   UNL     1      -2.987   2.944  24.591  0.00  0.00    +0.015 A 
ATOM     24  C   UNL     1      -3.278   2.745  23.845  0.00  0.00    +0.001 A 
ATOM     25  C   UNL     1      -3.934   3.140  23.540  0.00  0.00    +0.000 A 
ATOM     26  C   UNL     1      -4.300   3.735  23.979  0.00  0.00    +0.001 A 
ATOM     27  C   UNL     1      -4.008   3.935  24.724  0.00  0.00    +0.017 A 
ENDBRANCH  17  18
ENDBRANCH  16  17
TORSDOF 6
ENDMDL
MODEL 7
REMARK VINA RESULT:     -11.1      2.096      4.134
REMARK  Name = 
REMARK  6 active torsions:
REMARK  status: ('A' for Active; 'I' for Inactive)
REMARK    1  A    between atoms: C_2  and  C_3
REMARK    2  A    between atoms: C_3  and  S_4
REMARK    3  A    between atoms: S_4  and  N_7
REMARK    4  A    between atoms: N_7  and  C_8
REMARK    5  A    between atoms: N_16  and  C_17
REMARK    6  A    between atoms: C_17  and  C_18
REMARK                            x       y       z     vdW  Elec       q    Type
REMARK                         _______ _______ _______ _____ _____    ______ ____
ROOT
ATOM      8  C   UNL     1      -1.644  -0.753  24.548  0.00  0.00    +0.147 A 
ATOM      9  C   UNL     1      -1.525  -1.569  24.506  0.00  0.00    +0.024 A 
ATOM     10  C   UNL     1      -2.167  -2.074  24.385  0.00  0.00    +0.014 A 
ATOM     11  C   UNL     1      -2.927  -1.763  24.307  0.00  0.00    +0.041 A 
ATOM     12  C   UNL     1      -3.796  -2.029  24.174  0.00  0.00    +0.054 C 
ATOM     13  C   UNL     1      -4.188  -2.603  24.081  0.00  0.00    +0.011 C 
ATOM     14  C   UNL     1      -4.301  -1.798  24.124  0.00  0.00    +0.039 C 
ATOM     15  C   UNL     1      -4.637  -0.869  24.146  0.00  0.00    +0.074 C 
ATOM     16  N   UNL     1      -3.918  -0.463  24.269  0.00  0.00    -0.269 NA
ATOM     28  C   UNL     1      -4.136  -1.136  24.193  0.00  0.00    +0.078 C 
ATOM     29  C   UNL     1      -3.396  -1.511  24.263  0.00  0.00    +0.110 C 
ATOM     30  N   UNL     1      -3.045  -0.947  24.350  0.00  0.00    -0.298 N 
ATOM     31  C   UNL     1      -2.404  -0.443  24.470  0.00  0.00    +0.277 A 
ATOM     32  O   UNL     1      -2.522   0.373  24.513  0.00  0.00    -0.266 OA
ENDROOT
BRANCH   8   7
ATOM      7  N   UNL     1      -1.002  -0.250  24.669  0.00  0.00    -0.096 NA
BRANCH   7   4
ATOM      4  S   UNL     1      -0.292  -0.384  24.270  0.00  0.00    +0.073 S 
ATOM      5  O   UNL     1      -0.526   0.139  23.677  0.00  0.00    -0.153 OA
ATOM      6  O   UNL     1      -0.058  -0.908  24.863  0.00  0.00    -0.153 OA
BRANCH   4   3
ATOM      3  C   UNL     1       0.417  -0.519  23.871  0.00  0.00    +0.174 C 
BRANCH   3   2
ATOM      1  C   UNL     1       1.464  -0.052  23.017  0.00  0.00    +0.002 C 
ATOM      2  C   UNL     1       0.779   0.094  23.454  0.00  0.00    +0.027 C 
ENDBRANCH   3   2
ENDBRANCH   4   3
ENDBRANCH   7   4
ENDBRANCH   8   7
BRANCH  16  17
ATOM     17  C   UNL     1      -3.401   0.171  24.383  0.00  0.00    +0.101 C 
BRANCH  17  18
ATOM     18  C   UNL     1      -3.701   0.927  24.518  0.00  0.00    +0.012 A 
ATOM     19  C   UNL     1      -4.098   1.178  25.197  0.00  0.00    +0.073 A 
ATOM     20  N   UNL     1      -4.298   1.972  25.097  0.00  0.00    -0.324 N 
ATOM     21  C   UNL     1      -4.701   2.443  25.642  0.00  0.00    +0.130 C 
ATOM     22  C   UNL     1      -4.025   2.212  24.357  0.00  0.00    +0.060 A 
ATOM     23  C   UNL     1      -3.656   1.567  23.999  0.00  0.00    +0.015 A 
ATOM     24  C   UNL     1      -3.326   1.646  23.246  0.00  0.00    +0.001 A 
ATOM     25  C   UNL     1      -3.366   2.369  22.852  0.00  0.00    +0.000 A 
ATOM     26  C   UNL     1      -3.735   3.014  23.210  0.00  0.00    +0.001 A 
ATOM     27  C   UNL     1      -4.065   2.936  23.962  0.00  0.00    +0.017 A 
ENDBRANCH  17  18
ENDBRANCH  16  17
TORSDOF 6
ENDMDL
MODEL 8
REMARK VINA RESULT:     -10.8      1.575      4.470
REMARK  Name = 
REMARK  6 active torsions:
REMARK  status: ('A' for Active; 'I' for Inactive)
REMARK    1  A    between atoms: C_2  and  C_3
REMARK    2  A    between atoms: C_3  and  S_4
REMARK    3  A    between atoms: S_4  and  N_7
REMARK    4  A    between atoms: N_7  and  C_8
REMARK    5  A    between atoms: N_16  and  C_17
REMARK    6  A    between atoms: C_17  and  C_18
REMARK                            x       y       z     vdW  Elec       q    Type
REMARK                         _______ _______ _______ _____ _____    ______ ____
ROOT
ATOM      8  C   UNL     1      -3.266   2.162  24.892  0.00  0.00    +0.147 A 
ATOM      9  C   UNL     1      -2.809   2.839  24.774  0.00  0.00    +0.024 A 
ATOM     10  C   UNL     1      -2.008   2.770  24.590  0.00  0.00    +0.014 A 
ATOM     11  C   UNL     1      -1.664   2.024  24.523  0.00  0.00    +0.041 A 
ATOM     12  C   UNL     1      -0.856   1.624  24.344  0.00  0.00    +0.054 C 
ATOM     13  C   UNL     1      -0.189   1.777  24.186  0.00  0.00    +0.011 C 
ATOM     14  C   UNL     1      -0.643   1.111  24.304  0.00  0.00    +0.039 C 
ATOM     15  C   UNL     1      -1.017   0.202  24.407  0.00  0.00    +0.074 C 
ATOM     16  N   UNL     1      -1.809   0.396  24.587  0.00  0.00    -0.269 NA
ATOM     28  C   UNL     1      -1.203   0.740  24.440  0.00  0.00    +0.078 C 
ATOM     29  C   UNL     1      -1.491   1.519  24.493  0.00  0.00    +0.110 C 
ATOM     30  N   UNL     1      -2.120   1.347  24.641  0.00  0.00    -0.298 N 
ATOM     31  C   UNL     1      -2.921   1.416  24.826  0.00  0.00    +0.277 A 
ATOM     32  O   UNL     1      -3.378   0.739  24.944  0.00  0.00    -0.266 OA
ENDROOT
BRANCH   8   7
ATOM      7  N   UNL     1      -4.067   2.232  25.076  0.00  0.00    -0.096 NA
BRANCH   7   4
ATOM      4  S   UNL     1      -4.408   2.980  25.154  0.00  0.00    +0.073 S 
ATOM      5  O   UNL     1      -4.217   2.983  25.957  0.00  0.00    -0.153 OA
ATOM      6  O   UNL     1      -4.599   2.976  24.351  0.00  0.00    -0.153 OA
BRANCH   4   3
ATOM      3  C   UNL     1      -4.749   3.727  25.232  0.00  0.00    +0.174 C 
BRANCH   3   2
ATOM      1  C   UNL     1      -5.878   4.543  25.549  0.00  0.00    +0.002 C 
ATOM      2  C   UNL     1      -5.517   3.802  25.522  0.00  0.00    +0.027 C 
ENDBRANCH   3   2
ENDBRANCH   4   3
ENDBRANCH   7   4
ENDBRANCH   8   7
BRANCH  16  17
ATOM     17  C   UNL     1      -2.605   0.286  24.773  0.00  0.00    +0.101 C 
BRANCH  17  18
ATOM     18  C   UNL     1      -2.875  -0.458  25.006  0.00  0.00    +0.012 A 
ATOM     19  C   UNL     1      -2.747  -0.813  25.741  0.00  0.00    +0.073 A 
ATOM     20  N   UNL     1      -3.113  -1.552  25.733  0.00  0.00    -0.324 N 
ATOM     21  C   UNL     1      -3.123  -2.094  26.356  0.00  0.00    +0.130 C 
ATOM     22  C   UNL     1      -3.466  -1.655  24.995  0.00  0.00    +0.060 A 
ATOM     23  C   UNL     1      -3.320  -0.979  24.545  0.00  0.00    +0.015 A 
ATOM     24  C   UNL     1      -3.610  -0.925  23.775  0.00  0.00    +0.001 A 
ATOM     25  C   UNL     1      -4.047  -1.547  23.455  0.00  0.00    +0.000 A 
ATOM     26  C   UNL     1      -4.194  -2.223  23.904  0.00  0.00    +0.001 A 
ATOM     27  C   UNL     1      -3.903  -2.276  24.674  0.00  0.00    +0.017 A 
ENDBRANCH  17  18
ENDBRANCH  16  17
TORSDOF 6
ENDMDL
