MODEL 1
REMARK VINA RESULT:     -11.0      0.000      0.000
REMARK  Name = 
REMARK  8 active torsions:
REMARK  status: ('A' for Active; 'I' for Inactive)
REMARK    1  A    between atoms: N_2  and  C_3
REMARK    2  A    between atoms: N_2  and  C_22
REMARK    3  A    between atoms: C_3  and  C_4
REMARK    4  A    between atoms: C_4  and  C_5
REMARK    5  A    between atoms: C_10  and  C_11
REMARK    6  A    between atoms: C_11  and  C_12
REMARK    7  A    between atoms: C_15  and  C_17
REMARK    8  A    between atoms: C_17  and  C_18
REMARK                            x       y       z     vdW  Elec       q    Type
REMARK                         _______ _______ _______ _____ _____    ______ ____
ROOT
ATOM      5  C   UNL     1      -3.958   1.356  24.486  0.00  0.00    +0.022 C 
ATOM      6  C   UNL     1      -3.586   0.628  24.386  0.00  0.00    +0.093 C 
ATOM      7  N   UNL     1      -3.959  -0.064  24.637  0.00  0.00    -0.280 N 
ATOM      8  C   UNL     1      -4.705  -0.027  24.989  0.00  0.00    +0.093 C 
ATOM      9  C   UNL     1      -5.077   0.703  25.088  0.00  0.00    +0.022 C 
ATOM     10  C   UNL     1      -4.704   1.395  24.837  0.00  0.00    +0.015 C 
ATOM     15  C   UNL     1      -3.587  -0.793  24.538  0.00  0.00    +0.226 C 
ATOM     16  O   UNL     1      -2.841  -0.831  24.187  0.00  0.00    -0.275 OA
ENDROOT
BRANCH   5   4
ATOM      4  C   UNL     1      -3.585   2.049  24.234  0.00  0.00    +0.023 C 
BRANCH   4   3
ATOM      3  C   UNL     1      -2.818   2.218  24.485  0.00  0.00    +0.091 C 
BRANCH   3   2
ATOM      1  C   UNL     1      -2.490   2.964  23.311  0.00  0.00    +0.112 C 
ATOM      2  N   UNL     1      -2.386   2.815  24.116  0.00  0.00    -0.306 N 
BRANCH   2  22
ATOM     22  C   UNL     1      -1.848   3.265  24.550  0.00  0.00    +0.048 A 
ATOM     23  C   UNL     1      -1.093   2.968  24.706  0.00  0.00    +0.015 A 
ATOM     24  C   UNL     1      -0.556   3.418  25.141  0.00  0.00    +0.001 A 
ATOM     25  C   UNL     1      -0.771   4.163  25.419  0.00  0.00    +0.000 A 
ATOM     26  C   UNL     1      -1.525   4.460  25.264  0.00  0.00    +0.001 A 
ATOM     27  C   UNL     1      -2.063   4.010  24.829  0.00  0.00    +0.015 A 
ENDBRANCH   2  22
ENDBRANCH   3   2
ENDBRANCH   4   3
ENDBRANCH   5   4
BRANCH  10  11
ATOM     11  C   UNL     1      -5.077   2.124  24.936  0.00  0.00    +0.114 C 
BRANCH  11  12
ATOM     12  C   UNL     1      -5.810   2.165  25.312  0.00  0.00    +0.365 C 
ATOM     13  O   UNL     1      -5.852   2.339  26.117  0.00  0.00    -0.246 OA
ATOM     14  O   UNL     1      -6.502   2.033  24.883  0.00  0.00    -0.246 OA
ENDBRANCH  11  12
ENDBRANCH  10  11
BRANCH  15  17
ATOM     17  C   UNL     1      -3.960  -1.484  24.789  0.00  0.00    +0.085 C 
BRANCH  17  18
ATOM     18  C   UNL     1      -3.608  -2.218  24.649  0.00  0.00    +0.009 C 
ATOM     19  C   UNL     1      -3.256  -2.951  24.510  0.00  0.00    +0.000 C 
ATOM     20  C   UNL     1      -3.201  -2.158  25.364  0.00  0.00    +0.000 C 
ATOM     21  C   UNL     1      -4.015  -2.277  23.934  0.00  0.00    +0.000 C 
ENDBRANCH  17  18
ENDBRANCH  15  17
TORSDOF 8
ENDMDL
MODEL 2
REMARK VINA RESULT:     -10.5      1.028      4.537
REMARK  Name = 
REMARK  8 active torsions:
REMARK  status: ('A' for Active; 'I' for Inactive)
REMARK    1  A    between atoms: N_2  and  C_3
REMARK    2  A    between atoms: N_2  and  C_22
REMARK    3  A    between atoms: C_3  and  C_4
REMARK    4  A    between atoms: C_4  and  C_5
REMARK    5  A    between atoms: C_10  and  C_11
REMARK    6  A    between atoms: C_11  and  C_12
REMARK    7  A    between atoms: C_15  and  C_17
REMARK    8  A    between atoms: C_17  and  C_18
REMARK                            x       y       z     vdW  Elec       q    Type
REMARK                         _______ _______ _______ _____ _____    ______ ____
ROOT
ATOM      5  C   UNL     1      -3.981   1.617  24.664  0.00  0.00    +0.022 C 
ATOM      6  C   UNL     1      -3.252   1.998  24.619  0.00  0.00    +0.093 C 
ATOM      7  N   UNL     1      -3.144   2.727  24.992  0.00  0.00    -0.280 N 
ATOM      8  C   UNL     1      -3.765   3.073  25.409  0.00  0.00    +0.093 C 
ATOM      9  C   UNL     1      -4.496   2.690  25.454  0.00  0.00    +0.022 C 
ATOM     10  C   UNL     1      -4.603   1.962  25.081  0.00  0.00    +0.015 C 
ATOM     15  C   UNL     1      -2.414   3.109  24.948  0.00  0.00    +0.226 C 
ATOM     16  O   UNL     1      -1.792   2.763  24.530  0.00  0.00    -0.275 OA
ENDROOT
BRANCH   5   4
ATOM      4  C   UNL     1      -4.089   0.888  24.291  0.00  0.00    +0.023 C 
BRANCH   4   3
ATOM      3  C   UNL     1      -3.619   0.244  24.501  0.00  0.00    +0.091 C 
BRANCH   3   2
ATOM      1  C   UNL     1      -3.572  -0.311  23.185  0.00  0.00    +0.112 C 
ATOM      2  N   UNL     1      -3.572  -0.413  24.004  0.00  0.00    -0.306 N 
BRANCH   2  22
ATOM     22  C   UNL     1      -3.525  -1.171  24.324  0.00  0.00    +0.048 A 
ATOM     23  C   UNL     1      -3.991  -1.779  24.015  0.00  0.00    +0.015 A 
ATOM     24  C   UNL     1      -3.944  -2.537  24.335  0.00  0.00    +0.001 A 
ATOM     25  C   UNL     1      -3.432  -2.689  24.962  0.00  0.00    +0.000 A 
ATOM     26  C   UNL     1      -2.966  -2.083  25.271  0.00  0.00    +0.001 A 
ATOM     27  C   UNL     1      -3.013  -1.323  24.951  0.00  0.00    +0.015 A 
ENDBRANCH   2  22
ENDBRANCH   3   2
ENDBRANCH   4   3
ENDBRANCH   5   4
BRANCH  10  11
ATOM     11  C   UNL     1      -5.333   1.581  25.126  0.00  0.00    +0.114 C 
BRANCH  11  12
ATOM     12  C   UNL     1      -5.983   1.969  25.452  0.00  0.00    +0.365 C 
ATOM     13  O   UNL     1      -6.516   2.364  24.962  0.00  0.00    -0.246 OA
ATOM     14  O   UNL     1      -6.101   1.963  26.268  0.00  0.00    -0.246 OA
ENDBRANCH  11  12
ENDBRANCH  10  11
BRANCH  15  17
ATOM     17  C   UNL     1      -2.307   3.836  25.320  0.00  0.00    +0.085 C 
BRANCH  17  18
ATOM     18  C   UNL     1      -1.595   4.245  25.230  0.00  0.00    +0.009 C 
ATOM     19  C   UNL     1      -0.883   4.653  25.140  0.00  0.00    +0.000 C 
ATOM     20  C   UNL     1      -1.230   3.724  25.756  0.00  0.00    +0.000 C 
ATOM     21  C   UNL     1      -1.960   4.766  24.704  0.00  0.00    +0.000 C 
ENDBRANCH  17  18
ENDBRANCH  15  17
TORSDOF 8
ENDMDL
MODEL 3
REMARK VINA RESULT:     -10.1      1.863      5.067
REMARK  Name = 
REMARK  8 active torsions:
REMARK  status: ('A' for Active; 'I' for Inactive)
REMARK    1  A    between atoms: N_2  and  C_3
REMARK    2  A    between atoms: N_2  and  C_22
REMARK    3  A    between atoms: C_3  and  C_4
REMARK    4  A    between atoms: C_4  and  C_5
REMARK    5  A    between atoms: C_10  and  C_11
REMARK    6  A    between atoms: C_11  and  C_12
REMARK    7  A    between atoms: C_15  and  C_17
REMARK    8  A    between atoms: C_17  and  C_18
REMARK                            x       y       z     vdW  Elec       q    Type
REMARK                         _______ _______ _______ _____ _____    ______ ____
ROOT
ATOM      5  C   UNL     1      -1.853   1.148  24.979  0.00  0.00    +0.022 C 
ATOM      6  C   UNL     1      -2.629   1.426  24.975  0.00  0.00    +0.093 C 
ATOM      7  N   UNL     1      -2.779   2.230  25.081  0.00  0.00    -0.280 N 
ATOM      8  C   UNL     1      -2.153   2.756  25.189  0.00  0.00    +0.093 C 
ATOM      9  C   UNL     1      -1.376   2.477  25.192  0.00  0.00    +0.022 C 
ATOM     10  C   UNL     1      -1.226   1.673  25.087  0.00  0.00    +0.015 C 
ATOM     15  C   UNL     1      -3.555   2.510  25.078  0.00  0.00    +0.226 C 
ATOM     16  O   UNL     1      -4.182   1.983  24.969  0.00  0.00    -0.275 OA
ENDROOT
BRANCH   5   4
ATOM      4  C   UNL     1      -1.703   0.342  24.873  0.00  0.00    +0.023 C 
BRANCH   4   3
ATOM      3  C   UNL     1      -2.326  -0.178  24.730  0.00  0.00    +0.091 C 
BRANCH   3   2
ATOM      1  C   UNL     1      -1.396  -1.251  24.570  0.00  0.00    +0.112 C 
ATOM      2  N   UNL     1      -2.174  -0.979  24.602  0.00  0.00    -0.306 N 
BRANCH   2  22
ATOM     22  C   UNL     1      -2.800  -1.507  24.506  0.00  0.00    +0.048 A 
ATOM     23  C   UNL     1      -2.807  -2.218  24.926  0.00  0.00    +0.015 A 
ATOM     24  C   UNL     1      -3.433  -2.747  24.829  0.00  0.00    +0.001 A 
ATOM     25  C   UNL     1      -4.050  -2.567  24.314  0.00  0.00    +0.000 A 
ATOM     26  C   UNL     1      -4.043  -1.857  23.894  0.00  0.00    +0.001 A 
ATOM     27  C   UNL     1      -3.417  -1.327  23.990  0.00  0.00    +0.015 A 
ENDBRANCH   2  22
ENDBRANCH   3   2
ENDBRANCH   4   3
ENDBRANCH   5   4
BRANCH  10  11
ATOM     11  C   UNL     1      -0.450   1.394  25.090  0.00  0.00    +0.114 C 
BRANCH  11  12
ATOM     12  C   UNL     1       0.180   1.926  25.047  0.00  0.00    +0.365 C 
ATOM     13  O   UNL     1       0.499   2.127  24.313  0.00  0.00    -0.246 OA
ATOM     14  O   UNL     1       0.491   2.255  25.736  0.00  0.00    -0.246 OA
ENDBRANCH  11  12
ENDBRANCH  10  11
BRANCH  15  17
ATOM     17  C   UNL     1      -3.704   3.313  25.183  0.00  0.00    +0.085 C 
BRANCH  17  18
ATOM     18  C   UNL     1      -4.483   3.588  25.209  0.00  0.00    +0.009 C 
ATOM     19  C   UNL     1      -5.260   3.863  25.237  0.00  0.00    +0.000 C 
ATOM     20  C   UNL     1      -4.490   3.484  26.028  0.00  0.00    +0.000 C 
ATOM     21  C   UNL     1      -4.475   3.692  24.391  0.00  0.00    +0.000 C 
ENDBRANCH  17  18
ENDBRANCH  15  17
TORSDOF 8
ENDMDL
MODEL 4
REMARK VINA RESULT:     -10.1      1.808      3.200
REMARK  Name = 
REMARK  8 active torsions:
REMARK  status: ('A' for Active; 'I' for Inactive)
REMARK    1  A    between atoms: N_2  and  C_3
REMARK    2  A    between atoms: N_2  and  C_22
REMARK    3  A    between atoms: C_3  and  C_4
REMARK    4  A    between atoms: C_4  and  C_5
REMARK    5  A    between atoms: C_10  and  C_11
REMARK    6  A    between atoms: C_11  and  C_12
REMARK    7  A    between atoms: C_15  and  C_17
REMARK    8  A    between atoms: C_17  and  C_18
REMARK                            x       y       z     vdW  Elec       q    Type
REMARK                         _______ _______ _______ _____ _____    ______ ____
ROOT
ATOM      5  C   UNL     1      -2.383   0.942  24.363  0.00  0.00    +0.022 C 
ATOM      6  C   UNL     1      -2.851   0.264  24.395  0.00  0.00    +0.093 C 
ATOM      7  N   UNL     1      -2.507  -0.467  24.563  0.00  0.00    -0.280 N 
ATOM      8  C   UNL     1      -1.696  -0.520  24.700  0.00  0.00    +0.093 C 
ATOM      9  C   UNL     1      -1.227   0.160  24.669  0.00  0.00    +0.022 C 
ATOM     10  C   UNL     1      -1.571   0.890  24.500  0.00  0.00    +0.015 C 
ATOM     15  C   UNL     1      -2.975  -1.145  24.595  0.00  0.00    +0.226 C 
ATOM     16  O   UNL     1      -3.787  -1.093  24.458  0.00  0.00    -0.275 OA
ENDROOT
BRANCH   5   4
ATOM      4  C   UNL     1      -2.727   1.674  24.195  0.00  0.00    +0.023 C 
BRANCH   4   3
ATOM      3  C   UNL     1      -3.485   1.846  24.470  0.00  0.00    +0.091 C 
BRANCH   3   2
ATOM      1  C   UNL     1      -3.628   2.936  23.557  0.00  0.00    +0.112 C 
ATOM      2  N   UNL     1      -3.853   2.551  24.251  0.00  0.00    -0.306 N 
BRANCH   2  22
ATOM     22  C   UNL     1      -4.447   2.872  24.725  0.00  0.00    +0.048 A 
ATOM     23  C   UNL     1      -5.151   2.457  24.841  0.00  0.00    +0.015 A 
ATOM     24  C   UNL     1      -5.745   2.778  25.315  0.00  0.00    +0.001 A 
ATOM     25  C   UNL     1      -5.635   3.512  25.674  0.00  0.00    +0.000 A 
ATOM     26  C   UNL     1      -4.932   3.926  25.559  0.00  0.00    +0.001 A 
ATOM     27  C   UNL     1      -4.337   3.606  25.084  0.00  0.00    +0.015 A 
ENDBRANCH   2  22
ENDBRANCH   3   2
ENDBRANCH   4   3
ENDBRANCH   5   4
BRANCH  10  11
ATOM     11  C   UNL     1      -1.103   1.568  24.469  0.00  0.00    +0.114 C 
BRANCH  11  12
ATOM     12  C   UNL     1      -0.302   1.527  24.662  0.00  0.00    +0.365 C 
ATOM     13  O   UNL     1      -0.057   1.668  25.437  0.00  0.00    -0.246 OA
ATOM     14  O   UNL     1       0.254   1.345  24.081  0.00  0.00    -0.246 OA
ENDBRANCH  11  12
ENDBRANCH  10  11
BRANCH  15  17
ATOM     17  C   UNL     1      -2.632  -1.875  24.763  0.00  0.00    +0.085 C 
BRANCH  17  18
ATOM     18  C   UNL     1      -3.099  -2.556  24.787  0.00  0.00    +0.009 C 
ATOM     19  C   UNL     1      -3.565  -3.236  24.810  0.00  0.00    +0.000 C 
ATOM     20  C   UNL     1      -2.894  -2.723  24.005  0.00  0.00    +0.000 C 
ATOM     21  C   UNL     1      -3.304  -2.389  25.568  0.00  0.00    +0.000 C 
ENDBRANCH  17  18
ENDBRANCH  15  17
TORSDOF 8
ENDMDL
MODEL 5
REMARK VINA RESULT:      -9.9      2.015      3.906
REMARK  Name = 
REMARK  8 active torsions:
REMARK  status: ('A' for Active; 'I' for Inactive)
REMARK    1  A    between atoms: N_2  and  C_3
REMARK    2  A    between atoms: N_2  and  C_22
REMARK    3  A    between atoms: C_3  and  C_4
REMARK    4  A    between atoms: C_4  and  C_5
REMARK    5  A    between atoms: C_10  and  C_11
REMARK    6  A    between atoms: C_11  and  C_12
REMARK    7  A    between atoms: C_15  and  C_17
REMARK    8  A    between atoms: C_17  and  C_18
REMARK                            x       y       z     vdW  Elec       q    Type
REMARK                         _______ _______ _______ _____ _____    ______ ____
ROOT
ATOM      5  C   UNL     1      -2.990  -0.514  24.710  0.00  0.00    +0.022 C 
ATOM      6  C   UNL     1      -3.238   0.251  24.892  0.00  0.00    +0.093 C 
ATOM      7  N   UNL     1      -4.033   0.457  24.815  0.00  0.00    -0.280 N 
ATOM      8  C   UNL     1      -4.581  -0.103  24.557  0.00  0.00    +0.093 C 
ATOM      9  C   UNL     1      -4.333  -0.870  24.375  0.00  0.00    +0.022 C 
ATOM     10  C   UNL     1      -3.537  -1.075  24.452  0.00  0.00    +0.015 C 
ATOM     15  C   UNL     1      -4.281   1.222  24.996  0.00  0.00    +0.226 C 
ATOM     16  O   UNL     1      -3.733   1.783  25.255  0.00  0.00    -0.275 OA
ENDROOT
BRANCH   5   4
ATOM      4  C   UNL     1      -2.194  -0.719  24.787  0.00  0.00    +0.023 C 
BRANCH   4   3
ATOM      3  C   UNL     1      -1.607  -0.182  24.570  0.00  0.00    +0.091 C 
BRANCH   3   2
ATOM      1  C   UNL     1      -0.590  -0.951  25.216  0.00  0.00    +0.112 C 
ATOM      2  N   UNL     1      -0.812  -0.381  24.662  0.00  0.00    -0.306 N 
BRANCH   2  22
ATOM     22  C   UNL     1      -0.237  -0.011  24.200  0.00  0.00    +0.048 A 
ATOM     23  C   UNL     1       0.177  -0.444  23.632  0.00  0.00    +0.015 A 
ATOM     24  C   UNL     1       0.751  -0.073  23.170  0.00  0.00    +0.001 A 
ATOM     25  C   UNL     1       0.912   0.728  23.276  0.00  0.00    +0.000 A 
ATOM     26  C   UNL     1       0.499   1.161  23.844  0.00  0.00    +0.001 A 
ATOM     27  C   UNL     1      -0.076   0.790  24.306  0.00  0.00    +0.015 A 
ENDBRANCH   2  22
ENDBRANCH   3   2
ENDBRANCH   4   3
ENDBRANCH   5   4
BRANCH  10  11
ATOM     11  C   UNL     1      -3.290  -1.840  24.270  0.00  0.00    +0.114 C 
BRANCH  11  12
ATOM     12  C   UNL     1      -3.824  -2.467  24.310  0.00  0.00    +0.365 C 
ATOM     13  O   UNL     1      -4.339  -2.611  23.682  0.00  0.00    -0.246 OA
ATOM     14  O   UNL     1      -3.844  -2.951  24.977  0.00  0.00    -0.246 OA
ENDBRANCH  11  12
ENDBRANCH  10  11
BRANCH  15  17
ATOM     17  C   UNL     1      -5.076   1.427  24.920  0.00  0.00    +0.085 C 
BRANCH  17  18
ATOM     18  C   UNL     1      -5.331   2.181  25.140  0.00  0.00    +0.009 C 
ATOM     19  C   UNL     1      -5.586   2.934  25.360  0.00  0.00    +0.000 C 
ATOM     20  C   UNL     1      -4.980   2.497  24.464  0.00  0.00    +0.000 C 
ATOM     21  C   UNL     1      -5.683   1.865  25.817  0.00  0.00    +0.000 C 
ENDBRANCH  17  18
ENDBRANCH  15  17
TORSDOF 8
ENDMDL
