MODEL 1
REMARK VINA RESULT:     -13.0      0.000      0.000
REMARK  Name = 
REMARK  7 active torsions:
REMARK  status: ('A' for Active; 'I' for Inactive)
REMARK    1  A    between atoms: C_2  and  C_5
REMARK    2  A    between atoms: C_5  and  C_6
REMARK    3  A    between atoms: C_15  and  C_17
REMARK    4  A    between atoms: C_25  and  C_26
REMARK    5  A    between atoms: C_26  and  C_27
REMARK    6  A    between atoms: N_29  and  C_30
REMARK    7  A    between atoms: C_30  and  C_31
REMARK                            x       y       z     vdW  Elec       q    Type
REMARK                         _______ _______ _______ _____ _____    ______ ____
ROOT
ATOM      6  C   UNL     1      -3.822  -1.320  24.033  0.00  0.00    +0.247 C 
ATOM      7  O   UNL     1      -4.550  -1.228  24.410  0.00  0.00    -0.273 OA
ATOM      8  N   UNL     1      -3.343  -0.663  23.898  0.00  0.00    -0.154 NA
ATOM      9  C   UNL     1      -3.591   0.086  24.140  0.00  0.00    +0.185 A 
ATOM     10  N   UNL     1      -3.171   0.790  24.043  0.00  0.00    -0.227 NA
ATOM     11  C   UNL     1      -3.623   1.401  24.365  0.00  0.00    +0.063 A 
ATOM     12  C   UNL     1      -4.320   1.074  24.661  0.00  0.00    +0.023 A 
ATOM     13  C   UNL     1      -4.884   1.560  25.018  0.00  0.00    +0.034 C 
ATOM     14  C   UNL     1      -4.750   2.371  25.080  0.00  0.00    +0.010 C 
ATOM     15  C   UNL     1      -5.313   2.856  25.437  0.00  0.00    +0.059 C 
ATOM     16  C   UNL     1      -5.688   2.124  25.508  0.00  0.00    +0.005 C 
ATOM     19  C   UNL     1      -5.180   3.668  25.499  0.00  0.00    +0.154 C 
ATOM     20  O   UNL     1      -5.743   4.153  25.857  0.00  0.00    -0.223 OA
ATOM     21  C   UNL     1      -4.482   3.995  25.203  0.00  0.00    +0.033 C 
ATOM     22  C   UNL     1      -3.918   3.509  24.845  0.00  0.00    +0.003 C 
ATOM     23  C   UNL     1      -4.053   2.698  24.784  0.00  0.00    +0.006 C 
ATOM     24  C   UNL     1      -3.355   3.025  24.488  0.00  0.00    +0.000 C 
ATOM     25  C   UNL     1      -3.489   2.213  24.426  0.00  0.00    +0.050 C 
ATOM     37  S   UNL     1      -4.300   0.261  24.522  0.00  0.00    -0.054 S 
ENDROOT
BRANCH  15  17
ATOM     17  C   UNL     1      -6.007   3.087  25.820  0.00  0.00    +0.184 C 
ATOM     18  O   UNL     1      -6.369   2.581  26.361  0.00  0.00    -0.220 OA
ENDBRANCH  15  17
BRANCH   6   5
ATOM      5  C   UNL     1      -3.574  -2.069  23.791  0.00  0.00    +0.087 C 
BRANCH   5   2
ATOM      1  C   UNL     1      -3.565  -3.322  24.864  0.00  0.00    +0.000 C 
ATOM      2  C   UNL     1      -3.570  -2.695  24.327  0.00  0.00    +0.009 C 
ATOM      3  C   UNL     1      -2.820  -2.468  24.587  0.00  0.00    +0.000 C 
ATOM      4  C   UNL     1      -4.319  -2.923  24.068  0.00  0.00    +0.000 C 
ENDBRANCH   5   2
ENDBRANCH   6   5
BRANCH  25  26
ATOM     26  C   UNL     1      -2.792   2.540  24.131  0.00  0.00    +0.093 C 
BRANCH  26  27
ATOM     27  C   UNL     1      -2.088   2.461  24.553  0.00  0.00    +0.242 C 
ATOM     28  O   UNL     1      -2.061   2.669  25.351  0.00  0.00    -0.273 OA
ATOM     29  N   UNL     1      -1.411   2.176  24.177  0.00  0.00    -0.200 NA
BRANCH  29  30
ATOM     30  C   UNL     1      -0.708   2.098  24.600  0.00  0.00    +0.143 C 
BRANCH  30  31
ATOM     31  C   UNL     1      -0.065   1.705  24.262  0.00  0.00    +0.019 A 
ATOM     32  C   UNL     1      -0.140   0.918  24.026  0.00  0.00    +0.001 A 
ATOM     33  C   UNL     1       0.502   0.525  23.689  0.00  0.00    +0.020 A 
ATOM     34  C   UNL     1       1.220   0.919  23.587  0.00  0.00    +0.099 A 
ATOM     35  N   UNL     1       1.295   1.706  23.822  0.00  0.00    -0.243 NA
ATOM     36  C   UNL     1       0.652   2.099  24.160  0.00  0.00    +0.096 A 
ENDBRANCH  30  31
ENDBRANCH  29  30
ENDBRANCH  26  27
ENDBRANCH  25  26
TORSDOF 7
ENDMDL
MODEL 2
REMARK VINA RESULT:     -12.7      1.743      5.482
REMARK  Name = 
REMARK  7 active torsions:
REMARK  status: ('A' for Active; 'I' for Inactive)
REMARK    1  A    between atoms: C_2  and  C_5
REMARK    2  A    between atoms: C_5  and  C_6
REMARK    3  A    between atoms: C_15  and  C_17
REMARK    4  A    between atoms: C_25  and  C_26
REMARK    5  A    between atoms: C_26  and  C_27
REMARK    6  A    between atoms: N_29  and  C_30
REMARK    7  A    between atoms: C_30  and  C_31
REMARK                            x       y       z     vdW  Elec       q    Type
REMARK                         _______ _______ _______ _____ _____    ______ ____
ROOT
ATOM      6  C   UNL     1      -0.581   1.936  25.403  0.00  0.00    +0.247 C 
ATOM      7  O   UNL     1      -0.108   1.323  25.119  0.00  0.00    -0.273 OA
ATOM      8  N   UNL     1      -1.387   1.809  25.528  0.00  0.00    -0.154 NA
ATOM      9  C   UNL     1      -1.718   1.070  25.369  0.00  0.00    +0.185 A 
ATOM     10  N   UNL     1      -2.510   0.863  25.467  0.00  0.00    -0.227 NA
ATOM     11  C   UNL     1      -2.597   0.074  25.243  0.00  0.00    +0.063 A 
ATOM     12  C   UNL     1      -1.858  -0.207  25.007  0.00  0.00    +0.023 A 
ATOM     13  C   UNL     1      -1.776  -0.987  24.752  0.00  0.00    +0.034 C 
ATOM     14  C   UNL     1      -2.431  -1.487  24.732  0.00  0.00    +0.010 C 
ATOM     15  C   UNL     1      -2.349  -2.266  24.477  0.00  0.00    +0.059 C 
ATOM     16  C   UNL     1      -1.570  -2.006  24.398  0.00  0.00    +0.005 C 
ATOM     19  C   UNL     1      -3.005  -2.766  24.458  0.00  0.00    +0.154 C 
ATOM     20  O   UNL     1      -2.923  -3.547  24.202  0.00  0.00    -0.223 OA
ATOM     21  C   UNL     1      -3.744  -2.486  24.694  0.00  0.00    +0.033 C 
ATOM     22  C   UNL     1      -3.827  -1.705  24.950  0.00  0.00    +0.003 C 
ATOM     23  C   UNL     1      -3.171  -1.206  24.969  0.00  0.00    +0.006 C 
ATOM     24  C   UNL     1      -3.910  -0.926  25.205  0.00  0.00    +0.000 C 
ATOM     25  C   UNL     1      -3.254  -0.426  25.224  0.00  0.00    +0.050 C 
ATOM     37  S   UNL     1      -1.315   0.410  25.085  0.00  0.00    -0.054 S 
ENDROOT
BRANCH  15  17
ATOM     17  C   UNL     1      -1.996  -2.956  24.194  0.00  0.00    +0.184 C 
ATOM     18  O   UNL     1      -1.226  -2.936  23.900  0.00  0.00    -0.220 OA
ENDBRANCH  15  17
BRANCH   6   5
ATOM      5  C   UNL     1      -0.250   2.674  25.561  0.00  0.00    +0.087 C 
BRANCH   5   2
ATOM      1  C   UNL     1      -0.434   3.909  24.482  0.00  0.00    +0.000 C 
ATOM      2  C   UNL     1      -0.342   3.291  25.022  0.00  0.00    +0.009 C 
ATOM      3  C   UNL     1      -0.868   3.664  25.537  0.00  0.00    +0.000 C 
ATOM      4  C   UNL     1       0.184   2.920  24.506  0.00  0.00    +0.000 C 
ENDBRANCH   5   2
ENDBRANCH   6   5
BRANCH  25  26
ATOM     26  C   UNL     1      -3.992  -0.146  25.460  0.00  0.00    +0.093 C 
BRANCH  26  27
ATOM     27  C   UNL     1      -4.405   0.383  24.981  0.00  0.00    +0.242 C 
ATOM     28  O   UNL     1      -4.502   0.222  24.178  0.00  0.00    -0.273 OA
ATOM     29  N   UNL     1      -4.721   1.074  25.305  0.00  0.00    -0.200 NA
BRANCH  29  30
ATOM     30  C   UNL     1      -5.133   1.602  24.826  0.00  0.00    +0.143 C 
BRANCH  30  31
ATOM     31  C   UNL     1      -5.251   2.380  25.076  0.00  0.00    +0.019 A 
ATOM     32  C   UNL     1      -4.780   2.987  24.774  0.00  0.00    +0.001 A 
ATOM     33  C   UNL     1      -4.898   3.764  25.024  0.00  0.00    +0.020 A 
ATOM     34  C   UNL     1      -5.488   3.935  25.577  0.00  0.00    +0.099 A 
ATOM     35  N   UNL     1      -5.958   3.328  25.878  0.00  0.00    -0.243 NA
ATOM     36  C   UNL     1      -5.840   2.551  25.628  0.00  0.00    +0.096 A 
ENDBRANCH  30  31
ENDBRANCH  29  30
ENDBRANCH  26  27
ENDBRANCH  25  26
TORSDOF 7
ENDMDL
MODEL 3
REMARK VINA RESULT:     -12.7      1.680      4.328
REMARK  Name = 
REMARK  7 active torsions:
REMARK  status: ('A' for Active; 'I' for Inactive)
REMARK    1  A    between atoms: C_2  and  C_5
REMARK    2  A    between atoms: C_5  and  C_6
REMARK    3  A    between atoms: C_15  and  C_17
REMARK    4  A    between atoms: C_25  and  C_26
REMARK    5  A    between atoms: C_26  and  C_27
REMARK    6  A    between atoms: N_29  and  C_30
REMARK    7  A    between atoms: C_30  and  C_31
REMARK                            x       y       z     vdW  Elec       q    Type
REMARK                         _______ _______ _______ _____ _____    ______ ____
ROOT
ATOM      6  C   UNL     1       0.666   0.384  23.363  0.00  0.00    +0.247 C 
ATOM      7  O   UNL     1       1.020   1.083  23.621  0.00  0.00    -0.273 OA
ATOM      8  N   UNL     1      -0.152   0.295  23.412  0.00  0.00    -0.154 NA
ATOM      9  C   UNL     1      -0.617   0.904  23.718  0.00  0.00    +0.185 A 
ATOM     10  N   UNL     1      -1.437   0.893  23.800  0.00  0.00    -0.227 NA
ATOM     11  C   UNL     1      -1.670   1.614  24.129  0.00  0.00    +0.063 A 
ATOM     12  C   UNL     1      -0.993   2.069  24.249  0.00  0.00    +0.023 A 
ATOM     13  C   UNL     1      -1.057   2.825  24.574  0.00  0.00    +0.034 C 
ATOM     14  C   UNL     1      -1.797   3.125  24.779  0.00  0.00    +0.010 C 
ATOM     15  C   UNL     1      -1.860   3.880  25.104  0.00  0.00    +0.059 C 
ATOM     16  C   UNL     1      -1.043   3.837  25.000  0.00  0.00    +0.005 C 
ATOM     19  C   UNL     1      -2.601   4.181  25.309  0.00  0.00    +0.154 C 
ATOM     20  O   UNL     1      -2.665   4.937  25.634  0.00  0.00    -0.223 OA
ATOM     21  C   UNL     1      -3.278   3.725  25.188  0.00  0.00    +0.033 C 
ATOM     22  C   UNL     1      -3.215   2.969  24.863  0.00  0.00    +0.003 C 
ATOM     23  C   UNL     1      -2.474   2.670  24.658  0.00  0.00    +0.006 C 
ATOM     24  C   UNL     1      -3.151   2.214  24.538  0.00  0.00    +0.000 C 
ATOM     25  C   UNL     1      -2.411   1.914  24.333  0.00  0.00    +0.050 C 
ATOM     37  S   UNL     1      -0.341   1.630  23.995  0.00  0.00    -0.054 S 
ENDROOT
BRANCH  15  17
ATOM     17  C   UNL     1      -1.640   4.621  25.393  0.00  0.00    +0.184 C 
ATOM     18  O   UNL     1      -0.927   4.962  25.157  0.00  0.00    -0.220 OA
ENDBRANCH  15  17
BRANCH   6   5
ATOM      5  C   UNL     1       1.130  -0.225  23.058  0.00  0.00    +0.087 C 
BRANCH   5   2
ATOM      1  C   UNL     1       2.465   0.128  22.154  0.00  0.00    +0.000 C 
ATOM      2  C   UNL     1       1.797  -0.049  22.606  0.00  0.00    +0.009 C 
ATOM      3  C   UNL     1       1.372  -0.204  21.916  0.00  0.00    +0.000 C 
ATOM      4  C   UNL     1       2.223   0.107  23.295  0.00  0.00    +0.000 C 
ENDBRANCH   5   2
ENDBRANCH   6   5
BRANCH  25  26
ATOM     26  C   UNL     1      -3.088   1.459  24.213  0.00  0.00    +0.093 C 
BRANCH  26  27
ATOM     27  C   UNL     1      -3.280   0.857  24.743  0.00  0.00    +0.242 C 
ATOM     28  O   UNL     1      -3.228   0.991  25.555  0.00  0.00    -0.273 OA
ATOM     29  N   UNL     1      -3.523   0.121  24.460  0.00  0.00    -0.200 NA
BRANCH  29  30
ATOM     30  C   UNL     1      -3.714  -0.481  24.990  0.00  0.00    +0.143 C 
BRANCH  30  31
ATOM     31  C   UNL     1      -3.764  -1.262  24.727  0.00  0.00    +0.019 A 
ATOM     32  C   UNL     1      -3.320  -1.851  25.097  0.00  0.00    +0.001 A 
ATOM     33  C   UNL     1      -3.369  -2.631  24.834  0.00  0.00    +0.020 A 
ATOM     34  C   UNL     1      -3.863  -2.823  24.201  0.00  0.00    +0.099 A 
ATOM     35  N   UNL     1      -4.306  -2.234  23.831  0.00  0.00    -0.243 NA
ATOM     36  C   UNL     1      -4.257  -1.454  24.094  0.00  0.00    +0.096 A 
ENDBRANCH  30  31
ENDBRANCH  29  30
ENDBRANCH  26  27
ENDBRANCH  25  26
TORSDOF 7
ENDMDL
MODEL 4
REMARK VINA RESULT:     -12.5      1.702      4.435
REMARK  Name = 
REMARK  7 active torsions:
REMARK  status: ('A' for Active; 'I' for Inactive)
REMARK    1  A    between atoms: C_2  and  C_5
REMARK    2  A    between atoms: C_5  and  C_6
REMARK    3  A    between atoms: C_15  and  C_17
REMARK    4  A    between atoms: C_25  and  C_26
REMARK    5  A    between atoms: C_26  and  C_27
REMARK    6  A    between atoms: N_29  and  C_30
REMARK    7  A    between atoms: C_30  and  C_31
REMARK                            x       y       z     vdW  Elec       q    Type
REMARK                         _______ _______ _______ _____ _____    ______ ____
ROOT
ATOM      6  C   UNL     1      -4.990   1.649  24.737  0.00  0.00    +0.247 C 
ATOM      7  O   UNL     1      -5.191   0.860  24.871  0.00  0.00    -0.273 OA
ATOM      8  N   UNL     1      -4.202   1.856  24.608  0.00  0.00    -0.154 NA
ATOM      9  C   UNL     1      -3.616   1.275  24.612  0.00  0.00    +0.185 A 
ATOM     10  N   UNL     1      -2.810   1.400  24.491  0.00  0.00    -0.227 NA
ATOM     11  C   UNL     1      -2.429   0.670  24.543  0.00  0.00    +0.063 A 
ATOM     12  C   UNL     1      -3.000   0.094  24.695  0.00  0.00    +0.023 A 
ATOM     13  C   UNL     1      -2.778  -0.696  24.774  0.00  0.00    +0.034 C 
ATOM     14  C   UNL     1      -1.985  -0.912  24.702  0.00  0.00    +0.010 C 
ATOM     15  C   UNL     1      -1.764  -1.702  24.782  0.00  0.00    +0.059 C 
ATOM     16  C   UNL     1      -2.578  -1.769  24.896  0.00  0.00    +0.005 C 
ATOM     19  C   UNL     1      -0.971  -1.918  24.710  0.00  0.00    +0.154 C 
ATOM     20  O   UNL     1      -0.748  -2.708  24.789  0.00  0.00    -0.223 OA
ATOM     21  C   UNL     1      -0.399  -1.343  24.557  0.00  0.00    +0.033 C 
ATOM     22  C   UNL     1      -0.621  -0.551  24.478  0.00  0.00    +0.003 C 
ATOM     23  C   UNL     1      -1.414  -0.336  24.550  0.00  0.00    +0.006 C 
ATOM     24  C   UNL     1      -0.842   0.239  24.398  0.00  0.00    +0.000 C 
ATOM     25  C   UNL     1      -1.635   0.454  24.470  0.00  0.00    +0.050 C 
ATOM     37  S   UNL     1      -3.734   0.469  24.738  0.00  0.00    -0.054 S 
ENDROOT
BRANCH  15  17
ATOM     17  C   UNL     1      -1.824  -2.516  24.901  0.00  0.00    +0.184 C 
ATOM     18  O   UNL     1      -2.559  -2.887  24.854  0.00  0.00    -0.220 OA
ENDBRANCH  15  17
BRANCH   6   5
ATOM      5  C   UNL     1      -5.576   2.229  24.733  0.00  0.00    +0.087 C 
BRANCH   5   2
ATOM      1  C   UNL     1      -6.339   2.641  26.137  0.00  0.00    +0.000 C 
ATOM      2  C   UNL     1      -5.957   2.435  25.434  0.00  0.00    +0.009 C 
ATOM      3  C   UNL     1      -6.447   1.775  25.362  0.00  0.00    +0.000 C 
ATOM      4  C   UNL     1      -5.467   3.095  25.508  0.00  0.00    +0.000 C 
ENDBRANCH   5   2
ENDBRANCH   6   5
BRANCH  25  26
ATOM     26  C   UNL     1      -1.064   1.029  24.318  0.00  0.00    +0.093 C 
BRANCH  26  27
ATOM     27  C   UNL     1      -0.865   1.577  24.901  0.00  0.00    +0.242 C 
ATOM     28  O   UNL     1      -0.663   1.318  25.658  0.00  0.00    -0.273 OA
ATOM     29  N   UNL     1      -0.867   2.384  24.727  0.00  0.00    -0.200 NA
BRANCH  29  30
ATOM     30  C   UNL     1      -0.668   2.931  25.311  0.00  0.00    +0.143 C 
BRANCH  30  31
ATOM     31  C   UNL     1      -0.852   3.729  25.208  0.00  0.00    +0.019 A 
ATOM     32  C   UNL     1      -1.532   4.044  25.556  0.00  0.00    +0.001 A 
ATOM     33  C   UNL     1      -1.716   4.841  25.453  0.00  0.00    +0.020 A 
ATOM     34  C   UNL     1      -1.221   5.325  25.002  0.00  0.00    +0.099 A 
ATOM     35  N   UNL     1      -0.543   5.010  24.654  0.00  0.00    -0.243 NA
ATOM     36  C   UNL     1      -0.359   4.212  24.757  0.00  0.00    +0.096 A 
ENDBRANCH  30  31
ENDBRANCH  29  30
ENDBRANCH  26  27
ENDBRANCH  25  26
TORSDOF 7
ENDMDL
MODEL 5
REMARK VINA RESULT:     -12.4      2.325      4.834
REMARK  Name = 
REMARK  7 active torsions:
REMARK  status: ('A' for Active; 'I' for Inactive)
REMARK    1  A    between atoms: C_2  and  C_5
REMARK    2  A    between atoms: C_5  and  C_6
REMARK    3  A    between atoms: C_15  and  C_17
REMARK    4  A    between atoms: C_25  and  C_26
REMARK    5  A    between atoms: C_26  and  C_27
REMARK    6  A    between atoms: N_29  and  C_30
REMARK    7  A    between atoms: C_30  and  C_31
REMARK                            x       y       z     vdW  Elec       q    Type
REMARK                         _______ _______ _______ _____ _____    ______ ____
ROOT
ATOM      6  C   UNL     1      -1.406   2.954  25.592  0.00  0.00    +0.247 C 
ATOM      7  O   UNL     1      -2.193   2.734  25.709  0.00  0.00    -0.273 OA
ATOM      8  N   UNL     1      -0.855   2.395  25.339  0.00  0.00    -0.154 NA
ATOM      9  C   UNL     1      -1.091   1.615  25.204  0.00  0.00    +0.185 A 
ATOM     10  N   UNL     1      -0.603   0.999  24.952  0.00  0.00    -0.227 NA
ATOM     11  C   UNL     1      -1.065   0.319  24.890  0.00  0.00    +0.063 A 
ATOM     12  C   UNL     1      -1.838   0.515  25.103  0.00  0.00    +0.023 A 
ATOM     13  C   UNL     1      -2.427  -0.063  25.093  0.00  0.00    +0.034 C 
ATOM     14  C   UNL     1      -2.245  -0.835  24.869  0.00  0.00    +0.010 C 
ATOM     15  C   UNL     1      -2.834  -1.412  24.859  0.00  0.00    +0.059 C 
ATOM     16  C   UNL     1      -3.275  -0.761  25.109  0.00  0.00    +0.005 C 
ATOM     19  C   UNL     1      -2.652  -2.185  24.635  0.00  0.00    +0.154 C 
ATOM     20  O   UNL     1      -3.241  -2.762  24.625  0.00  0.00    -0.223 OA
ATOM     21  C   UNL     1      -1.879  -2.381  24.422  0.00  0.00    +0.033 C 
ATOM     22  C   UNL     1      -1.289  -1.804  24.432  0.00  0.00    +0.003 C 
ATOM     23  C   UNL     1      -1.472  -1.031  24.656  0.00  0.00    +0.006 C 
ATOM     24  C   UNL     1      -0.700  -1.227  24.442  0.00  0.00    +0.000 C 
ATOM     25  C   UNL     1      -0.882  -0.455  24.666  0.00  0.00    +0.050 C 
ATOM     37  S   UNL     1      -1.853   1.317  25.298  0.00  0.00    -0.054 S 
ENDROOT
BRANCH  15  17
ATOM     17  C   UNL     1      -3.577  -1.763  24.936  0.00  0.00    +0.184 C 
ATOM     18  O   UNL     1      -4.259  -1.308  24.854  0.00  0.00    -0.220 OA
ENDBRANCH  15  17
BRANCH   6   5
ATOM      5  C   UNL     1      -1.171   3.733  25.727  0.00  0.00    +0.087 C 
BRANCH   5   2
ATOM      1  C   UNL     1      -2.006   4.978  25.036  0.00  0.00    +0.000 C 
ATOM      2  C   UNL     1      -1.588   4.355  25.381  0.00  0.00    +0.009 C 
ATOM      3  C   UNL     1      -2.202   4.244  25.922  0.00  0.00    +0.000 C 
ATOM      4  C   UNL     1      -0.976   4.467  24.840  0.00  0.00    +0.000 C 
ENDBRANCH   5   2
ENDBRANCH   6   5
BRANCH  25  26
ATOM     26  C   UNL     1      -0.111  -0.651  24.453  0.00  0.00    +0.093 C 
BRANCH  26  27
ATOM     27  C   UNL     1       0.186  -0.420  23.719  0.00  0.00    +0.242 C 
ATOM     28  O   UNL     1      -0.316  -0.380  23.066  0.00  0.00    -0.273 OA
ATOM     29  N   UNL     1       0.985  -0.228  23.638  0.00  0.00    -0.200 NA
BRANCH  29  30
ATOM     30  C   UNL     1       1.280   0.002  22.904  0.00  0.00    +0.143 C 
BRANCH  30  31
ATOM     31  C   UNL     1       2.067   0.240  22.832  0.00  0.00    +0.019 A 
ATOM     32  C   UNL     1       2.615  -0.254  22.461  0.00  0.00    +0.001 A 
ATOM     33  C   UNL     1       3.402  -0.016  22.389  0.00  0.00    +0.020 A 
ATOM     34  C   UNL     1       3.642   0.714  22.690  0.00  0.00    +0.099 A 
ATOM     35  N   UNL     1       3.094   1.207  23.061  0.00  0.00    -0.243 NA
ATOM     36  C   UNL     1       2.307   0.970  23.132  0.00  0.00    +0.096 A 
ENDBRANCH  30  31
ENDBRANCH  29  30
ENDBRANCH  26  27
ENDBRANCH  25  26
TORSDOF 7
ENDMDL
MODEL 6
REMARK VINA RESULT:     -12.2      1.604      4.502
REMARK  Name = 
REMARK  7 active torsions:
REMARK  status: ('A' for Active; 'I' for Inactive)
REMARK    1  A    between atoms: C_2  and  C_5
REMARK    2  A    between atoms: C_5  and  C_6
REMARK    3  A    between atoms: C_15  and  C_17
REMARK    4  A    between atoms: C_25  and  C_26
REMARK    5  A    between atoms: C_26  and  C_27
REMARK    6  A    between atoms: N_29  and  C_30
REMARK    7  A    between atoms: C_30  and  C_31
REMARK                            x       y       z     vdW  Elec       q    Type
REMARK                         _______ _______ _______ _____ _____    ______ ____
ROOT
ATOM      6  C   UNL     1      -3.081  -1.644  24.704  0.00  0.00    +0.247 C 
ATOM      7  O   UNL     1      -2.423  -1.951  24.312  0.00  0.00    -0.273 OA
ATOM      8  N   UNL     1      -3.084  -0.856  24.947  0.00  0.00    -0.154 NA
ATOM      9  C   UNL     1      -2.431  -0.375  24.799  0.00  0.00    +0.185 A 
ATOM     10  N   UNL     1      -2.356   0.419  25.009  0.00  0.00    -0.227 NA
ATOM     11  C   UNL     1      -1.616   0.681  24.754  0.00  0.00    +0.063 A 
ATOM     12  C   UNL     1      -1.234   0.049  24.387  0.00  0.00    +0.023 A 
ATOM     13  C   UNL     1      -0.477   0.150  24.075  0.00  0.00    +0.034 C 
ATOM     14  C   UNL     1      -0.102   0.882  24.130  0.00  0.00    +0.010 C 
ATOM     15  C   UNL     1       0.654   0.982  23.818  0.00  0.00    +0.059 C 
ATOM     16  C   UNL     1       0.527   0.188  23.633  0.00  0.00    +0.005 C 
ATOM     19  C   UNL     1       1.030   1.715  23.873  0.00  0.00    +0.154 C 
ATOM     20  O   UNL     1       1.787   1.816  23.561  0.00  0.00    -0.223 OA
ATOM     21  C   UNL     1       0.648   2.347  24.239  0.00  0.00    +0.033 C 
ATOM     22  C   UNL     1      -0.110   2.247  24.552  0.00  0.00    +0.003 C 
ATOM     23  C   UNL     1      -0.484   1.514  24.497  0.00  0.00    +0.006 C 
ATOM     24  C   UNL     1      -0.866   2.147  24.863  0.00  0.00    +0.000 C 
ATOM     25  C   UNL     1      -1.241   1.415  24.809  0.00  0.00    +0.050 C 
ATOM     37  S   UNL     1      -1.738  -0.605  24.415  0.00  0.00    -0.054 S 
ENDROOT
BRANCH  15  17
ATOM     17  C   UNL     1       1.368   0.807  23.442  0.00  0.00    +0.184 C 
ATOM     18  O   UNL     1       1.470   0.079  23.068  0.00  0.00    -0.220 OA
ENDBRANCH  15  17
BRANCH   6   5
ATOM      5  C   UNL     1      -3.734  -2.125  24.852  0.00  0.00    +0.087 C 
BRANCH   5   2
ATOM      1  C   UNL     1      -4.222  -3.226  23.724  0.00  0.00    +0.000 C 
ATOM      2  C   UNL     1      -3.978  -2.675  24.288  0.00  0.00    +0.009 C 
ATOM      3  C   UNL     1      -3.541  -3.262  24.670  0.00  0.00    +0.000 C 
ATOM      4  C   UNL     1      -4.415  -2.089  23.906  0.00  0.00    +0.000 C 
ENDBRANCH   5   2
ENDBRANCH   6   5
BRANCH  25  26
ATOM     26  C   UNL     1      -1.623   2.046  25.175  0.00  0.00    +0.093 C 
BRANCH  26  27
ATOM     27  C   UNL     1      -2.219   2.455  24.778  0.00  0.00    +0.242 C 
ATOM     28  O   UNL     1      -2.103   2.699  23.999  0.00  0.00    -0.273 OA
ATOM     29  N   UNL     1      -2.932   2.619  25.160  0.00  0.00    -0.200 NA
BRANCH  29  30
ATOM     30  C   UNL     1      -3.528   3.027  24.763  0.00  0.00    +0.143 C 
BRANCH  30  31
ATOM     31  C   UNL     1      -4.293   3.044  25.072  0.00  0.00    +0.019 A 
ATOM     32  C   UNL     1      -4.860   2.508  24.801  0.00  0.00    +0.001 A 
ATOM     33  C   UNL     1      -5.624   2.526  25.110  0.00  0.00    +0.020 A 
ATOM     34  C   UNL     1      -5.823   3.079  25.690  0.00  0.00    +0.099 A 
ATOM     35  N   UNL     1      -5.256   3.614  25.960  0.00  0.00    -0.243 NA
ATOM     36  C   UNL     1      -4.492   3.597  25.651  0.00  0.00    +0.096 A 
ENDBRANCH  30  31
ENDBRANCH  29  30
ENDBRANCH  26  27
ENDBRANCH  25  26
TORSDOF 7
ENDMDL
MODEL 7
REMARK VINA RESULT:     -11.8      1.715      2.562
REMARK  Name = 
REMARK  7 active torsions:
REMARK  status: ('A' for Active; 'I' for Inactive)
REMARK    1  A    between atoms: C_2  and  C_5
REMARK    2  A    between atoms: C_5  and  C_6
REMARK    3  A    between atoms: C_15  and  C_17
REMARK    4  A    between atoms: C_25  and  C_26
REMARK    5  A    between atoms: C_26  and  C_27
REMARK    6  A    between atoms: N_29  and  C_30
REMARK    7  A    between atoms: C_30  and  C_31
REMARK                            x       y       z     vdW  Elec       q    Type
REMARK                         _______ _______ _______ _____ _____    ______ ____
ROOT
ATOM      6  C   UNL     1      -2.840  -0.645  24.347  0.00  0.00    +0.247 C 
ATOM      7  O   UNL     1      -3.377  -0.236  24.822  0.00  0.00    -0.273 OA
ATOM      8  N   UNL     1      -2.169  -0.261  24.060  0.00  0.00    -0.154 NA
ATOM      9  C   UNL     1      -2.035   0.531  24.247  0.00  0.00    +0.185 A 
ATOM     10  N   UNL     1      -1.391   0.984  24.000  0.00  0.00    -0.227 NA
ATOM     11  C   UNL     1      -1.479   1.742  24.314  0.00  0.00    +0.063 A 
ATOM     12  C   UNL     1      -2.176   1.757  24.755  0.00  0.00    +0.023 A 
ATOM     13  C   UNL     1      -2.408   2.451  25.137  0.00  0.00    +0.034 C 
ATOM     14  C   UNL     1      -1.943   3.129  25.079  0.00  0.00    +0.010 C 
ATOM     15  C   UNL     1      -2.175   3.822  25.461  0.00  0.00    +0.059 C 
ATOM     16  C   UNL     1      -2.796   3.324  25.678  0.00  0.00    +0.005 C 
ATOM     19  C   UNL     1      -1.710   4.501  25.403  0.00  0.00    +0.154 C 
ATOM     20  O   UNL     1      -1.942   5.195  25.785  0.00  0.00    -0.223 OA
ATOM     21  C   UNL     1      -1.012   4.486  24.963  0.00  0.00    +0.033 C 
ATOM     22  C   UNL     1      -0.780   3.793  24.580  0.00  0.00    +0.003 C 
ATOM     23  C   UNL     1      -1.245   3.114  24.639  0.00  0.00    +0.006 C 
ATOM     24  C   UNL     1      -0.548   3.100  24.198  0.00  0.00    +0.000 C 
ATOM     25  C   UNL     1      -1.013   2.422  24.256  0.00  0.00    +0.050 C 
ATOM     37  S   UNL     1      -2.520   1.008  24.713  0.00  0.00    -0.054 S 
ENDROOT
BRANCH  15  17
ATOM     17  C   UNL     1      -2.623   4.343  25.918  0.00  0.00    +0.184 C 
ATOM     18  O   UNL     1      -3.306   4.078  26.296  0.00  0.00    -0.220 OA
ENDBRANCH  15  17
BRANCH   6   5
ATOM      5  C   UNL     1      -2.975  -1.437  24.160  0.00  0.00    +0.087 C 
BRANCH   5   2
ATOM      1  C   UNL     1      -3.679  -2.438  25.267  0.00  0.00    +0.000 C 
ATOM      2  C   UNL     1      -3.327  -1.937  24.713  0.00  0.00    +0.009 C 
ATOM      3  C   UNL     1      -4.070  -1.758  24.402  0.00  0.00    +0.000 C 
ATOM      4  C   UNL     1      -2.584  -2.117  25.024  0.00  0.00    +0.000 C 
ENDBRANCH   5   2
ENDBRANCH   6   5
BRANCH  25  26
ATOM     26  C   UNL     1      -0.316   2.407  23.817  0.00  0.00    +0.093 C 
BRANCH  26  27
ATOM     27  C   UNL     1       0.339   1.991  24.095  0.00  0.00    +0.242 C 
ATOM     28  O   UNL     1       0.507   1.980  24.902  0.00  0.00    -0.273 OA
ATOM     29  N   UNL     1       0.826   1.585  23.566  0.00  0.00    -0.200 NA
BRANCH  29  30
ATOM     30  C   UNL     1       1.481   1.169  23.845  0.00  0.00    +0.143 C 
BRANCH  30  31
ATOM     31  C   UNL     1       2.008   0.825  23.312  0.00  0.00    +0.019 A 
ATOM     32  C   UNL     1       2.768   1.136  23.225  0.00  0.00    +0.001 A 
ATOM     33  C   UNL     1       3.296   0.791  22.692  0.00  0.00    +0.020 A 
ATOM     34  C   UNL     1       3.064   0.136  22.246  0.00  0.00    +0.099 A 
ATOM     35  N   UNL     1       2.305  -0.174  22.334  0.00  0.00    -0.243 NA
ATOM     36  C   UNL     1       1.777   0.171  22.867  0.00  0.00    +0.096 A 
ENDBRANCH  30  31
ENDBRANCH  29  30
ENDBRANCH  26  27
ENDBRANCH  25  26
TORSDOF 7
ENDMDL
