MODEL 1
REMARK VINA RESULT:     -12.8      0.000      0.000
REMARK  Name = 
REMARK  5 active torsions:
REMARK  status: ('A' for Active; 'I' for Inactive)
REMARK    1  A    between atoms: N_7  and  C_10
REMARK    2  A    between atoms: C_12  and  C_16
REMARK    3  A    between atoms: C_19  and  C_21
REMARK    4  A    between atoms: N_25  and  C_26
REMARK    5  A    between atoms: C_26  and  C_27
REMARK                            x       y       z     vdW  Elec       q    Type
REMARK                         _______ _______ _______ _____ _____    ______ ____
ROOT
ATOM     16  C   UNL     1      -4.033   2.781  24.525  0.00  0.00    +0.203 A 
ATOM     17  N   UNL     1      -4.060   3.218  23.825  0.00  0.00    -0.056 NA
ATOM     18  O   UNL     1      -3.475   3.799  23.864  0.00  0.00    -0.336 OA
ATOM     19  C   UNL     1      -3.087   3.721  24.588  0.00  0.00    +0.251 A 
ATOM     20  N   UNL     1      -3.431   3.092  24.996  0.00  0.00    -0.190 NA
ENDROOT
BRANCH  16  12
ATOM     10  C   UNL     1      -4.717   0.740  24.883  0.00  0.00    +0.132 A 
ATOM     11  C   UNL     1      -4.228   1.376  24.689  0.00  0.00    +0.037 A 
ATOM     12  C   UNL     1      -4.522   2.145  24.719  0.00  0.00    +0.043 A 
ATOM     13  C   UNL     1      -5.304   2.280  24.943  0.00  0.00    +0.024 A 
ATOM     14  C   UNL     1      -5.793   1.645  25.137  0.00  0.00    +0.100 A 
ATOM     15  N   UNL     1      -5.499   0.874  25.107  0.00  0.00    -0.229 NA
BRANCH  10   7
ATOM      1  C   UNL     1      -3.635  -2.793  24.079  0.00  0.00    +0.095 C 
ATOM      2  C   UNL     1      -3.541  -2.342  24.764  0.00  0.00    +0.226 C 
ATOM      3  O   UNL     1      -3.154  -2.661  25.417  0.00  0.00    -0.275 OA
ATOM      4  N   UNL     1      -3.835  -1.571  24.793  0.00  0.00    -0.276 N 
ATOM      5  C   UNL     1      -3.741  -1.120  25.477  0.00  0.00    +0.115 C 
ATOM      6  C   UNL     1      -4.035  -0.350  25.508  0.00  0.00    +0.114 C 
ATOM      7  N   UNL     1      -4.423  -0.031  24.853  0.00  0.00    -0.290 N 
ATOM      8  C   UNL     1      -4.516  -0.482  24.169  0.00  0.00    +0.114 C 
ATOM      9  C   UNL     1      -4.223  -1.252  24.139  0.00  0.00    +0.115 C 
ENDBRANCH  10   7
ENDBRANCH  16  12
BRANCH  19  21
ATOM     21  C   UNL     1      -2.463   4.189  24.856  0.00  0.00    +0.138 C 
ATOM     22  C   UNL     1      -2.524   4.960  25.142  0.00  0.00    +0.027 C 
ATOM     23  C   UNL     1      -1.767   5.216  25.348  0.00  0.00    +0.019 C 
ATOM     24  C   UNL     1      -1.238   4.603  25.189  0.00  0.00    +0.073 C 
ATOM     25  N   UNL     1      -1.668   3.968  24.885  0.00  0.00    -0.263 NA
BRANCH  25  26
ATOM     26  C   UNL     1      -1.358   3.240  24.651  0.00  0.00    +0.099 C 
BRANCH  26  27
ATOM     27  C   UNL     1      -0.765   2.881  25.099  0.00  0.00    -0.010 A 
ATOM     28  C   UNL     1      -0.715   3.029  25.909  0.00  0.00    -0.003 A 
ATOM     29  C   UNL     1      -0.122   2.670  26.357  0.00  0.00    -0.000 A 
ATOM     30  C   UNL     1       0.421   2.165  25.995  0.00  0.00    -0.000 A 
ATOM     31  C   UNL     1       0.370   2.018  25.185  0.00  0.00    -0.005 A 
ATOM     32  C   UNL     1      -0.223   2.376  24.737  0.00  0.00    -0.024 A 
ATOM     33  C   UNL     1      -0.274   2.229  23.926  0.00  0.00    +0.031 C 
ENDBRANCH  26  27
ENDBRANCH  25  26
ENDBRANCH  19  21
TORSDOF 5
ENDMDL
MODEL 2
REMARK VINA RESULT:     -12.2      1.711      3.407
REMARK  Name = 
REMARK  5 active torsions:
REMARK  status: ('A' for Active; 'I' for Inactive)
REMARK    1  A    between atoms: N_7  and  C_10
REMARK    2  A    between atoms: C_12  and  C_16
REMARK    3  A    between atoms: C_19  and  C_21
REMARK    4  A    between atoms: N_25  and  C_26
REMARK    5  A    between atoms: C_26  and  C_27
REMARK                            x       y       z     vdW  Elec       q    Type
REMARK                         _______ _______ _______ _____ _____    ______ ____
ROOT
ATOM     16  C   UNL     1      -0.448   1.807  24.946  0.00  0.00    +0.203 A 
ATOM     17  N   UNL     1      -0.094   2.055  25.648  0.00  0.00    -0.056 NA
ATOM     18  O   UNL     1      -0.342   2.827  25.801  0.00  0.00    -0.336 OA
ATOM     19  C   UNL     1      -0.850   3.057  25.193  0.00  0.00    +0.251 A 
ATOM     20  N   UNL     1      -0.916   2.426  24.665  0.00  0.00    -0.190 NA
ENDROOT
BRANCH  16  12
ATOM     10  C   UNL     1      -0.845  -0.240  24.302  0.00  0.00    +0.132 A 
ATOM     11  C   UNL     1      -0.941   0.497  24.660  0.00  0.00    +0.037 A 
ATOM     12  C   UNL     1      -0.352   1.070  24.588  0.00  0.00    +0.043 A 
ATOM     13  C   UNL     1       0.333   0.907  24.158  0.00  0.00    +0.024 A 
ATOM     14  C   UNL     1       0.428   0.170  23.799  0.00  0.00    +0.100 A 
ATOM     15  N   UNL     1      -0.161  -0.404  23.872  0.00  0.00    -0.229 NA
BRANCH  10   7
ATOM      1  C   UNL     1      -3.977  -2.355  24.383  0.00  0.00    +0.095 C 
ATOM      2  C   UNL     1      -3.199  -2.534  24.591  0.00  0.00    +0.226 C 
ATOM      3  O   UNL     1      -3.010  -3.286  24.871  0.00  0.00    -0.275 OA
ATOM      4  N   UNL     1      -2.611  -1.960  24.518  0.00  0.00    -0.276 N 
ATOM      5  C   UNL     1      -1.833  -2.139  24.727  0.00  0.00    +0.115 C 
ATOM      6  C   UNL     1      -1.244  -1.566  24.655  0.00  0.00    +0.114 C 
ATOM      7  N   UNL     1      -1.434  -0.814  24.374  0.00  0.00    -0.290 N 
ATOM      8  C   UNL     1      -2.212  -0.635  24.166  0.00  0.00    +0.114 C 
ATOM      9  C   UNL     1      -2.800  -1.208  24.238  0.00  0.00    +0.115 C 
ENDBRANCH  10   7
ENDBRANCH  16  12
BRANCH  19  21
ATOM     21  C   UNL     1      -1.226   3.787  25.125  0.00  0.00    +0.138 C 
ATOM     22  C   UNL     1      -0.863   4.526  25.174  0.00  0.00    +0.027 C 
ATOM     23  C   UNL     1      -1.445   5.104  25.076  0.00  0.00    +0.019 C 
ATOM     24  C   UNL     1      -2.168   4.720  24.966  0.00  0.00    +0.073 C 
ATOM     25  N   UNL     1      -2.033   3.908  24.997  0.00  0.00    -0.263 NA
BRANCH  25  26
ATOM     26  C   UNL     1      -2.604   3.318  24.914  0.00  0.00    +0.099 C 
BRANCH  26  27
ATOM     27  C   UNL     1      -3.382   3.462  25.145  0.00  0.00    -0.010 A 
ATOM     28  C   UNL     1      -3.536   3.830  25.868  0.00  0.00    -0.003 A 
ATOM     29  C   UNL     1      -4.315   3.975  26.098  0.00  0.00    -0.000 A 
ATOM     30  C   UNL     1      -4.939   3.753  25.607  0.00  0.00    -0.000 A 
ATOM     31  C   UNL     1      -4.785   3.386  24.885  0.00  0.00    -0.005 A 
ATOM     32  C   UNL     1      -4.007   3.240  24.654  0.00  0.00    -0.024 A 
ATOM     33  C   UNL     1      -3.853   2.873  23.931  0.00  0.00    +0.031 C 
ENDBRANCH  26  27
ENDBRANCH  25  26
ENDBRANCH  19  21
TORSDOF 5
ENDMDL
MODEL 3
REMARK VINA RESULT:     -12.0      1.886      5.188
REMARK  Name = 
REMARK  5 active torsions:
REMARK  status: ('A' for Active; 'I' for Inactive)
REMARK    1  A    between atoms: N_7  and  C_10
REMARK    2  A    between atoms: C_12  and  C_16
REMARK    3  A    between atoms: C_19  and  C_21
REMARK    4  A    between atoms: N_25  and  C_26
REMARK    5  A    between atoms: C_26  and  C_27
REMARK                            x       y       z     vdW  Elec       q    Type
REMARK                         _______ _______ _______ _____ _____    ______ ____
ROOT
ATOM     16  C   UNL     1      -1.110   1.331  24.575  0.00  0.00    +0.203 A 
ATOM     17  N   UNL     1      -0.712   1.151  23.875  0.00  0.00    -0.056 NA
ATOM     18  O   UNL     1      -0.595   0.334  23.851  0.00  0.00    -0.336 OA
ATOM     19  C   UNL     1      -0.921   0.009  24.536  0.00  0.00    +0.251 A 
ATOM     20  N   UNL     1      -1.239   0.625  24.984  0.00  0.00    -0.190 NA
ENDROOT
BRANCH  16  12
ATOM     10  C   UNL     1      -2.366   3.009  25.179  0.00  0.00    +0.132 A 
ATOM     11  C   UNL     1      -2.138   2.257  24.931  0.00  0.00    +0.037 A 
ATOM     12  C   UNL     1      -1.339   2.084  24.823  0.00  0.00    +0.043 A 
ATOM     13  C   UNL     1      -0.768   2.663  24.962  0.00  0.00    +0.024 A 
ATOM     14  C   UNL     1      -0.997   3.416  25.210  0.00  0.00    +0.100 A 
ATOM     15  N   UNL     1      -1.797   3.589  25.319  0.00  0.00    -0.229 NA
BRANCH  10   7
ATOM      1  C   UNL     1      -6.117   3.093  25.646  0.00  0.00    +0.095 C 
ATOM      2  C   UNL     1      -5.563   3.704  25.615  0.00  0.00    +0.226 C 
ATOM      3  O   UNL     1      -5.808   4.487  25.692  0.00  0.00    -0.275 OA
ATOM      4  N   UNL     1      -4.764   3.530  25.506  0.00  0.00    -0.276 N 
ATOM      5  C   UNL     1      -4.210   4.140  25.474  0.00  0.00    +0.115 C 
ATOM      6  C   UNL     1      -3.411   3.967  25.365  0.00  0.00    +0.114 C 
ATOM      7  N   UNL     1      -3.166   3.183  25.288  0.00  0.00    -0.290 N 
ATOM      8  C   UNL     1      -3.720   2.573  25.320  0.00  0.00    +0.114 C 
ATOM      9  C   UNL     1      -4.519   2.746  25.428  0.00  0.00    +0.115 C 
ENDBRANCH  10   7
ENDBRANCH  16  12
BRANCH  19  21
ATOM     21  C   UNL     1      -0.927  -0.790  24.738  0.00  0.00    +0.138 C 
ATOM     22  C   UNL     1      -0.286  -1.224  25.022  0.00  0.00    +0.027 C 
ATOM     23  C   UNL     1      -0.539  -1.999  25.151  0.00  0.00    +0.019 C 
ATOM     24  C   UNL     1      -1.338  -2.043  24.948  0.00  0.00    +0.073 C 
ATOM     25  N   UNL     1      -1.577  -1.297  24.692  0.00  0.00    -0.263 NA
BRANCH  25  26
ATOM     26  C   UNL     1      -2.335  -1.092  24.436  0.00  0.00    +0.099 C 
BRANCH  26  27
ATOM     27  C   UNL     1      -2.914  -1.674  24.357  0.00  0.00    -0.010 A 
ATOM     28  C   UNL     1      -2.748  -2.453  24.573  0.00  0.00    -0.003 A 
ATOM     29  C   UNL     1      -3.328  -3.035  24.494  0.00  0.00    -0.000 A 
ATOM     30  C   UNL     1      -4.073  -2.838  24.199  0.00  0.00    -0.000 A 
ATOM     31  C   UNL     1      -4.238  -2.059  23.984  0.00  0.00    -0.005 A 
ATOM     32  C   UNL     1      -3.659  -1.477  24.063  0.00  0.00    -0.024 A 
ATOM     33  C   UNL     1      -3.826  -0.698  23.847  0.00  0.00    +0.031 C 
ENDBRANCH  26  27
ENDBRANCH  25  26
ENDBRANCH  19  21
TORSDOF 5
ENDMDL
MODEL 4
REMARK VINA RESULT:     -11.7      1.510      4.966
REMARK  Name = 
REMARK  5 active torsions:
REMARK  status: ('A' for Active; 'I' for Inactive)
REMARK    1  A    between atoms: N_7  and  C_10
REMARK    2  A    between atoms: C_12  and  C_16
REMARK    3  A    between atoms: C_19  and  C_21
REMARK    4  A    between atoms: N_25  and  C_26
REMARK    5  A    between atoms: C_26  and  C_27
REMARK                            x       y       z     vdW  Elec       q    Type
REMARK                         _______ _______ _______ _____ _____    ______ ____
ROOT
ATOM     16  C   UNL     1      -4.482   0.826  25.022  0.00  0.00    +0.203 A 
ATOM     17  N   UNL     1      -4.770   0.425  25.683  0.00  0.00    -0.056 NA
ATOM     18  O   UNL     1      -4.611  -0.379  25.584  0.00  0.00    -0.336 OA
ATOM     19  C   UNL     1      -4.224  -0.475  24.861  0.00  0.00    +0.251 A 
ATOM     20  N   UNL     1      -4.145   0.270  24.514  0.00  0.00    -0.190 NA
ENDROOT
BRANCH  16  12
ATOM     10  C   UNL     1      -3.884   2.913  24.807  0.00  0.00    +0.132 A 
ATOM     11  C   UNL     1      -3.842   2.099  24.937  0.00  0.00    +0.037 A 
ATOM     12  C   UNL     1      -4.524   1.639  24.892  0.00  0.00    +0.043 A 
ATOM     13  C   UNL     1      -5.250   1.992  24.718  0.00  0.00    +0.024 A 
ATOM     14  C   UNL     1      -5.292   2.805  24.588  0.00  0.00    +0.100 A 
ATOM     15  N   UNL     1      -4.608   3.266  24.632  0.00  0.00    -0.229 NA
BRANCH  10   7
ATOM      1  C   UNL     1      -0.437   4.463  24.695  0.00  0.00    +0.095 C 
ATOM      2  C   UNL     1      -1.152   4.756  24.984  0.00  0.00    +0.226 C 
ATOM      3  O   UNL     1      -1.184   5.510  25.318  0.00  0.00    -0.275 OA
ATOM      4  N   UNL     1      -1.835   4.295  24.940  0.00  0.00    -0.276 N 
ATOM      5  C   UNL     1      -2.550   4.588  25.229  0.00  0.00    +0.115 C 
ATOM      6  C   UNL     1      -3.233   4.128  25.185  0.00  0.00    +0.114 C 
ATOM      7  N   UNL     1      -3.200   3.374  24.851  0.00  0.00    -0.290 N 
ATOM      8  C   UNL     1      -2.485   3.081  24.562  0.00  0.00    +0.114 C 
ATOM      9  C   UNL     1      -1.803   3.542  24.606  0.00  0.00    +0.115 C 
ENDBRANCH  10   7
ENDBRANCH  16  12
BRANCH  19  21
ATOM     21  C   UNL     1      -3.963  -1.189  24.541  0.00  0.00    +0.138 C 
ATOM     22  C   UNL     1      -4.396  -1.684  24.043  0.00  0.00    +0.027 C 
ATOM     23  C   UNL     1      -3.923  -2.335  23.858  0.00  0.00    +0.019 C 
ATOM     24  C   UNL     1      -3.198  -2.241  24.241  0.00  0.00    +0.073 C 
ATOM     25  N   UNL     1      -3.223  -1.533  24.664  0.00  0.00    -0.263 NA
BRANCH  25  26
ATOM     26  C   UNL     1      -2.615  -1.223  25.127  0.00  0.00    +0.099 C 
BRANCH  26  27
ATOM     27  C   UNL     1      -1.852  -1.533  25.067  0.00  0.00    -0.010 A 
ATOM     28  C   UNL     1      -1.724  -2.235  24.654  0.00  0.00    -0.003 A 
ATOM     29  C   UNL     1      -0.962  -2.545  24.594  0.00  0.00    -0.000 A 
ATOM     30  C   UNL     1      -0.328  -2.153  24.947  0.00  0.00    -0.000 A 
ATOM     31  C   UNL     1      -0.456  -1.451  25.360  0.00  0.00    -0.005 A 
ATOM     32  C   UNL     1      -1.218  -1.141  25.420  0.00  0.00    -0.024 A 
ATOM     33  C   UNL     1      -1.347  -0.438  25.834  0.00  0.00    +0.031 C 
ENDBRANCH  26  27
ENDBRANCH  25  26
ENDBRANCH  19  21
TORSDOF 5
ENDMDL
MODEL 5
REMARK VINA RESULT:     -11.2      2.077      3.877
REMARK  Name = 
REMARK  5 active torsions:
REMARK  status: ('A' for Active; 'I' for Inactive)
REMARK    1  A    between atoms: N_7  and  C_10
REMARK    2  A    between atoms: C_12  and  C_16
REMARK    3  A    between atoms: C_19  and  C_21
REMARK    4  A    between atoms: N_25  and  C_26
REMARK    5  A    between atoms: C_26  and  C_27
REMARK                            x       y       z     vdW  Elec       q    Type
REMARK                         _______ _______ _______ _____ _____    ______ ____
ROOT
ATOM     16  C   UNL     1      -3.933   0.110  24.898  0.00  0.00    +0.203 A 
ATOM     17  N   UNL     1      -4.574  -0.005  24.392  0.00  0.00    -0.056 NA
ATOM     18  O   UNL     1      -5.105   0.616  24.508  0.00  0.00    -0.336 OA
ATOM     19  C   UNL     1      -4.792   1.115  25.086  0.00  0.00    +0.251 A 
ATOM     20  N   UNL     1      -4.067   0.803  25.327  0.00  0.00    -0.190 NA
ENDROOT
BRANCH  16  12
ATOM     10  C   UNL     1      -1.893  -0.639  24.700  0.00  0.00    +0.132 A 
ATOM     11  C   UNL     1      -2.553  -0.149  24.634  0.00  0.00    +0.037 A 
ATOM     12  C   UNL     1      -3.272  -0.380  24.963  0.00  0.00    +0.043 A 
ATOM     13  C   UNL     1      -3.333  -1.102  25.359  0.00  0.00    +0.024 A 
ATOM     14  C   UNL     1      -2.673  -1.592  25.424  0.00  0.00    +0.100 A 
ATOM     15  N   UNL     1      -1.952  -1.361  25.095  0.00  0.00    -0.229 NA
BRANCH  10   7
ATOM      1  C   UNL     1       1.422  -0.245  22.924  0.00  0.00    +0.095 C 
ATOM      2  C   UNL     1       0.988   0.286  23.383  0.00  0.00    +0.226 C 
ATOM      3  O   UNL     1       1.274   1.049  23.512  0.00  0.00    -0.275 OA
ATOM      4  N   UNL     1       0.268   0.054  23.712  0.00  0.00    -0.276 N 
ATOM      5  C   UNL     1      -0.166   0.586  24.170  0.00  0.00    +0.115 C 
ATOM      6  C   UNL     1      -0.886   0.355  24.500  0.00  0.00    +0.114 C 
ATOM      7  N   UNL     1      -1.172  -0.408  24.370  0.00  0.00    -0.290 N 
ATOM      8  C   UNL     1      -0.738  -0.939  23.912  0.00  0.00    +0.114 C 
ATOM      9  C   UNL     1      -0.019  -0.708  23.583  0.00  0.00    +0.115 C 
ENDBRANCH  10   7
ENDBRANCH  16  12
BRANCH  19  21
ATOM     21  C   UNL     1      -5.141   1.805  25.372  0.00  0.00    +0.138 C 
ATOM     22  C   UNL     1      -5.828   1.848  25.828  0.00  0.00    +0.027 C 
ATOM     23  C   UNL     1      -5.976   2.644  25.990  0.00  0.00    +0.019 C 
ATOM     24  C   UNL     1      -5.381   3.092  25.635  0.00  0.00    +0.073 C 
ATOM     25  N   UNL     1      -4.866   2.574  25.253  0.00  0.00    -0.263 NA
BRANCH  25  26
ATOM     26  C   UNL     1      -4.192   2.787  24.827  0.00  0.00    +0.099 C 
BRANCH  26  27
ATOM     27  C   UNL     1      -3.684   3.367  25.121  0.00  0.00    -0.010 A 
ATOM     28  C   UNL     1      -3.684   3.544  25.927  0.00  0.00    -0.003 A 
ATOM     29  C   UNL     1      -3.177   4.124  26.221  0.00  0.00    -0.000 A 
ATOM     30  C   UNL     1      -2.669   4.527  25.710  0.00  0.00    -0.000 A 
ATOM     31  C   UNL     1      -2.670   4.350  24.905  0.00  0.00    -0.005 A 
ATOM     32  C   UNL     1      -3.177   3.770  24.610  0.00  0.00    -0.024 A 
ATOM     33  C   UNL     1      -3.177   3.592  23.804  0.00  0.00    +0.031 C 
ENDBRANCH  26  27
ENDBRANCH  25  26
ENDBRANCH  19  21
TORSDOF 5
ENDMDL
MODEL 6
REMARK VINA RESULT:     -10.9      1.716      4.555
REMARK  Name = 
REMARK  5 active torsions:
REMARK  status: ('A' for Active; 'I' for Inactive)
REMARK    1  A    between atoms: N_7  and  C_10
REMARK    2  A    between atoms: C_12  and  C_16
REMARK    3  A    between atoms: C_19  and  C_21
REMARK    4  A    between atoms: N_25  and  C_26
REMARK    5  A    between atoms: C_26  and  C_27
REMARK                            x       y       z     vdW  Elec       q    Type
REMARK                         _______ _______ _______ _____ _____    ______ ____
ROOT
ATOM     16  C   UNL     1      -2.880   2.998  25.303  0.00  0.00    +0.203 A 
ATOM     17  N   UNL     1      -3.303   3.367  25.907  0.00  0.00    -0.056 NA
ATOM     18  O   UNL     1      -4.062   3.042  25.923  0.00  0.00    -0.336 OA
ATOM     19  C   UNL     1      -4.107   2.472  25.328  0.00  0.00    +0.251 A 
ATOM     20  N   UNL     1      -3.376   2.444  24.945  0.00  0.00    -0.190 NA
ENDROOT
BRANCH  16  12
ATOM     10  C   UNL     1      -0.846   2.712  24.566  0.00  0.00    +0.132 A 
ATOM     11  C   UNL     1      -1.629   2.556  24.775  0.00  0.00    +0.037 A 
ATOM     12  C   UNL     1      -2.097   3.154  25.094  0.00  0.00    +0.043 A 
ATOM     13  C   UNL     1      -1.784   3.910  25.204  0.00  0.00    +0.024 A 
ATOM     14  C   UNL     1      -1.002   4.066  24.995  0.00  0.00    +0.100 A 
ATOM     15  N   UNL     1      -0.532   3.467  24.676  0.00  0.00    -0.229 NA
BRANCH  10   7
ATOM      1  C   UNL     1       0.685  -0.387  23.033  0.00  0.00    +0.095 C 
ATOM      2  C   UNL     1       1.032   0.317  23.289  0.00  0.00    +0.226 C 
ATOM      3  O   UNL     1       1.847   0.422  23.226  0.00  0.00    -0.275 OA
ATOM      4  N   UNL     1       0.562   0.916  23.608  0.00  0.00    -0.276 N 
ATOM      5  C   UNL     1       0.908   1.619  23.864  0.00  0.00    +0.115 C 
ATOM      6  C   UNL     1       0.439   2.218  24.184  0.00  0.00    +0.114 C 
ATOM      7  N   UNL     1      -0.376   2.113  24.247  0.00  0.00    -0.290 N 
ATOM      8  C   UNL     1      -0.723   1.409  23.991  0.00  0.00    +0.114 C 
ATOM      9  C   UNL     1      -0.254   0.811  23.672  0.00  0.00    +0.115 C 
ENDBRANCH  10   7
ENDBRANCH  16  12
BRANCH  19  21
ATOM     21  C   UNL     1      -4.766   2.010  25.147  0.00  0.00    +0.138 C 
ATOM     22  C   UNL     1      -5.517   2.292  24.953  0.00  0.00    +0.027 C 
ATOM     23  C   UNL     1      -6.005   1.641  24.815  0.00  0.00    +0.019 C 
ATOM     24  C   UNL     1      -5.556   0.957  24.925  0.00  0.00    +0.073 C 
ATOM     25  N   UNL     1      -4.791   1.186  25.130  0.00  0.00    -0.263 NA
BRANCH  25  26
ATOM     26  C   UNL     1      -4.160   0.678  25.290  0.00  0.00    +0.099 C 
BRANCH  26  27
ATOM     27  C   UNL     1      -4.119  -0.058  24.920  0.00  0.00    -0.010 A 
ATOM     28  C   UNL     1      -4.379  -0.143  24.141  0.00  0.00    -0.003 A 
ATOM     29  C   UNL     1      -4.338  -0.879  23.771  0.00  0.00    -0.000 A 
ATOM     30  C   UNL     1      -4.039  -1.531  24.180  0.00  0.00    -0.000 A 
ATOM     31  C   UNL     1      -3.780  -1.446  24.958  0.00  0.00    -0.005 A 
ATOM     32  C   UNL     1      -3.820  -0.709  25.328  0.00  0.00    -0.024 A 
ATOM     33  C   UNL     1      -3.560  -0.625  26.107  0.00  0.00    +0.031 C 
ENDBRANCH  26  27
ENDBRANCH  25  26
ENDBRANCH  19  21
TORSDOF 5
ENDMDL
MODEL 7
REMARK VINA RESULT:     -10.9      2.873      5.087
REMARK  Name = 
REMARK  5 active torsions:
REMARK  status: ('A' for Active; 'I' for Inactive)
REMARK    1  A    between atoms: N_7  and  C_10
REMARK    2  A    between atoms: C_12  and  C_16
REMARK    3  A    between atoms: C_19  and  C_21
REMARK    4  A    between atoms: N_25  and  C_26
REMARK    5  A    between atoms: C_26  and  C_27
REMARK                            x       y       z     vdW  Elec       q    Type
REMARK                         _______ _______ _______ _____ _____    ______ ____
ROOT
ATOM     16  C   UNL     1      -1.389   1.473  23.976  0.00  0.00    +0.203 A 
ATOM     17  N   UNL     1      -1.722   1.865  23.332  0.00  0.00    -0.056 NA
ATOM     18  O   UNL     1      -2.174   2.492  23.620  0.00  0.00    -0.336 OA
ATOM     19  C   UNL     1      -2.120   2.488  24.444  0.00  0.00    +0.251 A 
ATOM     20  N   UNL     1      -1.635   1.858  24.664  0.00  0.00    -0.190 NA
ENDROOT
BRANCH  16  12
ATOM     10  C   UNL     1       0.353   0.219  23.585  0.00  0.00    +0.132 A 
ATOM     11  C   UNL     1      -0.139   0.879  23.621  0.00  0.00    +0.037 A 
ATOM     12  C   UNL     1      -0.896   0.812  23.940  0.00  0.00    +0.043 A 
ATOM     13  C   UNL     1      -1.162   0.084  24.224  0.00  0.00    +0.024 A 
ATOM     14  C   UNL     1      -0.670  -0.577  24.188  0.00  0.00    +0.100 A 
ATOM     15  N   UNL     1       0.089  -0.510  23.868  0.00  0.00    -0.229 NA
BRANCH  10   7
ATOM      1  C   UNL     1       3.951   0.952  22.686  0.00  0.00    +0.095 C 
ATOM      2  C   UNL     1       3.385   0.486  22.309  0.00  0.00    +0.226 C 
ATOM      3  O   UNL     1       3.576   0.088  21.613  0.00  0.00    -0.275 OA
ATOM      4  N   UNL     1       2.627   0.420  22.629  0.00  0.00    -0.276 N 
ATOM      5  C   UNL     1       2.060  -0.046  22.251  0.00  0.00    +0.115 C 
ATOM      6  C   UNL     1       1.302  -0.114  22.570  0.00  0.00    +0.114 C 
ATOM      7  N   UNL     1       1.112   0.286  23.266  0.00  0.00    -0.290 N 
ATOM      8  C   UNL     1       1.679   0.752  23.643  0.00  0.00    +0.114 C 
ATOM      9  C   UNL     1       2.436   0.818  23.324  0.00  0.00    +0.115 C 
ENDBRANCH  10   7
ENDBRANCH  16  12
BRANCH  19  21
ATOM     21  C   UNL     1      -2.487   3.019  24.957  0.00  0.00    +0.138 C 
ATOM     22  C   UNL     1      -2.125   3.658  25.333  0.00  0.00    +0.027 C 
ATOM     23  C   UNL     1      -2.695   4.039  25.793  0.00  0.00    +0.019 C 
ATOM     24  C   UNL     1      -3.409   3.635  25.700  0.00  0.00    +0.073 C 
ATOM     25  N   UNL     1      -3.280   3.006  25.184  0.00  0.00    -0.263 NA
BRANCH  25  26
ATOM     26  C   UNL     1      -3.846   2.457  24.937  0.00  0.00    +0.099 C 
BRANCH  26  27
ATOM     27  C   UNL     1      -4.625   2.523  25.199  0.00  0.00    -0.010 A 
ATOM     28  C   UNL     1      -4.946   3.267  25.355  0.00  0.00    -0.003 A 
ATOM     29  C   UNL     1      -5.726   3.333  25.618  0.00  0.00    -0.000 A 
ATOM     30  C   UNL     1      -6.184   2.655  25.724  0.00  0.00    -0.000 A 
ATOM     31  C   UNL     1      -5.863   1.912  25.569  0.00  0.00    -0.005 A 
ATOM     32  C   UNL     1      -5.083   1.845  25.306  0.00  0.00    -0.024 A 
ATOM     33  C   UNL     1      -4.762   1.101  25.150  0.00  0.00    +0.031 C 
ENDBRANCH  26  27
ENDBRANCH  25  26
ENDBRANCH  19  21
TORSDOF 5
ENDMDL
