MODEL 1
REMARK VINA RESULT:     -10.4      0.000      0.000
REMARK  Name = 
REMARK  7 active torsions:
REMARK  status: ('A' for Active; 'I' for Inactive)
REMARK    1  A    between atoms: C_2  and  C_4
REMARK    2  A    between atoms: C_7  and  N_8
REMARK    3  A    between atoms: C_9  and  O_11
REMARK    4  A    between atoms: O_11  and  C_12
REMARK    5  A    between atoms: C_12  and  C_13
REMARK    6  A    between atoms: C_20  and  C_21
REMARK    7  A    between atoms: C_23  and  C_27
REMARK                            x       y       z     vdW  Elec       q    Type
REMARK                         _______ _______ _______ _____ _____    ______ ____
ROOT
ATOM     13  C   UNL     1      -0.199   0.458  23.510  0.00  0.00    +0.102 C 
ATOM     14  C   UNL     1      -0.765   0.938  23.273  0.00  0.00    +0.020 C 
ATOM     15  C   UNL     1      -1.521   0.950  23.562  0.00  0.00    +0.010 C 
ATOM     16  C   UNL     1      -2.022   1.576  23.159  0.00  0.00    +0.018 C 
ATOM     17  C   UNL     1      -1.478   1.231  23.274  0.00  0.00    +0.072 C 
ATOM     18  N   UNL     1      -0.972   0.478  23.798  0.00  0.00    -0.270 NA
ATOM     19  C   UNL     1      -1.397  -0.012  24.439  0.00  0.00    +0.078 C 
ATOM     20  C   UNL     1      -1.924   0.475  24.180  0.00  0.00    +0.056 C 
ENDROOT
BRANCH  20  21
ATOM     21  C   UNL     1      -2.709   0.540  24.429  0.00  0.00    +0.058 A 
ATOM     22  C   UNL     1      -3.107   1.243  24.594  0.00  0.00    +0.035 A 
ATOM     23  C   UNL     1      -3.876   1.052  24.823  0.00  0.00    +0.102 A 
ATOM     24  N   UNL     1      -3.952   0.231  24.799  0.00  0.00    -0.170 NA
ATOM     25  N   UNL     1      -3.230  -0.085  24.555  0.00  0.00    -0.253 N 
ATOM     26  C   UNL     1      -3.060  -0.886  24.455  0.00  0.00    +0.153 C 
BRANCH  23  27
ATOM     27  C   UNL     1      -4.466   1.587  25.039  0.00  0.00    +0.019 A 
ATOM     28  C   UNL     1      -4.288   2.390  25.106  0.00  0.00    +0.002 A 
ATOM     29  C   UNL     1      -4.878   2.926  25.322  0.00  0.00    +0.000 A 
ATOM     30  C   UNL     1      -5.644   2.658  25.470  0.00  0.00    +0.000 A 
ATOM     31  C   UNL     1      -6.234   3.193  25.685  0.00  0.00    +0.000 A 
ATOM     32  C   UNL     1      -6.057   3.997  25.753  0.00  0.00    +0.000 A 
ATOM     33  C   UNL     1      -5.291   4.264  25.604  0.00  0.00    +0.000 A 
ATOM     34  C   UNL     1      -4.702   3.729  25.389  0.00  0.00    +0.000 A 
ATOM     35  C   UNL     1      -5.822   1.855  25.403  0.00  0.00    +0.000 A 
ATOM     36  C   UNL     1      -5.232   1.319  25.187  0.00  0.00    +0.002 A 
ENDBRANCH  23  27
ENDBRANCH  20  21
BRANCH  13  12
ATOM     12  C   UNL     1       0.570   0.162  23.488  0.00  0.00    +0.226 C 
BRANCH  12  11
ATOM     11  O   UNL     1       1.118   0.471  22.953  0.00  0.00    -0.432 OA
BRANCH  11   9
ATOM      8  N   UNL     1       2.458   0.033  22.723  0.00  0.00    -0.142 NA
ATOM      9  C   UNL     1       1.919   0.492  23.146  0.00  0.00    +0.425 C 
ATOM     10  O   UNL     1       2.181   0.972  23.764  0.00  0.00    -0.224 OA
BRANCH   8   7
ATOM      4  C   UNL     1       4.862   0.096  23.304  0.00  0.00    -0.022 A 
ATOM      5  C   UNL     1       4.400  -0.548  23.531  0.00  0.00    -0.003 A 
ATOM      6  C   UNL     1       3.599  -0.569  23.337  0.00  0.00    +0.016 A 
ATOM      7  C   UNL     1       3.259   0.054  22.916  0.00  0.00    +0.077 A 
ATOM     37  C   UNL     1       3.722   0.698  22.690  0.00  0.00    +0.016 A 
ATOM     38  C   UNL     1       4.524   0.720  22.883  0.00  0.00    -0.003 A 
BRANCH   4   2
ATOM      1  C   UNL     1       5.917   0.543  24.158  0.00  0.00    +0.005 C 
ATOM      2  C   UNL     1       5.664   0.117  23.498  0.00  0.00    +0.022 C 
ATOM      3  C   UNL     1       6.212  -0.288  23.033  0.00  0.00    +0.005 C 
ENDBRANCH   4   2
ENDBRANCH   8   7
ENDBRANCH  11   9
ENDBRANCH  12  11
ENDBRANCH  13  12
TORSDOF 7
ENDMDL
MODEL 2
REMARK VINA RESULT:      -9.4      1.253      8.155
REMARK  Name = 
REMARK  7 active torsions:
REMARK  status: ('A' for Active; 'I' for Inactive)
REMARK    1  A    between atoms: C_2  and  C_4
REMARK    2  A    between atoms: C_7  and  N_8
REMARK    3  A    between atoms: C_9  and  O_11
REMARK    4  A    between atoms: O_11  and  C_12
REMARK    5  A    between atoms: C_12  and  C_13
REMARK    6  A    between atoms: C_20  and  C_21
REMARK    7  A    between atoms: C_23  and  C_27
REMARK                            x       y       z     vdW  Elec       q    Type
REMARK                         _______ _______ _______ _____ _____    ______ ____
ROOT
ATOM     13  C   UNL     1      -1.101   0.308  24.212  0.00  0.00    +0.102 C 
ATOM     14  C   UNL     1      -0.539   0.843  24.151  0.00  0.00    +0.020 C 
ATOM     15  C   UNL     1       0.177   0.733  23.787  0.00  0.00    +0.010 C 
ATOM     16  C   UNL     1       0.686   1.471  23.825  0.00  0.00    +0.018 C 
ATOM     17  C   UNL     1       0.152   1.109  23.935  0.00  0.00    +0.072 C 
ATOM     18  N   UNL     1      -0.369   0.206  23.843  0.00  0.00    -0.270 NA
ATOM     19  C   UNL     1       0.004  -0.509  23.415  0.00  0.00    +0.078 C 
ATOM     20  C   UNL     1       0.530   0.043  23.377  0.00  0.00    +0.056 C 
ENDROOT
BRANCH  20  21
ATOM     21  C   UNL     1       1.275  -0.001  23.024  0.00  0.00    +0.058 A 
ATOM     22  C   UNL     1       1.997   0.145  23.395  0.00  0.00    +0.035 A 
ATOM     23  C   UNL     1       2.596   0.038  22.838  0.00  0.00    +0.102 A 
ATOM     24  N   UNL     1       2.244  -0.176  22.124  0.00  0.00    -0.170 NA
ATOM     25  N   UNL     1       1.428  -0.200  22.239  0.00  0.00    -0.253 N 
ATOM     26  C   UNL     1       0.862  -0.389  21.668  0.00  0.00    +0.153 C 
BRANCH  23  27
ATOM     27  C   UNL     1       3.405   0.127  22.973  0.00  0.00    +0.019 A 
ATOM     28  C   UNL     1       3.814  -0.436  23.416  0.00  0.00    +0.002 A 
ATOM     29  C   UNL     1       4.624  -0.346  23.551  0.00  0.00    +0.000 A 
ATOM     30  C   UNL     1       5.023   0.306  23.242  0.00  0.00    +0.000 A 
ATOM     31  C   UNL     1       5.832   0.396  23.376  0.00  0.00    +0.000 A 
ATOM     32  C   UNL     1       6.242  -0.167  23.820  0.00  0.00    +0.000 A 
ATOM     33  C   UNL     1       5.842  -0.819  24.128  0.00  0.00    +0.000 A 
ATOM     34  C   UNL     1       5.033  -0.909  23.994  0.00  0.00    +0.000 A 
ATOM     35  C   UNL     1       4.614   0.870  22.799  0.00  0.00    +0.000 A 
ATOM     36  C   UNL     1       3.804   0.780  22.664  0.00  0.00    +0.002 A 
ENDBRANCH  23  27
ENDBRANCH  20  21
BRANCH  13  12
ATOM     12  C   UNL     1      -1.844   0.047  24.454  0.00  0.00    +0.226 C 
BRANCH  12  11
ATOM     11  O   UNL     1      -2.522   0.303  24.057  0.00  0.00    -0.432 OA
BRANCH  11   9
ATOM      8  N   UNL     1      -3.537   1.302  24.164  0.00  0.00    -0.142 NA
ATOM      9  C   UNL     1      -3.140   0.651  24.478  0.00  0.00    +0.425 C 
ATOM     10  O   UNL     1      -3.361   0.346  25.212  0.00  0.00    -0.224 OA
BRANCH   8   7
ATOM      4  C   UNL     1      -5.393   2.345  25.426  0.00  0.00    -0.022 A 
ATOM      5  C   UNL     1      -4.660   2.721  25.385  0.00  0.00    -0.003 A 
ATOM      6  C   UNL     1      -4.042   2.374  24.965  0.00  0.00    +0.016 A 
ATOM      7  C   UNL     1      -4.155   1.650  24.585  0.00  0.00    +0.077 A 
ATOM     37  C   UNL     1      -4.889   1.274  24.627  0.00  0.00    +0.016 A 
ATOM     38  C   UNL     1      -5.508   1.621  25.047  0.00  0.00    -0.003 A 
BRANCH   4   2
ATOM      1  C   UNL     1      -6.489   2.230  26.336  0.00  0.00    +0.005 C 
ATOM      2  C   UNL     1      -6.012   2.693  25.847  0.00  0.00    +0.022 C 
ATOM      3  C   UNL     1      -6.153   3.503  25.779  0.00  0.00    +0.005 C 
ENDBRANCH   4   2
ENDBRANCH   8   7
ENDBRANCH  11   9
ENDBRANCH  12  11
ENDBRANCH  13  12
TORSDOF 7
ENDMDL
MODEL 3
REMARK VINA RESULT:      -8.0     17.025     18.380
REMARK  Name = 
REMARK  7 active torsions:
REMARK  status: ('A' for Active; 'I' for Inactive)
REMARK    1  A    between atoms: C_2  and  C_4
REMARK    2  A    between atoms: C_7  and  N_8
REMARK    3  A    between atoms: C_9  and  O_11
REMARK    4  A    between atoms: O_11  and  C_12
REMARK    5  A    between atoms: C_12  and  C_13
REMARK    6  A    between atoms: C_20  and  C_21
REMARK    7  A    between atoms: C_23  and  C_27
REMARK                            x       y       z     vdW  Elec       q    Type
REMARK                         _______ _______ _______ _____ _____    ______ ____
ROOT
ATOM     13  C   UNL     1      16.614  -6.136  26.330  0.00  0.00    +0.102 C 
ATOM     14  C   UNL     1      16.045  -6.657  26.438  0.00  0.00    +0.020 C 
ATOM     15  C   UNL     1      15.756  -6.895  27.157  0.00  0.00    +0.010 C 
ATOM     16  C   UNL     1      15.103  -7.503  27.068  0.00  0.00    +0.018 C 
ATOM     17  C   UNL     1      15.562  -7.087  26.858  0.00  0.00    +0.072 C 
ATOM     18  N   UNL     1      16.313  -6.385  27.057  0.00  0.00    -0.270 NA
ATOM     19  C   UNL     1      16.524  -6.156  27.915  0.00  0.00    +0.078 C 
ATOM     20  C   UNL     1      15.964  -6.671  27.979  0.00  0.00    +0.056 C 
ENDROOT
BRANCH  20  21
ATOM     21  C   UNL     1      15.626  -6.956  28.676  0.00  0.00    +0.058 A 
ATOM     22  C   UNL     1      14.837  -6.871  28.901  0.00  0.00    +0.035 A 
ATOM     23  C   UNL     1      14.741  -7.238  29.633  0.00  0.00    +0.102 A 
ATOM     24  N   UNL     1      15.470  -7.550  29.859  0.00  0.00    -0.170 NA
ATOM     25  N   UNL     1      16.016  -7.376  29.267  0.00  0.00    -0.253 N 
ATOM     26  C   UNL     1      16.815  -7.584  29.267  0.00  0.00    +0.153 C 
BRANCH  23  27
ATOM     27  C   UNL     1      14.038  -7.286  30.063  0.00  0.00    +0.019 A 
ATOM     28  C   UNL     1      13.701  -6.601  30.377  0.00  0.00    +0.002 A 
ATOM     29  C   UNL     1      12.997  -6.648  30.808  0.00  0.00    +0.000 A 
ATOM     30  C   UNL     1      12.634  -7.380  30.924  0.00  0.00    +0.000 A 
ATOM     31  C   UNL     1      11.931  -7.427  31.354  0.00  0.00    +0.000 A 
ATOM     32  C   UNL     1      11.593  -6.743  31.669  0.00  0.00    +0.000 A 
ATOM     33  C   UNL     1      11.957  -6.012  31.552  0.00  0.00    +0.000 A 
ATOM     34  C   UNL     1      12.660  -5.965  31.122  0.00  0.00    +0.000 A 
ATOM     35  C   UNL     1      12.971  -8.064  30.610  0.00  0.00    +0.000 A 
ATOM     36  C   UNL     1      13.674  -8.017  30.179  0.00  0.00    +0.002 A 
ENDBRANCH  23  27
ENDBRANCH  20  21
BRANCH  13  12
ATOM     12  C   UNL     1      17.119  -5.688  25.858  0.00  0.00    +0.226 C 
BRANCH  12  11
ATOM     11  O   UNL     1      17.159  -4.869  25.956  0.00  0.00    -0.432 OA
BRANCH  11   9
ATOM      8  N   UNL     1      16.810  -3.613  25.372  0.00  0.00    -0.142 NA
ATOM      9  C   UNL     1      17.124  -4.372  25.299  0.00  0.00    +0.425 C 
ATOM     10  O   UNL     1      17.405  -4.634  24.569  0.00  0.00    -0.224 OA
BRANCH   8   7
ATOM      4  C   UNL     1      16.706  -2.122  23.400  0.00  0.00    -0.022 A 
ATOM      5  C   UNL     1      17.369  -2.112  23.890  0.00  0.00    -0.003 A 
ATOM      6  C   UNL     1      17.404  -2.609  24.547  0.00  0.00    +0.016 A 
ATOM      7  C   UNL     1      16.775  -3.116  24.715  0.00  0.00    +0.077 A 
ATOM     37  C   UNL     1      16.112  -3.126  24.224  0.00  0.00    +0.016 A 
ATOM     38  C   UNL     1      16.076  -2.629  23.566  0.00  0.00    -0.003 A 
BRANCH   4   2
ATOM      1  C   UNL     1      15.940  -1.384  22.445  0.00  0.00    +0.005 C 
ATOM      2  C   UNL     1      16.672  -1.624  22.742  0.00  0.00    +0.022 C 
ATOM      3  C   UNL     1      17.368  -1.367  22.382  0.00  0.00    +0.005 C 
ENDBRANCH   4   2
ENDBRANCH   8   7
ENDBRANCH  11   9
ENDBRANCH  12  11
ENDBRANCH  13  12
TORSDOF 7
ENDMDL
MODEL 4
REMARK VINA RESULT:      -7.7     17.286     19.347
REMARK  Name = 
REMARK  7 active torsions:
REMARK  status: ('A' for Active; 'I' for Inactive)
REMARK    1  A    between atoms: C_2  and  C_4
REMARK    2  A    between atoms: C_7  and  N_8
REMARK    3  A    between atoms: C_9  and  O_11
REMARK    4  A    between atoms: O_11  and  C_12
REMARK    5  A    between atoms: C_12  and  C_13
REMARK    6  A    between atoms: C_20  and  C_21
REMARK    7  A    between atoms: C_23  and  C_27
REMARK                            x       y       z     vdW  Elec       q    Type
REMARK                         _______ _______ _______ _____ _____    ______ ____
ROOT
ATOM     13  C   UNL     1      16.007  -6.960  27.728  0.00  0.00    +0.102 C 
ATOM     14  C   UNL     1      16.541  -6.406  27.610  0.00  0.00    +0.020 C 
ATOM     15  C   UNL     1      16.763  -6.113  26.888  0.00  0.00    +0.010 C 
ATOM     16  C   UNL     1      17.392  -5.479  26.965  0.00  0.00    +0.018 C 
ATOM     17  C   UNL     1      16.971  -5.928  27.183  0.00  0.00    +0.072 C 
ATOM     18  N   UNL     1      16.240  -6.656  26.997  0.00  0.00    -0.270 NA
ATOM     19  C   UNL     1      15.976  -6.846  26.144  0.00  0.00    +0.078 C 
ATOM     20  C   UNL     1      16.505  -6.301  26.071  0.00  0.00    +0.056 C 
ENDROOT
BRANCH  20  21
ATOM     21  C   UNL     1      16.776  -5.960  25.370  0.00  0.00    +0.058 A 
ATOM     22  C   UNL     1      16.687  -5.171  25.149  0.00  0.00    +0.035 A 
ATOM     23  C   UNL     1      17.040  -5.071  24.410  0.00  0.00    +0.102 A 
ATOM     24  N   UNL     1      17.348  -5.799  24.176  0.00  0.00    -0.170 NA
ATOM     25  N   UNL     1      17.185  -6.348  24.769  0.00  0.00    -0.253 N 
ATOM     26  C   UNL     1      17.394  -7.147  24.763  0.00  0.00    +0.153 C 
BRANCH  23  27
ATOM     27  C   UNL     1      17.078  -4.368  23.981  0.00  0.00    +0.019 A 
ATOM     28  C   UNL     1      16.828  -3.661  24.326  0.00  0.00    +0.002 A 
ATOM     29  C   UNL     1      16.866  -2.956  23.897  0.00  0.00    +0.000 A 
ATOM     30  C   UNL     1      17.155  -2.960  23.124  0.00  0.00    +0.000 A 
ATOM     31  C   UNL     1      17.193  -2.256  22.695  0.00  0.00    +0.000 A 
ATOM     32  C   UNL     1      16.943  -1.549  23.040  0.00  0.00    +0.000 A 
ATOM     33  C   UNL     1      16.655  -1.546  23.812  0.00  0.00    +0.000 A 
ATOM     34  C   UNL     1      16.616  -2.250  24.241  0.00  0.00    +0.000 A 
ATOM     35  C   UNL     1      17.405  -3.667  22.779  0.00  0.00    +0.000 A 
ATOM     36  C   UNL     1      17.367  -4.371  23.208  0.00  0.00    +0.002 A 
ENDBRANCH  23  27
ENDBRANCH  20  21
BRANCH  13  12
ATOM     12  C   UNL     1      15.560  -7.460  28.207  0.00  0.00    +0.226 C 
BRANCH  12  11
ATOM     11  O   UNL     1      15.557  -7.354  29.026  0.00  0.00    -0.432 OA
BRANCH  11   9
ATOM      8  N   UNL     1      14.785  -7.063  30.192  0.00  0.00    -0.142 NA
ATOM      9  C   UNL     1      14.850  -7.410  29.446  0.00  0.00    +0.425 C 
ATOM     10  O   UNL     1      14.208  -7.814  29.121  0.00  0.00    -0.224 OA
BRANCH   8   7
ATOM      4  C   UNL     1      12.663  -7.231  31.454  0.00  0.00    -0.022 A 
ATOM      5  C   UNL     1      12.813  -6.568  30.986  0.00  0.00    -0.003 A 
ATOM      6  C   UNL     1      13.520  -6.512  30.566  0.00  0.00    +0.016 A 
ATOM      7  C   UNL     1      14.078  -7.119  30.612  0.00  0.00    +0.077 A 
ATOM     37  C   UNL     1      13.927  -7.781  31.080  0.00  0.00    +0.016 A 
ATOM     38  C   UNL     1      13.220  -7.838  31.502  0.00  0.00    -0.003 A 
BRANCH   4   2
ATOM      1  C   UNL     1      11.305  -7.668  31.539  0.00  0.00    +0.005 C 
ATOM      2  C   UNL     1      11.955  -7.287  31.875  0.00  0.00    +0.022 C 
ATOM      3  C   UNL     1      11.898  -6.962  32.631  0.00  0.00    +0.005 C 
ENDBRANCH   4   2
ENDBRANCH   8   7
ENDBRANCH  11   9
ENDBRANCH  12  11
ENDBRANCH  13  12
TORSDOF 7
ENDMDL
MODEL 5
REMARK VINA RESULT:      -7.4     15.401     18.521
REMARK  Name = 
REMARK  7 active torsions:
REMARK  status: ('A' for Active; 'I' for Inactive)
REMARK    1  A    between atoms: C_2  and  C_4
REMARK    2  A    between atoms: C_7  and  N_8
REMARK    3  A    between atoms: C_9  and  O_11
REMARK    4  A    between atoms: O_11  and  C_12
REMARK    5  A    between atoms: C_12  and  C_13
REMARK    6  A    between atoms: C_20  and  C_21
REMARK    7  A    between atoms: C_23  and  C_27
REMARK                            x       y       z     vdW  Elec       q    Type
REMARK                         _______ _______ _______ _____ _____    ______ ____
ROOT
ATOM     13  C   UNL     1      12.287  -7.235  31.780  0.00  0.00    +0.102 C 
ATOM     14  C   UNL     1      12.948  -7.061  32.153  0.00  0.00    +0.020 C 
ATOM     15  C   UNL     1      13.505  -6.530  31.900  0.00  0.00    +0.010 C 
ATOM     16  C   UNL     1      14.193  -6.471  32.471  0.00  0.00    +0.018 C 
ATOM     17  C   UNL     1      13.619  -6.693  32.252  0.00  0.00    +0.072 C 
ATOM     18  N   UNL     1      12.860  -6.697  31.530  0.00  0.00    -0.270 NA
ATOM     19  C   UNL     1      12.915  -6.163  30.791  0.00  0.00    +0.078 C 
ATOM     20  C   UNL     1      13.551  -6.020  31.188  0.00  0.00    +0.056 C 
ENDROOT
BRANCH  20  21
ATOM     21  C   UNL     1      14.156  -5.494  30.988  0.00  0.00    +0.058 A 
ATOM     22  C   UNL     1      14.352  -4.804  31.394  0.00  0.00    +0.035 A 
ATOM     23  C   UNL     1      14.987  -4.451  31.004  0.00  0.00    +0.102 A 
ATOM     24  N   UNL     1      15.183  -4.923  30.357  0.00  0.00    -0.170 NA
ATOM     25  N   UNL     1      14.669  -5.568  30.347  0.00  0.00    -0.253 N 
ATOM     26  C   UNL     1      14.669  -6.180  29.793  0.00  0.00    +0.153 C 
BRANCH  23  27
ATOM     27  C   UNL     1      15.361  -3.749  31.223  0.00  0.00    +0.019 A 
ATOM     28  C   UNL     1      15.801  -3.326  30.667  0.00  0.00    +0.002 A 
ATOM     29  C   UNL     1      16.175  -2.623  30.886  0.00  0.00    +0.000 A 
ATOM     30  C   UNL     1      16.109  -2.344  31.660  0.00  0.00    +0.000 A 
ATOM     31  C   UNL     1      16.482  -1.642  31.879  0.00  0.00    +0.000 A 
ATOM     32  C   UNL     1      16.923  -1.218  31.324  0.00  0.00    +0.000 A 
ATOM     33  C   UNL     1      16.989  -1.498  30.551  0.00  0.00    +0.000 A 
ATOM     34  C   UNL     1      16.615  -2.200  30.332  0.00  0.00    +0.000 A 
ATOM     35  C   UNL     1      15.668  -2.767  32.216  0.00  0.00    +0.000 A 
ATOM     36  C   UNL     1      15.294  -3.470  31.997  0.00  0.00    +0.002 A 
ENDBRANCH  23  27
ENDBRANCH  20  21
BRANCH  13  12
ATOM     12  C   UNL     1      11.574  -7.641  31.699  0.00  0.00    +0.226 C 
BRANCH  12  11
ATOM     11  O   UNL     1      11.051  -7.690  32.336  0.00  0.00    -0.432 OA
BRANCH  11   9
ATOM      8  N   UNL     1       9.795  -8.106  32.873  0.00  0.00    -0.142 NA
ATOM      9  C   UNL     1      10.295  -7.998  32.226  0.00  0.00    +0.425 C 
ATOM     10  O   UNL     1      10.037  -8.198  31.468  0.00  0.00    -0.224 OA
BRANCH   8   7
ATOM      4  C   UNL     1       7.523  -9.030  32.544  0.00  0.00    -0.022 A 
ATOM      5  C   UNL     1       8.144  -9.529  32.760  0.00  0.00    -0.003 A 
ATOM      6  C   UNL     1       8.901  -9.221  32.870  0.00  0.00    +0.016 A 
ATOM      7  C   UNL     1       9.038  -8.414  32.763  0.00  0.00    +0.077 A 
ATOM     37  C   UNL     1       8.417  -7.916  32.547  0.00  0.00    +0.016 A 
ATOM     38  C   UNL     1       7.659  -8.223  32.437  0.00  0.00    -0.003 A 
BRANCH   4   2
ATOM      1  C   UNL     1       6.128  -8.830  32.311  0.00  0.00    +0.005 C 
ATOM      2  C   UNL     1       6.766  -9.339  32.434  0.00  0.00    +0.022 C 
ATOM      3  C   UNL     1       6.646 -10.155  32.447  0.00  0.00    +0.005 C 
ENDBRANCH   4   2
ENDBRANCH   8   7
ENDBRANCH  11   9
ENDBRANCH  12  11
ENDBRANCH  13  12
TORSDOF 7
ENDMDL
MODEL 6
REMARK VINA RESULT:      -7.3     14.617     18.640
REMARK  Name = 
REMARK  7 active torsions:
REMARK  status: ('A' for Active; 'I' for Inactive)
REMARK    1  A    between atoms: C_2  and  C_4
REMARK    2  A    between atoms: C_7  and  N_8
REMARK    3  A    between atoms: C_9  and  O_11
REMARK    4  A    between atoms: O_11  and  C_12
REMARK    5  A    between atoms: C_12  and  C_13
REMARK    6  A    between atoms: C_20  and  C_21
REMARK    7  A    between atoms: C_23  and  C_27
REMARK                            x       y       z     vdW  Elec       q    Type
REMARK                         _______ _______ _______ _____ _____    ______ ____
ROOT
ATOM     13  C   UNL     1      12.158  -7.415  31.560  0.00  0.00    +0.102 C 
ATOM     14  C   UNL     1      12.790  -7.809  31.333  0.00  0.00    +0.020 C 
ATOM     15  C   UNL     1      13.387  -7.515  30.872  0.00  0.00    +0.010 C 
ATOM     16  C   UNL     1      14.025  -8.127  30.721  0.00  0.00    +0.018 C 
ATOM     17  C   UNL     1      13.464  -7.900  30.969  0.00  0.00    +0.072 C 
ATOM     18  N   UNL     1      12.772  -7.123  31.091  0.00  0.00    -0.270 NA
ATOM     19  C   UNL     1      12.912  -6.307  30.708  0.00  0.00    +0.078 C 
ATOM     20  C   UNL     1      13.516  -6.728  30.507  0.00  0.00    +0.056 C 
ENDROOT
BRANCH  20  21
ATOM     21  C   UNL     1      14.157  -6.491  30.042  0.00  0.00    +0.058 A 
ATOM     22  C   UNL     1      14.420  -6.863  29.355  0.00  0.00    +0.035 A 
ATOM     23  C   UNL     1      15.071  -6.443  29.072  0.00  0.00    +0.102 A 
ATOM     24  N   UNL     1      15.210  -5.812  29.585  0.00  0.00    -0.170 NA
ATOM     25  N   UNL     1      14.644  -5.842  30.184  0.00  0.00    -0.253 N 
ATOM     26  C   UNL     1      14.578  -5.315  30.816  0.00  0.00    +0.153 C 
BRANCH  23  27
ATOM     27  C   UNL     1      15.508  -6.622  28.395  0.00  0.00    +0.019 A 
ATOM     28  C   UNL     1      15.154  -7.036  27.775  0.00  0.00    +0.002 A 
ATOM     29  C   UNL     1      15.591  -7.216  27.097  0.00  0.00    +0.000 A 
ATOM     30  C   UNL     1      16.380  -6.982  27.042  0.00  0.00    +0.000 A 
ATOM     31  C   UNL     1      16.816  -7.161  26.365  0.00  0.00    +0.000 A 
ATOM     32  C   UNL     1      16.463  -7.575  25.744  0.00  0.00    +0.000 A 
ATOM     33  C   UNL     1      15.674  -7.808  25.800  0.00  0.00    +0.000 A 
ATOM     34  C   UNL     1      15.238  -7.629  26.477  0.00  0.00    +0.000 A 
ATOM     35  C   UNL     1      16.734  -6.568  27.662  0.00  0.00    +0.000 A 
ATOM     36  C   UNL     1      16.297  -6.388  28.340  0.00  0.00    +0.002 A 
ENDBRANCH  23  27
ENDBRANCH  20  21
BRANCH  13  12
ATOM     12  C   UNL     1      11.440  -7.344  31.958  0.00  0.00    +0.226 C 
BRANCH  12  11
ATOM     11  O   UNL     1      10.989  -8.017  32.121  0.00  0.00    -0.432 OA
BRANCH  11   9
ATOM      8  N   UNL     1       9.697  -8.614  32.002  0.00  0.00    -0.142 NA
ATOM      9  C   UNL     1      10.169  -7.960  32.178  0.00  0.00    +0.425 C 
ATOM     10  O   UNL     1       9.819  -7.250  32.411  0.00  0.00    -0.224 OA
BRANCH   8   7
ATOM      4  C   UNL     1       7.234  -8.445  32.173  0.00  0.00    -0.022 A 
ATOM      5  C   UNL     1       7.591  -8.542  31.435  0.00  0.00    -0.003 A 
ATOM      6  C   UNL     1       8.411  -8.598  31.378  0.00  0.00    +0.016 A 
ATOM      7  C   UNL     1       8.877  -8.557  32.059  0.00  0.00    +0.077 A 
ATOM     37  C   UNL     1       8.519  -8.460  32.796  0.00  0.00    +0.016 A 
ATOM     38  C   UNL     1       7.698  -8.404  32.854  0.00  0.00    -0.003 A 
BRANCH   4   2
ATOM      1  C   UNL     1       5.985  -8.000  31.640  0.00  0.00    +0.005 C 
ATOM      2  C   UNL     1       6.413  -8.389  32.229  0.00  0.00    +0.022 C 
ATOM      3  C   UNL     1       6.019  -8.721  32.873  0.00  0.00    +0.005 C 
ENDBRANCH   4   2
ENDBRANCH   8   7
ENDBRANCH  11   9
ENDBRANCH  12  11
ENDBRANCH  13  12
TORSDOF 7
ENDMDL
MODEL 7
REMARK VINA RESULT:      -6.8     17.358     18.236
REMARK  Name = 
REMARK  7 active torsions:
REMARK  status: ('A' for Active; 'I' for Inactive)
REMARK    1  A    between atoms: C_2  and  C_4
REMARK    2  A    between atoms: C_7  and  N_8
REMARK    3  A    between atoms: C_9  and  O_11
REMARK    4  A    between atoms: O_11  and  C_12
REMARK    5  A    between atoms: C_12  and  C_13
REMARK    6  A    between atoms: C_20  and  C_21
REMARK    7  A    between atoms: C_23  and  C_27
REMARK                            x       y       z     vdW  Elec       q    Type
REMARK                         _______ _______ _______ _____ _____    ______ ____
ROOT
ATOM     13  C   UNL     1      -5.929 -10.148   9.773  0.00  0.00    +0.102 C 
ATOM     14  C   UNL     1      -6.514  -9.888  10.216  0.00  0.00    +0.020 C 
ATOM     15  C   UNL     1      -7.175  -9.506   9.944  0.00  0.00    +0.010 C 
ATOM     16  C   UNL     1      -7.732  -9.287  10.612  0.00  0.00    +0.018 C 
ATOM     17  C   UNL     1      -7.192  -9.543  10.347  0.00  0.00    +0.072 C 
ATOM     18  N   UNL     1      -6.605  -9.758   9.506  0.00  0.00    -0.270 NA
ATOM     19  C   UNL     1      -6.880  -9.515   8.670  0.00  0.00    +0.078 C 
ATOM     20  C   UNL     1      -7.433  -9.275   9.138  0.00  0.00    +0.056 C 
ENDROOT
BRANCH  20  21
ATOM     21  C   UNL     1      -8.128  -8.882   8.929  0.00  0.00    +0.058 A 
ATOM     22  C   UNL     1      -8.330  -8.111   9.138  0.00  0.00    +0.035 A 
ATOM     23  C   UNL     1      -9.069  -7.944   8.813  0.00  0.00    +0.102 A 
ATOM     24  N   UNL     1      -9.323  -8.612   8.401  0.00  0.00    -0.170 NA
ATOM     25  N   UNL     1      -8.741  -9.192   8.473  0.00  0.00    -0.253 N 
ATOM     26  C   UNL     1      -8.768  -9.949   8.146  0.00  0.00    +0.153 C 
BRANCH  23  27
ATOM     27  C   UNL     1      -9.482  -7.233   8.885  0.00  0.00    +0.019 A 
ATOM     28  C   UNL     1      -9.123  -6.524   8.663  0.00  0.00    +0.002 A 
ATOM     29  C   UNL     1      -9.536  -5.812   8.735  0.00  0.00    +0.000 A 
ATOM     30  C   UNL     1     -10.307  -5.812   9.030  0.00  0.00    +0.000 A 
ATOM     31  C   UNL     1     -10.720  -5.101   9.103  0.00  0.00    +0.000 A 
ATOM     32  C   UNL     1     -10.361  -4.391   8.881  0.00  0.00    +0.000 A 
ATOM     33  C   UNL     1      -9.591  -4.393   8.586  0.00  0.00    +0.000 A 
ATOM     34  C   UNL     1      -9.178  -5.104   8.513  0.00  0.00    +0.000 A 
ATOM     35  C   UNL     1     -10.665  -6.521   9.253  0.00  0.00    +0.000 A 
ATOM     36  C   UNL     1     -10.252  -7.232   9.180  0.00  0.00    +0.002 A 
ENDBRANCH  23  27
ENDBRANCH  20  21
BRANCH  13  12
ATOM     12  C   UNL     1      -5.202 -10.520   9.661  0.00  0.00    +0.226 C 
BRANCH  12  11
ATOM     11  O   UNL     1      -4.726 -10.703  10.310  0.00  0.00    -0.432 OA
BRANCH  11   9
ATOM      8  N   UNL     1      -3.627 -10.226  11.087  0.00  0.00    -0.142 NA
ATOM      9  C   UNL     1      -3.957 -10.409  10.354  0.00  0.00    +0.425 C 
ATOM     10  O   UNL     1      -3.518 -10.298   9.664  0.00  0.00    -0.224 OA
BRANCH   8   7
ATOM      4  C   UNL     1      -1.319  -9.343  11.219  0.00  0.00    -0.022 A 
ATOM      5  C   UNL     1      -1.515 -10.044  11.608  0.00  0.00    -0.003 A 
ATOM      6  C   UNL     1      -2.284 -10.338  11.564  0.00  0.00    +0.016 A 
ATOM      7  C   UNL     1      -2.858  -9.932  11.131  0.00  0.00    +0.077 A 
ATOM     37  C   UNL     1      -2.661  -9.232  10.742  0.00  0.00    +0.016 A 
ATOM     38  C   UNL     1      -1.891  -8.937  10.786  0.00  0.00    -0.003 A 
BRANCH   4   2
ATOM      1  C   UNL     1      -0.120  -8.913  10.572  0.00  0.00    +0.005 C 
ATOM      2  C   UNL     1      -0.549  -9.050  11.263  0.00  0.00    +0.022 C 
ATOM      3  C   UNL     1      -0.208  -8.893  11.998  0.00  0.00    +0.005 C 
ENDBRANCH   4   2
ENDBRANCH   8   7
ENDBRANCH  11   9
ENDBRANCH  12  11
ENDBRANCH  13  12
TORSDOF 7
ENDMDL
MODEL 8
REMARK VINA RESULT:      -6.8     14.069     14.989
REMARK  Name = 
REMARK  7 active torsions:
REMARK  status: ('A' for Active; 'I' for Inactive)
REMARK    1  A    between atoms: C_2  and  C_4
REMARK    2  A    between atoms: C_7  and  N_8
REMARK    3  A    between atoms: C_9  and  O_11
REMARK    4  A    between atoms: O_11  and  C_12
REMARK    5  A    between atoms: C_12  and  C_13
REMARK    6  A    between atoms: C_20  and  C_21
REMARK    7  A    between atoms: C_23  and  C_27
REMARK                            x       y       z     vdW  Elec       q    Type
REMARK                         _______ _______ _______ _____ _____    ______ ____
ROOT
ATOM     13  C   UNL     1      -4.229 -10.713  14.595  0.00  0.00    +0.102 C 
ATOM     14  C   UNL     1      -5.003 -10.775  14.552  0.00  0.00    +0.020 C 
ATOM     15  C   UNL     1      -5.521 -10.638  15.161  0.00  0.00    +0.010 C 
ATOM     16  C   UNL     1      -6.372 -10.763  14.909  0.00  0.00    +0.018 C 
ATOM     17  C   UNL     1      -5.724 -10.744  14.827  0.00  0.00    +0.072 C 
ATOM     18  N   UNL     1      -4.763 -10.576  15.209  0.00  0.00    -0.270 NA
ATOM     19  C   UNL     1      -4.643 -10.325  16.078  0.00  0.00    +0.078 C 
ATOM     20  C   UNL     1      -5.398 -10.396  15.995  0.00  0.00    +0.056 C 
ENDROOT
BRANCH  20  21
ATOM     21  C   UNL     1      -5.977 -10.273  16.570  0.00  0.00    +0.058 A 
ATOM     22  C   UNL     1      -6.769 -10.092  16.429  0.00  0.00    +0.035 A 
ATOM     23  C   UNL     1      -7.147 -10.016  17.158  0.00  0.00    +0.102 A 
ATOM     24  N   UNL     1      -6.588 -10.149  17.749  0.00  0.00    -0.170 NA
ATOM     25  N   UNL     1      -5.866 -10.308  17.385  0.00  0.00    -0.253 N 
ATOM     26  C   UNL     1      -5.154 -10.473  17.771  0.00  0.00    +0.153 C 
BRANCH  23  27
ATOM     27  C   UNL     1      -7.944  -9.837  17.275  0.00  0.00    +0.019 A 
ATOM     28  C   UNL     1      -8.206  -9.058  17.205  0.00  0.00    +0.002 A 
ATOM     29  C   UNL     1      -9.004  -8.879  17.322  0.00  0.00    +0.000 A 
ATOM     30  C   UNL     1      -9.538  -9.480  17.509  0.00  0.00    +0.000 A 
ATOM     31  C   UNL     1     -10.335  -9.301  17.626  0.00  0.00    +0.000 A 
ATOM     32  C   UNL     1     -10.598  -8.522  17.556  0.00  0.00    +0.000 A 
ATOM     33  C   UNL     1     -10.063  -7.922  17.370  0.00  0.00    +0.000 A 
ATOM     34  C   UNL     1      -9.266  -8.101  17.253  0.00  0.00    +0.000 A 
ATOM     35  C   UNL     1      -9.276 -10.259  17.578  0.00  0.00    +0.000 A 
ATOM     36  C   UNL     1      -8.478 -10.438  17.461  0.00  0.00    +0.002 A 
ENDBRANCH  23  27
ENDBRANCH  20  21
BRANCH  13  12
ATOM     12  C   UNL     1      -3.469 -10.754  14.277  0.00  0.00    +0.226 C 
BRANCH  12  11
ATOM     11  O   UNL     1      -3.362 -10.724  13.459  0.00  0.00    -0.432 OA
BRANCH  11   9
ATOM      8  N   UNL     1      -2.587 -10.329  12.326  0.00  0.00    -0.142 NA
ATOM      9  C   UNL     1      -2.695 -10.356  13.143  0.00  0.00    +0.425 C 
ATOM     10  O   UNL     1      -2.136 -10.015  13.645  0.00  0.00    -0.224 OA
BRANCH   8   7
ATOM      4  C   UNL     1      -0.586  -9.224  11.378  0.00  0.00    -0.022 A 
ATOM      5  C   UNL     1      -1.330  -9.081  11.050  0.00  0.00    -0.003 A 
ATOM      6  C   UNL     1      -1.997  -9.449  11.366  0.00  0.00    +0.016 A 
ATOM      7  C   UNL     1      -1.921  -9.961  12.010  0.00  0.00    +0.077 A 
ATOM     37  C   UNL     1      -1.176 -10.103  12.337  0.00  0.00    +0.016 A 
ATOM     38  C   UNL     1      -0.509  -9.735  12.021  0.00  0.00    -0.003 A 
BRANCH   4   2
ATOM      1  C   UNL     1       0.277  -8.088  11.294  0.00  0.00    +0.005 C 
ATOM      2  C   UNL     1       0.081  -8.855  11.061  0.00  0.00    +0.022 C 
ATOM      3  C   UNL     1       0.551  -9.252  10.513  0.00  0.00    +0.005 C 
ENDBRANCH   4   2
ENDBRANCH   8   7
ENDBRANCH  11   9
ENDBRANCH  12  11
ENDBRANCH  13  12
TORSDOF 7
ENDMDL
MODEL 9
REMARK VINA RESULT:      -6.6     16.344     17.250
REMARK  Name = 
REMARK  7 active torsions:
REMARK  status: ('A' for Active; 'I' for Inactive)
REMARK    1  A    between atoms: C_2  and  C_4
REMARK    2  A    between atoms: C_7  and  N_8
REMARK    3  A    between atoms: C_9  and  O_11
REMARK    4  A    between atoms: O_11  and  C_12
REMARK    5  A    between atoms: C_12  and  C_13
REMARK    6  A    between atoms: C_20  and  C_21
REMARK    7  A    between atoms: C_23  and  C_27
REMARK                            x       y       z     vdW  Elec       q    Type
REMARK                         _______ _______ _______ _____ _____    ______ ____
ROOT
ATOM     13  C   UNL     1      -2.777  -9.481  10.485  0.00  0.00    +0.102 C 
ATOM     14  C   UNL     1      -3.483  -9.622  10.781  0.00  0.00    +0.020 C 
ATOM     15  C   UNL     1      -4.184  -9.548  10.380  0.00  0.00    +0.010 C 
ATOM     16  C   UNL     1      -4.886  -9.757  10.897  0.00  0.00    +0.018 C 
ATOM     17  C   UNL     1      -4.253  -9.670  10.760  0.00  0.00    +0.072 C 
ATOM     18  N   UNL     1      -3.496  -9.409  10.085  0.00  0.00    -0.270 NA
ATOM     19  C   UNL     1      -3.696  -9.160   9.230  0.00  0.00    +0.078 C 
ATOM     20  C   UNL     1      -4.369  -9.308   9.557  0.00  0.00    +0.056 C 
ENDROOT
BRANCH  20  21
ATOM     21  C   UNL     1      -5.116  -9.254   9.209  0.00  0.00    +0.058 A 
ATOM     22  C   UNL     1      -5.717  -8.734   9.429  0.00  0.00    +0.035 A 
ATOM     23  C   UNL     1      -6.364  -8.869   8.936  0.00  0.00    +0.102 A 
ATOM     24  N   UNL     1      -6.162  -9.473   8.411  0.00  0.00    -0.170 NA
ATOM     25  N   UNL     1      -5.391  -9.710   8.580  0.00  0.00    -0.253 N 
ATOM     26  C   UNL     1      -4.969 -10.302   8.189  0.00  0.00    +0.153 C 
BRANCH  23  27
ATOM     27  C   UNL     1      -7.086  -8.470   8.962  0.00  0.00    +0.019 A 
ATOM     28  C   UNL     1      -7.189  -7.775   8.529  0.00  0.00    +0.002 A 
ATOM     29  C   UNL     1      -7.911  -7.376   8.556  0.00  0.00    +0.000 A 
ATOM     30  C   UNL     1      -8.529  -7.673   9.015  0.00  0.00    +0.000 A 
ATOM     31  C   UNL     1      -9.251  -7.274   9.042  0.00  0.00    +0.000 A 
ATOM     32  C   UNL     1      -9.355  -6.579   8.609  0.00  0.00    +0.000 A 
ATOM     33  C   UNL     1      -8.737  -6.283   8.150  0.00  0.00    +0.000 A 
ATOM     34  C   UNL     1      -8.015  -6.682   8.124  0.00  0.00    +0.000 A 
ATOM     35  C   UNL     1      -8.426  -8.368   9.448  0.00  0.00    +0.000 A 
ATOM     36  C   UNL     1      -7.703  -8.767   9.422  0.00  0.00    +0.002 A 
ENDBRANCH  23  27
ENDBRANCH  20  21
BRANCH  13  12
ATOM     12  C   UNL     1      -1.955  -9.437  10.534  0.00  0.00    +0.226 C 
BRANCH  12  11
ATOM     11  O   UNL     1      -1.592  -9.262  11.254  0.00  0.00    -0.432 OA
BRANCH  11   9
ATOM      8  N   UNL     1      -0.594  -8.554  11.990  0.00  0.00    -0.142 NA
ATOM      9  C   UNL     1      -0.902  -8.811  11.270  0.00  0.00    +0.425 C 
ATOM     10  O   UNL     1      -0.521  -8.617  10.565  0.00  0.00    -0.224 OA
BRANCH   8   7
ATOM      4  C   UNL     1       1.478  -7.201  12.037  0.00  0.00    -0.022 A 
ATOM      5  C   UNL     1       0.841  -6.996  12.520  0.00  0.00    -0.003 A 
ATOM      6  C   UNL     1       0.151  -7.447  12.504  0.00  0.00    +0.016 A 
ATOM      7  C   UNL     1       0.097  -8.103  12.006  0.00  0.00    +0.077 A 
ATOM     37  C   UNL     1       0.734  -8.307  11.524  0.00  0.00    +0.016 A 
ATOM     38  C   UNL     1       1.425  -7.857  11.539  0.00  0.00    -0.003 A 
BRANCH   4   2
ATOM      1  C   UNL     1       2.125  -5.934  12.174  0.00  0.00    +0.005 C 
ATOM      2  C   UNL     1       2.168  -6.749  12.053  0.00  0.00    +0.022 C 
ATOM      3  C   UNL     1       2.902  -7.112  11.948  0.00  0.00    +0.005 C 
ENDBRANCH   4   2
ENDBRANCH   8   7
ENDBRANCH  11   9
ENDBRANCH  12  11
ENDBRANCH  13  12
TORSDOF 7
ENDMDL
