MODEL 1
REMARK VINA RESULT:     -14.6      0.000      0.000
REMARK  Name = 
REMARK  6 active torsions:
REMARK  status: ('A' for Active; 'I' for Inactive)
REMARK    1  A    between atoms: C_2  and  C_3
REMARK    2  A    between atoms: C_11  and  C_12
REMARK    3  A    between atoms: C_12  and  C_13
REMARK    4  A    between atoms: N_15  and  C_16
REMARK    5  A    between atoms: C_16  and  C_17
REMARK    6  A    between atoms: C_30  and  C_32
REMARK                            x       y       z     vdW  Elec       q    Type
REMARK                         _______ _______ _______ _____ _____    ______ ____
ROOT
ATOM      1  C   UNL     1      -2.240  -2.966  24.582  0.00  0.00    +0.005 C 
ATOM      2  C   UNL     1      -2.559  -2.207  24.528  0.00  0.00    +0.059 C 
ATOM      5  C   UNL     1      -3.235  -2.657  24.383  0.00  0.00    +0.154 C 
ATOM      6  O   UNL     1      -3.190  -3.481  24.381  0.00  0.00    -0.223 OA
ATOM      7  C   UNL     1      -3.957  -2.283  24.241  0.00  0.00    +0.033 C 
ATOM      8  C   UNL     1      -4.002  -1.460  24.244  0.00  0.00    +0.003 C 
ATOM      9  C   UNL     1      -3.326  -1.010  24.388  0.00  0.00    +0.006 C 
ATOM     10  C   UNL     1      -4.047  -0.636  24.246  0.00  0.00    +0.000 C 
ATOM     11  C   UNL     1      -3.371  -0.186  24.391  0.00  0.00    +0.050 C 
ATOM     23  C   UNL     1      -2.695   0.264  24.535  0.00  0.00    +0.063 A 
ATOM     24  C   UNL     1      -1.973  -0.111  24.677  0.00  0.00    +0.023 A 
ATOM     25  C   UNL     1      -1.928  -0.934  24.674  0.00  0.00    +0.034 C 
ATOM     26  C   UNL     1      -2.604  -1.384  24.530  0.00  0.00    +0.010 C 
ATOM     27  S   UNL     1      -1.404   0.474  24.801  0.00  0.00    -0.054 S 
ATOM     28  C   UNL     1      -1.773   1.208  24.736  0.00  0.00    +0.185 A 
ATOM     29  N   UNL     1      -1.409   1.944  24.821  0.00  0.00    -0.154 NA
ATOM     30  C   UNL     1      -1.851   2.635  24.740  0.00  0.00    +0.247 C 
ATOM     31  O   UNL     1      -2.659   2.591  24.575  0.00  0.00    -0.273 OA
ATOM     38  N   UNL     1      -2.571   1.079  24.572  0.00  0.00    -0.227 NA
ENDROOT
BRANCH  30  32
ATOM     32  C   UNL     1      -1.487   3.370  24.825  0.00  0.00    +0.079 C 
ATOM     33  C   UNL     1      -1.870   3.976  25.235  0.00  0.00    +0.009 C 
ATOM     34  C   UNL     1      -1.505   4.711  25.320  0.00  0.00    +0.000 C 
ATOM     35  C   UNL     1      -0.758   4.841  24.994  0.00  0.00    +0.000 C 
ATOM     36  C   UNL     1      -0.376   4.236  24.585  0.00  0.00    +0.000 C 
ATOM     37  C   UNL     1      -0.740   3.501  24.500  0.00  0.00    +0.009 C 
ENDBRANCH  30  32
BRANCH   2   3
ATOM      3  C   UNL     1      -1.772  -2.021  24.691  0.00  0.00    +0.184 C 
ATOM      4  O   UNL     1      -1.221  -2.625  24.806  0.00  0.00    -0.220 OA
ENDBRANCH   2   3
BRANCH  11  12
ATOM     12  C   UNL     1      -4.093   0.188  24.249  0.00  0.00    +0.093 C 
BRANCH  12  13
ATOM     13  C   UNL     1      -4.535   0.485  24.880  0.00  0.00    +0.242 C 
ATOM     14  O   UNL     1      -4.533   0.092  25.605  0.00  0.00    -0.273 OA
ATOM     15  N   UNL     1      -4.978   1.173  24.785  0.00  0.00    -0.200 NA
BRANCH  15  16
ATOM     16  C   UNL     1      -5.420   1.470  25.414  0.00  0.00    +0.143 C 
BRANCH  16  17
ATOM     17  C   UNL     1      -5.515   2.285  25.505  0.00  0.00    +0.019 A 
ATOM     18  C   UNL     1      -5.735   2.748  24.859  0.00  0.00    +0.001 A 
ATOM     19  C   UNL     1      -5.830   3.562  24.950  0.00  0.00    +0.020 A 
ATOM     20  C   UNL     1      -5.705   3.914  25.685  0.00  0.00    +0.099 A 
ATOM     21  N   UNL     1      -5.485   3.450  26.331  0.00  0.00    -0.243 NA
ATOM     22  C   UNL     1      -5.390   2.635  26.240  0.00  0.00    +0.096 A 
ENDBRANCH  16  17
ENDBRANCH  15  16
ENDBRANCH  12  13
ENDBRANCH  11  12
TORSDOF 6
ENDMDL
MODEL 2
REMARK VINA RESULT:     -13.9      2.236      4.301
REMARK  Name = 
REMARK  6 active torsions:
REMARK  status: ('A' for Active; 'I' for Inactive)
REMARK    1  A    between atoms: C_2  and  C_3
REMARK    2  A    between atoms: C_11  and  C_12
REMARK    3  A    between atoms: C_12  and  C_13
REMARK    4  A    between atoms: N_15  and  C_16
REMARK    5  A    between atoms: C_16  and  C_17
REMARK    6  A    between atoms: C_30  and  C_32
REMARK                            x       y       z     vdW  Elec       q    Type
REMARK                         _______ _______ _______ _____ _____    ______ ____
ROOT
ATOM      1  C   UNL     1      -3.592  -2.259  24.744  0.00  0.00    +0.005 C 
ATOM      2  C   UNL     1      -2.958  -1.732  24.706  0.00  0.00    +0.059 C 
ATOM      5  C   UNL     1      -2.559  -2.444  24.591  0.00  0.00    +0.154 C 
ATOM      6  O   UNL     1      -2.978  -3.156  24.583  0.00  0.00    -0.223 OA
ATOM      7  C   UNL     1      -1.741  -2.446  24.482  0.00  0.00    +0.033 C 
ATOM      8  C   UNL     1      -1.322  -1.736  24.490  0.00  0.00    +0.003 C 
ATOM      9  C   UNL     1      -1.721  -1.024  24.606  0.00  0.00    +0.006 C 
ATOM     10  C   UNL     1      -0.904  -1.026  24.498  0.00  0.00    +0.000 C 
ATOM     11  C   UNL     1      -1.303  -0.312  24.614  0.00  0.00    +0.050 C 
ATOM     23  C   UNL     1      -1.701   0.400  24.730  0.00  0.00    +0.063 A 
ATOM     24  C   UNL     1      -2.520   0.402  24.838  0.00  0.00    +0.023 A 
ATOM     25  C   UNL     1      -2.938  -0.309  24.830  0.00  0.00    +0.034 C 
ATOM     26  C   UNL     1      -2.540  -1.022  24.714  0.00  0.00    +0.010 C 
ATOM     27  S   UNL     1      -2.761   1.184  24.939  0.00  0.00    -0.054 S 
ATOM     28  C   UNL     1      -2.093   1.666  24.894  0.00  0.00    +0.185 A 
ATOM     29  N   UNL     1      -2.082   2.488  24.965  0.00  0.00    -0.154 NA
ATOM     30  C   UNL     1      -1.368   2.896  24.907  0.00  0.00    +0.247 C 
ATOM     31  O   UNL     1      -0.665   2.484  24.778  0.00  0.00    -0.273 OA
ATOM     38  N   UNL     1      -1.439   1.181  24.764  0.00  0.00    -0.227 NA
ENDROOT
BRANCH  30  32
ATOM     32  C   UNL     1      -1.357   3.718  24.978  0.00  0.00    +0.079 C 
ATOM     33  C   UNL     1      -0.721   4.150  24.677  0.00  0.00    +0.009 C 
ATOM     34  C   UNL     1      -0.710   4.972  24.748  0.00  0.00    +0.000 C 
ATOM     35  C   UNL     1      -1.334   5.362  25.121  0.00  0.00    +0.000 C 
ATOM     36  C   UNL     1      -1.969   4.931  25.422  0.00  0.00    +0.000 C 
ATOM     37  C   UNL     1      -1.981   4.109  25.350  0.00  0.00    +0.009 C 
ENDBRANCH  30  32
BRANCH   2   3
ATOM      3  C   UNL     1      -3.577  -1.203  24.835  0.00  0.00    +0.184 C 
ATOM      4  O   UNL     1      -4.358  -1.471  24.828  0.00  0.00    -0.220 OA
ENDBRANCH   2   3
BRANCH  11  12
ATOM     12  C   UNL     1      -0.485  -0.314  24.506  0.00  0.00    +0.093 C 
BRANCH  12  13
ATOM     13  C   UNL     1      -0.164  -0.106  23.774  0.00  0.00    +0.242 C 
ATOM     14  O   UNL     1      -0.657  -0.024  23.117  0.00  0.00    -0.273 OA
ATOM     15  N   UNL     1       0.646   0.021  23.700  0.00  0.00    -0.200 NA
BRANCH  15  16
ATOM     16  C   UNL     1       0.967   0.230  22.969  0.00  0.00    +0.143 C 
BRANCH  16  17
ATOM     17  C   UNL     1       1.777   0.371  22.898  0.00  0.00    +0.019 A 
ATOM     18  C   UNL     1       2.244  -0.134  22.443  0.00  0.00    +0.001 A 
ATOM     19  C   UNL     1       3.054   0.007  22.372  0.00  0.00    +0.020 A 
ATOM     20  C   UNL     1       3.396   0.652  22.756  0.00  0.00    +0.099 A 
ATOM     21  N   UNL     1       2.928   1.156  23.210  0.00  0.00    -0.243 NA
ATOM     22  C   UNL     1       2.118   1.016  23.281  0.00  0.00    +0.096 A 
ENDBRANCH  16  17
ENDBRANCH  15  16
ENDBRANCH  12  13
ENDBRANCH  11  12
TORSDOF 6
ENDMDL
MODEL 3
REMARK VINA RESULT:     -13.8      2.152      6.101
REMARK  Name = 
REMARK  6 active torsions:
REMARK  status: ('A' for Active; 'I' for Inactive)
REMARK    1  A    between atoms: C_2  and  C_3
REMARK    2  A    between atoms: C_11  and  C_12
REMARK    3  A    between atoms: C_12  and  C_13
REMARK    4  A    between atoms: N_15  and  C_16
REMARK    5  A    between atoms: C_16  and  C_17
REMARK    6  A    between atoms: C_30  and  C_32
REMARK                            x       y       z     vdW  Elec       q    Type
REMARK                         _______ _______ _______ _____ _____    ______ ____
ROOT
ATOM      1  C   UNL     1      -2.353   4.840  25.837  0.00  0.00    +0.005 C 
ATOM      2  C   UNL     1      -2.125   4.161  25.427  0.00  0.00    +0.059 C 
ATOM      5  C   UNL     1      -1.534   4.681  25.183  0.00  0.00    +0.154 C 
ATOM      6  O   UNL     1      -1.528   5.459  25.459  0.00  0.00    -0.223 OA
ATOM      7  C   UNL     1      -0.946   4.424  24.662  0.00  0.00    +0.033 C 
ATOM      8  C   UNL     1      -0.952   3.647  24.387  0.00  0.00    +0.003 C 
ATOM      9  C   UNL     1      -1.543   3.127  24.631  0.00  0.00    +0.006 C 
ATOM     10  C   UNL     1      -0.957   2.870  24.112  0.00  0.00    +0.000 C 
ATOM     11  C   UNL     1      -1.549   2.349  24.356  0.00  0.00    +0.050 C 
ATOM     23  C   UNL     1      -2.140   1.829  24.600  0.00  0.00    +0.063 A 
ATOM     24  C   UNL     1      -2.727   2.086  25.121  0.00  0.00    +0.023 A 
ATOM     25  C   UNL     1      -2.722   2.863  25.396  0.00  0.00    +0.034 C 
ATOM     26  C   UNL     1      -2.130   3.384  25.152  0.00  0.00    +0.010 C 
ATOM     27  S   UNL     1      -3.235   1.452  25.264  0.00  0.00    -0.054 S 
ATOM     28  C   UNL     1      -2.964   0.804  24.833  0.00  0.00    +0.185 A 
ATOM     29  N   UNL     1      -3.308   0.055  24.815  0.00  0.00    -0.154 NA
ATOM     30  C   UNL     1      -2.973  -0.542  24.356  0.00  0.00    +0.247 C 
ATOM     31  O   UNL     1      -2.293  -0.391  23.914  0.00  0.00    -0.273 OA
ATOM     38  N   UNL     1      -2.287   1.037  24.423  0.00  0.00    -0.227 NA
ENDROOT
BRANCH  30  32
ATOM     32  C   UNL     1      -3.317  -1.292  24.338  0.00  0.00    +0.079 C 
ATOM     33  C   UNL     1      -2.972  -1.915  24.755  0.00  0.00    +0.009 C 
ATOM     34  C   UNL     1      -3.317  -2.664  24.737  0.00  0.00    +0.000 C 
ATOM     35  C   UNL     1      -4.007  -2.790  24.302  0.00  0.00    +0.000 C 
ATOM     36  C   UNL     1      -4.351  -2.168  23.885  0.00  0.00    +0.000 C 
ATOM     37  C   UNL     1      -4.007  -1.419  23.903  0.00  0.00    +0.009 C 
ENDBRANCH  30  32
BRANCH   2   3
ATOM      3  C   UNL     1      -2.795   3.877  25.814  0.00  0.00    +0.184 C 
ATOM      4  O   UNL     1      -3.196   4.357  26.353  0.00  0.00    -0.220 OA
ENDBRANCH   2   3
BRANCH  11  12
ATOM     12  C   UNL     1      -0.962   2.092  23.836  0.00  0.00    +0.093 C 
BRANCH  12  13
ATOM     13  C   UNL     1      -0.342   1.621  24.112  0.00  0.00    +0.242 C 
ATOM     14  O   UNL     1      -0.221   1.535  24.923  0.00  0.00    -0.273 OA
ATOM     15  N   UNL     1       0.154   1.238  23.578  0.00  0.00    -0.200 NA
BRANCH  15  16
ATOM     16  C   UNL     1       0.773   0.768  23.853  0.00  0.00    +0.143 C 
BRANCH  16  17
ATOM     17  C   UNL     1       1.348   0.492  23.329  0.00  0.00    +0.019 A 
ATOM     18  C   UNL     1       2.111   0.803  23.353  0.00  0.00    +0.001 A 
ATOM     19  C   UNL     1       2.685   0.528  22.829  0.00  0.00    +0.020 A 
ATOM     20  C   UNL     1       2.496  -0.059  22.280  0.00  0.00    +0.099 A 
ATOM     21  N   UNL     1       1.732  -0.369  22.257  0.00  0.00    -0.243 NA
ATOM     22  C   UNL     1       1.158  -0.094  22.781  0.00  0.00    +0.096 A 
ENDBRANCH  16  17
ENDBRANCH  15  16
ENDBRANCH  12  13
ENDBRANCH  11  12
TORSDOF 6
ENDMDL
MODEL 4
REMARK VINA RESULT:     -13.6      1.780      5.694
REMARK  Name = 
REMARK  6 active torsions:
REMARK  status: ('A' for Active; 'I' for Inactive)
REMARK    1  A    between atoms: C_2  and  C_3
REMARK    2  A    between atoms: C_11  and  C_12
REMARK    3  A    between atoms: C_12  and  C_13
REMARK    4  A    between atoms: N_15  and  C_16
REMARK    5  A    between atoms: C_16  and  C_17
REMARK    6  A    between atoms: C_30  and  C_32
REMARK                            x       y       z     vdW  Elec       q    Type
REMARK                         _______ _______ _______ _____ _____    ______ ____
ROOT
ATOM      1  C   UNL     1      -5.439   4.026  25.626  0.00  0.00    +0.005 C 
ATOM      2  C   UNL     1      -4.892   3.501  25.301  0.00  0.00    +0.059 C 
ATOM      5  C   UNL     1      -4.514   4.216  25.145  0.00  0.00    +0.154 C 
ATOM      6  O   UNL     1      -4.863   4.928  25.376  0.00  0.00    -0.223 OA
ATOM      7  C   UNL     1      -3.785   4.222  24.757  0.00  0.00    +0.033 C 
ATOM      8  C   UNL     1      -3.436   3.512  24.526  0.00  0.00    +0.003 C 
ATOM      9  C   UNL     1      -3.814   2.796  24.682  0.00  0.00    +0.006 C 
ATOM     10  C   UNL     1      -3.087   2.802  24.295  0.00  0.00    +0.000 C 
ATOM     11  C   UNL     1      -3.465   2.085  24.451  0.00  0.00    +0.050 C 
ATOM     23  C   UNL     1      -3.843   1.370  24.607  0.00  0.00    +0.063 A 
ATOM     24  C   UNL     1      -4.572   1.364  24.996  0.00  0.00    +0.023 A 
ATOM     25  C   UNL     1      -4.921   2.074  25.227  0.00  0.00    +0.034 C 
ATOM     26  C   UNL     1      -4.543   2.791  25.070  0.00  0.00    +0.010 C 
ATOM     27  S   UNL     1      -4.812   0.578  25.074  0.00  0.00    -0.054 S 
ATOM     28  C   UNL     1      -4.233   0.099  24.735  0.00  0.00    +0.185 A 
ATOM     29  N   UNL     1      -4.250  -0.725  24.692  0.00  0.00    -0.154 NA
ATOM     30  C   UNL     1      -3.628  -1.132  24.335  0.00  0.00    +0.247 C 
ATOM     31  O   UNL     1      -2.988  -0.715  24.020  0.00  0.00    -0.273 OA
ATOM     38  N   UNL     1      -3.634   0.587  24.447  0.00  0.00    -0.227 NA
ENDROOT
BRANCH  30  32
ATOM     32  C   UNL     1      -3.644  -1.955  24.291  0.00  0.00    +0.079 C 
ATOM     33  C   UNL     1      -3.090  -2.402  24.710  0.00  0.00    +0.009 C 
ATOM     34  C   UNL     1      -3.107  -3.226  24.667  0.00  0.00    +0.000 C 
ATOM     35  C   UNL     1      -3.678  -3.603  24.205  0.00  0.00    +0.000 C 
ATOM     36  C   UNL     1      -4.231  -3.157  23.787  0.00  0.00    +0.000 C 
ATOM     37  C   UNL     1      -4.215  -2.333  23.831  0.00  0.00    +0.009 C 
ENDBRANCH  30  32
BRANCH   2   3
ATOM      3  C   UNL     1      -5.461   2.967  25.571  0.00  0.00    +0.184 C 
ATOM      4  O   UNL     1      -6.105   3.238  26.011  0.00  0.00    -0.220 OA
ENDBRANCH   2   3
BRANCH  11  12
ATOM     12  C   UNL     1      -2.737   2.091  24.063  0.00  0.00    +0.093 C 
BRANCH  12  13
ATOM     13  C   UNL     1      -2.051   1.874  24.469  0.00  0.00    +0.242 C 
ATOM     14  O   UNL     1      -2.010   1.966  25.287  0.00  0.00    -0.273 OA
ATOM     15  N   UNL     1      -1.408   1.565  24.056  0.00  0.00    -0.200 NA
BRANCH  15  16
ATOM     16  C   UNL     1      -0.723   1.348  24.460  0.00  0.00    +0.143 C 
BRANCH  16  17
ATOM     17  C   UNL     1      -0.102   0.985  24.056  0.00  0.00    +0.019 A 
ATOM     18  C   UNL     1      -0.154   0.188  23.851  0.00  0.00    +0.001 A 
ATOM     19  C   UNL     1       0.467  -0.175  23.447  0.00  0.00    +0.020 A 
ATOM     20  C   UNL     1       1.140   0.259  23.248  0.00  0.00    +0.099 A 
ATOM     21  N   UNL     1       1.191   1.057  23.454  0.00  0.00    -0.243 NA
ATOM     22  C   UNL     1       0.570   1.419  23.858  0.00  0.00    +0.096 A 
ENDBRANCH  16  17
ENDBRANCH  15  16
ENDBRANCH  12  13
ENDBRANCH  11  12
TORSDOF 6
ENDMDL
MODEL 5
REMARK VINA RESULT:     -13.4      1.242      3.392
REMARK  Name = 
REMARK  6 active torsions:
REMARK  status: ('A' for Active; 'I' for Inactive)
REMARK    1  A    between atoms: C_2  and  C_3
REMARK    2  A    between atoms: C_11  and  C_12
REMARK    3  A    between atoms: C_12  and  C_13
REMARK    4  A    between atoms: N_15  and  C_16
REMARK    5  A    between atoms: C_16  and  C_17
REMARK    6  A    between atoms: C_30  and  C_32
REMARK                            x       y       z     vdW  Elec       q    Type
REMARK                         _______ _______ _______ _____ _____    ______ ____
ROOT
ATOM      1  C   UNL     1      -3.844  -3.115  23.901  0.00  0.00    +0.005 C 
ATOM      2  C   UNL     1      -3.560  -2.407  24.214  0.00  0.00    +0.059 C 
ATOM      5  C   UNL     1      -2.906  -2.892  24.342  0.00  0.00    +0.154 C 
ATOM      6  O   UNL     1      -2.928  -3.684  24.111  0.00  0.00    -0.223 OA
ATOM      7  C   UNL     1      -2.228  -2.586  24.701  0.00  0.00    +0.033 C 
ATOM      8  C   UNL     1      -2.206  -1.794  24.932  0.00  0.00    +0.003 C 
ATOM      9  C   UNL     1      -2.860  -1.309  24.804  0.00  0.00    +0.006 C 
ATOM     10  C   UNL     1      -2.184  -1.003  25.163  0.00  0.00    +0.000 C 
ATOM     11  C   UNL     1      -2.839  -0.517  25.035  0.00  0.00    +0.050 C 
ATOM     23  C   UNL     1      -3.493  -0.032  24.907  0.00  0.00    +0.063 A 
ATOM     24  C   UNL     1      -4.170  -0.338  24.548  0.00  0.00    +0.023 A 
ATOM     25  C   UNL     1      -4.192  -1.129  24.317  0.00  0.00    +0.034 C 
ATOM     26  C   UNL     1      -3.538  -1.616  24.445  0.00  0.00    +0.010 C 
ATOM     27  S   UNL     1      -4.726   0.269  24.494  0.00  0.00    -0.054 S 
ATOM     28  C   UNL     1      -4.393   0.950  24.819  0.00  0.00    +0.185 A 
ATOM     29  N   UNL     1      -4.758   1.688  24.878  0.00  0.00    -0.154 NA
ATOM     30  C   UNL     1      -4.355   2.321  25.218  0.00  0.00    +0.247 C 
ATOM     31  O   UNL     1      -3.586   2.218  25.500  0.00  0.00    -0.273 OA
ATOM     38  N   UNL     1      -3.631   0.764  25.074  0.00  0.00    -0.227 NA
ENDROOT
BRANCH  30  32
ATOM     32  C   UNL     1      -4.720   3.058  25.278  0.00  0.00    +0.079 C 
ATOM     33  C   UNL     1      -4.355   3.727  24.959  0.00  0.00    +0.009 C 
ATOM     34  C   UNL     1      -4.720   4.464  25.019  0.00  0.00    +0.000 C 
ATOM     35  C   UNL     1      -5.450   4.533  25.397  0.00  0.00    +0.000 C 
ATOM     36  C   UNL     1      -5.815   3.866  25.715  0.00  0.00    +0.000 C 
ATOM     37  C   UNL     1      -5.450   3.129  25.655  0.00  0.00    +0.009 C 
ENDBRANCH  30  32
BRANCH   2   3
ATOM      3  C   UNL     1      -4.313  -2.167  23.977  0.00  0.00    +0.184 C 
ATOM      4  O   UNL     1      -4.785  -2.674  23.528  0.00  0.00    -0.220 OA
ENDBRANCH   2   3
BRANCH  11  12
ATOM     12  C   UNL     1      -2.162  -0.211  25.394  0.00  0.00    +0.093 C 
BRANCH  12  13
ATOM     13  C   UNL     1      -1.643   0.263  24.960  0.00  0.00    +0.242 C 
ATOM     14  O   UNL     1      -1.571   0.157  24.146  0.00  0.00    -0.273 OA
ATOM     15  N   UNL     1      -1.196   0.841  25.342  0.00  0.00    -0.200 NA
BRANCH  15  16
ATOM     16  C   UNL     1      -0.678   1.315  24.909  0.00  0.00    +0.143 C 
BRANCH  16  17
ATOM     17  C   UNL     1      -0.414   2.031  25.222  0.00  0.00    +0.019 A 
ATOM     18  C   UNL     1      -0.603   2.739  24.845  0.00  0.00    +0.001 A 
ATOM     19  C   UNL     1      -0.340   3.456  25.157  0.00  0.00    +0.020 A 
ATOM     20  C   UNL     1       0.113   3.464  25.847  0.00  0.00    +0.099 A 
ATOM     21  N   UNL     1       0.301   2.755  26.224  0.00  0.00    -0.243 NA
ATOM     22  C   UNL     1       0.038   2.039  25.911  0.00  0.00    +0.096 A 
ENDBRANCH  16  17
ENDBRANCH  15  16
ENDBRANCH  12  13
ENDBRANCH  11  12
TORSDOF 6
ENDMDL
MODEL 6
REMARK VINA RESULT:     -13.4      1.888      4.640
REMARK  Name = 
REMARK  6 active torsions:
REMARK  status: ('A' for Active; 'I' for Inactive)
REMARK    1  A    between atoms: C_2  and  C_3
REMARK    2  A    between atoms: C_11  and  C_12
REMARK    3  A    between atoms: C_12  and  C_13
REMARK    4  A    between atoms: N_15  and  C_16
REMARK    5  A    between atoms: C_16  and  C_17
REMARK    6  A    between atoms: C_30  and  C_32
REMARK                            x       y       z     vdW  Elec       q    Type
REMARK                         _______ _______ _______ _____ _____    ______ ____
ROOT
ATOM      1  C   UNL     1      -4.965   4.164  25.749  0.00  0.00    +0.005 C 
ATOM      2  C   UNL     1      -4.668   3.463  25.432  0.00  0.00    +0.059 C 
ATOM      5  C   UNL     1      -5.468   3.271  25.482  0.00  0.00    +0.154 C 
ATOM      6  O   UNL     1      -6.008   3.820  25.778  0.00  0.00    -0.223 OA
ATOM      7  C   UNL     1      -5.731   2.527  25.236  0.00  0.00    +0.033 C 
ATOM      8  C   UNL     1      -5.192   1.977  24.940  0.00  0.00    +0.003 C 
ATOM      9  C   UNL     1      -4.392   2.170  24.890  0.00  0.00    +0.006 C 
ATOM     10  C   UNL     1      -4.654   1.428  24.645  0.00  0.00    +0.000 C 
ATOM     11  C   UNL     1      -3.853   1.620  24.594  0.00  0.00    +0.050 C 
ATOM     23  C   UNL     1      -3.053   1.812  24.544  0.00  0.00    +0.063 A 
ATOM     24  C   UNL     1      -2.790   2.555  24.790  0.00  0.00    +0.023 A 
ATOM     25  C   UNL     1      -3.329   3.105  25.086  0.00  0.00    +0.034 C 
ATOM     26  C   UNL     1      -4.130   2.913  25.136  0.00  0.00    +0.010 C 
ATOM     27  S   UNL     1      -1.974   2.588  24.676  0.00  0.00    -0.054 S 
ATOM     28  C   UNL     1      -1.731   1.866  24.360  0.00  0.00    +0.185 A 
ATOM     29  N   UNL     1      -0.958   1.659  24.160  0.00  0.00    -0.154 NA
ATOM     30  C   UNL     1      -0.798   0.913  23.847  0.00  0.00    +0.247 C 
ATOM     31  O   UNL     1      -1.411   0.373  23.734  0.00  0.00    -0.273 OA
ATOM     38  N   UNL     1      -2.397   1.387  24.278  0.00  0.00    -0.227 NA
ENDROOT
BRANCH  30  32
ATOM     32  C   UNL     1      -0.025   0.707  23.647  0.00  0.00    +0.079 C 
ATOM     33  C   UNL     1       0.134  -0.038  23.327  0.00  0.00    +0.009 C 
ATOM     34  C   UNL     1       0.908  -0.244  23.128  0.00  0.00    +0.000 C 
ATOM     35  C   UNL     1       1.522   0.294  23.248  0.00  0.00    +0.000 C 
ATOM     36  C   UNL     1       1.363   1.037  23.567  0.00  0.00    +0.000 C 
ATOM     37  C   UNL     1       0.590   1.243  23.767  0.00  0.00    +0.009 C 
ENDBRANCH  30  32
BRANCH   2   3
ATOM      3  C   UNL     1      -3.971   3.899  25.492  0.00  0.00    +0.184 C 
ATOM      4  O   UNL     1      -3.973   4.630  25.875  0.00  0.00    -0.220 OA
ENDBRANCH   2   3
BRANCH  11  12
ATOM     12  C   UNL     1      -4.115   0.877  24.348  0.00  0.00    +0.093 C 
BRANCH  12  13
ATOM     13  C   UNL     1      -4.013   0.220  24.838  0.00  0.00    +0.242 C 
ATOM     14  O   UNL     1      -3.956   0.321  25.655  0.00  0.00    -0.273 OA
ATOM     15  N   UNL     1      -3.969  -0.535  24.512  0.00  0.00    -0.200 NA
BRANCH  15  16
ATOM     16  C   UNL     1      -3.868  -1.191  25.001  0.00  0.00    +0.143 C 
BRANCH  16  17
ATOM     17  C   UNL     1      -3.634  -1.914  24.679  0.00  0.00    +0.019 A 
ATOM     18  C   UNL     1      -2.897  -2.231  24.870  0.00  0.00    +0.001 A 
ATOM     19  C   UNL     1      -2.663  -2.954  24.548  0.00  0.00    +0.020 A 
ATOM     20  C   UNL     1      -3.166  -3.360  24.036  0.00  0.00    +0.099 A 
ATOM     21  N   UNL     1      -3.903  -3.042  23.845  0.00  0.00    -0.243 NA
ATOM     22  C   UNL     1      -4.137  -2.319  24.167  0.00  0.00    +0.096 A 
ENDBRANCH  16  17
ENDBRANCH  15  16
ENDBRANCH  12  13
ENDBRANCH  11  12
TORSDOF 6
ENDMDL
