MODEL 1
REMARK VINA RESULT:     -12.7      0.000      0.000
REMARK  Name = 
REMARK  6 active torsions:
REMARK  status: ('A' for Active; 'I' for Inactive)
REMARK    1  A    between atoms: N_7  and  C_10
REMARK    2  A    between atoms: C_12  and  C_16
REMARK    3  A    between atoms: C_19  and  C_21
REMARK    4  A    between atoms: N_25  and  C_26
REMARK    5  A    between atoms: C_26  and  C_27
REMARK    6  A    between atoms: C_30  and  S_33
REMARK                            x       y       z     vdW  Elec       q    Type
REMARK                         _______ _______ _______ _____ _____    ______ ____
ROOT
ATOM     16  C   UNL     1      -0.472   2.628  24.886  0.00  0.00    +0.203 A 
ATOM     17  N   UNL     1       0.263   2.548  25.253  0.00  0.00    -0.056 NA
ATOM     18  O   UNL     1       0.607   1.847  24.984  0.00  0.00    -0.336 OA
ATOM     19  C   UNL     1       0.084   1.495  24.452  0.00  0.00    +0.251 A 
ATOM     20  N   UNL     1      -0.582   1.978  24.391  0.00  0.00    -0.190 NA
ENDROOT
BRANCH  16  12
ATOM     10  C   UNL     1      -2.336   3.716  25.207  0.00  0.00    +0.132 A 
ATOM     11  C   UNL     1      -1.806   3.094  25.097  0.00  0.00    +0.037 A 
ATOM     12  C   UNL     1      -1.003   3.250  24.995  0.00  0.00    +0.043 A 
ATOM     13  C   UNL     1      -0.729   4.029  25.002  0.00  0.00    +0.024 A 
ATOM     14  C   UNL     1      -1.260   4.651  25.112  0.00  0.00    +0.100 A 
ATOM     15  N   UNL     1      -2.064   4.494  25.214  0.00  0.00    -0.229 NA
BRANCH  10   7
ATOM      1  C   UNL     1      -5.932   2.550  25.122  0.00  0.00    +0.095 C 
ATOM      2  C   UNL     1      -5.551   3.091  25.616  0.00  0.00    +0.226 C 
ATOM      3  O   UNL     1      -5.973   3.474  26.211  0.00  0.00    -0.275 OA
ATOM      4  N   UNL     1      -4.747   3.246  25.513  0.00  0.00    -0.276 N 
ATOM      5  C   UNL     1      -4.366   3.787  26.006  0.00  0.00    +0.115 C 
ATOM      6  C   UNL     1      -3.562   3.943  25.905  0.00  0.00    +0.114 C 
ATOM      7  N   UNL     1      -3.141   3.559  25.309  0.00  0.00    -0.290 N 
ATOM      8  C   UNL     1      -3.522   3.019  24.816  0.00  0.00    +0.114 C 
ATOM      9  C   UNL     1      -4.325   2.863  24.918  0.00  0.00    +0.115 C 
ENDBRANCH  10   7
ENDBRANCH  16  12
BRANCH  19  21
ATOM     21  C   UNL     1       0.206   0.785  24.050  0.00  0.00    +0.138 C 
ATOM     22  C   UNL     1       0.671   0.683  23.376  0.00  0.00    +0.027 C 
ATOM     23  C   UNL     1       0.638  -0.113  23.161  0.00  0.00    +0.019 C 
ATOM     24  C   UNL     1       0.152  -0.503  23.702  0.00  0.00    +0.073 C 
ATOM     25  N   UNL     1      -0.115   0.052  24.252  0.00  0.00    -0.263 NA
BRANCH  25  26
ATOM     26  C   UNL     1      -0.614  -0.100  24.890  0.00  0.00    +0.099 C 
BRANCH  26  27
ATOM     27  C   UNL     1      -1.194  -0.683  24.831  0.00  0.00    -0.006 A 
ATOM     28  C   UNL     1      -1.008  -1.468  25.002  0.00  0.00    -0.002 A 
ATOM     29  C   UNL     1      -1.589  -2.052  24.943  0.00  0.00    +0.018 A 
ATOM     30  C   UNL     1      -2.355  -1.850  24.713  0.00  0.00    +0.106 A 
ATOM     31  C   UNL     1      -2.540  -1.064  24.542  0.00  0.00    +0.018 A 
ATOM     32  C   UNL     1      -1.960  -0.481  24.601  0.00  0.00    -0.002 A 
BRANCH  30  33
ATOM     33  S   UNL     1      -2.935  -2.434  24.654  0.00  0.00    +0.010 S 
ATOM     34  C   UNL     1      -3.515  -3.017  24.595  0.00  0.00    +0.182 C 
ATOM     35  O   UNL     1      -2.520  -2.783  24.033  0.00  0.00    -0.169 OA
ATOM     36  O   UNL     1      -3.351  -2.083  25.275  0.00  0.00    -0.169 OA
ENDBRANCH  30  33
ENDBRANCH  26  27
ENDBRANCH  25  26
ENDBRANCH  19  21
TORSDOF 6
ENDMDL
MODEL 2
REMARK VINA RESULT:     -12.1      1.421      4.928
REMARK  Name = 
REMARK  6 active torsions:
REMARK  status: ('A' for Active; 'I' for Inactive)
REMARK    1  A    between atoms: N_7  and  C_10
REMARK    2  A    between atoms: C_12  and  C_16
REMARK    3  A    between atoms: C_19  and  C_21
REMARK    4  A    between atoms: N_25  and  C_26
REMARK    5  A    between atoms: C_26  and  C_27
REMARK    6  A    between atoms: C_30  and  S_33
REMARK                            x       y       z     vdW  Elec       q    Type
REMARK                         _______ _______ _______ _____ _____    ______ ____
ROOT
ATOM     16  C   UNL     1      -0.012   1.826  24.752  0.00  0.00    +0.203 A 
ATOM     17  N   UNL     1       0.492   2.092  25.350  0.00  0.00    -0.056 NA
ATOM     18  O   UNL     1       0.280   2.868  25.534  0.00  0.00    -0.336 OA
ATOM     19  C   UNL     1      -0.354   3.081  25.051  0.00  0.00    +0.251 A 
ATOM     20  N   UNL     1      -0.534   2.437  24.568  0.00  0.00    -0.190 NA
ENDROOT
BRANCH  16  12
ATOM     10  C   UNL     1      -0.589  -0.203  24.192  0.00  0.00    +0.132 A 
ATOM     11  C   UNL     1      -0.606   0.544  24.543  0.00  0.00    +0.037 A 
ATOM     12  C   UNL     1       0.005   1.079  24.402  0.00  0.00    +0.043 A 
ATOM     13  C   UNL     1       0.634   0.868  23.910  0.00  0.00    +0.024 A 
ATOM     14  C   UNL     1       0.650   0.122  23.560  0.00  0.00    +0.100 A 
ATOM     15  N   UNL     1       0.038  -0.414  23.701  0.00  0.00    -0.229 NA
BRANCH  10   7
ATOM      1  C   UNL     1      -3.818  -2.120  24.631  0.00  0.00    +0.095 C 
ATOM      2  C   UNL     1      -3.034  -2.346  24.755  0.00  0.00    +0.226 C 
ATOM      3  O   UNL     1      -2.862  -3.108  25.020  0.00  0.00    -0.275 OA
ATOM      4  N   UNL     1      -2.423  -1.810  24.614  0.00  0.00    -0.276 N 
ATOM      5  C   UNL     1      -1.640  -2.036  24.739  0.00  0.00    +0.115 C 
ATOM      6  C   UNL     1      -1.028  -1.501  24.598  0.00  0.00    +0.114 C 
ATOM      7  N   UNL     1      -1.201  -0.739  24.333  0.00  0.00    -0.290 N 
ATOM      8  C   UNL     1      -1.985  -0.513  24.208  0.00  0.00    +0.114 C 
ATOM      9  C   UNL     1      -2.595  -1.049  24.349  0.00  0.00    +0.115 C 
ENDBRANCH  10   7
ENDBRANCH  16  12
BRANCH  19  21
ATOM     21  C   UNL     1      -0.740   3.810  25.050  0.00  0.00    +0.138 C 
ATOM     22  C   UNL     1      -0.471   4.501  24.688  0.00  0.00    +0.027 C 
ATOM     23  C   UNL     1      -1.027   5.094  24.825  0.00  0.00    +0.019 C 
ATOM     24  C   UNL     1      -1.640   4.770  25.272  0.00  0.00    +0.073 C 
ATOM     25  N   UNL     1      -1.463   3.976  25.411  0.00  0.00    -0.263 NA
BRANCH  25  26
ATOM     26  C   UNL     1      -1.927   3.443  25.836  0.00  0.00    +0.099 C 
BRANCH  26  27
ATOM     27  C   UNL     1      -2.749   3.477  25.781  0.00  0.00    -0.006 A 
ATOM     28  C   UNL     1      -3.178   3.949  26.303  0.00  0.00    -0.002 A 
ATOM     29  C   UNL     1      -4.001   3.982  26.248  0.00  0.00    +0.018 A 
ATOM     30  C   UNL     1      -4.394   3.542  25.671  0.00  0.00    +0.106 A 
ATOM     31  C   UNL     1      -3.964   3.070  25.149  0.00  0.00    +0.018 A 
ATOM     32  C   UNL     1      -3.142   3.037  25.204  0.00  0.00    -0.002 A 
BRANCH  30  33
ATOM     33  S   UNL     1      -5.217   3.576  25.616  0.00  0.00    +0.010 S 
ATOM     34  C   UNL     1      -6.039   3.609  25.561  0.00  0.00    +0.182 C 
ATOM     35  O   UNL     1      -5.272   2.854  26.012  0.00  0.00    -0.169 OA
ATOM     36  O   UNL     1      -5.161   4.298  25.220  0.00  0.00    -0.169 OA
ENDBRANCH  30  33
ENDBRANCH  26  27
ENDBRANCH  25  26
ENDBRANCH  19  21
TORSDOF 6
ENDMDL
MODEL 3
REMARK VINA RESULT:     -11.6      1.785      4.567
REMARK  Name = 
REMARK  6 active torsions:
REMARK  status: ('A' for Active; 'I' for Inactive)
REMARK    1  A    between atoms: N_7  and  C_10
REMARK    2  A    between atoms: C_12  and  C_16
REMARK    3  A    between atoms: C_19  and  C_21
REMARK    4  A    between atoms: N_25  and  C_26
REMARK    5  A    between atoms: C_26  and  C_27
REMARK    6  A    between atoms: C_30  and  S_33
REMARK                            x       y       z     vdW  Elec       q    Type
REMARK                         _______ _______ _______ _____ _____    ______ ____
ROOT
ATOM     16  C   UNL     1      -4.016   3.074  25.489  0.00  0.00    +0.203 A 
ATOM     17  N   UNL     1      -4.123   3.632  26.087  0.00  0.00    -0.056 NA
ATOM     18  O   UNL     1      -3.459   4.123  26.099  0.00  0.00    -0.336 OA
ATOM     19  C   UNL     1      -2.943   3.868  25.508  0.00  0.00    +0.251 A 
ATOM     20  N   UNL     1      -3.287   3.219  25.131  0.00  0.00    -0.190 NA
ENDROOT
BRANCH  16  12
ATOM     10  C   UNL     1      -4.809   1.101  24.999  0.00  0.00    +0.132 A 
ATOM     11  C   UNL     1      -4.279   1.699  25.203  0.00  0.00    +0.037 A 
ATOM     12  C   UNL     1      -4.546   2.475  25.285  0.00  0.00    +0.043 A 
ATOM     13  C   UNL     1      -5.342   2.653  25.164  0.00  0.00    +0.024 A 
ATOM     14  C   UNL     1      -5.872   2.055  24.960  0.00  0.00    +0.100 A 
ATOM     15  N   UNL     1      -5.605   1.278  24.877  0.00  0.00    -0.229 NA
BRANCH  10   7
ATOM      1  C   UNL     1      -3.827  -2.396  23.948  0.00  0.00    +0.095 C 
ATOM      2  C   UNL     1      -3.742  -2.005  24.669  0.00  0.00    +0.226 C 
ATOM      3  O   UNL     1      -3.391  -2.390  25.308  0.00  0.00    -0.275 OA
ATOM      4  N   UNL     1      -4.009  -1.228  24.751  0.00  0.00    -0.276 N 
ATOM      5  C   UNL     1      -3.925  -0.838  25.473  0.00  0.00    +0.115 C 
ATOM      6  C   UNL     1      -4.191  -0.061  25.556  0.00  0.00    +0.114 C 
ATOM      7  N   UNL     1      -4.542   0.324  24.916  0.00  0.00    -0.290 N 
ATOM      8  C   UNL     1      -4.627  -0.067  24.194  0.00  0.00    +0.114 C 
ATOM      9  C   UNL     1      -4.360  -0.843  24.112  0.00  0.00    +0.115 C 
ENDBRANCH  10   7
ENDBRANCH  16  12
BRANCH  19  21
ATOM     21  C   UNL     1      -2.211   4.202  25.326  0.00  0.00    +0.138 C 
ATOM     22  C   UNL     1      -2.078   4.985  25.103  0.00  0.00    +0.027 C 
ATOM     23  C   UNL     1      -1.269   5.079  24.974  0.00  0.00    +0.019 C 
ATOM     24  C   UNL     1      -0.902   4.354  25.116  0.00  0.00    +0.073 C 
ATOM     25  N   UNL     1      -1.484   3.812  25.334  0.00  0.00    -0.263 NA
BRANCH  25  26
ATOM     26  C   UNL     1      -1.361   3.019  25.525  0.00  0.00    +0.099 C 
BRANCH  26  27
ATOM     27  C   UNL     1      -0.803   2.576  25.111  0.00  0.00    -0.006 A 
ATOM     28  C   UNL     1      -0.971   2.307  24.350  0.00  0.00    -0.002 A 
ATOM     29  C   UNL     1      -0.412   1.864  23.935  0.00  0.00    +0.018 A 
ATOM     30  C   UNL     1       0.316   1.690  24.283  0.00  0.00    +0.106 A 
ATOM     31  C   UNL     1       0.484   1.959  25.044  0.00  0.00    +0.018 A 
ATOM     32  C   UNL     1      -0.075   2.402  25.458  0.00  0.00    -0.002 A 
BRANCH  30  33
ATOM     33  S   UNL     1       0.875   1.246  23.868  0.00  0.00    +0.010 S 
ATOM     34  C   UNL     1       1.433   0.803  23.453  0.00  0.00    +0.182 C 
ATOM     35  O   UNL     1       0.336   0.625  23.807  0.00  0.00    -0.169 OA
ATOM     36  O   UNL     1       1.414   1.869  23.929  0.00  0.00    -0.169 OA
ENDBRANCH  30  33
ENDBRANCH  26  27
ENDBRANCH  25  26
ENDBRANCH  19  21
TORSDOF 6
ENDMDL
MODEL 4
REMARK VINA RESULT:     -11.3      1.304      4.229
REMARK  Name = 
REMARK  6 active torsions:
REMARK  status: ('A' for Active; 'I' for Inactive)
REMARK    1  A    between atoms: N_7  and  C_10
REMARK    2  A    between atoms: C_12  and  C_16
REMARK    3  A    between atoms: C_19  and  C_21
REMARK    4  A    between atoms: N_25  and  C_26
REMARK    5  A    between atoms: C_26  and  C_27
REMARK    6  A    between atoms: C_30  and  S_33
REMARK                            x       y       z     vdW  Elec       q    Type
REMARK                         _______ _______ _______ _____ _____    ______ ____
ROOT
ATOM     16  C   UNL     1      -2.963   3.360  25.334  0.00  0.00    +0.203 A 
ATOM     17  N   UNL     1      -3.444   3.812  25.830  0.00  0.00    -0.056 NA
ATOM     18  O   UNL     1      -4.189   3.458  25.856  0.00  0.00    -0.336 OA
ATOM     19  C   UNL     1      -4.168   2.787  25.376  0.00  0.00    +0.251 A 
ATOM     20  N   UNL     1      -3.411   2.727  25.054  0.00  0.00    -0.190 NA
ENDROOT
BRANCH  16  12
ATOM     10  C   UNL     1      -0.905   3.069  24.668  0.00  0.00    +0.132 A 
ATOM     11  C   UNL     1      -1.695   2.915  24.851  0.00  0.00    +0.037 A 
ATOM     12  C   UNL     1      -2.173   3.515  25.152  0.00  0.00    +0.043 A 
ATOM     13  C   UNL     1      -1.863   4.270  25.270  0.00  0.00    +0.024 A 
ATOM     14  C   UNL     1      -1.074   4.425  25.087  0.00  0.00    +0.100 A 
ATOM     15  N   UNL     1      -0.594   3.824  24.786  0.00  0.00    -0.229 NA
BRANCH  10   7
ATOM      1  C   UNL     1       0.678  -0.049  23.232  0.00  0.00    +0.095 C 
ATOM      2  C   UNL     1       1.012   0.668  23.465  0.00  0.00    +0.226 C 
ATOM      3  O   UNL     1       1.825   0.785  23.397  0.00  0.00    -0.275 OA
ATOM      4  N   UNL     1       0.532   1.268  23.766  0.00  0.00    -0.276 N 
ATOM      5  C   UNL     1       0.867   1.985  23.999  0.00  0.00    +0.115 C 
ATOM      6  C   UNL     1       0.388   2.586  24.300  0.00  0.00    +0.114 C 
ATOM      7  N   UNL     1      -0.426   2.468  24.367  0.00  0.00    -0.290 N 
ATOM      8  C   UNL     1      -0.760   1.751  24.134  0.00  0.00    +0.114 C 
ATOM      9  C   UNL     1      -0.281   1.151  23.833  0.00  0.00    +0.115 C 
ENDBRANCH  10   7
ENDBRANCH  16  12
BRANCH  19  21
ATOM     21  C   UNL     1      -4.794   2.268  25.241  0.00  0.00    +0.138 C 
ATOM     22  C   UNL     1      -5.583   2.480  25.120  0.00  0.00    +0.027 C 
ATOM     23  C   UNL     1      -6.019   1.789  25.008  0.00  0.00    +0.019 C 
ATOM     24  C   UNL     1      -5.500   1.149  25.060  0.00  0.00    +0.073 C 
ATOM     25  N   UNL     1      -4.743   1.445  25.204  0.00  0.00    -0.263 NA
BRANCH  25  26
ATOM     26  C   UNL     1      -4.057   0.997  25.294  0.00  0.00    +0.099 C 
BRANCH  26  27
ATOM     27  C   UNL     1      -4.036   0.216  25.031  0.00  0.00    -0.006 A 
ATOM     28  C   UNL     1      -4.011  -0.402  25.576  0.00  0.00    -0.002 A 
ATOM     29  C   UNL     1      -3.990  -1.184  25.313  0.00  0.00    +0.018 A 
ATOM     30  C   UNL     1      -3.994  -1.347  24.504  0.00  0.00    +0.106 A 
ATOM     31  C   UNL     1      -4.019  -0.728  23.959  0.00  0.00    +0.018 A 
ATOM     32  C   UNL     1      -4.040   0.053  24.222  0.00  0.00    -0.002 A 
BRANCH  30  33
ATOM     33  S   UNL     1      -3.973  -2.129  24.241  0.00  0.00    +0.010 S 
ATOM     34  C   UNL     1      -3.952  -2.910  23.978  0.00  0.00    +0.182 C 
ATOM     35  O   UNL     1      -3.587  -2.352  24.934  0.00  0.00    -0.169 OA
ATOM     36  O   UNL     1      -4.359  -1.906  23.546  0.00  0.00    -0.169 OA
ENDBRANCH  30  33
ENDBRANCH  26  27
ENDBRANCH  25  26
ENDBRANCH  19  21
TORSDOF 6
ENDMDL
MODEL 5
REMARK VINA RESULT:     -10.7      1.758      3.724
REMARK  Name = 
REMARK  6 active torsions:
REMARK  status: ('A' for Active; 'I' for Inactive)
REMARK    1  A    between atoms: N_7  and  C_10
REMARK    2  A    between atoms: C_12  and  C_16
REMARK    3  A    between atoms: C_19  and  C_21
REMARK    4  A    between atoms: N_25  and  C_26
REMARK    5  A    between atoms: C_26  and  C_27
REMARK    6  A    between atoms: C_30  and  S_33
REMARK                            x       y       z     vdW  Elec       q    Type
REMARK                         _______ _______ _______ _____ _____    ______ ____
ROOT
ATOM     16  C   UNL     1      -4.299   0.533  25.188  0.00  0.00    +0.203 A 
ATOM     17  N   UNL     1      -4.566   0.066  25.815  0.00  0.00    -0.056 NA
ATOM     18  O   UNL     1      -4.251  -0.691  25.722  0.00  0.00    -0.336 OA
ATOM     19  C   UNL     1      -3.790  -0.693  25.037  0.00  0.00    +0.251 A 
ATOM     20  N   UNL     1      -3.820   0.064  24.708  0.00  0.00    -0.190 NA
ENDROOT
BRANCH  16  12
ATOM     10  C   UNL     1      -4.066   2.692  24.982  0.00  0.00    +0.132 A 
ATOM     11  C   UNL     1      -3.885   1.897  25.105  0.00  0.00    +0.037 A 
ATOM     12  C   UNL     1      -4.480   1.328  25.065  0.00  0.00    +0.043 A 
ATOM     13  C   UNL     1      -5.257   1.553  24.900  0.00  0.00    +0.024 A 
ATOM     14  C   UNL     1      -5.438   2.348  24.776  0.00  0.00    +0.100 A 
ATOM     15  N   UNL     1      -4.842   2.919  24.817  0.00  0.00    -0.229 NA
BRANCH  10   7
ATOM      1  C   UNL     1      -1.020   4.909  24.662  0.00  0.00    +0.095 C 
ATOM      2  C   UNL     1      -1.686   4.972  25.146  0.00  0.00    +0.226 C 
ATOM      3  O   UNL     1      -1.756   5.605  25.669  0.00  0.00    -0.275 OA
ATOM      4  N   UNL     1      -2.281   4.402  25.104  0.00  0.00    -0.276 N 
ATOM      5  C   UNL     1      -2.946   4.465  25.587  0.00  0.00    +0.115 C 
ATOM      6  C   UNL     1      -3.542   3.896  25.547  0.00  0.00    +0.114 C 
ATOM      7  N   UNL     1      -3.470   3.263  25.022  0.00  0.00    -0.290 N 
ATOM      8  C   UNL     1      -2.805   3.199  24.539  0.00  0.00    +0.114 C 
ATOM      9  C   UNL     1      -2.210   3.769  24.581  0.00  0.00    +0.115 C 
ENDBRANCH  10   7
ENDBRANCH  16  12
BRANCH  19  21
ATOM     21  C   UNL     1      -3.373  -1.337  24.735  0.00  0.00    +0.138 C 
ATOM     22  C   UNL     1      -3.702  -1.997  24.365  0.00  0.00    +0.027 C 
ATOM     23  C   UNL     1      -3.086  -2.502  24.151  0.00  0.00    +0.019 C 
ATOM     24  C   UNL     1      -2.376  -2.155  24.389  0.00  0.00    +0.073 C 
ATOM     25  N   UNL     1      -2.554  -1.434  24.750  0.00  0.00    -0.263 NA
BRANCH  25  26
ATOM     26  C   UNL     1      -2.008  -0.905  25.069  0.00  0.00    +0.099 C 
BRANCH  26  27
ATOM     27  C   UNL     1      -1.324  -0.715  24.650  0.00  0.00    -0.006 A 
ATOM     28  C   UNL     1      -1.312  -0.055  24.156  0.00  0.00    -0.002 A 
ATOM     29  C   UNL     1      -0.627   0.135  23.737  0.00  0.00    +0.018 A 
ATOM     30  C   UNL     1       0.046  -0.336  23.813  0.00  0.00    +0.106 A 
ATOM     31  C   UNL     1       0.035  -0.996  24.307  0.00  0.00    +0.018 A 
ATOM     32  C   UNL     1      -0.650  -1.186  24.726  0.00  0.00    -0.002 A 
BRANCH  30  33
ATOM     33  S   UNL     1       0.732  -0.145  23.393  0.00  0.00    +0.010 S 
ATOM     34  C   UNL     1       1.416   0.044  22.975  0.00  0.00    +0.182 C 
ATOM     35  O   UNL     1       0.775  -0.920  23.114  0.00  0.00    -0.169 OA
ATOM     36  O   UNL     1       0.688   0.630  23.674  0.00  0.00    -0.169 OA
ENDBRANCH  30  33
ENDBRANCH  26  27
ENDBRANCH  25  26
ENDBRANCH  19  21
TORSDOF 6
ENDMDL
MODEL 6
REMARK VINA RESULT:     -10.1      2.573      6.194
REMARK  Name = 
REMARK  6 active torsions:
REMARK  status: ('A' for Active; 'I' for Inactive)
REMARK    1  A    between atoms: N_7  and  C_10
REMARK    2  A    between atoms: C_12  and  C_16
REMARK    3  A    between atoms: C_19  and  C_21
REMARK    4  A    between atoms: N_25  and  C_26
REMARK    5  A    between atoms: C_26  and  C_27
REMARK    6  A    between atoms: C_30  and  S_33
REMARK                            x       y       z     vdW  Elec       q    Type
REMARK                         _______ _______ _______ _____ _____    ______ ____
ROOT
ATOM     16  C   UNL     1       0.284   0.283  23.679  0.00  0.00    +0.203 A 
ATOM     17  N   UNL     1      -0.187  -0.266  24.078  0.00  0.00    -0.056 NA
ATOM     18  O   UNL     1      -0.677   0.149  24.597  0.00  0.00    -0.336 OA
ATOM     19  C   UNL     1      -0.510   0.953  24.519  0.00  0.00    +0.251 A 
ATOM     20  N   UNL     1       0.084   1.036  23.951  0.00  0.00    -0.190 NA
ENDROOT
BRANCH  16  12
ATOM     10  C   UNL     1       2.224  -0.032  22.731  0.00  0.00    +0.132 A 
ATOM     11  C   UNL     1       1.654   0.142  23.302  0.00  0.00    +0.037 A 
ATOM     12  C   UNL     1       0.853   0.109  23.108  0.00  0.00    +0.043 A 
ATOM     13  C   UNL     1       0.621  -0.098  22.344  0.00  0.00    +0.024 A 
ATOM     14  C   UNL     1       1.191  -0.272  21.773  0.00  0.00    +0.100 A 
ATOM     15  N   UNL     1       1.993  -0.239  21.967  0.00  0.00    -0.229 NA
BRANCH  10   7
ATOM      1  C   UNL     1       5.796  -0.549  23.856  0.00  0.00    +0.095 C 
ATOM      2  C   UNL     1       5.429   0.101  23.504  0.00  0.00    +0.226 C 
ATOM      3  O   UNL     1       5.864   0.783  23.345  0.00  0.00    -0.275 OA
ATOM      4  N   UNL     1       4.628   0.067  23.311  0.00  0.00    -0.276 N 
ATOM      5  C   UNL     1       4.261   0.717  22.958  0.00  0.00    +0.115 C 
ATOM      6  C   UNL     1       3.460   0.684  22.765  0.00  0.00    +0.114 C 
ATOM      7  N   UNL     1       3.026   0.001  22.924  0.00  0.00    -0.290 N 
ATOM      8  C   UNL     1       3.392  -0.649  23.277  0.00  0.00    +0.114 C 
ATOM      9  C   UNL     1       4.193  -0.615  23.469  0.00  0.00    +0.115 C 
ENDBRANCH  10   7
ENDBRANCH  16  12
BRANCH  19  21
ATOM     21  C   UNL     1      -0.872   1.566  24.934  0.00  0.00    +0.138 C 
ATOM     22  C   UNL     1      -0.511   2.048  25.499  0.00  0.00    +0.027 C 
ATOM     23  C   UNL     1      -1.074   2.586  25.772  0.00  0.00    +0.019 C 
ATOM     24  C   UNL     1      -1.783   2.436  25.376  0.00  0.00    +0.073 C 
ATOM     25  N   UNL     1      -1.657   1.806  24.858  0.00  0.00    -0.263 NA
BRANCH  25  26
ATOM     26  C   UNL     1      -2.219   1.475  24.354  0.00  0.00    +0.099 C 
BRANCH  26  27
ATOM     27  C   UNL     1      -3.022   1.599  24.492  0.00  0.00    -0.006 A 
ATOM     28  C   UNL     1      -3.449   1.068  24.955  0.00  0.00    -0.002 A 
ATOM     29  C   UNL     1      -4.253   1.192  25.093  0.00  0.00    +0.018 A 
ATOM     30  C   UNL     1      -4.630   1.850  24.767  0.00  0.00    +0.106 A 
ATOM     31  C   UNL     1      -4.203   2.382  24.303  0.00  0.00    +0.018 A 
ATOM     32  C   UNL     1      -3.400   2.257  24.165  0.00  0.00    -0.002 A 
BRANCH  30  33
ATOM     33  S   UNL     1      -5.434   1.975  24.905  0.00  0.00    +0.010 S 
ATOM     34  C   UNL     1      -6.237   2.100  25.043  0.00  0.00    +0.182 C 
ATOM     35  O   UNL     1      -5.602   1.224  24.608  0.00  0.00    -0.169 OA
ATOM     36  O   UNL     1      -5.266   2.726  25.202  0.00  0.00    -0.169 OA
ENDBRANCH  30  33
ENDBRANCH  26  27
ENDBRANCH  25  26
ENDBRANCH  19  21
TORSDOF 6
ENDMDL
MODEL 7
REMARK VINA RESULT:     -10.0      2.129      6.038
REMARK  Name = 
REMARK  6 active torsions:
REMARK  status: ('A' for Active; 'I' for Inactive)
REMARK    1  A    between atoms: N_7  and  C_10
REMARK    2  A    between atoms: C_12  and  C_16
REMARK    3  A    between atoms: C_19  and  C_21
REMARK    4  A    between atoms: N_25  and  C_26
REMARK    5  A    between atoms: C_26  and  C_27
REMARK    6  A    between atoms: C_30  and  S_33
REMARK                            x       y       z     vdW  Elec       q    Type
REMARK                         _______ _______ _______ _____ _____    ______ ____
ROOT
ATOM     16  C   UNL     1      -3.976  -0.294  24.829  0.00  0.00    +0.203 A 
ATOM     17  N   UNL     1      -4.690  -0.452  24.446  0.00  0.00    -0.056 NA
ATOM     18  O   UNL     1      -5.188   0.197  24.557  0.00  0.00    -0.336 OA
ATOM     19  C   UNL     1      -4.782   0.755  25.009  0.00  0.00    +0.251 A 
ATOM     20  N   UNL     1      -4.033   0.452  25.177  0.00  0.00    -0.190 NA
ENDROOT
BRANCH  16  12
ATOM     10  C   UNL     1      -1.938  -1.038  24.597  0.00  0.00    +0.132 A 
ATOM     11  C   UNL     1      -2.594  -0.538  24.567  0.00  0.00    +0.037 A 
ATOM     12  C   UNL     1      -3.321  -0.794  24.859  0.00  0.00    +0.043 A 
ATOM     13  C   UNL     1      -3.394  -1.550  25.180  0.00  0.00    +0.024 A 
ATOM     14  C   UNL     1      -2.739  -2.050  25.210  0.00  0.00    +0.100 A 
ATOM     15  N   UNL     1      -2.010  -1.794  24.918  0.00  0.00    -0.229 NA
BRANCH  10   7
ATOM      1  C   UNL     1       1.185   0.781  23.487  0.00  0.00    +0.095 C 
ATOM      2  C   UNL     1       0.974  -0.014  23.429  0.00  0.00    +0.226 C 
ATOM      3  O   UNL     1       1.491  -0.553  23.080  0.00  0.00    -0.275 OA
ATOM      4  N   UNL     1       0.246  -0.270  23.721  0.00  0.00    -0.276 N 
ATOM      5  C   UNL     1       0.035  -1.065  23.664  0.00  0.00    +0.115 C 
ATOM      6  C   UNL     1      -0.693  -1.322  23.955  0.00  0.00    +0.114 C 
ATOM      7  N   UNL     1      -1.210  -0.782  24.305  0.00  0.00    -0.290 N 
ATOM      8  C   UNL     1      -0.998   0.014  24.362  0.00  0.00    +0.114 C 
ATOM      9  C   UNL     1      -0.271   0.269  24.071  0.00  0.00    +0.115 C 
ENDBRANCH  10   7
ENDBRANCH  16  12
BRANCH  19  21
ATOM     21  C   UNL     1      -5.074   1.488  25.251  0.00  0.00    +0.138 C 
ATOM     22  C   UNL     1      -5.702   1.612  25.772  0.00  0.00    +0.027 C 
ATOM     23  C   UNL     1      -5.805   2.426  25.857  0.00  0.00    +0.019 C 
ATOM     24  C   UNL     1      -5.241   2.805  25.389  0.00  0.00    +0.073 C 
ATOM     25  N   UNL     1      -4.789   2.225  25.014  0.00  0.00    -0.263 NA
BRANCH  25  26
ATOM     26  C   UNL     1      -4.163   2.359  24.494  0.00  0.00    +0.099 C 
BRANCH  26  27
ATOM     27  C   UNL     1      -3.614   2.953  24.654  0.00  0.00    -0.006 A 
ATOM     28  C   UNL     1      -3.019   2.826  25.212  0.00  0.00    -0.002 A 
ATOM     29  C   UNL     1      -2.469   3.420  25.372  0.00  0.00    +0.018 A 
ATOM     30  C   UNL     1      -2.514   4.141  24.974  0.00  0.00    +0.106 A 
ATOM     31  C   UNL     1      -3.109   4.268  24.417  0.00  0.00    +0.018 A 
ATOM     32  C   UNL     1      -3.658   3.675  24.257  0.00  0.00    -0.002 A 
BRANCH  30  33
ATOM     33  S   UNL     1      -1.964   4.736  25.135  0.00  0.00    +0.010 S 
ATOM     34  C   UNL     1      -1.415   5.329  25.295  0.00  0.00    +0.182 C 
ATOM     35  O   UNL     1      -1.459   4.421  24.564  0.00  0.00    -0.169 OA
ATOM     36  O   UNL     1      -2.470   5.050  25.706  0.00  0.00    -0.169 OA
ENDBRANCH  30  33
ENDBRANCH  26  27
ENDBRANCH  25  26
ENDBRANCH  19  21
TORSDOF 6
ENDMDL
MODEL 8
REMARK VINA RESULT:      -9.9      2.086      4.332
REMARK  Name = 
REMARK  6 active torsions:
REMARK  status: ('A' for Active; 'I' for Inactive)
REMARK    1  A    between atoms: N_7  and  C_10
REMARK    2  A    between atoms: C_12  and  C_16
REMARK    3  A    between atoms: C_19  and  C_21
REMARK    4  A    between atoms: N_25  and  C_26
REMARK    5  A    between atoms: C_26  and  C_27
REMARK    6  A    between atoms: C_30  and  S_33
REMARK                            x       y       z     vdW  Elec       q    Type
REMARK                         _______ _______ _______ _____ _____    ______ ____
ROOT
ATOM     16  C   UNL     1      -1.638  -0.923  24.609  0.00  0.00    +0.203 A 
ATOM     17  N   UNL     1      -1.017  -1.431  24.804  0.00  0.00    -0.056 NA
ATOM     18  O   UNL     1      -0.308  -1.048  24.625  0.00  0.00    -0.336 OA
ATOM     19  C   UNL     1      -0.491  -0.304  24.319  0.00  0.00    +0.251 A 
ATOM     20  N   UNL     1      -1.313  -0.227  24.309  0.00  0.00    -0.190 NA
ENDROOT
BRANCH  16  12
ATOM     10  C   UNL     1      -3.786  -0.625  24.848  0.00  0.00    +0.132 A 
ATOM     11  C   UNL     1      -2.982  -0.464  24.758  0.00  0.00    +0.037 A 
ATOM     12  C   UNL     1      -2.442  -1.084  24.698  0.00  0.00    +0.043 A 
ATOM     13  C   UNL     1      -2.705  -1.866  24.728  0.00  0.00    +0.024 A 
ATOM     14  C   UNL     1      -3.509  -2.026  24.817  0.00  0.00    +0.100 A 
ATOM     15  N   UNL     1      -4.050  -1.406  24.877  0.00  0.00    -0.229 NA
BRANCH  10   7
ATOM      1  C   UNL     1      -5.758   2.529  25.522  0.00  0.00    +0.095 C 
ATOM      2  C   UNL     1      -5.950   1.855  25.087  0.00  0.00    +0.226 C 
ATOM      3  O   UNL     1      -6.682   1.802  24.712  0.00  0.00    -0.275 OA
ATOM      4  N   UNL     1      -5.408   1.236  25.027  0.00  0.00    -0.276 N 
ATOM      5  C   UNL     1      -5.600   0.562  24.592  0.00  0.00    +0.115 C 
ATOM      6  C   UNL     1      -5.060  -0.059  24.532  0.00  0.00    +0.114 C 
ATOM      7  N   UNL     1      -4.327  -0.004  24.908  0.00  0.00    -0.290 N 
ATOM      8  C   UNL     1      -4.136   0.670  25.343  0.00  0.00    +0.114 C 
ATOM      9  C   UNL     1      -4.676   1.289  25.403  0.00  0.00    +0.115 C 
ENDBRANCH  10   7
ENDBRANCH  16  12
BRANCH  19  21
ATOM     21  C   UNL     1       0.052   0.264  24.067  0.00  0.00    +0.138 C 
ATOM     22  C   UNL     1       0.591   0.178  23.448  0.00  0.00    +0.027 C 
ATOM     23  C   UNL     1       1.024   0.878  23.388  0.00  0.00    +0.019 C 
ATOM     24  C   UNL     1       0.752   1.397  23.969  0.00  0.00    +0.073 C 
ATOM     25  N   UNL     1       0.151   1.017  24.389  0.00  0.00    -0.263 NA
BRANCH  25  26
ATOM     26  C   UNL     1      -0.275   1.335  25.020  0.00  0.00    +0.099 C 
BRANCH  26  27
ATOM     27  C   UNL     1      -0.469   2.136  25.025  0.00  0.00    -0.006 A 
ATOM     28  C   UNL     1      -1.010   2.433  24.478  0.00  0.00    -0.002 A 
ATOM     29  C   UNL     1      -1.205   3.235  24.483  0.00  0.00    +0.018 A 
ATOM     30  C   UNL     1      -0.857   3.740  25.035  0.00  0.00    +0.106 A 
ATOM     31  C   UNL     1      -0.316   3.443  25.581  0.00  0.00    +0.018 A 
ATOM     32  C   UNL     1      -0.121   2.642  25.577  0.00  0.00    -0.002 A 
BRANCH  30  33
ATOM     33  S   UNL     1      -1.052   4.542  25.039  0.00  0.00    +0.010 S 
ATOM     34  C   UNL     1      -1.246   5.343  25.044  0.00  0.00    +0.182 C 
ATOM     35  O   UNL     1      -1.723   4.376  25.489  0.00  0.00    -0.169 OA
ATOM     36  O   UNL     1      -0.380   4.707  24.589  0.00  0.00    -0.169 OA
ENDBRANCH  30  33
ENDBRANCH  26  27
ENDBRANCH  25  26
ENDBRANCH  19  21
TORSDOF 6
ENDMDL
