MODEL 1
REMARK VINA RESULT:     -14.6      0.000      0.000
REMARK  Name = 
REMARK  4 active torsions:
REMARK  status: ('A' for Active; 'I' for Inactive)
REMARK    1  A    between atoms: O_2  and  C_3
REMARK    2  A    between atoms: C_8  and  N_9
REMARK    3  A    between atoms: C_19  and  C_26
REMARK    4  A    between atoms: C_29  and  S_30
REMARK                            x       y       z     vdW  Elec       q    Type
REMARK                         _______ _______ _______ _____ _____    ______ ____
ROOT
ATOM      9  N   UNL     1      -3.629   3.112  25.038  0.00  0.00    -0.159 NA
ATOM     10  C   UNL     1      -4.395   3.405  25.131  0.00  0.00    +0.328 C 
ATOM     11  O   UNL     1      -4.517   4.213  25.239  0.00  0.00    -0.250 OA
ATOM     12  N   UNL     1      -5.038   2.889  25.118  0.00  0.00    -0.262 N 
ATOM     13  C   UNL     1      -5.833   2.634  25.148  0.00  0.00    +0.097 C 
ATOM     14  C   UNL     1      -5.701   1.663  25.020  0.00  0.00    +0.043 C 
ATOM     15  C   UNL     1      -5.761   0.856  24.927  0.00  0.00    +0.011 C 
ATOM     16  C   UNL     1      -5.253   1.339  24.947  0.00  0.00    +0.058 C 
ATOM     17  C   UNL     1      -5.397   2.275  25.071  0.00  0.00    +0.101 C 
ATOM     18  C   UNL     1      -4.340   1.428  24.888  0.00  0.00    +0.041 A 
ATOM     19  C   UNL     1      -3.658   0.977  24.781  0.00  0.00    +0.012 A 
ATOM     20  C   UNL     1      -2.919   1.343  24.769  0.00  0.00    +0.006 A 
ATOM     21  C   UNL     1      -2.861   2.161  24.864  0.00  0.00    +0.061 A 
ATOM     22  C   UNL     1      -3.543   2.612  24.971  0.00  0.00    +0.261 A 
ATOM     23  O   UNL     1      -3.015   3.244  25.007  0.00  0.00    -0.267 OA
ATOM     24  N   UNL     1      -4.283   2.246  24.983  0.00  0.00    -0.299 N 
ATOM     25  C   UNL     1      -4.748   1.766  24.960  0.00  0.00    +0.110 C 
ENDROOT
BRANCH   9   8
ATOM      3  C   UNL     1      -2.709   3.923  25.771  0.00  0.00    +0.154 A 
ATOM      4  C   UNL     1      -2.066   4.440  25.785  0.00  0.00    +0.038 A 
ATOM      5  C   UNL     1      -1.700   4.662  25.081  0.00  0.00    +0.003 A 
ATOM      6  C   UNL     1      -1.976   4.367  24.361  0.00  0.00    +0.002 A 
ATOM      7  C   UNL     1      -2.619   3.851  24.347  0.00  0.00    +0.020 A 
ATOM      8  C   UNL     1      -2.986   3.628  25.051  0.00  0.00    +0.109 A 
BRANCH   3   2
ATOM      1  C   UNL     1      -2.824   4.026  27.191  0.00  0.00    +0.253 C 
ATOM      2  O   UNL     1      -3.075   3.701  26.476  0.00  0.00    -0.470 OA
ENDBRANCH   3   2
ENDBRANCH   9   8
BRANCH  19  26
ATOM     26  C   UNL     1      -3.715   0.159  24.687  0.00  0.00    +0.001 A 
ATOM     27  C   UNL     1      -3.668  -0.337  25.344  0.00  0.00    +0.001 A 
ATOM     28  C   UNL     1      -3.725  -1.154  25.250  0.00  0.00    +0.006 A 
ATOM     29  C   UNL     1      -3.829  -1.476  24.497  0.00  0.00    +0.025 A 
ATOM     32  C   UNL     1      -3.877  -0.981  23.840  0.00  0.00    +0.006 A 
ATOM     33  C   UNL     1      -3.819  -0.163  23.934  0.00  0.00    +0.001 A 
BRANCH  29  30
ATOM     30  S   UNL     1      -3.887  -2.293  24.403  0.00  0.00    -0.113 S 
ATOM     31  C   UNL     1      -3.253  -2.779  24.612  0.00  0.00    +0.074 C 
ENDBRANCH  29  30
ENDBRANCH  19  26
TORSDOF 4
ENDMDL
MODEL 2
REMARK VINA RESULT:     -14.1      1.077      2.134
REMARK  Name = 
REMARK  4 active torsions:
REMARK  status: ('A' for Active; 'I' for Inactive)
REMARK    1  A    between atoms: O_2  and  C_3
REMARK    2  A    between atoms: C_8  and  N_9
REMARK    3  A    between atoms: C_19  and  C_26
REMARK    4  A    between atoms: C_29  and  S_30
REMARK                            x       y       z     vdW  Elec       q    Type
REMARK                         _______ _______ _______ _____ _____    ______ ____
ROOT
ATOM      9  N   UNL     1      -4.161   2.528  24.544  0.00  0.00    -0.159 NA
ATOM     10  C   UNL     1      -3.714   2.841  23.924  0.00  0.00    +0.328 C 
ATOM     11  O   UNL     1      -3.723   3.653  23.778  0.00  0.00    -0.250 OA
ATOM     12  N   UNL     1      -3.257   2.342  23.451  0.00  0.00    -0.262 N 
ATOM     13  C   UNL     1      -2.734   2.108  22.844  0.00  0.00    +0.097 C 
ATOM     14  C   UNL     1      -2.714   1.134  23.008  0.00  0.00    +0.043 C 
ATOM     15  C   UNL     1      -2.590   0.329  23.012  0.00  0.00    +0.011 C 
ATOM     16  C   UNL     1      -2.959   0.799  23.380  0.00  0.00    +0.058 C 
ATOM     17  C   UNL     1      -2.968   1.738  23.208  0.00  0.00    +0.101 C 
ATOM     18  C   UNL     1      -3.538   0.863  24.091  0.00  0.00    +0.041 A 
ATOM     19  C   UNL     1      -3.916   0.394  24.654  0.00  0.00    +0.012 A 
ATOM     20  C   UNL     1      -4.416   0.741  25.211  0.00  0.00    +0.006 A 
ATOM     21  C   UNL     1      -4.538   1.557  25.205  0.00  0.00    +0.061 A 
ATOM     22  C   UNL     1      -4.161   2.026  24.642  0.00  0.00    +0.261 A 
ATOM     23  O   UNL     1      -4.558   2.644  25.017  0.00  0.00    -0.267 OA
ATOM     24  N   UNL     1      -3.661   1.679  24.085  0.00  0.00    -0.299 N 
ATOM     25  C   UNL     1      -3.319   1.211  23.749  0.00  0.00    +0.110 C 
ENDROOT
BRANCH   9   8
ATOM      3  C   UNL     1      -4.254   3.497  25.590  0.00  0.00    +0.154 A 
ATOM      4  C   UNL     1      -4.710   3.997  26.063  0.00  0.00    +0.038 A 
ATOM      5  C   UNL     1      -5.528   4.027  25.961  0.00  0.00    +0.003 A 
ATOM      6  C   UNL     1      -5.890   3.558  25.387  0.00  0.00    +0.002 A 
ATOM      7  C   UNL     1      -5.434   3.059  24.915  0.00  0.00    +0.020 A 
ATOM      8  C   UNL     1      -4.617   3.027  25.016  0.00  0.00    +0.109 A 
BRANCH   3   2
ATOM      1  C   UNL     1      -3.071   3.952  26.248  0.00  0.00    +0.253 C 
ATOM      2  O   UNL     1      -3.436   3.466  25.691  0.00  0.00    -0.470 OA
ENDBRANCH   3   2
ENDBRANCH   9   8
BRANCH  19  26
ATOM     26  C   UNL     1      -3.793  -0.422  24.660  0.00  0.00    +0.001 A 
ATOM     27  C   UNL     1      -3.221  -0.749  25.156  0.00  0.00    +0.001 A 
ATOM     28  C   UNL     1      -3.098  -1.565  25.162  0.00  0.00    +0.006 A 
ATOM     29  C   UNL     1      -3.548  -2.054  24.673  0.00  0.00    +0.025 A 
ATOM     32  C   UNL     1      -4.121  -1.727  24.177  0.00  0.00    +0.006 A 
ATOM     33  C   UNL     1      -4.243  -0.911  24.171  0.00  0.00    +0.001 A 
BRANCH  29  30
ATOM     30  S   UNL     1      -3.426  -2.869  24.679  0.00  0.00    -0.113 S 
ATOM     31  C   UNL     1      -2.747  -3.188  24.334  0.00  0.00    +0.074 C 
ENDBRANCH  29  30
ENDBRANCH  19  26
TORSDOF 4
ENDMDL
MODEL 3
REMARK VINA RESULT:     -13.9      2.017      4.229
REMARK  Name = 
REMARK  4 active torsions:
REMARK  status: ('A' for Active; 'I' for Inactive)
REMARK    1  A    between atoms: O_2  and  C_3
REMARK    2  A    between atoms: C_8  and  N_9
REMARK    3  A    between atoms: C_19  and  C_26
REMARK    4  A    between atoms: C_29  and  S_30
REMARK                            x       y       z     vdW  Elec       q    Type
REMARK                         _______ _______ _______ _____ _____    ______ ____
ROOT
ATOM      9  N   UNL     1      -4.094   0.232  24.665  0.00  0.00    -0.159 NA
ATOM     10  C   UNL     1      -4.870   0.467  24.822  0.00  0.00    +0.328 C 
ATOM     11  O   UNL     1      -5.480  -0.088  24.808  0.00  0.00    -0.250 OA
ATOM     12  N   UNL     1      -5.035   1.258  24.992  0.00  0.00    -0.262 N 
ATOM     13  C   UNL     1      -5.484   1.936  25.184  0.00  0.00    +0.097 C 
ATOM     14  C   UNL     1      -4.762   2.611  25.203  0.00  0.00    +0.043 C 
ATOM     15  C   UNL     1      -4.293   3.275  25.258  0.00  0.00    +0.011 C 
ATOM     16  C   UNL     1      -4.211   2.592  25.119  0.00  0.00    +0.058 C 
ATOM     17  C   UNL     1      -4.919   1.952  25.104  0.00  0.00    +0.101 C 
ATOM     18  C   UNL     1      -3.566   1.972  24.910  0.00  0.00    +0.041 A 
ATOM     19  C   UNL     1      -2.754   1.911  24.780  0.00  0.00    +0.012 A 
ATOM     20  C   UNL     1      -2.420   1.180  24.596  0.00  0.00    +0.006 A 
ATOM     21  C   UNL     1      -2.898   0.509  24.542  0.00  0.00    +0.061 A 
ATOM     22  C   UNL     1      -3.710   0.570  24.671  0.00  0.00    +0.261 A 
ATOM     23  O   UNL     1      -3.707  -0.241  24.521  0.00  0.00    -0.267 OA
ATOM     24  N   UNL     1      -4.044   1.301  24.856  0.00  0.00    -0.299 N 
ATOM     25  C   UNL     1      -4.096   1.956  24.985  0.00  0.00    +0.110 C 
ENDROOT
BRANCH   9   8
ATOM      3  C   UNL     1      -3.759  -1.084  25.107  0.00  0.00    +0.154 A 
ATOM      4  C   UNL     1      -3.594  -1.875  24.937  0.00  0.00    +0.038 A 
ATOM      5  C   UNL     1      -3.600  -2.139  24.156  0.00  0.00    +0.003 A 
ATOM      6  C   UNL     1      -3.771  -1.612  23.543  0.00  0.00    +0.002 A 
ATOM      7  C   UNL     1      -3.935  -0.822  23.714  0.00  0.00    +0.020 A 
ATOM      8  C   UNL     1      -3.930  -0.557  24.495  0.00  0.00    +0.109 A 
BRANCH   3   2
ATOM      1  C   UNL     1      -3.574  -1.345  26.499  0.00  0.00    +0.253 C 
ATOM      2  O   UNL     1      -3.753  -0.821  25.888  0.00  0.00    -0.470 OA
ENDBRANCH   3   2
ENDBRANCH   9   8
BRANCH  19  26
ATOM     26  C   UNL     1      -2.276   2.581  24.835  0.00  0.00    +0.001 A 
ATOM     27  C   UNL     1      -2.129   3.038  24.164  0.00  0.00    +0.001 A 
ATOM     28  C   UNL     1      -1.651   3.709  24.219  0.00  0.00    +0.006 A 
ATOM     29  C   UNL     1      -1.321   3.922  24.944  0.00  0.00    +0.025 A 
ATOM     32  C   UNL     1      -1.468   3.465  25.615  0.00  0.00    +0.006 A 
ATOM     33  C   UNL     1      -1.946   2.795  25.560  0.00  0.00    +0.001 A 
BRANCH  29  30
ATOM     30  S   UNL     1      -0.843   4.592  24.999  0.00  0.00    -0.113 S 
ATOM     31  C   UNL     1      -1.184   5.344  24.998  0.00  0.00    +0.074 C 
ENDBRANCH  29  30
ENDBRANCH  19  26
TORSDOF 4
ENDMDL
MODEL 4
REMARK VINA RESULT:     -13.7      1.326      2.620
REMARK  Name = 
REMARK  4 active torsions:
REMARK  status: ('A' for Active; 'I' for Inactive)
REMARK    1  A    between atoms: O_2  and  C_3
REMARK    2  A    between atoms: C_8  and  N_9
REMARK    3  A    between atoms: C_19  and  C_26
REMARK    4  A    between atoms: C_29  and  S_30
REMARK                            x       y       z     vdW  Elec       q    Type
REMARK                         _______ _______ _______ _____ _____    ______ ____
ROOT
ATOM      9  N   UNL     1      -3.049   2.289  25.003  0.00  0.00    -0.159 NA
ATOM     10  C   UNL     1      -2.246   2.482  25.019  0.00  0.00    +0.328 C 
ATOM     11  O   UNL     1      -2.012   3.272  25.047  0.00  0.00    -0.250 OA
ATOM     12  N   UNL     1      -1.678   1.883  25.008  0.00  0.00    -0.262 N 
ATOM     13  C   UNL     1      -0.923   1.525  25.006  0.00  0.00    +0.097 C 
ATOM     14  C   UNL     1      -1.191   0.574  24.973  0.00  0.00    +0.043 C 
ATOM     15  C   UNL     1      -1.244  -0.238  24.947  0.00  0.00    +0.011 C 
ATOM     16  C   UNL     1      -1.682   0.310  24.959  0.00  0.00    +0.058 C 
ATOM     17  C   UNL     1      -1.407   1.224  24.991  0.00  0.00    +0.101 C 
ATOM     18  C   UNL     1      -2.577   0.518  24.954  0.00  0.00    +0.041 A 
ATOM     19  C   UNL     1      -3.318   0.156  24.934  0.00  0.00    +0.012 A 
ATOM     20  C   UNL     1      -4.002   0.618  24.940  0.00  0.00    +0.006 A 
ATOM     21  C   UNL     1      -3.945   1.441  24.966  0.00  0.00    +0.061 A 
ATOM     22  C   UNL     1      -3.203   1.802  24.986  0.00  0.00    +0.261 A 
ATOM     23  O   UNL     1      -3.641   2.501  25.002  0.00  0.00    -0.267 OA
ATOM     24  N   UNL     1      -2.520   1.340  24.980  0.00  0.00    -0.299 N 
ATOM     25  C   UNL     1      -2.124   0.801  24.969  0.00  0.00    +0.110 C 
ENDROOT
BRANCH   9   8
ATOM      3  C   UNL     1      -3.842   3.255  24.311  0.00  0.00    +0.154 A 
ATOM      4  C   UNL     1      -4.410   3.854  24.322  0.00  0.00    +0.038 A 
ATOM      5  C   UNL     1      -4.750   4.086  25.036  0.00  0.00    +0.003 A 
ATOM      6  C   UNL     1      -4.524   3.719  25.740  0.00  0.00    +0.002 A 
ATOM      7  C   UNL     1      -3.957   3.120  25.728  0.00  0.00    +0.020 A 
ATOM      8  C   UNL     1      -3.616   2.888  25.015  0.00  0.00    +0.109 A 
BRANCH   3   2
ATOM      1  C   UNL     1      -3.731   3.386  22.892  0.00  0.00    +0.253 C 
ATOM      2  O   UNL     1      -3.501   3.023  23.597  0.00  0.00    -0.470 OA
ENDBRANCH   3   2
ENDBRANCH   9   8
BRANCH  19  26
ATOM     26  C   UNL     1      -3.375  -0.666  24.908  0.00  0.00    +0.001 A 
ATOM     27  C   UNL     1      -3.448  -1.052  24.182  0.00  0.00    +0.001 A 
ATOM     28  C   UNL     1      -3.506  -1.875  24.156  0.00  0.00    +0.006 A 
ATOM     29  C   UNL     1      -3.490  -2.312  24.855  0.00  0.00    +0.025 A 
ATOM     32  C   UNL     1      -3.417  -1.926  25.581  0.00  0.00    +0.006 A 
ATOM     33  C   UNL     1      -3.360  -1.104  25.607  0.00  0.00    +0.001 A 
BRANCH  29  30
ATOM     30  S   UNL     1      -3.547  -3.134  24.829  0.00  0.00    -0.113 S 
ATOM     31  C   UNL     1      -3.536  -3.526  24.103  0.00  0.00    +0.074 C 
ENDBRANCH  29  30
ENDBRANCH  19  26
TORSDOF 4
ENDMDL
MODEL 5
REMARK VINA RESULT:     -13.1      2.587      5.060
REMARK  Name = 
REMARK  4 active torsions:
REMARK  status: ('A' for Active; 'I' for Inactive)
REMARK    1  A    between atoms: O_2  and  C_3
REMARK    2  A    between atoms: C_8  and  N_9
REMARK    3  A    between atoms: C_19  and  C_26
REMARK    4  A    between atoms: C_29  and  S_30
REMARK                            x       y       z     vdW  Elec       q    Type
REMARK                         _______ _______ _______ _____ _____    ______ ____
ROOT
ATOM      9  N   UNL     1      -2.349  -0.407  24.485  0.00  0.00    -0.159 NA
ATOM     10  C   UNL     1      -1.596  -0.740  24.418  0.00  0.00    +0.328 C 
ATOM     11  O   UNL     1      -1.513  -1.550  24.290  0.00  0.00    -0.250 OA
ATOM     12  N   UNL     1      -0.927  -0.261  24.480  0.00  0.00    -0.262 N 
ATOM     13  C   UNL     1      -0.119  -0.051  24.496  0.00  0.00    +0.097 C 
ATOM     14  C   UNL     1      -0.204   0.922  24.650  0.00  0.00    +0.043 C 
ATOM     15  C   UNL     1      -0.105   1.721  24.773  0.00  0.00    +0.011 C 
ATOM     16  C   UNL     1      -0.637   1.268  24.713  0.00  0.00    +0.058 C 
ATOM     17  C   UNL     1      -0.538   0.329  24.564  0.00  0.00    +0.101 C 
ATOM     18  C   UNL     1      -1.555   1.228  24.726  0.00  0.00    +0.041 A 
ATOM     19  C   UNL     1      -2.216   1.714  24.815  0.00  0.00    +0.012 A 
ATOM     20  C   UNL     1      -2.974   1.390  24.779  0.00  0.00    +0.006 A 
ATOM     21  C   UNL     1      -3.071   0.580  24.655  0.00  0.00    +0.061 A 
ATOM     22  C   UNL     1      -2.410   0.094  24.565  0.00  0.00    +0.261 A 
ATOM     23  O   UNL     1      -2.970  -0.505  24.483  0.00  0.00    -0.267 OA
ATOM     24  N   UNL     1      -1.652   0.419  24.601  0.00  0.00    -0.299 N 
ATOM     25  C   UNL     1      -1.163   0.871  24.662  0.00  0.00    +0.110 C 
ENDROOT
BRANCH   9   8
ATOM      3  C   UNL     1      -3.280  -1.314  25.080  0.00  0.00    +0.154 A 
ATOM      4  C   UNL     1      -3.949  -1.793  25.019  0.00  0.00    +0.038 A 
ATOM      5  C   UNL     1      -4.355  -1.845  24.303  0.00  0.00    +0.003 A 
ATOM      6  C   UNL     1      -4.093  -1.417  23.647  0.00  0.00    +0.002 A 
ATOM      7  C   UNL     1      -3.424  -0.938  23.709  0.00  0.00    +0.020 A 
ATOM      8  C   UNL     1      -3.018  -0.886  24.424  0.00  0.00    +0.109 A 
BRANCH   3   2
ATOM      1  C   UNL     1      -3.152  -1.667  26.458  0.00  0.00    +0.253 C 
ATOM      2  O   UNL     1      -2.874  -1.262  25.795  0.00  0.00    -0.470 OA
ENDBRANCH   3   2
ENDBRANCH   9   8
BRANCH  19  26
ATOM     26  C   UNL     1      -2.119   2.524  24.940  0.00  0.00    +0.001 A 
ATOM     27  C   UNL     1      -2.100   3.041  24.297  0.00  0.00    +0.001 A 
ATOM     28  C   UNL     1      -2.003   3.851  24.422  0.00  0.00    +0.006 A 
ATOM     29  C   UNL     1      -1.925   4.144  25.189  0.00  0.00    +0.025 A 
ATOM     32  C   UNL     1      -1.943   3.627  25.832  0.00  0.00    +0.006 A 
ATOM     33  C   UNL     1      -2.040   2.817  25.707  0.00  0.00    +0.001 A 
BRANCH  29  30
ATOM     30  S   UNL     1      -1.828   4.952  25.314  0.00  0.00    -0.113 S 
ATOM     31  C   UNL     1      -1.193   5.351  24.968  0.00  0.00    +0.074 C 
ENDBRANCH  29  30
ENDBRANCH  19  26
TORSDOF 4
ENDMDL
