MODEL 1
REMARK VINA RESULT:     -11.1      0.000      0.000
REMARK  Name = 
REMARK  6 active torsions:
REMARK  status: ('A' for Active; 'I' for Inactive)
REMARK    1  A    between atoms: C_2  and  C_3
REMARK    2  A    between atoms: C_3  and  S_4
REMARK    3  A    between atoms: S_4  and  N_7
REMARK    4  A    between atoms: N_7  and  C_8
REMARK    5  A    between atoms: C_10  and  C_14
REMARK    6  A    between atoms: C_16  and  C_19
REMARK                            x       y       z     vdW  Elec       q    Type
REMARK                         _______ _______ _______ _____ _____    ______ ____
ROOT
ATOM      8  C   UNL     1      -3.799   2.965  25.388  0.00  0.00    +0.115 C 
ATOM      9  C   UNL     1      -3.437   2.295  25.069  0.00  0.00    +0.046 C 
ATOM     10  C   UNL     1      -4.031   1.784  24.811  0.00  0.00    +0.139 C 
ATOM     11  N   UNL     1      -4.759   2.138  24.971  0.00  0.00    -0.264 NA
ATOM     12  C   UNL     1      -5.501   1.818  24.804  0.00  0.00    +0.090 C 
ATOM     13  C   UNL     1      -4.615   2.868  25.328  0.00  0.00    +0.092 C 
ENDROOT
BRANCH  10  14
ATOM     14  C   UNL     1      -3.917   1.048  24.456  0.00  0.00    +0.251 A 
ATOM     15  N   UNL     1      -3.923   0.318  24.840  0.00  0.00    -0.190 NA
ATOM     16  C   UNL     1      -3.787  -0.268  24.276  0.00  0.00    +0.203 A 
ATOM     17  N   UNL     1      -3.696   0.099  23.543  0.00  0.00    -0.056 NA
ATOM     18  O   UNL     1      -3.777   0.913  23.654  0.00  0.00    -0.336 OA
BRANCH  16  19
ATOM     19  C   UNL     1      -3.747  -1.080  24.419  0.00  0.00    +0.039 A 
ATOM     20  C   UNL     1      -4.139  -1.607  23.920  0.00  0.00    +0.003 A 
ATOM     21  C   UNL     1      -4.100  -2.418  24.063  0.00  0.00    +0.000 A 
ATOM     22  C   UNL     1      -3.668  -2.703  24.706  0.00  0.00    +0.000 A 
ATOM     23  C   UNL     1      -3.276  -2.176  25.205  0.00  0.00    +0.000 A 
ATOM     24  C   UNL     1      -3.315  -1.364  25.062  0.00  0.00    +0.003 A 
ENDBRANCH  16  19
ENDBRANCH  10  14
BRANCH   8   7
ATOM      7  N   UNL     1      -3.411   3.617  25.711  0.00  0.00    -0.082 NA
BRANCH   7   4
ATOM      4  S   UNL     1      -2.720   3.902  25.360  0.00  0.00    +0.057 S 
ATOM      5  O   UNL     1      -2.271   3.507  25.927  0.00  0.00    -0.156 OA
ATOM      6  O   UNL     1      -3.171   4.297  24.794  0.00  0.00    -0.156 OA
BRANCH   4   3
ATOM      3  C   UNL     1      -2.030   4.186  25.011  0.00  0.00    +0.171 C 
BRANCH   3   2
ATOM      1  C   UNL     1      -0.987   5.161  24.946  0.00  0.00    +0.002 C 
ATOM      2  C   UNL     1      -1.662   4.859  25.314  0.00  0.00    +0.027 C 
ENDBRANCH   3   2
ENDBRANCH   4   3
ENDBRANCH   7   4
ENDBRANCH   8   7
TORSDOF 6
ENDMDL
MODEL 2
REMARK VINA RESULT:     -10.8      2.633      5.675
REMARK  Name = 
REMARK  6 active torsions:
REMARK  status: ('A' for Active; 'I' for Inactive)
REMARK    1  A    between atoms: C_2  and  C_3
REMARK    2  A    between atoms: C_3  and  S_4
REMARK    3  A    between atoms: S_4  and  N_7
REMARK    4  A    between atoms: N_7  and  C_8
REMARK    5  A    between atoms: C_10  and  C_14
REMARK    6  A    between atoms: C_16  and  C_19
REMARK                            x       y       z     vdW  Elec       q    Type
REMARK                         _______ _______ _______ _____ _____    ______ ____
ROOT
ATOM      8  C   UNL     1      -1.081  -0.610  25.095  0.00  0.00    +0.115 C 
ATOM      9  C   UNL     1      -1.158   0.100  25.507  0.00  0.00    +0.046 C 
ATOM     10  C   UNL     1      -0.709   0.671  25.115  0.00  0.00    +0.139 C 
ATOM     11  N   UNL     1      -0.355   0.313  24.461  0.00  0.00    -0.264 NA
ATOM     12  C   UNL     1       0.141   0.682  23.916  0.00  0.00    +0.090 C 
ATOM     13  C   UNL     1      -0.586  -0.479  24.449  0.00  0.00    +0.092 C 
ENDROOT
BRANCH  10  14
ATOM     14  C   UNL     1      -0.628   1.461  25.339  0.00  0.00    +0.251 A 
ATOM     15  N   UNL     1      -1.141   2.076  25.142  0.00  0.00    -0.190 NA
ATOM     16  C   UNL     1      -0.849   2.770  25.480  0.00  0.00    +0.203 A 
ATOM     17  N   UNL     1      -0.156   2.584  25.886  0.00  0.00    -0.056 NA
ATOM     18  O   UNL     1      -0.018   1.775  25.798  0.00  0.00    -0.336 OA
BRANCH  16  19
ATOM     19  C   UNL     1      -1.192   3.519  25.423  0.00  0.00    +0.039 A 
ATOM     20  C   UNL     1      -0.780   4.134  25.059  0.00  0.00    +0.003 A 
ATOM     21  C   UNL     1      -1.122   4.882  25.002  0.00  0.00    +0.000 A 
ATOM     22  C   UNL     1      -1.876   5.015  25.308  0.00  0.00    +0.000 A 
ATOM     23  C   UNL     1      -2.289   4.400  25.671  0.00  0.00    +0.000 A 
ATOM     24  C   UNL     1      -1.946   3.651  25.729  0.00  0.00    +0.003 A 
ENDBRANCH  16  19
ENDBRANCH  10  14
BRANCH   8   7
ATOM      7  N   UNL     1      -1.438  -1.327  25.294  0.00  0.00    -0.082 NA
BRANCH   7   4
ATOM      4  S   UNL     1      -2.135  -1.559  24.919  0.00  0.00    +0.057 S 
ATOM      5  O   UNL     1      -1.695  -1.984  24.366  0.00  0.00    -0.156 OA
ATOM      6  O   UNL     1      -2.575  -1.134  25.473  0.00  0.00    -0.156 OA
BRANCH   4   3
ATOM      3  C   UNL     1      -2.831  -1.792  24.544  0.00  0.00    +0.171 C 
BRANCH   3   2
ATOM      1  C   UNL     1      -3.854  -2.768  24.330  0.00  0.00    +0.002 C 
ATOM      2  C   UNL     1      -3.187  -2.509  24.742  0.00  0.00    +0.027 C 
ENDBRANCH   3   2
ENDBRANCH   4   3
ENDBRANCH   7   4
ENDBRANCH   8   7
TORSDOF 6
ENDMDL
MODEL 3
REMARK VINA RESULT:     -10.7      2.212      2.736
REMARK  Name = 
REMARK  6 active torsions:
REMARK  status: ('A' for Active; 'I' for Inactive)
REMARK    1  A    between atoms: C_2  and  C_3
REMARK    2  A    between atoms: C_3  and  S_4
REMARK    3  A    between atoms: S_4  and  N_7
REMARK    4  A    between atoms: N_7  and  C_8
REMARK    5  A    between atoms: C_10  and  C_14
REMARK    6  A    between atoms: C_16  and  C_19
REMARK                            x       y       z     vdW  Elec       q    Type
REMARK                         _______ _______ _______ _____ _____    ______ ____
ROOT
ATOM      8  C   UNL     1      -0.368   1.862  25.159  0.00  0.00    +0.115 C 
ATOM      9  C   UNL     1      -0.953   1.362  25.457  0.00  0.00    +0.046 C 
ATOM     10  C   UNL     1      -0.921   0.653  25.036  0.00  0.00    +0.139 C 
ATOM     11  N   UNL     1      -0.316   0.716  24.478  0.00  0.00    -0.264 NA
ATOM     12  C   UNL     1      -0.092   0.134  23.938  0.00  0.00    +0.090 C 
ATOM     13  C   UNL     1       0.026   1.463  24.555  0.00  0.00    +0.092 C 
ENDROOT
BRANCH  10  14
ATOM     14  C   UNL     1      -1.407  -0.002  25.152  0.00  0.00    +0.251 A 
ATOM     15  N   UNL     1      -2.016  -0.249  24.652  0.00  0.00    -0.190 NA
ATOM     16  C   UNL     1      -2.356  -0.926  24.980  0.00  0.00    +0.203 A 
ATOM     17  N   UNL     1      -1.958  -1.097  25.681  0.00  0.00    -0.056 NA
ATOM     18  O   UNL     1      -1.372  -0.526  25.788  0.00  0.00    -0.336 OA
BRANCH  16  19
ATOM     19  C   UNL     1      -2.984  -1.356  24.661  0.00  0.00    +0.039 A 
ATOM     20  C   UNL     1      -3.637  -0.961  24.347  0.00  0.00    +0.003 A 
ATOM     21  C   UNL     1      -4.265  -1.391  24.029  0.00  0.00    +0.000 A 
ATOM     22  C   UNL     1      -4.240  -2.216  24.024  0.00  0.00    +0.000 A 
ATOM     23  C   UNL     1      -3.587  -2.610  24.337  0.00  0.00    +0.000 A 
ATOM     24  C   UNL     1      -2.959  -2.180  24.656  0.00  0.00    +0.003 A 
ENDBRANCH  16  19
ENDBRANCH  10  14
BRANCH   8   7
ATOM      7  N   UNL     1      -0.205   2.627  25.422  0.00  0.00    -0.082 NA
BRANCH   7   4
ATOM      4  S   UNL     1      -0.738   3.238  25.268  0.00  0.00    +0.057 S 
ATOM      5  O   UNL     1      -1.080   3.125  26.010  0.00  0.00    -0.156 OA
ATOM      6  O   UNL     1      -0.396   3.350  24.526  0.00  0.00    -0.156 OA
BRANCH   4   3
ATOM      3  C   UNL     1      -1.271   3.848  25.116  0.00  0.00    +0.171 C 
BRANCH   3   2
ATOM      1  C   UNL     1      -1.558   5.248  25.109  0.00  0.00    +0.002 C 
ATOM      2  C   UNL     1      -1.010   4.631  25.111  0.00  0.00    +0.027 C 
ENDBRANCH   3   2
ENDBRANCH   4   3
ENDBRANCH   7   4
ENDBRANCH   8   7
TORSDOF 6
ENDMDL
MODEL 4
REMARK VINA RESULT:     -10.2      1.477      4.815
REMARK  Name = 
REMARK  6 active torsions:
REMARK  status: ('A' for Active; 'I' for Inactive)
REMARK    1  A    between atoms: C_2  and  C_3
REMARK    2  A    between atoms: C_3  and  S_4
REMARK    3  A    between atoms: S_4  and  N_7
REMARK    4  A    between atoms: N_7  and  C_8
REMARK    5  A    between atoms: C_10  and  C_14
REMARK    6  A    between atoms: C_16  and  C_19
REMARK                            x       y       z     vdW  Elec       q    Type
REMARK                         _______ _______ _______ _____ _____    ______ ____
ROOT
ATOM      8  C   UNL     1      -4.570   0.430  24.789  0.00  0.00    +0.115 C 
ATOM      9  C   UNL     1      -4.009   0.949  24.481  0.00  0.00    +0.046 C 
ATOM     10  C   UNL     1      -4.196   1.710  24.742  0.00  0.00    +0.139 C 
ATOM     11  N   UNL     1      -4.873   1.658  25.211  0.00  0.00    -0.264 NA
ATOM     12  C   UNL     1      -5.253   2.288  25.585  0.00  0.00    +0.090 C 
ATOM     13  C   UNL     1      -5.104   0.867  25.240  0.00  0.00    +0.092 C 
ENDROOT
BRANCH  10  14
ATOM     14  C   UNL     1      -3.780   2.399  24.565  0.00  0.00    +0.251 A 
ATOM     15  N   UNL     1      -3.079   2.648  24.923  0.00  0.00    -0.190 NA
ATOM     16  C   UNL     1      -2.857   3.364  24.578  0.00  0.00    +0.203 A 
ATOM     17  N   UNL     1      -3.420   3.558  24.007  0.00  0.00    -0.056 NA
ATOM     18  O   UNL     1      -3.991   2.962  23.999  0.00  0.00    -0.336 OA
BRANCH  16  19
ATOM     19  C   UNL     1      -2.189   3.809  24.770  0.00  0.00    +0.039 A 
ATOM     20  C   UNL     1      -2.274   4.554  25.113  0.00  0.00    +0.003 A 
ATOM     21  C   UNL     1      -1.606   4.998  25.305  0.00  0.00    +0.000 A 
ATOM     22  C   UNL     1      -0.853   4.697  25.154  0.00  0.00    +0.000 A 
ATOM     23  C   UNL     1      -0.768   3.952  24.810  0.00  0.00    +0.000 A 
ATOM     24  C   UNL     1      -1.436   3.507  24.618  0.00  0.00    +0.003 A 
ENDBRANCH  16  19
ENDBRANCH  10  14
BRANCH   8   7
ATOM      7  N   UNL     1      -4.593  -0.386  24.667  0.00  0.00    -0.082 NA
BRANCH   7   4
ATOM      4  S   UNL     1      -3.896  -0.827  24.692  0.00  0.00    +0.057 S 
ATOM      5  O   UNL     1      -3.950  -0.864  25.514  0.00  0.00    -0.156 OA
ATOM      6  O   UNL     1      -3.843  -0.789  23.870  0.00  0.00    -0.156 OA
BRANCH   4   3
ATOM      3  C   UNL     1      -3.200  -1.268  24.717  0.00  0.00    +0.171 C 
BRANCH   3   2
ATOM      1  C   UNL     1      -2.531  -2.530  24.662  0.00  0.00    +0.002 C 
ATOM      2  C   UNL     1      -3.230  -2.090  24.653  0.00  0.00    +0.027 C 
ENDBRANCH   3   2
ENDBRANCH   4   3
ENDBRANCH   7   4
ENDBRANCH   8   7
TORSDOF 6
ENDMDL
