MODEL 1
REMARK VINA RESULT:     -11.2      0.000      0.000
REMARK  Name = 
REMARK  2 active torsions:
REMARK  status: ('A' for Active; 'I' for Inactive)
REMARK    1  A    between atoms: C_2  and  N_3
REMARK    2  A    between atoms: C_2  and  C_17
REMARK                            x       y       z     vdW  Elec       q    Type
REMARK                         _______ _______ _______ _____ _____    ______ ____
ROOT
ATOM      3  N   UNL     1      -2.647  -0.468  25.320  0.00  0.00    -0.210 N 
ATOM      4  C   UNL     1      -2.811   0.311  25.101  0.00  0.00    +0.253 C 
ATOM      5  O   UNL     1      -3.560   0.650  25.039  0.00  0.00    -0.273 OA
ATOM      6  C   UNL     1      -2.093   0.691  24.956  0.00  0.00    +0.174 C 
ATOM      7  C   UNL     1      -1.913   1.461  24.723  0.00  0.00    +0.123 C 
ATOM      8  N   UNL     1      -1.128   1.689  24.619  0.00  0.00    -0.276 N 
ATOM      9  C   UNL     1      -0.521   1.145  24.748  0.00  0.00    +0.115 C 
ATOM     10  C   UNL     1      -0.699   0.374  24.981  0.00  0.00    +0.117 C 
ATOM     11  N   UNL     1      -1.486   0.147  25.085  0.00  0.00    -0.254 N 
ATOM     12  C   UNL     1      -1.828  -0.569  25.310  0.00  0.00    +0.314 C 
ATOM     13  O   UNL     1      -1.423  -1.264  25.493  0.00  0.00    -0.252 OA
ATOM     14  C   UNL     1      -0.948   2.459  24.386  0.00  0.00    +0.226 C 
ATOM     15  C   UNL     1      -0.162   2.687  24.282  0.00  0.00    +0.095 C 
ATOM     16  O   UNL     1      -1.555   3.003  24.257  0.00  0.00    -0.275 OA
ENDROOT
BRANCH   3   2
ATOM      1  C   UNL     1      -3.470  -1.116  26.293  0.00  0.00    +0.027 C 
ATOM      2  C   UNL     1      -3.204  -1.044  25.515  0.00  0.00    +0.106 C 
BRANCH   2  17
ATOM     17  C   UNL     1      -3.497  -1.549  24.931  0.00  0.00    -0.004 A 
ATOM     18  C   UNL     1      -4.053  -1.274  24.388  0.00  0.00    -0.003 A 
ATOM     19  C   UNL     1      -4.345  -1.778  23.805  0.00  0.00    -0.000 A 
ATOM     20  C   UNL     1      -4.082  -2.559  23.765  0.00  0.00    -0.000 A 
ATOM     21  C   UNL     1      -3.526  -2.835  24.308  0.00  0.00    -0.000 A 
ATOM     22  C   UNL     1      -3.233  -2.330  24.892  0.00  0.00    -0.003 A 
ENDBRANCH   2  17
ENDBRANCH   3   2
TORSDOF 2
ENDMDL
MODEL 2
REMARK VINA RESULT:     -10.9      2.019      3.589
REMARK  Name = 
REMARK  2 active torsions:
REMARK  status: ('A' for Active; 'I' for Inactive)
REMARK    1  A    between atoms: C_2  and  N_3
REMARK    2  A    between atoms: C_2  and  C_17
REMARK                            x       y       z     vdW  Elec       q    Type
REMARK                         _______ _______ _______ _____ _____    ______ ____
ROOT
ATOM      3  N   UNL     1      -3.150   1.696  24.411  0.00  0.00    -0.210 N 
ATOM      4  C   UNL     1      -3.168   0.895  24.213  0.00  0.00    +0.253 C 
ATOM      5  O   UNL     1      -3.750   0.518  23.766  0.00  0.00    -0.273 OA
ATOM      6  C   UNL     1      -2.502   0.537  24.542  0.00  0.00    +0.174 C 
ATOM      7  C   UNL     1      -2.229  -0.242  24.529  0.00  0.00    +0.123 C 
ATOM      8  N   UNL     1      -1.529  -0.441  24.915  0.00  0.00    -0.276 N 
ATOM      9  C   UNL     1      -1.100   0.139  25.316  0.00  0.00    +0.115 C 
ATOM     10  C   UNL     1      -1.371   0.918  25.329  0.00  0.00    +0.117 C 
ATOM     11  N   UNL     1      -2.072   1.117  24.942  0.00  0.00    -0.254 N 
ATOM     12  C   UNL     1      -2.473   1.833  24.861  0.00  0.00    +0.314 C 
ATOM     13  O   UNL     1      -2.238   2.559  25.175  0.00  0.00    -0.252 OA
ATOM     14  C   UNL     1      -1.257  -1.220  24.902  0.00  0.00    +0.226 C 
ATOM     15  C   UNL     1      -0.557  -1.419  25.289  0.00  0.00    +0.095 C 
ATOM     16  O   UNL     1      -1.686  -1.800  24.502  0.00  0.00    -0.275 OA
ENDROOT
BRANCH   3   2
ATOM      1  C   UNL     1      -3.630   2.675  23.487  0.00  0.00    +0.027 C 
ATOM      2  C   UNL     1      -3.712   2.261  24.195  0.00  0.00    +0.106 C 
BRANCH   2  17
ATOM     17  C   UNL     1      -4.357   2.411  24.689  0.00  0.00    -0.004 A 
ATOM     18  C   UNL     1      -5.028   1.933  24.648  0.00  0.00    -0.003 A 
ATOM     19  C   UNL     1      -5.671   2.084  25.140  0.00  0.00    -0.000 A 
ATOM     20  C   UNL     1      -5.645   2.712  25.675  0.00  0.00    -0.000 A 
ATOM     21  C   UNL     1      -4.974   3.190  25.715  0.00  0.00    -0.000 A 
ATOM     22  C   UNL     1      -4.329   3.040  25.222  0.00  0.00    -0.003 A 
ENDBRANCH   2  17
ENDBRANCH   3   2
TORSDOF 2
ENDMDL
MODEL 3
REMARK VINA RESULT:     -10.9      1.828      4.409
REMARK  Name = 
REMARK  2 active torsions:
REMARK  status: ('A' for Active; 'I' for Inactive)
REMARK    1  A    between atoms: C_2  and  N_3
REMARK    2  A    between atoms: C_2  and  C_17
REMARK                            x       y       z     vdW  Elec       q    Type
REMARK                         _______ _______ _______ _____ _____    ______ ____
ROOT
ATOM      3  N   UNL     1      -3.491   1.790  24.410  0.00  0.00    -0.210 N 
ATOM      4  C   UNL     1      -2.893   1.242  24.254  0.00  0.00    +0.253 C 
ATOM      5  O   UNL     1      -2.156   1.410  23.925  0.00  0.00    -0.273 OA
ATOM      6  C   UNL     1      -3.162   0.498  24.487  0.00  0.00    +0.174 C 
ATOM      7  C   UNL     1      -2.812  -0.248  24.465  0.00  0.00    +0.123 C 
ATOM      8  N   UNL     1      -3.223  -0.906  24.742  0.00  0.00    -0.276 N 
ATOM      9  C   UNL     1      -3.987  -0.819  25.041  0.00  0.00    +0.115 C 
ATOM     10  C   UNL     1      -4.339  -0.073  25.063  0.00  0.00    +0.117 C 
ATOM     11  N   UNL     1      -3.926   0.586  24.786  0.00  0.00    -0.254 N 
ATOM     12  C   UNL     1      -4.129   1.384  24.739  0.00  0.00    +0.314 C 
ATOM     13  O   UNL     1      -4.845   1.718  24.978  0.00  0.00    -0.252 OA
ATOM     14  C   UNL     1      -2.873  -1.653  24.720  0.00  0.00    +0.226 C 
ATOM     15  C   UNL     1      -3.285  -2.311  24.996  0.00  0.00    +0.095 C 
ATOM     16  O   UNL     1      -2.109  -1.740  24.420  0.00  0.00    -0.275 OA
ENDROOT
BRANCH   3   2
ATOM      1  C   UNL     1      -3.704   2.900  23.536  0.00  0.00    +0.027 C 
ATOM      2  C   UNL     1      -3.455   2.601  24.263  0.00  0.00    +0.106 C 
BRANCH   2  17
ATOM     17  C   UNL     1      -3.171   3.114  24.844  0.00  0.00    -0.004 A 
ATOM     18  C   UNL     1      -3.688   3.432  25.403  0.00  0.00    -0.003 A 
ATOM     19  C   UNL     1      -3.403   3.944  25.983  0.00  0.00    -0.000 A 
ATOM     20  C   UNL     1      -2.602   4.139  26.005  0.00  0.00    -0.000 A 
ATOM     21  C   UNL     1      -2.085   3.822  25.446  0.00  0.00    -0.000 A 
ATOM     22  C   UNL     1      -2.370   3.308  24.865  0.00  0.00    -0.003 A 
ENDBRANCH   2  17
ENDBRANCH   3   2
TORSDOF 2
ENDMDL
MODEL 4
REMARK VINA RESULT:     -10.5      1.653      2.488
REMARK  Name = 
REMARK  2 active torsions:
REMARK  status: ('A' for Active; 'I' for Inactive)
REMARK    1  A    between atoms: C_2  and  N_3
REMARK    2  A    between atoms: C_2  and  C_17
REMARK                            x       y       z     vdW  Elec       q    Type
REMARK                         _______ _______ _______ _____ _____    ______ ____
ROOT
ATOM      3  N   UNL     1      -3.122   1.206  24.396  0.00  0.00    -0.210 N 
ATOM      4  C   UNL     1      -2.366   1.532  24.342  0.00  0.00    +0.253 C 
ATOM      5  O   UNL     1      -1.690   1.145  24.072  0.00  0.00    -0.273 OA
ATOM      6  C   UNL     1      -2.405   2.312  24.606  0.00  0.00    +0.174 C 
ATOM      7  C   UNL     1      -1.831   2.901  24.677  0.00  0.00    +0.123 C 
ATOM      8  N   UNL     1      -2.037   3.645  24.964  0.00  0.00    -0.276 N 
ATOM      9  C   UNL     1      -2.818   3.802  25.182  0.00  0.00    +0.115 C 
ATOM     10  C   UNL     1      -3.392   3.214  25.111  0.00  0.00    +0.117 C 
ATOM     11  N   UNL     1      -3.185   2.469  24.823  0.00  0.00    -0.254 N 
ATOM     12  C   UNL     1      -3.628   1.785  24.694  0.00  0.00    +0.314 C 
ATOM     13  O   UNL     1      -4.436   1.697  24.837  0.00  0.00    -0.252 OA
ATOM     14  C   UNL     1      -1.464   4.234  25.035  0.00  0.00    +0.226 C 
ATOM     15  C   UNL     1      -1.669   4.979  25.323  0.00  0.00    +0.095 C 
ATOM     16  O   UNL     1      -0.683   4.077  24.818  0.00  0.00    -0.275 OA
ENDROOT
BRANCH   3   2
ATOM      1  C   UNL     1      -3.593   0.271  23.424  0.00  0.00    +0.027 C 
ATOM      2  C   UNL     1      -3.335   0.436  24.190  0.00  0.00    +0.106 C 
BRANCH   2  17
ATOM     17  C   UNL     1      -3.289  -0.169  24.749  0.00  0.00    -0.004 A 
ATOM     18  C   UNL     1      -3.941  -0.343  25.223  0.00  0.00    -0.003 A 
ATOM     19  C   UNL     1      -3.894  -0.948  25.782  0.00  0.00    -0.000 A 
ATOM     20  C   UNL     1      -3.196  -1.380  25.867  0.00  0.00    -0.000 A 
ATOM     21  C   UNL     1      -2.544  -1.206  25.392  0.00  0.00    -0.000 A 
ATOM     22  C   UNL     1      -2.590  -0.600  24.833  0.00  0.00    -0.003 A 
ENDBRANCH   2  17
ENDBRANCH   3   2
TORSDOF 2
ENDMDL
MODEL 5
REMARK VINA RESULT:     -10.4      3.422      4.946
REMARK  Name = 
REMARK  2 active torsions:
REMARK  status: ('A' for Active; 'I' for Inactive)
REMARK    1  A    between atoms: C_2  and  N_3
REMARK    2  A    between atoms: C_2  and  C_17
REMARK                            x       y       z     vdW  Elec       q    Type
REMARK                         _______ _______ _______ _____ _____    ______ ____
ROOT
ATOM      3  N   UNL     1      -2.412   3.491  25.063  0.00  0.00    -0.210 N 
ATOM      4  C   UNL     1      -2.999   3.536  25.641  0.00  0.00    +0.253 C 
ATOM      5  O   UNL     1      -2.927   3.894  26.380  0.00  0.00    -0.273 OA
ATOM      6  C   UNL     1      -3.672   3.159  25.348  0.00  0.00    +0.174 C 
ATOM      7  C   UNL     1      -4.420   3.032  25.674  0.00  0.00    +0.123 C 
ATOM      8  N   UNL     1      -4.995   2.629  25.242  0.00  0.00    -0.276 N 
ATOM      9  C   UNL     1      -4.823   2.352  24.485  0.00  0.00    +0.115 C 
ATOM     10  C   UNL     1      -4.077   2.478  24.158  0.00  0.00    +0.117 C 
ATOM     11  N   UNL     1      -3.501   2.882  24.590  0.00  0.00    -0.254 N 
ATOM     12  C   UNL     1      -2.722   3.088  24.414  0.00  0.00    +0.314 C 
ATOM     13  O   UNL     1      -2.322   2.919  23.712  0.00  0.00    -0.252 OA
ATOM     14  C   UNL     1      -5.743   2.502  25.568  0.00  0.00    +0.226 C 
ATOM     15  C   UNL     1      -6.318   2.099  25.137  0.00  0.00    +0.095 C 
ATOM     16  O   UNL     1      -5.914   2.779  26.326  0.00  0.00    -0.275 OA
ENDROOT
BRANCH   3   2
ATOM      1  C   UNL     1      -1.511   4.598  24.979  0.00  0.00    +0.027 C 
ATOM      2  C   UNL     1      -1.648   3.798  25.124  0.00  0.00    +0.106 C 
BRANCH   2  17
ATOM     17  C   UNL     1      -1.020   3.303  25.330  0.00  0.00    -0.004 A 
ATOM     18  C   UNL     1      -0.912   3.078  26.116  0.00  0.00    -0.003 A 
ATOM     19  C   UNL     1      -0.285   2.584  26.322  0.00  0.00    -0.000 A 
ATOM     20  C   UNL     1       0.235   2.314  25.741  0.00  0.00    -0.000 A 
ATOM     21  C   UNL     1       0.128   2.538  24.955  0.00  0.00    -0.000 A 
ATOM     22  C   UNL     1      -0.500   3.033  24.749  0.00  0.00    -0.003 A 
ENDBRANCH   2  17
ENDBRANCH   3   2
TORSDOF 2
ENDMDL
MODEL 6
REMARK VINA RESULT:     -10.2      2.912      3.673
REMARK  Name = 
REMARK  2 active torsions:
REMARK  status: ('A' for Active; 'I' for Inactive)
REMARK    1  A    between atoms: C_2  and  N_3
REMARK    2  A    between atoms: C_2  and  C_17
REMARK                            x       y       z     vdW  Elec       q    Type
REMARK                         _______ _______ _______ _____ _____    ______ ____
ROOT
ATOM      3  N   UNL     1      -3.215   2.869  24.256  0.00  0.00    -0.210 N 
ATOM      4  C   UNL     1      -2.849   2.221  23.898  0.00  0.00    +0.253 C 
ATOM      5  O   UNL     1      -3.212   1.674  23.399  0.00  0.00    -0.273 OA
ATOM      6  C   UNL     1      -2.057   2.219  24.126  0.00  0.00    +0.174 C 
ATOM      7  C   UNL     1      -1.431   1.712  23.944  0.00  0.00    +0.123 C 
ATOM      8  N   UNL     1      -0.682   1.850  24.261  0.00  0.00    -0.276 N 
ATOM      9  C   UNL     1      -0.558   2.496  24.760  0.00  0.00    +0.115 C 
ATOM     10  C   UNL     1      -1.183   3.003  24.942  0.00  0.00    +0.117 C 
ATOM     11  N   UNL     1      -1.933   2.864  24.625  0.00  0.00    -0.254 N 
ATOM     12  C   UNL     1      -2.648   3.266  24.705  0.00  0.00    +0.314 C 
ATOM     13  O   UNL     1      -2.775   3.945  25.155  0.00  0.00    -0.252 OA
ATOM     14  C   UNL     1      -0.057   1.344  24.079  0.00  0.00    +0.226 C 
ATOM     15  C   UNL     1       0.692   1.482  24.396  0.00  0.00    +0.095 C 
ATOM     16  O   UNL     1      -0.181   0.699  23.580  0.00  0.00    -0.275 OA
ENDROOT
BRANCH   3   2
ATOM      1  C   UNL     1      -4.240   3.599  23.579  0.00  0.00    +0.027 C 
ATOM      2  C   UNL     1      -4.008   3.081  24.178  0.00  0.00    +0.106 C 
BRANCH   2  17
ATOM     17  C   UNL     1      -4.571   2.776  24.699  0.00  0.00    -0.004 A 
ATOM     18  C   UNL     1      -4.917   2.042  24.550  0.00  0.00    -0.003 A 
ATOM     19  C   UNL     1      -5.478   1.738  25.071  0.00  0.00    -0.000 A 
ATOM     20  C   UNL     1      -5.695   2.167  25.742  0.00  0.00    -0.000 A 
ATOM     21  C   UNL     1      -5.348   2.901  25.892  0.00  0.00    -0.000 A 
ATOM     22  C   UNL     1      -4.786   3.206  25.370  0.00  0.00    -0.003 A 
ENDBRANCH   2  17
ENDBRANCH   3   2
TORSDOF 2
ENDMDL
MODEL 7
REMARK VINA RESULT:     -10.1      2.259      3.175
REMARK  Name = 
REMARK  2 active torsions:
REMARK  status: ('A' for Active; 'I' for Inactive)
REMARK    1  A    between atoms: C_2  and  N_3
REMARK    2  A    between atoms: C_2  and  C_17
REMARK                            x       y       z     vdW  Elec       q    Type
REMARK                         _______ _______ _______ _____ _____    ______ ____
ROOT
ATOM      3  N   UNL     1      -3.801   0.315  24.452  0.00  0.00    -0.210 N 
ATOM      4  C   UNL     1      -4.331   0.549  25.040  0.00  0.00    +0.253 C 
ATOM      5  O   UNL     1      -4.679   0.056  25.602  0.00  0.00    -0.273 OA
ATOM      6  C   UNL     1      -4.451   1.361  24.966  0.00  0.00    +0.174 C 
ATOM      7  C   UNL     1      -4.916   1.892  25.393  0.00  0.00    +0.123 C 
ATOM      8  N   UNL     1      -4.926   2.690  25.188  0.00  0.00    -0.276 N 
ATOM      9  C   UNL     1      -4.471   2.959  24.555  0.00  0.00    +0.115 C 
ATOM     10  C   UNL     1      -4.005   2.429  24.127  0.00  0.00    +0.117 C 
ATOM     11  N   UNL     1      -3.995   1.630  24.333  0.00  0.00    -0.254 N 
ATOM     12  C   UNL     1      -3.593   0.984  24.016  0.00  0.00    +0.314 C 
ATOM     13  O   UNL     1      -3.075   1.002  23.374  0.00  0.00    -0.252 OA
ATOM     14  C   UNL     1      -5.392   3.221  25.615  0.00  0.00    +0.226 C 
ATOM     15  C   UNL     1      -5.402   4.020  25.410  0.00  0.00    +0.095 C 
ATOM     16  O   UNL     1      -5.848   2.953  26.248  0.00  0.00    -0.275 OA
ENDROOT
BRANCH   3   2
ATOM      1  C   UNL     1      -3.940  -0.961  23.824  0.00  0.00    +0.027 C 
ATOM      2  C   UNL     1      -3.526  -0.452  24.324  0.00  0.00    +0.106 C 
BRANCH   2  17
ATOM     17  C   UNL     1      -2.837  -0.712  24.697  0.00  0.00    -0.004 A 
ATOM     18  C   UNL     1      -2.876  -1.047  25.449  0.00  0.00    -0.003 A 
ATOM     19  C   UNL     1      -2.187  -1.306  25.821  0.00  0.00    -0.000 A 
ATOM     20  C   UNL     1      -1.458  -1.230  25.441  0.00  0.00    -0.000 A 
ATOM     21  C   UNL     1      -1.419  -0.894  24.689  0.00  0.00    -0.000 A 
ATOM     22  C   UNL     1      -2.109  -0.635  24.316  0.00  0.00    -0.003 A 
ENDBRANCH   2  17
ENDBRANCH   3   2
TORSDOF 2
ENDMDL
