MODEL 1
REMARK VINA RESULT:     -10.3      0.000      0.000
REMARK  Name = 
REMARK  7 active torsions:
REMARK  status: ('A' for Active; 'I' for Inactive)
REMARK    1  A    between atoms: C_4  and  C_25
REMARK    2  A    between atoms: C_6  and  C_8
REMARK    3  A    between atoms: C_15  and  C_16
REMARK    4  A    between atoms: C_16  and  N_17
REMARK    5  A    between atoms: C_18  and  C_20
REMARK    6  A    between atoms: C_20  and  C_21
REMARK    7  A    between atoms: C_21  and  C_22
REMARK                            x       y       z     vdW  Elec       q    Type
REMARK                         _______ _______ _______ _____ _____    ______ ____
ROOT
ATOM      8  C   UNL     1      -0.339  -0.397  24.165  0.00  0.00    +0.056 C 
ATOM      9  C   UNL     1       0.110  -0.981  23.912  0.00  0.00    +0.078 C 
ATOM     10  N   UNL     1       0.205  -0.181  23.733  0.00  0.00    -0.272 NA
ATOM     11  C   UNL     1      -0.559   0.340  24.228  0.00  0.00    +0.072 C 
ATOM     12  C   UNL     1      -0.861   0.900  24.376  0.00  0.00    +0.018 C 
ATOM     13  C   UNL     1      -0.239   0.386  23.985  0.00  0.00    +0.010 C 
ATOM     14  C   UNL     1       0.352   0.805  23.490  0.00  0.00    +0.018 C 
ATOM     15  C   UNL     1       0.816   0.262  23.220  0.00  0.00    +0.079 C 
ENDROOT
BRANCH   8   6
ATOM      1  C   UNL     1      -1.441  -0.653  26.790  0.00  0.00    +0.074 C 
ATOM      2  C   UNL     1      -1.521  -0.720  25.971  0.00  0.00    +0.139 A 
ATOM      3  N   UNL     1      -2.233  -0.983  25.648  0.00  0.00    -0.231 NA
ATOM      4  C   UNL     1      -2.313  -1.051  24.829  0.00  0.00    +0.084 A 
ATOM      5  C   UNL     1      -1.682  -0.856  24.335  0.00  0.00    +0.034 A 
ATOM      6  C   UNL     1      -0.971  -0.593  24.660  0.00  0.00    +0.063 A 
ATOM      7  N   UNL     1      -0.890  -0.525  25.477  0.00  0.00    -0.235 NA
BRANCH   4  25
ATOM     25  C   UNL     1      -3.025  -1.315  24.505  0.00  0.00    +0.024 A 
ATOM     26  C   UNL     1      -3.164  -2.123  24.418  0.00  0.00    +0.036 A 
ATOM     27 BR   UNL     1      -2.592  -2.668  24.655  0.00  0.00    -0.049 Br
ATOM     28  C   UNL     1      -3.876  -2.386  24.093  0.00  0.00    +0.007 A 
ATOM     29  C   UNL     1      -4.447  -1.840  23.856  0.00  0.00    +0.001 A 
ATOM     30  C   UNL     1      -4.308  -1.032  23.943  0.00  0.00    +0.000 A 
ATOM     31  C   UNL     1      -3.596  -0.769  24.267  0.00  0.00    +0.002 A 
ENDBRANCH   4  25
ENDBRANCH   8   6
BRANCH  15  16
ATOM     16  C   UNL     1       1.479   0.144  22.745  0.00  0.00    +0.131 C 
BRANCH  16  17
ATOM     17  N   UNL     1       2.219   0.413  22.994  0.00  0.00    -0.204 NA
ATOM     18  C   UNL     1       2.872   0.340  22.496  0.00  0.00    +0.242 C 
ATOM     19  O   UNL     1       2.787  -0.001  21.750  0.00  0.00    -0.273 OA
BRANCH  18  20
ATOM     20  C   UNL     1       3.612   0.608  22.745  0.00  0.00    +0.099 C 
BRANCH  20  21
ATOM     21  C   UNL     1       4.164   0.075  23.048  0.00  0.00    +0.124 C 
BRANCH  21  22
ATOM     22  C   UNL     1       4.916   0.337  23.261  0.00  0.00    +0.365 C 
ATOM     23  O   UNL     1       5.582   0.039  22.876  0.00  0.00    -0.246 OA
ATOM     24  O   UNL     1       5.003   0.897  23.861  0.00  0.00    -0.246 OA
ENDBRANCH  21  22
ENDBRANCH  20  21
ENDBRANCH  18  20
ENDBRANCH  16  17
ENDBRANCH  15  16
TORSDOF 7
ENDMDL
MODEL 2
REMARK VINA RESULT:     -10.0      2.287      2.845
REMARK  Name = 
REMARK  7 active torsions:
REMARK  status: ('A' for Active; 'I' for Inactive)
REMARK    1  A    between atoms: C_4  and  C_25
REMARK    2  A    between atoms: C_6  and  C_8
REMARK    3  A    between atoms: C_15  and  C_16
REMARK    4  A    between atoms: C_16  and  N_17
REMARK    5  A    between atoms: C_18  and  C_20
REMARK    6  A    between atoms: C_20  and  C_21
REMARK    7  A    between atoms: C_21  and  C_22
REMARK                            x       y       z     vdW  Elec       q    Type
REMARK                         _______ _______ _______ _____ _____    ______ ____
ROOT
ATOM      8  C   UNL     1      -1.146   1.475  24.275  0.00  0.00    +0.056 C 
ATOM      9  C   UNL     1      -0.965   1.656  23.541  0.00  0.00    +0.078 C 
ATOM     10  N   UNL     1      -0.651   1.032  23.981  0.00  0.00    -0.272 NA
ATOM     11  C   UNL     1      -1.101   1.063  24.927  0.00  0.00    +0.072 C 
ATOM     12  C   UNL     1      -1.174   0.822  25.530  0.00  0.00    +0.018 C 
ATOM     13  C   UNL     1      -0.834   0.861  24.701  0.00  0.00    +0.010 C 
ATOM     14  C   UNL     1      -0.239   0.248  24.499  0.00  0.00    +0.018 C 
ATOM     15  C   UNL     1      -0.033   0.391  23.778  0.00  0.00    +0.079 C 
ENDROOT
BRANCH   8   6
ATOM      1  C   UNL     1      -1.776   3.708  25.944  0.00  0.00    +0.074 C 
ATOM      2  C   UNL     1      -2.020   3.065  25.488  0.00  0.00    +0.139 A 
ATOM      3  N   UNL     1      -2.824   2.898  25.411  0.00  0.00    -0.231 NA
ATOM      4  C   UNL     1      -3.069   2.255  24.955  0.00  0.00    +0.084 A 
ATOM      5  C   UNL     1      -2.510   1.781  24.576  0.00  0.00    +0.034 A 
ATOM      6  C   UNL     1      -1.706   1.950  24.654  0.00  0.00    +0.063 A 
ATOM      7  N   UNL     1      -1.461   2.592  25.110  0.00  0.00    -0.235 NA
BRANCH   4  25
ATOM     25  C   UNL     1      -3.873   2.086  24.877  0.00  0.00    +0.024 A 
ATOM     26  C   UNL     1      -4.347   2.554  24.390  0.00  0.00    +0.036 A 
ATOM     27 BR   UNL     1      -4.017   3.190  23.981  0.00  0.00    -0.049 Br
ATOM     28  C   UNL     1      -5.151   2.385  24.312  0.00  0.00    +0.007 A 
ATOM     29  C   UNL     1      -5.480   1.749  24.721  0.00  0.00    +0.001 A 
ATOM     30  C   UNL     1      -5.007   1.282  25.208  0.00  0.00    +0.000 A 
ATOM     31  C   UNL     1      -4.202   1.450  25.286  0.00  0.00    +0.002 A 
ENDBRANCH   4  25
ENDBRANCH   8   6
BRANCH  15  16
ATOM     16  C   UNL     1       0.458   0.124  23.172  0.00  0.00    +0.131 C 
BRANCH  16  17
ATOM     17  N   UNL     1       1.276   0.119  23.276  0.00  0.00    -0.204 NA
ATOM     18  C   UNL     1       1.772  -0.039  22.635  0.00  0.00    +0.242 C 
ATOM     19  O   UNL     1       1.450  -0.192  21.892  0.00  0.00    -0.273 OA
BRANCH  18  20
ATOM     20  C   UNL     1       2.590  -0.044  22.739  0.00  0.00    +0.099 C 
BRANCH  20  21
ATOM     21  C   UNL     1       3.056   0.535  22.380  0.00  0.00    +0.124 C 
BRANCH  21  22
ATOM     22  C   UNL     1       3.825   0.669  22.645  0.00  0.00    +0.365 C 
ATOM     23  O   UNL     1       3.982   1.297  23.156  0.00  0.00    -0.246 OA
ATOM     24  O   UNL     1       4.438   0.175  22.399  0.00  0.00    -0.246 OA
ENDBRANCH  21  22
ENDBRANCH  20  21
ENDBRANCH  18  20
ENDBRANCH  16  17
ENDBRANCH  15  16
TORSDOF 7
ENDMDL
MODEL 3
REMARK VINA RESULT:     -10.0      2.255      3.075
REMARK  Name = 
REMARK  7 active torsions:
REMARK  status: ('A' for Active; 'I' for Inactive)
REMARK    1  A    between atoms: C_4  and  C_25
REMARK    2  A    between atoms: C_6  and  C_8
REMARK    3  A    between atoms: C_15  and  C_16
REMARK    4  A    between atoms: C_16  and  N_17
REMARK    5  A    between atoms: C_18  and  C_20
REMARK    6  A    between atoms: C_20  and  C_21
REMARK    7  A    between atoms: C_21  and  C_22
REMARK                            x       y       z     vdW  Elec       q    Type
REMARK                         _______ _______ _______ _____ _____    ______ ____
ROOT
ATOM      8  C   UNL     1      -1.474   0.658  24.071  0.00  0.00    +0.056 C 
ATOM      9  C   UNL     1      -1.299   0.844  23.336  0.00  0.00    +0.078 C 
ATOM     10  N   UNL     1      -0.826   0.410  23.854  0.00  0.00    -0.272 NA
ATOM     11  C   UNL     1      -1.347   0.336  24.761  0.00  0.00    +0.072 C 
ATOM     12  C   UNL     1      -1.386   0.125  25.378  0.00  0.00    +0.018 C 
ATOM     13  C   UNL     1      -1.004   0.232  24.574  0.00  0.00    +0.010 C 
ATOM     14  C   UNL     1      -0.212  -0.132  24.472  0.00  0.00    +0.018 C 
ATOM     15  C   UNL     1      -0.002   0.030  23.756  0.00  0.00    +0.079 C 
ENDROOT
BRANCH   8   6
ATOM      1  C   UNL     1      -4.164   0.106  24.861  0.00  0.00    +0.074 C 
ATOM      2  C   UNL     1      -3.545   0.641  24.758  0.00  0.00    +0.139 A 
ATOM      3  N   UNL     1      -3.654   1.437  24.948  0.00  0.00    -0.231 NA
ATOM      4  C   UNL     1      -3.035   1.973  24.846  0.00  0.00    +0.084 A 
ATOM      5  C   UNL     1      -2.309   1.714  24.553  0.00  0.00    +0.034 A 
ATOM      6  C   UNL     1      -2.201   0.918  24.364  0.00  0.00    +0.063 A 
ATOM      7  N   UNL     1      -2.819   0.382  24.466  0.00  0.00    -0.235 NA
BRANCH   4  25
ATOM     25  C   UNL     1      -3.143   2.769  25.036  0.00  0.00    +0.024 A 
ATOM     26  C   UNL     1      -3.561   3.262  24.523  0.00  0.00    +0.036 A 
ATOM     27 BR   UNL     1      -3.871   2.959  23.821  0.00  0.00    -0.049 Br
ATOM     28  C   UNL     1      -3.668   4.058  24.713  0.00  0.00    +0.007 A 
ATOM     29  C   UNL     1      -3.358   4.360  25.415  0.00  0.00    +0.001 A 
ATOM     30  C   UNL     1      -2.940   3.867  25.928  0.00  0.00    +0.000 A 
ATOM     31  C   UNL     1      -2.833   3.071  25.738  0.00  0.00    +0.002 A 
ENDBRANCH   4  25
ENDBRANCH   8   6
BRANCH  15  16
ATOM     16  C   UNL     1       0.609  -0.078  23.213  0.00  0.00    +0.131 C 
BRANCH  16  17
ATOM     17  N   UNL     1       1.340   0.285  23.337  0.00  0.00    -0.204 NA
ATOM     18  C   UNL     1       1.939   0.206  22.776  0.00  0.00    +0.242 C 
ATOM     19  O   UNL     1       1.808  -0.235  22.091  0.00  0.00    -0.273 OA
BRANCH  18  20
ATOM     20  C   UNL     1       2.670   0.568  22.899  0.00  0.00    +0.099 C 
BRANCH  20  21
ATOM     21  C   UNL     1       3.353   0.243  22.571  0.00  0.00    +0.124 C 
BRANCH  21  22
ATOM     22  C   UNL     1       4.093   0.548  22.771  0.00  0.00    +0.365 C 
ATOM     23  O   UNL     1       4.271   1.337  22.613  0.00  0.00    -0.246 OA
ATOM     24  O   UNL     1       4.656   0.063  23.130  0.00  0.00    -0.246 OA
ENDBRANCH  21  22
ENDBRANCH  20  21
ENDBRANCH  18  20
ENDBRANCH  16  17
ENDBRANCH  15  16
TORSDOF 7
ENDMDL
MODEL 4
REMARK VINA RESULT:      -9.7      3.622      5.266
REMARK  Name = 
REMARK  7 active torsions:
REMARK  status: ('A' for Active; 'I' for Inactive)
REMARK    1  A    between atoms: C_4  and  C_25
REMARK    2  A    between atoms: C_6  and  C_8
REMARK    3  A    between atoms: C_15  and  C_16
REMARK    4  A    between atoms: C_16  and  N_17
REMARK    5  A    between atoms: C_18  and  C_20
REMARK    6  A    between atoms: C_20  and  C_21
REMARK    7  A    between atoms: C_21  and  C_22
REMARK                            x       y       z     vdW  Elec       q    Type
REMARK                         _______ _______ _______ _____ _____    ______ ____
ROOT
ATOM      8  C   UNL     1      -1.396   1.645  24.892  0.00  0.00    +0.056 C 
ATOM      9  C   UNL     1      -1.655   1.222  24.293  0.00  0.00    +0.078 C 
ATOM     10  N   UNL     1      -1.175   0.953  24.907  0.00  0.00    -0.272 NA
ATOM     11  C   UNL     1      -1.007   1.765  25.549  0.00  0.00    +0.072 C 
ATOM     12  C   UNL     1      -0.736   2.018  26.087  0.00  0.00    +0.018 C 
ATOM     13  C   UNL     1      -0.924   1.373  25.492  0.00  0.00    +0.010 C 
ATOM     14  C   UNL     1      -0.577   0.584  25.656  0.00  0.00    +0.018 C 
ATOM     15  C   UNL     1      -0.811   0.135  25.084  0.00  0.00    +0.079 C 
ENDROOT
BRANCH   8   6
ATOM      1  C   UNL     1      -0.725   4.416  24.693  0.00  0.00    +0.074 C 
ATOM      2  C   UNL     1      -1.285   3.824  24.820  0.00  0.00    +0.139 A 
ATOM      3  N   UNL     1      -2.069   4.026  24.975  0.00  0.00    -0.231 NA
ATOM      4  C   UNL     1      -2.630   3.434  25.102  0.00  0.00    +0.084 A 
ATOM      5  C   UNL     1      -2.405   2.641  25.075  0.00  0.00    +0.034 A 
ATOM      6  C   UNL     1      -1.620   2.440  24.920  0.00  0.00    +0.063 A 
ATOM      7  N   UNL     1      -1.060   3.031  24.793  0.00  0.00    -0.235 NA
BRANCH   4  25
ATOM     25  C   UNL     1      -3.415   3.635  25.257  0.00  0.00    +0.024 A 
ATOM     26  C   UNL     1      -3.955   3.698  24.637  0.00  0.00    +0.036 A 
ATOM     27 BR   UNL     1      -3.709   3.559  23.861  0.00  0.00    -0.049 Br
ATOM     28  C   UNL     1      -4.740   3.899  24.791  0.00  0.00    +0.007 A 
ATOM     29  C   UNL     1      -4.984   4.038  25.567  0.00  0.00    +0.001 A 
ATOM     30  C   UNL     1      -4.445   3.976  26.188  0.00  0.00    +0.000 A 
ATOM     31  C   UNL     1      -3.660   3.774  26.033  0.00  0.00    +0.002 A 
ENDBRANCH   4  25
ENDBRANCH   8   6
BRANCH  15  16
ATOM     16  C   UNL     1      -0.762  -0.636  24.796  0.00  0.00    +0.131 C 
BRANCH  16  17
ATOM     17  N   UNL     1      -1.357  -1.180  24.970  0.00  0.00    -0.204 NA
ATOM     18  C   UNL     1      -1.411  -1.883  24.541  0.00  0.00    +0.242 C 
ATOM     19  O   UNL     1      -0.870  -2.042  23.939  0.00  0.00    -0.273 OA
BRANCH  18  20
ATOM     20  C   UNL     1      -2.006  -2.427  24.715  0.00  0.00    +0.099 C 
BRANCH  20  21
ATOM     21  C   UNL     1      -2.743  -2.363  24.350  0.00  0.00    +0.124 C 
BRANCH  21  22
ATOM     22  C   UNL     1      -3.378  -2.815  24.621  0.00  0.00    +0.365 C 
ATOM     23  O   UNL     1      -3.888  -3.174  24.082  0.00  0.00    -0.246 OA
ATOM     24  O   UNL     1      -3.503  -2.908  25.431  0.00  0.00    -0.246 OA
ENDBRANCH  21  22
ENDBRANCH  20  21
ENDBRANCH  18  20
ENDBRANCH  16  17
ENDBRANCH  15  16
TORSDOF 7
ENDMDL
MODEL 5
REMARK VINA RESULT:      -9.1      3.815      4.872
REMARK  Name = 
REMARK  7 active torsions:
REMARK  status: ('A' for Active; 'I' for Inactive)
REMARK    1  A    between atoms: C_4  and  C_25
REMARK    2  A    between atoms: C_6  and  C_8
REMARK    3  A    between atoms: C_15  and  C_16
REMARK    4  A    between atoms: C_16  and  N_17
REMARK    5  A    between atoms: C_18  and  C_20
REMARK    6  A    between atoms: C_20  and  C_21
REMARK    7  A    between atoms: C_21  and  C_22
REMARK                            x       y       z     vdW  Elec       q    Type
REMARK                         _______ _______ _______ _____ _____    ______ ____
ROOT
ATOM      8  C   UNL     1      -1.629   2.281  25.105  0.00  0.00    +0.056 C 
ATOM      9  C   UNL     1      -1.466   2.978  25.410  0.00  0.00    +0.078 C 
ATOM     10  N   UNL     1      -1.041   2.281  25.533  0.00  0.00    -0.272 NA
ATOM     11  C   UNL     1      -1.519   1.526  24.984  0.00  0.00    +0.072 C 
ATOM     12  C   UNL     1      -1.559   0.904  24.789  0.00  0.00    +0.018 C 
ATOM     13  C   UNL     1      -1.207   1.601  25.230  0.00  0.00    +0.010 C 
ATOM     14  C   UNL     1      -0.490   1.433  25.707  0.00  0.00    +0.018 C 
ATOM     15  C   UNL     1      -0.295   2.099  26.026  0.00  0.00    +0.079 C 
ENDROOT
BRANCH   8   6
ATOM      1  C   UNL     1      -2.757   2.180  22.481  0.00  0.00    +0.074 C 
ATOM      2  C   UNL     1      -2.852   2.179  23.301  0.00  0.00    +0.139 A 
ATOM      3  N   UNL     1      -3.608   2.127  23.626  0.00  0.00    -0.231 NA
ATOM      4  C   UNL     1      -3.705   2.127  24.446  0.00  0.00    +0.084 A 
ATOM      5  C   UNL     1      -3.045   2.178  24.939  0.00  0.00    +0.034 A 
ATOM      6  C   UNL     1      -2.289   2.230  24.612  0.00  0.00    +0.063 A 
ATOM      7  N   UNL     1      -2.193   2.230  23.793  0.00  0.00    -0.235 NA
BRANCH   4  25
ATOM     25  C   UNL     1      -4.461   2.075  24.773  0.00  0.00    +0.024 A 
ATOM     26  C   UNL     1      -4.876   2.762  24.962  0.00  0.00    +0.036 A 
ATOM     27 BR   UNL     1      -4.536   3.500  24.823  0.00  0.00    -0.049 Br
ATOM     28  C   UNL     1      -5.632   2.710  25.288  0.00  0.00    +0.007 A 
ATOM     29  C   UNL     1      -5.972   1.970  25.426  0.00  0.00    +0.001 A 
ATOM     30  C   UNL     1      -5.556   1.283  25.238  0.00  0.00    +0.000 A 
ATOM     31  C   UNL     1      -4.800   1.335  24.911  0.00  0.00    +0.002 A 
ENDBRANCH   4  25
ENDBRANCH   8   6
BRANCH  15  16
ATOM     16  C   UNL     1       0.262   2.447  26.524  0.00  0.00    +0.131 C 
BRANCH  16  17
ATOM     17  N   UNL     1       0.262   2.273  27.330  0.00  0.00    -0.204 NA
ATOM     18  C   UNL     1       0.886   2.526  27.806  0.00  0.00    +0.242 C 
ATOM     19  O   UNL     1       1.510   2.953  27.477  0.00  0.00    -0.273 OA
BRANCH  18  20
ATOM     20  C   UNL     1       0.886   2.351  28.613  0.00  0.00    +0.099 C 
BRANCH  20  21
ATOM     21  C   UNL     1       1.540   2.544  29.077  0.00  0.00    +0.124 C 
BRANCH  21  22
ATOM     22  C   UNL     1       1.542   2.367  29.883  0.00  0.00    +0.365 C 
ATOM     23  O   UNL     1       0.976   2.701  30.380  0.00  0.00    -0.246 OA
ATOM     24  O   UNL     1       2.110   1.854  30.191  0.00  0.00    -0.246 OA
ENDBRANCH  21  22
ENDBRANCH  20  21
ENDBRANCH  18  20
ENDBRANCH  16  17
ENDBRANCH  15  16
TORSDOF 7
ENDMDL
MODEL 6
REMARK VINA RESULT:      -9.1      1.418      1.960
REMARK  Name = 
REMARK  7 active torsions:
REMARK  status: ('A' for Active; 'I' for Inactive)
REMARK    1  A    between atoms: C_4  and  C_25
REMARK    2  A    between atoms: C_6  and  C_8
REMARK    3  A    between atoms: C_15  and  C_16
REMARK    4  A    between atoms: C_16  and  N_17
REMARK    5  A    between atoms: C_18  and  C_20
REMARK    6  A    between atoms: C_20  and  C_21
REMARK    7  A    between atoms: C_21  and  C_22
REMARK                            x       y       z     vdW  Elec       q    Type
REMARK                         _______ _______ _______ _____ _____    ______ ____
ROOT
ATOM      8  C   UNL     1      -1.860   0.766  24.376  0.00  0.00    +0.056 C 
ATOM      9  C   UNL     1      -1.291   0.545  24.858  0.00  0.00    +0.078 C 
ATOM     10  N   UNL     1      -1.208   1.030  24.196  0.00  0.00    -0.272 NA
ATOM     11  C   UNL     1      -2.159   1.134  23.766  0.00  0.00    +0.072 C 
ATOM     12  C   UNL     1      -2.549   1.379  23.304  0.00  0.00    +0.018 C 
ATOM     13  C   UNL     1      -1.771   1.242  23.728  0.00  0.00    +0.010 C 
ATOM     14  C   UNL     1      -1.068   1.636  23.379  0.00  0.00    +0.018 C 
ATOM     15  C   UNL     1      -0.481   1.442  23.828  0.00  0.00    +0.079 C 
ENDROOT
BRANCH   8   6
ATOM      1  C   UNL     1      -4.531   1.254  25.268  0.00  0.00    +0.074 C 
ATOM      2  C   UNL     1      -3.956   0.735  24.985  0.00  0.00    +0.139 A 
ATOM      3  N   UNL     1      -4.142  -0.060  24.866  0.00  0.00    -0.231 NA
ATOM      4  C   UNL     1      -3.567  -0.580  24.583  0.00  0.00    +0.084 A 
ATOM      5  C   UNL     1      -2.807  -0.305  24.420  0.00  0.00    +0.034 A 
ATOM      6  C   UNL     1      -2.622   0.490  24.539  0.00  0.00    +0.063 A 
ATOM      7  N   UNL     1      -3.196   1.010  24.822  0.00  0.00    -0.235 NA
BRANCH   4  25
ATOM     25  C   UNL     1      -3.753  -1.375  24.463  0.00  0.00    +0.024 A 
ATOM     26  C   UNL     1      -3.592  -1.929  25.053  0.00  0.00    +0.036 A 
ATOM     27 BR   UNL     1      -3.247  -1.688  25.762  0.00  0.00    -0.049 Br
ATOM     28  C   UNL     1      -3.778  -2.724  24.933  0.00  0.00    +0.007 A 
ATOM     29  C   UNL     1      -4.123  -2.965  24.224  0.00  0.00    +0.001 A 
ATOM     30  C   UNL     1      -4.284  -2.411  23.634  0.00  0.00    +0.000 A 
ATOM     31  C   UNL     1      -4.098  -1.616  23.754  0.00  0.00    +0.002 A 
ENDBRANCH   4  25
ENDBRANCH   8   6
BRANCH  15  16
ATOM     16  C   UNL     1       0.331   1.545  23.924  0.00  0.00    +0.131 C 
BRANCH  16  17
ATOM     17  N   UNL     1       0.860   1.060  23.517  0.00  0.00    -0.204 NA
ATOM     18  C   UNL     1       1.662   1.250  23.498  0.00  0.00    +0.242 C 
ATOM     19  O   UNL     1       1.937   1.924  23.886  0.00  0.00    -0.273 OA
BRANCH  18  20
ATOM     20  C   UNL     1       2.191   0.764  23.091  0.00  0.00    +0.099 C 
BRANCH  20  21
ATOM     21  C   UNL     1       2.990   0.968  23.049  0.00  0.00    +0.124 C 
BRANCH  21  22
ATOM     22  C   UNL     1       3.515   0.492  22.627  0.00  0.00    +0.365 C 
ATOM     23  O   UNL     1       4.013  -0.030  23.028  0.00  0.00    -0.246 OA
ATOM     24  O   UNL     1       3.543   0.538  21.804  0.00  0.00    -0.246 OA
ENDBRANCH  21  22
ENDBRANCH  20  21
ENDBRANCH  18  20
ENDBRANCH  16  17
ENDBRANCH  15  16
TORSDOF 7
ENDMDL
MODEL 7
REMARK VINA RESULT:      -8.9      3.953      5.864
REMARK  Name = 
REMARK  7 active torsions:
REMARK  status: ('A' for Active; 'I' for Inactive)
REMARK    1  A    between atoms: C_4  and  C_25
REMARK    2  A    between atoms: C_6  and  C_8
REMARK    3  A    between atoms: C_15  and  C_16
REMARK    4  A    between atoms: C_16  and  N_17
REMARK    5  A    between atoms: C_18  and  C_20
REMARK    6  A    between atoms: C_20  and  C_21
REMARK    7  A    between atoms: C_21  and  C_22
REMARK                            x       y       z     vdW  Elec       q    Type
REMARK                         _______ _______ _______ _____ _____    ______ ____
ROOT
ATOM      8  C   UNL     1      -3.856   1.418  24.346  0.00  0.00    +0.056 C 
ATOM      9  C   UNL     1      -3.452   0.942  23.882  0.00  0.00    +0.078 C 
ATOM     10  N   UNL     1      -4.048   0.720  24.408  0.00  0.00    -0.272 NA
ATOM     11  C   UNL     1      -4.386   1.593  24.879  0.00  0.00    +0.072 C 
ATOM     12  C   UNL     1      -4.781   1.893  25.305  0.00  0.00    +0.018 C 
ATOM     13  C   UNL     1      -4.439   1.193  24.860  0.00  0.00    +0.010 C 
ATOM     14  C   UNL     1      -4.784   0.408  25.052  0.00  0.00    +0.018 C 
ATOM     15  C   UNL     1      -4.411  -0.092  24.612  0.00  0.00    +0.079 C 
ENDROOT
BRANCH   8   6
ATOM      1  C   UNL     1      -4.616   4.105  23.734  0.00  0.00    +0.074 C 
ATOM      2  C   UNL     1      -4.054   3.565  24.006  0.00  0.00    +0.139 A 
ATOM      3  N   UNL     1      -3.310   3.831  24.244  0.00  0.00    -0.231 NA
ATOM      4  C   UNL     1      -2.747   3.292  24.516  0.00  0.00    +0.084 A 
ATOM      5  C   UNL     1      -2.929   2.488  24.550  0.00  0.00    +0.034 A 
ATOM      6  C   UNL     1      -3.674   2.223  24.312  0.00  0.00    +0.063 A 
ATOM      7  N   UNL     1      -4.236   2.761  24.040  0.00  0.00    -0.235 NA
BRANCH   4  25
ATOM     25  C   UNL     1      -2.003   3.556  24.754  0.00  0.00    +0.024 A 
ATOM     26  C   UNL     1      -1.925   4.007  25.440  0.00  0.00    +0.036 A 
ATOM     27 BR   UNL     1      -2.593   4.192  25.889  0.00  0.00    -0.049 Br
ATOM     28  C   UNL     1      -1.181   4.271  25.678  0.00  0.00    +0.007 A 
ATOM     29  C   UNL     1      -0.514   4.085  25.229  0.00  0.00    +0.001 A 
ATOM     30  C   UNL     1      -0.592   3.635  24.542  0.00  0.00    +0.000 A 
ATOM     31  C   UNL     1      -1.336   3.370  24.305  0.00  0.00    +0.002 A 
ENDBRANCH   4  25
ENDBRANCH   8   6
BRANCH  15  16
ATOM     16  C   UNL     1      -4.364  -0.895  24.430  0.00  0.00    +0.131 C 
BRANCH  16  17
ATOM     17  N   UNL     1      -3.714  -1.338  24.679  0.00  0.00    -0.204 NA
ATOM     18  C   UNL     1      -3.622  -2.115  24.420  0.00  0.00    +0.242 C 
ATOM     19  O   UNL     1      -4.180  -2.451  23.913  0.00  0.00    -0.273 OA
BRANCH  18  20
ATOM     20  C   UNL     1      -2.972  -2.558  24.669  0.00  0.00    +0.099 C 
BRANCH  20  21
ATOM     21  C   UNL     1      -2.288  -2.582  24.208  0.00  0.00    +0.124 C 
BRANCH  21  22
ATOM     22  C   UNL     1      -1.547  -2.530  24.567  0.00  0.00    +0.365 C 
ATOM     23  O   UNL     1      -1.357  -3.026  25.197  0.00  0.00    -0.246 OA
ATOM     24  O   UNL     1      -0.994  -1.981  24.294  0.00  0.00    -0.246 OA
ENDBRANCH  21  22
ENDBRANCH  20  21
ENDBRANCH  18  20
ENDBRANCH  16  17
ENDBRANCH  15  16
TORSDOF 7
ENDMDL
MODEL 8
REMARK VINA RESULT:      -8.7      3.688      5.267
REMARK  Name = 
REMARK  7 active torsions:
REMARK  status: ('A' for Active; 'I' for Inactive)
REMARK    1  A    between atoms: C_4  and  C_25
REMARK    2  A    between atoms: C_6  and  C_8
REMARK    3  A    between atoms: C_15  and  C_16
REMARK    4  A    between atoms: C_16  and  N_17
REMARK    5  A    between atoms: C_18  and  C_20
REMARK    6  A    between atoms: C_20  and  C_21
REMARK    7  A    between atoms: C_21  and  C_22
REMARK                            x       y       z     vdW  Elec       q    Type
REMARK                         _______ _______ _______ _____ _____    ______ ____
ROOT
ATOM      8  C   UNL     1      -1.809   0.841  24.732  0.00  0.00    +0.056 C 
ATOM      9  C   UNL     1      -2.124   1.124  25.386  0.00  0.00    +0.078 C 
ATOM     10  N   UNL     1      -1.932   1.557  24.710  0.00  0.00    -0.272 NA
ATOM     11  C   UNL     1      -1.529   0.885  24.014  0.00  0.00    +0.072 C 
ATOM     12  C   UNL     1      -1.270   0.762  23.427  0.00  0.00    +0.018 C 
ATOM     13  C   UNL     1      -1.624   1.273  24.073  0.00  0.00    +0.010 C 
ATOM     14  C   UNL     1      -1.706   2.127  23.887  0.00  0.00    +0.018 C 
ATOM     15  C   UNL     1      -2.015   2.444  24.510  0.00  0.00    +0.079 C 
ENDROOT
BRANCH   8   6
ATOM      1  C   UNL     1       0.064  -1.317  24.776  0.00  0.00    +0.074 C 
ATOM      2  C   UNL     1      -0.715  -1.047  24.731  0.00  0.00    +0.139 A 
ATOM      3  N   UNL     1      -1.334  -1.587  24.662  0.00  0.00    -0.231 NA
ATOM      4  C   UNL     1      -2.113  -1.318  24.617  0.00  0.00    +0.084 A 
ATOM      5  C   UNL     1      -2.271  -0.509  24.640  0.00  0.00    +0.034 A 
ATOM      6  C   UNL     1      -1.651   0.031  24.709  0.00  0.00    +0.063 A 
ATOM      7  N   UNL     1      -0.873  -0.238  24.754  0.00  0.00    -0.235 NA
BRANCH   4  25
ATOM     25  C   UNL     1      -2.733  -1.858  24.549  0.00  0.00    +0.024 A 
ATOM     26  C   UNL     1      -3.087  -2.168  25.226  0.00  0.00    +0.036 A 
ATOM     27 BR   UNL     1      -2.819  -1.938  25.972  0.00  0.00    -0.049 Br
ATOM     28  C   UNL     1      -3.707  -2.707  25.158  0.00  0.00    +0.007 A 
ATOM     29  C   UNL     1      -3.974  -2.936  24.411  0.00  0.00    +0.001 A 
ATOM     30  C   UNL     1      -3.620  -2.626  23.733  0.00  0.00    +0.000 A 
ATOM     31  C   UNL     1      -3.000  -2.087  23.802  0.00  0.00    +0.002 A 
ENDBRANCH   4  25
ENDBRANCH   8   6
BRANCH  15  16
ATOM     16  C   UNL     1      -2.271   3.164  24.818  0.00  0.00    +0.131 C 
BRANCH  16  17
ATOM     17  N   UNL     1      -3.073   3.359  24.800  0.00  0.00    -0.204 NA
ATOM     18  C   UNL     1      -3.369   3.930  25.316  0.00  0.00    +0.242 C 
ATOM     19  O   UNL     1      -2.866   4.305  25.851  0.00  0.00    -0.273 OA
BRANCH  18  20
ATOM     20  C   UNL     1      -4.171   4.125  25.298  0.00  0.00    +0.099 C 
BRANCH  20  21
ATOM     21  C   UNL     1      -4.698   3.753  25.812  0.00  0.00    +0.124 C 
BRANCH  21  22
ATOM     22  C   UNL     1      -5.506   3.747  25.641  0.00  0.00    +0.365 C 
ATOM     23  O   UNL     1      -5.937   4.449  25.661  0.00  0.00    -0.246 OA
ATOM     24  O   UNL     1      -5.882   3.038  25.451  0.00  0.00    -0.246 OA
ENDBRANCH  21  22
ENDBRANCH  20  21
ENDBRANCH  18  20
ENDBRANCH  16  17
ENDBRANCH  15  16
TORSDOF 7
ENDMDL
