MODEL 1
REMARK VINA RESULT:     -12.2      0.000      0.000
REMARK  Name = 
REMARK  7 active torsions:
REMARK  status: ('A' for Active; 'I' for Inactive)
REMARK    1  A    between atoms: N_4  and  C_5
REMARK    2  A    between atoms: C_8  and  C_11
REMARK    3  A    between atoms: C_11  and  C_13
REMARK    4  A    between atoms: N_19  and  C_20
REMARK    5  A    between atoms: C_20  and  C_21
REMARK    6  A    between atoms: C_21  and  C_22
REMARK    7  A    between atoms: C_22  and  C_23
REMARK                            x       y       z     vdW  Elec       q    Type
REMARK                         _______ _______ _______ _____ _____    ______ ____
ROOT
ATOM     13  C   UNL     1      -4.388   1.805  24.720  0.00  0.00    +0.139 C 
ATOM     14  C   UNL     1      -5.183   1.662  24.553  0.00  0.00    +0.165 C 
ATOM     15  O   UNL     1      -5.767   2.143  24.883  0.00  0.00    -0.343 OA
ATOM     16  C   UNL     1      -5.555   2.767  25.379  0.00  0.00    +0.227 C 
ATOM     17  C   UNL     1      -4.760   2.911  25.546  0.00  0.00    +0.256 C 
ATOM     18  O   UNL     1      -4.549   3.534  26.042  0.00  0.00    -0.272 OA
ATOM     19  N   UNL     1      -4.176   2.429  25.216  0.00  0.00    -0.274 N 
ENDROOT
BRANCH  13  11
ATOM     11  C   UNL     1      -3.803   1.325  24.390  0.00  0.00    +0.195 C 
ATOM     12  O   UNL     1      -3.196   1.659  23.944  0.00  0.00    -0.216 OA
BRANCH  11   8
ATOM      5  C   UNL     1      -3.875  -1.125  24.741  0.00  0.00    +0.073 A 
ATOM      6  C   UNL     1      -4.110  -0.805  24.018  0.00  0.00    +0.016 A 
ATOM      7  C   UNL     1      -4.086   0.011  23.901  0.00  0.00    -0.000 A 
ATOM      8  C   UNL     1      -3.827   0.507  24.507  0.00  0.00    +0.010 A 
ATOM      9  C   UNL     1      -3.592   0.188  25.230  0.00  0.00    -0.000 A 
ATOM     10  C   UNL     1      -3.615  -0.629  25.347  0.00  0.00    +0.016 A 
BRANCH   5   4
ATOM      1  C   UNL     1      -3.275  -3.223  24.765  0.00  0.00    +0.097 C 
ATOM      2  C   UNL     1      -3.251  -2.407  24.648  0.00  0.00    +0.246 C 
ATOM      3  O   UNL     1      -2.580  -2.056  24.320  0.00  0.00    -0.273 OA
ATOM      4  N   UNL     1      -3.898  -1.941  24.858  0.00  0.00    -0.179 NA
ENDBRANCH   5   4
ENDBRANCH  11   8
ENDBRANCH  13  11
BRANCH  19  20
ATOM     20  C   UNL     1      -3.380   2.573  25.383  0.00  0.00    +0.094 C 
BRANCH  20  21
ATOM     21  C   UNL     1      -3.085   3.342  25.351  0.00  0.00    +0.026 C 
BRANCH  21  22
ATOM     22  C   UNL     1      -2.407   3.541  25.776  0.00  0.00    +0.028 C 
BRANCH  22  23
ATOM     23  C   UNL     1      -1.844   4.043  25.445  0.00  0.00    -0.022 A 
ATOM     24  C   UNL     1      -1.118   3.741  25.194  0.00  0.00    -0.004 A 
ATOM     25  C   UNL     1      -0.554   4.244  24.862  0.00  0.00    -0.000 A 
ATOM     26  C   UNL     1      -0.717   5.048  24.780  0.00  0.00    -0.000 A 
ATOM     27  C   UNL     1      -1.443   5.351  25.030  0.00  0.00    -0.000 A 
ATOM     28  C   UNL     1      -2.006   4.848  25.362  0.00  0.00    -0.004 A 
ENDBRANCH  22  23
ENDBRANCH  21  22
ENDBRANCH  20  21
ENDBRANCH  19  20
TORSDOF 7
ENDMDL
MODEL 2
REMARK VINA RESULT:     -12.0      2.350      5.799
REMARK  Name = 
REMARK  7 active torsions:
REMARK  status: ('A' for Active; 'I' for Inactive)
REMARK    1  A    between atoms: N_4  and  C_5
REMARK    2  A    between atoms: C_8  and  C_11
REMARK    3  A    between atoms: C_11  and  C_13
REMARK    4  A    between atoms: N_19  and  C_20
REMARK    5  A    between atoms: C_20  and  C_21
REMARK    6  A    between atoms: C_21  and  C_22
REMARK    7  A    between atoms: C_22  and  C_23
REMARK                            x       y       z     vdW  Elec       q    Type
REMARK                         _______ _______ _______ _____ _____    ______ ____
ROOT
ATOM     13  C   UNL     1      -0.463   0.703  24.854  0.00  0.00    +0.139 C 
ATOM     14  C   UNL     1       0.076   1.158  24.425  0.00  0.00    +0.165 C 
ATOM     15  O   UNL     1       0.454   0.838  23.766  0.00  0.00    -0.343 OA
ATOM     16  C   UNL     1       0.293   0.062  23.535  0.00  0.00    +0.227 C 
ATOM     17  C   UNL     1      -0.245  -0.393  23.963  0.00  0.00    +0.256 C 
ATOM     18  O   UNL     1      -0.405  -1.168  23.732  0.00  0.00    -0.272 OA
ATOM     19  N   UNL     1      -0.623  -0.073  24.623  0.00  0.00    -0.274 N 
ENDROOT
BRANCH  13  11
ATOM     11  C   UNL     1      -0.841   1.022  25.514  0.00  0.00    +0.195 C 
ATOM     12  O   UNL     1      -0.986   0.552  26.176  0.00  0.00    -0.216 OA
BRANCH  11   8
ATOM      5  C   UNL     1      -1.541   3.397  25.508  0.00  0.00    +0.073 A 
ATOM      6  C   UNL     1      -0.866   3.167  25.923  0.00  0.00    +0.016 A 
ATOM      7  C   UNL     1      -0.632   2.376  25.925  0.00  0.00    -0.000 A 
ATOM      8  C   UNL     1      -1.075   1.815  25.512  0.00  0.00    +0.010 A 
ATOM      9  C   UNL     1      -1.749   2.044  25.098  0.00  0.00    -0.000 A 
ATOM     10  C   UNL     1      -1.982   2.835  25.096  0.00  0.00    +0.016 A 
BRANCH   5   4
ATOM      1  C   UNL     1      -1.570   5.537  25.083  0.00  0.00    +0.097 C 
ATOM      2  C   UNL     1      -1.337   4.746  25.085  0.00  0.00    +0.246 C 
ATOM      3  O   UNL     1      -0.666   4.512  24.667  0.00  0.00    -0.273 OA
ATOM      4  N   UNL     1      -1.774   4.188  25.506  0.00  0.00    -0.179 NA
ENDBRANCH   5   4
ENDBRANCH  11   8
ENDBRANCH  13  11
BRANCH  19  20
ATOM     20  C   UNL     1      -1.162  -0.529  25.052  0.00  0.00    +0.094 C 
BRANCH  20  21
ATOM     21  C   UNL     1      -1.765  -0.932  24.659  0.00  0.00    +0.026 C 
BRANCH  21  22
ATOM     22  C   UNL     1      -2.345  -1.327  25.091  0.00  0.00    +0.028 C 
BRANCH  22  23
ATOM     23  C   UNL     1      -3.003  -1.642  24.708  0.00  0.00    -0.022 A 
ATOM     24  C   UNL     1      -3.076  -2.458  24.615  0.00  0.00    -0.004 A 
ATOM     25  C   UNL     1      -3.734  -2.773  24.231  0.00  0.00    -0.000 A 
ATOM     26  C   UNL     1      -4.320  -2.272  23.939  0.00  0.00    -0.000 A 
ATOM     27  C   UNL     1      -4.249  -1.455  24.031  0.00  0.00    -0.000 A 
ATOM     28  C   UNL     1      -3.590  -1.140  24.416  0.00  0.00    -0.004 A 
ENDBRANCH  22  23
ENDBRANCH  21  22
ENDBRANCH  20  21
ENDBRANCH  19  20
TORSDOF 7
ENDMDL
MODEL 3
REMARK VINA RESULT:     -11.6      1.496      4.433
REMARK  Name = 
REMARK  7 active torsions:
REMARK  status: ('A' for Active; 'I' for Inactive)
REMARK    1  A    between atoms: N_4  and  C_5
REMARK    2  A    between atoms: C_8  and  C_11
REMARK    3  A    between atoms: C_11  and  C_13
REMARK    4  A    between atoms: N_19  and  C_20
REMARK    5  A    between atoms: C_20  and  C_21
REMARK    6  A    between atoms: C_21  and  C_22
REMARK    7  A    between atoms: C_22  and  C_23
REMARK                            x       y       z     vdW  Elec       q    Type
REMARK                         _______ _______ _______ _____ _____    ______ ____
ROOT
ATOM     13  C   UNL     1      -4.242   2.777  24.800  0.00  0.00    +0.139 C 
ATOM     14  C   UNL     1      -4.496   3.380  25.303  0.00  0.00    +0.165 C 
ATOM     15  O   UNL     1      -5.161   3.270  25.777  0.00  0.00    -0.343 OA
ATOM     16  C   UNL     1      -5.573   2.556  25.749  0.00  0.00    +0.227 C 
ATOM     17  C   UNL     1      -5.320   1.952  25.247  0.00  0.00    +0.256 C 
ATOM     18  O   UNL     1      -5.732   1.239  25.219  0.00  0.00    -0.272 OA
ATOM     19  N   UNL     1      -4.654   2.063  24.772  0.00  0.00    -0.274 N 
ENDROOT
BRANCH  13  11
ATOM     11  C   UNL     1      -3.576   2.887  24.326  0.00  0.00    +0.195 C 
ATOM     12  O   UNL     1      -3.653   2.918  23.506  0.00  0.00    -0.216 OA
BRANCH  11   8
ATOM      5  C   UNL     1      -1.341   3.123  25.366  0.00  0.00    +0.073 A 
ATOM      6  C   UNL     1      -1.426   2.703  24.661  0.00  0.00    +0.016 A 
ATOM      7  C   UNL     1      -2.170   2.624  24.314  0.00  0.00    -0.000 A 
ATOM      8  C   UNL     1      -2.830   2.966  24.673  0.00  0.00    +0.010 A 
ATOM      9  C   UNL     1      -2.746   3.386  25.377  0.00  0.00    -0.000 A 
ATOM     10  C   UNL     1      -2.002   3.464  25.724  0.00  0.00    +0.016 A 
BRANCH   5   4
ATOM      1  C   UNL     1       0.487   2.643  26.456  0.00  0.00    +0.097 C 
ATOM      2  C   UNL     1      -0.257   2.564  26.110  0.00  0.00    +0.246 C 
ATOM      3  O   UNL     1      -0.662   1.847  26.160  0.00  0.00    -0.273 OA
ATOM      4  N   UNL     1      -0.598   3.202  25.713  0.00  0.00    -0.179 NA
ENDBRANCH   5   4
ENDBRANCH  11   8
ENDBRANCH  13  11
BRANCH  19  20
ATOM     20  C   UNL     1      -4.400   1.459  24.270  0.00  0.00    +0.094 C 
BRANCH  20  21
ATOM     21  C   UNL     1      -4.356   0.683  24.548  0.00  0.00    +0.026 C 
BRANCH  21  22
ATOM     22  C   UNL     1      -4.058   0.088  24.061  0.00  0.00    +0.028 C 
BRANCH  22  23
ATOM     23  C   UNL     1      -3.880  -0.652  24.376  0.00  0.00    -0.022 A 
ATOM     24  C   UNL     1      -4.192  -1.333  24.031  0.00  0.00    -0.004 A 
ATOM     25  C   UNL     1      -4.013  -2.074  24.346  0.00  0.00    -0.000 A 
ATOM     26  C   UNL     1      -3.523  -2.134  25.006  0.00  0.00    -0.000 A 
ATOM     27  C   UNL     1      -3.210  -1.453  25.352  0.00  0.00    -0.000 A 
ATOM     28  C   UNL     1      -3.389  -0.712  25.037  0.00  0.00    -0.004 A 
ENDBRANCH  22  23
ENDBRANCH  21  22
ENDBRANCH  20  21
ENDBRANCH  19  20
TORSDOF 7
ENDMDL
MODEL 4
REMARK VINA RESULT:     -11.3      2.161      3.161
REMARK  Name = 
REMARK  7 active torsions:
REMARK  status: ('A' for Active; 'I' for Inactive)
REMARK    1  A    between atoms: N_4  and  C_5
REMARK    2  A    between atoms: C_8  and  C_11
REMARK    3  A    between atoms: C_11  and  C_13
REMARK    4  A    between atoms: N_19  and  C_20
REMARK    5  A    between atoms: C_20  and  C_21
REMARK    6  A    between atoms: C_21  and  C_22
REMARK    7  A    between atoms: C_22  and  C_23
REMARK                            x       y       z     vdW  Elec       q    Type
REMARK                         _______ _______ _______ _____ _____    ______ ____
ROOT
ATOM     13  C   UNL     1      -0.590   0.347  24.757  0.00  0.00    +0.139 C 
ATOM     14  C   UNL     1      -0.410  -0.214  24.179  0.00  0.00    +0.165 C 
ATOM     15  O   UNL     1       0.135  -0.036  23.587  0.00  0.00    -0.343 OA
ATOM     16  C   UNL     1       0.501   0.703  23.571  0.00  0.00    +0.227 C 
ATOM     17  C   UNL     1       0.322   1.265  24.149  0.00  0.00    +0.256 C 
ATOM     18  O   UNL     1       0.687   2.003  24.134  0.00  0.00    -0.272 OA
ATOM     19  N   UNL     1      -0.224   1.086  24.742  0.00  0.00    -0.274 N 
ENDROOT
BRANCH  13  11
ATOM     11  C   UNL     1      -1.135   0.169  25.350  0.00  0.00    +0.195 C 
ATOM     12  O   UNL     1      -0.983   0.387  26.130  0.00  0.00    -0.216 OA
BRANCH  11   8
ATOM      5  C   UNL     1      -3.232  -1.021  24.785  0.00  0.00    +0.073 A 
ATOM      6  C   UNL     1      -3.120  -0.241  24.537  0.00  0.00    +0.016 A 
ATOM      7  C   UNL     1      -2.421   0.155  24.725  0.00  0.00    -0.000 A 
ATOM      8  C   UNL     1      -1.835  -0.228  25.162  0.00  0.00    +0.010 A 
ATOM      9  C   UNL     1      -1.946  -1.006  25.410  0.00  0.00    -0.000 A 
ATOM     10  C   UNL     1      -2.645  -1.403  25.221  0.00  0.00    +0.016 A 
BRANCH   5   4
ATOM      1  C   UNL     1      -4.609  -2.470  23.911  0.00  0.00    +0.097 C 
ATOM      2  C   UNL     1      -3.910  -2.074  24.099  0.00  0.00    +0.246 C 
ATOM      3  O   UNL     1      -3.191  -2.334  23.789  0.00  0.00    -0.273 OA
ATOM      4  N   UNL     1      -3.930  -1.417  24.597  0.00  0.00    -0.179 NA
ENDBRANCH   5   4
ENDBRANCH  11   8
ENDBRANCH  13  11
BRANCH  19  20
ATOM     20  C   UNL     1      -0.404   1.648  25.320  0.00  0.00    +0.094 C 
BRANCH  20  21
ATOM     21  C   UNL     1      -0.578   2.423  25.100  0.00  0.00    +0.026 C 
BRANCH  21  22
ATOM     22  C   UNL     1      -0.656   3.007  25.678  0.00  0.00    +0.028 C 
BRANCH  22  23
ATOM     23  C   UNL     1      -1.114   3.675  25.531  0.00  0.00    -0.022 A 
ATOM     24  C   UNL     1      -0.785   4.324  25.142  0.00  0.00    -0.004 A 
ATOM     25  C   UNL     1      -1.244   4.994  24.994  0.00  0.00    -0.000 A 
ATOM     26  C   UNL     1      -2.032   5.014  25.234  0.00  0.00    -0.000 A 
ATOM     27  C   UNL     1      -2.363   4.365  25.623  0.00  0.00    -0.000 A 
ATOM     28  C   UNL     1      -1.904   3.696  25.771  0.00  0.00    -0.004 A 
ENDBRANCH  22  23
ENDBRANCH  21  22
ENDBRANCH  20  21
ENDBRANCH  19  20
TORSDOF 7
ENDMDL
MODEL 5
REMARK VINA RESULT:     -10.8      1.989      3.499
REMARK  Name = 
REMARK  7 active torsions:
REMARK  status: ('A' for Active; 'I' for Inactive)
REMARK    1  A    between atoms: N_4  and  C_5
REMARK    2  A    between atoms: C_8  and  C_11
REMARK    3  A    between atoms: C_11  and  C_13
REMARK    4  A    between atoms: N_19  and  C_20
REMARK    5  A    between atoms: C_20  and  C_21
REMARK    6  A    between atoms: C_21  and  C_22
REMARK    7  A    between atoms: C_22  and  C_23
REMARK                            x       y       z     vdW  Elec       q    Type
REMARK                         _______ _______ _______ _____ _____    ______ ____
ROOT
ATOM     13  C   UNL     1      -1.330   2.698  24.417  0.00  0.00    +0.139 C 
ATOM     14  C   UNL     1      -0.569   2.815  24.715  0.00  0.00    +0.165 C 
ATOM     15  O   UNL     1      -0.398   3.488  25.158  0.00  0.00    -0.343 OA
ATOM     16  C   UNL     1      -0.987   4.047  25.304  0.00  0.00    +0.227 C 
ATOM     17  C   UNL     1      -1.748   3.932  25.007  0.00  0.00    +0.256 C 
ATOM     18  O   UNL     1      -2.336   4.490  25.153  0.00  0.00    -0.272 OA
ATOM     19  N   UNL     1      -1.919   3.257  24.563  0.00  0.00    -0.274 N 
ENDROOT
BRANCH  13  11
ATOM     11  C   UNL     1      -1.503   2.024  23.974  0.00  0.00    +0.195 C 
ATOM     12  O   UNL     1      -1.897   2.094  23.253  0.00  0.00    -0.216 OA
BRANCH  11   8
ATOM      5  C   UNL     1      -0.836  -0.209  24.809  0.00  0.00    +0.073 A 
ATOM      6  C   UNL     1      -0.441   0.126  24.166  0.00  0.00    +0.016 A 
ATOM      7  C   UNL     1      -0.664   0.870  23.887  0.00  0.00    -0.000 A 
ATOM      8  C   UNL     1      -1.280   1.279  24.253  0.00  0.00    +0.010 A 
ATOM      9  C   UNL     1      -1.674   0.945  24.895  0.00  0.00    -0.000 A 
ATOM     10  C   UNL     1      -1.451   0.201  25.174  0.00  0.00    +0.016 A 
BRANCH   5   4
ATOM      1  C   UNL     1      -0.822  -2.365  25.147  0.00  0.00    +0.097 C 
ATOM      2  C   UNL     1      -1.044  -1.621  24.868  0.00  0.00    +0.246 C 
ATOM      3  O   UNL     1      -1.697  -1.544  24.370  0.00  0.00    -0.273 OA
ATOM      4  N   UNL     1      -0.613  -0.952  25.087  0.00  0.00    -0.179 NA
ENDBRANCH   5   4
ENDBRANCH  11   8
ENDBRANCH  13  11
BRANCH  19  20
ATOM     20  C   UNL     1      -2.681   3.142  24.266  0.00  0.00    +0.094 C 
BRANCH  20  21
ATOM     21  C   UNL     1      -3.333   3.202  24.768  0.00  0.00    +0.026 C 
BRANCH  21  22
ATOM     22  C   UNL     1      -4.095   3.211  24.453  0.00  0.00    +0.028 C 
BRANCH  22  23
ATOM     23  C   UNL     1      -4.713   2.848  24.858  0.00  0.00    -0.022 A 
ATOM     24  C   UNL     1      -5.007   3.184  25.552  0.00  0.00    -0.004 A 
ATOM     25  C   UNL     1      -5.626   2.819  25.958  0.00  0.00    -0.000 A 
ATOM     26  C   UNL     1      -5.952   2.119  25.670  0.00  0.00    -0.000 A 
ATOM     27  C   UNL     1      -5.659   1.782  24.976  0.00  0.00    -0.000 A 
ATOM     28  C   UNL     1      -5.040   2.146  24.570  0.00  0.00    -0.004 A 
ENDBRANCH  22  23
ENDBRANCH  21  22
ENDBRANCH  20  21
ENDBRANCH  19  20
TORSDOF 7
ENDMDL
MODEL 6
REMARK VINA RESULT:     -10.6      1.800      5.130
REMARK  Name = 
REMARK  7 active torsions:
REMARK  status: ('A' for Active; 'I' for Inactive)
REMARK    1  A    between atoms: N_4  and  C_5
REMARK    2  A    between atoms: C_8  and  C_11
REMARK    3  A    between atoms: C_11  and  C_13
REMARK    4  A    between atoms: N_19  and  C_20
REMARK    5  A    between atoms: C_20  and  C_21
REMARK    6  A    between atoms: C_21  and  C_22
REMARK    7  A    between atoms: C_22  and  C_23
REMARK                            x       y       z     vdW  Elec       q    Type
REMARK                         _______ _______ _______ _____ _____    ______ ____
ROOT
ATOM     13  C   UNL     1      -1.761   1.521  24.611  0.00  0.00    +0.139 C 
ATOM     14  C   UNL     1      -1.486   2.144  25.078  0.00  0.00    +0.165 C 
ATOM     15  O   UNL     1      -0.925   2.004  25.665  0.00  0.00    -0.343 OA
ATOM     16  C   UNL     1      -0.637   1.241  25.786  0.00  0.00    +0.227 C 
ATOM     17  C   UNL     1      -0.910   0.617  25.321  0.00  0.00    +0.256 C 
ATOM     18  O   UNL     1      -0.622  -0.145  25.442  0.00  0.00    -0.272 OA
ATOM     19  N   UNL     1      -1.473   0.758  24.733  0.00  0.00    -0.274 N 
ENDROOT
BRANCH  13  11
ATOM     11  C   UNL     1      -2.323   1.661  24.024  0.00  0.00    +0.195 C 
ATOM     12  O   UNL     1      -2.193   1.391  23.255  0.00  0.00    -0.216 OA
BRANCH  11   8
ATOM      5  C   UNL     1      -4.403   2.888  24.569  0.00  0.00    +0.073 A 
ATOM      6  C   UNL     1      -4.338   2.085  24.748  0.00  0.00    +0.016 A 
ATOM      7  C   UNL     1      -3.645   1.676  24.567  0.00  0.00    -0.000 A 
ATOM      8  C   UNL     1      -3.017   2.070  24.205  0.00  0.00    +0.010 A 
ATOM      9  C   UNL     1      -3.081   2.872  24.026  0.00  0.00    -0.000 A 
ATOM     10  C   UNL     1      -3.774   3.281  24.208  0.00  0.00    +0.016 A 
BRANCH   5   4
ATOM      1  C   UNL     1      -5.882   4.051  25.675  0.00  0.00    +0.097 C 
ATOM      2  C   UNL     1      -5.188   3.642  25.494  0.00  0.00    +0.246 C 
ATOM      3  O   UNL     1      -4.588   3.576  26.055  0.00  0.00    -0.273 OA
ATOM      4  N   UNL     1      -5.095   3.297  24.750  0.00  0.00    -0.179 NA
ENDBRANCH   5   4
ENDBRANCH  11   8
ENDBRANCH  13  11
BRANCH  19  20
ATOM     20  C   UNL     1      -1.747   0.134  24.267  0.00  0.00    +0.094 C 
BRANCH  20  21
ATOM     21  C   UNL     1      -1.998  -0.567  24.623  0.00  0.00    +0.026 C 
BRANCH  21  22
ATOM     22  C   UNL     1      -2.091  -1.249  24.168  0.00  0.00    +0.028 C 
BRANCH  22  23
ATOM     23  C   UNL     1      -2.720  -1.760  24.316  0.00  0.00    -0.022 A 
ATOM     24  C   UNL     1      -3.427  -1.677  23.898  0.00  0.00    -0.004 A 
ATOM     25  C   UNL     1      -4.057  -2.189  24.046  0.00  0.00    -0.000 A 
ATOM     26  C   UNL     1      -3.980  -2.784  24.611  0.00  0.00    -0.000 A 
ATOM     27  C   UNL     1      -3.274  -2.868  25.030  0.00  0.00    -0.000 A 
ATOM     28  C   UNL     1      -2.644  -2.356  24.882  0.00  0.00    -0.004 A 
ENDBRANCH  22  23
ENDBRANCH  21  22
ENDBRANCH  20  21
ENDBRANCH  19  20
TORSDOF 7
ENDMDL
