REMARK  Name = 
REMARK  4 active torsions:
REMARK  status: ('A' for Active; 'I' for Inactive)
REMARK    1  A    between atoms: N_5  and  C_8
REMARK    2  A    between atoms: C_11  and  C_14
REMARK    3  A    between atoms: C_17  and  C_19
REMARK    4  A    between atoms: N_23  and  C_24
REMARK                            x       y       z     vdW  Elec       q    Type
REMARK                         _______ _______ _______ _____ _____    ______ ____
ROOT
ATOM     14  C   UNL     1       2.834  -0.549   0.000  0.00  0.00    +0.205 A 
ATOM     15  N   UNL     1       3.501  -1.034   0.000  0.00  0.00    -0.056 NA
ATOM     16  O   UNL     1       3.247  -1.818   0.000  0.00  0.00    -0.336 OA
ATOM     17  C   UNL     1       2.421  -1.818   0.000  0.00  0.00    +0.251 A 
ATOM     18  N   UNL     1       2.167  -1.034   0.000  0.00  0.00    -0.190 NA
ENDROOT
BRANCH  14  11
ATOM      8  C   UNL     1       2.834   1.926   0.000  0.00  0.00    +0.132 A 
ATOM      9  C   UNL     1       3.548   1.514   0.000  0.00  0.00    +0.034 A 
ATOM     10  C   UNL     1       3.548   0.689   0.000  0.00  0.00    +0.008 A 
ATOM     11  C   UNL     1       2.834   0.276   0.000  0.00  0.00    +0.058 A 
ATOM     12  C   UNL     1       2.119   0.689   0.000  0.00  0.00    +0.103 A 
ATOM     13  N   UNL     1       2.119   1.514   0.000  0.00  0.00    -0.229 NA
BRANCH   8   5
ATOM      1  C   UNL     1       2.834   5.226   0.000  0.00  0.00    +0.090 C 
ATOM      2  N   UNL     1       2.834   4.401   0.000  0.00  0.00    -0.269 NA
ATOM      3  C   UNL     1       3.548   3.989   0.000  0.00  0.00    +0.094 C 
ATOM      4  C   UNL     1       3.548   3.164   0.000  0.00  0.00    +0.109 C 
ATOM      5  N   UNL     1       2.834   2.751   0.000  0.00  0.00    -0.290 N 
ATOM      6  C   UNL     1       2.119   3.164   0.000  0.00  0.00    +0.109 C 
ATOM      7  C   UNL     1       2.119   3.989   0.000  0.00  0.00    +0.094 C 
ENDBRANCH   8   5
ENDBRANCH  14  11
BRANCH  17  19
ATOM     19  C   UNL     1       1.937  -2.486   0.000  0.00  0.00    +0.138 C 
ATOM     20  C   UNL     1       2.192  -3.270   0.000  0.00  0.00    +0.027 C 
ATOM     21  C   UNL     1       1.524  -3.755   0.000  0.00  0.00    +0.019 C 
ATOM     22  C   UNL     1       0.857  -3.270   0.000  0.00  0.00    +0.072 C 
ATOM     23  N   UNL     1       1.111  -2.486   0.000  0.00  0.00    -0.268 NA
BRANCH  23  24
ATOM     24  C   UNL     1       0.627  -1.818   0.000  0.00  0.00    +0.063 C 
ATOM     25  C   UNL     1      -0.194  -1.905   0.000  0.00  0.00    +0.048 C 
ATOM     26  C   UNL     1      -0.679  -1.237   0.000  0.00  0.00    +0.144 C 
ATOM     27  O   UNL     1      -0.343  -0.483   0.000  0.00  0.00    -0.354 OA
ATOM     28  C   UNL     1       0.477  -0.397   0.000  0.00  0.00    +0.144 C 
ATOM     29  C   UNL     1       0.962  -1.065   0.000  0.00  0.00    +0.048 C 
ENDBRANCH  23  24
ENDBRANCH  17  19
TORSDOF 4
