MODEL 1
REMARK VINA RESULT:     -11.3      0.000      0.000
REMARK  Name = 
REMARK  6 active torsions:
REMARK  status: ('A' for Active; 'I' for Inactive)
REMARK    1  A    between atoms: C_2  and  C_9
REMARK    2  A    between atoms: C_16  and  C_17
REMARK    3  A    between atoms: C_17  and  N_18
REMARK    4  A    between atoms: C_20  and  C_21
REMARK    5  A    between atoms: C_21  and  S_22
REMARK    6  A    between atoms: S_22  and  C_23
REMARK                            x       y       z     vdW  Elec       q    Type
REMARK                         _______ _______ _______ _____ _____    ______ ____
ROOT
ATOM      9  C   UNL     1      -3.724  -0.203  24.508  0.00  0.00    +0.095 C 
ATOM     10  C   UNL     1      -3.640   0.298  23.918  0.00  0.00    +0.081 C 
ATOM     11  N   UNL     1      -4.143   0.388  24.566  0.00  0.00    -0.272 NA
ATOM     12  C   UNL     1      -4.020  -0.457  25.174  0.00  0.00    +0.072 C 
ATOM     13  C   UNL     1      -4.170  -0.797  25.711  0.00  0.00    +0.018 C 
ATOM     14  C   UNL     1      -4.221  -0.107  25.140  0.00  0.00    +0.013 C 
ATOM     15  C   UNL     1      -4.780   0.533  25.357  0.00  0.00    +0.019 C 
ATOM     16  C   UNL     1      -4.727   1.050  24.798  0.00  0.00    +0.082 C 
ENDROOT
BRANCH   9   2
ATOM      1  O   UNL     1      -3.636  -1.628  24.438  0.00  0.00    -0.273 OA
ATOM      2  C   UNL     1      -3.268  -0.891  24.487  0.00  0.00    +0.248 C 
ATOM      3  N   UNL     1      -2.446  -0.842  24.515  0.00  0.00    -0.154 NA
ATOM      4  C   UNL     1      -1.991  -1.529  24.494  0.00  0.00    +0.186 A 
ATOM      5  N   UNL     1      -1.166  -1.567  24.518  0.00  0.00    -0.221 NA
ATOM      6  C   UNL     1      -0.946  -2.361  24.485  0.00  0.00    +0.108 A 
ATOM      7  C   UNL     1      -1.633  -2.814  24.440  0.00  0.00    +0.059 A 
ATOM      8  S   UNL     1      -2.278  -2.300  24.446  0.00  0.00    -0.049 S 
ENDBRANCH   9   2
BRANCH  16  17
ATOM     17  C   UNL     1      -5.024   1.778  24.550  0.00  0.00    +0.145 C 
BRANCH  17  18
ATOM     18  N   UNL     1      -4.756   2.475  24.901  0.00  0.00    -0.229 N 
ATOM     19  C   UNL     1      -4.072   2.888  24.697  0.00  0.00    +0.114 A 
ATOM     20  C   UNL     1      -4.018   3.549  25.188  0.00  0.00    +0.112 A 
ATOM     29  N   UNL     1      -4.668   3.543  25.696  0.00  0.00    -0.132 NA
ATOM     30  N   UNL     1      -5.124   2.879  25.519  0.00  0.00    -0.064 NA
BRANCH  20  21
ATOM     21  C   UNL     1      -3.419   4.116  25.174  0.00  0.00    +0.111 C 
BRANCH  21  22
ATOM     22  S   UNL     1      -2.732   4.002  25.618  0.00  0.00    -0.107 S 
BRANCH  22  23
ATOM     23  C   UNL     1      -2.020   4.335  25.369  0.00  0.00    +0.026 A 
ATOM     24  C   UNL     1      -1.361   3.855  25.248  0.00  0.00    +0.006 A 
ATOM     25  C   UNL     1      -0.648   4.188  24.999  0.00  0.00    +0.001 A 
ATOM     26  C   UNL     1      -0.595   5.001  24.871  0.00  0.00    +0.000 A 
ATOM     27  C   UNL     1      -1.255   5.481  24.992  0.00  0.00    +0.001 A 
ATOM     28  C   UNL     1      -1.968   5.149  25.241  0.00  0.00    +0.006 A 
ENDBRANCH  22  23
ENDBRANCH  21  22
ENDBRANCH  20  21
ENDBRANCH  17  18
ENDBRANCH  16  17
TORSDOF 6
ENDMDL
MODEL 2
REMARK VINA RESULT:     -10.0      2.017      3.357
REMARK  Name = 
REMARK  6 active torsions:
REMARK  status: ('A' for Active; 'I' for Inactive)
REMARK    1  A    between atoms: C_2  and  C_9
REMARK    2  A    between atoms: C_16  and  C_17
REMARK    3  A    between atoms: C_17  and  N_18
REMARK    4  A    between atoms: C_20  and  C_21
REMARK    5  A    between atoms: C_21  and  S_22
REMARK    6  A    between atoms: S_22  and  C_23
REMARK                            x       y       z     vdW  Elec       q    Type
REMARK                         _______ _______ _______ _____ _____    ______ ____
ROOT
ATOM      9  C   UNL     1      -0.810   0.276  25.084  0.00  0.00    +0.095 C 
ATOM     10  C   UNL     1      -1.082   0.544  25.762  0.00  0.00    +0.081 C 
ATOM     11  N   UNL     1      -0.636   0.970  25.213  0.00  0.00    -0.272 NA
ATOM     12  C   UNL     1      -0.430   0.324  24.413  0.00  0.00    +0.072 C 
ATOM     13  C   UNL     1      -0.156   0.210  23.831  0.00  0.00    +0.018 C 
ATOM     14  C   UNL     1      -0.372   0.700  24.551  0.00  0.00    +0.013 C 
ATOM     15  C   UNL     1      -0.083   1.529  24.554  0.00  0.00    +0.019 C 
ATOM     16  C   UNL     1      -0.331   1.830  25.210  0.00  0.00    +0.082 C 
ENDROOT
BRANCH   9   2
ATOM      1  O   UNL     1      -0.373  -1.023  24.676  0.00  0.00    -0.273 OA
ATOM      2  C   UNL     1      -0.982  -0.509  24.891  0.00  0.00    +0.248 C 
ATOM      3  N   UNL     1      -1.761  -0.777  24.915  0.00  0.00    -0.154 NA
ATOM      4  C   UNL     1      -1.932  -1.561  24.723  0.00  0.00    +0.186 A 
ATOM      5  N   UNL     1      -2.681  -1.908  24.721  0.00  0.00    -0.221 NA
ATOM      6  C   UNL     1      -2.596  -2.697  24.496  0.00  0.00    +0.108 A 
ATOM      7  C   UNL     1      -1.796  -2.838  24.358  0.00  0.00    +0.059 A 
ATOM      8  S   UNL     1      -1.385  -2.136  24.498  0.00  0.00    -0.049 S 
ENDBRANCH   9   2
BRANCH  16  17
ATOM     17  C   UNL     1      -0.327   2.525  25.653  0.00  0.00    +0.145 C 
BRANCH  17  18
ATOM     18  N   UNL     1      -0.891   3.110  25.510  0.00  0.00    -0.229 N 
ATOM     19  C   UNL     1      -1.697   3.056  25.675  0.00  0.00    +0.114 A 
ATOM     20  C   UNL     1      -2.052   3.765  25.444  0.00  0.00    +0.112 A 
ATOM     29  N   UNL     1      -1.464   4.255  25.137  0.00  0.00    -0.132 NA
ATOM     30  N   UNL     1      -0.747   3.851  25.178  0.00  0.00    -0.064 NA
BRANCH  20  21
ATOM     21  C   UNL     1      -2.854   3.949  25.509  0.00  0.00    +0.111 C 
BRANCH  21  22
ATOM     22  S   UNL     1      -3.371   3.765  24.893  0.00  0.00    -0.107 S 
BRANCH  22  23
ATOM     23  C   UNL     1      -4.134   3.499  25.060  0.00  0.00    +0.026 A 
ATOM     24  C   UNL     1      -4.644   3.966  25.508  0.00  0.00    +0.006 A 
ATOM     25  C   UNL     1      -5.407   3.700  25.676  0.00  0.00    +0.001 A 
ATOM     26  C   UNL     1      -5.659   2.967  25.394  0.00  0.00    +0.000 A 
ATOM     27  C   UNL     1      -5.148   2.500  24.945  0.00  0.00    +0.001 A 
ATOM     28  C   UNL     1      -4.385   2.766  24.778  0.00  0.00    +0.006 A 
ENDBRANCH  22  23
ENDBRANCH  21  22
ENDBRANCH  20  21
ENDBRANCH  17  18
ENDBRANCH  16  17
TORSDOF 6
ENDMDL
MODEL 3
REMARK VINA RESULT:      -9.9      1.909      5.616
REMARK  Name = 
REMARK  6 active torsions:
REMARK  status: ('A' for Active; 'I' for Inactive)
REMARK    1  A    between atoms: C_2  and  C_9
REMARK    2  A    between atoms: C_16  and  C_17
REMARK    3  A    between atoms: C_17  and  N_18
REMARK    4  A    between atoms: C_20  and  C_21
REMARK    5  A    between atoms: C_21  and  S_22
REMARK    6  A    between atoms: S_22  and  C_23
REMARK                            x       y       z     vdW  Elec       q    Type
REMARK                         _______ _______ _______ _____ _____    ______ ____
ROOT
ATOM      9  C   UNL     1      -2.593   2.792  24.593  0.00  0.00    +0.095 C 
ATOM     10  C   UNL     1      -2.644   2.322  23.975  0.00  0.00    +0.081 C 
ATOM     11  N   UNL     1      -1.960   2.487  24.407  0.00  0.00    -0.272 NA
ATOM     12  C   UNL     1      -2.229   3.153  25.170  0.00  0.00    +0.072 C 
ATOM     13  C   UNL     1      -2.069   3.518  25.688  0.00  0.00    +0.018 C 
ATOM     14  C   UNL     1      -1.917   2.949  25.011  0.00  0.00    +0.013 C 
ATOM     15  C   UNL     1      -1.091   2.669  24.921  0.00  0.00    +0.019 C 
ATOM     16  C   UNL     1      -1.098   2.199  24.319  0.00  0.00    +0.082 C 
ENDROOT
BRANCH   9   2
ATOM      1  O   UNL     1      -3.306   3.985  24.931  0.00  0.00    -0.273 OA
ATOM      2  C   UNL     1      -3.286   3.164  24.843  0.00  0.00    +0.248 C 
ATOM      3  N   UNL     1      -3.959   2.716  25.005  0.00  0.00    -0.154 NA
ATOM      4  C   UNL     1      -4.651   3.088  25.255  0.00  0.00    +0.186 A 
ATOM      5  N   UNL     1      -5.365   2.714  25.438  0.00  0.00    -0.221 NA
ATOM      6  C   UNL     1      -5.906   3.293  25.662  0.00  0.00    +0.108 A 
ATOM      7  C   UNL     1      -5.529   4.026  25.618  0.00  0.00    +0.059 A 
ATOM      8  S   UNL     1      -4.754   3.898  25.367  0.00  0.00    -0.049 S 
ENDBRANCH   9   2
BRANCH  16  17
ATOM     17  C   UNL     1      -0.613   1.716  23.860  0.00  0.00    +0.145 C 
BRANCH  17  18
ATOM     18  N   UNL     1      -0.492   0.929  24.074  0.00  0.00    -0.229 N 
ATOM     19  C   UNL     1      -1.033   0.313  23.983  0.00  0.00    +0.114 A 
ATOM     20  C   UNL     1      -0.683  -0.377  24.270  0.00  0.00    +0.112 A 
ATOM     29  N   UNL     1       0.074  -0.187  24.537  0.00  0.00    -0.132 NA
ATOM     30  N   UNL     1       0.192   0.619  24.416  0.00  0.00    -0.064 NA
BRANCH  20  21
ATOM     21  C   UNL     1      -1.030  -1.126  24.286  0.00  0.00    +0.111 C 
BRANCH  21  22
ATOM     22  S   UNL     1      -1.461  -1.367  24.947  0.00  0.00    -0.107 S 
BRANCH  22  23
ATOM     23  C   UNL     1      -2.123  -1.850  24.854  0.00  0.00    +0.026 A 
ATOM     24  C   UNL     1      -2.066  -2.548  24.420  0.00  0.00    +0.006 A 
ATOM     25  C   UNL     1      -2.729  -3.031  24.327  0.00  0.00    +0.001 A 
ATOM     26  C   UNL     1      -3.448  -2.816  24.668  0.00  0.00    +0.000 A 
ATOM     27  C   UNL     1      -3.504  -2.117  25.103  0.00  0.00    +0.001 A 
ATOM     28  C   UNL     1      -2.842  -1.634  25.196  0.00  0.00    +0.006 A 
ENDBRANCH  22  23
ENDBRANCH  21  22
ENDBRANCH  20  21
ENDBRANCH  17  18
ENDBRANCH  16  17
TORSDOF 6
ENDMDL
MODEL 4
REMARK VINA RESULT:      -9.6      3.615      5.616
REMARK  Name = 
REMARK  6 active torsions:
REMARK  status: ('A' for Active; 'I' for Inactive)
REMARK    1  A    between atoms: C_2  and  C_9
REMARK    2  A    between atoms: C_16  and  C_17
REMARK    3  A    between atoms: C_17  and  N_18
REMARK    4  A    between atoms: C_20  and  C_21
REMARK    5  A    between atoms: C_21  and  S_22
REMARK    6  A    between atoms: S_22  and  C_23
REMARK                            x       y       z     vdW  Elec       q    Type
REMARK                         _______ _______ _______ _____ _____    ______ ____
ROOT
ATOM      9  C   UNL     1      -2.497   1.294  24.546  0.00  0.00    +0.095 C 
ATOM     10  C   UNL     1      -2.323   0.706  25.025  0.00  0.00    +0.081 C 
ATOM     11  N   UNL     1      -1.882   0.949  24.370  0.00  0.00    -0.272 NA
ATOM     12  C   UNL     1      -2.387   1.762  23.942  0.00  0.00    +0.072 C 
ATOM     13  C   UNL     1      -2.432   2.225  23.483  0.00  0.00    +0.018 C 
ATOM     14  C   UNL     1      -2.060   1.527  23.905  0.00  0.00    +0.013 C 
ATOM     15  C   UNL     1      -1.310   1.224  23.564  0.00  0.00    +0.019 C 
ATOM     16  C   UNL     1      -1.103   0.640  24.010  0.00  0.00    +0.082 C 
ENDROOT
BRANCH   9   2
ATOM      1  O   UNL     1      -3.168   2.542  24.739  0.00  0.00    -0.273 OA
ATOM      2  C   UNL     1      -3.189   1.718  24.704  0.00  0.00    +0.248 C 
ATOM      3  N   UNL     1      -3.898   1.317  24.827  0.00  0.00    -0.154 NA
ATOM      4  C   UNL     1      -4.589   1.740  24.985  0.00  0.00    +0.186 A 
ATOM      5  N   UNL     1      -5.337   1.417  25.120  0.00  0.00    -0.221 NA
ATOM      6  C   UNL     1      -5.862   2.038  25.254  0.00  0.00    +0.108 A 
ATOM      7  C   UNL     1      -5.440   2.745  25.203  0.00  0.00    +0.059 A 
ATOM      8  S   UNL     1      -4.654   2.560  25.037  0.00  0.00    -0.049 S 
ENDBRANCH   9   2
BRANCH  16  17
ATOM     17  C   UNL     1      -0.518   0.067  24.108  0.00  0.00    +0.145 C 
BRANCH  17  18
ATOM     18  N   UNL     1       0.150   0.072  23.624  0.00  0.00    -0.229 N 
ATOM     19  C   UNL     1       0.880   0.408  23.810  0.00  0.00    +0.114 A 
ATOM     20  C   UNL     1       1.387   0.285  23.170  0.00  0.00    +0.112 A 
ATOM     29  N   UNL     1       0.969  -0.127  22.590  0.00  0.00    -0.132 NA
ATOM     30  N   UNL     1       0.205  -0.259  22.871  0.00  0.00    -0.064 NA
BRANCH  20  21
ATOM     21  C   UNL     1       2.173   0.531  23.120  0.00  0.00    +0.111 C 
BRANCH  21  22
ATOM     22  S   UNL     1       2.737   0.040  22.771  0.00  0.00    -0.107 S 
BRANCH  22  23
ATOM     23  C   UNL     1       3.536   0.137  22.952  0.00  0.00    +0.026 A 
ATOM     24  C   UNL     1       3.921   0.839  22.757  0.00  0.00    +0.006 A 
ATOM     25  C   UNL     1       4.720   0.936  22.938  0.00  0.00    +0.001 A 
ATOM     26  C   UNL     1       5.134   0.330  23.314  0.00  0.00    +0.000 A 
ATOM     27  C   UNL     1       4.748  -0.373  23.510  0.00  0.00    +0.001 A 
ATOM     28  C   UNL     1       3.950  -0.470  23.328  0.00  0.00    +0.006 A 
ENDBRANCH  22  23
ENDBRANCH  21  22
ENDBRANCH  20  21
ENDBRANCH  17  18
ENDBRANCH  16  17
TORSDOF 6
ENDMDL
MODEL 5
REMARK VINA RESULT:      -9.4      1.783      5.288
REMARK  Name = 
REMARK  6 active torsions:
REMARK  status: ('A' for Active; 'I' for Inactive)
REMARK    1  A    between atoms: C_2  and  C_9
REMARK    2  A    between atoms: C_16  and  C_17
REMARK    3  A    between atoms: C_17  and  N_18
REMARK    4  A    between atoms: C_20  and  C_21
REMARK    5  A    between atoms: C_21  and  S_22
REMARK    6  A    between atoms: S_22  and  C_23
REMARK                            x       y       z     vdW  Elec       q    Type
REMARK                         _______ _______ _______ _____ _____    ______ ____
ROOT
ATOM      9  C   UNL     1      -3.367   3.501  24.817  0.00  0.00    +0.095 C 
ATOM     10  C   UNL     1      -3.389   3.043  24.188  0.00  0.00    +0.081 C 
ATOM     11  N   UNL     1      -3.924   3.034  24.817  0.00  0.00    -0.272 NA
ATOM     12  C   UNL     1      -3.615   3.769  25.497  0.00  0.00    +0.072 C 
ATOM     13  C   UNL     1      -3.696   4.094  26.058  0.00  0.00    +0.018 C 
ATOM     14  C   UNL     1      -3.896   3.486  25.430  0.00  0.00    +0.013 C 
ATOM     15  C   UNL     1      -4.608   2.995  25.580  0.00  0.00    +0.019 C 
ATOM     16  C   UNL     1      -4.665   2.527  24.980  0.00  0.00    +0.082 C 
ENDROOT
BRANCH   9   2
ATOM      1  O   UNL     1      -2.917   4.843  25.020  0.00  0.00    -0.273 OA
ATOM      2  C   UNL     1      -2.751   4.050  24.864  0.00  0.00    +0.248 C 
ATOM      3  N   UNL     1      -1.972   3.805  24.755  0.00  0.00    -0.154 NA
ATOM      4  C   UNL     1      -1.358   4.353  24.801  0.00  0.00    +0.186 A 
ATOM      5  N   UNL     1      -0.554   4.191  24.705  0.00  0.00    -0.221 NA
ATOM      6  C   UNL     1      -0.138   4.898  24.797  0.00  0.00    +0.108 A 
ATOM      7  C   UNL     1      -0.684   5.497  24.950  0.00  0.00    +0.059 A 
ATOM      8  S   UNL     1      -1.437   5.160  24.953  0.00  0.00    -0.049 S 
ENDBRANCH   9   2
BRANCH  16  17
ATOM     17  C   UNL     1      -5.125   1.920  24.665  0.00  0.00    +0.145 C 
BRANCH  17  18
ATOM     18  N   UNL     1      -4.983   1.137  24.883  0.00  0.00    -0.229 N 
ATOM     19  C   UNL     1      -4.524   0.594  24.465  0.00  0.00    +0.114 A 
ATOM     20  C   UNL     1      -4.531  -0.119  24.881  0.00  0.00    +0.112 A 
ATOM     29  N   UNL     1      -4.995  -0.015  25.555  0.00  0.00    -0.132 NA
ATOM     30  N   UNL     1      -5.274   0.761  25.556  0.00  0.00    -0.064 NA
BRANCH  20  21
ATOM     21  C   UNL     1      -4.143  -0.813  24.661  0.00  0.00    +0.111 C 
BRANCH  21  22
ATOM     22  S   UNL     1      -3.565  -1.137  25.154  0.00  0.00    -0.107 S 
BRANCH  22  23
ATOM     23  C   UNL     1      -3.092  -1.755  24.883  0.00  0.00    +0.026 A 
ATOM     24  C   UNL     1      -2.274  -1.662  24.844  0.00  0.00    +0.006 A 
ATOM     25  C   UNL     1      -1.801  -2.281  24.573  0.00  0.00    +0.001 A 
ATOM     26  C   UNL     1      -2.145  -2.993  24.341  0.00  0.00    +0.000 A 
ATOM     27  C   UNL     1      -2.965  -3.086  24.380  0.00  0.00    +0.001 A 
ATOM     28  C   UNL     1      -3.438  -2.468  24.651  0.00  0.00    +0.006 A 
ENDBRANCH  22  23
ENDBRANCH  21  22
ENDBRANCH  20  21
ENDBRANCH  17  18
ENDBRANCH  16  17
TORSDOF 6
ENDMDL
MODEL 6
REMARK VINA RESULT:      -9.3      2.956      4.425
REMARK  Name = 
REMARK  6 active torsions:
REMARK  status: ('A' for Active; 'I' for Inactive)
REMARK    1  A    between atoms: C_2  and  C_9
REMARK    2  A    between atoms: C_16  and  C_17
REMARK    3  A    between atoms: C_17  and  N_18
REMARK    4  A    between atoms: C_20  and  C_21
REMARK    5  A    between atoms: C_21  and  S_22
REMARK    6  A    between atoms: S_22  and  C_23
REMARK                            x       y       z     vdW  Elec       q    Type
REMARK                         _______ _______ _______ _____ _____    ______ ____
ROOT
ATOM      9  C   UNL     1       0.188   0.091  23.858  0.00  0.00    +0.095 C 
ATOM     10  C   UNL     1       0.022  -0.669  23.838  0.00  0.00    +0.081 C 
ATOM     11  N   UNL     1      -0.475  -0.068  24.110  0.00  0.00    -0.272 NA
ATOM     12  C   UNL     1       0.045   0.836  24.003  0.00  0.00    +0.072 C 
ATOM     13  C   UNL     1       0.074   1.486  24.067  0.00  0.00    +0.018 C 
ATOM     14  C   UNL     1      -0.304   0.675  24.127  0.00  0.00    +0.013 C 
ATOM     15  C   UNL     1      -1.117   0.653  24.457  0.00  0.00    +0.019 C 
ATOM     16  C   UNL     1      -1.320  -0.084  24.454  0.00  0.00    +0.082 C 
ENDROOT
BRANCH   9   2
ATOM      1  O   UNL     1       1.304   0.984  23.905  0.00  0.00    -0.273 OA
ATOM      2  C   UNL     1       0.931   0.323  23.581  0.00  0.00    +0.248 C 
ATOM      3  N   UNL     1       1.300  -0.106  22.982  0.00  0.00    -0.154 NA
ATOM      4  C   UNL     1       2.042   0.125  22.706  0.00  0.00    +0.186 A 
ATOM      5  N   UNL     1       2.477  -0.248  22.111  0.00  0.00    -0.221 NA
ATOM      6  C   UNL     1       3.183   0.167  22.014  0.00  0.00    +0.108 A 
ATOM      7  C   UNL     1       3.185   0.796  22.547  0.00  0.00    +0.059 A 
ATOM      8  S   UNL     1       2.480   0.770  22.974  0.00  0.00    -0.049 S 
ENDBRANCH   9   2
BRANCH  16  17
ATOM     17  C   UNL     1      -1.939  -0.593  24.648  0.00  0.00    +0.145 C 
BRANCH  17  18
ATOM     18  N   UNL     1      -2.721  -0.348  24.553  0.00  0.00    -0.229 N 
ATOM     19  C   UNL     1      -3.116   0.204  25.022  0.00  0.00    +0.114 A 
ATOM     20  C   UNL     1      -3.884   0.281  24.730  0.00  0.00    +0.112 A 
ATOM     29  N   UNL     1      -3.962  -0.223  24.082  0.00  0.00    -0.132 NA
ATOM     30  N   UNL     1      -3.244  -0.611  23.972  0.00  0.00    -0.064 NA
BRANCH  20  21
ATOM     21  C   UNL     1      -4.470   0.776  25.034  0.00  0.00    +0.111 C 
BRANCH  21  22
ATOM     22  S   UNL     1      -4.720   1.434  24.603  0.00  0.00    -0.107 S 
BRANCH  22  23
ATOM     23  C   UNL     1      -5.056   2.079  24.992  0.00  0.00    +0.026 A 
ATOM     24  C   UNL     1      -4.678   2.812  24.975  0.00  0.00    +0.006 A 
ATOM     25  C   UNL     1      -5.013   3.458  25.364  0.00  0.00    +0.001 A 
ATOM     26  C   UNL     1      -5.726   3.370  25.770  0.00  0.00    +0.000 A 
ATOM     27  C   UNL     1      -6.103   2.636  25.787  0.00  0.00    +0.001 A 
ATOM     28  C   UNL     1      -5.768   1.991  25.398  0.00  0.00    +0.006 A 
ENDBRANCH  22  23
ENDBRANCH  21  22
ENDBRANCH  20  21
ENDBRANCH  17  18
ENDBRANCH  16  17
TORSDOF 6
ENDMDL
MODEL 7
REMARK VINA RESULT:      -9.2      2.919      4.208
REMARK  Name = 
REMARK  6 active torsions:
REMARK  status: ('A' for Active; 'I' for Inactive)
REMARK    1  A    between atoms: C_2  and  C_9
REMARK    2  A    between atoms: C_16  and  C_17
REMARK    3  A    between atoms: C_17  and  N_18
REMARK    4  A    between atoms: C_20  and  C_21
REMARK    5  A    between atoms: C_21  and  S_22
REMARK    6  A    between atoms: S_22  and  C_23
REMARK                            x       y       z     vdW  Elec       q    Type
REMARK                         _______ _______ _______ _____ _____    ______ ____
ROOT
ATOM      9  C   UNL     1       0.277   1.657  24.350  0.00  0.00    +0.095 C 
ATOM     10  C   UNL     1       0.498   2.403  24.347  0.00  0.00    +0.081 C 
ATOM     11  N   UNL     1      -0.096   2.072  24.815  0.00  0.00    -0.272 NA
ATOM     12  C   UNL     1      -0.144   1.051  24.579  0.00  0.00    +0.072 C 
ATOM     13  C   UNL     1      -0.408   0.460  24.665  0.00  0.00    +0.018 C 
ATOM     14  C   UNL     1      -0.307   1.339  24.812  0.00  0.00    +0.013 C 
ATOM     15  C   UNL     1      -0.841   1.694  25.411  0.00  0.00    +0.019 C 
ATOM     16  C   UNL     1      -0.655   2.434  25.439  0.00  0.00    +0.082 C 
ENDROOT
BRANCH   9   2
ATOM      1  O   UNL     1       0.261   0.532  23.467  0.00  0.00    -0.273 OA
ATOM      2  C   UNL     1       0.673   1.144  23.837  0.00  0.00    +0.248 C 
ATOM      3  N   UNL     1       1.478   1.244  23.694  0.00  0.00    -0.154 NA
ATOM      4  C   UNL     1       1.873   0.732  23.182  0.00  0.00    +0.186 A 
ATOM      5  N   UNL     1       2.675   0.763  22.987  0.00  0.00    -0.221 NA
ATOM      6  C   UNL     1       2.833   0.149  22.459  0.00  0.00    +0.108 A 
ATOM      7  C   UNL     1       2.130  -0.261  22.328  0.00  0.00    +0.059 A 
ATOM      8  S   UNL     1       1.537   0.099  22.775  0.00  0.00    -0.049 S 
ENDBRANCH   9   2
BRANCH  16  17
ATOM     17  C   UNL     1      -0.846   3.143  25.814  0.00  0.00    +0.145 C 
BRANCH  17  18
ATOM     18  N   UNL     1      -1.574   3.503  25.669  0.00  0.00    -0.229 N 
ATOM     19  C   UNL     1      -2.314   3.198  25.867  0.00  0.00    +0.114 A 
ATOM     20  C   UNL     1      -2.886   3.740  25.620  0.00  0.00    +0.112 A 
ATOM     29  N   UNL     1      -2.499   4.378  25.270  0.00  0.00    -0.132 NA
ATOM     30  N   UNL     1      -1.688   4.232  25.300  0.00  0.00    -0.064 NA
BRANCH  20  21
ATOM     21  C   UNL     1      -3.702   3.656  25.708  0.00  0.00    +0.111 C 
BRANCH  21  22
ATOM     22  S   UNL     1      -4.169   3.449  25.059  0.00  0.00    -0.107 S 
BRANCH  22  23
ATOM     23  C   UNL     1      -4.837   2.978  25.165  0.00  0.00    +0.026 A 
ATOM     24  C   UNL     1      -4.939   2.298  24.711  0.00  0.00    +0.006 A 
ATOM     25  C   UNL     1      -5.607   1.826  24.817  0.00  0.00    +0.001 A 
ATOM     26  C   UNL     1      -6.174   2.035  25.378  0.00  0.00    +0.000 A 
ATOM     27  C   UNL     1      -6.073   2.716  25.833  0.00  0.00    +0.001 A 
ATOM     28  C   UNL     1      -5.404   3.188  25.727  0.00  0.00    +0.006 A 
ENDBRANCH  22  23
ENDBRANCH  21  22
ENDBRANCH  20  21
ENDBRANCH  17  18
ENDBRANCH  16  17
TORSDOF 6
ENDMDL
MODEL 8
REMARK VINA RESULT:      -7.8     13.739     16.230
REMARK  Name = 
REMARK  6 active torsions:
REMARK  status: ('A' for Active; 'I' for Inactive)
REMARK    1  A    between atoms: C_2  and  C_9
REMARK    2  A    between atoms: C_16  and  C_17
REMARK    3  A    between atoms: C_17  and  N_18
REMARK    4  A    between atoms: C_20  and  C_21
REMARK    5  A    between atoms: C_21  and  S_22
REMARK    6  A    between atoms: S_22  and  C_23
REMARK                            x       y       z     vdW  Elec       q    Type
REMARK                         _______ _______ _______ _____ _____    ______ ____
ROOT
ATOM      9  C   UNL     1      -6.248 -10.472  16.133  0.00  0.00    +0.095 C 
ATOM     10  C   UNL     1      -6.948 -10.732  15.914  0.00  0.00    +0.081 C 
ATOM     11  N   UNL     1      -6.376 -10.398  15.422  0.00  0.00    -0.272 NA
ATOM     12  C   UNL     1      -5.553 -10.155  16.023  0.00  0.00    +0.072 C 
ATOM     13  C   UNL     1      -4.951  -9.910  16.090  0.00  0.00    +0.018 C 
ATOM     14  C   UNL     1      -5.692 -10.146  15.644  0.00  0.00    +0.013 C 
ATOM     15  C   UNL     1      -5.689  -9.988  14.780  0.00  0.00    +0.019 C 
ATOM     16  C   UNL     1      -6.366 -10.231  14.525  0.00  0.00    +0.082 C 
ENDROOT
BRANCH   9   2
ATOM      1  O   UNL     1      -5.299 -10.779  17.158  0.00  0.00    -0.273 OA
ATOM      2  C   UNL     1      -6.055 -10.535  16.934  0.00  0.00    +0.248 C 
ATOM      3  N   UNL     1      -6.617 -10.354  17.509  0.00  0.00    -0.154 NA
ATOM      4  C   UNL     1      -6.425 -10.417  18.308  0.00  0.00    +0.186 A 
ATOM      5  N   UNL     1      -6.927 -10.255  18.943  0.00  0.00    -0.221 NA
ATOM      6  C   UNL     1      -6.508 -10.391  19.640  0.00  0.00    +0.108 A 
ATOM      7  C   UNL     1      -5.747 -10.636  19.438  0.00  0.00    +0.059 A 
ATOM      8  S   UNL     1      -5.696 -10.652  18.614  0.00  0.00    -0.049 S 
ENDBRANCH   9   2
BRANCH  16  17
ATOM     17  C   UNL     1      -6.820 -10.301  13.840  0.00  0.00    +0.145 C 
BRANCH  17  18
ATOM     18  N   UNL     1      -6.628  -9.859  13.170  0.00  0.00    -0.229 N 
ATOM     19  C   UNL     1      -6.168 -10.117  12.536  0.00  0.00    +0.114 A 
ATOM     20  C   UNL     1      -6.118  -9.499  11.990  0.00  0.00    +0.112 A 
ATOM     29  N   UNL     1      -6.548  -8.861  12.289  0.00  0.00    -0.132 NA
ATOM     30  N   UNL     1      -6.863  -9.083  13.017  0.00  0.00    -0.064 NA
BRANCH  20  21
ATOM     21  C   UNL     1      -5.711  -9.517  11.273  0.00  0.00    +0.111 C 
BRANCH  21  22
ATOM     22  S   UNL     1      -5.188  -8.908  11.080  0.00  0.00    -0.107 S 
BRANCH  22  23
ATOM     23  C   UNL     1      -4.732  -8.958  10.395  0.00  0.00    +0.026 A 
ATOM     24  C   UNL     1      -5.087  -8.875   9.656  0.00  0.00    +0.006 A 
ATOM     25  C   UNL     1      -4.630  -8.925   8.971  0.00  0.00    +0.001 A 
ATOM     26  C   UNL     1      -3.818  -9.058   9.025  0.00  0.00    +0.000 A 
ATOM     27  C   UNL     1      -3.463  -9.141   9.765  0.00  0.00    +0.001 A 
ATOM     28  C   UNL     1      -3.919  -9.091  10.450  0.00  0.00    +0.006 A 
ENDBRANCH  22  23
ENDBRANCH  21  22
ENDBRANCH  20  21
ENDBRANCH  17  18
ENDBRANCH  16  17
TORSDOF 6
ENDMDL
MODEL 9
REMARK VINA RESULT:      -7.5     14.112     16.298
REMARK  Name = 
REMARK  6 active torsions:
REMARK  status: ('A' for Active; 'I' for Inactive)
REMARK    1  A    between atoms: C_2  and  C_9
REMARK    2  A    between atoms: C_16  and  C_17
REMARK    3  A    between atoms: C_17  and  N_18
REMARK    4  A    between atoms: C_20  and  C_21
REMARK    5  A    between atoms: C_21  and  S_22
REMARK    6  A    between atoms: S_22  and  C_23
REMARK                            x       y       z     vdW  Elec       q    Type
REMARK                         _______ _______ _______ _____ _____    ______ ____
ROOT
ATOM      9  C   UNL     1      -8.054  -9.627  15.820  0.00  0.00    +0.095 C 
ATOM     10  C   UNL     1      -8.373  -9.928  15.178  0.00  0.00    +0.081 C 
ATOM     11  N   UNL     1      -7.577  -9.967  15.391  0.00  0.00    -0.272 NA
ATOM     12  C   UNL     1      -7.477  -9.467  16.307  0.00  0.00    +0.072 C 
ATOM     13  C   UNL     1      -7.106  -9.260  16.803  0.00  0.00    +0.018 C 
ATOM     14  C   UNL     1      -7.272  -9.670  16.023  0.00  0.00    +0.013 C 
ATOM     15  C   UNL     1      -6.580 -10.036  15.625  0.00  0.00    +0.019 C 
ATOM     16  C   UNL     1      -6.853 -10.346  14.983  0.00  0.00    +0.082 C 
ENDROOT
BRANCH   9   2
ATOM      1  O   UNL     1      -8.510  -9.375  17.152  0.00  0.00    -0.273 OA
ATOM      2  C   UNL     1      -8.557  -9.229  16.341  0.00  0.00    +0.248 C 
ATOM      3  N   UNL     1      -9.106  -8.687  16.050  0.00  0.00    -0.154 NA
ATOM      4  C   UNL     1      -9.608  -8.290  16.570  0.00  0.00    +0.186 A 
ATOM      5  N   UNL     1     -10.183  -7.734  16.362  0.00  0.00    -0.221 NA
ATOM      6  C   UNL     1     -10.554  -7.480  17.053  0.00  0.00    +0.108 A 
ATOM      7  C   UNL     1     -10.209  -7.877  17.689  0.00  0.00    +0.059 A 
ATOM      8  S   UNL     1      -9.626  -8.377  17.390  0.00  0.00    -0.049 S 
ENDBRANCH   9   2
BRANCH  16  17
ATOM     17  C   UNL     1      -6.627 -10.772  14.315  0.00  0.00    +0.145 C 
BRANCH  17  18
ATOM     18  N   UNL     1      -5.943 -10.563  13.903  0.00  0.00    -0.229 N 
ATOM     19  C   UNL     1      -5.914 -10.149  13.190  0.00  0.00    +0.114 A 
ATOM     20  C   UNL     1      -5.120 -10.062  12.979  0.00  0.00    +0.112 A 
ATOM     29  N   UNL     1      -4.661 -10.421  13.563  0.00  0.00    -0.132 NA
ATOM     30  N   UNL     1      -5.169 -10.730  14.134  0.00  0.00    -0.064 NA
BRANCH  20  21
ATOM     21  C   UNL     1      -4.837  -9.682  12.304  0.00  0.00    +0.111 C 
BRANCH  21  22
ATOM     22  S   UNL     1      -4.502 -10.122  11.693  0.00  0.00    -0.107 S 
BRANCH  22  23
ATOM     23  C   UNL     1      -4.176  -9.739  11.039  0.00  0.00    +0.026 A 
ATOM     24  C   UNL     1      -3.360  -9.744  10.922  0.00  0.00    +0.006 A 
ATOM     25  C   UNL     1      -3.034  -9.361  10.269  0.00  0.00    +0.001 A 
ATOM     26  C   UNL     1      -3.524  -8.973   9.731  0.00  0.00    +0.000 A 
ATOM     27  C   UNL     1      -4.341  -8.969   9.848  0.00  0.00    +0.001 A 
ATOM     28  C   UNL     1      -4.667  -9.352  10.501  0.00  0.00    +0.006 A 
ENDBRANCH  22  23
ENDBRANCH  21  22
ENDBRANCH  20  21
ENDBRANCH  17  18
ENDBRANCH  16  17
TORSDOF 6
ENDMDL
MODEL 10
REMARK VINA RESULT:      -7.4     15.417     18.041
REMARK  Name = 
REMARK  6 active torsions:
REMARK  status: ('A' for Active; 'I' for Inactive)
REMARK    1  A    between atoms: C_2  and  C_9
REMARK    2  A    between atoms: C_16  and  C_17
REMARK    3  A    between atoms: C_17  and  N_18
REMARK    4  A    between atoms: C_20  and  C_21
REMARK    5  A    between atoms: C_21  and  S_22
REMARK    6  A    between atoms: S_22  and  C_23
REMARK                            x       y       z     vdW  Elec       q    Type
REMARK                         _______ _______ _______ _____ _____    ______ ____
ROOT
ATOM      9  C   UNL     1      -2.696 -10.431  12.942  0.00  0.00    +0.095 C 
ATOM     10  C   UNL     1      -2.072 -10.356  12.483  0.00  0.00    +0.081 C 
ATOM     11  N   UNL     1      -2.859 -10.382  12.236  0.00  0.00    -0.272 NA
ATOM     12  C   UNL     1      -3.450 -10.487  13.095  0.00  0.00    +0.072 C 
ATOM     13  C   UNL     1      -4.037 -10.545  13.377  0.00  0.00    +0.018 C 
ATOM     14  C   UNL     1      -3.465 -10.455  12.692  0.00  0.00    +0.013 C 
ATOM     15  C   UNL     1      -3.826 -10.409  11.893  0.00  0.00    +0.019 C 
ATOM     16  C   UNL     1      -3.240 -10.335  11.408  0.00  0.00    +0.082 C 
ENDROOT
BRANCH   9   2
ATOM      1  O   UNL     1      -3.198 -10.577  14.273  0.00  0.00    -0.273 OA
ATOM      2  C   UNL     1      -2.562 -10.490  13.755  0.00  0.00    +0.248 C 
ATOM      3  N   UNL     1      -1.792 -10.463  14.049  0.00  0.00    -0.154 NA
ATOM      4  C   UNL     1      -1.658 -10.523  14.860  0.00  0.00    +0.186 A 
ATOM      5  N   UNL     1      -0.922 -10.505  15.234  0.00  0.00    -0.221 NA
ATOM      6  C   UNL     1      -1.046 -10.582  16.045  0.00  0.00    +0.108 A 
ATOM      7  C   UNL     1      -1.858 -10.647  16.174  0.00  0.00    +0.059 A 
ATOM      8  S   UNL     1      -2.236 -10.611  15.442  0.00  0.00    -0.049 S 
ENDBRANCH   9   2
BRANCH  16  17
ATOM     17  C   UNL     1      -3.060 -10.258  10.607  0.00  0.00    +0.145 C 
BRANCH  17  18
ATOM     18  N   UNL     1      -3.521  -9.773  10.125  0.00  0.00    -0.229 N 
ATOM     19  C   UNL     1      -4.258  -9.964   9.807  0.00  0.00    +0.114 A 
ATOM     20  C   UNL     1      -4.518  -9.319   9.361  0.00  0.00    +0.112 A 
ATOM     29  N   UNL     1      -3.940  -8.731   9.404  0.00  0.00    -0.132 NA
ATOM     30  N   UNL     1      -3.325  -9.011   9.875  0.00  0.00    -0.064 NA
BRANCH  20  21
ATOM     21  C   UNL     1      -5.229  -9.272   8.946  0.00  0.00    +0.111 C 
BRANCH  21  22
ATOM     22  S   UNL     1      -5.934  -9.503   9.308  0.00  0.00    -0.107 S 
BRANCH  22  23
ATOM     23  C   UNL     1      -6.652  -9.404   8.914  0.00  0.00    +0.026 A 
ATOM     24  C   UNL     1      -7.011  -8.662   8.893  0.00  0.00    +0.006 A 
ATOM     25  C   UNL     1      -7.729  -8.563   8.499  0.00  0.00    +0.001 A 
ATOM     26  C   UNL     1      -8.087  -9.205   8.126  0.00  0.00    +0.000 A 
ATOM     27  C   UNL     1      -7.727  -9.948   8.147  0.00  0.00    +0.001 A 
ATOM     28  C   UNL     1      -7.009 -10.047   8.541  0.00  0.00    +0.006 A 
ENDBRANCH  22  23
ENDBRANCH  21  22
ENDBRANCH  20  21
ENDBRANCH  17  18
ENDBRANCH  16  17
TORSDOF 6
ENDMDL
