MODEL 1
REMARK VINA RESULT:     -10.5      0.000      0.000
REMARK  Name = 
REMARK  3 active torsions:
REMARK  status: ('A' for Active; 'I' for Inactive)
REMARK    1  A    between atoms: C_2  and  N_3
REMARK    2  A    between atoms: N_6  and  C_7
REMARK    3  A    between atoms: C_13  and  C_14
REMARK                            x       y       z     vdW  Elec       q    Type
REMARK                         _______ _______ _______ _____ _____    ______ ____
ROOT
ATOM      7  C   UNL     1      -3.673   0.680  24.408  0.00  0.00    +0.130 C 
ATOM      8  C   UNL     1      -4.059   1.397  24.537  0.00  0.00    +0.202 C 
ATOM      9  O   UNL     1      -3.789   2.142  24.305  0.00  0.00    -0.219 OA
ATOM     10  C   UNL     1      -4.762   1.240  24.938  0.00  0.00    +0.184 C 
ATOM     11  O   UNL     1      -5.319   1.800  25.177  0.00  0.00    -0.220 OA
ATOM     12  C   UNL     1      -4.810   0.425  25.056  0.00  0.00    +0.037 C 
ATOM     13  C   UNL     1      -4.137   0.079  24.729  0.00  0.00    +0.025 C 
ENDROOT
BRANCH  13  14
ATOM     14  C   UNL     1      -3.959  -0.727  24.724  0.00  0.00    +0.002 C 
ATOM     15  C   UNL     1      -4.108  -1.177  24.049  0.00  0.00    +0.000 C 
ATOM     16  C   UNL     1      -3.930  -1.984  24.045  0.00  0.00    +0.000 C 
ATOM     17  C   UNL     1      -3.605  -2.338  24.715  0.00  0.00    +0.000 C 
ATOM     18  C   UNL     1      -3.457  -1.887  25.390  0.00  0.00    +0.000 C 
ATOM     19  C   UNL     1      -3.634  -1.081  25.394  0.00  0.00    +0.000 C 
ENDBRANCH  13  14
BRANCH   7   6
ATOM      3  N   UNL     1      -1.552   0.867  23.925  0.00  0.00    -0.187 NA
ATOM      4  C   UNL     1      -2.276   0.966  24.308  0.00  0.00    +0.339 C 
ATOM      5  O   UNL     1      -2.327   1.450  24.974  0.00  0.00    -0.249 OA
ATOM      6  N   UNL     1      -2.948   0.581  24.024  0.00  0.00    -0.186 NA
BRANCH   3   2
ATOM      1  C   UNL     1      -0.131   1.017  23.951  0.00  0.00    +0.025 C 
ATOM      2  C   UNL     1      -0.879   1.251  24.209  0.00  0.00    +0.117 C 
ENDBRANCH   3   2
ENDBRANCH   7   6
TORSDOF 3
ENDMDL
MODEL 2
REMARK VINA RESULT:      -9.5      1.064      2.731
REMARK  Name = 
REMARK  3 active torsions:
REMARK  status: ('A' for Active; 'I' for Inactive)
REMARK    1  A    between atoms: C_2  and  N_3
REMARK    2  A    between atoms: N_6  and  C_7
REMARK    3  A    between atoms: C_13  and  C_14
REMARK                            x       y       z     vdW  Elec       q    Type
REMARK                         _______ _______ _______ _____ _____    ______ ____
ROOT
ATOM      7  C   UNL     1      -3.030   0.417  24.858  0.00  0.00    +0.130 C 
ATOM      8  C   UNL     1      -2.439   0.983  24.762  0.00  0.00    +0.202 C 
ATOM      9  O   UNL     1      -2.485   1.776  24.986  0.00  0.00    -0.219 OA
ATOM     10  C   UNL     1      -1.792   0.618  24.402  0.00  0.00    +0.184 C 
ATOM     11  O   UNL     1      -1.079   0.982  24.203  0.00  0.00    -0.220 OA
ATOM     12  C   UNL     1      -1.985  -0.174  24.276  0.00  0.00    +0.037 C 
ATOM     13  C   UNL     1      -2.750  -0.298  24.558  0.00  0.00    +0.025 C 
ENDROOT
BRANCH  13  14
ATOM     14  C   UNL     1      -3.162  -1.013  24.542  0.00  0.00    +0.002 C 
ATOM     15  C   UNL     1      -3.124  -1.526  25.187  0.00  0.00    +0.000 C 
ATOM     16  C   UNL     1      -3.536  -2.241  25.170  0.00  0.00    +0.000 C 
ATOM     17  C   UNL     1      -3.987  -2.442  24.509  0.00  0.00    +0.000 C 
ATOM     18  C   UNL     1      -4.025  -1.929  23.864  0.00  0.00    +0.000 C 
ATOM     19  C   UNL     1      -3.613  -1.215  23.881  0.00  0.00    +0.000 C 
ENDBRANCH  13  14
BRANCH   7   6
ATOM      3  N   UNL     1      -5.009   1.260  25.235  0.00  0.00    -0.187 NA
ATOM      4  C   UNL     1      -4.266   1.133  24.897  0.00  0.00    +0.339 C 
ATOM      5  O   UNL     1      -4.017   1.597  24.262  0.00  0.00    -0.249 OA
ATOM      6  N   UNL     1      -3.773   0.543  25.196  0.00  0.00    -0.186 NA
BRANCH   3   2
ATOM      1  C   UNL     1      -6.247   1.972  25.271  0.00  0.00    +0.025 C 
ATOM      2  C   UNL     1      -5.502   1.850  24.937  0.00  0.00    +0.117 C 
ENDBRANCH   3   2
ENDBRANCH   7   6
TORSDOF 3
ENDMDL
MODEL 3
REMARK VINA RESULT:      -9.3      1.549      3.410
REMARK  Name = 
REMARK  3 active torsions:
REMARK  status: ('A' for Active; 'I' for Inactive)
REMARK    1  A    between atoms: C_2  and  N_3
REMARK    2  A    between atoms: N_6  and  C_7
REMARK    3  A    between atoms: C_13  and  C_14
REMARK                            x       y       z     vdW  Elec       q    Type
REMARK                         _______ _______ _______ _____ _____    ______ ____
ROOT
ATOM      7  C   UNL     1      -3.279   1.552  24.216  0.00  0.00    +0.130 C 
ATOM      8  C   UNL     1      -2.794   1.526  23.550  0.00  0.00    +0.202 C 
ATOM      9  O   UNL     1      -2.198   0.975  23.404  0.00  0.00    -0.219 OA
ATOM     10  C   UNL     1      -3.008   2.150  23.053  0.00  0.00    +0.184 C 
ATOM     11  O   UNL     1      -2.665   2.330  22.325  0.00  0.00    -0.220 OA
ATOM     12  C   UNL     1      -3.627   2.560  23.414  0.00  0.00    +0.037 C 
ATOM     13  C   UNL     1      -3.794   2.190  24.133  0.00  0.00    +0.025 C 
ENDROOT
BRANCH  13  14
ATOM     14  C   UNL     1      -4.375   2.419  24.672  0.00  0.00    +0.002 C 
ATOM     15  C   UNL     1      -4.178   2.913  25.303  0.00  0.00    +0.000 C 
ATOM     16  C   UNL     1      -4.760   3.142  25.843  0.00  0.00    +0.000 C 
ATOM     17  C   UNL     1      -5.536   2.878  25.751  0.00  0.00    +0.000 C 
ATOM     18  C   UNL     1      -5.732   2.384  25.119  0.00  0.00    +0.000 C 
ATOM     19  C   UNL     1      -5.151   2.155  24.580  0.00  0.00    +0.000 C 
ENDBRANCH  13  14
BRANCH   7   6
ATOM      3  N   UNL     1      -3.336  -0.301  25.369  0.00  0.00    -0.187 NA
ATOM      4  C   UNL     1      -3.361   0.221  24.730  0.00  0.00    +0.339 C 
ATOM      5  O   UNL     1      -3.494  -0.065  23.968  0.00  0.00    -0.249 OA
ATOM      6  N   UNL     1      -3.254   1.029  24.855  0.00  0.00    -0.186 NA
BRANCH   3   2
ATOM      1  C   UNL     1      -3.364  -1.638  25.874  0.00  0.00    +0.025 C 
ATOM      2  C   UNL     1      -3.444  -1.110  25.245  0.00  0.00    +0.117 C 
ENDBRANCH   3   2
ENDBRANCH   7   6
TORSDOF 3
ENDMDL
