MODEL 1
REMARK VINA RESULT:      -8.8      0.000      0.000
REMARK  Name = 
REMARK  5 active torsions:
REMARK  status: ('A' for Active; 'I' for Inactive)
REMARK    1  A    between atoms: S_2  and  N_5
REMARK    2  A    between atoms: N_5  and  C_6
REMARK    3  A    between atoms: C_6  and  C_7
REMARK    4  A    between atoms: C_10  and  N_11
REMARK    5  A    between atoms: N_11  and  C_12
REMARK                            x       y       z     vdW  Elec       q    Type
REMARK                         _______ _______ _______ _____ _____    ______ ____
ROOT
ATOM      7  C   UNL     1      -3.419   1.622  24.668  0.00  0.00    +0.166 C 
ATOM      8  O   UNL     1      -2.907   1.183  24.194  0.00  0.00    -0.350 OA
ATOM      9  C   UNL     1      -3.223   0.425  24.110  0.00  0.00    +0.162 C 
ATOM     10  C   UNL     1      -3.931   0.396  24.532  0.00  0.00    +0.135 C 
ATOM     18  C   UNL     1      -4.053   1.136  24.877  0.00  0.00    +0.199 C 
ATOM     19  O   UNL     1      -4.694   1.352  25.348  0.00  0.00    -0.219 OA
ENDROOT
BRANCH   7   6
ATOM      6  C   UNL     1      -3.316   2.409  24.893  0.00  0.00    +0.147 C 
BRANCH   6   5
ATOM      5  N   UNL     1      -2.577   2.766  24.818  0.00  0.00    -0.079 NA
BRANCH   5   2
ATOM      1  C   UNL     1      -2.327   4.279  25.427  0.00  0.00    +0.197 C 
ATOM      2  S   UNL     1      -2.452   3.522  25.122  0.00  0.00    +0.059 S 
ATOM      3  O   UNL     1      -1.981   3.204  25.720  0.00  0.00    -0.156 OA
ATOM      4  O   UNL     1      -2.923   3.841  24.525  0.00  0.00    -0.156 OA
ENDBRANCH   5   2
ENDBRANCH   6   5
ENDBRANCH   7   6
BRANCH  10  11
ATOM     11  N   UNL     1      -4.430  -0.257  24.598  0.00  0.00    -0.216 NA
BRANCH  11  12
ATOM     12  C   UNL     1      -4.115  -1.019  24.600  0.00  0.00    +0.073 C 
ATOM     13  C   UNL     1      -3.730  -1.305  25.270  0.00  0.00    +0.017 C 
ATOM     14  C   UNL     1      -3.414  -2.068  25.271  0.00  0.00    +0.001 C 
ATOM     15  C   UNL     1      -3.485  -2.544  24.601  0.00  0.00    +0.000 C 
ATOM     16  C   UNL     1      -3.870  -2.257  23.930  0.00  0.00    +0.001 C 
ATOM     17  C   UNL     1      -4.185  -1.495  23.929  0.00  0.00    +0.017 C 
ENDBRANCH  11  12
ENDBRANCH  10  11
TORSDOF 5
ENDMDL
MODEL 2
REMARK VINA RESULT:      -8.1      1.893      4.507
REMARK  Name = 
REMARK  5 active torsions:
REMARK  status: ('A' for Active; 'I' for Inactive)
REMARK    1  A    between atoms: S_2  and  N_5
REMARK    2  A    between atoms: N_5  and  C_6
REMARK    3  A    between atoms: C_6  and  C_7
REMARK    4  A    between atoms: C_10  and  N_11
REMARK    5  A    between atoms: N_11  and  C_12
REMARK                            x       y       z     vdW  Elec       q    Type
REMARK                         _______ _______ _______ _____ _____    ______ ____
ROOT
ATOM      7  C   UNL     1      -3.904   0.271  24.362  0.00  0.00    +0.166 C 
ATOM      8  O   UNL     1      -4.382   0.514  24.989  0.00  0.00    -0.350 OA
ATOM      9  C   UNL     1      -4.387   1.339  25.002  0.00  0.00    +0.162 C 
ATOM     10  C   UNL     1      -3.912   1.607  24.382  0.00  0.00    +0.135 C 
ATOM     18  C   UNL     1      -3.614   0.947  23.987  0.00  0.00    +0.199 C 
ATOM     19  O   UNL     1      -3.113   0.960  23.332  0.00  0.00    -0.219 OA
ENDROOT
BRANCH   7   6
ATOM      6  C   UNL     1      -3.745  -0.509  24.147  0.00  0.00    +0.147 C 
BRANCH   6   5
ATOM      5  N   UNL     1      -4.053  -1.130  24.592  0.00  0.00    -0.079 NA
BRANCH   5   2
ATOM      1  C   UNL     1      -3.634  -2.687  24.238  0.00  0.00    +0.197 C 
ATOM      2  S   UNL     1      -3.844  -1.908  24.415  0.00  0.00    +0.059 S 
ATOM      3  O   UNL     1      -4.398  -1.919  23.804  0.00  0.00    -0.156 OA
ATOM      4  O   UNL     1      -3.290  -1.898  25.026  0.00  0.00    -0.156 OA
ENDBRANCH   5   2
ENDBRANCH   6   5
ENDBRANCH   7   6
BRANCH  10  11
ATOM     11  N   UNL     1      -3.762   2.395  24.192  0.00  0.00    -0.216 NA
BRANCH  11  12
ATOM     12  C   UNL     1      -3.576   2.935  24.787  0.00  0.00    +0.073 C 
ATOM     13  C   UNL     1      -4.176   3.353  25.167  0.00  0.00    +0.017 C 
ATOM     14  C   UNL     1      -3.989   3.894  25.762  0.00  0.00    +0.001 C 
ATOM     15  C   UNL     1      -3.202   4.015  25.977  0.00  0.00    +0.000 C 
ATOM     16  C   UNL     1      -2.602   3.596  25.597  0.00  0.00    +0.001 C 
ATOM     17  C   UNL     1      -2.788   3.056  25.002  0.00  0.00    +0.017 C 
ENDBRANCH  11  12
ENDBRANCH  10  11
TORSDOF 5
ENDMDL
MODEL 3
REMARK VINA RESULT:      -7.9      2.783      3.723
REMARK  Name = 
REMARK  5 active torsions:
REMARK  status: ('A' for Active; 'I' for Inactive)
REMARK    1  A    between atoms: S_2  and  N_5
REMARK    2  A    between atoms: N_5  and  C_6
REMARK    3  A    between atoms: C_6  and  C_7
REMARK    4  A    between atoms: C_10  and  N_11
REMARK    5  A    between atoms: N_11  and  C_12
REMARK                            x       y       z     vdW  Elec       q    Type
REMARK                         _______ _______ _______ _____ _____    ______ ____
ROOT
ATOM      7  C   UNL     1      -2.055   1.594  24.068  0.00  0.00    +0.166 C 
ATOM      8  O   UNL     1      -2.176   1.737  24.871  0.00  0.00    -0.350 OA
ATOM      9  C   UNL     1      -2.896   2.132  24.954  0.00  0.00    +0.162 C 
ATOM     10  C   UNL     1      -3.219   2.234  24.202  0.00  0.00    +0.135 C 
ATOM     18  C   UNL     1      -2.700   1.901  23.654  0.00  0.00    +0.199 C 
ATOM     19  O   UNL     1      -2.806   1.879  22.837  0.00  0.00    -0.219 OA
ENDROOT
BRANCH   7   6
ATOM      6  C   UNL     1      -1.404   1.211  23.736  0.00  0.00    +0.147 C 
BRANCH   6   5
ATOM      5  N   UNL     1      -0.828   0.879  24.224  0.00  0.00    -0.079 NA
BRANCH   5   2
ATOM      1  C   UNL     1       0.445   0.065  23.562  0.00  0.00    +0.197 C 
ATOM      2  S   UNL     1      -0.192   0.472  23.893  0.00  0.00    +0.059 S 
ATOM      3  O   UNL     1       0.217   1.184  23.805  0.00  0.00    -0.156 OA
ATOM      4  O   UNL     1      -0.600  -0.239  23.981  0.00  0.00    -0.156 OA
ENDBRANCH   5   2
ENDBRANCH   6   5
ENDBRANCH   7   6
BRANCH  10  11
ATOM     11  N   UNL     1      -3.936   2.603  24.028  0.00  0.00    -0.216 NA
BRANCH  11  12
ATOM     12  C   UNL     1      -4.542   2.610  24.587  0.00  0.00    +0.073 C 
ATOM     13  C   UNL     1      -4.632   3.258  25.090  0.00  0.00    +0.017 C 
ATOM     14  C   UNL     1      -5.239   3.266  25.649  0.00  0.00    +0.001 C 
ATOM     15  C   UNL     1      -5.756   2.625  25.705  0.00  0.00    +0.000 C 
ATOM     16  C   UNL     1      -5.667   1.978  25.202  0.00  0.00    +0.001 C 
ATOM     17  C   UNL     1      -5.060   1.970  24.643  0.00  0.00    +0.017 C 
ENDBRANCH  11  12
ENDBRANCH  10  11
TORSDOF 5
ENDMDL
