MODEL 1
REMARK VINA RESULT:     -14.6      0.000      0.000
REMARK  Name = 
REMARK  3 active torsions:
REMARK  status: ('A' for Active; 'I' for Inactive)
REMARK    1  A    between atoms: C_2  and  C_23
REMARK    2  A    between atoms: C_10  and  C_17
REMARK    3  A    between atoms: C_26  and  C_29
REMARK                            x       y       z     vdW  Elec       q    Type
REMARK                         _______ _______ _______ _____ _____    ______ ____
ROOT
ATOM      1  O   UNL     1      -3.646  -3.178  24.578  0.00  0.00    -0.270 OA
ATOM      2  C   UNL     1      -3.324  -2.365  24.649  0.00  0.00    +0.249 C 
ATOM      3  N   UNL     1      -2.464  -2.293  24.612  0.00  0.00    -0.276 N 
ATOM      4  C   UNL     1      -1.709  -2.641  24.534  0.00  0.00    +0.096 C 
ATOM      5  C   UNL     1      -1.147  -1.831  24.592  0.00  0.00    +0.043 C 
ATOM      6  C   UNL     1      -0.554  -1.272  24.621  0.00  0.00    +0.011 C 
ATOM      7  C   UNL     1      -1.255  -1.287  24.656  0.00  0.00    +0.058 C 
ATOM      8  C   UNL     1      -1.785  -2.080  24.599  0.00  0.00    +0.099 C 
ATOM      9  C   UNL     1      -1.984  -0.736  24.755  0.00  0.00    +0.041 A 
ATOM     10  C   UNL     1      -2.177   0.060  24.851  0.00  0.00    +0.015 A 
ATOM     11  C   UNL     1      -2.967   0.287  24.917  0.00  0.00    +0.006 A 
ATOM     12  C   UNL     1      -3.548  -0.396  24.874  0.00  0.00    +0.061 A 
ATOM     13  C   UNL     1      -3.372  -1.077  24.791  0.00  0.00    +0.261 A 
ATOM     14  O   UNL     1      -4.081  -1.840  24.746  0.00  0.00    -0.267 OA
ATOM     15  N   UNL     1      -2.581  -1.305  24.725  0.00  0.00    -0.299 N 
ATOM     16  C   UNL     1      -1.914  -1.263  24.694  0.00  0.00    +0.110 C 
ENDROOT
BRANCH  10  17
ATOM     17  C   UNL     1      -1.580   0.628  24.881  0.00  0.00    +0.039 A 
ATOM     18  C   UNL     1      -1.318   0.989  24.187  0.00  0.00    +0.102 A 
ATOM     19  N   UNL     1      -0.721   1.557  24.217  0.00  0.00    -0.222 NA
ATOM     20  C   UNL     1      -0.385   1.765  24.941  0.00  0.00    +0.199 A 
ATOM     21  N   UNL     1      -0.646   1.404  25.635  0.00  0.00    -0.222 NA
ATOM     22  C   UNL     1      -1.244   0.836  25.605  0.00  0.00    +0.102 A 
ENDBRANCH  10  17
BRANCH   2  23
ATOM     23  C   UNL     1      -3.649  -1.506  24.759  0.00  0.00    +0.054 A 
ATOM     24  C   UNL     1      -3.991  -1.181  24.083  0.00  0.00    +0.005 A 
ATOM     25  C   UNL     1      -4.303  -0.417  24.106  0.00  0.00    +0.010 A 
ATOM     26  C   UNL     1      -4.273   0.020  24.805  0.00  0.00    +0.068 A 
ATOM     27  C   UNL     1      -3.930  -0.306  25.481  0.00  0.00    +0.010 A 
ATOM     28  C   UNL     1      -3.618  -1.070  25.458  0.00  0.00    +0.005 A 
BRANCH  26  29
ATOM     29  C   UNL     1      -4.584   0.784  24.828  0.00  0.00    +0.100 C 
ATOM     30  N   UNL     1      -4.896   1.547  24.851  0.00  0.00    -0.191 NA
ENDBRANCH  26  29
ENDBRANCH   2  23
TORSDOF 3
ENDMDL
MODEL 2
REMARK VINA RESULT:     -14.4      2.467      4.028
REMARK  Name = 
REMARK  3 active torsions:
REMARK  status: ('A' for Active; 'I' for Inactive)
REMARK    1  A    between atoms: C_2  and  C_23
REMARK    2  A    between atoms: C_10  and  C_17
REMARK    3  A    between atoms: C_26  and  C_29
REMARK                            x       y       z     vdW  Elec       q    Type
REMARK                         _______ _______ _______ _____ _____    ______ ____
ROOT
ATOM      1  O   UNL     1      -5.842   3.154  25.428  0.00  0.00    -0.270 OA
ATOM      2  C   UNL     1      -5.012   2.927  25.258  0.00  0.00    +0.249 C 
ATOM      3  N   UNL     1      -4.871   2.089  25.105  0.00  0.00    -0.276 N 
ATOM      4  C   UNL     1      -5.154   1.307  25.029  0.00  0.00    +0.096 C 
ATOM      5  C   UNL     1      -4.307   0.843  24.819  0.00  0.00    +0.043 C 
ATOM      6  C   UNL     1      -3.707   0.323  24.641  0.00  0.00    +0.011 C 
ATOM      7  C   UNL     1      -3.779   1.011  24.759  0.00  0.00    +0.058 C 
ATOM      8  C   UNL     1      -4.606   1.444  24.961  0.00  0.00    +0.099 C 
ATOM      9  C   UNL     1      -3.293   1.789  24.801  0.00  0.00    +0.041 A 
ATOM     10  C   UNL     1      -2.521   2.068  24.719  0.00  0.00    +0.015 A 
ATOM     11  C   UNL     1      -2.359   2.871  24.818  0.00  0.00    +0.006 A 
ATOM     12  C   UNL     1      -3.082   3.367  25.013  0.00  0.00    +0.061 A 
ATOM     13  C   UNL     1      -3.742   3.117  25.081  0.00  0.00    +0.261 A 
ATOM     14  O   UNL     1      -4.554   3.731  25.308  0.00  0.00    -0.267 OA
ATOM     15  N   UNL     1      -3.903   2.314  24.982  0.00  0.00    -0.299 N 
ATOM     16  C   UNL     1      -3.808   1.662  24.865  0.00  0.00    +0.110 C 
ENDROOT
BRANCH  10  17
ATOM     17  C   UNL     1      -1.910   1.543  24.538  0.00  0.00    +0.039 A 
ATOM     18  C   UNL     1      -1.700   1.410  23.752  0.00  0.00    +0.102 A 
ATOM     19  N   UNL     1      -1.089   0.885  23.571  0.00  0.00    -0.222 NA
ATOM     20  C   UNL     1      -0.689   0.494  24.177  0.00  0.00    +0.199 A 
ATOM     21  N   UNL     1      -0.899   0.627  24.963  0.00  0.00    -0.222 NA
ATOM     22  C   UNL     1      -1.509   1.151  25.144  0.00  0.00    +0.102 A 
ENDBRANCH  10  17
BRANCH   2  23
ATOM     23  C   UNL     1      -4.188   3.342  25.189  0.00  0.00    +0.054 A 
ATOM     24  C   UNL     1      -3.855   3.564  25.910  0.00  0.00    +0.005 A 
ATOM     25  C   UNL     1      -3.121   3.940  25.926  0.00  0.00    +0.010 A 
ATOM     26  C   UNL     1      -2.720   4.094  25.222  0.00  0.00    +0.068 A 
ATOM     27  C   UNL     1      -3.054   3.873  24.501  0.00  0.00    +0.010 A 
ATOM     28  C   UNL     1      -3.789   3.496  24.484  0.00  0.00    +0.005 A 
BRANCH  26  29
ATOM     29  C   UNL     1      -1.987   4.470  25.238  0.00  0.00    +0.100 C 
ATOM     30  N   UNL     1      -1.253   4.846  25.254  0.00  0.00    -0.191 NA
ENDBRANCH  26  29
ENDBRANCH   2  23
TORSDOF 3
ENDMDL
MODEL 3
REMARK VINA RESULT:     -14.1      2.088      4.321
REMARK  Name = 
REMARK  3 active torsions:
REMARK  status: ('A' for Active; 'I' for Inactive)
REMARK    1  A    between atoms: C_2  and  C_23
REMARK    2  A    between atoms: C_10  and  C_17
REMARK    3  A    between atoms: C_26  and  C_29
REMARK                            x       y       z     vdW  Elec       q    Type
REMARK                         _______ _______ _______ _____ _____    ______ ____
ROOT
ATOM      1  O   UNL     1      -4.072   4.155  24.604  0.00  0.00    -0.270 OA
ATOM      2  C   UNL     1      -3.888   3.299  24.551  0.00  0.00    +0.249 C 
ATOM      3  N   UNL     1      -4.522   2.759  24.778  0.00  0.00    -0.276 N 
ATOM      4  C   UNL     1      -5.301   2.627  25.049  0.00  0.00    +0.096 C 
ATOM      5  C   UNL     1      -5.306   1.639  25.064  0.00  0.00    +0.043 C 
ATOM      6  C   UNL     1      -5.469   0.844  25.131  0.00  0.00    +0.011 C 
ATOM      7  C   UNL     1      -4.929   1.248  24.938  0.00  0.00    +0.058 C 
ATOM      8  C   UNL     1      -4.940   2.202  24.930  0.00  0.00    +0.099 C 
ATOM      9  C   UNL     1      -4.061   1.196  24.639  0.00  0.00    +0.041 A 
ATOM     10  C   UNL     1      -3.482   0.642  24.445  0.00  0.00    +0.015 A 
ATOM     11  C   UNL     1      -2.741   0.893  24.185  0.00  0.00    +0.006 A 
ATOM     12  C   UNL     1      -2.653   1.786  24.143  0.00  0.00    +0.061 A 
ATOM     13  C   UNL     1      -3.158   2.254  24.312  0.00  0.00    +0.261 A 
ATOM     14  O   UNL     1      -3.012   3.285  24.248  0.00  0.00    -0.267 OA
ATOM     15  N   UNL     1      -3.899   2.003  24.572  0.00  0.00    -0.299 N 
ATOM     16  C   UNL     1      -4.399   1.595  24.750  0.00  0.00    +0.110 C 
ENDROOT
BRANCH  10  17
ATOM     17  C   UNL     1      -3.645  -0.165  24.512  0.00  0.00    +0.039 A 
ATOM     18  C   UNL     1      -3.483  -0.561  25.217  0.00  0.00    +0.102 A 
ATOM     19  N   UNL     1      -3.645  -1.367  25.283  0.00  0.00    -0.222 NA
ATOM     20  C   UNL     1      -3.969  -1.777  24.645  0.00  0.00    +0.199 A 
ATOM     21  N   UNL     1      -4.131  -1.381  23.940  0.00  0.00    -0.222 NA
ATOM     22  C   UNL     1      -3.969  -0.574  23.873  0.00  0.00    +0.102 A 
ENDBRANCH  10  17
BRANCH   2  23
ATOM     23  C   UNL     1      -3.171   2.766  24.310  0.00  0.00    +0.054 A 
ATOM     24  C   UNL     1      -2.564   2.737  24.867  0.00  0.00    +0.005 A 
ATOM     25  C   UNL     1      -1.891   2.281  24.720  0.00  0.00    +0.010 A 
ATOM     26  C   UNL     1      -1.827   1.855  24.017  0.00  0.00    +0.068 A 
ATOM     27  C   UNL     1      -2.435   1.884  23.460  0.00  0.00    +0.010 A 
ATOM     28  C   UNL     1      -3.108   2.340  23.607  0.00  0.00    +0.005 A 
BRANCH  26  29
ATOM     29  C   UNL     1      -1.156   1.399  23.870  0.00  0.00    +0.100 C 
ATOM     30  N   UNL     1      -0.484   0.944  23.723  0.00  0.00    -0.191 NA
ENDBRANCH  26  29
ENDBRANCH   2  23
TORSDOF 3
ENDMDL
MODEL 4
REMARK VINA RESULT:     -13.9      1.554      3.247
REMARK  Name = 
REMARK  3 active torsions:
REMARK  status: ('A' for Active; 'I' for Inactive)
REMARK    1  A    between atoms: C_2  and  C_23
REMARK    2  A    between atoms: C_10  and  C_17
REMARK    3  A    between atoms: C_26  and  C_29
REMARK                            x       y       z     vdW  Elec       q    Type
REMARK                         _______ _______ _______ _____ _____    ______ ____
ROOT
ATOM      1  O   UNL     1      -5.915   1.827  24.864  0.00  0.00    -0.270 OA
ATOM      2  C   UNL     1      -5.054   1.661  24.830  0.00  0.00    +0.249 C 
ATOM      3  N   UNL     1      -4.532   2.340  24.940  0.00  0.00    -0.276 N 
ATOM      4  C   UNL     1      -4.422   3.157  25.076  0.00  0.00    +0.096 C 
ATOM      5  C   UNL     1      -3.434   3.193  25.076  0.00  0.00    +0.043 C 
ATOM      6  C   UNL     1      -2.644   3.388  25.103  0.00  0.00    +0.011 C 
ATOM      7  C   UNL     1      -3.033   2.812  25.009  0.00  0.00    +0.058 C 
ATOM      8  C   UNL     1      -3.988   2.793  25.013  0.00  0.00    +0.099 C 
ATOM      9  C   UNL     1      -2.957   1.908  24.858  0.00  0.00    +0.041 A 
ATOM     10  C   UNL     1      -2.387   1.322  24.756  0.00  0.00    +0.015 A 
ATOM     11  C   UNL     1      -2.617   0.540  24.627  0.00  0.00    +0.006 A 
ATOM     12  C   UNL     1      -3.508   0.420  24.613  0.00  0.00    +0.061 A 
ATOM     13  C   UNL     1      -3.989   0.932  24.701  0.00  0.00    +0.261 A 
ATOM     14  O   UNL     1      -5.016   0.748  24.677  0.00  0.00    -0.267 OA
ATOM     15  N   UNL     1      -3.759   1.714  24.830  0.00  0.00    -0.299 N 
ATOM     16  C   UNL     1      -3.365   2.248  24.917  0.00  0.00    +0.110 C 
ENDROOT
BRANCH  10  17
ATOM     17  C   UNL     1      -1.585   1.516  24.783  0.00  0.00    +0.039 A 
ATOM     18  C   UNL     1      -1.188   1.726  24.091  0.00  0.00    +0.102 A 
ATOM     19  N   UNL     1      -0.387   1.921  24.118  0.00  0.00    -0.222 NA
ATOM     20  C   UNL     1       0.018   1.905  24.837  0.00  0.00    +0.199 A 
ATOM     21  N   UNL     1      -0.379   1.696  25.529  0.00  0.00    -0.222 NA
ATOM     22  C   UNL     1      -1.181   1.501  25.502  0.00  0.00    +0.102 A 
ENDBRANCH  10  17
BRANCH   2  23
ATOM     23  C   UNL     1      -4.501   0.930  24.705  0.00  0.00    +0.054 A 
ATOM     24  C   UNL     1      -4.462   0.416  25.348  0.00  0.00    +0.005 A 
ATOM     25  C   UNL     1      -3.988  -0.259  25.308  0.00  0.00    +0.010 A 
ATOM     26  C   UNL     1      -3.554  -0.419  24.625  0.00  0.00    +0.068 A 
ATOM     27  C   UNL     1      -3.594   0.097  23.982  0.00  0.00    +0.010 A 
ATOM     28  C   UNL     1      -4.067   0.771  24.022  0.00  0.00    +0.005 A 
BRANCH  26  29
ATOM     29  C   UNL     1      -3.081  -1.093  24.585  0.00  0.00    +0.100 C 
ATOM     30  N   UNL     1      -2.608  -1.767  24.545  0.00  0.00    -0.191 NA
ENDBRANCH  26  29
ENDBRANCH   2  23
TORSDOF 3
ENDMDL
MODEL 5
REMARK VINA RESULT:     -13.8      0.935      2.665
REMARK  Name = 
REMARK  3 active torsions:
REMARK  status: ('A' for Active; 'I' for Inactive)
REMARK    1  A    between atoms: C_2  and  C_23
REMARK    2  A    between atoms: C_10  and  C_17
REMARK    3  A    between atoms: C_26  and  C_29
REMARK                            x       y       z     vdW  Elec       q    Type
REMARK                         _______ _______ _______ _____ _____    ______ ____
ROOT
ATOM      1  O   UNL     1      -1.698  -2.928  24.664  0.00  0.00    -0.270 OA
ATOM      2  C   UNL     1      -1.993  -2.102  24.702  0.00  0.00    +0.249 C 
ATOM      3  N   UNL     1      -2.812  -1.981  24.461  0.00  0.00    -0.276 N 
ATOM      4  C   UNL     1      -3.540  -2.282  24.182  0.00  0.00    +0.096 C 
ATOM      5  C   UNL     1      -4.064  -1.445  24.149  0.00  0.00    +0.043 C 
ATOM      6  C   UNL     1      -4.621  -0.856  24.066  0.00  0.00    +0.011 C 
ATOM      7  C   UNL     1      -3.951  -0.912  24.269  0.00  0.00    +0.058 C 
ATOM      8  C   UNL     1      -3.458  -1.730  24.296  0.00  0.00    +0.099 C 
ATOM      9  C   UNL     1      -3.246  -0.408  24.574  0.00  0.00    +0.041 A 
ATOM     10  C   UNL     1      -3.049   0.371  24.761  0.00  0.00    +0.015 A 
ATOM     11  C   UNL     1      -2.290   0.550  25.031  0.00  0.00    +0.006 A 
ATOM     12  C   UNL     1      -1.746  -0.162  25.090  0.00  0.00    +0.061 A 
ATOM     13  C   UNL     1      -1.926  -0.827  24.927  0.00  0.00    +0.261 A 
ATOM     14  O   UNL     1      -1.260  -1.625  25.011  0.00  0.00    -0.267 OA
ATOM     15  N   UNL     1      -2.685  -1.007  24.657  0.00  0.00    -0.299 N 
ATOM     16  C   UNL     1      -3.321  -0.926  24.467  0.00  0.00    +0.110 C 
ENDROOT
BRANCH  10  17
ATOM     17  C   UNL     1      -3.610   0.970  24.678  0.00  0.00    +0.039 A 
ATOM     18  C   UNL     1      -3.642   1.412  23.983  0.00  0.00    +0.102 A 
ATOM     19  N   UNL     1      -4.203   2.011  23.900  0.00  0.00    -0.222 NA
ATOM     20  C   UNL     1      -4.733   2.168  24.512  0.00  0.00    +0.199 A 
ATOM     21  N   UNL     1      -4.702   1.725  25.208  0.00  0.00    -0.222 NA
ATOM     22  C   UNL     1      -4.140   1.126  25.290  0.00  0.00    +0.102 A 
ENDBRANCH  10  17
BRANCH   2  23
ATOM     23  C   UNL     1      -1.668  -1.269  24.938  0.00  0.00    +0.054 A 
ATOM     24  C   UNL     1      -1.152  -0.935  24.389  0.00  0.00    +0.005 A 
ATOM     25  C   UNL     1      -0.822  -0.192  24.532  0.00  0.00    +0.010 A 
ATOM     26  C   UNL     1      -1.009   0.216  25.224  0.00  0.00    +0.068 A 
ATOM     27  C   UNL     1      -1.526  -0.119  25.774  0.00  0.00    +0.010 A 
ATOM     28  C   UNL     1      -1.856  -0.862  25.630  0.00  0.00    +0.005 A 
BRANCH  26  29
ATOM     29  C   UNL     1      -0.679   0.958  25.368  0.00  0.00    +0.100 C 
ATOM     30  N   UNL     1      -0.350   1.701  25.511  0.00  0.00    -0.191 NA
ENDBRANCH  26  29
ENDBRANCH   2  23
TORSDOF 3
ENDMDL
MODEL 6
REMARK VINA RESULT:     -13.7      2.078      3.749
REMARK  Name = 
REMARK  3 active torsions:
REMARK  status: ('A' for Active; 'I' for Inactive)
REMARK    1  A    between atoms: C_2  and  C_23
REMARK    2  A    between atoms: C_10  and  C_17
REMARK    3  A    between atoms: C_26  and  C_29
REMARK                            x       y       z     vdW  Elec       q    Type
REMARK                         _______ _______ _______ _____ _____    ______ ____
ROOT
ATOM      1  O   UNL     1      -2.262   4.040  24.815  0.00  0.00    -0.270 OA
ATOM      2  C   UNL     1      -2.655   3.256  24.803  0.00  0.00    +0.249 C 
ATOM      3  N   UNL     1      -2.132   2.569  24.805  0.00  0.00    -0.276 N 
ATOM      4  C   UNL     1      -1.364   2.241  24.813  0.00  0.00    +0.096 C 
ATOM      5  C   UNL     1      -1.595   1.280  24.802  0.00  0.00    +0.043 C 
ATOM      6  C   UNL     1      -1.616   0.466  24.795  0.00  0.00    +0.011 C 
ATOM      7  C   UNL     1      -2.075   0.997  24.793  0.00  0.00    +0.058 C 
ATOM      8  C   UNL     1      -1.836   1.922  24.804  0.00  0.00    +0.099 C 
ATOM      9  C   UNL     1      -2.977   1.170  24.781  0.00  0.00    +0.041 A 
ATOM     10  C   UNL     1      -3.704   0.780  24.767  0.00  0.00    +0.015 A 
ATOM     11  C   UNL     1      -4.405   1.214  24.761  0.00  0.00    +0.006 A 
ATOM     12  C   UNL     1      -4.283   2.104  24.770  0.00  0.00    +0.061 A 
ATOM     13  C   UNL     1      -3.653   2.429  24.781  0.00  0.00    +0.261 A 
ATOM     14  O   UNL     1      -3.557   3.467  24.791  0.00  0.00    -0.267 OA
ATOM     15  N   UNL     1      -2.952   1.994  24.788  0.00  0.00    -0.299 N 
ATOM     16  C   UNL     1      -2.536   1.470  24.790  0.00  0.00    +0.110 C 
ENDROOT
BRANCH  10  17
ATOM     17  C   UNL     1      -3.729  -0.045  24.760  0.00  0.00    +0.039 A 
ATOM     18  C   UNL     1      -3.701  -0.465  25.470  0.00  0.00    +0.102 A 
ATOM     19  N   UNL     1      -3.727  -1.289  25.463  0.00  0.00    -0.222 NA
ATOM     20  C   UNL     1      -3.780  -1.695  24.746  0.00  0.00    +0.199 A 
ATOM     21  N   UNL     1      -3.809  -1.275  24.036  0.00  0.00    -0.222 NA
ATOM     22  C   UNL     1      -3.783  -0.450  24.044  0.00  0.00    +0.102 A 
ENDBRANCH  10  17
BRANCH   2  23
ATOM     23  C   UNL     1      -3.518   2.922  24.787  0.00  0.00    +0.054 A 
ATOM     24  C   UNL     1      -3.919   2.979  25.506  0.00  0.00    +0.005 A 
ATOM     25  C   UNL     1      -4.694   2.701  25.568  0.00  0.00    +0.010 A 
ATOM     26  C   UNL     1      -5.066   2.367  24.912  0.00  0.00    +0.068 A 
ATOM     27  C   UNL     1      -4.664   2.311  24.193  0.00  0.00    +0.010 A 
ATOM     28  C   UNL     1      -3.889   2.589  24.131  0.00  0.00    +0.005 A 
BRANCH  26  29
ATOM     29  C   UNL     1      -5.840   2.090  24.974  0.00  0.00    +0.100 C 
ATOM     30  N   UNL     1      -6.614   1.812  25.035  0.00  0.00    -0.191 NA
ENDBRANCH  26  29
ENDBRANCH   2  23
TORSDOF 3
ENDMDL
