MODEL 1
REMARK VINA RESULT:      -9.1      0.000      0.000
REMARK  Name = 
REMARK  7 active torsions:
REMARK  status: ('A' for Active; 'I' for Inactive)
REMARK    1  A    between atoms: C_2  and  C_4
REMARK    2  A    between atoms: C_4  and  O_5
REMARK    3  A    between atoms: O_5  and  C_6
REMARK    4  A    between atoms: C_10  and  N_14
REMARK    5  A    between atoms: N_14  and  S_15
REMARK    6  A    between atoms: S_15  and  C_18
REMARK    7  A    between atoms: C_23  and  C_24
REMARK                            x       y       z     vdW  Elec       q    Type
REMARK                         _______ _______ _______ _____ _____    ______ ____
ROOT
ATOM      6  C   UNL     1      -1.477   2.620  25.208  0.00  0.00    +0.175 C 
ATOM      7  C   UNL     1      -0.780   2.289  25.498  0.00  0.00    +0.174 C 
ATOM      8  O   UNL     1      -0.869   1.469  25.500  0.00  0.00    -0.349 OA
ATOM      9  C   UNL     1      -1.621   1.293  25.211  0.00  0.00    +0.165 C 
ATOM     10  C   UNL     1      -2.142   0.679  25.033  0.00  0.00    +0.157 C 
ATOM     11  C   UNL     1      -2.839   1.010  24.743  0.00  0.00    +0.164 C 
ATOM     12  O   UNL     1      -2.750   1.830  24.741  0.00  0.00    -0.350 OA
ATOM     13  C   UNL     1      -1.997   2.005  25.030  0.00  0.00    +0.173 C 
ENDROOT
BRANCH   6   5
ATOM      5  O   UNL     1      -1.628   3.426  25.112  0.00  0.00    -0.342 OA
BRANCH   5   4
ATOM      4  C   UNL     1      -1.030   3.977  25.249  0.00  0.00    +0.230 C 
BRANCH   4   2
ATOM      1  N   UNL     1      -0.644   5.247  24.719  0.00  0.00    -0.086 NA
ATOM      2  C   UNL     1      -1.177   4.781  25.143  0.00  0.00    +0.291 C 
ATOM      3  O   UNL     1      -1.858   5.121  25.462  0.00  0.00    -0.269 OA
ENDBRANCH   4   2
ENDBRANCH   5   4
ENDBRANCH   6   5
BRANCH  10  14
ATOM     14  N   UNL     1      -1.991  -0.127  25.129  0.00  0.00    -0.074 NA
BRANCH  14  15
ATOM     15  S   UNL     1      -2.529  -0.685  24.844  0.00  0.00    +0.078 S 
ATOM     16  O   UNL     1      -2.189  -0.628  24.095  0.00  0.00    -0.152 OA
ATOM     17  O   UNL     1      -2.867  -0.741  25.595  0.00  0.00    -0.152 OA
BRANCH  15  18
ATOM     18  C   UNL     1      -3.066  -1.242  24.559  0.00  0.00    +0.133 A 
ATOM     19  C   UNL     1      -3.818  -1.003  24.316  0.00  0.00    +0.021 A 
ATOM     20  C   UNL     1      -4.355  -1.560  24.031  0.00  0.00    +0.001 A 
ATOM     21  C   UNL     1      -4.141  -2.356  23.988  0.00  0.00    +0.001 A 
ATOM     22  C   UNL     1      -3.390  -2.594  24.231  0.00  0.00    +0.012 A 
ATOM     23  C   UNL     1      -2.852  -2.037  24.516  0.00  0.00    +0.087 A 
BRANCH  23  24
ATOM     24  C   UNL     1      -2.100  -2.276  24.759  0.00  0.00    +0.102 C 
ATOM     25  N   UNL     1      -1.349  -2.515  25.002  0.00  0.00    -0.191 NA
ENDBRANCH  23  24
ENDBRANCH  15  18
ENDBRANCH  14  15
ENDBRANCH  10  14
TORSDOF 7
ENDMDL
MODEL 2
REMARK VINA RESULT:      -8.7      1.694      5.418
REMARK  Name = 
REMARK  7 active torsions:
REMARK  status: ('A' for Active; 'I' for Inactive)
REMARK    1  A    between atoms: C_2  and  C_4
REMARK    2  A    between atoms: C_4  and  O_5
REMARK    3  A    between atoms: O_5  and  C_6
REMARK    4  A    between atoms: C_10  and  N_14
REMARK    5  A    between atoms: N_14  and  S_15
REMARK    6  A    between atoms: S_15  and  C_18
REMARK    7  A    between atoms: C_23  and  C_24
REMARK                            x       y       z     vdW  Elec       q    Type
REMARK                         _______ _______ _______ _____ _____    ______ ____
ROOT
ATOM      6  C   UNL     1      -3.815  -0.246  24.434  0.00  0.00    +0.175 C 
ATOM      7  C   UNL     1      -4.351  -0.043  25.028  0.00  0.00    +0.174 C 
ATOM      8  O   UNL     1      -4.226   0.748  25.224  0.00  0.00    -0.349 OA
ATOM      9  C   UNL     1      -3.614   1.035  24.752  0.00  0.00    +0.165 C 
ATOM     10  C   UNL     1      -3.158   1.701  24.581  0.00  0.00    +0.157 C 
ATOM     11  C   UNL     1      -2.622   1.498  23.987  0.00  0.00    +0.164 C 
ATOM     12  O   UNL     1      -2.747   0.707  23.791  0.00  0.00    -0.350 OA
ATOM     13  C   UNL     1      -3.360   0.420  24.264  0.00  0.00    +0.173 C 
ENDROOT
BRANCH   6   5
ATOM      5  O   UNL     1      -3.747  -0.985  24.074  0.00  0.00    -0.342 OA
BRANCH   5   4
ATOM      4  C   UNL     1      -3.995  -1.663  24.473  0.00  0.00    +0.230 C 
BRANCH   4   2
ATOM      1  N   UNL     1      -3.352  -2.937  24.398  0.00  0.00    -0.086 NA
ATOM      2  C   UNL     1      -3.916  -2.403  24.119  0.00  0.00    +0.291 C 
ATOM      3  O   UNL     1      -4.400  -2.610  23.484  0.00  0.00    -0.269 OA
ENDBRANCH   4   2
ENDBRANCH   5   4
ENDBRANCH   6   5
BRANCH  10  14
ATOM     14  N   UNL     1      -3.226   2.440  24.941  0.00  0.00    -0.074 NA
BRANCH  14  15
ATOM     15  S   UNL     1      -2.594   2.970  24.918  0.00  0.00    +0.078 S 
ATOM     16  O   UNL     1      -2.254   2.590  25.566  0.00  0.00    -0.152 OA
ATOM     17  O   UNL     1      -2.935   3.350  24.270  0.00  0.00    -0.152 OA
BRANCH  15  18
ATOM     18  C   UNL     1      -1.962   3.500  24.897  0.00  0.00    +0.133 A 
ATOM     19  C   UNL     1      -1.310   3.344  24.414  0.00  0.00    +0.021 A 
ATOM     20  C   UNL     1      -0.678   3.874  24.393  0.00  0.00    +0.001 A 
ATOM     21  C   UNL     1      -0.697   4.558  24.853  0.00  0.00    +0.001 A 
ATOM     22  C   UNL     1      -1.348   4.713  25.334  0.00  0.00    +0.012 A 
ATOM     23  C   UNL     1      -1.981   4.184  25.356  0.00  0.00    +0.087 A 
BRANCH  23  24
ATOM     24  C   UNL     1      -2.632   4.340  25.839  0.00  0.00    +0.102 C 
ATOM     25  N   UNL     1      -3.283   4.496  26.320  0.00  0.00    -0.191 NA
ENDBRANCH  23  24
ENDBRANCH  15  18
ENDBRANCH  14  15
ENDBRANCH  10  14
TORSDOF 7
ENDMDL
MODEL 3
REMARK VINA RESULT:      -8.1      2.660      3.892
REMARK  Name = 
REMARK  7 active torsions:
REMARK  status: ('A' for Active; 'I' for Inactive)
REMARK    1  A    between atoms: C_2  and  C_4
REMARK    2  A    between atoms: C_4  and  O_5
REMARK    3  A    between atoms: O_5  and  C_6
REMARK    4  A    between atoms: C_10  and  N_14
REMARK    5  A    between atoms: N_14  and  S_15
REMARK    6  A    between atoms: S_15  and  C_18
REMARK    7  A    between atoms: C_23  and  C_24
REMARK                            x       y       z     vdW  Elec       q    Type
REMARK                         _______ _______ _______ _____ _____    ______ ____
ROOT
ATOM      6  C   UNL     1       0.357   0.192  23.539  0.00  0.00    +0.175 C 
ATOM      7  C   UNL     1       0.178  -0.552  23.846  0.00  0.00    +0.174 C 
ATOM      8  O   UNL     1      -0.579  -0.518  24.171  0.00  0.00    -0.349 OA
ATOM      9  C   UNL     1      -0.869   0.246  24.065  0.00  0.00    +0.165 C 
ATOM     10  C   UNL     1      -1.515   0.741  24.200  0.00  0.00    +0.157 C 
ATOM     11  C   UNL     1      -1.336   1.486  23.893  0.00  0.00    +0.164 C 
ATOM     12  O   UNL     1      -0.579   1.451  23.568  0.00  0.00    -0.350 OA
ATOM     13  C   UNL     1      -0.290   0.686  23.674  0.00  0.00    +0.173 C 
ENDROOT
BRANCH   6   5
ATOM      5  O   UNL     1       1.059   0.405  23.162  0.00  0.00    -0.342 OA
BRANCH   5   4
ATOM      4  C   UNL     1       1.553  -0.177  22.849  0.00  0.00    +0.230 C 
BRANCH   4   2
ATOM      1  N   UNL     1       2.857   0.394  22.722  0.00  0.00    -0.086 NA
ATOM      2  C   UNL     1       2.197   0.036  22.380  0.00  0.00    +0.291 C 
ATOM      3  O   UNL     1       2.181  -0.110  21.568  0.00  0.00    -0.269 OA
ENDBRANCH   4   2
ENDBRANCH   5   4
ENDBRANCH   6   5
BRANCH  10  14
ATOM     14  N   UNL     1      -2.218   0.528  24.577  0.00  0.00    -0.074 NA
BRANCH  14  15
ATOM     15  S   UNL     1      -2.875   1.026  24.538  0.00  0.00    +0.078 S 
ATOM     16  O   UNL     1      -2.647   1.380  25.247  0.00  0.00    -0.152 OA
ATOM     17  O   UNL     1      -3.102   0.671  23.828  0.00  0.00    -0.152 OA
BRANCH  15  18
ATOM     18  C   UNL     1      -3.531   1.524  24.500  0.00  0.00    +0.133 A 
ATOM     19  C   UNL     1      -3.457   2.280  24.175  0.00  0.00    +0.021 A 
ATOM     20  C   UNL     1      -4.113   2.778  24.137  0.00  0.00    +0.001 A 
ATOM     21  C   UNL     1      -4.843   2.522  24.423  0.00  0.00    +0.001 A 
ATOM     22  C   UNL     1      -4.917   1.767  24.747  0.00  0.00    +0.012 A 
ATOM     23  C   UNL     1      -4.261   1.268  24.786  0.00  0.00    +0.087 A 
BRANCH  23  24
ATOM     24  C   UNL     1      -4.335   0.513  25.110  0.00  0.00    +0.102 C 
ATOM     25  N   UNL     1      -4.409  -0.241  25.435  0.00  0.00    -0.191 NA
ENDBRANCH  23  24
ENDBRANCH  15  18
ENDBRANCH  14  15
ENDBRANCH  10  14
TORSDOF 7
ENDMDL
MODEL 4
REMARK VINA RESULT:      -8.0      2.784      4.198
REMARK  Name = 
REMARK  7 active torsions:
REMARK  status: ('A' for Active; 'I' for Inactive)
REMARK    1  A    between atoms: C_2  and  C_4
REMARK    2  A    between atoms: C_4  and  O_5
REMARK    3  A    between atoms: O_5  and  C_6
REMARK    4  A    between atoms: C_10  and  N_14
REMARK    5  A    between atoms: N_14  and  S_15
REMARK    6  A    between atoms: S_15  and  C_18
REMARK    7  A    between atoms: C_23  and  C_24
REMARK                            x       y       z     vdW  Elec       q    Type
REMARK                         _______ _______ _______ _____ _____    ______ ____
ROOT
ATOM      6  C   UNL     1      -0.819   1.186  23.746  0.00  0.00    +0.175 C 
ATOM      7  C   UNL     1      -0.524   1.812  24.195  0.00  0.00    +0.174 C 
ATOM      8  O   UNL     1      -1.157   2.297  24.403  0.00  0.00    -0.349 OA
ATOM      9  C   UNL     1      -1.844   1.972  24.084  0.00  0.00    +0.165 C 
ATOM     10  C   UNL     1      -2.660   2.069  24.014  0.00  0.00    +0.157 C 
ATOM     11  C   UNL     1      -2.956   1.444  23.566  0.00  0.00    +0.164 C 
ATOM     12  O   UNL     1      -2.323   0.959  23.358  0.00  0.00    -0.350 OA
ATOM     13  C   UNL     1      -1.635   1.285  23.678  0.00  0.00    +0.173 C 
ENDROOT
BRANCH   6   5
ATOM      5  O   UNL     1      -0.376   0.569  23.423  0.00  0.00    -0.342 OA
BRANCH   5   4
ATOM      4  C   UNL     1       0.444   0.562  23.507  0.00  0.00    +0.230 C 
BRANCH   4   2
ATOM      1  N   UNL     1       1.511   0.071  22.692  0.00  0.00    -0.086 NA
ATOM      2  C   UNL     1       0.884  -0.069  23.211  0.00  0.00    +0.291 C 
ATOM      3  O   UNL     1       0.698  -0.841  23.434  0.00  0.00    -0.269 OA
ENDBRANCH   4   2
ENDBRANCH   5   4
ENDBRANCH   6   5
BRANCH  10  14
ATOM     14  N   UNL     1      -3.104   2.686  24.338  0.00  0.00    -0.074 NA
BRANCH  14  15
ATOM     15  S   UNL     1      -3.865   2.543  24.620  0.00  0.00    +0.078 S 
ATOM     16  O   UNL     1      -4.179   2.806  23.904  0.00  0.00    -0.152 OA
ATOM     17  O   UNL     1      -3.550   2.281  25.336  0.00  0.00    -0.152 OA
BRANCH  15  18
ATOM     18  C   UNL     1      -4.627   2.400  24.902  0.00  0.00    +0.133 A 
ATOM     19  C   UNL     1      -5.007   1.690  24.722  0.00  0.00    +0.021 A 
ATOM     20  C   UNL     1      -5.770   1.548  25.003  0.00  0.00    +0.001 A 
ATOM     21  C   UNL     1      -6.152   2.114  25.465  0.00  0.00    +0.001 A 
ATOM     22  C   UNL     1      -5.772   2.823  25.645  0.00  0.00    +0.012 A 
ATOM     23  C   UNL     1      -5.010   2.967  25.364  0.00  0.00    +0.087 A 
BRANCH  23  24
ATOM     24  C   UNL     1      -4.630   3.677  25.545  0.00  0.00    +0.102 C 
ATOM     25  N   UNL     1      -4.250   4.387  25.725  0.00  0.00    -0.191 NA
ENDBRANCH  23  24
ENDBRANCH  15  18
ENDBRANCH  14  15
ENDBRANCH  10  14
TORSDOF 7
ENDMDL
MODEL 5
REMARK VINA RESULT:      -7.9      1.964      2.334
REMARK  Name = 
REMARK  7 active torsions:
REMARK  status: ('A' for Active; 'I' for Inactive)
REMARK    1  A    between atoms: C_2  and  C_4
REMARK    2  A    between atoms: C_4  and  O_5
REMARK    3  A    between atoms: O_5  and  C_6
REMARK    4  A    between atoms: C_10  and  N_14
REMARK    5  A    between atoms: N_14  and  S_15
REMARK    6  A    between atoms: S_15  and  C_18
REMARK    7  A    between atoms: C_23  and  C_24
REMARK                            x       y       z     vdW  Elec       q    Type
REMARK                         _______ _______ _______ _____ _____    ______ ____
ROOT
ATOM      6  C   UNL     1      -4.130   2.479  24.929  0.00  0.00    +0.175 C 
ATOM      7  C   UNL     1      -3.346   2.699  25.058  0.00  0.00    +0.174 C 
ATOM      8  O   UNL     1      -2.880   2.020  25.012  0.00  0.00    -0.349 OA
ATOM      9  C   UNL     1      -3.376   1.380  24.855  0.00  0.00    +0.165 C 
ATOM     10  C   UNL     1      -3.395   0.565  24.729  0.00  0.00    +0.157 C 
ATOM     11  C   UNL     1      -4.180   0.345  24.600  0.00  0.00    +0.164 C 
ATOM     12  O   UNL     1      -4.645   1.024  24.646  0.00  0.00    -0.350 OA
ATOM     13  C   UNL     1      -4.148   1.664  24.803  0.00  0.00    +0.173 C 
ENDROOT
BRANCH   6   5
ATOM      5  O   UNL     1      -4.782   2.985  24.926  0.00  0.00    -0.342 OA
BRANCH   5   4
ATOM      4  C   UNL     1      -4.846   3.579  25.495  0.00  0.00    +0.230 C 
BRANCH   4   2
ATOM      1  N   UNL     1      -5.661   4.742  25.334  0.00  0.00    -0.086 NA
ATOM      2  C   UNL     1      -5.564   3.969  25.606  0.00  0.00    +0.291 C 
ATOM      3  O   UNL     1      -6.186   3.586  25.989  0.00  0.00    -0.269 OA
ENDBRANCH   4   2
ENDBRANCH   5   4
ENDBRANCH   6   5
BRANCH  10  14
ATOM     14  N   UNL     1      -2.744   0.059  24.732  0.00  0.00    -0.074 NA
BRANCH  14  15
ATOM     15  S   UNL     1      -2.853  -0.756  24.660  0.00  0.00    +0.078 S 
ATOM     16  O   UNL     1      -2.775  -0.693  23.841  0.00  0.00    -0.152 OA
ATOM     17  O   UNL     1      -2.931  -0.818  25.479  0.00  0.00    -0.152 OA
BRANCH  15  18
ATOM     18  C   UNL     1      -2.963  -1.570  24.587  0.00  0.00    +0.133 A 
ATOM     19  C   UNL     1      -3.719  -1.874  24.458  0.00  0.00    +0.021 A 
ATOM     20  C   UNL     1      -3.829  -2.689  24.385  0.00  0.00    +0.001 A 
ATOM     21  C   UNL     1      -3.183  -3.199  24.441  0.00  0.00    +0.001 A 
ATOM     22  C   UNL     1      -2.428  -2.895  24.569  0.00  0.00    +0.012 A 
ATOM     23  C   UNL     1      -2.317  -2.081  24.643  0.00  0.00    +0.087 A 
BRANCH  23  24
ATOM     24  C   UNL     1      -1.561  -1.776  24.772  0.00  0.00    +0.102 C 
ATOM     25  N   UNL     1      -0.805  -1.473  24.901  0.00  0.00    -0.191 NA
ENDBRANCH  23  24
ENDBRANCH  15  18
ENDBRANCH  14  15
ENDBRANCH  10  14
TORSDOF 7
ENDMDL
MODEL 6
REMARK VINA RESULT:      -7.5     17.705     19.189
REMARK  Name = 
REMARK  7 active torsions:
REMARK  status: ('A' for Active; 'I' for Inactive)
REMARK    1  A    between atoms: C_2  and  C_4
REMARK    2  A    between atoms: C_4  and  O_5
REMARK    3  A    between atoms: O_5  and  C_6
REMARK    4  A    between atoms: C_10  and  N_14
REMARK    5  A    between atoms: N_14  and  S_15
REMARK    6  A    between atoms: S_15  and  C_18
REMARK    7  A    between atoms: C_23  and  C_24
REMARK                            x       y       z     vdW  Elec       q    Type
REMARK                         _______ _______ _______ _____ _____    ______ ____
ROOT
ATOM      6  C   UNL     1      12.425   8.112  17.733  0.00  0.00    +0.175 C 
ATOM      7  C   UNL     1      12.090   8.278  18.468  0.00  0.00    +0.174 C 
ATOM      8  O   UNL     1      12.662   8.136  19.045  0.00  0.00    -0.349 OA
ATOM      9  C   UNL     1      13.349   7.883  18.667  0.00  0.00    +0.165 C 
ATOM     10  C   UNL     1      14.128   7.639  18.789  0.00  0.00    +0.157 C 
ATOM     11  C   UNL     1      14.462   7.473  18.054  0.00  0.00    +0.164 C 
ATOM     12  O   UNL     1      13.891   7.614  17.477  0.00  0.00    -0.350 OA
ATOM     13  C   UNL     1      13.202   7.868  17.856  0.00  0.00    +0.173 C 
ENDROOT
BRANCH   6   5
ATOM      5  O   UNL     1      12.047   8.178  17.002  0.00  0.00    -0.342 OA
BRANCH   5   4
ATOM      4  C   UNL     1      11.385   8.664  16.922  0.00  0.00    +0.230 C 
BRANCH   4   2
ATOM      1  N   UNL     1      10.244   8.314  16.136  0.00  0.00    -0.086 NA
ATOM      2  C   UNL     1      10.975   8.690  16.207  0.00  0.00    +0.291 C 
ATOM      3  O   UNL     1      11.297   9.091  15.562  0.00  0.00    -0.269 OA
ENDBRANCH   4   2
ENDBRANCH   5   4
ENDBRANCH   6   5
BRANCH  10  14
ATOM     14  N   UNL     1      14.506   7.573  19.520  0.00  0.00    -0.074 NA
BRANCH  14  15
ATOM     15  S   UNL     1      15.230   7.182  19.576  0.00  0.00    +0.078 S 
ATOM     16  O   UNL     1      15.622   7.885  19.396  0.00  0.00    -0.152 OA
ATOM     17  O   UNL     1      14.837   6.479  19.757  0.00  0.00    -0.152 OA
BRANCH  15  18
ATOM     18  C   UNL     1      15.955   6.792  19.633  0.00  0.00    +0.133 A 
ATOM     19  C   UNL     1      16.265   6.402  18.975  0.00  0.00    +0.021 A 
ATOM     20  C   UNL     1      16.990   6.012  19.031  0.00  0.00    +0.001 A 
ATOM     21  C   UNL     1      17.405   6.012  19.744  0.00  0.00    +0.001 A 
ATOM     22  C   UNL     1      17.095   6.403  20.400  0.00  0.00    +0.012 A 
ATOM     23  C   UNL     1      16.370   6.793  20.345  0.00  0.00    +0.087 A 
BRANCH  23  24
ATOM     24  C   UNL     1      16.060   7.183  21.003  0.00  0.00    +0.102 C 
ATOM     25  N   UNL     1      15.751   7.573  21.660  0.00  0.00    -0.191 NA
ENDBRANCH  23  24
ENDBRANCH  15  18
ENDBRANCH  14  15
ENDBRANCH  10  14
TORSDOF 7
ENDMDL
MODEL 7
REMARK VINA RESULT:      -7.3     15.436     17.465
REMARK  Name = 
REMARK  7 active torsions:
REMARK  status: ('A' for Active; 'I' for Inactive)
REMARK    1  A    between atoms: C_2  and  C_4
REMARK    2  A    between atoms: C_4  and  O_5
REMARK    3  A    between atoms: O_5  and  C_6
REMARK    4  A    between atoms: C_10  and  N_14
REMARK    5  A    between atoms: N_14  and  S_15
REMARK    6  A    between atoms: S_15  and  C_18
REMARK    7  A    between atoms: C_23  and  C_24
REMARK                            x       y       z     vdW  Elec       q    Type
REMARK                         _______ _______ _______ _____ _____    ______ ____
ROOT
ATOM      6  C   UNL     1      13.294   8.210  17.529  0.00  0.00    +0.175 C 
ATOM      7  C   UNL     1      13.771   7.589  17.787  0.00  0.00    +0.174 C 
ATOM      8  O   UNL     1      13.430   7.272  18.468  0.00  0.00    -0.349 OA
ATOM      9  C   UNL     1      12.743   7.697  18.631  0.00  0.00    +0.165 C 
ATOM     10  C   UNL     1      12.107   7.764  19.152  0.00  0.00    +0.157 C 
ATOM     11  C   UNL     1      11.630   8.386  18.894  0.00  0.00    +0.164 C 
ATOM     12  O   UNL     1      11.970   8.702  18.213  0.00  0.00    -0.350 OA
ATOM     13  C   UNL     1      12.658   8.277  18.050  0.00  0.00    +0.173 C 
ENDROOT
BRANCH   6   5
ATOM      5  O   UNL     1      13.428   8.682  16.865  0.00  0.00    -0.342 OA
BRANCH   5   4
ATOM      4  C   UNL     1      13.980   8.449  16.298  0.00  0.00    +0.230 C 
BRANCH   4   2
ATOM      1  N   UNL     1      13.292   8.929  15.142  0.00  0.00    -0.086 NA
ATOM      2  C   UNL     1      13.994   8.816  15.560  0.00  0.00    +0.291 C 
ATOM      3  O   UNL     1      14.710   9.071  15.240  0.00  0.00    -0.269 OA
ENDBRANCH   4   2
ENDBRANCH   5   4
ENDBRANCH   6   5
BRANCH  10  14
ATOM     14  N   UNL     1      11.972   7.293  19.816  0.00  0.00    -0.074 NA
BRANCH  14  15
ATOM     15  S   UNL     1      11.633   7.620  20.493  0.00  0.00    +0.078 S 
ATOM     16  O   UNL     1      10.889   7.580  20.138  0.00  0.00    -0.152 OA
ATOM     17  O   UNL     1      12.377   7.658  20.847  0.00  0.00    -0.152 OA
BRANCH  15  18
ATOM     18  C   UNL     1      11.293   7.947  21.170  0.00  0.00    +0.133 A 
ATOM     19  C   UNL     1      11.259   8.766  21.259  0.00  0.00    +0.021 A 
ATOM     20  C   UNL     1      10.919   9.093  21.936  0.00  0.00    +0.001 A 
ATOM     21  C   UNL     1      10.613   8.602  22.523  0.00  0.00    +0.001 A 
ATOM     22  C   UNL     1      10.647   7.783  22.434  0.00  0.00    +0.012 A 
ATOM     23  C   UNL     1      10.987   7.455  21.757  0.00  0.00    +0.087 A 
BRANCH  23  24
ATOM     24  C   UNL     1      11.021   6.635  21.668  0.00  0.00    +0.102 C 
ATOM     25  N   UNL     1      11.055   5.816  21.579  0.00  0.00    -0.191 NA
ENDBRANCH  23  24
ENDBRANCH  15  18
ENDBRANCH  14  15
ENDBRANCH  10  14
TORSDOF 7
ENDMDL
MODEL 8
REMARK VINA RESULT:      -6.2     17.779     19.238
REMARK  Name = 
REMARK  7 active torsions:
REMARK  status: ('A' for Active; 'I' for Inactive)
REMARK    1  A    between atoms: C_2  and  C_4
REMARK    2  A    between atoms: C_4  and  O_5
REMARK    3  A    between atoms: O_5  and  C_6
REMARK    4  A    between atoms: C_10  and  N_14
REMARK    5  A    between atoms: N_14  and  S_15
REMARK    6  A    between atoms: S_15  and  C_18
REMARK    7  A    between atoms: C_23  and  C_24
REMARK                            x       y       z     vdW  Elec       q    Type
REMARK                         _______ _______ _______ _____ _____    ______ ____
ROOT
ATOM      6  C   UNL     1      15.527   7.178  19.419  0.00  0.00    +0.175 C 
ATOM      7  C   UNL     1      15.655   6.642  18.805  0.00  0.00    +0.174 C 
ATOM      8  O   UNL     1      15.195   6.877  18.162  0.00  0.00    -0.349 OA
ATOM      9  C   UNL     1      14.783   7.557  18.377  0.00  0.00    +0.165 C 
ATOM     10  C   UNL     1      14.244   8.124  18.114  0.00  0.00    +0.157 C 
ATOM     11  C   UNL     1      14.116   8.660  18.728  0.00  0.00    +0.164 C 
ATOM     12  O   UNL     1      14.575   8.425  19.371  0.00  0.00    -0.350 OA
ATOM     13  C   UNL     1      14.988   7.744  19.155  0.00  0.00    +0.173 C 
ENDROOT
BRANCH   6   5
ATOM      5  O   UNL     1      15.876   7.153  20.166  0.00  0.00    -0.342 OA
BRANCH   5   4
ATOM      4  C   UNL     1      16.305   6.487  20.399  0.00  0.00    +0.230 C 
BRANCH   4   2
ATOM      1  N   UNL     1      17.405   6.827  21.245  0.00  0.00    -0.086 NA
ATOM      2  C   UNL     1      16.670   6.469  21.138  0.00  0.00    +0.291 C 
ATOM      3  O   UNL     1      16.299   6.093  21.772  0.00  0.00    -0.269 OA
ENDBRANCH   4   2
ENDBRANCH   5   4
ENDBRANCH   6   5
BRANCH  10  14
ATOM     14  N   UNL     1      13.894   8.149  17.367  0.00  0.00    -0.074 NA
BRANCH  14  15
ATOM     15  S   UNL     1      13.085   8.294  17.294  0.00  0.00    +0.078 S 
ATOM     16  O   UNL     1      12.957   7.494  17.137  0.00  0.00    -0.152 OA
ATOM     17  O   UNL     1      13.214   9.094  17.451  0.00  0.00    -0.152 OA
BRANCH  15  18
ATOM     18  C   UNL     1      12.276   8.438  17.221  0.00  0.00    +0.133 A 
ATOM     19  C   UNL     1      11.770   8.277  17.854  0.00  0.00    +0.021 A 
ATOM     20  C   UNL     1      10.961   8.421  17.781  0.00  0.00    +0.001 A 
ATOM     21  C   UNL     1      10.658   8.725  17.077  0.00  0.00    +0.001 A 
ATOM     22  C   UNL     1      11.163   8.886  16.446  0.00  0.00    +0.012 A 
ATOM     23  C   UNL     1      11.973   8.742  16.518  0.00  0.00    +0.087 A 
BRANCH  23  24
ATOM     24  C   UNL     1      12.479   8.903  15.885  0.00  0.00    +0.102 C 
ATOM     25  N   UNL     1      12.984   9.064  15.254  0.00  0.00    -0.191 NA
ENDBRANCH  23  24
ENDBRANCH  15  18
ENDBRANCH  14  15
ENDBRANCH  10  14
TORSDOF 7
ENDMDL
