REMARK  Name = 
REMARK  7 active torsions:
REMARK  status: ('A' for Active; 'I' for Inactive)
REMARK    1  A    between atoms: O_2  and  C_3
REMARK    2  A    between atoms: C_3  and  C_4
REMARK    3  A    between atoms: C_4  and  N_5
REMARK    4  A    between atoms: C_6  and  C_8
REMARK    5  A    between atoms: C_8  and  C_10
REMARK    6  A    between atoms: C_17  and  N_18
REMARK    7  A    between atoms: C_19  and  C_21
REMARK                            x       y       z     vdW  Elec       q    Type
REMARK                         _______ _______ _______ _____ _____    ______ ____
ROOT
ATOM     10  C   UNL     1       7.859  -3.712   0.000  0.00  0.00    +0.039 C 
ATOM     11  C   UNL     1       7.859  -2.888   0.000  0.00  0.00    +0.003 C 
ATOM     12  C   UNL     1       8.574  -2.475   0.000  0.00  0.00    +0.000 C 
ATOM     13  C   UNL     1       9.288  -2.888   0.000  0.00  0.00    +0.002 C 
ATOM     14  C   UNL     1       9.288  -2.062   0.000  0.00  0.00    +0.000 C 
ATOM     15  C   UNL     1      10.003  -2.475   0.000  0.00  0.00    +0.002 C 
ATOM     16  C   UNL     1      10.717  -2.888   0.000  0.00  0.00    +0.022 C 
ATOM     17  C   UNL     1      10.717  -3.712   0.000  0.00  0.00    +0.096 C 
ATOM     27  C   UNL     1      10.003  -4.125   0.000  0.00  0.00    +0.022 C 
ATOM     28  C   UNL     1      10.003  -4.950   0.000  0.00  0.00    +0.002 C 
ATOM     29  C   UNL     1       9.288  -3.712   0.000  0.00  0.00    +0.032 C 
ATOM     30  C   UNL     1       8.574  -4.125   0.000  0.00  0.00    +0.152 C 
ATOM     31  O   UNL     1       8.574  -4.950   0.000  0.00  0.00    -0.223 OA
ENDROOT
BRANCH  17  18
ATOM     18  N   UNL     1      11.431  -4.125   0.000  0.00  0.00    -0.203 NA
ATOM     19  C   UNL     1      12.146  -3.712   0.000  0.00  0.00    +0.268 C 
ATOM     20  O   UNL     1      12.146  -2.888   0.000  0.00  0.00    -0.268 OA
BRANCH  19  21
ATOM     21  C   UNL     1      12.861  -4.125   0.000  0.00  0.00    +0.093 A 
ATOM     22  C   UNL     1      13.575  -3.712   0.000  0.00  0.00    +0.107 A 
ATOM     23  N   UNL     1      14.289  -4.125   0.000  0.00  0.00    -0.222 NA
ATOM     24  C   UNL     1      14.289  -4.950   0.000  0.00  0.00    +0.199 A 
ATOM     25  N   UNL     1      13.575  -5.362   0.000  0.00  0.00    -0.222 NA
ATOM     26  C   UNL     1      12.861  -4.950   0.000  0.00  0.00    +0.107 A 
ENDBRANCH  19  21
ENDBRANCH  17  18
BRANCH  10   8
ATOM      8  C   UNL     1       7.145  -4.125   0.000  0.00  0.00    +0.081 C 
ATOM      9  C   UNL     1       7.145  -4.950   0.000  0.00  0.00    +0.010 C 
BRANCH   8   6
ATOM      5  N   UNL     1       5.716  -4.125   0.000  0.00  0.00    -0.203 NA
ATOM      6  C   UNL     1       6.430  -3.712   0.000  0.00  0.00    +0.241 C 
ATOM      7  O   UNL     1       6.430  -2.888   0.000  0.00  0.00    -0.273 OA
BRANCH   5   4
ATOM      4  C   UNL     1       5.001  -3.712   0.000  0.00  0.00    +0.147 C 
BRANCH   4   3
ATOM      3  C   UNL     1       4.287  -4.125   0.000  0.00  0.00    +0.166 C 
BRANCH   3   2
ATOM      1  C   UNL     1       2.858  -4.125   0.000  0.00  0.00    +0.174 C 
ATOM      2  O   UNL     1       3.572  -3.712   0.000  0.00  0.00    -0.349 OA
ENDBRANCH   3   2
ENDBRANCH   4   3
ENDBRANCH   5   4
ENDBRANCH   8   6
ENDBRANCH  10   8
TORSDOF 7
