MODEL 1
REMARK VINA RESULT:     -11.4      0.000      0.000
REMARK  Name = 
REMARK  7 active torsions:
REMARK  status: ('A' for Active; 'I' for Inactive)
REMARK    1  A    between atoms: C_2  and  C_4
REMARK    2  A    between atoms: C_6  and  C_7
REMARK    3  A    between atoms: C_7  and  C_8
REMARK    4  A    between atoms: C_14  and  C_15
REMARK    5  A    between atoms: C_15  and  N_16
REMARK    6  A    between atoms: N_16  and  S_17
REMARK    7  A    between atoms: S_17  and  C_20
REMARK                            x       y       z     vdW  Elec       q    Type
REMARK                         _______ _______ _______ _____ _____    ______ ____
ROOT
ATOM      4  C   UNL     1      -2.676   2.670  24.792  0.00  0.00    +0.006 C 
ATOM      5  C   UNL     1      -2.273   3.360  24.993  0.00  0.00    +0.005 C 
ATOM      6  C   UNL     1      -1.557   3.315  25.401  0.00  0.00    +0.029 C 
ATOM     11  C   UNL     1      -1.245   2.580  25.607  0.00  0.00    -0.048 C 
ATOM     12  C   UNL     1      -0.529   2.536  26.015  0.00  0.00    +0.026 C 
ATOM     13  C   UNL     1      -1.649   1.890  25.405  0.00  0.00    -0.033 C 
ATOM     14  C   UNL     1      -2.365   1.935  24.998  0.00  0.00    +0.041 C 
ENDROOT
BRANCH   4   2
ATOM      1  C   UNL     1      -3.399   2.699  23.559  0.00  0.00    +0.000 C 
ATOM      2  C   UNL     1      -3.392   2.715  24.384  0.00  0.00    +0.000 C 
ATOM      3  C   UNL     1      -4.101   2.775  24.800  0.00  0.00    +0.000 C 
ENDBRANCH   4   2
BRANCH   6   7
ATOM      7  C   UNL     1      -1.153   4.006  25.603  0.00  0.00    +0.118 C 
BRANCH   7   8
ATOM      8  C   UNL     1      -1.141   4.645  25.081  0.00  0.00    +0.365 C 
ATOM      9  O   UNL     1      -0.636   4.637  24.429  0.00  0.00    -0.246 OA
ATOM     10  O   UNL     1      -1.636   5.294  25.211  0.00  0.00    -0.246 OA
ENDBRANCH   7   8
ENDBRANCH   6   7
BRANCH  14  15
ATOM     15  C   UNL     1      -2.768   1.244  24.796  0.00  0.00    +0.120 C 
BRANCH  15  16
ATOM     16  N   UNL     1      -2.495   0.513  25.064  0.00  0.00    -0.077 NA
BRANCH  16  17
ATOM     17  S   UNL     1      -2.891  -0.179  24.852  0.00  0.00    +0.077 S 
ATOM     18  O   UNL     1      -2.379  -0.274  24.212  0.00  0.00    -0.152 OA
ATOM     19  O   UNL     1      -3.402  -0.083  25.492  0.00  0.00    -0.152 OA
BRANCH  17  20
ATOM     20  C   UNL     1      -3.286  -0.870  24.639  0.00  0.00    +0.126 A 
ATOM     21  C   UNL     1      -3.129  -1.576  25.038  0.00  0.00    +0.050 A 
ATOM     22  C   UNL     1      -3.524  -2.267  24.825  0.00  0.00    +0.141 A 
ATOM     23  F   UNL     1      -3.367  -2.972  25.223  0.00  0.00    -0.204 F 
ATOM     24  C   UNL     1      -4.079  -2.254  24.213  0.00  0.00    +0.030 A 
ATOM     25  C   UNL     1      -4.236  -1.549  23.815  0.00  0.00    +0.004 A 
ATOM     26  C   UNL     1      -3.841  -0.857  24.027  0.00  0.00    +0.020 A 
ENDBRANCH  17  20
ENDBRANCH  16  17
ENDBRANCH  15  16
ENDBRANCH  14  15
TORSDOF 7
ENDMDL
MODEL 2
REMARK VINA RESULT:     -11.1      0.970      1.900
REMARK  Name = 
REMARK  7 active torsions:
REMARK  status: ('A' for Active; 'I' for Inactive)
REMARK    1  A    between atoms: C_2  and  C_4
REMARK    2  A    between atoms: C_6  and  C_7
REMARK    3  A    between atoms: C_7  and  C_8
REMARK    4  A    between atoms: C_14  and  C_15
REMARK    5  A    between atoms: C_15  and  N_16
REMARK    6  A    between atoms: N_16  and  S_17
REMARK    7  A    between atoms: S_17  and  C_20
REMARK                            x       y       z     vdW  Elec       q    Type
REMARK                         _______ _______ _______ _____ _____    ______ ____
ROOT
ATOM      4  C   UNL     1      -2.250   2.063  24.822  0.00  0.00    +0.006 C 
ATOM      5  C   UNL     1      -2.235   2.884  24.898  0.00  0.00    +0.005 C 
ATOM      6  C   UNL     1      -2.941   3.309  24.921  0.00  0.00    +0.029 C 
ATOM     11  C   UNL     1      -3.663   2.914  24.867  0.00  0.00    -0.048 C 
ATOM     12  C   UNL     1      -4.370   3.339  24.889  0.00  0.00    +0.026 C 
ATOM     13  C   UNL     1      -3.678   2.093  24.791  0.00  0.00    -0.033 C 
ATOM     14  C   UNL     1      -2.971   1.667  24.769  0.00  0.00    +0.041 C 
ENDROOT
BRANCH   4   2
ATOM      1  C   UNL     1      -1.205   1.362  25.500  0.00  0.00    +0.000 C 
ATOM      2  C   UNL     1      -1.543   1.638  24.800  0.00  0.00    +0.000 C 
ATOM      3  C   UNL     1      -1.174   1.488  24.078  0.00  0.00    +0.000 C 
ENDBRANCH   4   2
BRANCH   6   7
ATOM      7  C   UNL     1      -2.926   4.131  24.997  0.00  0.00    +0.118 C 
BRANCH   7   8
ATOM      8  C   UNL     1      -2.386   4.489  25.507  0.00  0.00    +0.365 C 
ATOM      9  O   UNL     1      -2.525   4.492  26.320  0.00  0.00    -0.246 OA
ATOM     10  O   UNL     1      -1.704   4.844  25.205  0.00  0.00    -0.246 OA
ENDBRANCH   7   8
ENDBRANCH   6   7
BRANCH  14  15
ATOM     15  C   UNL     1      -2.987   0.846  24.692  0.00  0.00    +0.120 C 
BRANCH  15  16
ATOM     16  N   UNL     1      -3.708   0.445  24.683  0.00  0.00    -0.077 NA
BRANCH  16  17
ATOM     17  S   UNL     1      -3.723  -0.376  24.614  0.00  0.00    +0.077 S 
ATOM     18  O   UNL     1      -3.835  -0.443  25.428  0.00  0.00    -0.152 OA
ATOM     19  O   UNL     1      -3.611  -0.309  23.800  0.00  0.00    -0.152 OA
BRANCH  17  20
ATOM     20  C   UNL     1      -3.738  -1.198  24.544  0.00  0.00    +0.126 A 
ATOM     21  C   UNL     1      -4.216  -1.556  23.974  0.00  0.00    +0.050 A 
ATOM     22  C   UNL     1      -4.231  -2.377  23.905  0.00  0.00    +0.141 A 
ATOM     23  F   UNL     1      -4.709  -2.735  23.335  0.00  0.00    -0.204 F 
ATOM     24  C   UNL     1      -3.768  -2.842  24.405  0.00  0.00    +0.030 A 
ATOM     25  C   UNL     1      -3.290  -2.485  24.975  0.00  0.00    +0.004 A 
ATOM     26  C   UNL     1      -3.274  -1.663  25.045  0.00  0.00    +0.020 A 
ENDBRANCH  17  20
ENDBRANCH  16  17
ENDBRANCH  15  16
ENDBRANCH  14  15
TORSDOF 7
ENDMDL
MODEL 3
REMARK VINA RESULT:     -10.9      2.262      5.231
REMARK  Name = 
REMARK  7 active torsions:
REMARK  status: ('A' for Active; 'I' for Inactive)
REMARK    1  A    between atoms: C_2  and  C_4
REMARK    2  A    between atoms: C_6  and  C_7
REMARK    3  A    between atoms: C_7  and  C_8
REMARK    4  A    between atoms: C_14  and  C_15
REMARK    5  A    between atoms: C_15  and  N_16
REMARK    6  A    between atoms: N_16  and  S_17
REMARK    7  A    between atoms: S_17  and  C_20
REMARK                            x       y       z     vdW  Elec       q    Type
REMARK                         _______ _______ _______ _____ _____    ______ ____
ROOT
ATOM      4  C   UNL     1      -2.216  -0.318  24.849  0.00  0.00    +0.006 C 
ATOM      5  C   UNL     1      -2.627  -1.028  24.761  0.00  0.00    +0.005 C 
ATOM      6  C   UNL     1      -3.430  -1.019  24.574  0.00  0.00    +0.029 C 
ATOM     11  C   UNL     1      -3.823  -0.300  24.476  0.00  0.00    -0.048 C 
ATOM     12  C   UNL     1      -4.627  -0.291  24.289  0.00  0.00    +0.026 C 
ATOM     13  C   UNL     1      -3.412   0.409  24.564  0.00  0.00    -0.033 C 
ATOM     14  C   UNL     1      -2.608   0.400  24.751  0.00  0.00    +0.041 C 
ENDROOT
BRANCH   4   2
ATOM      1  C   UNL     1      -0.849  -0.355  24.435  0.00  0.00    +0.000 C 
ATOM      2  C   UNL     1      -1.413  -0.328  25.036  0.00  0.00    +0.000 C 
ATOM      3  C   UNL     1      -1.172  -0.309  25.825  0.00  0.00    +0.000 C 
ENDBRANCH   4   2
BRANCH   6   7
ATOM      7  C   UNL     1      -3.842  -1.729  24.485  0.00  0.00    +0.118 C 
BRANCH   7   8
ATOM      8  C   UNL     1      -3.481  -2.443  24.687  0.00  0.00    +0.365 C 
ATOM      9  O   UNL     1      -3.499  -2.709  25.468  0.00  0.00    -0.246 OA
ATOM     10  O   UNL     1      -3.101  -2.892  24.107  0.00  0.00    -0.246 OA
ENDBRANCH   7   8
ENDBRANCH   6   7
BRANCH  14  15
ATOM     15  C   UNL     1      -2.198   1.110  24.840  0.00  0.00    +0.120 C 
BRANCH  15  16
ATOM     16  N   UNL     1      -2.586   1.830  24.725  0.00  0.00    -0.077 NA
BRANCH  16  17
ATOM     17  S   UNL     1      -2.174   2.539  24.808  0.00  0.00    +0.077 S 
ATOM     18  O   UNL     1      -2.043   2.557  23.994  0.00  0.00    -0.152 OA
ATOM     19  O   UNL     1      -2.306   2.520  25.622  0.00  0.00    -0.152 OA
BRANCH  17  20
ATOM     20  C   UNL     1      -1.762   3.248  24.891  0.00  0.00    +0.126 A 
ATOM     21  C   UNL     1      -2.141   3.912  25.202  0.00  0.00    +0.050 A 
ATOM     22  C   UNL     1      -1.729   4.621  25.285  0.00  0.00    +0.141 A 
ATOM     23  F   UNL     1      -2.108   5.285  25.596  0.00  0.00    -0.204 F 
ATOM     24  C   UNL     1      -0.937   4.668  25.057  0.00  0.00    +0.030 A 
ATOM     25  C   UNL     1      -0.558   4.005  24.747  0.00  0.00    +0.004 A 
ATOM     26  C   UNL     1      -0.970   3.294  24.663  0.00  0.00    +0.020 A 
ENDBRANCH  17  20
ENDBRANCH  16  17
ENDBRANCH  15  16
ENDBRANCH  14  15
TORSDOF 7
ENDMDL
