MODEL 1
REMARK VINA RESULT:     -10.6      0.000      0.000
REMARK  Name = 
REMARK  5 active torsions:
REMARK  status: ('A' for Active; 'I' for Inactive)
REMARK    1  A    between atoms: O_2  and  C_3
REMARK    2  A    between atoms: C_6  and  C_9
REMARK    3  A    between atoms: C_26  and  C_28
REMARK    4  A    between atoms: C_28  and  O_29
REMARK    5  A    between atoms: O_29  and  C_30
REMARK                            x       y       z     vdW  Elec       q    Type
REMARK                         _______ _______ _______ _____ _____    ______ ____
ROOT
ATOM      9  C   UNL     1      -3.893   1.171  25.030  0.00  0.00    +0.000 A 
ATOM     10  C   UNL     1      -4.119   0.389  25.161  0.00  0.00    +0.001 A 
ATOM     11  C   UNL     1      -3.588  -0.225  25.014  0.00  0.00    +0.017 A 
ATOM     12  C   UNL     1      -2.831  -0.057  24.735  0.00  0.00    +0.078 A 
ATOM     13  N   UNL     1      -2.391  -0.746  24.624  0.00  0.00    -0.178 NA
ATOM     14  C   UNL     1      -1.615  -0.823  24.355  0.00  0.00    +0.265 C 
ATOM     15  O   UNL     1      -1.328  -1.595  24.304  0.00  0.00    -0.271 OA
ATOM     16  C   UNL     1      -1.087  -0.230  24.129  0.00  0.00    +0.174 C 
ATOM     17  C   UNL     1      -0.362  -0.545  23.893  0.00  0.00    +0.123 C 
ATOM     18  N   UNL     1       0.245  -0.044  23.646  0.00  0.00    -0.273 N 
ATOM     19  C   UNL     1       0.126   0.772  23.634  0.00  0.00    +0.115 C 
ATOM     20  C   UNL     1      -0.599   1.087  23.870  0.00  0.00    +0.116 C 
ATOM     21  N   UNL     1      -1.206   0.586  24.117  0.00  0.00    -0.266 N 
ATOM     22  C   UNL     1      -1.880   1.011  24.328  0.00  0.00    +0.251 C 
ATOM     23  O   UNL     1      -1.824   1.831  24.255  0.00  0.00    -0.270 OA
ATOM     24  C   UNL     1      -2.604   0.725  24.603  0.00  0.00    +0.069 A 
ATOM     25  C   UNL     1      -3.134   1.338  24.751  0.00  0.00    +0.006 A 
ATOM     26  C   UNL     1       0.969  -0.359  23.410  0.00  0.00    +0.270 C 
ATOM     27  O   UNL     1       1.088  -1.176  23.421  0.00  0.00    -0.271 OA
ENDROOT
BRANCH   9   6
ATOM      3  C   UNL     1      -5.485   3.013  25.472  0.00  0.00    +0.139 A 
ATOM      4  C   UNL     1      -5.739   2.334  25.076  0.00  0.00    +0.037 A 
ATOM      5  C   UNL     1      -5.208   1.720  24.929  0.00  0.00    +0.003 A 
ATOM      6  C   UNL     1      -4.423   1.784  25.177  0.00  0.00    +0.000 A 
ATOM      7  C   UNL     1      -4.170   2.463  25.573  0.00  0.00    +0.003 A 
ATOM      8  C   UNL     1      -4.701   3.078  25.720  0.00  0.00    +0.037 A 
BRANCH   3   2
ATOM      1  C   UNL     1      -5.779   4.410  25.515  0.00  0.00    +0.252 C 
ATOM      2  O   UNL     1      -6.016   3.627  25.619  0.00  0.00    -0.471 OA
ENDBRANCH   3   2
ENDBRANCH   9   6
BRANCH  26  28
ATOM     28  C   UNL     1       1.576   0.142  23.162  0.00  0.00    +0.290 C 
BRANCH  28  29
ATOM     29  O   UNL     1       2.198  -0.156  22.709  0.00  0.00    -0.466 OA
BRANCH  29  30
ATOM     30  C   UNL     1       2.956   0.160  22.791  0.00  0.00    +0.139 A 
ATOM     31  C   UNL     1       3.098   0.948  22.595  0.00  0.00    +0.037 A 
ATOM     32  C   UNL     1       3.856   1.264  22.677  0.00  0.00    +0.003 A 
ATOM     33  C   UNL     1       4.472   0.791  22.953  0.00  0.00    +0.000 A 
ATOM     34  C   UNL     1       4.330   0.002  23.149  0.00  0.00    +0.003 A 
ATOM     35  C   UNL     1       3.572  -0.314  23.067  0.00  0.00    +0.037 A 
ENDBRANCH  29  30
ENDBRANCH  28  29
ENDBRANCH  26  28
TORSDOF 5
ENDMDL
MODEL 2
REMARK VINA RESULT:      -7.8      1.027      6.663
REMARK  Name = 
REMARK  5 active torsions:
REMARK  status: ('A' for Active; 'I' for Inactive)
REMARK    1  A    between atoms: O_2  and  C_3
REMARK    2  A    between atoms: C_6  and  C_9
REMARK    3  A    between atoms: C_26  and  C_28
REMARK    4  A    between atoms: C_28  and  O_29
REMARK    5  A    between atoms: O_29  and  C_30
REMARK                            x       y       z     vdW  Elec       q    Type
REMARK                         _______ _______ _______ _____ _____    ______ ____
ROOT
ATOM      9  C   UNL     1       0.826  -0.257  23.481  0.00  0.00    +0.000 A 
ATOM     10  C   UNL     1       0.755  -1.031  23.756  0.00  0.00    +0.001 A 
ATOM     11  C   UNL     1       0.055  -1.279  24.115  0.00  0.00    +0.017 A 
ATOM     12  C   UNL     1      -0.574  -0.752  24.199  0.00  0.00    +0.078 A 
ATOM     13  N   UNL     1      -1.218  -1.110  24.570  0.00  0.00    -0.178 NA
ATOM     14  C   UNL     1      -1.951  -0.781  24.758  0.00  0.00    +0.265 C 
ATOM     15  O   UNL     1      -2.485  -1.286  25.133  0.00  0.00    -0.271 OA
ATOM     16  C   UNL     1      -2.221  -0.013  24.622  0.00  0.00    +0.174 C 
ATOM     17  C   UNL     1      -2.991   0.090  24.897  0.00  0.00    +0.123 C 
ATOM     18  N   UNL     1      -3.366   0.820  24.814  0.00  0.00    -0.273 N 
ATOM     19  C   UNL     1      -2.969   1.448  24.455  0.00  0.00    +0.115 C 
ATOM     20  C   UNL     1      -2.198   1.345  24.180  0.00  0.00    +0.116 C 
ATOM     21  N   UNL     1      -1.824   0.615  24.263  0.00  0.00    -0.266 N 
ATOM     22  C   UNL     1      -1.060   0.631  23.952  0.00  0.00    +0.251 C 
ATOM     23  O   UNL     1      -0.820   1.350  23.627  0.00  0.00    -0.270 OA
ATOM     24  C   UNL     1      -0.503   0.022  23.924  0.00  0.00    +0.069 A 
ATOM     25  C   UNL     1       0.196   0.270  23.565  0.00  0.00    +0.006 A 
ATOM     26  C   UNL     1      -4.136   0.923  25.090  0.00  0.00    +0.270 C 
ATOM     27  O   UNL     1      -4.533   0.294  25.449  0.00  0.00    -0.271 OA
ENDROOT
BRANCH   9   6
ATOM      3  C   UNL     1       2.926   0.488  22.403  0.00  0.00    +0.139 A 
ATOM      4  C   UNL     1       2.426  -0.039  22.011  0.00  0.00    +0.037 A 
ATOM      5  C   UNL     1       1.726  -0.287  22.371  0.00  0.00    +0.003 A 
ATOM      6  C   UNL     1       1.526  -0.009  23.122  0.00  0.00    +0.000 A 
ATOM      7  C   UNL     1       2.027   0.518  23.512  0.00  0.00    +0.003 A 
ATOM      8  C   UNL     1       2.727   0.766  23.153  0.00  0.00    +0.037 A 
BRANCH   3   2
ATOM      1  C   UNL     1       4.296   0.880  22.502  0.00  0.00    +0.252 C 
ATOM      2  O   UNL     1       3.626   0.736  22.043  0.00  0.00    -0.471 OA
ENDBRANCH   3   2
ENDBRANCH   9   6
BRANCH  26  28
ATOM     28  C   UNL     1      -4.510   1.653  25.007  0.00  0.00    +0.290 C 
BRANCH  28  29
ATOM     29  O   UNL     1      -4.997   1.938  25.608  0.00  0.00    -0.466 OA
BRANCH  29  30
ATOM     30  C   UNL     1      -5.251   2.723  25.596  0.00  0.00    +0.139 A 
ATOM     31  C   UNL     1      -4.715   3.333  25.737  0.00  0.00    +0.037 A 
ATOM     32  C   UNL     1      -4.969   4.118  25.726  0.00  0.00    +0.003 A 
ATOM     33  C   UNL     1      -5.760   4.293  25.573  0.00  0.00    +0.000 A 
ATOM     34  C   UNL     1      -6.297   3.682  25.432  0.00  0.00    +0.003 A 
ATOM     35  C   UNL     1      -6.043   2.897  25.444  0.00  0.00    +0.037 A 
ENDBRANCH  29  30
ENDBRANCH  28  29
ENDBRANCH  26  28
TORSDOF 5
ENDMDL
MODEL 3
REMARK VINA RESULT:      -7.3     15.411     17.495
REMARK  Name = 
REMARK  5 active torsions:
REMARK  status: ('A' for Active; 'I' for Inactive)
REMARK    1  A    between atoms: O_2  and  C_3
REMARK    2  A    between atoms: C_6  and  C_9
REMARK    3  A    between atoms: C_26  and  C_28
REMARK    4  A    between atoms: C_28  and  O_29
REMARK    5  A    between atoms: O_29  and  C_30
REMARK                            x       y       z     vdW  Elec       q    Type
REMARK                         _______ _______ _______ _____ _____    ______ ____
ROOT
ATOM      9  C   UNL     1      -4.206 -10.112  11.261  0.00  0.00    +0.000 A 
ATOM     10  C   UNL     1      -4.612 -10.381  10.595  0.00  0.00    +0.001 A 
ATOM     11  C   UNL     1      -5.429 -10.491  10.626  0.00  0.00    +0.017 A 
ATOM     12  C   UNL     1      -5.841 -10.332  11.323  0.00  0.00    +0.078 A 
ATOM     13  N   UNL     1      -6.648 -10.478  11.235  0.00  0.00    -0.178 NA
ATOM     14  C   UNL     1      -7.249 -10.390  11.793  0.00  0.00    +0.265 C 
ATOM     15  O   UNL     1      -8.008 -10.583  11.534  0.00  0.00    -0.271 OA
ATOM     16  C   UNL     1      -7.192 -10.136  12.576  0.00  0.00    +0.174 C 
ATOM     17  C   UNL     1      -7.930 -10.128  12.945  0.00  0.00    +0.123 C 
ATOM     18  N   UNL     1      -7.995  -9.890  13.732  0.00  0.00    -0.273 N 
ATOM     19  C   UNL     1      -7.322  -9.659  14.150  0.00  0.00    +0.115 C 
ATOM     20  C   UNL     1      -6.585  -9.667  13.781  0.00  0.00    +0.116 C 
ATOM     21  N   UNL     1      -6.519  -9.906  12.994  0.00  0.00    -0.266 N 
ATOM     22  C   UNL     1      -5.738  -9.873  12.733  0.00  0.00    +0.251 C 
ATOM     23  O   UNL     1      -5.185  -9.617  13.289  0.00  0.00    -0.270 OA
ATOM     24  C   UNL     1      -5.435 -10.063  11.988  0.00  0.00    +0.069 A 
ATOM     25  C   UNL     1      -4.619  -9.953  11.958  0.00  0.00    +0.006 A 
ATOM     26  C   UNL     1      -8.732  -9.882  14.101  0.00  0.00    +0.270 C 
ATOM     27  O   UNL     1      -9.406 -10.112  13.683  0.00  0.00    -0.271 OA
ENDROOT
BRANCH   9   6
ATOM      3  C   UNL     1      -1.755  -9.781  11.170  0.00  0.00    +0.139 A 
ATOM      4  C   UNL     1      -2.256  -9.278  10.748  0.00  0.00    +0.037 A 
ATOM      5  C   UNL     1      -3.073  -9.388  10.778  0.00  0.00    +0.003 A 
ATOM      6  C   UNL     1      -3.390 -10.002  11.231  0.00  0.00    +0.000 A 
ATOM      7  C   UNL     1      -2.889 -10.504  11.653  0.00  0.00    +0.003 A 
ATOM      8  C   UNL     1      -2.072 -10.393  11.622  0.00  0.00    +0.037 A 
BRANCH   3   2
ATOM      1  C   UNL     1      -0.626  -8.906  11.123  0.00  0.00    +0.252 C 
ATOM      2  O   UNL     1      -0.938  -9.670  11.139  0.00  0.00    -0.471 OA
ENDBRANCH   3   2
ENDBRANCH   9   6
BRANCH  26  28
ATOM     28  C   UNL     1      -8.798  -9.643  14.888  0.00  0.00    +0.290 C 
BRANCH  28  29
ATOM     29  O   UNL     1      -9.541  -9.511  15.219  0.00  0.00    -0.466 OA
BRANCH  29  30
ATOM     30  C   UNL     1      -9.605  -9.196  15.979  0.00  0.00    +0.139 A 
ATOM     31  C   UNL     1      -9.548  -9.691  16.637  0.00  0.00    +0.037 A 
ATOM     32  C   UNL     1      -9.612  -9.376  17.397  0.00  0.00    +0.003 A 
ATOM     33  C   UNL     1      -9.732  -8.566  17.499  0.00  0.00    +0.000 A 
ATOM     34  C   UNL     1      -9.789  -8.072  16.841  0.00  0.00    +0.003 A 
ATOM     35  C   UNL     1      -9.726  -8.387  16.081  0.00  0.00    +0.037 A 
ENDBRANCH  29  30
ENDBRANCH  28  29
ENDBRANCH  26  28
TORSDOF 5
ENDMDL
MODEL 4
REMARK VINA RESULT:      -7.0      2.185      3.327
REMARK  Name = 
REMARK  5 active torsions:
REMARK  status: ('A' for Active; 'I' for Inactive)
REMARK    1  A    between atoms: O_2  and  C_3
REMARK    2  A    between atoms: C_6  and  C_9
REMARK    3  A    between atoms: C_26  and  C_28
REMARK    4  A    between atoms: C_28  and  O_29
REMARK    5  A    between atoms: O_29  and  C_30
REMARK                            x       y       z     vdW  Elec       q    Type
REMARK                         _______ _______ _______ _____ _____    ______ ____
ROOT
ATOM      9  C   UNL     1      -2.414  -0.472  24.369  0.00  0.00    +0.000 A 
ATOM     10  C   UNL     1      -2.650   0.281  24.610  0.00  0.00    +0.001 A 
ATOM     11  C   UNL     1      -2.114   0.907  24.592  0.00  0.00    +0.017 A 
ATOM     12  C   UNL     1      -1.342   0.782  24.332  0.00  0.00    +0.078 A 
ATOM     13  N   UNL     1      -0.899   1.477  24.357  0.00  0.00    -0.178 NA
ATOM     14  C   UNL     1      -0.109   1.592  24.146  0.00  0.00    +0.265 C 
ATOM     15  O   UNL     1       0.177   2.361  24.235  0.00  0.00    -0.271 OA
ATOM     16  C   UNL     1       0.432   1.040  23.858  0.00  0.00    +0.174 C 
ATOM     17  C   UNL     1       1.168   1.384  23.716  0.00  0.00    +0.123 C 
ATOM     18  N   UNL     1       1.789   0.926  23.426  0.00  0.00    -0.273 N 
ATOM     19  C   UNL     1       1.674   0.123  23.278  0.00  0.00    +0.115 C 
ATOM     20  C   UNL     1       0.939  -0.222  23.420  0.00  0.00    +0.116 C 
ATOM     21  N   UNL     1       0.317   0.237  23.711  0.00  0.00    -0.266 N 
ATOM     22  C   UNL     1      -0.366  -0.213  23.814  0.00  0.00    +0.251 C 
ATOM     23  O   UNL     1      -0.304  -1.011  23.614  0.00  0.00    -0.270 OA
ATOM     24  C   UNL     1      -1.105   0.030  24.090  0.00  0.00    +0.069 A 
ATOM     25  C   UNL     1      -1.641  -0.597  24.109  0.00  0.00    +0.006 A 
ATOM     26  C   UNL     1       2.525   1.271  23.283  0.00  0.00    +0.270 C 
ATOM     27  O   UNL     1       2.640   2.075  23.431  0.00  0.00    -0.271 OA
ENDROOT
BRANCH   9   6
ATOM      3  C   UNL     1      -4.021  -2.353  24.424  0.00  0.00    +0.139 A 
ATOM      4  C   UNL     1      -3.393  -2.331  24.960  0.00  0.00    +0.037 A 
ATOM      5  C   UNL     1      -2.858  -1.703  24.941  0.00  0.00    +0.003 A 
ATOM      6  C   UNL     1      -2.949  -1.098  24.387  0.00  0.00    +0.000 A 
ATOM      7  C   UNL     1      -3.577  -1.122  23.852  0.00  0.00    +0.003 A 
ATOM      8  C   UNL     1      -4.113  -1.749  23.871  0.00  0.00    +0.037 A 
BRANCH   3   2
ATOM      1  C   UNL     1      -4.602  -3.502  23.806  0.00  0.00    +0.252 C 
ATOM      2  O   UNL     1      -4.556  -2.981  24.443  0.00  0.00    -0.471 OA
ENDBRANCH   3   2
ENDBRANCH   9   6
BRANCH  26  28
ATOM     28  C   UNL     1       3.146   0.812  22.993  0.00  0.00    +0.290 C 
BRANCH  28  29
ATOM     29  O   UNL     1       3.912   1.117  22.978  0.00  0.00    -0.466 OA
BRANCH  29  30
ATOM     30  C   UNL     1       4.554   0.632  23.159  0.00  0.00    +0.139 A 
ATOM     31  C   UNL     1       4.807   0.063  22.617  0.00  0.00    +0.037 A 
ATOM     32  C   UNL     1       5.449  -0.422  22.798  0.00  0.00    +0.003 A 
ATOM     33  C   UNL     1       5.838  -0.340  23.520  0.00  0.00    +0.000 A 
ATOM     34  C   UNL     1       5.584   0.229  24.062  0.00  0.00    +0.003 A 
ATOM     35  C   UNL     1       4.942   0.715  23.881  0.00  0.00    +0.037 A 
ENDBRANCH  29  30
ENDBRANCH  28  29
ENDBRANCH  26  28
TORSDOF 5
ENDMDL
MODEL 5
REMARK VINA RESULT:      -7.0     18.547     20.011
REMARK  Name = 
REMARK  5 active torsions:
REMARK  status: ('A' for Active; 'I' for Inactive)
REMARK    1  A    between atoms: O_2  and  C_3
REMARK    2  A    between atoms: C_6  and  C_9
REMARK    3  A    between atoms: C_26  and  C_28
REMARK    4  A    between atoms: C_28  and  O_29
REMARK    5  A    between atoms: O_29  and  C_30
REMARK                            x       y       z     vdW  Elec       q    Type
REMARK                         _______ _______ _______ _____ _____    ______ ____
ROOT
ATOM      9  C   UNL     1      17.031  -4.501  24.774  0.00  0.00    +0.000 A 
ATOM     10  C   UNL     1      17.347  -4.853  24.099  0.00  0.00    +0.001 A 
ATOM     11  C   UNL     1      17.404  -5.675  24.050  0.00  0.00    +0.017 A 
ATOM     12  C   UNL     1      17.145  -6.145  24.676  0.00  0.00    +0.078 A 
ATOM     13  N   UNL     1      17.251  -6.946  24.515  0.00  0.00    -0.178 NA
ATOM     14  C   UNL     1      17.066  -7.595  24.990  0.00  0.00    +0.265 C 
ATOM     15  O   UNL     1      17.241  -8.335  24.669  0.00  0.00    -0.271 OA
ATOM     16  C   UNL     1      16.730  -7.602  25.744  0.00  0.00    +0.174 C 
ATOM     17  C   UNL     1      16.637  -8.372  26.025  0.00  0.00    +0.123 C 
ATOM     18  N   UNL     1      16.310  -8.501  26.771  0.00  0.00    -0.273 N 
ATOM     19  C   UNL     1      16.075  -7.861  27.235  0.00  0.00    +0.115 C 
ATOM     20  C   UNL     1      16.168  -7.092  26.954  0.00  0.00    +0.116 C 
ATOM     21  N   UNL     1      16.496  -6.962  26.207  0.00  0.00    -0.266 N 
ATOM     22  C   UNL     1      16.539  -6.157  26.033  0.00  0.00    +0.251 C 
ATOM     23  O   UNL     1      16.257  -5.648  26.618  0.00  0.00    -0.270 OA
ATOM     24  C   UNL     1      16.828  -5.793  25.351  0.00  0.00    +0.069 A 
ATOM     25  C   UNL     1      16.771  -4.972  25.401  0.00  0.00    +0.006 A 
ATOM     26  C   UNL     1      16.217  -9.271  27.053  0.00  0.00    +0.270 C 
ATOM     27  O   UNL     1      16.451  -9.912  26.588  0.00  0.00    -0.271 OA
ENDROOT
BRANCH   9   6
ATOM      3  C   UNL     1      16.860  -2.037  24.924  0.00  0.00    +0.139 A 
ATOM      4  C   UNL     1      17.305  -2.454  25.480  0.00  0.00    +0.037 A 
ATOM      5  C   UNL     1      17.362  -3.276  25.430  0.00  0.00    +0.003 A 
ATOM      6  C   UNL     1      16.974  -3.680  24.824  0.00  0.00    +0.000 A 
ATOM      7  C   UNL     1      16.529  -3.262  24.268  0.00  0.00    +0.003 A 
ATOM      8  C   UNL     1      16.472  -2.441  24.319  0.00  0.00    +0.037 A 
BRANCH   3   2
ATOM      1  C   UNL     1      17.292  -0.739  24.511  0.00  0.00    +0.252 C 
ATOM      2  O   UNL     1      16.803  -1.215  24.974  0.00  0.00    -0.471 OA
ENDBRANCH   3   2
ENDBRANCH   9   6
BRANCH  26  28
ATOM     28  C   UNL     1      15.889  -9.401  27.799  0.00  0.00    +0.290 C 
BRANCH  28  29
ATOM     29  O   UNL     1      15.507 -10.113  27.964  0.00  0.00    -0.466 OA
BRANCH  29  30
ATOM     30  C   UNL     1      15.219 -10.260  28.723  0.00  0.00    +0.139 A 
ATOM     31  C   UNL     1      15.739 -10.298  29.362  0.00  0.00    +0.037 A 
ATOM     32  C   UNL     1      15.450 -10.446  30.120  0.00  0.00    +0.003 A 
ATOM     33  C   UNL     1      14.642 -10.556  30.240  0.00  0.00    +0.000 A 
ATOM     34  C   UNL     1      14.122 -10.518  29.600  0.00  0.00    +0.003 A 
ATOM     35  C   UNL     1      14.410 -10.371  28.841  0.00  0.00    +0.037 A 
ENDBRANCH  29  30
ENDBRANCH  28  29
ENDBRANCH  26  28
TORSDOF 5
ENDMDL
