MODEL 1
REMARK VINA RESULT:     -13.1      0.000      0.000
REMARK  Name = 
REMARK  4 active torsions:
REMARK  status: ('A' for Active; 'I' for Inactive)
REMARK    1  A    between atoms: C_1  and  N_2
REMARK    2  A    between atoms: C_1  and  C_22
REMARK    3  A    between atoms: C_7  and  C_8
REMARK    4  A    between atoms: C_10  and  C_13
REMARK                            x       y       z     vdW  Elec       q    Type
REMARK                         _______ _______ _______ _____ _____    ______ ____
ROOT
ATOM      2  N   UNL     1      -3.359   2.236  24.852  0.00  0.00    -0.257 NA
ATOM      3  C   UNL     1      -3.511   2.977  25.180  0.00  0.00    +0.121 C 
ATOM      4  C   UNL     1      -4.287   3.210  25.333  0.00  0.00    +0.090 A 
ATOM      5  C   UNL     1      -4.912   2.700  25.157  0.00  0.00    +0.077 A 
ATOM      6  C   UNL     1      -4.761   1.958  24.829  0.00  0.00    +0.073 C 
ATOM      7  C   UNL     1      -3.984   1.726  24.677  0.00  0.00    +0.144 C 
ATOM     19  N   UNL     1      -5.615   3.078  25.366  0.00  0.00    -0.227 NA
ATOM     20  C   UNL     1      -5.425   3.820  25.671  0.00  0.00    +0.198 A 
ATOM     21  N   UNL     1      -4.605   3.901  25.650  0.00  0.00    -0.226 NA
ENDROOT
BRANCH   7   8
ATOM      8  C   UNL     1      -3.833   0.985  24.349  0.00  0.00    +0.251 A 
ATOM      9  N   UNL     1      -3.889   0.260  24.739  0.00  0.00    -0.190 NA
ATOM     10  C   UNL     1      -3.690  -0.335  24.204  0.00  0.00    +0.203 A 
ATOM     11  N   UNL     1      -3.509   0.021  23.483  0.00  0.00    -0.056 NA
ATOM     12  O   UNL     1      -3.597   0.837  23.572  0.00  0.00    -0.336 OA
BRANCH  10  13
ATOM     13  C   UNL     1      -3.673  -1.145  24.363  0.00  0.00    +0.039 A 
ATOM     14  C   UNL     1      -3.258  -1.428  25.017  0.00  0.00    +0.003 A 
ATOM     15  C   UNL     1      -3.242  -2.238  25.175  0.00  0.00    +0.000 A 
ATOM     16  C   UNL     1      -3.642  -2.763  24.681  0.00  0.00    +0.000 A 
ATOM     17  C   UNL     1      -4.058  -2.479  24.027  0.00  0.00    +0.000 A 
ATOM     18  C   UNL     1      -4.074  -1.670  23.868  0.00  0.00    +0.003 A 
ENDBRANCH  10  13
ENDBRANCH   7   8
BRANCH   2   1
ATOM      1  C   UNL     1      -2.583   2.003  24.700  0.00  0.00    +0.100 C 
BRANCH   1  22
ATOM     22  C   UNL     1      -1.955   2.484  24.934  0.00  0.00    -0.006 A 
ATOM     23  C   UNL     1      -1.667   3.065  24.422  0.00  0.00    -0.003 A 
ATOM     24  C   UNL     1      -1.039   3.546  24.656  0.00  0.00    -0.000 A 
ATOM     25  C   UNL     1      -0.699   3.447  25.401  0.00  0.00    -0.000 A 
ATOM     26  C   UNL     1      -0.986   2.867  25.912  0.00  0.00    -0.000 A 
ATOM     27  C   UNL     1      -1.614   2.386  25.678  0.00  0.00    -0.003 A 
ENDBRANCH   1  22
ENDBRANCH   2   1
TORSDOF 4
ENDMDL
MODEL 2
REMARK VINA RESULT:     -12.7      1.554      4.702
REMARK  Name = 
REMARK  4 active torsions:
REMARK  status: ('A' for Active; 'I' for Inactive)
REMARK    1  A    between atoms: C_1  and  N_2
REMARK    2  A    between atoms: C_1  and  C_22
REMARK    3  A    between atoms: C_7  and  C_8
REMARK    4  A    between atoms: C_10  and  C_13
REMARK                            x       y       z     vdW  Elec       q    Type
REMARK                         _______ _______ _______ _____ _____    ______ ____
ROOT
ATOM      2  N   UNL     1      -2.447  -0.107  24.414  0.00  0.00    -0.257 NA
ATOM      3  C   UNL     1      -1.814  -0.631  24.476  0.00  0.00    +0.121 C 
ATOM      4  C   UNL     1      -1.046  -0.371  24.324  0.00  0.00    +0.090 A 
ATOM      5  C   UNL     1      -0.912   0.415  24.110  0.00  0.00    +0.077 A 
ATOM      6  C   UNL     1      -1.546   0.940  24.048  0.00  0.00    +0.073 C 
ATOM      7  C   UNL     1      -2.313   0.678  24.200  0.00  0.00    +0.144 C 
ATOM     19  N   UNL     1      -0.101   0.513  23.995  0.00  0.00    -0.227 NA
ATOM     20  C   UNL     1       0.266  -0.211  24.137  0.00  0.00    +0.198 A 
ATOM     21  N   UNL     1      -0.318  -0.757  24.340  0.00  0.00    -0.226 NA
ENDROOT
BRANCH   7   8
ATOM      8  C   UNL     1      -2.946   1.203  24.138  0.00  0.00    +0.251 A 
ATOM      9  N   UNL     1      -3.304   1.608  24.761  0.00  0.00    -0.190 NA
ATOM     10  C   UNL     1      -3.913   2.071  24.450  0.00  0.00    +0.203 A 
ATOM     11  N   UNL     1      -3.931   1.952  23.634  0.00  0.00    -0.056 NA
ATOM     12  O   UNL     1      -3.333   1.416  23.441  0.00  0.00    -0.336 OA
BRANCH  10  13
ATOM     13  C   UNL     1      -4.414   2.566  24.880  0.00  0.00    +0.039 A 
ATOM     14  C   UNL     1      -5.112   2.266  25.202  0.00  0.00    +0.003 A 
ATOM     15  C   UNL     1      -5.613   2.762  25.632  0.00  0.00    +0.000 A 
ATOM     16  C   UNL     1      -5.416   3.555  25.738  0.00  0.00    +0.000 A 
ATOM     17  C   UNL     1      -4.719   3.855  25.416  0.00  0.00    +0.000 A 
ATOM     18  C   UNL     1      -4.217   3.360  24.986  0.00  0.00    +0.003 A 
ENDBRANCH  10  13
ENDBRANCH   7   8
BRANCH   2   1
ATOM      1  C   UNL     1      -3.214  -0.368  24.566  0.00  0.00    +0.100 C 
BRANCH   1  22
ATOM     22  C   UNL     1      -3.368  -1.175  24.643  0.00  0.00    -0.006 A 
ATOM     23  C   UNL     1      -3.608  -1.614  23.986  0.00  0.00    -0.003 A 
ATOM     24  C   UNL     1      -3.762  -2.421  24.064  0.00  0.00    -0.000 A 
ATOM     25  C   UNL     1      -3.675  -2.788  24.798  0.00  0.00    -0.000 A 
ATOM     26  C   UNL     1      -3.436  -2.350  25.453  0.00  0.00    -0.000 A 
ATOM     27  C   UNL     1      -3.282  -1.543  25.376  0.00  0.00    -0.003 A 
ENDBRANCH   1  22
ENDBRANCH   2   1
TORSDOF 4
ENDMDL
MODEL 3
REMARK VINA RESULT:     -12.5      1.538      2.932
REMARK  Name = 
REMARK  4 active torsions:
REMARK  status: ('A' for Active; 'I' for Inactive)
REMARK    1  A    between atoms: C_1  and  N_2
REMARK    2  A    between atoms: C_1  and  C_22
REMARK    3  A    between atoms: C_7  and  C_8
REMARK    4  A    between atoms: C_10  and  C_13
REMARK                            x       y       z     vdW  Elec       q    Type
REMARK                         _______ _______ _______ _____ _____    ______ ____
ROOT
ATOM      2  N   UNL     1      -2.140   1.587  24.765  0.00  0.00    -0.257 NA
ATOM      3  C   UNL     1      -1.682   2.248  24.584  0.00  0.00    +0.121 C 
ATOM      4  C   UNL     1      -0.863   2.175  24.510  0.00  0.00    +0.090 A 
ATOM      5  C   UNL     1      -0.503   1.441  24.616  0.00  0.00    +0.077 A 
ATOM      6  C   UNL     1      -0.962   0.778  24.797  0.00  0.00    +0.073 C 
ATOM      7  C   UNL     1      -1.780   0.852  24.872  0.00  0.00    +0.144 C 
ATOM     19  N   UNL     1       0.308   1.537  24.509  0.00  0.00    -0.227 NA
ATOM     20  C   UNL     1       0.451   2.330  24.336  0.00  0.00    +0.198 A 
ATOM     21  N   UNL     1      -0.274   2.725  24.337  0.00  0.00    -0.226 NA
ENDROOT
BRANCH   7   8
ATOM      8  C   UNL     1      -2.238   0.190  25.053  0.00  0.00    +0.251 A 
ATOM      9  N   UNL     1      -2.535  -0.358  24.513  0.00  0.00    -0.190 NA
ATOM     10  C   UNL     1      -2.960  -0.927  24.932  0.00  0.00    +0.203 A 
ATOM     11  N   UNL     1      -2.925  -0.731  25.732  0.00  0.00    -0.056 NA
ATOM     12  O   UNL     1      -2.479  -0.040  25.808  0.00  0.00    -0.336 OA
BRANCH  10  13
ATOM     13  C   UNL     1      -3.350  -1.578  24.608  0.00  0.00    +0.039 A 
ATOM     14  C   UNL     1      -3.988  -1.464  24.098  0.00  0.00    +0.003 A 
ATOM     15  C   UNL     1      -4.378  -2.115  23.774  0.00  0.00    +0.000 A 
ATOM     16  C   UNL     1      -4.130  -2.879  23.960  0.00  0.00    +0.000 A 
ATOM     17  C   UNL     1      -3.492  -2.993  24.471  0.00  0.00    +0.000 A 
ATOM     18  C   UNL     1      -3.102  -2.342  24.795  0.00  0.00    +0.003 A 
ENDBRANCH  10  13
ENDBRANCH   7   8
BRANCH   2   1
ATOM      1  C   UNL     1      -2.958   1.659  24.840  0.00  0.00    +0.100 C 
BRANCH   1  22
ATOM     22  C   UNL     1      -3.327   2.373  24.653  0.00  0.00    -0.006 A 
ATOM     23  C   UNL     1      -3.574   2.519  23.878  0.00  0.00    -0.003 A 
ATOM     24  C   UNL     1      -3.944   3.233  23.691  0.00  0.00    -0.000 A 
ATOM     25  C   UNL     1      -4.066   3.800  24.278  0.00  0.00    -0.000 A 
ATOM     26  C   UNL     1      -3.819   3.654  25.051  0.00  0.00    -0.000 A 
ATOM     27  C   UNL     1      -3.450   2.941  25.238  0.00  0.00    -0.003 A 
ENDBRANCH   1  22
ENDBRANCH   2   1
TORSDOF 4
ENDMDL
MODEL 4
REMARK VINA RESULT:     -11.8      0.948      4.013
REMARK  Name = 
REMARK  4 active torsions:
REMARK  status: ('A' for Active; 'I' for Inactive)
REMARK    1  A    between atoms: C_1  and  N_2
REMARK    2  A    between atoms: C_1  and  C_22
REMARK    3  A    between atoms: C_7  and  C_8
REMARK    4  A    between atoms: C_10  and  C_13
REMARK                            x       y       z     vdW  Elec       q    Type
REMARK                         _______ _______ _______ _____ _____    ______ ____
ROOT
ATOM      2  N   UNL     1      -4.025   0.990  24.624  0.00  0.00    -0.257 NA
ATOM      3  C   UNL     1      -4.807   0.759  24.747  0.00  0.00    +0.121 C 
ATOM      4  C   UNL     1      -5.379   1.321  24.937  0.00  0.00    +0.090 A 
ATOM      5  C   UNL     1      -5.169   2.117  25.004  0.00  0.00    +0.077 A 
ATOM      6  C   UNL     1      -4.386   2.349  24.881  0.00  0.00    +0.073 C 
ATOM      7  C   UNL     1      -3.815   1.785  24.691  0.00  0.00    +0.144 C 
ATOM     19  N   UNL     1      -5.847   2.544  25.196  0.00  0.00    -0.227 NA
ATOM     20  C   UNL     1      -6.477   2.014  25.248  0.00  0.00    +0.198 A 
ATOM     21  N   UNL     1      -6.187   1.259  25.088  0.00  0.00    -0.226 NA
ENDROOT
BRANCH   7   8
ATOM      8  C   UNL     1      -3.033   2.017  24.568  0.00  0.00    +0.251 A 
ATOM      9  N   UNL     1      -2.478   2.183  25.154  0.00  0.00    -0.190 NA
ATOM     10  C   UNL     1      -1.770   2.393  24.785  0.00  0.00    +0.203 A 
ATOM     11  N   UNL     1      -1.888   2.357  23.970  0.00  0.00    -0.056 NA
ATOM     12  O   UNL     1      -2.669   2.124  23.835  0.00  0.00    -0.336 OA
BRANCH  10  13
ATOM     13  C   UNL     1      -1.068   2.602  25.165  0.00  0.00    +0.039 A 
ATOM     14  C   UNL     1      -0.610   2.024  25.532  0.00  0.00    +0.003 A 
ATOM     15  C   UNL     1       0.092   2.234  25.912  0.00  0.00    +0.000 A 
ATOM     16  C   UNL     1       0.335   3.022  25.924  0.00  0.00    +0.000 A 
ATOM     17  C   UNL     1      -0.124   3.601  25.557  0.00  0.00    +0.000 A 
ATOM     18  C   UNL     1      -0.826   3.391  25.177  0.00  0.00    +0.003 A 
ENDBRANCH  10  13
ENDBRANCH   7   8
BRANCH   2   1
ATOM      1  C   UNL     1      -3.453   0.427  24.435  0.00  0.00    +0.100 C 
BRANCH   1  22
ATOM     22  C   UNL     1      -3.628  -0.376  24.502  0.00  0.00    -0.006 A 
ATOM     23  C   UNL     1      -3.483  -0.773  25.211  0.00  0.00    -0.003 A 
ATOM     24  C   UNL     1      -3.657  -1.577  25.278  0.00  0.00    -0.000 A 
ATOM     25  C   UNL     1      -3.976  -1.984  24.635  0.00  0.00    -0.000 A 
ATOM     26  C   UNL     1      -4.121  -1.588  23.926  0.00  0.00    -0.000 A 
ATOM     27  C   UNL     1      -3.947  -0.785  23.860  0.00  0.00    -0.003 A 
ENDBRANCH   1  22
ENDBRANCH   2   1
TORSDOF 4
ENDMDL
MODEL 5
REMARK VINA RESULT:     -11.7      2.386      5.355
REMARK  Name = 
REMARK  4 active torsions:
REMARK  status: ('A' for Active; 'I' for Inactive)
REMARK    1  A    between atoms: C_1  and  N_2
REMARK    2  A    between atoms: C_1  and  C_22
REMARK    3  A    between atoms: C_7  and  C_8
REMARK    4  A    between atoms: C_10  and  C_13
REMARK                            x       y       z     vdW  Elec       q    Type
REMARK                         _______ _______ _______ _____ _____    ______ ____
ROOT
ATOM      2  N   UNL     1      -1.143   0.509  24.796  0.00  0.00    -0.257 NA
ATOM      3  C   UNL     1      -0.997  -0.188  24.380  0.00  0.00    +0.121 C 
ATOM      4  C   UNL     1      -0.318  -0.259  23.916  0.00  0.00    +0.090 A 
ATOM      5  C   UNL     1       0.215   0.369  23.869  0.00  0.00    +0.077 A 
ATOM      6  C   UNL     1       0.070   1.067  24.286  0.00  0.00    +0.073 C 
ATOM      7  C   UNL     1      -0.609   1.136  24.749  0.00  0.00    +0.144 C 
ATOM     19  N   UNL     1       0.833   0.142  23.372  0.00  0.00    -0.227 NA
ATOM     20  C   UNL     1       0.681  -0.626  23.112  0.00  0.00    +0.198 A 
ATOM     21  N   UNL     1      -0.031  -0.873  23.448  0.00  0.00    -0.226 NA
ENDROOT
BRANCH   7   8
ATOM      8  C   UNL     1      -0.753   1.833  25.165  0.00  0.00    +0.251 A 
ATOM      9  N   UNL     1      -1.056   2.533  24.851  0.00  0.00    -0.190 NA
ATOM     10  C   UNL     1      -1.110   3.086  25.461  0.00  0.00    +0.203 A 
ATOM     11  N   UNL     1      -0.842   2.728  26.153  0.00  0.00    -0.056 NA
ATOM     12  O   UNL     1      -0.621   1.953  25.971  0.00  0.00    -0.336 OA
BRANCH  10  13
ATOM     13  C   UNL     1      -1.385   3.861  25.390  0.00  0.00    +0.039 A 
ATOM     14  C   UNL     1      -0.898   4.443  25.068  0.00  0.00    +0.003 A 
ATOM     15  C   UNL     1      -1.174   5.218  24.998  0.00  0.00    +0.000 A 
ATOM     16  C   UNL     1      -1.936   5.409  25.249  0.00  0.00    +0.000 A 
ATOM     17  C   UNL     1      -2.422   4.827  25.571  0.00  0.00    +0.000 A 
ATOM     18  C   UNL     1      -2.147   4.052  25.642  0.00  0.00    +0.003 A 
ENDBRANCH  10  13
ENDBRANCH   7   8
BRANCH   2   1
ATOM      1  C   UNL     1      -1.821   0.579  25.259  0.00  0.00    +0.100 C 
BRANCH   1  22
ATOM     22  C   UNL     1      -2.418   0.012  25.205  0.00  0.00    -0.006 A 
ATOM     23  C   UNL     1      -3.018   0.096  24.645  0.00  0.00    -0.003 A 
ATOM     24  C   UNL     1      -3.615  -0.471  24.591  0.00  0.00    -0.000 A 
ATOM     25  C   UNL     1      -3.611  -1.123  25.097  0.00  0.00    -0.000 A 
ATOM     26  C   UNL     1      -3.011  -1.208  25.657  0.00  0.00    -0.000 A 
ATOM     27  C   UNL     1      -2.415  -0.640  25.711  0.00  0.00    -0.003 A 
ENDBRANCH   1  22
ENDBRANCH   2   1
TORSDOF 4
ENDMDL
