MODEL 1
REMARK VINA RESULT:     -13.0      0.000      0.000
REMARK  Name = 
REMARK  8 active torsions:
REMARK  status: ('A' for Active; 'I' for Inactive)
REMARK    1  A    between atoms: C_2  and  C_3
REMARK    2  A    between atoms: C_3  and  C_4
REMARK    3  A    between atoms: C_9  and  C_10
REMARK    4  A    between atoms: C_10  and  C_11
REMARK    5  A    between atoms: C_14  and  C_15
REMARK    6  A    between atoms: C_15  and  C_16
REMARK    7  A    between atoms: N_23  and  C_24
REMARK    8  A    between atoms: C_24  and  C_25
REMARK                            x       y       z     vdW  Elec       q    Type
REMARK                         _______ _______ _______ _____ _____    ______ ____
ROOT
ATOM      4  C   UNL     1      -1.259   2.510  24.994  0.00  0.00    +0.012 C 
ATOM      5  C   UNL     1      -1.030   3.088  25.537  0.00  0.00    +0.019 C 
ATOM      6  C   UNL     1      -0.485   2.904  26.129  0.00  0.00    +0.089 C 
ATOM      7  N   UNL     1      -0.169   2.144  26.177  0.00  0.00    -0.218 NA
ATOM      8  C   UNL     1      -0.398   1.567  25.635  0.00  0.00    +0.089 C 
ATOM      9  C   UNL     1      -0.943   1.749  25.043  0.00  0.00    +0.024 C 
ENDROOT
BRANCH   4   3
ATOM      3  C   UNL     1      -1.804   2.693  24.403  0.00  0.00    +0.087 C 
BRANCH   3   2
ATOM      1  O   UNL     1      -2.378   3.967  24.702  0.00  0.00    -0.273 OA
ATOM      2  C   UNL     1      -2.464   3.156  24.579  0.00  0.00    +0.242 C 
ATOM     23  N   UNL     1      -3.209   2.807  24.631  0.00  0.00    -0.201 NA
BRANCH  23  24
ATOM     24  C   UNL     1      -3.869   3.269  24.807  0.00  0.00    +0.141 C 
BRANCH  24  25
ATOM     25  C   UNL     1      -4.580   2.909  25.022  0.00  0.00    -0.001 A 
ATOM     26  C   UNL     1      -4.922   2.342  24.529  0.00  0.00    -0.003 A 
ATOM     27  C   UNL     1      -5.631   1.982  24.744  0.00  0.00    -0.000 A 
ATOM     28  C   UNL     1      -6.001   2.189  25.453  0.00  0.00    -0.000 A 
ATOM     29  C   UNL     1      -5.660   2.755  25.945  0.00  0.00    -0.000 A 
ATOM     30  C   UNL     1      -4.949   3.116  25.730  0.00  0.00    -0.003 A 
ENDBRANCH  24  25
ENDBRANCH  23  24
ENDBRANCH   3   2
ENDBRANCH   4   3
BRANCH   9  10
ATOM     10  C   UNL     1      -1.172   1.172  24.500  0.00  0.00    +0.051 C 
BRANCH  10  11
ATOM     11  C   UNL     1      -1.346   0.409  24.759  0.00  0.00    +0.100 A 
ATOM     12  N   UNL     1      -0.819  -0.226  24.788  0.00  0.00    -0.082 NA
ATOM     13  O   UNL     1      -1.225  -0.882  25.082  0.00  0.00    -0.358 OA
ATOM     14  C   UNL     1      -2.003  -0.652  25.235  0.00  0.00    +0.154 A 
ATOM     22  C   UNL     1      -2.078   0.145  25.035  0.00  0.00    +0.054 A 
BRANCH  14  15
ATOM     15  C   UNL     1      -2.601  -1.135  25.534  0.00  0.00    +0.067 C 
BRANCH  15  16
ATOM     16  C   UNL     1      -3.109  -1.530  25.017  0.00  0.00    +0.008 C 
ATOM     17  C   UNL     1      -3.746  -1.130  24.680  0.00  0.00    +0.000 C 
ATOM     18  C   UNL     1      -4.255  -1.524  24.163  0.00  0.00    +0.000 C 
ATOM     19  C   UNL     1      -4.126  -2.319  23.985  0.00  0.00    +0.000 C 
ATOM     20  C   UNL     1      -3.488  -2.720  24.323  0.00  0.00    +0.000 C 
ATOM     21  C   UNL     1      -2.980  -2.325  24.839  0.00  0.00    +0.000 C 
ENDBRANCH  15  16
ENDBRANCH  14  15
ENDBRANCH  10  11
ENDBRANCH   9  10
TORSDOF 8
ENDMDL
MODEL 2
REMARK VINA RESULT:     -12.9      0.716      3.972
REMARK  Name = 
REMARK  8 active torsions:
REMARK  status: ('A' for Active; 'I' for Inactive)
REMARK    1  A    between atoms: C_2  and  C_3
REMARK    2  A    between atoms: C_3  and  C_4
REMARK    3  A    between atoms: C_9  and  C_10
REMARK    4  A    between atoms: C_10  and  C_11
REMARK    5  A    between atoms: C_14  and  C_15
REMARK    6  A    between atoms: C_15  and  C_16
REMARK    7  A    between atoms: N_23  and  C_24
REMARK    8  A    between atoms: C_24  and  C_25
REMARK                            x       y       z     vdW  Elec       q    Type
REMARK                         _______ _______ _______ _____ _____    ______ ____
ROOT
ATOM      4  C   UNL     1      -0.796   1.766  24.963  0.00  0.00    +0.012 C 
ATOM      5  C   UNL     1      -0.329   1.593  25.622  0.00  0.00    +0.019 C 
ATOM      6  C   UNL     1      -0.160   2.183  26.173  0.00  0.00    +0.089 C 
ATOM      7  N   UNL     1      -0.456   2.945  26.066  0.00  0.00    -0.218 NA
ATOM      8  C   UNL     1      -0.922   3.118  25.408  0.00  0.00    +0.089 C 
ATOM      9  C   UNL     1      -1.092   2.529  24.856  0.00  0.00    +0.024 C 
ENDROOT
BRANCH   4   3
ATOM      3  C   UNL     1      -0.966   1.177  24.412  0.00  0.00    +0.087 C 
BRANCH   3   2
ATOM      1  O   UNL     1      -0.171   0.039  24.753  0.00  0.00    -0.273 OA
ATOM      2  C   UNL     1      -0.911   0.382  24.627  0.00  0.00    +0.242 C 
ATOM     23  N   UNL     1      -1.596  -0.069  24.717  0.00  0.00    -0.201 NA
BRANCH  23  24
ATOM     24  C   UNL     1      -1.541  -0.863  24.932  0.00  0.00    +0.141 C 
BRANCH  24  25
ATOM     25  C   UNL     1      -2.223  -1.326  24.977  0.00  0.00    -0.001 A 
ATOM     26  C   UNL     1      -2.843  -1.102  25.474  0.00  0.00    -0.003 A 
ATOM     27  C   UNL     1      -3.523  -1.565  25.518  0.00  0.00    -0.000 A 
ATOM     28  C   UNL     1      -3.586  -2.253  25.066  0.00  0.00    -0.000 A 
ATOM     29  C   UNL     1      -2.967  -2.477  24.570  0.00  0.00    -0.000 A 
ATOM     30  C   UNL     1      -2.285  -2.014  24.525  0.00  0.00    -0.003 A 
ENDBRANCH  24  25
ENDBRANCH  23  24
ENDBRANCH   3   2
ENDBRANCH   4   3
BRANCH   9  10
ATOM     10  C   UNL     1      -1.558   2.702  24.199  0.00  0.00    +0.051 C 
BRANCH  10  11
ATOM     11  C   UNL     1      -2.295   3.059  24.298  0.00  0.00    +0.100 A 
ATOM     12  N   UNL     1      -2.433   3.802  24.628  0.00  0.00    -0.082 NA
ATOM     13  O   UNL     1      -3.247   3.938  24.619  0.00  0.00    -0.358 OA
ATOM     14  C   UNL     1      -3.612   3.279  24.282  0.00  0.00    +0.154 A 
ATOM     22  C   UNL     1      -3.024   2.735  24.084  0.00  0.00    +0.054 A 
BRANCH  14  15
ATOM     15  C   UNL     1      -4.423   3.181  24.165  0.00  0.00    +0.067 C 
BRANCH  15  16
ATOM     16  C   UNL     1      -4.871   2.759  24.715  0.00  0.00    +0.008 C 
ATOM     17  C   UNL     1      -5.172   3.141  25.381  0.00  0.00    +0.000 C 
ATOM     18  C   UNL     1      -5.620   2.720  25.931  0.00  0.00    +0.000 C 
ATOM     19  C   UNL     1      -5.766   1.916  25.815  0.00  0.00    +0.000 C 
ATOM     20  C   UNL     1      -5.464   1.534  25.149  0.00  0.00    +0.000 C 
ATOM     21  C   UNL     1      -5.017   1.956  24.599  0.00  0.00    +0.000 C 
ENDBRANCH  15  16
ENDBRANCH  14  15
ENDBRANCH  10  11
ENDBRANCH   9  10
TORSDOF 8
ENDMDL
MODEL 3
REMARK VINA RESULT:     -12.7      1.382      3.500
REMARK  Name = 
REMARK  8 active torsions:
REMARK  status: ('A' for Active; 'I' for Inactive)
REMARK    1  A    between atoms: C_2  and  C_3
REMARK    2  A    between atoms: C_3  and  C_4
REMARK    3  A    between atoms: C_9  and  C_10
REMARK    4  A    between atoms: C_10  and  C_11
REMARK    5  A    between atoms: C_14  and  C_15
REMARK    6  A    between atoms: C_15  and  C_16
REMARK    7  A    between atoms: N_23  and  C_24
REMARK    8  A    between atoms: C_24  and  C_25
REMARK                            x       y       z     vdW  Elec       q    Type
REMARK                         _______ _______ _______ _____ _____    ______ ____
ROOT
ATOM      4  C   UNL     1      -4.516   2.586  24.770  0.00  0.00    +0.012 C 
ATOM      5  C   UNL     1      -4.874   3.138  25.269  0.00  0.00    +0.019 C 
ATOM      6  C   UNL     1      -5.489   2.905  25.767  0.00  0.00    +0.089 C 
ATOM      7  N   UNL     1      -5.746   2.121  25.767  0.00  0.00    -0.218 NA
ATOM      8  C   UNL     1      -5.388   1.570  25.269  0.00  0.00    +0.089 C 
ATOM      9  C   UNL     1      -4.773   1.802  24.770  0.00  0.00    +0.024 C 
ENDROOT
BRANCH   4   3
ATOM      3  C   UNL     1      -3.901   2.819  24.273  0.00  0.00    +0.087 C 
BRANCH   3   2
ATOM      1  O   UNL     1      -3.415   4.085  24.722  0.00  0.00    -0.273 OA
ATOM      2  C   UNL     1      -3.286   3.285  24.565  0.00  0.00    +0.242 C 
ATOM     23  N   UNL     1      -2.545   2.952  24.701  0.00  0.00    -0.201 NA
BRANCH  23  24
ATOM     24  C   UNL     1      -1.930   3.418  24.994  0.00  0.00    +0.141 C 
BRANCH  24  25
ATOM     25  C   UNL     1      -1.220   3.067  25.225  0.00  0.00    -0.001 A 
ATOM     26  C   UNL     1      -1.054   2.960  26.026  0.00  0.00    -0.003 A 
ATOM     27  C   UNL     1      -0.345   2.610  26.257  0.00  0.00    -0.000 A 
ATOM     28  C   UNL     1       0.200   2.365  25.688  0.00  0.00    -0.000 A 
ATOM     29  C   UNL     1       0.034   2.471  24.887  0.00  0.00    -0.000 A 
ATOM     30  C   UNL     1      -0.676   2.822  24.655  0.00  0.00    -0.003 A 
ENDBRANCH  24  25
ENDBRANCH  23  24
ENDBRANCH   3   2
ENDBRANCH   4   3
BRANCH   9  10
ATOM     10  C   UNL     1      -4.415   1.251  24.272  0.00  0.00    +0.051 C 
BRANCH  10  11
ATOM     11  C   UNL     1      -4.298   0.477  24.531  0.00  0.00    +0.100 A 
ATOM     12  N   UNL     1      -4.746  -0.180  24.311  0.00  0.00    -0.082 NA
ATOM     13  O   UNL     1      -4.437  -0.840  24.699  0.00  0.00    -0.358 OA
ATOM     14  C   UNL     1      -3.799  -0.591  25.158  0.00  0.00    +0.154 A 
ATOM     22  C   UNL     1      -3.713   0.223  25.055  0.00  0.00    +0.054 A 
BRANCH  14  15
ATOM     15  C   UNL     1      -3.329  -1.071  25.637  0.00  0.00    +0.067 C 
BRANCH  15  16
ATOM     16  C   UNL     1      -2.558  -1.254  25.407  0.00  0.00    +0.008 C 
ATOM     17  C   UNL     1      -1.925  -0.815  25.701  0.00  0.00    +0.000 C 
ATOM     18  C   UNL     1      -1.153  -0.998  25.471  0.00  0.00    +0.000 C 
ATOM     19  C   UNL     1      -1.017  -1.621  24.947  0.00  0.00    +0.000 C 
ATOM     20  C   UNL     1      -1.651  -2.060  24.653  0.00  0.00    +0.000 C 
ATOM     21  C   UNL     1      -2.421  -1.876  24.884  0.00  0.00    +0.000 C 
ENDBRANCH  15  16
ENDBRANCH  14  15
ENDBRANCH  10  11
ENDBRANCH   9  10
TORSDOF 8
ENDMDL
MODEL 4
REMARK VINA RESULT:     -12.5      1.546      4.851
REMARK  Name = 
REMARK  8 active torsions:
REMARK  status: ('A' for Active; 'I' for Inactive)
REMARK    1  A    between atoms: C_2  and  C_3
REMARK    2  A    between atoms: C_3  and  C_4
REMARK    3  A    between atoms: C_9  and  C_10
REMARK    4  A    between atoms: C_10  and  C_11
REMARK    5  A    between atoms: C_14  and  C_15
REMARK    6  A    between atoms: C_15  and  C_16
REMARK    7  A    between atoms: N_23  and  C_24
REMARK    8  A    between atoms: C_24  and  C_25
REMARK                            x       y       z     vdW  Elec       q    Type
REMARK                         _______ _______ _______ _____ _____    ______ ____
ROOT
ATOM      4  C   UNL     1      -4.750   1.887  24.878  0.00  0.00    +0.012 C 
ATOM      5  C   UNL     1      -5.327   1.499  25.323  0.00  0.00    +0.019 C 
ATOM      6  C   UNL     1      -5.803   1.928  25.844  0.00  0.00    +0.089 C 
ATOM      7  N   UNL     1      -5.702   2.743  25.919  0.00  0.00    -0.218 NA
ATOM      8  C   UNL     1      -5.126   3.130  25.474  0.00  0.00    +0.089 C 
ATOM      9  C   UNL     1      -4.650   2.703  24.953  0.00  0.00    +0.024 C 
ENDROOT
BRANCH   4   3
ATOM      3  C   UNL     1      -4.275   1.459  24.358  0.00  0.00    +0.087 C 
BRANCH   3   2
ATOM      1  O   UNL     1      -4.751   0.114  24.432  0.00  0.00    -0.273 OA
ATOM      2  C   UNL     1      -4.133   0.657  24.492  0.00  0.00    +0.242 C 
ATOM     23  N   UNL     1      -3.374   0.400  24.687  0.00  0.00    -0.201 NA
BRANCH  23  24
ATOM     24  C   UNL     1      -3.232  -0.401  24.822  0.00  0.00    +0.141 C 
BRANCH  24  25
ATOM     25  C   UNL     1      -2.473  -0.659  25.018  0.00  0.00    -0.001 A 
ATOM     26  C   UNL     1      -2.238  -0.689  25.809  0.00  0.00    -0.003 A 
ATOM     27  C   UNL     1      -1.480  -0.946  26.004  0.00  0.00    -0.000 A 
ATOM     28  C   UNL     1      -0.955  -1.174  25.409  0.00  0.00    -0.000 A 
ATOM     29  C   UNL     1      -1.189  -1.144  24.619  0.00  0.00    -0.000 A 
ATOM     30  C   UNL     1      -1.949  -0.886  24.423  0.00  0.00    -0.003 A 
ENDBRANCH  24  25
ENDBRANCH  23  24
ENDBRANCH   3   2
ENDBRANCH   4   3
BRANCH   9  10
ATOM     10  C   UNL     1      -4.074   3.090  24.508  0.00  0.00    +0.051 C 
BRANCH  10  11
ATOM     11  C   UNL     1      -3.454   3.481  24.886  0.00  0.00    +0.100 A 
ATOM     12  N   UNL     1      -3.520   3.965  25.550  0.00  0.00    -0.082 NA
ATOM     13  O   UNL     1      -2.765   4.240  25.742  0.00  0.00    -0.358 OA
ATOM     14  C   UNL     1      -2.233   3.925  25.196  0.00  0.00    +0.154 A 
ATOM     22  C   UNL     1      -2.659   3.455  24.667  0.00  0.00    +0.054 A 
BRANCH  14  15
ATOM     15  C   UNL     1      -1.419   4.056  25.181  0.00  0.00    +0.067 C 
BRANCH  15  16
ATOM     16  C   UNL     1      -0.898   3.430  25.319  0.00  0.00    +0.008 C 
ATOM     17  C   UNL     1      -0.753   3.177  26.090  0.00  0.00    +0.000 C 
ATOM     18  C   UNL     1      -0.232   2.552  26.228  0.00  0.00    +0.000 C 
ATOM     19  C   UNL     1       0.142   2.180  25.594  0.00  0.00    +0.000 C 
ATOM     20  C   UNL     1      -0.004   2.433  24.822  0.00  0.00    +0.000 C 
ATOM     21  C   UNL     1      -0.524   3.058  24.685  0.00  0.00    +0.000 C 
ENDBRANCH  15  16
ENDBRANCH  14  15
ENDBRANCH  10  11
ENDBRANCH   9  10
TORSDOF 8
ENDMDL
MODEL 5
REMARK VINA RESULT:     -12.4      1.385      3.897
REMARK  Name = 
REMARK  8 active torsions:
REMARK  status: ('A' for Active; 'I' for Inactive)
REMARK    1  A    between atoms: C_2  and  C_3
REMARK    2  A    between atoms: C_3  and  C_4
REMARK    3  A    between atoms: C_9  and  C_10
REMARK    4  A    between atoms: C_10  and  C_11
REMARK    5  A    between atoms: C_14  and  C_15
REMARK    6  A    between atoms: C_15  and  C_16
REMARK    7  A    between atoms: N_23  and  C_24
REMARK    8  A    between atoms: C_24  and  C_25
REMARK                            x       y       z     vdW  Elec       q    Type
REMARK                         _______ _______ _______ _____ _____    ______ ____
ROOT
ATOM      4  C   UNL     1      -2.460  -0.337  24.633  0.00  0.00    +0.012 C 
ATOM      5  C   UNL     1      -2.713  -0.968  25.102  0.00  0.00    +0.019 C 
ATOM      6  C   UNL     1      -2.191  -1.318  25.636  0.00  0.00    +0.089 C 
ATOM      7  N   UNL     1      -1.417  -1.039  25.701  0.00  0.00    -0.218 NA
ATOM      8  C   UNL     1      -1.165  -0.410  25.232  0.00  0.00    +0.089 C 
ATOM      9  C   UNL     1      -1.687  -0.058  24.698  0.00  0.00    +0.024 C 
ENDROOT
BRANCH   4   3
ATOM      3  C   UNL     1      -2.982   0.013  24.099  0.00  0.00    +0.087 C 
BRANCH   3   2
ATOM      1  O   UNL     1      -4.290  -0.515  24.328  0.00  0.00    -0.273 OA
ATOM      2  C   UNL     1      -3.772   0.127  24.308  0.00  0.00    +0.242 C 
ATOM     23  N   UNL     1      -4.043   0.883  24.496  0.00  0.00    -0.201 NA
BRANCH  23  24
ATOM     24  C   UNL     1      -4.833   0.997  24.705  0.00  0.00    +0.141 C 
BRANCH  24  25
ATOM     25  C   UNL     1      -5.082   1.729  24.995  0.00  0.00    -0.001 A 
ATOM     26  C   UNL     1      -5.508   1.771  25.700  0.00  0.00    -0.003 A 
ATOM     27  C   UNL     1      -5.756   2.502  25.989  0.00  0.00    -0.000 A 
ATOM     28  C   UNL     1      -5.578   3.192  25.574  0.00  0.00    -0.000 A 
ATOM     29  C   UNL     1      -5.152   3.151  24.869  0.00  0.00    -0.000 A 
ATOM     30  C   UNL     1      -4.903   2.419  24.579  0.00  0.00    -0.003 A 
ENDBRANCH  24  25
ENDBRANCH  23  24
ENDBRANCH   3   2
ENDBRANCH   4   3
BRANCH   9  10
ATOM     10  C   UNL     1      -1.435   0.571  24.229  0.00  0.00    +0.051 C 
BRANCH  10  11
ATOM     11  C   UNL     1      -0.941   1.151  24.546  0.00  0.00    +0.100 A 
ATOM     12  N   UNL     1      -0.136   1.241  24.391  0.00  0.00    -0.082 NA
ATOM     13  O   UNL     1       0.136   1.888  24.824  0.00  0.00    -0.358 OA
ATOM     14  C   UNL     1      -0.500   2.198  25.248  0.00  0.00    +0.154 A 
ATOM     22  C   UNL     1      -1.167   1.742  25.076  0.00  0.00    +0.054 A 
BRANCH  14  15
ATOM     15  C   UNL     1      -0.476   2.849  25.754  0.00  0.00    +0.067 C 
BRANCH  15  16
ATOM     16  C   UNL     1      -0.871   3.544  25.550  0.00  0.00    +0.008 C 
ATOM     17  C   UNL     1      -1.626   3.691  25.845  0.00  0.00    +0.000 C 
ATOM     18  C   UNL     1      -2.021   4.387  25.642  0.00  0.00    +0.000 C 
ATOM     19  C   UNL     1      -1.660   4.935  25.143  0.00  0.00    +0.000 C 
ATOM     20  C   UNL     1      -0.903   4.788  24.847  0.00  0.00    +0.000 C 
ATOM     21  C   UNL     1      -0.509   4.093  25.051  0.00  0.00    +0.000 C 
ENDBRANCH  15  16
ENDBRANCH  14  15
ENDBRANCH  10  11
ENDBRANCH   9  10
TORSDOF 8
ENDMDL
