MODEL 1
REMARK VINA RESULT:     -12.2      0.000      0.000
REMARK  Name = 
REMARK  7 active torsions:
REMARK  status: ('A' for Active; 'I' for Inactive)
REMARK    1  A    between atoms: C_2  and  C_5
REMARK    2  A    between atoms: C_9  and  N_10
REMARK    3  A    between atoms: N_13  and  C_14
REMARK    4  A    between atoms: C_18  and  O_22
REMARK    5  A    between atoms: O_22  and  C_23
REMARK    6  A    between atoms: N_25  and  C_26
REMARK    7  A    between atoms: C_28  and  C_32
REMARK                            x       y       z     vdW  Elec       q    Type
REMARK                         _______ _______ _______ _____ _____    ______ ____
ROOT
ATOM     14  C   UNL     1      -0.556  -0.204  24.765  0.00  0.00    +0.156 C 
ATOM     15  C   UNL     1      -0.616   0.027  25.554  0.00  0.00    +0.166 C 
ATOM     16  O   UNL     1      -0.378   0.815  25.607  0.00  0.00    -0.348 OA
ATOM     17  C   UNL     1      -0.171   1.071  24.851  0.00  0.00    +0.186 C 
ATOM     18  C   UNL     1       0.104   1.715  24.415  0.00  0.00    +0.229 C 
ATOM     19  C   UNL     1       0.164   1.484  23.626  0.00  0.00    +0.188 C 
ATOM     20  O   UNL     1      -0.074   0.696  23.574  0.00  0.00    -0.348 OA
ATOM     21  C   UNL     1      -0.281   0.441  24.331  0.00  0.00    +0.168 C 
ENDROOT
BRANCH  14  13
ATOM     10  N   UNL     1      -1.658  -2.033  24.315  0.00  0.00    -0.161 NA
ATOM     11  C   UNL     1      -1.476  -1.288  24.616  0.00  0.00    +0.344 C 
ATOM     12  O   UNL     1      -2.030  -0.879  25.071  0.00  0.00    -0.249 OA
ATOM     13  N   UNL     1      -0.739  -0.950  24.463  0.00  0.00    -0.184 NA
BRANCH  10   9
ATOM      5  C   UNL     1      -3.801  -2.439  24.222  0.00  0.00    +0.073 A 
ATOM      6  C   UNL     1      -3.869  -3.048  24.774  0.00  0.00    +0.004 A 
ATOM      7  C   UNL     1      -3.199  -3.319  25.173  0.00  0.00    +0.001 A 
ATOM      8  C   UNL     1      -2.463  -2.981  25.020  0.00  0.00    +0.017 A 
ATOM      9  C   UNL     1      -2.395  -2.372  24.468  0.00  0.00    +0.075 A 
ATOM     36  C   UNL     1      -3.064  -2.101  24.069  0.00  0.00    +0.021 A 
BRANCH   5   2
ATOM      1  F   UNL     1      -5.140  -1.898  23.425  0.00  0.00    -0.166 F 
ATOM      2  C   UNL     1      -4.470  -2.168  23.824  0.00  0.00    +0.419 C 
ATOM      3  F   UNL     1      -4.336  -2.718  23.224  0.00  0.00    -0.166 F 
ATOM      4  F   UNL     1      -4.606  -1.618  24.423  0.00  0.00    -0.166 F 
ENDBRANCH   5   2
ENDBRANCH  10   9
ENDBRANCH  14  13
BRANCH  18  22
ATOM     22  O   UNL     1       0.287   2.462  24.717  0.00  0.00    -0.432 OA
BRANCH  22  23
ATOM     23  C   UNL     1      -0.272   3.068  24.685  0.00  0.00    +0.425 C 
ATOM     24  O   UNL     1      -0.584   3.303  23.959  0.00  0.00    -0.224 OA
ATOM     25  N   UNL     1      -0.518   3.440  25.379  0.00  0.00    -0.142 NA
BRANCH  25  26
ATOM     26  C   UNL     1      -1.076   4.046  25.347  0.00  0.00    +0.077 A 
ATOM     27  C   UNL     1      -1.852   3.906  25.588  0.00  0.00    +0.021 A 
ATOM     28  C   UNL     1      -2.410   4.512  25.556  0.00  0.00    +0.073 A 
ATOM     29  C   UNL     1      -2.192   5.260  25.282  0.00  0.00    +0.004 A 
ATOM     30  C   UNL     1      -1.416   5.400  25.041  0.00  0.00    +0.001 A 
ATOM     31  C   UNL     1      -0.858   4.793  25.073  0.00  0.00    +0.017 A 
BRANCH  28  32
ATOM     32  C   UNL     1      -3.187   4.372  25.798  0.00  0.00    +0.419 C 
ATOM     33  F   UNL     1      -3.962   4.232  26.039  0.00  0.00    -0.166 F 
ATOM     34  F   UNL     1      -2.973   4.535  26.578  0.00  0.00    -0.166 F 
ATOM     35  F   UNL     1      -3.400   4.209  25.018  0.00  0.00    -0.166 F 
ENDBRANCH  28  32
ENDBRANCH  25  26
ENDBRANCH  22  23
ENDBRANCH  18  22
TORSDOF 7
ENDMDL
MODEL 2
REMARK VINA RESULT:     -11.5      0.557      5.979
REMARK  Name = 
REMARK  7 active torsions:
REMARK  status: ('A' for Active; 'I' for Inactive)
REMARK    1  A    between atoms: C_2  and  C_5
REMARK    2  A    between atoms: C_9  and  N_10
REMARK    3  A    between atoms: N_13  and  C_14
REMARK    4  A    between atoms: C_18  and  O_22
REMARK    5  A    between atoms: O_22  and  C_23
REMARK    6  A    between atoms: N_25  and  C_26
REMARK    7  A    between atoms: C_28  and  C_32
REMARK                            x       y       z     vdW  Elec       q    Type
REMARK                         _______ _______ _______ _____ _____    ______ ____
ROOT
ATOM     14  C   UNL     1      -0.005   1.580  24.807  0.00  0.00    +0.156 C 
ATOM     15  C   UNL     1       0.160   1.407  24.017  0.00  0.00    +0.166 C 
ATOM     16  O   UNL     1       0.013   0.605  23.897  0.00  0.00    -0.348 OA
ATOM     17  C   UNL     1      -0.242   0.281  24.610  0.00  0.00    +0.186 C 
ATOM     18  C   UNL     1      -0.490  -0.414  24.978  0.00  0.00    +0.229 C 
ATOM     19  C   UNL     1      -0.655  -0.242  25.768  0.00  0.00    +0.188 C 
ATOM     20  O   UNL     1      -0.508   0.561  25.888  0.00  0.00    -0.348 OA
ATOM     21  C   UNL     1      -0.253   0.884  25.173  0.00  0.00    +0.168 C 
ENDROOT
BRANCH  14  13
ATOM     10  N   UNL     1      -0.459   3.620  25.435  0.00  0.00    -0.161 NA
ATOM     11  C   UNL     1      -0.530   2.882  25.076  0.00  0.00    +0.344 C 
ATOM     12  O   UNL     1      -1.198   2.704  24.625  0.00  0.00    -0.249 OA
ATOM     13  N   UNL     1       0.067   2.319  25.167  0.00  0.00    -0.184 NA
BRANCH  10   9
ATOM      5  C   UNL     1      -2.404   4.604  25.564  0.00  0.00    +0.073 A 
ATOM      6  C   UNL     1      -2.249   5.309  25.163  0.00  0.00    +0.004 A 
ATOM      7  C   UNL     1      -1.497   5.450  24.853  0.00  0.00    +0.001 A 
ATOM      8  C   UNL     1      -0.901   4.887  24.944  0.00  0.00    +0.017 A 
ATOM      9  C   UNL     1      -1.056   4.183  25.345  0.00  0.00    +0.075 A 
ATOM     36  C   UNL     1      -1.807   4.042  25.654  0.00  0.00    +0.021 A 
BRANCH   5   2
ATOM      1  F   UNL     1      -3.906   4.322  26.183  0.00  0.00    -0.166 F 
ATOM      2  C   UNL     1      -3.155   4.463  25.873  0.00  0.00    +0.419 C 
ATOM      3  F   UNL     1      -2.873   4.628  26.630  0.00  0.00    -0.166 F 
ATOM      4  F   UNL     1      -3.437   4.298  25.116  0.00  0.00    -0.166 F 
ENDBRANCH   5   2
ENDBRANCH  10   9
ENDBRANCH  14  13
BRANCH  18  22
ATOM     22  O   UNL     1      -0.561  -1.154  24.618  0.00  0.00    -0.432 OA
BRANCH  22  23
ATOM     23  C   UNL     1      -1.253  -1.594  24.713  0.00  0.00    +0.425 C 
ATOM     24  O   UNL     1      -1.431  -1.928  25.446  0.00  0.00    -0.224 OA
ATOM     25  N   UNL     1      -1.765  -1.700  24.076  0.00  0.00    -0.142 NA
BRANCH  25  26
ATOM     26  C   UNL     1      -2.456  -2.141  24.171  0.00  0.00    +0.077 A 
ATOM     27  C   UNL     1      -3.191  -1.786  24.054  0.00  0.00    +0.021 A 
ATOM     28  C   UNL     1      -3.882  -2.226  24.148  0.00  0.00    +0.073 A 
ATOM     29  C   UNL     1      -3.838  -3.022  24.360  0.00  0.00    +0.004 A 
ATOM     30  C   UNL     1      -3.103  -3.378  24.477  0.00  0.00    +0.001 A 
ATOM     31  C   UNL     1      -2.412  -2.937  24.382  0.00  0.00    +0.017 A 
BRANCH  28  32
ATOM     32  C   UNL     1      -4.617  -1.870  24.031  0.00  0.00    +0.419 C 
ATOM     33  F   UNL     1      -5.352  -1.515  23.914  0.00  0.00    -0.166 F 
ATOM     34  F   UNL     1      -4.741  -2.343  23.367  0.00  0.00    -0.166 F 
ATOM     35  F   UNL     1      -4.495  -1.397  24.695  0.00  0.00    -0.166 F 
ENDBRANCH  28  32
ENDBRANCH  25  26
ENDBRANCH  22  23
ENDBRANCH  18  22
TORSDOF 7
ENDMDL
MODEL 3
REMARK VINA RESULT:     -11.4      3.977      5.464
REMARK  Name = 
REMARK  7 active torsions:
REMARK  status: ('A' for Active; 'I' for Inactive)
REMARK    1  A    between atoms: C_2  and  C_5
REMARK    2  A    between atoms: C_9  and  N_10
REMARK    3  A    between atoms: N_13  and  C_14
REMARK    4  A    between atoms: C_18  and  O_22
REMARK    5  A    between atoms: O_22  and  C_23
REMARK    6  A    between atoms: N_25  and  C_26
REMARK    7  A    between atoms: C_28  and  C_32
REMARK                            x       y       z     vdW  Elec       q    Type
REMARK                         _______ _______ _______ _____ _____    ______ ____
ROOT
ATOM     14  C   UNL     1      -0.893   0.063  24.568  0.00  0.00    +0.156 C 
ATOM     15  C   UNL     1      -0.859  -0.684  24.219  0.00  0.00    +0.166 C 
ATOM     16  O   UNL     1      -0.207  -0.700  23.715  0.00  0.00    -0.348 OA
ATOM     17  C   UNL     1       0.163   0.036  23.751  0.00  0.00    +0.186 C 
ATOM     18  C   UNL     1       0.794   0.481  23.463  0.00  0.00    +0.229 C 
ATOM     19  C   UNL     1       0.761   1.228  23.812  0.00  0.00    +0.188 C 
ATOM     20  O   UNL     1       0.109   1.244  24.316  0.00  0.00    -0.348 OA
ATOM     21  C   UNL     1      -0.261   0.507  24.279  0.00  0.00    +0.168 C 
ENDROOT
BRANCH  14  13
ATOM     10  N   UNL     1      -2.809   0.673  25.416  0.00  0.00    -0.161 NA
ATOM     11  C   UNL     1      -2.243   0.417  24.874  0.00  0.00    +0.344 C 
ATOM     12  O   UNL     1      -2.461   0.257  24.094  0.00  0.00    -0.249 OA
ATOM     13  N   UNL     1      -1.459   0.320  25.111  0.00  0.00    -0.184 NA
BRANCH  10   9
ATOM      5  C   UNL     1      -4.690   1.625  24.849  0.00  0.00    +0.073 A 
ATOM      6  C   UNL     1      -5.163   0.964  24.707  0.00  0.00    +0.004 A 
ATOM      7  C   UNL     1      -4.850   0.206  24.801  0.00  0.00    +0.001 A 
ATOM      8  C   UNL     1      -4.066   0.110  25.037  0.00  0.00    +0.017 A 
ATOM      9  C   UNL     1      -3.594   0.771  25.180  0.00  0.00    +0.075 A 
ATOM     36  C   UNL     1      -3.906   1.528  25.086  0.00  0.00    +0.021 A 
BRANCH   5   2
ATOM      1  F   UNL     1      -5.314   3.141  24.662  0.00  0.00    -0.166 F 
ATOM      2  C   UNL     1      -5.002   2.383  24.755  0.00  0.00    +0.419 C 
ATOM      3  F   UNL     1      -5.208   2.397  25.554  0.00  0.00    -0.166 F 
ATOM      4  F   UNL     1      -4.796   2.370  23.957  0.00  0.00    -0.166 F 
ENDBRANCH   5   2
ENDBRANCH  10   9
ENDBRANCH  14  13
BRANCH  18  22
ATOM     22  O   UNL     1       1.360   0.225  22.920  0.00  0.00    -0.432 OA
BRANCH  22  23
ATOM     23  C   UNL     1       2.155   0.417  23.030  0.00  0.00    +0.425 C 
ATOM     24  O   UNL     1       2.361   1.147  23.355  0.00  0.00    -0.224 OA
ATOM     25  N   UNL     1       2.744  -0.119  22.815  0.00  0.00    -0.142 NA
BRANCH  25  26
ATOM     26  C   UNL     1       3.538   0.074  22.925  0.00  0.00    +0.077 A 
ATOM     27  C   UNL     1       3.985  -0.325  23.492  0.00  0.00    +0.021 A 
ATOM     28  C   UNL     1       4.779  -0.133  23.602  0.00  0.00    +0.073 A 
ATOM     29  C   UNL     1       5.127   0.460  23.145  0.00  0.00    +0.004 A 
ATOM     30  C   UNL     1       4.680   0.859  22.577  0.00  0.00    +0.001 A 
ATOM     31  C   UNL     1       3.886   0.666  22.468  0.00  0.00    +0.017 A 
BRANCH  28  32
ATOM     32  C   UNL     1       5.226  -0.532  24.169  0.00  0.00    +0.419 C 
ATOM     33  F   UNL     1       5.673  -0.931  24.736  0.00  0.00    -0.166 F 
ATOM     34  F   UNL     1       5.088  -1.245  23.777  0.00  0.00    -0.166 F 
ATOM     35  F   UNL     1       5.364   0.180  24.562  0.00  0.00    -0.166 F 
ENDBRANCH  28  32
ENDBRANCH  25  26
ENDBRANCH  22  23
ENDBRANCH  18  22
TORSDOF 7
ENDMDL
MODEL 4
REMARK VINA RESULT:     -11.3      3.853      5.123
REMARK  Name = 
REMARK  7 active torsions:
REMARK  status: ('A' for Active; 'I' for Inactive)
REMARK    1  A    between atoms: C_2  and  C_5
REMARK    2  A    between atoms: C_9  and  N_10
REMARK    3  A    between atoms: N_13  and  C_14
REMARK    4  A    between atoms: C_18  and  O_22
REMARK    5  A    between atoms: O_22  and  C_23
REMARK    6  A    between atoms: N_25  and  C_26
REMARK    7  A    between atoms: C_28  and  C_32
REMARK                            x       y       z     vdW  Elec       q    Type
REMARK                         _______ _______ _______ _____ _____    ______ ____
ROOT
ATOM     14  C   UNL     1      -0.491   0.419  24.567  0.00  0.00    +0.156 C 
ATOM     15  C   UNL     1      -0.443   1.238  24.486  0.00  0.00    +0.166 C 
ATOM     16  O   UNL     1       0.184   1.407  23.978  0.00  0.00    -0.348 OA
ATOM     17  C   UNL     1       0.524   0.693  23.745  0.00  0.00    +0.186 C 
ATOM     18  C   UNL     1       1.122   0.355  23.288  0.00  0.00    +0.229 C 
ATOM     19  C   UNL     1       1.074  -0.464  23.369  0.00  0.00    +0.188 C 
ATOM     20  O   UNL     1       0.446  -0.633  23.877  0.00  0.00    -0.348 OA
ATOM     21  C   UNL     1       0.106   0.082  24.110  0.00  0.00    +0.168 C 
ENDROOT
BRANCH  14  13
ATOM     10  N   UNL     1      -2.362  -0.504  25.210  0.00  0.00    -0.161 NA
ATOM     11  C   UNL     1      -1.812  -0.094  24.752  0.00  0.00    +0.344 C 
ATOM     12  O   UNL     1      -2.034   0.214  24.019  0.00  0.00    -0.249 OA
ATOM     13  N   UNL     1      -1.041   0.008  25.026  0.00  0.00    -0.184 NA
BRANCH  10   9
ATOM      5  C   UNL     1      -4.111  -1.398  24.257  0.00  0.00    +0.073 A 
ATOM      6  C   UNL     1      -4.676  -0.812  24.390  0.00  0.00    +0.004 A 
ATOM      7  C   UNL     1      -4.471  -0.124  24.796  0.00  0.00    +0.001 A 
ATOM      8  C   UNL     1      -3.699  -0.022  25.069  0.00  0.00    +0.017 A 
ATOM      9  C   UNL     1      -3.133  -0.607  24.937  0.00  0.00    +0.075 A 
ATOM     36  C   UNL     1      -3.339  -1.295  24.531  0.00  0.00    +0.021 A 
BRANCH   5   2
ATOM      1  F   UNL     1      -4.522  -2.773  23.444  0.00  0.00    -0.166 F 
ATOM      2  C   UNL     1      -4.316  -2.085  23.851  0.00  0.00    +0.419 C 
ATOM      3  F   UNL     1      -4.353  -1.658  23.147  0.00  0.00    -0.166 F 
ATOM      4  F   UNL     1      -4.280  -2.513  24.555  0.00  0.00    -0.166 F 
ENDBRANCH   5   2
ENDBRANCH  10   9
ENDBRANCH  14  13
BRANCH  18  22
ATOM     22  O   UNL     1       1.671   0.766  22.829  0.00  0.00    -0.432 OA
BRANCH  22  23
ATOM     23  C   UNL     1       2.445   0.487  22.765  0.00  0.00    +0.425 C 
ATOM     24  O   UNL     1       2.600  -0.209  22.350  0.00  0.00    -0.224 OA
ATOM     25  N   UNL     1       3.064   0.905  23.115  0.00  0.00    -0.142 NA
BRANCH  25  26
ATOM     26  C   UNL     1       3.839   0.626  23.050  0.00  0.00    +0.077 A 
ATOM     27  C   UNL     1       4.201   0.263  23.695  0.00  0.00    +0.021 A 
ATOM     28  C   UNL     1       4.975  -0.015  23.632  0.00  0.00    +0.073 A 
ATOM     29  C   UNL     1       5.387   0.070  22.921  0.00  0.00    +0.004 A 
ATOM     30  C   UNL     1       5.024   0.434  22.275  0.00  0.00    +0.001 A 
ATOM     31  C   UNL     1       4.250   0.712  22.340  0.00  0.00    +0.017 A 
BRANCH  28  32
ATOM     32  C   UNL     1       5.338  -0.378  24.278  0.00  0.00    +0.419 C 
ATOM     33  F   UNL     1       5.700  -0.742  24.923  0.00  0.00    -0.166 F 
ATOM     34  F   UNL     1       5.157  -1.119  23.962  0.00  0.00    -0.166 F 
ATOM     35  F   UNL     1       5.519   0.362  24.592  0.00  0.00    -0.166 F 
ENDBRANCH  28  32
ENDBRANCH  25  26
ENDBRANCH  22  23
ENDBRANCH  18  22
TORSDOF 7
ENDMDL
MODEL 5
REMARK VINA RESULT:     -11.3      3.908      5.407
REMARK  Name = 
REMARK  7 active torsions:
REMARK  status: ('A' for Active; 'I' for Inactive)
REMARK    1  A    between atoms: C_2  and  C_5
REMARK    2  A    between atoms: C_9  and  N_10
REMARK    3  A    between atoms: N_13  and  C_14
REMARK    4  A    between atoms: C_18  and  O_22
REMARK    5  A    between atoms: O_22  and  C_23
REMARK    6  A    between atoms: N_25  and  C_26
REMARK    7  A    between atoms: C_28  and  C_32
REMARK                            x       y       z     vdW  Elec       q    Type
REMARK                         _______ _______ _______ _____ _____    ______ ____
ROOT
ATOM     14  C   UNL     1       0.581   0.739  23.654  0.00  0.00    +0.156 C 
ATOM     15  C   UNL     1       0.644   1.528  23.888  0.00  0.00    +0.166 C 
ATOM     16  O   UNL     1      -0.011   1.706  24.357  0.00  0.00    -0.348 OA
ATOM     17  C   UNL     1      -0.478   1.029  24.413  0.00  0.00    +0.186 C 
ATOM     18  C   UNL     1      -1.171   0.720  24.736  0.00  0.00    +0.229 C 
ATOM     19  C   UNL     1      -1.233  -0.069  24.502  0.00  0.00    +0.188 C 
ATOM     20  O   UNL     1      -0.578  -0.247  24.033  0.00  0.00    -0.348 OA
ATOM     21  C   UNL     1      -0.111   0.431  23.978  0.00  0.00    +0.168 C 
ENDROOT
BRANCH  14  13
ATOM     10  N   UNL     1       2.463   0.076  22.768  0.00  0.00    -0.161 NA
ATOM     11  C   UNL     1       1.927   0.484  23.243  0.00  0.00    +0.344 C 
ATOM     12  O   UNL     1       2.197   1.047  23.783  0.00  0.00    -0.249 OA
ATOM     13  N   UNL     1       1.118   0.331  23.178  0.00  0.00    -0.184 NA
BRANCH  10   9
ATOM      5  C   UNL     1       4.546  -0.068  23.406  0.00  0.00    +0.073 A 
ATOM      6  C   UNL     1       4.887   0.537  22.960  0.00  0.00    +0.004 A 
ATOM      7  C   UNL     1       4.421   0.988  22.451  0.00  0.00    +0.001 A 
ATOM      8  C   UNL     1       3.613   0.834  22.387  0.00  0.00    +0.017 A 
ATOM      9  C   UNL     1       3.271   0.230  22.832  0.00  0.00    +0.075 A 
ATOM     36  C   UNL     1       3.738  -0.221  23.342  0.00  0.00    +0.021 A 
BRANCH   5   2
ATOM      1  F   UNL     1       5.479  -0.969  24.425  0.00  0.00    -0.166 F 
ATOM      2  C   UNL     1       5.012  -0.518  23.915  0.00  0.00    +0.419 C 
ATOM      3  F   UNL     1       4.726  -1.208  23.567  0.00  0.00    -0.166 F 
ATOM      4  F   UNL     1       5.300   0.172  24.265  0.00  0.00    -0.166 F 
ENDBRANCH   5   2
ENDBRANCH  10   9
ENDBRANCH  14  13
BRANCH  18  22
ATOM     22  O   UNL     1      -1.708   1.128  25.212  0.00  0.00    -0.432 OA
BRANCH  22  23
ATOM     23  C   UNL     1      -2.458   1.312  24.922  0.00  0.00    +0.425 C 
ATOM     24  O   UNL     1      -2.851   0.781  24.429  0.00  0.00    -0.224 OA
ATOM     25  N   UNL     1      -2.815   2.027  25.126  0.00  0.00    -0.142 NA
BRANCH  25  26
ATOM     26  C   UNL     1      -3.566   2.211  24.837  0.00  0.00    +0.077 A 
ATOM     27  C   UNL     1      -4.236   2.017  25.276  0.00  0.00    +0.021 A 
ATOM     28  C   UNL     1      -4.986   2.201  24.987  0.00  0.00    +0.073 A 
ATOM     29  C   UNL     1      -5.066   2.580  24.258  0.00  0.00    +0.004 A 
ATOM     30  C   UNL     1      -4.395   2.774  23.819  0.00  0.00    +0.001 A 
ATOM     31  C   UNL     1      -3.645   2.590  24.109  0.00  0.00    +0.017 A 
BRANCH  28  32
ATOM     32  C   UNL     1      -5.657   2.006  25.426  0.00  0.00    +0.419 C 
ATOM     33  F   UNL     1      -6.328   1.811  25.865  0.00  0.00    -0.166 F 
ATOM     34  F   UNL     1      -5.816   1.383  24.908  0.00  0.00    -0.166 F 
ATOM     35  F   UNL     1      -5.499   2.628  25.944  0.00  0.00    -0.166 F 
ENDBRANCH  28  32
ENDBRANCH  25  26
ENDBRANCH  22  23
ENDBRANCH  18  22
TORSDOF 7
ENDMDL
MODEL 6
REMARK VINA RESULT:     -10.9      3.878      6.279
REMARK  Name = 
REMARK  7 active torsions:
REMARK  status: ('A' for Active; 'I' for Inactive)
REMARK    1  A    between atoms: C_2  and  C_5
REMARK    2  A    between atoms: C_9  and  N_10
REMARK    3  A    between atoms: N_13  and  C_14
REMARK    4  A    between atoms: C_18  and  O_22
REMARK    5  A    between atoms: O_22  and  C_23
REMARK    6  A    between atoms: N_25  and  C_26
REMARK    7  A    between atoms: C_28  and  C_32
REMARK                            x       y       z     vdW  Elec       q    Type
REMARK                         _______ _______ _______ _____ _____    ______ ____
ROOT
ATOM     14  C   UNL     1       0.950   0.423  23.255  0.00  0.00    +0.156 C 
ATOM     15  C   UNL     1       0.787   1.231  23.218  0.00  0.00    +0.166 C 
ATOM     16  O   UNL     1       0.104   1.373  23.658  0.00  0.00    -0.348 OA
ATOM     17  C   UNL     1      -0.155   0.654  23.967  0.00  0.00    +0.186 C 
ATOM     18  C   UNL     1      -0.737   0.296  24.430  0.00  0.00    +0.229 C 
ATOM     19  C   UNL     1      -0.574  -0.512  24.467  0.00  0.00    +0.188 C 
ATOM     20  O   UNL     1       0.109  -0.653  24.027  0.00  0.00    -0.348 OA
ATOM     21  C   UNL     1       0.368   0.067  23.718  0.00  0.00    +0.168 C 
ENDROOT
BRANCH  14  13
ATOM     10  N   UNL     1       2.993  -0.129  22.718  0.00  0.00    -0.161 NA
ATOM     11  C   UNL     1       2.359   0.254  23.080  0.00  0.00    +0.344 C 
ATOM     12  O   UNL     1       2.498   0.854  23.630  0.00  0.00    -0.249 OA
ATOM     13  N   UNL     1       1.584   0.039  22.893  0.00  0.00    -0.184 NA
BRANCH  10   9
ATOM      5  C   UNL     1       4.962  -0.124  23.659  0.00  0.00    +0.073 A 
ATOM      6  C   UNL     1       5.315   0.517  23.279  0.00  0.00    +0.004 A 
ATOM      7  C   UNL     1       4.894   0.943  22.711  0.00  0.00    +0.001 A 
ATOM      8  C   UNL     1       4.120   0.728  22.525  0.00  0.00    +0.017 A 
ATOM      9  C   UNL     1       3.767   0.086  22.905  0.00  0.00    +0.075 A 
ATOM     36  C   UNL     1       4.188  -0.339  23.472  0.00  0.00    +0.021 A 
BRANCH   5   2
ATOM      1  F   UNL     1       5.804  -0.975  24.794  0.00  0.00    -0.166 F 
ATOM      2  C   UNL     1       5.383  -0.549  24.226  0.00  0.00    +0.419 C 
ATOM      3  F   UNL     1       5.438   0.128  24.694  0.00  0.00    -0.166 F 
ATOM      4  F   UNL     1       5.329  -1.228  23.760  0.00  0.00    -0.166 F 
ENDBRANCH   5   2
ENDBRANCH  10   9
ENDBRANCH  14  13
BRANCH  18  22
ATOM     22  O   UNL     1      -1.371   0.680  24.792  0.00  0.00    -0.432 OA
BRANCH  22  23
ATOM     23  C   UNL     1      -2.091   0.288  24.888  0.00  0.00    +0.425 C 
ATOM     24  O   UNL     1      -2.210  -0.202  25.540  0.00  0.00    -0.224 OA
ATOM     25  N   UNL     1      -2.692   0.386  24.331  0.00  0.00    -0.142 NA
BRANCH  25  26
ATOM     26  C   UNL     1      -3.411  -0.006  24.427  0.00  0.00    +0.077 A 
ATOM     27  C   UNL     1      -3.511  -0.767  24.124  0.00  0.00    +0.021 A 
ATOM     28  C   UNL     1      -4.230  -1.158  24.219  0.00  0.00    +0.073 A 
ATOM     29  C   UNL     1      -4.851  -0.789  24.618  0.00  0.00    +0.004 A 
ATOM     30  C   UNL     1      -4.752  -0.028  24.921  0.00  0.00    +0.001 A 
ATOM     31  C   UNL     1      -4.032   0.363  24.825  0.00  0.00    +0.017 A 
BRANCH  28  32
ATOM     32  C   UNL     1      -4.329  -1.919  23.916  0.00  0.00    +0.419 C 
ATOM     33  F   UNL     1      -4.428  -2.680  23.612  0.00  0.00    -0.166 F 
ATOM     34  F   UNL     1      -4.401  -1.607  23.155  0.00  0.00    -0.166 F 
ATOM     35  F   UNL     1      -4.257  -2.232  24.675  0.00  0.00    -0.166 F 
ENDBRANCH  28  32
ENDBRANCH  25  26
ENDBRANCH  22  23
ENDBRANCH  18  22
TORSDOF 7
ENDMDL
MODEL 7
REMARK VINA RESULT:     -10.8      2.451      3.300
REMARK  Name = 
REMARK  7 active torsions:
REMARK  status: ('A' for Active; 'I' for Inactive)
REMARK    1  A    between atoms: C_2  and  C_5
REMARK    2  A    between atoms: C_9  and  N_10
REMARK    3  A    between atoms: N_13  and  C_14
REMARK    4  A    between atoms: C_18  and  O_22
REMARK    5  A    between atoms: O_22  and  C_23
REMARK    6  A    between atoms: N_25  and  C_26
REMARK    7  A    between atoms: C_28  and  C_32
REMARK                            x       y       z     vdW  Elec       q    Type
REMARK                         _______ _______ _______ _____ _____    ______ ____
ROOT
ATOM     14  C   UNL     1      -4.620   1.048  24.575  0.00  0.00    +0.156 C 
ATOM     15  C   UNL     1      -4.282   1.313  23.871  0.00  0.00    +0.166 C 
ATOM     16  O   UNL     1      -4.155   2.125  23.940  0.00  0.00    -0.348 OA
ATOM     17  C   UNL     1      -4.414   2.362  24.686  0.00  0.00    +0.186 C 
ATOM     18  C   UNL     1      -4.497   3.009  25.190  0.00  0.00    +0.229 C 
ATOM     19  C   UNL     1      -4.835   2.744  25.894  0.00  0.00    +0.188 C 
ATOM     20  O   UNL     1      -4.962   1.932  25.825  0.00  0.00    -0.348 OA
ATOM     21  C   UNL     1      -4.702   1.696  25.078  0.00  0.00    +0.168 C 
ENDROOT
BRANCH  14  13
ATOM     10  N   UNL     1      -4.585  -1.133  24.658  0.00  0.00    -0.161 NA
ATOM     11  C   UNL     1      -4.368  -0.357  24.488  0.00  0.00    +0.344 C 
ATOM     12  O   UNL     1      -3.678  -0.205  24.060  0.00  0.00    -0.249 OA
ATOM     13  N   UNL     1      -4.838   0.270  24.745  0.00  0.00    -0.184 NA
BRANCH  10   9
ATOM      5  C   UNL     1      -2.899  -2.508  24.475  0.00  0.00    +0.073 A 
ATOM      6  C   UNL     1      -3.174  -3.014  23.884  0.00  0.00    +0.004 A 
ATOM      7  C   UNL     1      -3.919  -2.893  23.551  0.00  0.00    +0.001 A 
ATOM      8  C   UNL     1      -4.389  -2.266  23.809  0.00  0.00    +0.017 A 
ATOM      9  C   UNL     1      -4.115  -1.760  24.400  0.00  0.00    +0.075 A 
ATOM     36  C   UNL     1      -3.370  -1.881  24.733  0.00  0.00    +0.021 A 
BRANCH   5   2
ATOM      1  F   UNL     1      -1.409  -2.750  25.141  0.00  0.00    -0.166 F 
ATOM      2  C   UNL     1      -2.155  -2.629  24.808  0.00  0.00    +0.419 C 
ATOM      3  F   UNL     1      -1.803  -2.455  24.083  0.00  0.00    -0.166 F 
ATOM      4  F   UNL     1      -2.506  -2.803  25.534  0.00  0.00    -0.166 F 
ENDBRANCH   5   2
ENDBRANCH  10   9
ENDBRANCH  14  13
BRANCH  18  22
ATOM     22  O   UNL     1      -4.279   3.787  25.020  0.00  0.00    -0.432 OA
BRANCH  22  23
ATOM     23  C   UNL     1      -3.517   4.050  25.198  0.00  0.00    +0.425 C 
ATOM     24  O   UNL     1      -3.300   4.185  25.982  0.00  0.00    -0.224 OA
ATOM     25  N   UNL     1      -2.973   4.179  24.592  0.00  0.00    -0.142 NA
BRANCH  25  26
ATOM     26  C   UNL     1      -2.212   4.443  24.770  0.00  0.00    +0.077 A 
ATOM     27  C   UNL     1      -1.587   3.906  24.804  0.00  0.00    +0.021 A 
ATOM     28  C   UNL     1      -0.826   4.169  24.982  0.00  0.00    +0.073 A 
ATOM     29  C   UNL     1      -0.689   4.971  25.125  0.00  0.00    +0.004 A 
ATOM     30  C   UNL     1      -1.315   5.508  25.091  0.00  0.00    +0.001 A 
ATOM     31  C   UNL     1      -2.076   5.244  24.913  0.00  0.00    +0.017 A 
BRANCH  28  32
ATOM     32  C   UNL     1      -0.201   3.632  25.017  0.00  0.00    +0.419 C 
ATOM     33  F   UNL     1       0.424   3.095  25.051  0.00  0.00    -0.166 F 
ATOM     34  F   UNL     1      -0.267   3.608  25.839  0.00  0.00    -0.166 F 
ATOM     35  F   UNL     1      -0.134   3.656  24.195  0.00  0.00    -0.166 F 
ENDBRANCH  28  32
ENDBRANCH  25  26
ENDBRANCH  22  23
ENDBRANCH  18  22
TORSDOF 7
ENDMDL
MODEL 8
REMARK VINA RESULT:     -10.6      3.699      5.212
REMARK  Name = 
REMARK  7 active torsions:
REMARK  status: ('A' for Active; 'I' for Inactive)
REMARK    1  A    between atoms: C_2  and  C_5
REMARK    2  A    between atoms: C_9  and  N_10
REMARK    3  A    between atoms: N_13  and  C_14
REMARK    4  A    between atoms: C_18  and  O_22
REMARK    5  A    between atoms: O_22  and  C_23
REMARK    6  A    between atoms: N_25  and  C_26
REMARK    7  A    between atoms: C_28  and  C_32
REMARK                            x       y       z     vdW  Elec       q    Type
REMARK                         _______ _______ _______ _____ _____    ______ ____
ROOT
ATOM     14  C   UNL     1       0.410   0.066  23.328  0.00  0.00    +0.156 C 
ATOM     15  C   UNL     1       0.106   0.575  22.755  0.00  0.00    +0.166 C 
ATOM     16  O   UNL     1      -0.593   0.900  23.049  0.00  0.00    -0.348 OA
ATOM     17  C   UNL     1      -0.720   0.593  23.803  0.00  0.00    +0.186 C 
ATOM     18  C   UNL     1      -1.230   0.603  24.452  0.00  0.00    +0.229 C 
ATOM     19  C   UNL     1      -0.925   0.094  25.025  0.00  0.00    +0.188 C 
ATOM     20  O   UNL     1      -0.227  -0.231  24.731  0.00  0.00    -0.348 OA
ATOM     21  C   UNL     1      -0.100   0.077  23.975  0.00  0.00    +0.168 C 
ENDROOT
BRANCH  14  13
ATOM     10  N   UNL     1       2.520  -0.439  23.081  0.00  0.00    -0.161 NA
ATOM     11  C   UNL     1       1.827   0.003  23.145  0.00  0.00    +0.344 C 
ATOM     12  O   UNL     1       1.855   0.827  23.089  0.00  0.00    -0.249 OA
ATOM     13  N   UNL     1       1.104  -0.377  23.264  0.00  0.00    -0.184 NA
BRANCH  10   9
ATOM      5  C   UNL     1       4.602   0.163  23.341  0.00  0.00    +0.073 A 
ATOM      6  C   UNL     1       4.687   0.702  22.722  0.00  0.00    +0.004 A 
ATOM      7  C   UNL     1       4.050   0.861  22.223  0.00  0.00    +0.001 A 
ATOM      8  C   UNL     1       3.327   0.480  22.343  0.00  0.00    +0.017 A 
ATOM      9  C   UNL     1       3.242  -0.059  22.961  0.00  0.00    +0.075 A 
ATOM     36  C   UNL     1       3.879  -0.217  23.460  0.00  0.00    +0.021 A 
BRANCH   5   2
ATOM      1  F   UNL     1       5.877  -0.155  24.339  0.00  0.00    -0.166 F 
ATOM      2  C   UNL     1       5.239   0.004  23.840  0.00  0.00    +0.419 C 
ATOM      3  F   UNL     1       5.264  -0.771  23.561  0.00  0.00    -0.166 F 
ATOM      4  F   UNL     1       5.215   0.780  24.120  0.00  0.00    -0.166 F 
ENDBRANCH   5   2
ENDBRANCH  10   9
ENDBRANCH  14  13
BRANCH  18  22
ATOM     22  O   UNL     1      -1.924   1.046  24.516  0.00  0.00    -0.432 OA
BRANCH  22  23
ATOM     23  C   UNL     1      -1.924   1.753  24.941  0.00  0.00    +0.425 C 
ATOM     24  O   UNL     1      -1.581   1.784  25.690  0.00  0.00    -0.224 OA
ATOM     25  N   UNL     1      -2.268   2.429  24.617  0.00  0.00    -0.142 NA
BRANCH  25  26
ATOM     26  C   UNL     1      -2.269   3.136  25.042  0.00  0.00    +0.077 A 
ATOM     27  C   UNL     1      -1.731   3.731  24.854  0.00  0.00    +0.021 A 
ATOM     28  C   UNL     1      -1.731   4.438  25.278  0.00  0.00    +0.073 A 
ATOM     29  C   UNL     1      -2.272   4.550  25.893  0.00  0.00    +0.004 A 
ATOM     30  C   UNL     1      -2.811   3.954  26.081  0.00  0.00    +0.001 A 
ATOM     31  C   UNL     1      -2.809   3.247  25.656  0.00  0.00    +0.017 A 
BRANCH  28  32
ATOM     32  C   UNL     1      -1.192   5.034  25.090  0.00  0.00    +0.419 C 
ATOM     33  F   UNL     1      -0.654   5.629  24.902  0.00  0.00    -0.166 F 
ATOM     34  F   UNL     1      -0.582   4.585  25.417  0.00  0.00    -0.166 F 
ATOM     35  F   UNL     1      -1.802   5.482  24.763  0.00  0.00    -0.166 F 
ENDBRANCH  28  32
ENDBRANCH  25  26
ENDBRANCH  22  23
ENDBRANCH  18  22
TORSDOF 7
ENDMDL
MODEL 9
REMARK VINA RESULT:      -8.2     14.500     16.498
REMARK  Name = 
REMARK  7 active torsions:
REMARK  status: ('A' for Active; 'I' for Inactive)
REMARK    1  A    between atoms: C_2  and  C_5
REMARK    2  A    between atoms: C_9  and  N_10
REMARK    3  A    between atoms: N_13  and  C_14
REMARK    4  A    between atoms: C_18  and  O_22
REMARK    5  A    between atoms: O_22  and  C_23
REMARK    6  A    between atoms: N_25  and  C_26
REMARK    7  A    between atoms: C_28  and  C_32
REMARK                            x       y       z     vdW  Elec       q    Type
REMARK                         _______ _______ _______ _____ _____    ______ ____
ROOT
ATOM     14  C   UNL     1      -6.969 -10.129  15.201  0.00  0.00    +0.156 C 
ATOM     15  C   UNL     1      -7.501 -10.416  14.640  0.00  0.00    +0.166 C 
ATOM     16  O   UNL     1      -7.074 -10.624  13.966  0.00  0.00    -0.348 OA
ATOM     17  C   UNL     1      -6.278 -10.466  14.110  0.00  0.00    +0.186 C 
ATOM     18  C   UNL     1      -5.521 -10.496  13.783  0.00  0.00    +0.229 C 
ATOM     19  C   UNL     1      -4.988 -10.209  14.344  0.00  0.00    +0.188 C 
ATOM     20  O   UNL     1      -5.416 -10.001  15.018  0.00  0.00    -0.348 OA
ATOM     21  C   UNL     1      -6.213 -10.160  14.873  0.00  0.00    +0.168 C 
ENDROOT
BRANCH  14  13
ATOM     10  N   UNL     1      -8.136  -9.426  16.907  0.00  0.00    -0.161 NA
ATOM     11  C   UNL     1      -7.945  -9.696  16.151  0.00  0.00    +0.344 C 
ATOM     12  O   UNL     1      -8.539  -9.805  15.589  0.00  0.00    -0.249 OA
ATOM     13  N   UNL     1      -7.160  -9.858  15.957  0.00  0.00    -0.184 NA
BRANCH  10   9
ATOM      5  C   UNL     1     -10.007  -8.340  17.198  0.00  0.00    +0.073 A 
ATOM      6  C   UNL     1     -10.491  -8.940  17.491  0.00  0.00    +0.004 A 
ATOM      7  C   UNL     1     -10.191  -9.703  17.589  0.00  0.00    +0.001 A 
ATOM      8  C   UNL     1      -9.405  -9.864  17.394  0.00  0.00    +0.017 A 
ATOM      9  C   UNL     1      -8.921  -9.264  17.101  0.00  0.00    +0.075 A 
ATOM     36  C   UNL     1      -9.222  -8.502  17.003  0.00  0.00    +0.021 A 
BRANCH   5   2
ATOM      1  F   UNL     1     -10.609  -6.817  17.002  0.00  0.00    -0.166 F 
ATOM      2  C   UNL     1     -10.308  -7.579  17.100  0.00  0.00    +0.419 C 
ATOM      3  F   UNL     1      -9.965  -7.352  17.814  0.00  0.00    -0.166 F 
ATOM      4  F   UNL     1     -10.652  -7.805  16.385  0.00  0.00    -0.166 F 
ENDBRANCH   5   2
ENDBRANCH  10   9
ENDBRANCH  14  13
BRANCH  18  22
ATOM     22  O   UNL     1      -5.330 -10.767  13.027  0.00  0.00    -0.432 OA
BRANCH  22  23
ATOM     23  C   UNL     1      -4.740 -10.389  12.590  0.00  0.00    +0.425 C 
ATOM     24  O   UNL     1      -4.413  -9.684  12.864  0.00  0.00    -0.224 OA
ATOM     25  N   UNL     1      -4.479 -10.717  11.880  0.00  0.00    -0.142 NA
BRANCH  25  26
ATOM     26  C   UNL     1      -3.890 -10.340  11.443  0.00  0.00    +0.077 A 
ATOM     27  C   UNL     1      -4.092  -9.873  10.794  0.00  0.00    +0.021 A 
ATOM     28  C   UNL     1      -3.503  -9.496  10.357  0.00  0.00    +0.073 A 
ATOM     29  C   UNL     1      -2.710  -9.586  10.570  0.00  0.00    +0.004 A 
ATOM     30  C   UNL     1      -2.508 -10.052  11.220  0.00  0.00    +0.001 A 
ATOM     31  C   UNL     1      -3.098 -10.429  11.656  0.00  0.00    +0.017 A 
BRANCH  28  32
ATOM     32  C   UNL     1      -3.705  -9.029   9.708  0.00  0.00    +0.419 C 
ATOM     33  F   UNL     1      -3.908  -8.563   9.058  0.00  0.00    -0.166 F 
ATOM     34  F   UNL     1      -3.596  -9.677   9.208  0.00  0.00    -0.166 F 
ATOM     35  F   UNL     1      -3.815  -8.382  10.206  0.00  0.00    -0.166 F 
ENDBRANCH  28  32
ENDBRANCH  25  26
ENDBRANCH  22  23
ENDBRANCH  18  22
TORSDOF 7
ENDMDL
