REMARK  Name = 
REMARK  7 active torsions:
REMARK  status: ('A' for Active; 'I' for Inactive)
REMARK    1  A    between atoms: C_4  and  C_19
REMARK    2  A    between atoms: N_5  and  C_6
REMARK    3  A    between atoms: C_6  and  C_7
REMARK    4  A    between atoms: C_11  and  O_12
REMARK    5  A    between atoms: O_12  and  C_13
REMARK    6  A    between atoms: C_21  and  C_22
REMARK    7  A    between atoms: C_22  and  C_23
REMARK                            x       y       z     vdW  Elec       q    Type
REMARK                         _______ _______ _______ _____ _____    ______ ____
ROOT
ATOM      1  O   UNL     1       2.943  -2.510   0.000  0.00  0.00    -0.222 OA
ATOM      2  C   UNL     1       2.943  -3.335   0.000  0.00  0.00    +0.170 C 
ATOM      3  C   UNL     1       3.611  -3.820   0.000  0.00  0.00    +0.060 C 
ATOM      4  C   UNL     1       3.356  -4.605   0.000  0.00  0.00    +0.140 C 
ATOM      5  N   UNL     1       2.531  -4.605   0.000  0.00  0.00    -0.260 NA
ATOM     18  C   UNL     1       2.276  -3.820   0.000  0.00  0.00    +0.106 C 
ENDROOT
BRANCH   4  19
ATOM     19  C   UNL     1       3.841  -5.272   0.000  0.00  0.00    +0.251 A 
ATOM     20  N   UNL     1       4.666  -5.272   0.000  0.00  0.00    -0.193 NA
ATOM     21  C   UNL     1       4.920  -6.057   0.000  0.00  0.00    +0.185 A 
ATOM     29  N   UNL     1       4.253  -6.542   0.000  0.00  0.00    -0.060 NA
ATOM     30  O   UNL     1       3.586  -6.057   0.000  0.00  0.00    -0.336 OA
BRANCH  21  22
ATOM     22  C   UNL     1       5.705  -6.312   0.000  0.00  0.00    +0.095 C 
BRANCH  22  23
ATOM     23  C   UNL     1       5.877  -7.119   0.000  0.00  0.00    -0.014 A 
ATOM     24  C   UNL     1       6.661  -7.373   0.000  0.00  0.00    -0.004 A 
ATOM     25  C   UNL     1       6.833  -8.180   0.000  0.00  0.00    -0.000 A 
ATOM     26  C   UNL     1       6.220  -8.732   0.000  0.00  0.00    -0.000 A 
ATOM     27  C   UNL     1       5.435  -8.477   0.000  0.00  0.00    -0.000 A 
ATOM     28  C   UNL     1       5.264  -7.671   0.000  0.00  0.00    -0.004 A 
ENDBRANCH  22  23
ENDBRANCH  21  22
ENDBRANCH   4  19
BRANCH   5   6
ATOM      6  C   UNL     1       2.046  -5.272   0.000  0.00  0.00    +0.100 C 
BRANCH   6   7
ATOM      7  C   UNL     1       1.225  -5.186   0.000  0.00  0.00    -0.003 A 
ATOM      8  C   UNL     1       0.740  -5.853   0.000  0.00  0.00    -0.003 A 
ATOM      9  C   UNL     1      -0.080  -5.767   0.000  0.00  0.00    +0.003 A 
ATOM     10  C   UNL     1      -0.416  -5.013   0.000  0.00  0.00    +0.037 A 
ATOM     11  C   UNL     1       0.069  -4.346   0.000  0.00  0.00    +0.147 A 
ATOM     17  C   UNL     1       0.890  -4.432   0.000  0.00  0.00    +0.034 A 
BRANCH  11  12
ATOM     12  O   UNL     1      -0.266  -3.592   0.000  0.00  0.00    -0.404 OA
BRANCH  12  13
ATOM     13  C   UNL     1      -1.087  -3.506   0.000  0.00  0.00    +0.575 C 
ATOM     14  F   UNL     1      -1.907  -3.420   0.000  0.00  0.00    -0.133 F 
ATOM     15  F   UNL     1      -1.173  -4.326   0.000  0.00  0.00    -0.133 F 
ATOM     16  F   UNL     1      -1.001  -2.686   0.000  0.00  0.00    -0.133 F 
ENDBRANCH  12  13
ENDBRANCH  11  12
ENDBRANCH   6   7
ENDBRANCH   5   6
TORSDOF 7
