MODEL 1
REMARK VINA RESULT:     -14.4      0.000      0.000
REMARK  Name = 
REMARK  3 active torsions:
REMARK  status: ('A' for Active; 'I' for Inactive)
REMARK    1  A    between atoms: C_7  and  N_10
REMARK    2  A    between atoms: C_17  and  N_18
REMARK    3  A    between atoms: C_19  and  C_21
REMARK                            x       y       z     vdW  Elec       q    Type
REMARK                         _______ _______ _______ _____ _____    ______ ____
ROOT
ATOM     10  N   UNL     1      -4.693   3.088  25.307  0.00  0.00    -0.273 NA
ATOM     11  C   UNL     1      -5.516   3.000  25.416  0.00  0.00    +0.074 C 
ATOM     12  C   UNL     1      -5.608   2.038  25.210  0.00  0.00    +0.039 C 
ATOM     13  C   UNL     1      -5.849   1.272  25.073  0.00  0.00    +0.011 C 
ATOM     14  C   UNL     1      -5.249   1.637  25.063  0.00  0.00    +0.056 C 
ATOM     15  C   UNL     1      -5.177   2.568  25.264  0.00  0.00    +0.078 C 
ATOM     16  C   UNL     1      -4.350   1.542  24.901  0.00  0.00    +0.056 A 
ATOM     17  C   UNL     1      -3.795   0.972  24.684  0.00  0.00    +0.086 A 
ATOM     26  C   UNL     1      -3.000   1.178  24.607  0.00  0.00    +0.023 A 
ATOM     27  C   UNL     1      -2.760   1.955  24.747  0.00  0.00    +0.062 A 
ATOM     28  C   UNL     1      -3.315   2.525  24.964  0.00  0.00    +0.261 A 
ATOM     29  O   UNL     1      -2.663   3.030  24.977  0.00  0.00    -0.267 OA
ATOM     30  N   UNL     1      -4.110   2.319  25.041  0.00  0.00    -0.298 N 
ATOM     31  C   UNL     1      -4.667   1.948  25.043  0.00  0.00    +0.110 C 
ENDROOT
BRANCH  10   7
ATOM      1  C   UNL     1      -1.487   4.916  24.485  0.00  0.00    +0.095 C 
ATOM      2  C   UNL     1      -1.745   4.569  25.186  0.00  0.00    +0.226 C 
ATOM      3  O   UNL     1      -1.267   4.591  25.859  0.00  0.00    -0.275 OA
ATOM      4  N   UNL     1      -2.482   4.199  25.217  0.00  0.00    -0.279 N 
ATOM      5  C   UNL     1      -2.741   3.851  25.918  0.00  0.00    +0.095 C 
ATOM      6  C   UNL     1      -3.477   3.481  25.949  0.00  0.00    +0.038 C 
ATOM      7  C   UNL     1      -3.955   3.459  25.277  0.00  0.00    +0.061 C 
ATOM      8  C   UNL     1      -3.697   3.806  24.575  0.00  0.00    +0.038 C 
ATOM      9  C   UNL     1      -2.960   4.176  24.545  0.00  0.00    +0.095 C 
ENDBRANCH  10   7
BRANCH  17  18
ATOM     18  N   UNL     1      -4.035   0.195  24.544  0.00  0.00    -0.172 NA
ATOM     19  C   UNL     1      -3.472  -0.400  24.446  0.00  0.00    +0.304 C 
ATOM     20  O   UNL     1      -2.668  -0.217  24.488  0.00  0.00    -0.265 OA
BRANCH  19  21
ATOM     21  C   UNL     1      -3.712  -1.177  24.306  0.00  0.00    +0.201 A 
ATOM     22  C   UNL     1      -3.507  -1.836  24.758  0.00  0.00    +0.046 A 
ATOM     23  C   UNL     1      -3.868  -2.497  24.420  0.00  0.00    +0.044 A 
ATOM     24  C   UNL     1      -4.295  -2.246  23.760  0.00  0.00    +0.180 A 
ATOM     25  O   UNL     1      -4.198  -1.431  23.690  0.00  0.00    -0.446 OA
ENDBRANCH  19  21
ENDBRANCH  17  18
TORSDOF 3
ENDMDL
MODEL 2
REMARK VINA RESULT:     -14.2      1.041      4.444
REMARK  Name = 
REMARK  3 active torsions:
REMARK  status: ('A' for Active; 'I' for Inactive)
REMARK    1  A    between atoms: C_7  and  N_10
REMARK    2  A    between atoms: C_17  and  N_18
REMARK    3  A    between atoms: C_19  and  C_21
REMARK                            x       y       z     vdW  Elec       q    Type
REMARK                         _______ _______ _______ _____ _____    ______ ____
ROOT
ATOM     10  N   UNL     1      -4.836   0.816  24.836  0.00  0.00    -0.273 NA
ATOM     11  C   UNL     1      -5.482   1.345  24.860  0.00  0.00    +0.074 C 
ATOM     12  C   UNL     1      -4.993   2.203  24.859  0.00  0.00    +0.039 C 
ATOM     13  C   UNL     1      -4.745   2.979  24.864  0.00  0.00    +0.011 C 
ATOM     14  C   UNL     1      -4.452   2.341  24.847  0.00  0.00    +0.056 C 
ATOM     15  C   UNL     1      -4.940   1.520  24.848  0.00  0.00    +0.078 C 
ATOM     16  C   UNL     1      -3.634   1.924  24.819  0.00  0.00    +0.056 A 
ATOM     17  C   UNL     1      -2.828   2.096  24.800  0.00  0.00    +0.086 A 
ATOM     26  C   UNL     1      -2.276   1.483  24.776  0.00  0.00    +0.023 A 
ATOM     27  C   UNL     1      -2.531   0.698  24.772  0.00  0.00    +0.062 A 
ATOM     28  C   UNL     1      -3.337   0.526  24.791  0.00  0.00    +0.261 A 
ATOM     29  O   UNL     1      -3.082  -0.258  24.773  0.00  0.00    -0.267 OA
ATOM     30  N   UNL     1      -3.889   1.139  24.815  0.00  0.00    -0.298 N 
ATOM     31  C   UNL     1      -4.142   1.758  24.830  0.00  0.00    +0.110 C 
ENDROOT
BRANCH  10   7
ATOM      1  C   UNL     1      -2.982  -2.421  25.453  0.00  0.00    +0.095 C 
ATOM      2  C   UNL     1      -3.213  -2.056  24.751  0.00  0.00    +0.226 C 
ATOM      3  O   UNL     1      -3.037  -2.410  24.026  0.00  0.00    -0.275 OA
ATOM      4  N   UNL     1      -3.618  -1.339  24.771  0.00  0.00    -0.279 N 
ATOM      5  C   UNL     1      -3.849  -0.974  24.069  0.00  0.00    +0.095 C 
ATOM      6  C   UNL     1      -4.254  -0.256  24.089  0.00  0.00    +0.038 C 
ATOM      7  C   UNL     1      -4.430   0.097  24.814  0.00  0.00    +0.061 C 
ATOM      8  C   UNL     1      -4.200  -0.267  25.518  0.00  0.00    +0.038 C 
ATOM      9  C   UNL     1      -3.794  -0.985  25.496  0.00  0.00    +0.095 C 
ENDBRANCH  10   7
BRANCH  17  18
ATOM     18  N   UNL     1      -2.573   2.881  24.804  0.00  0.00    -0.172 NA
ATOM     19  C   UNL     1      -1.803   3.063  25.037  0.00  0.00    +0.304 C 
ATOM     20  O   UNL     1      -1.288   2.461  25.265  0.00  0.00    -0.265 OA
BRANCH  19  21
ATOM     21  C   UNL     1      -1.548   3.848  25.041  0.00  0.00    +0.201 A 
ATOM     22  C   UNL     1      -0.828   4.125  24.750  0.00  0.00    +0.046 A 
ATOM     23  C   UNL     1      -0.804   4.942  24.866  0.00  0.00    +0.044 A 
ATOM     24  C   UNL     1      -1.510   5.169  25.229  0.00  0.00    +0.180 A 
ATOM     25  O   UNL     1      -1.969   4.493  25.337  0.00  0.00    -0.446 OA
ENDBRANCH  19  21
ENDBRANCH  17  18
TORSDOF 3
ENDMDL
MODEL 3
REMARK VINA RESULT:     -12.5      1.763      2.942
REMARK  Name = 
REMARK  3 active torsions:
REMARK  status: ('A' for Active; 'I' for Inactive)
REMARK    1  A    between atoms: C_7  and  N_10
REMARK    2  A    between atoms: C_17  and  N_18
REMARK    3  A    between atoms: C_19  and  C_21
REMARK                            x       y       z     vdW  Elec       q    Type
REMARK                         _______ _______ _______ _____ _____    ______ ____
ROOT
ATOM     10  N   UNL     1      -0.532   1.598  24.563  0.00  0.00    -0.273 NA
ATOM     11  C   UNL     1       0.148   1.157  24.363  0.00  0.00    +0.074 C 
ATOM     12  C   UNL     1      -0.255   0.258  24.284  0.00  0.00    +0.039 C 
ATOM     13  C   UNL     1      -0.429  -0.531  24.181  0.00  0.00    +0.011 C 
ATOM     14  C   UNL     1      -0.772   0.059  24.345  0.00  0.00    +0.056 C 
ATOM     15  C   UNL     1      -0.368   0.921  24.418  0.00  0.00    +0.078 C 
ATOM     16  C   UNL     1      -1.612   0.370  24.553  0.00  0.00    +0.056 A 
ATOM     17  C   UNL     1      -2.387   0.105  24.651  0.00  0.00    +0.086 A 
ATOM     26  C   UNL     1      -2.982   0.640  24.852  0.00  0.00    +0.023 A 
ATOM     27  C   UNL     1      -2.803   1.438  24.955  0.00  0.00    +0.062 A 
ATOM     28  C   UNL     1      -2.028   1.703  24.857  0.00  0.00    +0.261 A 
ATOM     29  O   UNL     1      -2.348   2.440  25.042  0.00  0.00    -0.267 OA
ATOM     30  N   UNL     1      -1.432   1.169  24.656  0.00  0.00    -0.298 N 
ATOM     31  C   UNL     1      -1.128   0.592  24.502  0.00  0.00    +0.110 C 
ENDROOT
BRANCH  10   7
ATOM      1  C   UNL     1      -2.475   4.433  26.141  0.00  0.00    +0.095 C 
ATOM      2  C   UNL     1      -2.380   4.216  25.351  0.00  0.00    +0.226 C 
ATOM      3  O   UNL     1      -2.749   4.655  24.756  0.00  0.00    -0.275 OA
ATOM      4  N   UNL     1      -1.919   3.562  25.153  0.00  0.00    -0.279 N 
ATOM      5  C   UNL     1      -1.825   3.346  24.363  0.00  0.00    +0.095 C 
ATOM      6  C   UNL     1      -1.363   2.692  24.166  0.00  0.00    +0.038 C 
ATOM      7  C   UNL     1      -0.994   2.253  24.760  0.00  0.00    +0.061 C 
ATOM      8  C   UNL     1      -1.088   2.469  25.551  0.00  0.00    +0.038 C 
ATOM      9  C   UNL     1      -1.550   3.124  25.748  0.00  0.00    +0.095 C 
ENDBRANCH  10   7
BRANCH  17  18
ATOM     18  N   UNL     1      -2.566  -0.693  24.547  0.00  0.00    -0.172 NA
ATOM     19  C   UNL     1      -3.339  -0.959  24.654  0.00  0.00    +0.304 C 
ATOM     20  O   UNL     1      -3.933  -0.427  24.864  0.00  0.00    -0.265 OA
BRANCH  19  21
ATOM     21  C   UNL     1      -3.519  -1.758  24.551  0.00  0.00    +0.201 A 
ATOM     22  C   UNL     1      -4.008  -2.073  23.966  0.00  0.00    +0.046 A 
ATOM     23  C   UNL     1      -4.032  -2.892  24.068  0.00  0.00    +0.044 A 
ATOM     24  C   UNL     1      -3.558  -3.082  24.716  0.00  0.00    +0.180 A 
ATOM     25  O   UNL     1      -3.241  -2.382  25.015  0.00  0.00    -0.446 OA
ENDBRANCH  19  21
ENDBRANCH  17  18
TORSDOF 3
ENDMDL
MODEL 4
REMARK VINA RESULT:     -12.1      1.980      3.411
REMARK  Name = 
REMARK  3 active torsions:
REMARK  status: ('A' for Active; 'I' for Inactive)
REMARK    1  A    between atoms: C_7  and  N_10
REMARK    2  A    between atoms: C_17  and  N_18
REMARK    3  A    between atoms: C_19  and  C_21
REMARK                            x       y       z     vdW  Elec       q    Type
REMARK                         _______ _______ _______ _____ _____    ______ ____
ROOT
ATOM     10  N   UNL     1      -2.237   4.149  25.230  0.00  0.00    -0.273 NA
ATOM     11  C   UNL     1      -1.568   4.648  25.194  0.00  0.00    +0.074 C 
ATOM     12  C   UNL     1      -0.893   3.998  24.881  0.00  0.00    +0.039 C 
ATOM     13  C   UNL     1      -0.231   3.595  24.630  0.00  0.00    +0.011 C 
ATOM     14  C   UNL     1      -0.907   3.455  24.754  0.00  0.00    +0.056 C 
ATOM     15  C   UNL     1      -1.548   4.095  25.057  0.00  0.00    +0.078 C 
ATOM     16  C   UNL     1      -1.517   2.768  24.730  0.00  0.00    +0.056 A 
ATOM     17  C   UNL     1      -1.571   1.965  24.549  0.00  0.00    +0.086 A 
ATOM     26  C   UNL     1      -2.293   1.573  24.623  0.00  0.00    +0.023 A 
ATOM     27  C   UNL     1      -2.962   1.985  24.877  0.00  0.00    +0.062 A 
ATOM     28  C   UNL     1      -2.908   2.787  25.058  0.00  0.00    +0.261 A 
ATOM     29  O   UNL     1      -3.712   2.714  25.227  0.00  0.00    -0.267 OA
ATOM     30  N   UNL     1      -2.186   3.179  24.984  0.00  0.00    -0.298 N 
ATOM     31  C   UNL     1      -1.537   3.286  24.859  0.00  0.00    +0.110 C 
ENDROOT
BRANCH  10   7
ATOM      1  C   UNL     1      -5.907   3.248  25.114  0.00  0.00    +0.095 C 
ATOM      2  C   UNL     1      -5.365   3.226  25.735  0.00  0.00    +0.226 C 
ATOM      3  O   UNL     1      -5.605   2.973  26.483  0.00  0.00    -0.275 OA
ATOM      4  N   UNL     1      -4.583   3.457  25.609  0.00  0.00    -0.279 N 
ATOM      5  C   UNL     1      -4.041   3.435  26.230  0.00  0.00    +0.095 C 
ATOM      6  C   UNL     1      -3.259   3.665  26.104  0.00  0.00    +0.038 C 
ATOM      7  C   UNL     1      -3.019   3.918  25.356  0.00  0.00    +0.061 C 
ATOM      8  C   UNL     1      -3.561   3.940  24.735  0.00  0.00    +0.038 C 
ATOM      9  C   UNL     1      -4.343   3.710  24.861  0.00  0.00    +0.095 C 
ENDBRANCH  10   7
BRANCH  17  18
ATOM     18  N   UNL     1      -0.902   1.554  24.295  0.00  0.00    -0.172 NA
ATOM     19  C   UNL     1      -0.968   0.769  24.052  0.00  0.00    +0.304 C 
ATOM     20  O   UNL     1      -1.704   0.395  24.063  0.00  0.00    -0.265 OA
BRANCH  19  21
ATOM     21  C   UNL     1      -0.300   0.357  23.798  0.00  0.00    +0.201 A 
ATOM     22  C   UNL     1      -0.027  -0.359  24.102  0.00  0.00    +0.046 A 
ATOM     23  C   UNL     1       0.655  -0.568  23.687  0.00  0.00    +0.044 A 
ATOM     24  C   UNL     1       0.802   0.019  23.126  0.00  0.00    +0.180 A 
ATOM     25  O   UNL     1       0.213   0.590  23.194  0.00  0.00    -0.446 OA
ENDBRANCH  19  21
ENDBRANCH  17  18
TORSDOF 3
ENDMDL
MODEL 5
REMARK VINA RESULT:     -11.8      1.370      2.384
REMARK  Name = 
REMARK  3 active torsions:
REMARK  status: ('A' for Active; 'I' for Inactive)
REMARK    1  A    between atoms: C_7  and  N_10
REMARK    2  A    between atoms: C_17  and  N_18
REMARK    3  A    between atoms: C_19  and  C_21
REMARK                            x       y       z     vdW  Elec       q    Type
REMARK                         _______ _______ _______ _____ _____    ______ ____
ROOT
ATOM     10  N   UNL     1      -2.522   2.566  24.120  0.00  0.00    -0.273 NA
ATOM     11  C   UNL     1      -1.801   2.500  23.702  0.00  0.00    +0.074 C 
ATOM     12  C   UNL     1      -1.746   1.517  23.620  0.00  0.00    +0.039 C 
ATOM     13  C   UNL     1      -1.554   0.739  23.471  0.00  0.00    +0.011 C 
ATOM     14  C   UNL     1      -2.071   1.095  23.786  0.00  0.00    +0.056 C 
ATOM     15  C   UNL     1      -2.110   2.047  23.857  0.00  0.00    +0.078 C 
ATOM     16  C   UNL     1      -2.863   0.970  24.235  0.00  0.00    +0.056 A 
ATOM     17  C   UNL     1      -3.364   0.369  24.494  0.00  0.00    +0.086 A 
ATOM     26  C   UNL     1      -4.057   0.556  24.901  0.00  0.00    +0.023 A 
ATOM     27  C   UNL     1      -4.247   1.345  25.051  0.00  0.00    +0.062 A 
ATOM     28  C   UNL     1      -3.745   1.947  24.792  0.00  0.00    +0.261 A 
ATOM     29  O   UNL     1      -4.304   2.444  25.139  0.00  0.00    -0.267 OA
ATOM     30  N   UNL     1      -3.053   1.759  24.385  0.00  0.00    -0.298 N 
ATOM     31  C   UNL     1      -2.574   1.396  24.091  0.00  0.00    +0.110 C 
ENDROOT
BRANCH  10   7
ATOM      1  C   UNL     1      -5.746   4.197  25.233  0.00  0.00    +0.095 C 
ATOM      2  C   UNL     1      -5.069   3.993  25.657  0.00  0.00    +0.226 C 
ATOM      3  O   UNL     1      -5.029   4.145  26.468  0.00  0.00    -0.275 OA
ATOM      4  N   UNL     1      -4.432   3.636  25.274  0.00  0.00    -0.279 N 
ATOM      5  C   UNL     1      -3.756   3.432  25.698  0.00  0.00    +0.095 C 
ATOM      6  C   UNL     1      -3.119   3.075  25.315  0.00  0.00    +0.038 C 
ATOM      7  C   UNL     1      -3.159   2.922  24.504  0.00  0.00    +0.061 C 
ATOM      8  C   UNL     1      -3.835   3.127  24.079  0.00  0.00    +0.038 C 
ATOM      9  C   UNL     1      -4.472   3.484  24.463  0.00  0.00    +0.095 C 
ENDBRANCH  10   7
BRANCH  17  18
ATOM     18  N   UNL     1      -3.174  -0.420  24.344  0.00  0.00    -0.172 NA
ATOM     19  C   UNL     1      -3.559  -1.022  24.755  0.00  0.00    +0.304 C 
ATOM     20  O   UNL     1      -4.135  -0.836  25.316  0.00  0.00    -0.265 OA
BRANCH  19  21
ATOM     21  C   UNL     1      -3.369  -1.811  24.606  0.00  0.00    +0.201 A 
ATOM     22  C   UNL     1      -3.848  -2.360  24.219  0.00  0.00    +0.046 A 
ATOM     23  C   UNL     1      -3.441  -3.077  24.192  0.00  0.00    +0.044 A 
ATOM     24  C   UNL     1      -2.711  -2.971  24.561  0.00  0.00    +0.180 A 
ATOM     25  O   UNL     1      -2.666  -2.189  24.817  0.00  0.00    -0.446 OA
ENDBRANCH  19  21
ENDBRANCH  17  18
TORSDOF 3
ENDMDL
MODEL 6
REMARK VINA RESULT:     -11.5      1.958      4.379
REMARK  Name = 
REMARK  3 active torsions:
REMARK  status: ('A' for Active; 'I' for Inactive)
REMARK    1  A    between atoms: C_7  and  N_10
REMARK    2  A    between atoms: C_17  and  N_18
REMARK    3  A    between atoms: C_19  and  C_21
REMARK                            x       y       z     vdW  Elec       q    Type
REMARK                         _______ _______ _______ _____ _____    ______ ____
ROOT
ATOM     10  N   UNL     1      -0.561   2.293  25.284  0.00  0.00    -0.273 NA
ATOM     11  C   UNL     1      -0.289   3.046  25.523  0.00  0.00    +0.074 C 
ATOM     12  C   UNL     1      -1.153   3.519  25.597  0.00  0.00    +0.039 C 
ATOM     13  C   UNL     1      -1.769   4.042  25.704  0.00  0.00    +0.011 C 
ATOM     14  C   UNL     1      -1.685   3.371  25.515  0.00  0.00    +0.056 C 
ATOM     15  C   UNL     1      -0.841   2.928  25.448  0.00  0.00    +0.078 C 
ATOM     16  C   UNL     1      -2.162   2.627  25.264  0.00  0.00    +0.056 A 
ATOM     17  C   UNL     1      -2.937   2.377  25.134  0.00  0.00    +0.086 A 
ATOM     26  C   UNL     1      -3.086   1.601  24.897  0.00  0.00    +0.023 A 
ATOM     27  C   UNL     1      -2.460   1.075  24.791  0.00  0.00    +0.062 A 
ATOM     28  C   UNL     1      -1.684   1.324  24.920  0.00  0.00    +0.261 A 
ATOM     29  O   UNL     1      -1.492   0.551  24.710  0.00  0.00    -0.267 OA
ATOM     30  N   UNL     1      -1.536   2.101  25.157  0.00  0.00    -0.298 N 
ATOM     31  C   UNL     1      -1.644   2.737  25.334  0.00  0.00    +0.110 C 
ENDROOT
BRANCH  10   7
ATOM      1  C   UNL     1      -0.525  -1.471  24.936  0.00  0.00    +0.095 C 
ATOM      2  C   UNL     1      -0.441  -0.876  24.372  0.00  0.00    +0.226 C 
ATOM      3  O   UNL     1      -0.328  -1.073  23.578  0.00  0.00    -0.275 OA
ATOM      4  N   UNL     1      -0.471  -0.084  24.599  0.00  0.00    -0.279 N 
ATOM      5  C   UNL     1      -0.388   0.512  24.035  0.00  0.00    +0.095 C 
ATOM      6  C   UNL     1      -0.418   1.304  24.263  0.00  0.00    +0.038 C 
ATOM      7  C   UNL     1      -0.531   1.501  25.056  0.00  0.00    +0.061 C 
ATOM      8  C   UNL     1      -0.615   0.906  25.621  0.00  0.00    +0.038 C 
ATOM      9  C   UNL     1      -0.585   0.113  25.393  0.00  0.00    +0.095 C 
ENDBRANCH  10   7
BRANCH  17  18
ATOM     18  N   UNL     1      -3.564   2.903  25.241  0.00  0.00    -0.172 NA
ATOM     19  C   UNL     1      -4.340   2.625  25.246  0.00  0.00    +0.304 C 
ATOM     20  O   UNL     1      -4.490   1.820  25.145  0.00  0.00    -0.265 OA
BRANCH  19  21
ATOM     21  C   UNL     1      -4.966   3.151  25.353  0.00  0.00    +0.201 A 
ATOM     22  C   UNL     1      -5.679   2.985  25.734  0.00  0.00    +0.046 A 
ATOM     23  C   UNL     1      -6.143   3.667  25.714  0.00  0.00    +0.044 A 
ATOM     24  C   UNL     1      -5.717   4.255  25.321  0.00  0.00    +0.180 A 
ATOM     25  O   UNL     1      -4.990   3.936  25.099  0.00  0.00    -0.446 OA
ENDBRANCH  19  21
ENDBRANCH  17  18
TORSDOF 3
ENDMDL
MODEL 7
REMARK VINA RESULT:     -11.4      1.986      5.348
REMARK  Name = 
REMARK  3 active torsions:
REMARK  status: ('A' for Active; 'I' for Inactive)
REMARK    1  A    between atoms: C_7  and  N_10
REMARK    2  A    between atoms: C_17  and  N_18
REMARK    3  A    between atoms: C_19  and  C_21
REMARK                            x       y       z     vdW  Elec       q    Type
REMARK                         _______ _______ _______ _____ _____    ______ ____
ROOT
ATOM     10  N   UNL     1      -0.646  -0.362  24.250  0.00  0.00    -0.273 NA
ATOM     11  C   UNL     1       0.141  -0.263  23.989  0.00  0.00    +0.074 C 
ATOM     12  C   UNL     1       0.217   0.720  24.057  0.00  0.00    +0.039 C 
ATOM     13  C   UNL     1       0.437   1.504  24.057  0.00  0.00    +0.011 C 
ATOM     14  C   UNL     1      -0.132   1.125  24.216  0.00  0.00    +0.056 C 
ATOM     15  C   UNL     1      -0.189   0.174  24.144  0.00  0.00    +0.078 C 
ATOM     16  C   UNL     1      -0.995   1.213  24.520  0.00  0.00    +0.056 A 
ATOM     17  C   UNL     1      -1.534   1.790  24.759  0.00  0.00    +0.086 A 
ATOM     26  C   UNL     1      -2.293   1.571  24.998  0.00  0.00    +0.023 A 
ATOM     27  C   UNL     1      -2.512   0.775  24.998  0.00  0.00    +0.062 A 
ATOM     28  C   UNL     1      -1.973   0.199  24.758  0.00  0.00    +0.261 A 
ATOM     29  O   UNL     1      -2.591  -0.323  24.920  0.00  0.00    -0.267 OA
ATOM     30  N   UNL     1      -1.215   0.418  24.519  0.00  0.00    -0.298 N 
ATOM     31  C   UNL     1      -0.686   0.802  24.374  0.00  0.00    +0.110 C 
ENDROOT
BRANCH  10   7
ATOM      1  C   UNL     1      -4.028  -2.036  24.491  0.00  0.00    +0.095 C 
ATOM      2  C   UNL     1      -3.449  -1.903  25.063  0.00  0.00    +0.226 C 
ATOM      3  O   UNL     1      -3.571  -2.155  25.840  0.00  0.00    -0.275 OA
ATOM      4  N   UNL     1      -2.749  -1.518  24.860  0.00  0.00    -0.279 N 
ATOM      5  C   UNL     1      -2.170  -1.384  25.432  0.00  0.00    +0.095 C 
ATOM      6  C   UNL     1      -1.470  -0.999  25.230  0.00  0.00    +0.038 C 
ATOM      7  C   UNL     1      -1.347  -0.747  24.453  0.00  0.00    +0.061 C 
ATOM      8  C   UNL     1      -1.926  -0.880  23.880  0.00  0.00    +0.038 C 
ATOM      9  C   UNL     1      -2.627  -1.266  24.084  0.00  0.00    +0.095 C 
ENDBRANCH  10   7
BRANCH  17  18
ATOM     18  N   UNL     1      -1.314   2.585  24.760  0.00  0.00    -0.172 NA
ATOM     19  C   UNL     1      -1.828   3.154  25.064  0.00  0.00    +0.304 C 
ATOM     20  O   UNL     1      -2.561   2.928  25.366  0.00  0.00    -0.265 OA
BRANCH  19  21
ATOM     21  C   UNL     1      -1.608   3.950  25.064  0.00  0.00    +0.201 A 
ATOM     22  C   UNL     1      -2.073   4.581  25.323  0.00  0.00    +0.046 A 
ATOM     23  C   UNL     1      -1.637   5.274  25.225  0.00  0.00    +0.044 A 
ATOM     24  C   UNL     1      -0.903   5.072  24.906  0.00  0.00    +0.180 A 
ATOM     25  O   UNL     1      -0.886   4.254  24.807  0.00  0.00    -0.446 OA
ENDBRANCH  19  21
ENDBRANCH  17  18
TORSDOF 3
ENDMDL
