MODEL 1
REMARK VINA RESULT:     -11.3      0.000      0.000
REMARK  Name = 
REMARK  3 active torsions:
REMARK  status: ('A' for Active; 'I' for Inactive)
REMARK    1  A    between atoms: C_4  and  C_8
REMARK    2  A    between atoms: C_15  and  O_17
REMARK    3  A    between atoms: O_17  and  C_18
REMARK                            x       y       z     vdW  Elec       q    Type
REMARK                         _______ _______ _______ _____ _____    ______ ____
ROOT
ATOM      8  C   UNL     1      -4.010   0.138  24.674  0.00  0.00    +0.249 C 
ATOM      9  O   UNL     1      -4.733   0.466  24.898  0.00  0.00    -0.270 OA
ATOM     10  N   UNL     1      -3.398   0.626  24.414  0.00  0.00    -0.270 N 
ATOM     11  C   UNL     1      -2.699   0.243  24.203  0.00  0.00    +0.126 C 
ATOM     12  C   UNL     1      -1.996   0.572  23.925  0.00  0.00    +0.164 C 
ATOM     13  O   UNL     1      -1.818   1.366  23.789  0.00  0.00    -0.348 OA
ATOM     14  C   UNL     1      -2.299   2.027  23.897  0.00  0.00    +0.187 C 
ATOM     15  C   UNL     1      -3.078   2.057  24.169  0.00  0.00    +0.217 C 
ATOM     16  C   UNL     1      -3.567   1.434  24.398  0.00  0.00    +0.140 C 
ENDROOT
BRANCH   8   4
ATOM      1  F   UNL     1      -4.266  -2.450  23.490  0.00  0.00    -0.204 F 
ATOM      2  C   UNL     1      -4.027  -1.973  24.118  0.00  0.00    +0.140 A 
ATOM      3  C   UNL     1      -4.138  -1.156  24.082  0.00  0.00    +0.034 A 
ATOM      4  C   UNL     1      -3.899  -0.679  24.710  0.00  0.00    +0.056 A 
ATOM      5  C   UNL     1      -3.548  -1.018  25.376  0.00  0.00    +0.005 A 
ATOM      6  C   UNL     1      -3.437  -1.835  25.412  0.00  0.00    +0.002 A 
ATOM      7  C   UNL     1      -3.676  -2.312  24.784  0.00  0.00    +0.030 A 
ENDBRANCH   8   4
BRANCH  15  17
ATOM     17  O   UNL     1      -3.412   2.810  24.216  0.00  0.00    -0.459 OA
BRANCH  17  18
ATOM     18  C   UNL     1      -3.203   3.315  24.834  0.00  0.00    +0.245 A 
ATOM     19  C   UNL     1      -3.714   3.419  25.473  0.00  0.00    +0.156 A 
ATOM     20  N   UNL     1      -3.505   3.924  26.090  0.00  0.00    -0.236 NA
ATOM     21  C   UNL     1      -2.786   4.327  26.069  0.00  0.00    +0.120 A 
ATOM     22  C   UNL     1      -2.275   4.223  25.429  0.00  0.00    +0.123 A 
ATOM     23  N   UNL     1      -2.484   3.718  24.812  0.00  0.00    -0.207 NA
ENDBRANCH  17  18
ENDBRANCH  15  17
TORSDOF 3
ENDMDL
MODEL 2
REMARK VINA RESULT:     -10.6      1.729      2.133
REMARK  Name = 
REMARK  3 active torsions:
REMARK  status: ('A' for Active; 'I' for Inactive)
REMARK    1  A    between atoms: C_4  and  C_8
REMARK    2  A    between atoms: C_15  and  O_17
REMARK    3  A    between atoms: O_17  and  C_18
REMARK                            x       y       z     vdW  Elec       q    Type
REMARK                         _______ _______ _______ _____ _____    ______ ____
ROOT
ATOM      8  C   UNL     1      -2.939  -0.743  25.253  0.00  0.00    +0.249 C 
ATOM      9  O   UNL     1      -3.392  -0.273  25.757  0.00  0.00    -0.270 OA
ATOM     10  N   UNL     1      -2.157  -0.536  25.087  0.00  0.00    -0.270 N 
ATOM     11  C   UNL     1      -1.753  -1.042  24.577  0.00  0.00    +0.126 C 
ATOM     12  C   UNL     1      -0.976  -0.988  24.308  0.00  0.00    +0.164 C 
ATOM     13  O   UNL     1      -0.410  -0.413  24.482  0.00  0.00    -0.348 OA
ATOM     14  C   UNL     1      -0.482   0.249  24.969  0.00  0.00    +0.187 C 
ATOM     15  C   UNL     1      -1.138   0.499  25.402  0.00  0.00    +0.217 C 
ATOM     16  C   UNL     1      -1.884   0.150  25.454  0.00  0.00    +0.140 C 
ENDROOT
BRANCH   8   4
ATOM      1  F   UNL     1      -4.510  -1.974  23.208  0.00  0.00    -0.204 F 
ATOM      2  C   UNL     1      -4.052  -2.035  23.891  0.00  0.00    +0.140 A 
ATOM      3  C   UNL     1      -3.724  -1.359  24.230  0.00  0.00    +0.034 A 
ATOM      4  C   UNL     1      -3.266  -1.420  24.913  0.00  0.00    +0.056 A 
ATOM      5  C   UNL     1      -3.135  -2.158  25.257  0.00  0.00    +0.005 A 
ATOM      6  C   UNL     1      -3.463  -2.836  24.918  0.00  0.00    +0.002 A 
ATOM      7  C   UNL     1      -3.921  -2.774  24.235  0.00  0.00    +0.030 A 
ENDBRANCH   8   4
BRANCH  15  17
ATOM     17  O   UNL     1      -1.036   1.191  25.840  0.00  0.00    -0.459 OA
BRANCH  17  18
ATOM     18  C   UNL     1      -0.946   1.914  25.455  0.00  0.00    +0.245 A 
ATOM     19  C   UNL     1      -0.193   2.232  25.342  0.00  0.00    +0.156 A 
ATOM     20  N   UNL     1      -0.104   2.955  24.956  0.00  0.00    -0.236 NA
ATOM     21  C   UNL     1      -0.767   3.362  24.683  0.00  0.00    +0.120 A 
ATOM     22  C   UNL     1      -1.520   3.045  24.796  0.00  0.00    +0.123 A 
ATOM     23  N   UNL     1      -1.610   2.321  25.182  0.00  0.00    -0.207 NA
ENDBRANCH  17  18
ENDBRANCH  15  17
TORSDOF 3
ENDMDL
MODEL 3
REMARK VINA RESULT:     -10.4      2.237      4.838
REMARK  Name = 
REMARK  3 active torsions:
REMARK  status: ('A' for Active; 'I' for Inactive)
REMARK    1  A    between atoms: C_4  and  C_8
REMARK    2  A    between atoms: C_15  and  O_17
REMARK    3  A    between atoms: O_17  and  C_18
REMARK                            x       y       z     vdW  Elec       q    Type
REMARK                         _______ _______ _______ _____ _____    ______ ____
ROOT
ATOM      8  C   UNL     1      -1.460   2.577  25.371  0.00  0.00    +0.249 C 
ATOM      9  O   UNL     1      -0.976   2.218  25.934  0.00  0.00    -0.270 OA
ATOM     10  N   UNL     1      -1.869   2.115  24.823  0.00  0.00    -0.270 N 
ATOM     11  C   UNL     1      -2.337   2.528  24.285  0.00  0.00    +0.126 C 
ATOM     12  C   UNL     1      -2.808   2.229  23.677  0.00  0.00    +0.164 C 
ATOM     13  O   UNL     1      -2.925   1.443  23.457  0.00  0.00    -0.348 OA
ATOM     14  C   UNL     1      -2.602   0.761  23.790  0.00  0.00    +0.187 C 
ATOM     15  C   UNL     1      -2.081   0.698  24.426  0.00  0.00    +0.217 C 
ATOM     16  C   UNL     1      -1.755   1.300  24.886  0.00  0.00    +0.140 C 
ENDROOT
BRANCH   8   4
ATOM      1  F   UNL     1      -0.455   5.142  24.612  0.00  0.00    -0.204 F 
ATOM      2  C   UNL     1      -1.034   4.681  24.976  0.00  0.00    +0.140 A 
ATOM      3  C   UNL     1      -0.958   3.859  24.991  0.00  0.00    +0.034 A 
ATOM      4  C   UNL     1      -1.536   3.399  25.355  0.00  0.00    +0.056 A 
ATOM      5  C   UNL     1      -2.191   3.758  25.705  0.00  0.00    +0.005 A 
ATOM      6  C   UNL     1      -2.267   4.580  25.690  0.00  0.00    +0.002 A 
ATOM      7  C   UNL     1      -1.689   5.041  25.326  0.00  0.00    +0.030 A 
ENDBRANCH   8   4
BRANCH  15  17
ATOM     17  O   UNL     1      -1.856  -0.069  24.630  0.00  0.00    -0.459 OA
BRANCH  17  18
ATOM     18  C   UNL     1      -2.426  -0.619  24.858  0.00  0.00    +0.245 A 
ATOM     19  C   UNL     1      -2.671  -1.204  24.330  0.00  0.00    +0.156 A 
ATOM     20  N   UNL     1      -3.241  -1.754  24.558  0.00  0.00    -0.236 NA
ATOM     21  C   UNL     1      -3.568  -1.720  25.315  0.00  0.00    +0.120 A 
ATOM     22  C   UNL     1      -3.323  -1.136  25.844  0.00  0.00    +0.123 A 
ATOM     23  N   UNL     1      -2.752  -0.586  25.615  0.00  0.00    -0.207 NA
ENDBRANCH  17  18
ENDBRANCH  15  17
TORSDOF 3
ENDMDL
