MODEL 1
REMARK VINA RESULT:     -11.1      0.000      0.000
REMARK  Name = 
REMARK  6 active torsions:
REMARK  status: ('A' for Active; 'I' for Inactive)
REMARK    1  A    between atoms: C_2  and  C_3
REMARK    2  A    between atoms: C_6  and  C_7
REMARK    3  A    between atoms: C_7  and  N_8
REMARK    4  A    between atoms: C_12  and  C_13
REMARK    5  A    between atoms: C_15  and  C_18
REMARK    6  A    between atoms: C_22  and  N_24
REMARK                            x       y       z     vdW  Elec       q    Type
REMARK                         _______ _______ _______ _____ _____    ______ ____
ROOT
ATOM     13  C   UNL     1      -4.440   2.846  24.897  0.00  0.00    +0.251 A 
ATOM     14  N   UNL     1      -3.689   2.941  25.225  0.00  0.00    -0.190 NA
ATOM     15  C   UNL     1      -3.316   3.562  24.830  0.00  0.00    +0.203 A 
ATOM     16  N   UNL     1      -3.837   3.850  24.259  0.00  0.00    -0.056 NA
ATOM     17  O   UNL     1      -4.532   3.408  24.300  0.00  0.00    -0.336 OA
ENDROOT
BRANCH  15  18
ATOM     18  C   UNL     1      -2.556   3.845  24.980  0.00  0.00    +0.043 A 
ATOM     19  C   UNL     1      -2.429   4.653  25.083  0.00  0.00    +0.024 A 
ATOM     20  C   UNL     1      -1.668   4.936  25.233  0.00  0.00    +0.100 A 
ATOM     21  N   UNL     1      -1.035   4.410  25.280  0.00  0.00    -0.229 NA
ATOM     22  C   UNL     1      -1.161   3.601  25.176  0.00  0.00    +0.132 A 
ATOM     23  C   UNL     1      -1.922   3.318  25.026  0.00  0.00    +0.037 A 
BRANCH  22  24
ATOM     24  N   UNL     1      -0.528   3.075  25.223  0.00  0.00    -0.288 N 
ATOM     25  C   UNL     1      -0.232   2.851  25.959  0.00  0.00    +0.124 C 
ATOM     26  C   UNL     1       0.402   2.324  26.006  0.00  0.00    +0.164 C 
ATOM     27  O   UNL     1       0.740   2.022  25.317  0.00  0.00    -0.350 OA
ATOM     28  C   UNL     1       0.444   2.247  24.580  0.00  0.00    +0.164 C 
ATOM     29  C   UNL     1      -0.190   2.773  24.533  0.00  0.00    +0.124 C 
ENDBRANCH  22  24
ENDBRANCH  15  18
BRANCH  13  12
ATOM      8  N   UNL     1      -4.984   1.481  24.949  0.00  0.00    -0.260 NA
ATOM      9  C   UNL     1      -5.651   1.131  25.287  0.00  0.00    +0.073 C 
ATOM     10  C   UNL     1      -6.080   1.720  25.673  0.00  0.00    +0.019 C 
ATOM     11  C   UNL     1      -5.679   2.434  25.575  0.00  0.00    +0.027 C 
ATOM     12  C   UNL     1      -5.002   2.287  25.127  0.00  0.00    +0.138 C 
BRANCH   8   7
ATOM      7  C   UNL     1      -4.403   1.094  24.510  0.00  0.00    +0.138 C 
BRANCH   7   6
ATOM      3  C   UNL     1      -3.841  -0.857  25.168  0.00  0.00    +0.156 A 
ATOM      4  C   UNL     1      -4.244  -1.035  24.470  0.00  0.00    +0.038 A 
ATOM      5  C   UNL     1      -4.504  -0.325  24.139  0.00  0.00    +0.037 A 
ATOM      6  C   UNL     1      -4.261   0.290  24.632  0.00  0.00    +0.139 A 
ATOM     30  O   UNL     1      -3.851  -0.039  25.268  0.00  0.00    -0.458 OA
BRANCH   3   2
ATOM      1  O   UNL     1      -3.482  -2.205  25.480  0.00  0.00    -0.212 OA
ATOM      2  C   UNL     1      -3.488  -1.403  25.676  0.00  0.00    +0.246 C 
ENDBRANCH   3   2
ENDBRANCH   7   6
ENDBRANCH   8   7
ENDBRANCH  13  12
TORSDOF 6
ENDMDL
MODEL 2
REMARK VINA RESULT:     -11.0      1.677      3.154
REMARK  Name = 
REMARK  6 active torsions:
REMARK  status: ('A' for Active; 'I' for Inactive)
REMARK    1  A    between atoms: C_2  and  C_3
REMARK    2  A    between atoms: C_6  and  C_7
REMARK    3  A    between atoms: C_7  and  N_8
REMARK    4  A    between atoms: C_12  and  C_13
REMARK    5  A    between atoms: C_15  and  C_18
REMARK    6  A    between atoms: C_22  and  N_24
REMARK                            x       y       z     vdW  Elec       q    Type
REMARK                         _______ _______ _______ _____ _____    ______ ____
ROOT
ATOM     13  C   UNL     1      -4.068  -0.036  24.761  0.00  0.00    +0.251 A 
ATOM     14  N   UNL     1      -3.793   0.650  24.395  0.00  0.00    -0.190 NA
ATOM     15  C   UNL     1      -4.115   1.297  24.793  0.00  0.00    +0.203 A 
ATOM     16  N   UNL     1      -4.589   1.010  25.403  0.00  0.00    -0.056 NA
ATOM     17  O   UNL     1      -4.561   0.187  25.384  0.00  0.00    -0.336 OA
ENDROOT
BRANCH  15  18
ATOM     18  C   UNL     1      -3.986   2.091  24.611  0.00  0.00    +0.043 A 
ATOM     19  C   UNL     1      -4.580   2.533  24.247  0.00  0.00    +0.024 A 
ATOM     20  C   UNL     1      -4.450   3.327  24.065  0.00  0.00    +0.100 A 
ATOM     21  N   UNL     1      -3.727   3.679  24.247  0.00  0.00    -0.229 NA
ATOM     22  C   UNL     1      -3.133   3.238  24.611  0.00  0.00    +0.132 A 
ATOM     23  C   UNL     1      -3.262   2.444  24.793  0.00  0.00    +0.037 A 
BRANCH  22  24
ATOM     24  N   UNL     1      -2.410   3.590  24.794  0.00  0.00    -0.288 N 
ATOM     25  C   UNL     1      -1.708   3.252  24.524  0.00  0.00    +0.124 C 
ATOM     26  C   UNL     1      -0.984   3.604  24.706  0.00  0.00    +0.164 C 
ATOM     27  O   UNL     1      -0.962   4.294  25.158  0.00  0.00    -0.350 OA
ATOM     28  C   UNL     1      -1.665   4.632  25.428  0.00  0.00    +0.164 C 
ATOM     29  C   UNL     1      -2.389   4.280  25.246  0.00  0.00    +0.124 C 
ENDBRANCH  22  24
ENDBRANCH  15  18
BRANCH  13  12
ATOM      8  N   UNL     1      -3.213  -1.232  24.773  0.00  0.00    -0.260 NA
ATOM      9  C   UNL     1      -3.252  -1.980  24.426  0.00  0.00    +0.073 C 
ATOM     10  C   UNL     1      -3.945  -2.021  23.981  0.00  0.00    +0.019 C 
ATOM     11  C   UNL     1      -4.336  -1.297  24.052  0.00  0.00    +0.027 C 
ATOM     12  C   UNL     1      -3.883  -0.810  24.541  0.00  0.00    +0.138 C 
BRANCH   8   7
ATOM      7  C   UNL     1      -2.611  -0.956  25.263  0.00  0.00    +0.138 C 
BRANCH   7   6
ATOM      3  C   UNL     1      -0.603  -1.004  24.540  0.00  0.00    +0.156 A 
ATOM      4  C   UNL     1      -0.614  -1.672  25.025  0.00  0.00    +0.038 A 
ATOM      5  C   UNL     1      -1.367  -1.735  25.355  0.00  0.00    +0.037 A 
ATOM      6  C   UNL     1      -1.822  -1.106  25.074  0.00  0.00    +0.139 A 
ATOM     30  O   UNL     1      -1.350  -0.655  24.571  0.00  0.00    -0.458 OA
BRANCH   3   2
ATOM      1  O   UNL     1      -0.007  -0.016  23.697  0.00  0.00    -0.212 OA
ATOM      2  C   UNL     1       0.041  -0.733  24.102  0.00  0.00    +0.246 C 
ENDBRANCH   3   2
ENDBRANCH   7   6
ENDBRANCH   8   7
ENDBRANCH  13  12
TORSDOF 6
ENDMDL
MODEL 3
REMARK VINA RESULT:     -11.0      1.675      3.971
REMARK  Name = 
REMARK  6 active torsions:
REMARK  status: ('A' for Active; 'I' for Inactive)
REMARK    1  A    between atoms: C_2  and  C_3
REMARK    2  A    between atoms: C_6  and  C_7
REMARK    3  A    between atoms: C_7  and  N_8
REMARK    4  A    between atoms: C_12  and  C_13
REMARK    5  A    between atoms: C_15  and  C_18
REMARK    6  A    between atoms: C_22  and  N_24
REMARK                            x       y       z     vdW  Elec       q    Type
REMARK                         _______ _______ _______ _____ _____    ______ ____
ROOT
ATOM     13  C   UNL     1      -0.614   1.241  24.826  0.00  0.00    +0.251 A 
ATOM     14  N   UNL     1      -1.232   1.742  24.609  0.00  0.00    -0.190 NA
ATOM     15  C   UNL     1      -1.345   2.284  25.220  0.00  0.00    +0.203 A 
ATOM     16  N   UNL     1      -0.797   2.118  25.814  0.00  0.00    -0.056 NA
ATOM     17  O   UNL     1      -0.345   1.473  25.570  0.00  0.00    -0.336 OA
ENDROOT
BRANCH  15  18
ATOM     18  C   UNL     1      -1.908   2.887  25.235  0.00  0.00    +0.043 A 
ATOM     19  C   UNL     1      -1.668   3.676  25.263  0.00  0.00    +0.024 A 
ATOM     20  C   UNL     1      -2.231   4.279  25.277  0.00  0.00    +0.100 A 
ATOM     21  N   UNL     1      -3.034   4.093  25.265  0.00  0.00    -0.229 NA
ATOM     22  C   UNL     1      -3.275   3.304  25.237  0.00  0.00    +0.132 A 
ATOM     23  C   UNL     1      -2.712   2.702  25.223  0.00  0.00    +0.037 A 
BRANCH  22  24
ATOM     24  N   UNL     1      -4.078   3.119  25.225  0.00  0.00    -0.288 N 
ATOM     25  C   UNL     1      -4.578   3.409  25.814  0.00  0.00    +0.124 C 
ATOM     26  C   UNL     1      -5.382   3.223  25.801  0.00  0.00    +0.164 C 
ATOM     27  O   UNL     1      -5.687   2.747  25.200  0.00  0.00    -0.350 OA
ATOM     28  C   UNL     1      -5.187   2.456  24.612  0.00  0.00    +0.164 C 
ATOM     29  C   UNL     1      -4.383   2.642  24.624  0.00  0.00    +0.124 C 
ENDBRANCH  22  24
ENDBRANCH  15  18
BRANCH  13  12
ATOM      8  N   UNL     1      -0.486  -0.184  24.485  0.00  0.00    -0.260 NA
ATOM      9  C   UNL     1      -0.072  -0.612  23.915  0.00  0.00    +0.073 C 
ATOM     10  C   UNL     1       0.354  -0.078  23.452  0.00  0.00    +0.019 C 
ATOM     11  C   UNL     1       0.203   0.682  23.737  0.00  0.00    +0.027 C 
ATOM     12  C   UNL     1      -0.316   0.616  24.375  0.00  0.00    +0.138 C 
BRANCH   8   7
ATOM      7  C   UNL     1      -0.982  -0.500  25.063  0.00  0.00    +0.138 C 
BRANCH   7   6
ATOM      3  C   UNL     1      -2.429  -1.992  24.577  0.00  0.00    +0.156 A 
ATOM      4  C   UNL     1      -1.767  -2.458  24.738  0.00  0.00    +0.038 A 
ATOM      5  C   UNL     1      -1.145  -1.956  24.940  0.00  0.00    +0.037 A 
ATOM      6  C   UNL     1      -1.422  -1.180  24.903  0.00  0.00    +0.139 A 
ATOM     30  O   UNL     1      -2.215  -1.202  24.680  0.00  0.00    -0.458 OA
BRANCH   3   2
ATOM      1  O   UNL     1      -3.603  -2.756  24.862  0.00  0.00    -0.212 OA
ATOM      2  C   UNL     1      -3.174  -2.267  24.354  0.00  0.00    +0.246 C 
ENDBRANCH   3   2
ENDBRANCH   7   6
ENDBRANCH   8   7
ENDBRANCH  13  12
TORSDOF 6
ENDMDL
MODEL 4
REMARK VINA RESULT:     -10.8      1.959      4.525
REMARK  Name = 
REMARK  6 active torsions:
REMARK  status: ('A' for Active; 'I' for Inactive)
REMARK    1  A    between atoms: C_2  and  C_3
REMARK    2  A    between atoms: C_6  and  C_7
REMARK    3  A    between atoms: C_7  and  N_8
REMARK    4  A    between atoms: C_12  and  C_13
REMARK    5  A    between atoms: C_15  and  C_18
REMARK    6  A    between atoms: C_22  and  N_24
REMARK                            x       y       z     vdW  Elec       q    Type
REMARK                         _______ _______ _______ _____ _____    ______ ____
ROOT
ATOM     13  C   UNL     1      -1.500   2.268  24.546  0.00  0.00    +0.251 A 
ATOM     14  N   UNL     1      -1.480   1.531  24.916  0.00  0.00    -0.190 NA
ATOM     15  C   UNL     1      -1.231   0.974  24.360  0.00  0.00    +0.203 A 
ATOM     16  N   UNL     1      -1.098   1.367  23.647  0.00  0.00    -0.056 NA
ATOM     17  O   UNL     1      -1.264   2.167  23.762  0.00  0.00    -0.336 OA
ENDROOT
BRANCH  15  18
ATOM     18  C   UNL     1      -1.133   0.166  24.493  0.00  0.00    +0.043 A 
ATOM     19  C   UNL     1      -0.375  -0.158  24.523  0.00  0.00    +0.024 A 
ATOM     20  C   UNL     1      -0.277  -0.967  24.657  0.00  0.00    +0.100 A 
ATOM     21  N   UNL     1      -0.937  -1.450  24.761  0.00  0.00    -0.229 NA
ATOM     22  C   UNL     1      -1.695  -1.126  24.731  0.00  0.00    +0.132 A 
ATOM     23  C   UNL     1      -1.793  -0.318  24.597  0.00  0.00    +0.037 A 
BRANCH  22  24
ATOM     24  N   UNL     1      -2.355  -1.610  24.835  0.00  0.00    -0.288 N 
ATOM     25  C   UNL     1      -2.890  -1.451  25.442  0.00  0.00    +0.124 C 
ATOM     26  C   UNL     1      -3.551  -1.935  25.547  0.00  0.00    +0.164 C 
ATOM     27  O   UNL     1      -3.676  -2.577  25.044  0.00  0.00    -0.350 OA
ATOM     28  C   UNL     1      -3.141  -2.735  24.436  0.00  0.00    +0.164 C 
ATOM     29  C   UNL     1      -2.480  -2.252  24.332  0.00  0.00    +0.124 C 
ENDBRANCH  22  24
ENDBRANCH  15  18
BRANCH  13  12
ATOM      8  N   UNL     1      -2.463   3.334  24.858  0.00  0.00    -0.260 NA
ATOM      9  C   UNL     1      -2.435   4.038  25.288  0.00  0.00    +0.073 C 
ATOM     10  C   UNL     1      -1.674   4.120  25.595  0.00  0.00    +0.019 C 
ATOM     11  C   UNL     1      -1.230   3.467  25.354  0.00  0.00    +0.027 C 
ATOM     12  C   UNL     1      -1.718   2.982  24.899  0.00  0.00    +0.138 C 
BRANCH   8   7
ATOM      7  C   UNL     1      -3.119   3.037  24.458  0.00  0.00    +0.138 C 
BRANCH   7   6
ATOM      3  C   UNL     1      -5.027   2.904  25.406  0.00  0.00    +0.156 A 
ATOM      4  C   UNL     1      -5.049   3.674  25.111  0.00  0.00    +0.038 A 
ATOM      5  C   UNL     1      -4.337   3.818  24.721  0.00  0.00    +0.037 A 
ATOM      6  C   UNL     1      -3.875   3.136  24.773  0.00  0.00    +0.139 A 
ATOM     30  O   UNL     1      -4.302   2.571  25.196  0.00  0.00    -0.458 OA
BRANCH   3   2
ATOM      1  O   UNL     1      -5.800   2.779  26.602  0.00  0.00    -0.212 OA
ATOM      2  C   UNL     1      -5.626   2.531  25.834  0.00  0.00    +0.246 C 
ENDBRANCH   3   2
ENDBRANCH   7   6
ENDBRANCH   8   7
ENDBRANCH  13  12
TORSDOF 6
ENDMDL
MODEL 5
REMARK VINA RESULT:     -10.8      1.893      4.530
REMARK  Name = 
REMARK  6 active torsions:
REMARK  status: ('A' for Active; 'I' for Inactive)
REMARK    1  A    between atoms: C_2  and  C_3
REMARK    2  A    between atoms: C_6  and  C_7
REMARK    3  A    between atoms: C_7  and  N_8
REMARK    4  A    between atoms: C_12  and  C_13
REMARK    5  A    between atoms: C_15  and  C_18
REMARK    6  A    between atoms: C_22  and  N_24
REMARK                            x       y       z     vdW  Elec       q    Type
REMARK                         _______ _______ _______ _____ _____    ______ ____
ROOT
ATOM     13  C   UNL     1      -4.227   1.689  24.489  0.00  0.00    +0.251 A 
ATOM     14  N   UNL     1      -4.093   0.952  24.837  0.00  0.00    -0.190 NA
ATOM     15  C   UNL     1      -3.859   0.430  24.242  0.00  0.00    +0.203 A 
ATOM     16  N   UNL     1      -3.849   0.844  23.529  0.00  0.00    -0.056 NA
ATOM     17  O   UNL     1      -4.075   1.622  23.681  0.00  0.00    -0.336 OA
ENDROOT
BRANCH  15  18
ATOM     18  C   UNL     1      -3.670  -0.366  24.344  0.00  0.00    +0.043 A 
ATOM     19  C   UNL     1      -4.246  -0.945  24.232  0.00  0.00    +0.024 A 
ATOM     20  C   UNL     1      -4.057  -1.742  24.334  0.00  0.00    +0.100 A 
ATOM     21  N   UNL     1      -3.291  -1.959  24.547  0.00  0.00    -0.229 NA
ATOM     22  C   UNL     1      -2.713  -1.380  24.658  0.00  0.00    +0.132 A 
ATOM     23  C   UNL     1      -2.903  -0.584  24.557  0.00  0.00    +0.037 A 
BRANCH  22  24
ATOM     24  N   UNL     1      -1.947  -1.597  24.871  0.00  0.00    -0.288 N 
ATOM     25  C   UNL     1      -1.521  -1.135  25.405  0.00  0.00    +0.124 C 
ATOM     26  C   UNL     1      -0.754  -1.352  25.619  0.00  0.00    +0.164 C 
ATOM     27  O   UNL     1      -0.413  -2.032  25.298  0.00  0.00    -0.350 OA
ATOM     28  C   UNL     1      -0.839  -2.494  24.764  0.00  0.00    +0.164 C 
ATOM     29  C   UNL     1      -1.606  -2.277  24.551  0.00  0.00    +0.124 C 
ENDBRANCH  22  24
ENDBRANCH  15  18
BRANCH  13  12
ATOM      8  N   UNL     1      -3.973   2.930  25.237  0.00  0.00    -0.260 NA
ATOM      9  C   UNL     1      -4.447   3.521  25.564  0.00  0.00    +0.073 C 
ATOM     10  C   UNL     1      -5.235   3.330  25.412  0.00  0.00    +0.019 C 
ATOM     11  C   UNL     1      -5.249   2.620  24.991  0.00  0.00    +0.027 C 
ATOM     12  C   UNL     1      -4.469   2.373  24.883  0.00  0.00    +0.138 C 
BRANCH   8   7
ATOM      7  C   UNL     1      -3.150   2.901  25.260  0.00  0.00    +0.138 C 
BRANCH   7   6
ATOM      3  C   UNL     1      -1.957   4.671  25.240  0.00  0.00    +0.156 A 
ATOM      4  C   UNL     1      -2.143   4.613  26.042  0.00  0.00    +0.038 A 
ATOM      5  C   UNL     1      -2.613   3.944  26.146  0.00  0.00    +0.037 A 
ATOM      6  C   UNL     1      -2.716   3.587  25.410  0.00  0.00    +0.139 A 
ATOM     30  O   UNL     1      -2.311   4.036  24.850  0.00  0.00    -0.458 OA
BRANCH   3   2
ATOM      1  O   UNL     1      -0.673   5.198  24.896  0.00  0.00    -0.212 OA
ATOM      2  C   UNL     1      -1.497   5.259  24.890  0.00  0.00    +0.246 C 
ENDBRANCH   3   2
ENDBRANCH   7   6
ENDBRANCH   8   7
ENDBRANCH  13  12
TORSDOF 6
ENDMDL
