MODEL 1
REMARK VINA RESULT:     -12.2      0.000      0.000
REMARK  Name = 
REMARK  8 active torsions:
REMARK  status: ('A' for Active; 'I' for Inactive)
REMARK    1  A    between atoms: C_2  and  C_4
REMARK    2  A    between atoms: C_6  and  C_7
REMARK    3  A    between atoms: C_7  and  C_8
REMARK    4  A    between atoms: N_10  and  C_11
REMARK    5  A    between atoms: C_11  and  C_12
REMARK    6  A    between atoms: C_21  and  C_22
REMARK    7  A    between atoms: C_22  and  N_23
REMARK    8  A    between atoms: C_24  and  C_26
REMARK                            x       y       z     vdW  Elec       q    Type
REMARK                         _______ _______ _______ _____ _____    ______ ____
ROOT
ATOM      4  C   UNL     1      -3.545   1.770  23.879  0.00  0.00    +0.006 C 
ATOM      5  C   UNL     1      -3.675   2.511  24.218  0.00  0.00    +0.005 C 
ATOM      6  C   UNL     1      -4.276   2.609  24.776  0.00  0.00    +0.027 C 
ATOM     18  C   UNL     1      -4.747   1.967  24.993  0.00  0.00    -0.048 C 
ATOM     19  C   UNL     1      -5.347   2.065  25.550  0.00  0.00    +0.026 C 
ATOM     20  C   UNL     1      -4.617   1.226  24.653  0.00  0.00    -0.033 C 
ATOM     21  C   UNL     1      -4.016   1.128  24.097  0.00  0.00    +0.043 C 
ENDROOT
BRANCH   4   2
ATOM      1  C   UNL     1      -3.093   1.824  22.525  0.00  0.00    +0.000 C 
ATOM      2  C   UNL     1      -2.944   1.672  23.323  0.00  0.00    +0.000 C 
ATOM      3  C   UNL     1      -2.196   1.422  23.563  0.00  0.00    +0.000 C 
ENDBRANCH   4   2
BRANCH   6   7
ATOM      7  C   UNL     1      -4.405   3.350  25.115  0.00  0.00    +0.091 C 
BRANCH   7   8
ATOM      8  C   UNL     1      -3.831   3.686  25.604  0.00  0.00    +0.242 C 
ATOM      9  O   UNL     1      -3.881   3.595  26.422  0.00  0.00    -0.273 OA
ATOM     10  N   UNL     1      -3.206   4.111  25.273  0.00  0.00    -0.200 NA
BRANCH  10  11
ATOM     11  C   UNL     1      -2.632   4.447  25.762  0.00  0.00    +0.143 C 
BRANCH  11  12
ATOM     12  C   UNL     1      -1.896   4.654  25.450  0.00  0.00    +0.019 A 
ATOM     13  C   UNL     1      -1.795   5.385  25.082  0.00  0.00    +0.001 A 
ATOM     14  C   UNL     1      -1.058   5.591  24.771  0.00  0.00    +0.020 A 
ATOM     15  C   UNL     1      -0.425   5.066  24.828  0.00  0.00    +0.099 A 
ATOM     16  N   UNL     1      -0.527   4.335  25.196  0.00  0.00    -0.243 NA
ATOM     17  C   UNL     1      -1.262   4.128  25.508  0.00  0.00    +0.096 A 
ENDBRANCH  11  12
ENDBRANCH  10  11
ENDBRANCH   7   8
ENDBRANCH   6   7
BRANCH  21  22
ATOM     22  C   UNL     1      -3.886   0.388  23.757  0.00  0.00    +0.120 C 
BRANCH  22  23
ATOM     23  N   UNL     1      -3.714  -0.261  24.238  0.00  0.00    -0.201 NA
ATOM     24  C   UNL     1      -3.867  -1.027  23.968  0.00  0.00    +0.265 C 
ATOM     25  O   UNL     1      -4.192  -1.143  23.219  0.00  0.00    -0.268 OA
BRANCH  24  26
ATOM     26  C   UNL     1      -3.694  -1.675  24.449  0.00  0.00    +0.057 A 
ATOM     27  C   UNL     1      -3.489  -1.558  25.239  0.00  0.00    +0.005 A 
ATOM     28  C   UNL     1      -3.316  -2.206  25.720  0.00  0.00    +0.002 A 
ATOM     29  C   UNL     1      -3.349  -2.970  25.411  0.00  0.00    +0.030 A 
ATOM     30  C   UNL     1      -3.554  -3.087  24.620  0.00  0.00    +0.140 A 
ATOM     31  F   UNL     1      -3.587  -3.851  24.310  0.00  0.00    -0.204 F 
ATOM     32  C   UNL     1      -3.727  -2.439  24.139  0.00  0.00    +0.034 A 
ENDBRANCH  24  26
ENDBRANCH  22  23
ENDBRANCH  21  22
TORSDOF 8
ENDMDL
MODEL 2
REMARK VINA RESULT:     -12.1      1.031      1.916
REMARK  Name = 
REMARK  8 active torsions:
REMARK  status: ('A' for Active; 'I' for Inactive)
REMARK    1  A    between atoms: C_2  and  C_4
REMARK    2  A    between atoms: C_6  and  C_7
REMARK    3  A    between atoms: C_7  and  C_8
REMARK    4  A    between atoms: N_10  and  C_11
REMARK    5  A    between atoms: C_11  and  C_12
REMARK    6  A    between atoms: C_21  and  C_22
REMARK    7  A    between atoms: C_22  and  N_23
REMARK    8  A    between atoms: C_24  and  C_26
REMARK                            x       y       z     vdW  Elec       q    Type
REMARK                         _______ _______ _______ _____ _____    ______ ____
ROOT
ATOM      4  C   UNL     1      -4.536   1.833  24.605  0.00  0.00    +0.006 C 
ATOM      5  C   UNL     1      -4.170   2.558  24.460  0.00  0.00    +0.005 C 
ATOM      6  C   UNL     1      -3.547   2.605  23.920  0.00  0.00    +0.027 C 
ATOM     18  C   UNL     1      -3.291   1.926  23.526  0.00  0.00    -0.048 C 
ATOM     19  C   UNL     1      -2.669   1.972  22.987  0.00  0.00    +0.026 C 
ATOM     20  C   UNL     1      -3.657   1.201  23.672  0.00  0.00    -0.033 C 
ATOM     21  C   UNL     1      -4.279   1.155  24.212  0.00  0.00    +0.043 C 
ENDROOT
BRANCH   4   2
ATOM      1  C   UNL     1      -5.000   1.662  25.946  0.00  0.00    +0.000 C 
ATOM      2  C   UNL     1      -5.158   1.787  25.145  0.00  0.00    +0.000 C 
ATOM      3  C   UNL     1      -5.937   1.866  24.885  0.00  0.00    +0.000 C 
ENDBRANCH   4   2
BRANCH   6   7
ATOM      7  C   UNL     1      -3.182   3.330  23.774  0.00  0.00    +0.091 C 
BRANCH   7   8
ATOM      8  C   UNL     1      -2.752   3.702  24.373  0.00  0.00    +0.242 C 
ATOM      9  O   UNL     1      -3.067   4.360  24.759  0.00  0.00    -0.273 OA
ATOM     10  N   UNL     1      -2.008   3.416  24.584  0.00  0.00    -0.200 NA
BRANCH  10  11
ATOM     11  C   UNL     1      -1.578   3.789  25.183  0.00  0.00    +0.143 C 
BRANCH  11  12
ATOM     12  C   UNL     1      -0.943   3.400  25.537  0.00  0.00    +0.019 A 
ATOM     13  C   UNL     1      -1.051   2.990  26.244  0.00  0.00    +0.001 A 
ATOM     14  C   UNL     1      -0.415   2.601  26.597  0.00  0.00    +0.020 A 
ATOM     15  C   UNL     1       0.330   2.622  26.243  0.00  0.00    +0.099 A 
ATOM     16  N   UNL     1       0.438   3.033  25.536  0.00  0.00    -0.243 NA
ATOM     17  C   UNL     1      -0.197   3.422  25.182  0.00  0.00    +0.096 A 
ENDBRANCH  11  12
ENDBRANCH  10  11
ENDBRANCH   7   8
ENDBRANCH   6   7
BRANCH  21  22
ATOM     22  C   UNL     1      -4.645   0.430  24.357  0.00  0.00    +0.120 C 
BRANCH  22  23
ATOM     23  N   UNL     1      -4.188  -0.231  24.549  0.00  0.00    -0.201 NA
ATOM     24  C   UNL     1      -4.468  -0.989  24.380  0.00  0.00    +0.265 C 
ATOM     25  O   UNL     1      -5.204  -1.086  24.020  0.00  0.00    -0.268 OA
BRANCH  24  26
ATOM     26  C   UNL     1      -4.011  -1.649  24.572  0.00  0.00    +0.057 A 
ATOM     27  C   UNL     1      -3.620  -1.681  25.297  0.00  0.00    +0.005 A 
ATOM     28  C   UNL     1      -3.163  -2.341  25.490  0.00  0.00    +0.002 A 
ATOM     29  C   UNL     1      -3.097  -2.968  24.956  0.00  0.00    +0.030 A 
ATOM     30  C   UNL     1      -3.489  -2.934  24.230  0.00  0.00    +0.140 A 
ATOM     31  F   UNL     1      -3.424  -3.560  23.697  0.00  0.00    -0.204 F 
ATOM     32  C   UNL     1      -3.946  -2.275  24.039  0.00  0.00    +0.034 A 
ENDBRANCH  24  26
ENDBRANCH  22  23
ENDBRANCH  21  22
TORSDOF 8
ENDMDL
MODEL 3
REMARK VINA RESULT:     -11.6      3.531      5.257
REMARK  Name = 
REMARK  8 active torsions:
REMARK  status: ('A' for Active; 'I' for Inactive)
REMARK    1  A    between atoms: C_2  and  C_4
REMARK    2  A    between atoms: C_6  and  C_7
REMARK    3  A    between atoms: C_7  and  C_8
REMARK    4  A    between atoms: N_10  and  C_11
REMARK    5  A    between atoms: C_11  and  C_12
REMARK    6  A    between atoms: C_21  and  C_22
REMARK    7  A    between atoms: C_22  and  N_23
REMARK    8  A    between atoms: C_24  and  C_26
REMARK                            x       y       z     vdW  Elec       q    Type
REMARK                         _______ _______ _______ _____ _____    ______ ____
ROOT
ATOM      4  C   UNL     1      -0.693   1.927  24.546  0.00  0.00    +0.006 C 
ATOM      5  C   UNL     1      -0.146   1.340  24.357  0.00  0.00    +0.005 C 
ATOM      6  C   UNL     1      -0.401   0.565  24.229  0.00  0.00    +0.027 C 
ATOM     18  C   UNL     1      -1.203   0.379  24.288  0.00  0.00    -0.048 C 
ATOM     19  C   UNL     1      -1.458  -0.394  24.160  0.00  0.00    +0.026 C 
ATOM     20  C   UNL     1      -1.750   0.968  24.477  0.00  0.00    -0.033 C 
ATOM     21  C   UNL     1      -1.495   1.742  24.606  0.00  0.00    +0.043 C 
ENDROOT
BRANCH   4   2
ATOM      1  C   UNL     1      -0.396   3.232  24.043  0.00  0.00    +0.000 C 
ATOM      2  C   UNL     1      -0.438   2.701  24.674  0.00  0.00    +0.000 C 
ATOM      3  C   UNL     1      -0.224   2.945  25.433  0.00  0.00    +0.000 C 
ENDBRANCH   4   2
BRANCH   6   7
ATOM      7  C   UNL     1       0.146  -0.023  24.040  0.00  0.00    +0.091 C 
BRANCH   7   8
ATOM      8  C   UNL     1       0.612   0.050  23.363  0.00  0.00    +0.242 C 
ATOM      9  O   UNL     1       0.256   0.097  22.620  0.00  0.00    -0.273 OA
ATOM     10  N   UNL     1       1.434   0.074  23.429  0.00  0.00    -0.200 NA
BRANCH  10  11
ATOM     11  C   UNL     1       1.900   0.147  22.751  0.00  0.00    +0.143 C 
BRANCH  11  12
ATOM     12  C   UNL     1       2.718   0.224  22.821  0.00  0.00    +0.019 A 
ATOM     13  C   UNL     1       3.076   0.957  22.698  0.00  0.00    +0.001 A 
ATOM     14  C   UNL     1       3.895   1.033  22.767  0.00  0.00    +0.020 A 
ATOM     15  C   UNL     1       4.355   0.377  22.960  0.00  0.00    +0.099 A 
ATOM     16  N   UNL     1       3.997  -0.356  23.083  0.00  0.00    -0.243 NA
ATOM     17  C   UNL     1       3.179  -0.433  23.013  0.00  0.00    +0.096 A 
ENDBRANCH  11  12
ENDBRANCH  10  11
ENDBRANCH   7   8
ENDBRANCH   6   7
BRANCH  21  22
ATOM     22  C   UNL     1      -2.042   2.330  24.794  0.00  0.00    +0.120 C 
BRANCH  22  23
ATOM     23  N   UNL     1      -2.837   2.134  24.901  0.00  0.00    -0.201 NA
ATOM     24  C   UNL     1      -3.409   2.729  24.926  0.00  0.00    +0.265 C 
ATOM     25  O   UNL     1      -3.186   3.519  24.844  0.00  0.00    -0.268 OA
BRANCH  24  26
ATOM     26  C   UNL     1      -4.202   2.533  25.034  0.00  0.00    +0.057 A 
ATOM     27  C   UNL     1      -4.597   2.088  24.462  0.00  0.00    +0.005 A 
ATOM     28  C   UNL     1      -5.392   1.891  24.569  0.00  0.00    +0.002 A 
ATOM     29  C   UNL     1      -5.791   2.140  25.247  0.00  0.00    +0.030 A 
ATOM     30  C   UNL     1      -5.395   2.585  25.819  0.00  0.00    +0.140 A 
ATOM     31  F   UNL     1      -5.794   2.833  26.497  0.00  0.00    -0.204 F 
ATOM     32  C   UNL     1      -4.601   2.781  25.712  0.00  0.00    +0.034 A 
ENDBRANCH  24  26
ENDBRANCH  22  23
ENDBRANCH  21  22
TORSDOF 8
ENDMDL
MODEL 4
REMARK VINA RESULT:     -11.3      3.109      4.688
REMARK  Name = 
REMARK  8 active torsions:
REMARK  status: ('A' for Active; 'I' for Inactive)
REMARK    1  A    between atoms: C_2  and  C_4
REMARK    2  A    between atoms: C_6  and  C_7
REMARK    3  A    between atoms: C_7  and  C_8
REMARK    4  A    between atoms: N_10  and  C_11
REMARK    5  A    between atoms: C_11  and  C_12
REMARK    6  A    between atoms: C_21  and  C_22
REMARK    7  A    between atoms: C_22  and  N_23
REMARK    8  A    between atoms: C_24  and  C_26
REMARK                            x       y       z     vdW  Elec       q    Type
REMARK                         _______ _______ _______ _____ _____    ______ ____
ROOT
ATOM      4  C   UNL     1      -1.606   1.031  24.694  0.00  0.00    +0.006 C 
ATOM      5  C   UNL     1      -2.036   1.697  24.921  0.00  0.00    +0.005 C 
ATOM      6  C   UNL     1      -1.706   2.449  24.836  0.00  0.00    +0.027 C 
ATOM     18  C   UNL     1      -0.947   2.534  24.523  0.00  0.00    -0.048 C 
ATOM     19  C   UNL     1      -0.617   3.285  24.438  0.00  0.00    +0.026 C 
ATOM     20  C   UNL     1      -0.517   1.867  24.296  0.00  0.00    -0.033 C 
ATOM     21  C   UNL     1      -0.847   1.116  24.381  0.00  0.00    +0.043 C 
ENDROOT
BRANCH   4   2
ATOM      1  C   UNL     1      -1.815  -0.147  25.475  0.00  0.00    +0.000 C 
ATOM      2  C   UNL     1      -1.936   0.280  24.779  0.00  0.00    +0.000 C 
ATOM      3  C   UNL     1      -2.387  -0.045  24.169  0.00  0.00    +0.000 C 
ENDBRANCH   4   2
BRANCH   6   7
ATOM      7  C   UNL     1      -2.135   3.116  25.063  0.00  0.00    +0.091 C 
BRANCH   7   8
ATOM      8  C   UNL     1      -2.886   3.249  24.747  0.00  0.00    +0.242 C 
ATOM      9  O   UNL     1      -2.965   3.529  23.974  0.00  0.00    -0.273 OA
ATOM     10  N   UNL     1      -3.557   3.103  25.203  0.00  0.00    -0.200 NA
BRANCH  10  11
ATOM     11  C   UNL     1      -4.308   3.237  24.887  0.00  0.00    +0.143 C 
BRANCH  11  12
ATOM     12  C   UNL     1      -4.967   2.871  25.222  0.00  0.00    +0.019 A 
ATOM     13  C   UNL     1      -5.337   2.247  24.830  0.00  0.00    +0.001 A 
ATOM     14  C   UNL     1      -5.997   1.882  25.167  0.00  0.00    +0.020 A 
ATOM     15  C   UNL     1      -6.285   2.141  25.894  0.00  0.00    +0.099 A 
ATOM     16  N   UNL     1      -5.915   2.765  26.286  0.00  0.00    -0.243 NA
ATOM     17  C   UNL     1      -5.256   3.131  25.951  0.00  0.00    +0.096 A 
ENDBRANCH  11  12
ENDBRANCH  10  11
ENDBRANCH   7   8
ENDBRANCH   6   7
BRANCH  21  22
ATOM     22  C   UNL     1      -0.417   0.449  24.154  0.00  0.00    +0.120 C 
BRANCH  22  23
ATOM     23  N   UNL     1       0.220   0.527  23.635  0.00  0.00    -0.201 NA
ATOM     24  C   UNL     1       0.714  -0.118  23.488  0.00  0.00    +0.265 C 
ATOM     25  O   UNL     1       0.570  -0.841  23.859  0.00  0.00    -0.268 OA
BRANCH  24  26
ATOM     26  C   UNL     1       1.350  -0.040  22.969  0.00  0.00    +0.057 A 
ATOM     27  C   UNL     1       1.299  -0.349  22.206  0.00  0.00    +0.005 A 
ATOM     28  C   UNL     1       1.936  -0.271  21.686  0.00  0.00    +0.002 A 
ATOM     29  C   UNL     1       2.623   0.116  21.930  0.00  0.00    +0.030 A 
ATOM     30  C   UNL     1       2.673   0.425  22.694  0.00  0.00    +0.140 A 
ATOM     31  F   UNL     1       3.360   0.812  22.939  0.00  0.00    -0.204 F 
ATOM     32  C   UNL     1       2.037   0.347  23.213  0.00  0.00    +0.034 A 
ENDBRANCH  24  26
ENDBRANCH  22  23
ENDBRANCH  21  22
TORSDOF 8
ENDMDL
MODEL 5
REMARK VINA RESULT:     -11.3      2.321      4.850
REMARK  Name = 
REMARK  8 active torsions:
REMARK  status: ('A' for Active; 'I' for Inactive)
REMARK    1  A    between atoms: C_2  and  C_4
REMARK    2  A    between atoms: C_6  and  C_7
REMARK    3  A    between atoms: C_7  and  C_8
REMARK    4  A    between atoms: N_10  and  C_11
REMARK    5  A    between atoms: C_11  and  C_12
REMARK    6  A    between atoms: C_21  and  C_22
REMARK    7  A    between atoms: C_22  and  N_23
REMARK    8  A    between atoms: C_24  and  C_26
REMARK                            x       y       z     vdW  Elec       q    Type
REMARK                         _______ _______ _______ _____ _____    ______ ____
ROOT
ATOM      4  C   UNL     1      -1.807   3.077  24.763  0.00  0.00    +0.006 C 
ATOM      5  C   UNL     1      -1.169   2.701  24.399  0.00  0.00    +0.005 C 
ATOM      6  C   UNL     1      -1.293   2.239  23.726  0.00  0.00    +0.027 C 
ATOM     18  C   UNL     1      -2.054   2.153  23.419  0.00  0.00    -0.048 C 
ATOM     19  C   UNL     1      -2.178   1.691  22.746  0.00  0.00    +0.026 C 
ATOM     20  C   UNL     1      -2.692   2.529  23.784  0.00  0.00    -0.033 C 
ATOM     21  C   UNL     1      -2.568   2.991  24.456  0.00  0.00    +0.043 C 
ENDROOT
BRANCH   4   2
ATOM      1  C   UNL     1      -1.571   4.353  25.361  0.00  0.00    +0.000 C 
ATOM      2  C   UNL     1      -1.683   3.538  25.435  0.00  0.00    +0.000 C 
ATOM      3  C   UNL     1      -1.670   3.187  26.182  0.00  0.00    +0.000 C 
ENDBRANCH   4   2
BRANCH   6   7
ATOM      7  C   UNL     1      -0.656   1.863  23.362  0.00  0.00    +0.091 C 
BRANCH   7   8
ATOM      8  C   UNL     1      -0.217   1.299  23.777  0.00  0.00    +0.242 C 
ATOM      9  O   UNL     1       0.519   1.498  24.090  0.00  0.00    -0.273 OA
ATOM     10  N   UNL     1      -0.517   0.537  23.878  0.00  0.00    -0.200 NA
BRANCH  10  11
ATOM     11  C   UNL     1      -0.079  -0.026  24.293  0.00  0.00    +0.143 C 
BRANCH  11  12
ATOM     12  C   UNL     1      -0.441  -0.722  24.549  0.00  0.00    +0.019 A 
ATOM     13  C   UNL     1      -0.658  -0.807  25.341  0.00  0.00    +0.001 A 
ATOM     14  C   UNL     1      -1.020  -1.503  25.596  0.00  0.00    +0.020 A 
ATOM     15  C   UNL     1      -1.165  -2.114  25.061  0.00  0.00    +0.099 A 
ATOM     16  N   UNL     1      -0.948  -2.028  24.270  0.00  0.00    -0.243 NA
ATOM     17  C   UNL     1      -0.586  -1.333  24.013  0.00  0.00    +0.096 A 
ENDBRANCH  11  12
ENDBRANCH  10  11
ENDBRANCH   7   8
ENDBRANCH   6   7
BRANCH  21  22
ATOM     22  C   UNL     1      -3.205   3.367  24.820  0.00  0.00    +0.120 C 
BRANCH  22  23
ATOM     23  N   UNL     1      -3.859   2.926  25.064  0.00  0.00    -0.201 NA
ATOM     24  C   UNL     1      -4.600   3.285  25.122  0.00  0.00    +0.265 C 
ATOM     25  O   UNL     1      -4.687   4.084  24.937  0.00  0.00    -0.268 OA
BRANCH  24  26
ATOM     26  C   UNL     1      -5.253   2.844  25.366  0.00  0.00    +0.057 A 
ATOM     27  C   UNL     1      -5.483   2.852  26.158  0.00  0.00    +0.005 A 
ATOM     28  C   UNL     1      -6.137   2.410  26.402  0.00  0.00    +0.002 A 
ATOM     29  C   UNL     1      -6.560   1.962  25.854  0.00  0.00    +0.030 A 
ATOM     30  C   UNL     1      -6.330   1.954  25.061  0.00  0.00    +0.140 A 
ATOM     31  F   UNL     1      -6.753   1.506  24.513  0.00  0.00    -0.204 F 
ATOM     32  C   UNL     1      -5.677   2.395  24.817  0.00  0.00    +0.034 A 
ENDBRANCH  24  26
ENDBRANCH  22  23
ENDBRANCH  21  22
TORSDOF 8
ENDMDL
MODEL 6
REMARK VINA RESULT:     -11.3      1.917      5.616
REMARK  Name = 
REMARK  8 active torsions:
REMARK  status: ('A' for Active; 'I' for Inactive)
REMARK    1  A    between atoms: C_2  and  C_4
REMARK    2  A    between atoms: C_6  and  C_7
REMARK    3  A    between atoms: C_7  and  C_8
REMARK    4  A    between atoms: N_10  and  C_11
REMARK    5  A    between atoms: C_11  and  C_12
REMARK    6  A    between atoms: C_21  and  C_22
REMARK    7  A    between atoms: C_22  and  N_23
REMARK    8  A    between atoms: C_24  and  C_26
REMARK                            x       y       z     vdW  Elec       q    Type
REMARK                         _______ _______ _______ _____ _____    ______ ____
ROOT
ATOM      4  C   UNL     1      -4.547   1.707  24.834  0.00  0.00    +0.006 C 
ATOM      5  C   UNL     1      -4.610   0.964  24.482  0.00  0.00    +0.005 C 
ATOM      6  C   UNL     1      -4.048   0.723  23.926  0.00  0.00    +0.027 C 
ATOM     18  C   UNL     1      -3.426   1.225  23.724  0.00  0.00    -0.048 C 
ATOM     19  C   UNL     1      -2.865   0.984  23.169  0.00  0.00    +0.026 C 
ATOM     20  C   UNL     1      -3.364   1.968  24.077  0.00  0.00    -0.033 C 
ATOM     21  C   UNL     1      -3.924   2.209  24.632  0.00  0.00    +0.043 C 
ENDROOT
BRANCH   4   2
ATOM      1  C   UNL     1      -5.749   2.410  25.153  0.00  0.00    +0.000 C 
ATOM      2  C   UNL     1      -5.108   1.947  25.389  0.00  0.00    +0.000 C 
ATOM      3  C   UNL     1      -5.029   1.725  26.180  0.00  0.00    +0.000 C 
ENDBRANCH   4   2
BRANCH   6   7
ATOM      7  C   UNL     1      -4.111  -0.021  23.574  0.00  0.00    +0.091 C 
BRANCH   7   8
ATOM      8  C   UNL     1      -4.000  -0.702  24.026  0.00  0.00    +0.242 C 
ATOM      9  O   UNL     1      -4.651  -1.099  24.340  0.00  0.00    -0.273 OA
ATOM     10  N   UNL     1      -3.238  -0.986  24.164  0.00  0.00    -0.200 NA
BRANCH  10  11
ATOM     11  C   UNL     1      -3.127  -1.667  24.617  0.00  0.00    +0.143 C 
BRANCH  11  12
ATOM     12  C   UNL     1      -2.364  -1.937  24.774  0.00  0.00    +0.019 A 
ATOM     13  C   UNL     1      -1.908  -1.571  25.357  0.00  0.00    +0.001 A 
ATOM     14  C   UNL     1      -1.145  -1.842  25.514  0.00  0.00    +0.020 A 
ATOM     15  C   UNL     1      -0.837  -2.478  25.089  0.00  0.00    +0.099 A 
ATOM     16  N   UNL     1      -1.292  -2.844  24.507  0.00  0.00    -0.243 NA
ATOM     17  C   UNL     1      -2.056  -2.574  24.349  0.00  0.00    +0.096 A 
ENDBRANCH  11  12
ENDBRANCH  10  11
ENDBRANCH   7   8
ENDBRANCH   6   7
BRANCH  21  22
ATOM     22  C   UNL     1      -3.862   2.952  24.985  0.00  0.00    +0.120 C 
BRANCH  22  23
ATOM     23  N   UNL     1      -3.193   3.416  24.851  0.00  0.00    -0.201 NA
ATOM     24  C   UNL     1      -2.952   3.967  25.418  0.00  0.00    +0.265 C 
ATOM     25  O   UNL     1      -3.380   4.052  26.118  0.00  0.00    -0.268 OA
BRANCH  24  26
ATOM     26  C   UNL     1      -2.284   4.431  25.283  0.00  0.00    +0.057 A 
ATOM     27  C   UNL     1      -2.365   5.242  25.156  0.00  0.00    +0.005 A 
ATOM     28  C   UNL     1      -1.696   5.706  25.022  0.00  0.00    +0.002 A 
ATOM     29  C   UNL     1      -0.947   5.360  25.015  0.00  0.00    +0.030 A 
ATOM     30  C   UNL     1      -0.866   4.548  25.142  0.00  0.00    +0.140 A 
ATOM     31  F   UNL     1      -0.118   4.202  25.135  0.00  0.00    -0.204 F 
ATOM     32  C   UNL     1      -1.535   4.084  25.277  0.00  0.00    +0.034 A 
ENDBRANCH  24  26
ENDBRANCH  22  23
ENDBRANCH  21  22
TORSDOF 8
ENDMDL
MODEL 7
REMARK VINA RESULT:     -11.2      2.105      3.435
REMARK  Name = 
REMARK  8 active torsions:
REMARK  status: ('A' for Active; 'I' for Inactive)
REMARK    1  A    between atoms: C_2  and  C_4
REMARK    2  A    between atoms: C_6  and  C_7
REMARK    3  A    between atoms: C_7  and  C_8
REMARK    4  A    between atoms: N_10  and  C_11
REMARK    5  A    between atoms: C_11  and  C_12
REMARK    6  A    between atoms: C_21  and  C_22
REMARK    7  A    between atoms: C_22  and  N_23
REMARK    8  A    between atoms: C_24  and  C_26
REMARK                            x       y       z     vdW  Elec       q    Type
REMARK                         _______ _______ _______ _____ _____    ______ ____
ROOT
ATOM      4  C   UNL     1      -1.476   2.296  24.454  0.00  0.00    +0.006 C 
ATOM      5  C   UNL     1      -2.063   2.844  24.264  0.00  0.00    +0.005 C 
ATOM      6  C   UNL     1      -2.608   2.674  23.668  0.00  0.00    +0.027 C 
ATOM     18  C   UNL     1      -2.566   1.957  23.262  0.00  0.00    -0.048 C 
ATOM     19  C   UNL     1      -3.110   1.787  22.666  0.00  0.00    +0.026 C 
ATOM     20  C   UNL     1      -1.978   1.409  23.452  0.00  0.00    -0.033 C 
ATOM     21  C   UNL     1      -1.434   1.579  24.048  0.00  0.00    +0.043 C 
ENDROOT
BRANCH   4   2
ATOM      1  C   UNL     1      -1.110   2.283  25.835  0.00  0.00    +0.000 C 
ATOM      2  C   UNL     1      -0.932   2.466  25.050  0.00  0.00    +0.000 C 
ATOM      3  C   UNL     1      -0.210   2.819  24.862  0.00  0.00    +0.000 C 
ENDBRANCH   4   2
BRANCH   6   7
ATOM      7  C   UNL     1      -3.195   3.222  23.478  0.00  0.00    +0.091 C 
BRANCH   7   8
ATOM      8  C   UNL     1      -3.682   3.526  24.071  0.00  0.00    +0.242 C 
ATOM      9  O   UNL     1      -3.518   4.264  24.402  0.00  0.00    -0.273 OA
ATOM     10  N   UNL     1      -4.332   3.092  24.334  0.00  0.00    -0.200 NA
BRANCH  10  11
ATOM     11  C   UNL     1      -4.819   3.396  24.927  0.00  0.00    +0.143 C 
BRANCH  11  12
ATOM     12  C   UNL     1      -5.341   2.898  25.327  0.00  0.00    +0.019 A 
ATOM     13  C   UNL     1      -5.757   2.318  24.915  0.00  0.00    +0.001 A 
ATOM     14  C   UNL     1      -6.278   1.820  25.317  0.00  0.00    +0.020 A 
ATOM     15  C   UNL     1      -6.383   1.902  26.130  0.00  0.00    +0.099 A 
ATOM     16  N   UNL     1      -5.967   2.483  26.543  0.00  0.00    -0.243 NA
ATOM     17  C   UNL     1      -5.445   2.981  26.142  0.00  0.00    +0.096 A 
ENDBRANCH  11  12
ENDBRANCH  10  11
ENDBRANCH   7   8
ENDBRANCH   6   7
BRANCH  21  22
ATOM     22  C   UNL     1      -0.847   1.031  24.238  0.00  0.00    +0.120 C 
BRANCH  22  23
ATOM     23  N   UNL     1      -1.056   0.269  24.477  0.00  0.00    -0.201 NA
ATOM     24  C   UNL     1      -0.547  -0.364  24.331  0.00  0.00    +0.265 C 
ATOM     25  O   UNL     1       0.172  -0.235  23.947  0.00  0.00    -0.268 OA
BRANCH  24  26
ATOM     26  C   UNL     1      -0.756  -1.125  24.570  0.00  0.00    +0.057 A 
ATOM     27  C   UNL     1      -0.380  -1.471  25.217  0.00  0.00    +0.005 A 
ATOM     28  C   UNL     1      -0.589  -2.233  25.457  0.00  0.00    +0.002 A 
ATOM     29  C   UNL     1      -1.175  -2.647  25.050  0.00  0.00    +0.030 A 
ATOM     30  C   UNL     1      -1.551  -2.300  24.402  0.00  0.00    +0.140 A 
ATOM     31  F   UNL     1      -2.137  -2.715  23.994  0.00  0.00    -0.204 F 
ATOM     32  C   UNL     1      -1.342  -1.539  24.163  0.00  0.00    +0.034 A 
ENDBRANCH  24  26
ENDBRANCH  22  23
ENDBRANCH  21  22
TORSDOF 8
ENDMDL
MODEL 8
REMARK VINA RESULT:     -11.2      3.028      4.978
REMARK  Name = 
REMARK  8 active torsions:
REMARK  status: ('A' for Active; 'I' for Inactive)
REMARK    1  A    between atoms: C_2  and  C_4
REMARK    2  A    between atoms: C_6  and  C_7
REMARK    3  A    between atoms: C_7  and  C_8
REMARK    4  A    between atoms: N_10  and  C_11
REMARK    5  A    between atoms: C_11  and  C_12
REMARK    6  A    between atoms: C_21  and  C_22
REMARK    7  A    between atoms: C_22  and  N_23
REMARK    8  A    between atoms: C_24  and  C_26
REMARK                            x       y       z     vdW  Elec       q    Type
REMARK                         _______ _______ _______ _____ _____    ______ ____
ROOT
ATOM      4  C   UNL     1      -2.816  -0.611  24.638  0.00  0.00    +0.006 C 
ATOM      5  C   UNL     1      -2.023  -0.838  24.632  0.00  0.00    +0.005 C 
ATOM      6  C   UNL     1      -1.445  -0.325  24.925  0.00  0.00    +0.027 C 
ATOM     18  C   UNL     1      -1.661   0.413  25.222  0.00  0.00    -0.048 C 
ATOM     19  C   UNL     1      -1.085   0.926  25.514  0.00  0.00    +0.026 C 
ATOM     20  C   UNL     1      -2.455   0.640  25.228  0.00  0.00    -0.033 C 
ATOM     21  C   UNL     1      -3.032   0.128  24.936  0.00  0.00    +0.043 C 
ENDROOT
BRANCH   4   2
ATOM      1  C   UNL     1      -3.670  -1.033  23.573  0.00  0.00    +0.000 C 
ATOM      2  C   UNL     1      -3.392  -1.123  24.346  0.00  0.00    +0.000 C 
ATOM      3  C   UNL     1      -3.691  -1.725  24.824  0.00  0.00    +0.000 C 
ENDBRANCH   4   2
BRANCH   6   7
ATOM      7  C   UNL     1      -0.652  -0.552  24.919  0.00  0.00    +0.091 C 
BRANCH   7   8
ATOM      8  C   UNL     1      -0.273  -0.706  24.202  0.00  0.00    +0.242 C 
ATOM      9  O   UNL     1      -0.466  -1.381  23.769  0.00  0.00    -0.273 OA
ATOM     10  N   UNL     1       0.300  -0.183  23.919  0.00  0.00    -0.200 NA
BRANCH  10  11
ATOM     11  C   UNL     1       0.679  -0.337  23.202  0.00  0.00    +0.143 C 
BRANCH  11  12
ATOM     12  C   UNL     1       1.405   0.018  23.036  0.00  0.00    +0.019 A 
ATOM     13  C   UNL     1       1.923  -0.333  22.497  0.00  0.00    +0.001 A 
ATOM     14  C   UNL     1       2.649   0.023  22.332  0.00  0.00    +0.020 A 
ATOM     15  C   UNL     1       2.858   0.728  22.705  0.00  0.00    +0.099 A 
ATOM     16  N   UNL     1       2.340   1.078  23.244  0.00  0.00    -0.243 NA
ATOM     17  C   UNL     1       1.614   0.724  23.409  0.00  0.00    +0.096 A 
ENDBRANCH  11  12
ENDBRANCH  10  11
ENDBRANCH   7   8
ENDBRANCH   6   7
BRANCH  21  22
ATOM     22  C   UNL     1      -3.825   0.355  24.941  0.00  0.00    +0.120 C 
BRANCH  22  23
ATOM     23  N   UNL     1      -4.026   1.147  25.060  0.00  0.00    -0.201 NA
ATOM     24  C   UNL     1      -4.820   1.368  25.109  0.00  0.00    +0.265 C 
ATOM     25  O   UNL     1      -5.412   0.798  25.038  0.00  0.00    -0.268 OA
BRANCH  24  26
ATOM     26  C   UNL     1      -5.021   2.159  25.228  0.00  0.00    +0.057 A 
ATOM     27  C   UNL     1      -5.631   2.355  25.746  0.00  0.00    +0.005 A 
ATOM     28  C   UNL     1      -5.832   3.147  25.866  0.00  0.00    +0.002 A 
ATOM     29  C   UNL     1      -5.423   3.741  25.466  0.00  0.00    +0.030 A 
ATOM     30  C   UNL     1      -4.811   3.545  24.948  0.00  0.00    +0.140 A 
ATOM     31  F   UNL     1      -4.401   4.139  24.548  0.00  0.00    -0.204 F 
ATOM     32  C   UNL     1      -4.611   2.754  24.829  0.00  0.00    +0.034 A 
ENDBRANCH  24  26
ENDBRANCH  22  23
ENDBRANCH  21  22
TORSDOF 8
ENDMDL
MODEL 9
REMARK VINA RESULT:     -11.0      2.841      6.222
REMARK  Name = 
REMARK  8 active torsions:
REMARK  status: ('A' for Active; 'I' for Inactive)
REMARK    1  A    between atoms: C_2  and  C_4
REMARK    2  A    between atoms: C_6  and  C_7
REMARK    3  A    between atoms: C_7  and  C_8
REMARK    4  A    between atoms: N_10  and  C_11
REMARK    5  A    between atoms: C_11  and  C_12
REMARK    6  A    between atoms: C_21  and  C_22
REMARK    7  A    between atoms: C_22  and  N_23
REMARK    8  A    between atoms: C_24  and  C_26
REMARK                            x       y       z     vdW  Elec       q    Type
REMARK                         _______ _______ _______ _____ _____    ______ ____
ROOT
ATOM      4  C   UNL     1      -0.276   0.389  24.278  0.00  0.00    +0.006 C 
ATOM      5  C   UNL     1      -0.397  -0.383  24.540  0.00  0.00    +0.005 C 
ATOM      6  C   UNL     1      -0.743  -0.519  25.278  0.00  0.00    +0.027 C 
ATOM     18  C   UNL     1      -0.967   0.118  25.752  0.00  0.00    -0.048 C 
ATOM     19  C   UNL     1      -1.312  -0.017  26.488  0.00  0.00    +0.026 C 
ATOM     20  C   UNL     1      -0.846   0.892  25.489  0.00  0.00    -0.033 C 
ATOM     21  C   UNL     1      -0.500   1.026  24.752  0.00  0.00    +0.043 C 
ENDROOT
BRANCH   4   2
ATOM      1  C   UNL     1      -0.407   0.632  22.876  0.00  0.00    +0.000 C 
ATOM      2  C   UNL     1       0.070   0.524  23.541  0.00  0.00    +0.000 C 
ATOM      3  C   UNL     1       0.891   0.552  23.469  0.00  0.00    +0.000 C 
ENDBRANCH   4   2
BRANCH   6   7
ATOM      7  C   UNL     1      -0.864  -1.291  25.540  0.00  0.00    +0.091 C 
BRANCH   7   8
ATOM      8  C   UNL     1      -1.193  -1.852  25.032  0.00  0.00    +0.242 C 
ATOM      9  O   UNL     1      -0.705  -2.380  24.627  0.00  0.00    -0.273 OA
ATOM     10  N   UNL     1      -2.011  -1.884  24.929  0.00  0.00    -0.200 NA
BRANCH  10  11
ATOM     11  C   UNL     1      -2.341  -2.445  24.421  0.00  0.00    +0.143 C 
BRANCH  11  12
ATOM     12  C   UNL     1      -3.141  -2.403  24.224  0.00  0.00    +0.019 A 
ATOM     13  C   UNL     1      -3.479  -1.677  24.025  0.00  0.00    +0.001 A 
ATOM     14  C   UNL     1      -4.280  -1.636  23.829  0.00  0.00    +0.020 A 
ATOM     15  C   UNL     1      -4.741  -2.319  23.831  0.00  0.00    +0.099 A 
ATOM     16  N   UNL     1      -4.403  -3.045  24.029  0.00  0.00    -0.243 NA
ATOM     17  C   UNL     1      -3.603  -3.087  24.226  0.00  0.00    +0.096 A 
ENDBRANCH  11  12
ENDBRANCH  10  11
ENDBRANCH   7   8
ENDBRANCH   6   7
BRANCH  21  22
ATOM     22  C   UNL     1      -0.379   1.799  24.490  0.00  0.00    +0.120 C 
BRANCH  22  23
ATOM     23  N   UNL     1      -0.857   2.410  24.772  0.00  0.00    -0.201 NA
ATOM     24  C   UNL     1      -0.699   3.191  24.557  0.00  0.00    +0.265 C 
ATOM     25  O   UNL     1      -0.063   3.361  24.060  0.00  0.00    -0.268 OA
BRANCH  24  26
ATOM     26  C   UNL     1      -1.177   3.801  24.840  0.00  0.00    +0.057 A 
ATOM     27  C   UNL     1      -1.947   3.639  25.089  0.00  0.00    +0.005 A 
ATOM     28  C   UNL     1      -2.426   4.249  25.372  0.00  0.00    +0.002 A 
ATOM     29  C   UNL     1      -2.135   5.020  25.405  0.00  0.00    +0.030 A 
ATOM     30  C   UNL     1      -1.364   5.182  25.156  0.00  0.00    +0.140 A 
ATOM     31  F   UNL     1      -1.074   5.953  25.189  0.00  0.00    -0.204 F 
ATOM     32  C   UNL     1      -0.886   4.572  24.873  0.00  0.00    +0.034 A 
ENDBRANCH  24  26
ENDBRANCH  22  23
ENDBRANCH  21  22
TORSDOF 8
ENDMDL
MODEL 10
REMARK VINA RESULT:     -11.0      1.928      3.046
REMARK  Name = 
REMARK  8 active torsions:
REMARK  status: ('A' for Active; 'I' for Inactive)
REMARK    1  A    between atoms: C_2  and  C_4
REMARK    2  A    between atoms: C_6  and  C_7
REMARK    3  A    between atoms: C_7  and  C_8
REMARK    4  A    between atoms: N_10  and  C_11
REMARK    5  A    between atoms: C_11  and  C_12
REMARK    6  A    between atoms: C_21  and  C_22
REMARK    7  A    between atoms: C_22  and  N_23
REMARK    8  A    between atoms: C_24  and  C_26
REMARK                            x       y       z     vdW  Elec       q    Type
REMARK                         _______ _______ _______ _____ _____    ______ ____
ROOT
ATOM      4  C   UNL     1      -0.476   1.352  24.319  0.00  0.00    +0.006 C 
ATOM      5  C   UNL     1      -0.423   2.144  24.541  0.00  0.00    +0.005 C 
ATOM      6  C   UNL     1      -0.443   2.351  25.341  0.00  0.00    +0.027 C 
ATOM     18  C   UNL     1      -0.515   1.764  25.916  0.00  0.00    -0.048 C 
ATOM     19  C   UNL     1      -0.535   1.970  26.715  0.00  0.00    +0.026 C 
ATOM     20  C   UNL     1      -0.568   0.971  25.694  0.00  0.00    -0.033 C 
ATOM     21  C   UNL     1      -0.548   0.765  24.895  0.00  0.00    +0.043 C 
ENDROOT
BRANCH   4   2
ATOM      1  C   UNL     1       0.244   0.868  23.184  0.00  0.00    +0.000 C 
ATOM      2  C   UNL     1      -0.457   1.146  23.521  0.00  0.00    +0.000 C 
ATOM      3  C   UNL     1      -1.136   1.218  23.059  0.00  0.00    +0.000 C 
ENDBRANCH   4   2
BRANCH   6   7
ATOM      7  C   UNL     1      -0.390   3.143  25.563  0.00  0.00    +0.091 C 
BRANCH   7   8
ATOM      8  C   UNL     1      -0.933   3.691  25.268  0.00  0.00    +0.242 C 
ATOM      9  O   UNL     1      -0.691   4.260  24.723  0.00  0.00    -0.273 OA
ATOM     10  N   UNL     1      -1.718   3.668  25.520  0.00  0.00    -0.200 NA
BRANCH  10  11
ATOM     11  C   UNL     1      -2.262   4.216  25.226  0.00  0.00    +0.143 C 
BRANCH  11  12
ATOM     12  C   UNL     1      -3.070   4.058  25.271  0.00  0.00    +0.019 A 
ATOM     13  C   UNL     1      -3.495   3.885  24.585  0.00  0.00    +0.001 A 
ATOM     14  C   UNL     1      -4.304   3.727  24.631  0.00  0.00    +0.020 A 
ATOM     15  C   UNL     1      -4.687   3.743  25.361  0.00  0.00    +0.099 A 
ATOM     16  N   UNL     1      -4.262   3.916  26.046  0.00  0.00    -0.243 NA
ATOM     17  C   UNL     1      -3.453   4.074  26.002  0.00  0.00    +0.096 A 
ENDBRANCH  11  12
ENDBRANCH  10  11
ENDBRANCH   7   8
ENDBRANCH   6   7
BRANCH  21  22
ATOM     22  C   UNL     1      -0.601  -0.027  24.673  0.00  0.00    +0.120 C 
BRANCH  22  23
ATOM     23  N   UNL     1      -1.313  -0.435  24.768  0.00  0.00    -0.201 NA
ATOM     24  C   UNL     1      -1.310  -1.258  24.844  0.00  0.00    +0.265 C 
ATOM     25  O   UNL     1      -0.597  -1.671  24.823  0.00  0.00    -0.268 OA
BRANCH  24  26
ATOM     26  C   UNL     1      -2.021  -1.665  24.939  0.00  0.00    +0.057 A 
ATOM     27  C   UNL     1      -2.187  -2.318  24.464  0.00  0.00    +0.005 A 
ATOM     28  C   UNL     1      -2.899  -2.726  24.559  0.00  0.00    +0.002 A 
ATOM     29  C   UNL     1      -3.443  -2.480  25.128  0.00  0.00    +0.030 A 
ATOM     30  C   UNL     1      -3.276  -1.826  25.603  0.00  0.00    +0.140 A 
ATOM     31  F   UNL     1      -3.820  -1.579  26.172  0.00  0.00    -0.204 F 
ATOM     32  C   UNL     1      -2.565  -1.418  25.508  0.00  0.00    +0.034 A 
ENDBRANCH  24  26
ENDBRANCH  22  23
ENDBRANCH  21  22
TORSDOF 8
ENDMDL
