REMARK  Name = 
REMARK  6 active torsions:
REMARK  status: ('A' for Active; 'I' for Inactive)
REMARK    1  A    between atoms: C_2  and  C_4
REMARK    2  A    between atoms: C_8  and  N_9
REMARK    3  A    between atoms: C_10  and  O_12
REMARK    4  A    between atoms: O_12  and  C_13
REMARK    5  A    between atoms: C_17  and  N_21
REMARK    6  A    between atoms: C_24  and  C_28
REMARK                            x       y       z     vdW  Elec       q    Type
REMARK                         _______ _______ _______ _____ _____    ______ ____
ROOT
ATOM     13  C   UNL     1       5.193  -3.590   0.000  0.00  0.00    +0.229 C 
ATOM     14  C   UNL     1       4.439  -3.925   0.000  0.00  0.00    +0.188 C 
ATOM     15  O   UNL     1       3.887  -3.312   0.000  0.00  0.00    -0.348 OA
ATOM     16  C   UNL     1       4.300  -2.598   0.000  0.00  0.00    +0.168 C 
ATOM     17  C   UNL     1       4.213  -1.777   0.000  0.00  0.00    +0.155 C 
ATOM     18  C   UNL     1       4.967  -1.442   0.000  0.00  0.00    +0.166 C 
ATOM     19  O   UNL     1       5.519  -2.055   0.000  0.00  0.00    -0.348 OA
ATOM     20  C   UNL     1       5.107  -2.769   0.000  0.00  0.00    +0.186 C 
ENDROOT
BRANCH  17  21
ATOM     21  N   UNL     1       3.499  -1.365   0.000  0.00  0.00    -0.200 NA
ATOM     22  C   UNL     1       3.499  -0.540   0.000  0.00  0.00    +0.237 A 
ATOM     23  N   UNL     1       2.784  -0.127   0.000  0.00  0.00    -0.212 NA
ATOM     24  C   UNL     1       2.784   0.698   0.000  0.00  0.00    +0.086 A 
ATOM     25  C   UNL     1       3.499   1.110   0.000  0.00  0.00    +0.040 A 
ATOM     26  C   UNL     1       4.213   0.698   0.000  0.00  0.00    +0.103 A 
ATOM     27  N   UNL     1       4.213  -0.127   0.000  0.00  0.00    -0.211 NA
BRANCH  24  28
ATOM     28  C   UNL     1       2.070   1.110   0.000  0.00  0.00    +0.021 A 
ATOM     29  C   UNL     1       1.356   0.698   0.000  0.00  0.00    +0.042 A 
ATOM     30  C   UNL     1       0.641   1.110   0.000  0.00  0.00    +0.176 A 
ATOM     31  C   UNL     1       0.641   1.935   0.000  0.00  0.00    +0.176 A 
ATOM     32  O   UNL     1      -0.143   2.190   0.000  0.00  0.00    -0.435 OA
ATOM     33  C   UNL     1      -0.628   1.523   0.000  0.00  0.00    +0.429 C 
ATOM     34  O   UNL     1      -0.143   0.856   0.000  0.00  0.00    -0.435 OA
ATOM     35  C   UNL     1       1.356   2.348   0.000  0.00  0.00    +0.040 A 
ATOM     36  C   UNL     1       2.070   1.935   0.000  0.00  0.00    +0.005 A 
ENDBRANCH  24  28
ENDBRANCH  17  21
BRANCH  13  12
ATOM     12  O   UNL     1       5.907  -4.002   0.000  0.00  0.00    -0.432 OA
BRANCH  12  10
ATOM      9  N   UNL     1       6.622  -5.239   0.000  0.00  0.00    -0.142 NA
ATOM     10  C   UNL     1       5.907  -4.827   0.000  0.00  0.00    +0.425 C 
ATOM     11  O   UNL     1       5.193  -5.239   0.000  0.00  0.00    -0.224 OA
BRANCH   9   8
ATOM      4  C   UNL     1       7.336  -7.302   0.000  0.00  0.00    +0.036 A 
ATOM      5  C   UNL     1       6.622  -7.715   0.000  0.00  0.00    +0.003 A 
ATOM      6  C   UNL     1       5.907  -7.302   0.000  0.00  0.00    +0.001 A 
ATOM      7  C   UNL     1       5.907  -6.477   0.000  0.00  0.00    +0.017 A 
ATOM      8  C   UNL     1       6.622  -6.064   0.000  0.00  0.00    +0.077 A 
ATOM     37  C   UNL     1       7.336  -6.477   0.000  0.00  0.00    +0.020 A 
BRANCH   4   2
ATOM      1  C   UNL     1       8.051  -8.540   0.000  0.00  0.00    +0.077 C 
ATOM      2  C   UNL     1       8.051  -7.715   0.000  0.00  0.00    +0.174 C 
ATOM      3  O   UNL     1       8.765  -7.302   0.000  0.00  0.00    -0.291 OA
ENDBRANCH   4   2
ENDBRANCH   9   8
ENDBRANCH  12  10
ENDBRANCH  13  12
TORSDOF 6
