MODEL 1
REMARK VINA RESULT:     -11.2      0.000      0.000
REMARK  Name = 
REMARK  7 active torsions:
REMARK  status: ('A' for Active; 'I' for Inactive)
REMARK    1  A    between atoms: C_2  and  C_4
REMARK    2  A    between atoms: C_6  and  C_7
REMARK    3  A    between atoms: C_7  and  C_8
REMARK    4  A    between atoms: C_11  and  C_13
REMARK    5  A    between atoms: C_20  and  C_21
REMARK    6  A    between atoms: C_21  and  N_22
REMARK    7  A    between atoms: N_25  and  C_28
REMARK                            x       y       z     vdW  Elec       q    Type
REMARK                         _______ _______ _______ _____ _____    ______ ____
ROOT
ATOM      4  C   UNL     1      -5.017   2.146  25.024  0.00  0.00    +0.006 C 
ATOM      5  C   UNL     1      -4.699   2.883  24.836  0.00  0.00    +0.005 C 
ATOM      6  C   UNL     1      -4.076   2.939  24.298  0.00  0.00    +0.027 C 
ATOM     17  C   UNL     1      -3.771   2.257  23.948  0.00  0.00    -0.048 C 
ATOM     18  C   UNL     1      -3.149   2.311  23.409  0.00  0.00    +0.026 C 
ATOM     19  C   UNL     1      -4.090   1.518  24.136  0.00  0.00    -0.034 C 
ATOM     20  C   UNL     1      -4.712   1.464  24.674  0.00  0.00    +0.037 C 
ENDROOT
BRANCH   4   2
ATOM      1  C   UNL     1      -6.409   1.969  25.292  0.00  0.00    +0.000 C 
ATOM      2  C   UNL     1      -5.639   2.091  25.562  0.00  0.00    +0.000 C 
ATOM      3  C   UNL     1      -5.491   2.157  26.372  0.00  0.00    +0.000 C 
ENDBRANCH   4   2
BRANCH   6   7
ATOM      7  C   UNL     1      -3.758   3.676  24.109  0.00  0.00    +0.091 C 
BRANCH   7   8
ATOM      8  C   UNL     1      -3.195   4.021  24.605  0.00  0.00    +0.226 A 
ATOM      9  N   UNL     1      -3.337   4.331  25.357  0.00  0.00    -0.112 NA
ATOM     10  N   UNL     1      -2.622   4.619  25.652  0.00  0.00    -0.112 NA
ATOM     11  C   UNL     1      -2.040   4.487  25.084  0.00  0.00    +0.225 A 
ATOM     12  O   UNL     1      -2.394   4.117  24.436  0.00  0.00    -0.423 OA
BRANCH  11  13
ATOM     13  C   UNL     1      -1.243   4.688  25.150  0.00  0.00    +0.070 C 
ATOM     14  C   UNL     1      -0.445   4.890  25.216  0.00  0.00    +0.009 C 
ATOM     15  C   UNL     1      -1.408   5.439  24.852  0.00  0.00    +0.009 C 
ATOM     16  C   UNL     1      -1.076   3.937  25.448  0.00  0.00    +0.009 C 
ENDBRANCH  11  13
ENDBRANCH   7   8
ENDBRANCH   6   7
BRANCH  20  21
ATOM     21  C   UNL     1      -5.030   0.726  24.862  0.00  0.00    +0.076 C 
BRANCH  21  22
ATOM     22  N   UNL     1      -4.568   0.048  24.790  0.00  0.00    -0.269 NA
ATOM     23  C   UNL     1      -4.062  -0.175  25.403  0.00  0.00    +0.094 C 
ATOM     24  C   UNL     1      -3.600  -0.854  25.330  0.00  0.00    +0.110 C 
ATOM     25  N   UNL     1      -3.644  -1.311  24.645  0.00  0.00    -0.289 N 
ATOM     26  C   UNL     1      -4.150  -1.090  24.032  0.00  0.00    +0.110 C 
ATOM     27  C   UNL     1      -4.612  -0.410  24.105  0.00  0.00    +0.094 C 
BRANCH  25  28
ATOM     28  C   UNL     1      -3.181  -1.992  24.572  0.00  0.00    +0.151 A 
ATOM     29  C   UNL     1      -3.539  -2.735  24.574  0.00  0.00    +0.133 A 
ATOM     30  N   UNL     1      -3.077  -3.415  24.501  0.00  0.00    -0.238 NA
ATOM     31  C   UNL     1      -2.257  -3.351  24.427  0.00  0.00    +0.120 A 
ATOM     32  C   UNL     1      -1.901  -2.607  24.425  0.00  0.00    +0.121 A 
ATOM     33  N   UNL     1      -2.363  -1.927  24.498  0.00  0.00    -0.226 NA
ENDBRANCH  25  28
ENDBRANCH  21  22
ENDBRANCH  20  21
TORSDOF 7
ENDMDL
MODEL 2
REMARK VINA RESULT:     -10.9      2.486      6.414
REMARK  Name = 
REMARK  7 active torsions:
REMARK  status: ('A' for Active; 'I' for Inactive)
REMARK    1  A    between atoms: C_2  and  C_4
REMARK    2  A    between atoms: C_6  and  C_7
REMARK    3  A    between atoms: C_7  and  C_8
REMARK    4  A    between atoms: C_11  and  C_13
REMARK    5  A    between atoms: C_20  and  C_21
REMARK    6  A    between atoms: C_21  and  N_22
REMARK    7  A    between atoms: N_25  and  C_28
REMARK                            x       y       z     vdW  Elec       q    Type
REMARK                         _______ _______ _______ _____ _____    ______ ____
ROOT
ATOM      4  C   UNL     1      -0.097  -0.236  24.062  0.00  0.00    +0.006 C 
ATOM      5  C   UNL     1      -0.436  -0.936  24.334  0.00  0.00    +0.005 C 
ATOM      6  C   UNL     1      -0.882  -0.937  25.028  0.00  0.00    +0.027 C 
ATOM     17  C   UNL     1      -0.988  -0.237  25.451  0.00  0.00    -0.048 C 
ATOM     18  C   UNL     1      -1.433  -0.236  26.145  0.00  0.00    +0.026 C 
ATOM     19  C   UNL     1      -0.648   0.465  25.178  0.00  0.00    -0.034 C 
ATOM     20  C   UNL     1      -0.203   0.465  24.484  0.00  0.00    +0.037 C 
ENDROOT
BRANCH   4   2
ATOM      1  C   UNL     1      -0.029  -0.195  22.635  0.00  0.00    +0.000 C 
ATOM      2  C   UNL     1       0.348  -0.235  23.368  0.00  0.00    +0.000 C 
ATOM      3  C   UNL     1       1.172  -0.275  23.406  0.00  0.00    +0.000 C 
ENDBRANCH   4   2
BRANCH   6   7
ATOM      7  C   UNL     1      -1.220  -1.638  25.301  0.00  0.00    +0.091 C 
BRANCH   7   8
ATOM      8  C   UNL     1      -1.805  -2.014  24.855  0.00  0.00    +0.226 A 
ATOM      9  N   UNL     1      -1.698  -2.679  24.379  0.00  0.00    -0.112 NA
ATOM     10  N   UNL     1      -2.426  -2.867  24.037  0.00  0.00    -0.112 NA
ATOM     11  C   UNL     1      -2.981  -2.317  24.302  0.00  0.00    +0.225 A 
ATOM     12  O   UNL     1      -2.597  -1.790  24.807  0.00  0.00    -0.423 OA
BRANCH  11  13
ATOM     13  C   UNL     1      -3.780  -2.298  24.097  0.00  0.00    +0.070 C 
ATOM     14  C   UNL     1      -4.579  -2.279  23.893  0.00  0.00    +0.009 C 
ATOM     15  C   UNL     1      -3.863  -3.079  24.350  0.00  0.00    +0.009 C 
ATOM     16  C   UNL     1      -3.698  -1.517  23.845  0.00  0.00    +0.009 C 
ENDBRANCH  11  13
ENDBRANCH   7   8
ENDBRANCH   6   7
BRANCH  20  21
ATOM     21  C   UNL     1       0.135   1.166  24.212  0.00  0.00    +0.076 C 
BRANCH  21  22
ATOM     22  N   UNL     1      -0.205   1.891  24.406  0.00  0.00    -0.269 NA
ATOM     23  C   UNL     1       0.090   2.330  25.040  0.00  0.00    +0.094 C 
ATOM     24  C   UNL     1      -0.250   3.056  25.234  0.00  0.00    +0.110 C 
ATOM     25  N   UNL     1      -0.887   3.343  24.794  0.00  0.00    -0.289 N 
ATOM     26  C   UNL     1      -1.182   2.905  24.161  0.00  0.00    +0.110 C 
ATOM     27  C   UNL     1      -0.841   2.179  23.967  0.00  0.00    +0.094 C 
BRANCH  25  28
ATOM     28  C   UNL     1      -1.228   4.069  24.989  0.00  0.00    +0.151 A 
ATOM     29  C   UNL     1      -1.950   4.092  25.388  0.00  0.00    +0.133 A 
ATOM     30  N   UNL     1      -2.291   4.817  25.583  0.00  0.00    -0.238 NA
ATOM     31  C   UNL     1      -1.910   5.521  25.377  0.00  0.00    +0.120 A 
ATOM     32  C   UNL     1      -1.189   5.497  24.977  0.00  0.00    +0.121 A 
ATOM     33  N   UNL     1      -0.848   4.771  24.783  0.00  0.00    -0.226 NA
ENDBRANCH  25  28
ENDBRANCH  21  22
ENDBRANCH  20  21
TORSDOF 7
ENDMDL
MODEL 3
REMARK VINA RESULT:     -10.7      2.836      4.478
REMARK  Name = 
REMARK  7 active torsions:
REMARK  status: ('A' for Active; 'I' for Inactive)
REMARK    1  A    between atoms: C_2  and  C_4
REMARK    2  A    between atoms: C_6  and  C_7
REMARK    3  A    between atoms: C_7  and  C_8
REMARK    4  A    between atoms: C_11  and  C_13
REMARK    5  A    between atoms: C_20  and  C_21
REMARK    6  A    between atoms: C_21  and  N_22
REMARK    7  A    between atoms: N_25  and  C_28
REMARK                            x       y       z     vdW  Elec       q    Type
REMARK                         _______ _______ _______ _____ _____    ______ ____
ROOT
ATOM      4  C   UNL     1      -1.982   3.243  25.012  0.00  0.00    +0.006 C 
ATOM      5  C   UNL     1      -2.747   3.344  24.720  0.00  0.00    +0.005 C 
ATOM      6  C   UNL     1      -3.031   2.850  24.124  0.00  0.00    +0.027 C 
ATOM     17  C   UNL     1      -2.549   2.253  23.820  0.00  0.00    -0.048 C 
ATOM     18  C   UNL     1      -2.832   1.757  23.224  0.00  0.00    +0.026 C 
ATOM     19  C   UNL     1      -1.784   2.151  24.112  0.00  0.00    -0.034 C 
ATOM     20  C   UNL     1      -1.501   2.646  24.708  0.00  0.00    +0.037 C 
ENDROOT
BRANCH   4   2
ATOM      1  C   UNL     1      -1.387   4.477  25.417  0.00  0.00    +0.000 C 
ATOM      2  C   UNL     1      -1.699   3.737  25.607  0.00  0.00    +0.000 C 
ATOM      3  C   UNL     1      -1.728   3.493  26.396  0.00  0.00    +0.000 C 
ENDBRANCH   4   2
BRANCH   6   7
ATOM      7  C   UNL     1      -3.795   2.951  23.832  0.00  0.00    +0.091 C 
BRANCH   7   8
ATOM      8  C   UNL     1      -4.437   2.966  24.352  0.00  0.00    +0.226 A 
ATOM      9  N   UNL     1      -4.816   3.642  24.634  0.00  0.00    -0.112 NA
ATOM     10  N   UNL     1      -5.424   3.402  25.137  0.00  0.00    -0.112 NA
ATOM     11  C   UNL     1      -5.421   2.577  25.165  0.00  0.00    +0.225 A 
ATOM     12  O   UNL     1      -4.810   2.308  24.679  0.00  0.00    -0.423 OA
BRANCH  11  13
ATOM     13  C   UNL     1      -5.937   2.104  25.601  0.00  0.00    +0.070 C 
ATOM     14  C   UNL     1      -6.454   1.631  26.038  0.00  0.00    +0.009 C 
ATOM     15  C   UNL     1      -5.765   2.541  26.279  0.00  0.00    +0.009 C 
ATOM     16  C   UNL     1      -6.110   1.666  24.924  0.00  0.00    +0.009 C 
ENDBRANCH  11  13
ENDBRANCH   7   8
ENDBRANCH   6   7
BRANCH  20  21
ATOM     21  C   UNL     1      -0.736   2.544  24.999  0.00  0.00    +0.076 C 
BRANCH  21  22
ATOM     22  N   UNL     1      -0.188   2.101  24.572  0.00  0.00    -0.269 NA
ATOM     23  C   UNL     1      -0.142   1.284  24.682  0.00  0.00    +0.094 C 
ATOM     24  C   UNL     1       0.407   0.840  24.254  0.00  0.00    +0.110 C 
ATOM     25  N   UNL     1       0.910   1.214  23.717  0.00  0.00    -0.289 N 
ATOM     26  C   UNL     1       0.864   2.030  23.608  0.00  0.00    +0.110 C 
ATOM     27  C   UNL     1       0.315   2.473  24.035  0.00  0.00    +0.094 C 
BRANCH  25  28
ATOM     28  C   UNL     1       1.460   0.770  23.289  0.00  0.00    +0.151 A 
ATOM     29  C   UNL     1       1.205   0.146  22.814  0.00  0.00    +0.133 A 
ATOM     30  N   UNL     1       1.754  -0.297  22.386  0.00  0.00    -0.238 NA
ATOM     31  C   UNL     1       2.558  -0.116  22.434  0.00  0.00    +0.120 A 
ATOM     32  C   UNL     1       2.812   0.508  22.910  0.00  0.00    +0.121 A 
ATOM     33  N   UNL     1       2.263   0.951  23.337  0.00  0.00    -0.226 NA
ENDBRANCH  25  28
ENDBRANCH  21  22
ENDBRANCH  20  21
TORSDOF 7
ENDMDL
MODEL 4
REMARK VINA RESULT:     -10.7      3.152      4.530
REMARK  Name = 
REMARK  7 active torsions:
REMARK  status: ('A' for Active; 'I' for Inactive)
REMARK    1  A    between atoms: C_2  and  C_4
REMARK    2  A    between atoms: C_6  and  C_7
REMARK    3  A    between atoms: C_7  and  C_8
REMARK    4  A    between atoms: C_11  and  C_13
REMARK    5  A    between atoms: C_20  and  C_21
REMARK    6  A    between atoms: C_21  and  N_22
REMARK    7  A    between atoms: N_25  and  C_28
REMARK                            x       y       z     vdW  Elec       q    Type
REMARK                         _______ _______ _______ _____ _____    ______ ____
ROOT
ATOM      4  C   UNL     1      -2.418   0.263  24.473  0.00  0.00    +0.006 C 
ATOM      5  C   UNL     1      -3.063   0.712  24.228  0.00  0.00    +0.005 C 
ATOM      6  C   UNL     1      -2.953   1.349  23.714  0.00  0.00    +0.027 C 
ATOM     17  C   UNL     1      -2.195   1.534  23.445  0.00  0.00    -0.048 C 
ATOM     18  C   UNL     1      -2.084   2.170  22.932  0.00  0.00    +0.026 C 
ATOM     19  C   UNL     1      -1.548   1.084  23.691  0.00  0.00    -0.034 C 
ATOM     20  C   UNL     1      -1.660   0.449  24.205  0.00  0.00    +0.037 C 
ENDROOT
BRANCH   4   2
ATOM      1  C   UNL     1      -2.376  -0.284  25.793  0.00  0.00    +0.000 C 
ATOM      2  C   UNL     1      -2.528  -0.373  24.987  0.00  0.00    +0.000 C 
ATOM      3  C   UNL     1      -2.792  -1.099  24.694  0.00  0.00    +0.000 C 
ENDBRANCH   4   2
BRANCH   6   7
ATOM      7  C   UNL     1      -3.599   1.798  23.469  0.00  0.00    +0.091 C 
BRANCH   7   8
ATOM      8  C   UNL     1      -4.069   2.185  24.027  0.00  0.00    +0.226 A 
ATOM      9  N   UNL     1      -3.979   2.965  24.279  0.00  0.00    -0.112 NA
ATOM     10  N   UNL     1      -4.565   3.121  24.839  0.00  0.00    -0.112 NA
ATOM     11  C   UNL     1      -5.016   2.436  24.932  0.00  0.00    +0.225 A 
ATOM     12  O   UNL     1      -4.709   1.858  24.430  0.00  0.00    -0.423 OA
BRANCH  11  13
ATOM     13  C   UNL     1      -5.661   2.346  25.438  0.00  0.00    +0.070 C 
ATOM     14  C   UNL     1      -6.307   2.256  25.945  0.00  0.00    +0.009 C 
ATOM     15  C   UNL     1      -5.302   2.848  25.985  0.00  0.00    +0.009 C 
ATOM     16  C   UNL     1      -6.021   1.843  24.892  0.00  0.00    +0.009 C 
ENDBRANCH  11  13
ENDBRANCH   7   8
ENDBRANCH   6   7
BRANCH  20  21
ATOM     21  C   UNL     1      -1.013  -0.001  24.449  0.00  0.00    +0.076 C 
BRANCH  21  22
ATOM     22  N   UNL     1      -0.281   0.096  24.083  0.00  0.00    -0.269 NA
ATOM     23  C   UNL     1       0.210   0.723  24.301  0.00  0.00    +0.094 C 
ATOM     24  C   UNL     1       0.942   0.819  23.934  0.00  0.00    +0.110 C 
ATOM     25  N   UNL     1       1.184   0.289  23.350  0.00  0.00    -0.289 N 
ATOM     26  C   UNL     1       0.694  -0.337  23.133  0.00  0.00    +0.110 C 
ATOM     27  C   UNL     1      -0.039  -0.434  23.499  0.00  0.00    +0.094 C 
BRANCH  25  28
ATOM     28  C   UNL     1       1.918   0.386  22.983  0.00  0.00    +0.151 A 
ATOM     29  C   UNL     1       2.099  -0.048  22.305  0.00  0.00    +0.133 A 
ATOM     30  N   UNL     1       2.832   0.049  21.938  0.00  0.00    -0.238 NA
ATOM     31  C   UNL     1       3.383   0.579  22.250  0.00  0.00    +0.120 A 
ATOM     32  C   UNL     1       3.200   1.012  22.928  0.00  0.00    +0.121 A 
ATOM     33  N   UNL     1       2.468   0.915  23.294  0.00  0.00    -0.226 NA
ENDBRANCH  25  28
ENDBRANCH  21  22
ENDBRANCH  20  21
TORSDOF 7
ENDMDL
MODEL 5
REMARK VINA RESULT:     -10.4      3.861      6.039
REMARK  Name = 
REMARK  7 active torsions:
REMARK  status: ('A' for Active; 'I' for Inactive)
REMARK    1  A    between atoms: C_2  and  C_4
REMARK    2  A    between atoms: C_6  and  C_7
REMARK    3  A    between atoms: C_7  and  C_8
REMARK    4  A    between atoms: C_11  and  C_13
REMARK    5  A    between atoms: C_20  and  C_21
REMARK    6  A    between atoms: C_21  and  N_22
REMARK    7  A    between atoms: N_25  and  C_28
REMARK                            x       y       z     vdW  Elec       q    Type
REMARK                         _______ _______ _______ _____ _____    ______ ____
ROOT
ATOM      4  C   UNL     1      -1.371   0.782  24.199  0.00  0.00    +0.006 C 
ATOM      5  C   UNL     1      -1.798   0.338  24.746  0.00  0.00    +0.005 C 
ATOM      6  C   UNL     1      -1.471  -0.349  25.067  0.00  0.00    +0.027 C 
ATOM     17  C   UNL     1      -0.715  -0.590  24.840  0.00  0.00    -0.048 C 
ATOM     18  C   UNL     1      -0.387  -1.276  25.160  0.00  0.00    +0.026 C 
ATOM     19  C   UNL     1      -0.287  -0.145  24.292  0.00  0.00    -0.034 C 
ATOM     20  C   UNL     1      -0.615   0.541  23.972  0.00  0.00    +0.037 C 
ENDROOT
BRANCH   4   2
ATOM      1  C   UNL     1      -2.121   1.432  23.171  0.00  0.00    +0.000 C 
ATOM      2  C   UNL     1      -1.698   1.468  23.878  0.00  0.00    +0.000 C 
ATOM      3  C   UNL     1      -1.602   2.191  24.265  0.00  0.00    +0.000 C 
ENDBRANCH   4   2
BRANCH   6   7
ATOM      7  C   UNL     1      -1.898  -0.793  25.614  0.00  0.00    +0.091 C 
BRANCH   7   8
ATOM      8  C   UNL     1      -2.635  -1.105  25.407  0.00  0.00    +0.226 A 
ATOM      9  N   UNL     1      -3.355  -0.925  25.768  0.00  0.00    -0.112 NA
ATOM     10  N   UNL     1      -3.945  -1.359  25.388  0.00  0.00    -0.112 NA
ATOM     11  C   UNL     1      -3.589  -1.807  24.793  0.00  0.00    +0.225 A 
ATOM     12  O   UNL     1      -2.779  -1.649  24.806  0.00  0.00    -0.423 OA
BRANCH  11  13
ATOM     13  C   UNL     1      -3.974  -2.322  24.277  0.00  0.00    +0.070 C 
ATOM     14  C   UNL     1      -4.360  -2.836  23.760  0.00  0.00    +0.009 C 
ATOM     15  C   UNL     1      -4.350  -1.681  23.918  0.00  0.00    +0.009 C 
ATOM     16  C   UNL     1      -3.599  -2.963  24.634  0.00  0.00    +0.009 C 
ENDBRANCH  11  13
ENDBRANCH   7   8
ENDBRANCH   6   7
BRANCH  20  21
ATOM     21  C   UNL     1      -0.187   0.985  23.424  0.00  0.00    +0.076 C 
BRANCH  21  22
ATOM     22  N   UNL     1       0.620   0.851  23.326  0.00  0.00    -0.269 NA
ATOM     23  C   UNL     1       0.882   0.267  22.803  0.00  0.00    +0.094 C 
ATOM     24  C   UNL     1       1.690   0.133  22.704  0.00  0.00    +0.110 C 
ATOM     25  N   UNL     1       2.237   0.583  23.128  0.00  0.00    -0.289 N 
ATOM     26  C   UNL     1       1.976   1.166  23.650  0.00  0.00    +0.110 C 
ATOM     27  C   UNL     1       1.168   1.300  23.748  0.00  0.00    +0.094 C 
BRANCH  25  28
ATOM     28  C   UNL     1       3.046   0.449  23.029  0.00  0.00    +0.151 A 
ATOM     29  C   UNL     1       3.368  -0.286  23.221  0.00  0.00    +0.133 A 
ATOM     30  N   UNL     1       4.176  -0.420  23.122  0.00  0.00    -0.238 NA
ATOM     31  C   UNL     1       4.662   0.181  22.832  0.00  0.00    +0.120 A 
ATOM     32  C   UNL     1       4.338   0.916  22.641  0.00  0.00    +0.121 A 
ATOM     33  N   UNL     1       3.530   1.050  22.739  0.00  0.00    -0.226 NA
ENDBRANCH  25  28
ENDBRANCH  21  22
ENDBRANCH  20  21
TORSDOF 7
ENDMDL
MODEL 6
REMARK VINA RESULT:     -10.3      1.373      5.451
REMARK  Name = 
REMARK  7 active torsions:
REMARK  status: ('A' for Active; 'I' for Inactive)
REMARK    1  A    between atoms: C_2  and  C_4
REMARK    2  A    between atoms: C_6  and  C_7
REMARK    3  A    between atoms: C_7  and  C_8
REMARK    4  A    between atoms: C_11  and  C_13
REMARK    5  A    between atoms: C_20  and  C_21
REMARK    6  A    between atoms: C_21  and  N_22
REMARK    7  A    between atoms: N_25  and  C_28
REMARK                            x       y       z     vdW  Elec       q    Type
REMARK                         _______ _______ _______ _____ _____    ______ ____
ROOT
ATOM      4  C   UNL     1      -4.763   1.075  24.766  0.00  0.00    +0.006 C 
ATOM      5  C   UNL     1      -4.704   0.364  24.353  0.00  0.00    +0.005 C 
ATOM      6  C   UNL     1      -4.082   0.243  23.825  0.00  0.00    +0.027 C 
ATOM     17  C   UNL     1      -3.518   0.835  23.710  0.00  0.00    -0.048 C 
ATOM     18  C   UNL     1      -2.896   0.715  23.183  0.00  0.00    +0.026 C 
ATOM     19  C   UNL     1      -3.577   1.547  24.124  0.00  0.00    -0.034 C 
ATOM     20  C   UNL     1      -4.200   1.666  24.651  0.00  0.00    +0.037 C 
ENDROOT
BRANCH   4   2
ATOM      1  C   UNL     1      -5.326   0.926  26.071  0.00  0.00    +0.000 C 
ATOM      2  C   UNL     1      -5.385   1.195  25.293  0.00  0.00    +0.000 C 
ATOM      3  C   UNL     1      -6.069   1.586  25.043  0.00  0.00    +0.000 C 
ENDBRANCH   4   2
BRANCH   6   7
ATOM      7  C   UNL     1      -4.023  -0.468  23.412  0.00  0.00    +0.091 C 
BRANCH   7   8
ATOM      8  C   UNL     1      -3.900  -1.174  23.822  0.00  0.00    +0.226 A 
ATOM      9  N   UNL     1      -4.447  -1.786  23.906  0.00  0.00    -0.112 NA
ATOM     10  N   UNL     1      -4.094  -2.382  24.355  0.00  0.00    -0.112 NA
ATOM     11  C   UNL     1      -3.330  -2.138  24.548  0.00  0.00    +0.225 A 
ATOM     12  O   UNL     1      -3.210  -1.391  24.218  0.00  0.00    -0.423 OA
BRANCH  11  13
ATOM     13  C   UNL     1      -2.781  -2.564  24.992  0.00  0.00    +0.070 C 
ATOM     14  C   UNL     1      -2.232  -2.992  25.436  0.00  0.00    +0.009 C 
ATOM     15  C   UNL     1      -2.291  -2.622  24.331  0.00  0.00    +0.009 C 
ATOM     16  C   UNL     1      -3.270  -2.507  25.653  0.00  0.00    +0.009 C 
ENDBRANCH  11  13
ENDBRANCH   7   8
ENDBRANCH   6   7
BRANCH  20  21
ATOM     21  C   UNL     1      -4.258   2.378  25.064  0.00  0.00    +0.076 C 
BRANCH  21  22
ATOM     22  N   UNL     1      -3.640   2.922  25.038  0.00  0.00    -0.269 NA
ATOM     23  C   UNL     1      -3.002   2.849  25.557  0.00  0.00    +0.094 C 
ATOM     24  C   UNL     1      -2.384   3.394  25.531  0.00  0.00    +0.110 C 
ATOM     25  N   UNL     1      -2.402   4.012  24.984  0.00  0.00    -0.289 N 
ATOM     26  C   UNL     1      -3.038   4.086  24.465  0.00  0.00    +0.110 C 
ATOM     27  C   UNL     1      -3.657   3.541  24.492  0.00  0.00    +0.094 C 
BRANCH  25  28
ATOM     28  C   UNL     1      -1.782   4.558  24.958  0.00  0.00    +0.151 A 
ATOM     29  C   UNL     1      -1.010   4.298  24.829  0.00  0.00    +0.133 A 
ATOM     30  N   UNL     1      -0.391   4.843  24.802  0.00  0.00    -0.238 NA
ATOM     31  C   UNL     1      -0.545   5.647  24.904  0.00  0.00    +0.120 A 
ATOM     32  C   UNL     1      -1.317   5.906  25.034  0.00  0.00    +0.121 A 
ATOM     33  N   UNL     1      -1.936   5.361  25.060  0.00  0.00    -0.226 NA
ENDBRANCH  25  28
ENDBRANCH  21  22
ENDBRANCH  20  21
TORSDOF 7
ENDMDL
MODEL 7
REMARK VINA RESULT:     -10.1      1.835      3.476
REMARK  Name = 
REMARK  7 active torsions:
REMARK  status: ('A' for Active; 'I' for Inactive)
REMARK    1  A    between atoms: C_2  and  C_4
REMARK    2  A    between atoms: C_6  and  C_7
REMARK    3  A    between atoms: C_7  and  C_8
REMARK    4  A    between atoms: C_11  and  C_13
REMARK    5  A    between atoms: C_20  and  C_21
REMARK    6  A    between atoms: C_21  and  N_22
REMARK    7  A    between atoms: N_25  and  C_28
REMARK                            x       y       z     vdW  Elec       q    Type
REMARK                         _______ _______ _______ _____ _____    ______ ____
ROOT
ATOM      4  C   UNL     1      -1.907   3.115  24.848  0.00  0.00    +0.006 C 
ATOM      5  C   UNL     1      -2.636   3.459  24.679  0.00  0.00    +0.005 C 
ATOM      6  C   UNL     1      -3.136   3.116  24.120  0.00  0.00    +0.027 C 
ATOM     17  C   UNL     1      -2.905   2.427  23.729  0.00  0.00    -0.048 C 
ATOM     18  C   UNL     1      -3.403   2.083  23.169  0.00  0.00    +0.026 C 
ATOM     19  C   UNL     1      -2.174   2.082  23.897  0.00  0.00    -0.034 C 
ATOM     20  C   UNL     1      -1.675   2.426  24.457  0.00  0.00    +0.037 C 
ENDROOT
BRANCH   4   2
ATOM      1  C   UNL     1      -1.538   3.330  26.212  0.00  0.00    +0.000 C 
ATOM      2  C   UNL     1      -1.408   3.458  25.407  0.00  0.00    +0.000 C 
ATOM      3  C   UNL     1      -0.776   3.931  25.162  0.00  0.00    +0.000 C 
ENDBRANCH   4   2
BRANCH   6   7
ATOM      7  C   UNL     1      -3.866   3.460  23.951  0.00  0.00    +0.091 C 
BRANCH   7   8
ATOM      8  C   UNL     1      -4.475   3.429  24.508  0.00  0.00    +0.226 A 
ATOM      9  N   UNL     1      -4.817   4.077  24.887  0.00  0.00    -0.112 NA
ATOM     10  N   UNL     1      -5.402   3.794  25.396  0.00  0.00    -0.112 NA
ATOM     11  C   UNL     1      -5.421   2.971  25.330  0.00  0.00    +0.225 A 
ATOM     12  O   UNL     1      -4.847   2.747  24.781  0.00  0.00    -0.423 OA
BRANCH  11  13
ATOM     13  C   UNL     1      -5.924   2.463  25.741  0.00  0.00    +0.070 C 
ATOM     14  C   UNL     1      -6.427   1.955  26.152  0.00  0.00    +0.009 C 
ATOM     15  C   UNL     1      -5.591   2.710  26.454  0.00  0.00    +0.009 C 
ATOM     16  C   UNL     1      -6.258   2.216  25.028  0.00  0.00    +0.009 C 
ENDBRANCH  11  13
ENDBRANCH   7   8
ENDBRANCH   6   7
BRANCH  20  21
ATOM     21  C   UNL     1      -0.945   2.081  24.625  0.00  0.00    +0.076 C 
BRANCH  21  22
ATOM     22  N   UNL     1      -0.881   1.262  24.688  0.00  0.00    -0.269 NA
ATOM     23  C   UNL     1      -0.534   0.827  24.078  0.00  0.00    +0.094 C 
ATOM     24  C   UNL     1      -0.469   0.007  24.140  0.00  0.00    +0.110 C 
ATOM     25  N   UNL     1      -0.752  -0.378  24.813  0.00  0.00    -0.289 N 
ATOM     26  C   UNL     1      -1.099   0.055  25.422  0.00  0.00    +0.110 C 
ATOM     27  C   UNL     1      -1.163   0.875  25.360  0.00  0.00    +0.094 C 
BRANCH  25  28
ATOM     28  C   UNL     1      -0.687  -1.199  24.875  0.00  0.00    +0.151 A 
ATOM     29  C   UNL     1      -1.271  -1.684  24.552  0.00  0.00    +0.133 A 
ATOM     30  N   UNL     1      -1.207  -2.504  24.614  0.00  0.00    -0.238 NA
ATOM     31  C   UNL     1      -0.558  -2.840  25.000  0.00  0.00    +0.120 A 
ATOM     32  C   UNL     1       0.025  -2.354  25.324  0.00  0.00    +0.121 A 
ATOM     33  N   UNL     1      -0.040  -1.533  25.261  0.00  0.00    -0.226 NA
ENDBRANCH  25  28
ENDBRANCH  21  22
ENDBRANCH  20  21
TORSDOF 7
ENDMDL
