REMARK  Name = 
REMARK  8 active torsions:
REMARK  status: ('A' for Active; 'I' for Inactive)
REMARK    1  A    between atoms: O_2  and  C_3
REMARK    2  A    between atoms: C_6  and  O_7
REMARK    3  A    between atoms: C_9  and  S_11
REMARK    4  A    between atoms: S_11  and  N_14
REMARK    5  A    between atoms: N_14  and  C_15
REMARK    6  A    between atoms: C_15  and  C_16
REMARK    7  A    between atoms: C_23  and  C_24
REMARK    8  A    between atoms: C_26  and  C_30
REMARK                            x       y       z     vdW  Elec       q    Type
REMARK                         _______ _______ _______ _____ _____    ______ ____
ROOT
ATOM     16  C   UNL     1      -1.838  -6.006   0.000  0.00  0.00    +0.077 C 
ATOM     17  C   UNL     1      -1.062  -5.946   0.000  0.00  0.00    +0.018 C 
ATOM     18  C   UNL     1      -0.644  -5.252   0.000  0.00  0.00    +0.010 C 
ATOM     19  C   UNL     1       0.241  -5.396   0.000  0.00  0.00    +0.018 C 
ATOM     20  C   UNL     1      -0.390  -5.567   0.000  0.00  0.00    +0.072 C 
ATOM     21  N   UNL     1      -1.404  -5.304   0.000  0.00  0.00    -0.272 NA
ATOM     22  C   UNL     1      -1.660  -4.428   0.000  0.00  0.00    +0.078 C 
ATOM     23  C   UNL     1      -0.897  -4.412   0.000  0.00  0.00    +0.056 C 
ENDROOT
BRANCH  23  24
ATOM     24  C   UNL     1      -0.412  -3.744   0.000  0.00  0.00    +0.058 A 
ATOM     25  C   UNL     1      -0.667  -2.960   0.000  0.00  0.00    +0.035 A 
ATOM     26  C   UNL     1       0.000  -2.475   0.000  0.00  0.00    +0.102 A 
ATOM     27  N   UNL     1       0.667  -2.960   0.000  0.00  0.00    -0.170 NA
ATOM     28  N   UNL     1       0.412  -3.744   0.000  0.00  0.00    -0.253 N 
ATOM     29  C   UNL     1       0.897  -4.412   0.000  0.00  0.00    +0.153 C 
BRANCH  26  30
ATOM     30  C   UNL     1       0.000  -1.650   0.000  0.00  0.00    +0.019 A 
ATOM     31  C   UNL     1       0.715  -1.238   0.000  0.00  0.00    +0.002 A 
ATOM     32  C   UNL     1       0.715  -0.412   0.000  0.00  0.00    +0.000 A 
ATOM     33  C   UNL     1       0.000   0.000   0.000  0.00  0.00    +0.000 A 
ATOM     34  C   UNL     1       0.000   0.825   0.000  0.00  0.00    +0.000 A 
ATOM     35  C   UNL     1       0.715   1.238   0.000  0.00  0.00    +0.000 A 
ATOM     36  C   UNL     1       1.429   0.825   0.000  0.00  0.00    +0.000 A 
ATOM     37  C   UNL     1       1.429   0.000   0.000  0.00  0.00    +0.000 A 
ATOM     38  C   UNL     1      -0.715  -0.412   0.000  0.00  0.00    +0.000 A 
ATOM     39  C   UNL     1      -0.715  -1.238   0.000  0.00  0.00    +0.002 A 
ENDBRANCH  26  30
ENDBRANCH  23  24
BRANCH  16  15
ATOM     15  C   UNL     1      -2.542  -6.435   0.000  0.00  0.00    +0.131 C 
BRANCH  15  14
ATOM     14  N   UNL     1      -3.267  -6.040   0.000  0.00  0.00    -0.076 NA
BRANCH  14  11
ATOM     11  S   UNL     1      -3.971  -6.469   0.000  0.00  0.00    +0.080 S 
ATOM     12  O   UNL     1      -3.542  -7.174   0.000  0.00  0.00    -0.151 OA
ATOM     13  O   UNL     1      -4.400  -5.765   0.000  0.00  0.00    -0.151 OA
BRANCH  11   9
ATOM      3  C   UNL     1      -5.360  -8.153   0.000  0.00  0.00    +0.140 A 
ATOM      4  C   UNL     1      -6.084  -7.758   0.000  0.00  0.00    +0.040 A 
ATOM      5  C   UNL     1      -6.104  -6.933   0.000  0.00  0.00    +0.041 A 
ATOM      6  C   UNL     1      -5.399  -6.503   0.000  0.00  0.00    +0.157 A 
ATOM      9  C   UNL     1      -4.675  -6.899   0.000  0.00  0.00    +0.160 A 
ATOM     10  C   UNL     1      -4.656  -7.723   0.000  0.00  0.00    +0.060 A 
BRANCH   3   2
ATOM      1  C   UNL     1      -6.045  -9.407   0.000  0.00  0.00    +0.252 C 
ATOM      2  O   UNL     1      -5.341  -8.978   0.000  0.00  0.00    -0.471 OA
ENDBRANCH   3   2
BRANCH   6   7
ATOM      7  O   UNL     1      -5.419  -5.679   0.000  0.00  0.00    -0.470 OA
ATOM      8  C   UNL     1      -4.715  -5.249   0.000  0.00  0.00    +0.253 C 
ENDBRANCH   6   7
ENDBRANCH  11   9
ENDBRANCH  14  11
ENDBRANCH  15  14
ENDBRANCH  16  15
TORSDOF 8
