MODEL 1
REMARK VINA RESULT:     -12.9      0.000      0.000
REMARK  Name = 
REMARK  4 active torsions:
REMARK  status: ('A' for Active; 'I' for Inactive)
REMARK    1  A    between atoms: S_2  and  C_3
REMARK    2  A    between atoms: C_3  and  C_4
REMARK    3  A    between atoms: N_6  and  C_7
REMARK    4  A    between atoms: C_17  and  C_19
REMARK                            x       y       z     vdW  Elec       q    Type
REMARK                         _______ _______ _______ _____ _____    ______ ____
ROOT
ATOM      7  C   UNL     1      -2.859   1.968  24.005  0.00  0.00    +0.129 A 
ATOM      8  C   UNL     1      -3.097   2.758  24.030  0.00  0.00    +0.023 A 
ATOM      9  C   UNL     1      -3.835   2.957  24.340  0.00  0.00    +0.014 A 
ATOM     10  C   UNL     1      -4.335   2.366  24.624  0.00  0.00    +0.041 A 
ATOM     11  C   UNL     1      -5.164   2.256  25.006  0.00  0.00    +0.058 C 
ATOM     12  C   UNL     1      -5.724   2.620  25.220  0.00  0.00    +0.011 C 
ATOM     13  C   UNL     1      -5.486   1.841  25.193  0.00  0.00    +0.043 C 
ATOM     14  C   UNL     1      -5.382   0.860  25.247  0.00  0.00    +0.096 C 
ATOM     15  N   UNL     1      -4.619   0.782  24.914  0.00  0.00    -0.274 N 
ATOM     16  C   UNL     1      -5.077   1.306  25.065  0.00  0.00    +0.100 C 
ATOM     17  C   UNL     1      -3.931   0.415  24.644  0.00  0.00    +0.267 C 
ATOM     18  O   UNL     1      -3.320   0.868  24.324  0.00  0.00    -0.268 OA
ATOM     25  C   UNL     1      -4.620   1.947  24.795  0.00  0.00    +0.110 C 
ATOM     26  N   UNL     1      -4.097   1.576  24.599  0.00  0.00    -0.298 N 
ATOM     27  C   UNL     1      -3.359   1.377  24.289  0.00  0.00    +0.276 A 
ATOM     28  O   UNL     1      -2.912   0.696  24.159  0.00  0.00    -0.266 OA
ENDROOT
BRANCH  17  19
ATOM     19  C   UNL     1      -3.854  -0.404  24.694  0.00  0.00    +0.135 A 
ATOM     20  N   UNL     1      -3.541  -0.749  25.374  0.00  0.00    -0.239 NA
ATOM     21  C   UNL     1      -3.464  -1.570  25.424  0.00  0.00    +0.099 A 
ATOM     22  C   UNL     1      -3.701  -2.044  24.793  0.00  0.00    +0.021 A 
ATOM     23  C   UNL     1      -4.015  -1.701  24.113  0.00  0.00    +0.003 A 
ATOM     24  C   UNL     1      -4.092  -0.880  24.063  0.00  0.00    +0.024 A 
ENDBRANCH  17  19
BRANCH   7   6
ATOM      4  C   UNL     1      -1.456   2.215  23.895  0.00  0.00    +0.257 C 
ATOM      5  O   UNL     1      -0.717   2.016  23.585  0.00  0.00    -0.272 OA
ATOM      6  N   UNL     1      -2.121   1.770  23.695  0.00  0.00    -0.174 NA
BRANCH   4   3
ATOM      3  C   UNL     1      -1.529   2.859  24.406  0.00  0.00    +0.145 C 
BRANCH   3   2
ATOM      1  C   UNL     1      -0.839   3.715  25.318  0.00  0.00    +0.070 C 
ATOM      2  S   UNL     1      -0.864   3.307  24.602  0.00  0.00    -0.130 S 
ENDBRANCH   3   2
ENDBRANCH   4   3
ENDBRANCH   7   6
TORSDOF 4
ENDMDL
MODEL 2
REMARK VINA RESULT:     -12.3      1.511      3.435
REMARK  Name = 
REMARK  4 active torsions:
REMARK  status: ('A' for Active; 'I' for Inactive)
REMARK    1  A    between atoms: S_2  and  C_3
REMARK    2  A    between atoms: C_3  and  C_4
REMARK    3  A    between atoms: N_6  and  C_7
REMARK    4  A    between atoms: C_17  and  C_19
REMARK                            x       y       z     vdW  Elec       q    Type
REMARK                         _______ _______ _______ _____ _____    ______ ____
ROOT
ATOM      7  C   UNL     1      -3.354   0.695  24.566  0.00  0.00    +0.129 A 
ATOM      8  C   UNL     1      -4.005   0.193  24.498  0.00  0.00    +0.023 A 
ATOM      9  C   UNL     1      -4.765   0.480  24.643  0.00  0.00    +0.014 A 
ATOM     10  C   UNL     1      -4.873   1.269  24.857  0.00  0.00    +0.041 A 
ATOM     11  C   UNL     1      -5.538   1.865  25.074  0.00  0.00    +0.058 C 
ATOM     12  C   UNL     1      -6.235   1.908  25.151  0.00  0.00    +0.011 C 
ATOM     13  C   UNL     1      -5.590   2.401  25.217  0.00  0.00    +0.043 C 
ATOM     14  C   UNL     1      -4.948   3.141  25.347  0.00  0.00    +0.096 C 
ATOM     15  N   UNL     1      -4.235   2.740  25.177  0.00  0.00    -0.274 N 
ATOM     16  C   UNL     1      -4.931   2.590  25.203  0.00  0.00    +0.100 C 
ATOM     17  C   UNL     1      -3.426   2.622  25.069  0.00  0.00    +0.267 C 
ATOM     18  O   UNL     1      -3.143   1.877  24.851  0.00  0.00    -0.268 OA
ATOM     25  C   UNL     1      -4.888   1.786  24.992  0.00  0.00    +0.110 C 
ATOM     26  N   UNL     1      -4.222   1.771  24.925  0.00  0.00    -0.298 N 
ATOM     27  C   UNL     1      -3.462   1.484  24.780  0.00  0.00    +0.276 A 
ATOM     28  O   UNL     1      -2.689   1.770  24.780  0.00  0.00    -0.266 OA
ENDROOT
BRANCH  17  19
ATOM     19  C   UNL     1      -2.899   3.246  25.181  0.00  0.00    +0.135 A 
ATOM     20  N   UNL     1      -2.705   3.740  24.550  0.00  0.00    -0.239 NA
ATOM     21  C   UNL     1      -2.178   4.366  24.661  0.00  0.00    +0.099 A 
ATOM     22  C   UNL     1      -1.845   4.496  25.405  0.00  0.00    +0.021 A 
ATOM     23  C   UNL     1      -2.039   4.003  26.036  0.00  0.00    +0.003 A 
ATOM     24  C   UNL     1      -2.566   3.378  25.925  0.00  0.00    +0.024 A 
ENDBRANCH  17  19
BRANCH   7   6
ATOM      4  C   UNL     1      -2.427  -0.392  24.536  0.00  0.00    +0.257 C 
ATOM      5  O   UNL     1      -1.667  -0.679  24.390  0.00  0.00    -0.272 OA
ATOM      6  N   UNL     1      -2.595   0.407  24.420  0.00  0.00    -0.174 NA
BRANCH   4   3
ATOM      3  C   UNL     1      -3.018  -0.904  24.799  0.00  0.00    +0.145 C 
BRANCH   3   2
ATOM      1  C   UNL     1      -3.364  -2.186  25.327  0.00  0.00    +0.070 C 
ATOM      2  S   UNL     1      -2.859  -1.710  24.880  0.00  0.00    -0.130 S 
ENDBRANCH   3   2
ENDBRANCH   4   3
ENDBRANCH   7   6
TORSDOF 4
ENDMDL
MODEL 3
REMARK VINA RESULT:     -12.2      1.451      3.211
REMARK  Name = 
REMARK  4 active torsions:
REMARK  status: ('A' for Active; 'I' for Inactive)
REMARK    1  A    between atoms: S_2  and  C_3
REMARK    2  A    between atoms: C_3  and  C_4
REMARK    3  A    between atoms: N_6  and  C_7
REMARK    4  A    between atoms: C_17  and  C_19
REMARK                            x       y       z     vdW  Elec       q    Type
REMARK                         _______ _______ _______ _____ _____    ______ ____
ROOT
ATOM      7  C   UNL     1      -1.870  -0.134  25.047  0.00  0.00    +0.129 A 
ATOM      8  C   UNL     1      -1.539  -0.885  24.963  0.00  0.00    +0.023 A 
ATOM      9  C   UNL     1      -2.008  -1.517  24.716  0.00  0.00    +0.014 A 
ATOM     10  C   UNL     1      -2.807  -1.398  24.553  0.00  0.00    +0.041 A 
ATOM     11  C   UNL     1      -3.555  -1.856  24.278  0.00  0.00    +0.058 C 
ATOM     12  C   UNL     1      -3.770  -2.497  24.089  0.00  0.00    +0.011 C 
ATOM     13  C   UNL     1      -4.093  -1.755  24.173  0.00  0.00    +0.043 C 
ATOM     14  C   UNL     1      -4.660  -0.946  24.214  0.00  0.00    +0.096 C 
ATOM     15  N   UNL     1      -4.091  -0.389  24.468  0.00  0.00    -0.274 N 
ATOM     16  C   UNL     1      -4.116  -1.084  24.312  0.00  0.00    +0.100 C 
ATOM     17  C   UNL     1      -3.775   0.337  24.699  0.00  0.00    +0.267 C 
ATOM     18  O   UNL     1      -2.976   0.395  24.900  0.00  0.00    -0.268 OA
ATOM     25  C   UNL     1      -3.317  -1.268  24.461  0.00  0.00    +0.110 C 
ATOM     26  N   UNL     1      -3.139  -0.647  24.637  0.00  0.00    -0.298 N 
ATOM     27  C   UNL     1      -2.670  -0.015  24.884  0.00  0.00    +0.276 A 
ATOM     28  O   UNL     1      -2.759   0.791  25.037  0.00  0.00    -0.266 OA
ENDROOT
BRANCH  17  19
ATOM     19  C   UNL     1      -4.257   1.005  24.730  0.00  0.00    +0.135 A 
ATOM     20  N   UNL     1      -4.198   1.584  24.145  0.00  0.00    -0.239 NA
ATOM     21  C   UNL     1      -4.681   2.253  24.176  0.00  0.00    +0.099 A 
ATOM     22  C   UNL     1      -5.222   2.343  24.792  0.00  0.00    +0.021 A 
ATOM     23  C   UNL     1      -5.282   1.765  25.377  0.00  0.00    +0.003 A 
ATOM     24  C   UNL     1      -4.799   1.096  25.346  0.00  0.00    +0.024 A 
ENDBRANCH  17  19
BRANCH   7   6
ATOM      4  C   UNL     1      -0.673   0.637  24.934  0.00  0.00    +0.257 C 
ATOM      5  O   UNL     1      -0.203   1.270  25.181  0.00  0.00    -0.272 OA
ATOM      6  N   UNL     1      -1.401   0.498  25.294  0.00  0.00    -0.174 NA
BRANCH   4   3
ATOM      3  C   UNL     1      -0.413   0.144  24.325  0.00  0.00    +0.145 C 
BRANCH   3   2
ATOM      1  C   UNL     1       0.478  -0.090  23.232  0.00  0.00    +0.070 C 
ATOM      2  S   UNL     1       0.287   0.319  23.923  0.00  0.00    -0.130 S 
ENDBRANCH   3   2
ENDBRANCH   4   3
ENDBRANCH   7   6
TORSDOF 4
ENDMDL
MODEL 4
REMARK VINA RESULT:     -11.9      1.604      3.628
REMARK  Name = 
REMARK  4 active torsions:
REMARK  status: ('A' for Active; 'I' for Inactive)
REMARK    1  A    between atoms: S_2  and  C_3
REMARK    2  A    between atoms: C_3  and  C_4
REMARK    3  A    between atoms: N_6  and  C_7
REMARK    4  A    between atoms: C_17  and  C_19
REMARK                            x       y       z     vdW  Elec       q    Type
REMARK                         _______ _______ _______ _____ _____    ______ ____
ROOT
ATOM      7  C   UNL     1      -3.801   1.129  24.508  0.00  0.00    +0.129 A 
ATOM      8  C   UNL     1      -4.427   0.595  24.574  0.00  0.00    +0.023 A 
ATOM      9  C   UNL     1      -4.291  -0.167  24.859  0.00  0.00    +0.014 A 
ATOM     10  C   UNL     1      -3.529  -0.395  25.078  0.00  0.00    +0.041 A 
ATOM     11  C   UNL     1      -3.068  -1.118  25.410  0.00  0.00    +0.058 C 
ATOM     12  C   UNL     1      -3.161  -1.781  25.619  0.00  0.00    +0.011 C 
ATOM     13  C   UNL     1      -2.546  -1.252  25.552  0.00  0.00    +0.043 C 
ATOM     14  C   UNL     1      -1.686  -0.765  25.545  0.00  0.00    +0.096 C 
ATOM     15  N   UNL     1      -1.944  -0.029  25.246  0.00  0.00    -0.274 N 
ATOM     16  C   UNL     1      -2.229  -0.661  25.409  0.00  0.00    +0.100 C 
ATOM     17  C   UNL     1      -1.904   0.754  24.986  0.00  0.00    +0.267 C 
ATOM     18  O   UNL     1      -2.587   1.139  24.729  0.00  0.00    -0.268 OA
ATOM     25  C   UNL     1      -3.019  -0.492  25.205  0.00  0.00    +0.110 C 
ATOM     26  N   UNL     1      -2.903   0.139  25.011  0.00  0.00    -0.298 N 
ATOM     27  C   UNL     1      -3.040   0.901  24.726  0.00  0.00    +0.276 A 
ATOM     28  O   UNL     1      -2.605   1.585  24.573  0.00  0.00    -0.266 OA
ENDROOT
BRANCH  17  19
ATOM     19  C   UNL     1      -1.181   1.151  24.984  0.00  0.00    +0.135 A 
ATOM     20  N   UNL     1      -0.687   1.107  24.325  0.00  0.00    -0.239 NA
ATOM     21  C   UNL     1       0.037   1.504  24.324  0.00  0.00    +0.099 A 
ATOM     22  C   UNL     1       0.265   1.945  24.982  0.00  0.00    +0.021 A 
ATOM     23  C   UNL     1      -0.227   1.990  25.641  0.00  0.00    +0.003 A 
ATOM     24  C   UNL     1      -0.951   1.592  25.643  0.00  0.00    +0.024 A 
ENDBRANCH  17  19
BRANCH   7   6
ATOM      4  C   UNL     1      -4.585   2.323  24.496  0.00  0.00    +0.257 C 
ATOM      5  O   UNL     1      -4.722   3.086  24.210  0.00  0.00    -0.272 OA
ATOM      6  N   UNL     1      -3.939   1.890  24.223  0.00  0.00    -0.174 NA
BRANCH   4   3
ATOM      3  C   UNL     1      -5.096   1.994  25.054  0.00  0.00    +0.145 C 
BRANCH   3   2
ATOM      1  C   UNL     1      -6.016   2.316  26.099  0.00  0.00    +0.070 C 
ATOM      2  S   UNL     1      -5.741   2.429  25.330  0.00  0.00    -0.130 S 
ENDBRANCH   3   2
ENDBRANCH   4   3
ENDBRANCH   7   6
TORSDOF 4
ENDMDL
MODEL 5
REMARK VINA RESULT:     -11.9      2.066      3.546
REMARK  Name = 
REMARK  4 active torsions:
REMARK  status: ('A' for Active; 'I' for Inactive)
REMARK    1  A    between atoms: S_2  and  C_3
REMARK    2  A    between atoms: C_3  and  C_4
REMARK    3  A    between atoms: N_6  and  C_7
REMARK    4  A    between atoms: C_17  and  C_19
REMARK                            x       y       z     vdW  Elec       q    Type
REMARK                         _______ _______ _______ _____ _____    ______ ____
ROOT
ATOM      7  C   UNL     1      -1.351   1.755  25.302  0.00  0.00    +0.129 A 
ATOM      8  C   UNL     1      -0.569   2.018  25.310  0.00  0.00    +0.023 A 
ATOM      9  C   UNL     1      -0.404   2.825  25.253  0.00  0.00    +0.014 A 
ATOM     10  C   UNL     1      -1.021   3.368  25.187  0.00  0.00    +0.041 A 
ATOM     11  C   UNL     1      -1.172   4.271  25.110  0.00  0.00    +0.058 C 
ATOM     12  C   UNL     1      -0.833   4.885  25.074  0.00  0.00    +0.011 C 
ATOM     13  C   UNL     1      -1.604   4.621  25.066  0.00  0.00    +0.043 C 
ATOM     14  C   UNL     1      -2.584   4.502  25.039  0.00  0.00    +0.096 C 
ATOM     15  N   UNL     1      -2.626   3.670  25.103  0.00  0.00    -0.274 N 
ATOM     16  C   UNL     1      -2.122   4.172  25.082  0.00  0.00    +0.100 C 
ATOM     17  C   UNL     1      -2.962   2.918  25.149  0.00  0.00    +0.267 C 
ATOM     18  O   UNL     1      -2.477   2.253  25.220  0.00  0.00    -0.268 OA
ATOM     25  C   UNL     1      -1.456   3.676  25.146  0.00  0.00    +0.110 C 
ATOM     26  N   UNL     1      -1.803   3.104  25.178  0.00  0.00    -0.298 N 
ATOM     27  C   UNL     1      -1.968   2.298  25.236  0.00  0.00    +0.276 A 
ATOM     28  O   UNL     1      -2.631   1.807  25.249  0.00  0.00    -0.266 OA
ENDROOT
BRANCH  17  19
ATOM     19  C   UNL     1      -3.782   2.830  25.125  0.00  0.00    +0.135 A 
ATOM     20  N   UNL     1      -4.231   2.961  25.804  0.00  0.00    -0.239 NA
ATOM     21  C   UNL     1      -5.051   2.873  25.780  0.00  0.00    +0.099 A 
ATOM     22  C   UNL     1      -5.422   2.654  25.077  0.00  0.00    +0.021 A 
ATOM     23  C   UNL     1      -4.973   2.522  24.398  0.00  0.00    +0.003 A 
ATOM     24  C   UNL     1      -4.153   2.610  24.422  0.00  0.00    +0.024 A 
ENDBRANCH  17  19
BRANCH   7   6
ATOM      4  C   UNL     1      -1.066   0.405  24.930  0.00  0.00    +0.257 C 
ATOM      5  O   UNL     1      -1.231  -0.402  24.988  0.00  0.00    -0.272 OA
ATOM      6  N   UNL     1      -1.514   0.949  25.359  0.00  0.00    -0.174 NA
BRANCH   4   3
ATOM      3  C   UNL     1      -0.454   0.668  24.444  0.00  0.00    +0.145 C 
BRANCH   3   2
ATOM      1  C   UNL     1       0.367   0.353  23.317  0.00  0.00    +0.070 C 
ATOM      2  S   UNL     1      -0.004   0.123  24.017  0.00  0.00    -0.130 S 
ENDBRANCH   3   2
ENDBRANCH   4   3
ENDBRANCH   7   6
TORSDOF 4
ENDMDL
MODEL 6
REMARK VINA RESULT:     -11.5      1.463      2.869
REMARK  Name = 
REMARK  4 active torsions:
REMARK  status: ('A' for Active; 'I' for Inactive)
REMARK    1  A    between atoms: S_2  and  C_3
REMARK    2  A    between atoms: C_3  and  C_4
REMARK    3  A    between atoms: N_6  and  C_7
REMARK    4  A    between atoms: C_17  and  C_19
REMARK                            x       y       z     vdW  Elec       q    Type
REMARK                         _______ _______ _______ _____ _____    ______ ____
ROOT
ATOM      7  C   UNL     1      -4.217   1.403  24.445  0.00  0.00    +0.129 A 
ATOM      8  C   UNL     1      -3.907   2.153  24.296  0.00  0.00    +0.023 A 
ATOM      9  C   UNL     1      -3.096   2.250  24.186  0.00  0.00    +0.014 A 
ATOM     10  C   UNL     1      -2.594   1.596  24.225  0.00  0.00    +0.041 A 
ATOM     11  C   UNL     1      -1.705   1.374  24.153  0.00  0.00    +0.058 C 
ATOM     12  C   UNL     1      -1.074   1.659  24.036  0.00  0.00    +0.011 C 
ATOM     13  C   UNL     1      -1.383   0.919  24.183  0.00  0.00    +0.043 C 
ATOM     14  C   UNL     1      -1.562  -0.038  24.347  0.00  0.00    +0.096 C 
ATOM     15  N   UNL     1      -2.392  -0.012  24.441  0.00  0.00    -0.274 N 
ATOM     16  C   UNL     1      -1.862   0.445  24.310  0.00  0.00    +0.100 C 
ATOM     17  C   UNL     1      -3.161  -0.282  24.572  0.00  0.00    +0.267 C 
ATOM     18  O   UNL     1      -3.792   0.250  24.567  0.00  0.00    -0.268 OA
ATOM     25  C   UNL     1      -2.314   1.142  24.259  0.00  0.00    +0.110 C 
ATOM     26  N   UNL     1      -2.904   0.846  24.373  0.00  0.00    -0.298 N 
ATOM     27  C   UNL     1      -3.716   0.749  24.483  0.00  0.00    +0.276 A 
ATOM     28  O   UNL     1      -4.244   0.135  24.637  0.00  0.00    -0.266 OA
ENDROOT
BRANCH  17  19
ATOM     19  C   UNL     1      -3.299  -1.084  24.708  0.00  0.00    +0.135 A 
ATOM     20  N   UNL     1      -3.220  -1.393  25.468  0.00  0.00    -0.239 NA
ATOM     21  C   UNL     1      -3.358  -2.195  25.604  0.00  0.00    +0.099 A 
ATOM     22  C   UNL     1      -3.574  -2.688  24.979  0.00  0.00    +0.021 A 
ATOM     23  C   UNL     1      -3.653  -2.379  24.218  0.00  0.00    +0.003 A 
ATOM     24  C   UNL     1      -3.515  -1.577  24.082  0.00  0.00    +0.024 A 
ENDBRANCH  17  19
BRANCH   7   6
ATOM      4  C   UNL     1      -5.470   1.902  24.918  0.00  0.00    +0.257 C 
ATOM      5  O   UNL     1      -6.282   1.805  25.028  0.00  0.00    -0.272 OA
ATOM      6  N   UNL     1      -5.029   1.307  24.555  0.00  0.00    -0.174 NA
BRANCH   4   3
ATOM      3  C   UNL     1      -5.098   2.594  25.172  0.00  0.00    +0.145 C 
BRANCH   3   2
ATOM      1  C   UNL     1      -5.289   3.922  25.664  0.00  0.00    +0.070 C 
ATOM      2  S   UNL     1      -5.503   3.125  25.657  0.00  0.00    -0.130 S 
ENDBRANCH   3   2
ENDBRANCH   4   3
ENDBRANCH   7   6
TORSDOF 4
ENDMDL
MODEL 7
REMARK VINA RESULT:     -11.4      1.789      3.376
REMARK  Name = 
REMARK  4 active torsions:
REMARK  status: ('A' for Active; 'I' for Inactive)
REMARK    1  A    between atoms: S_2  and  C_3
REMARK    2  A    between atoms: C_3  and  C_4
REMARK    3  A    between atoms: N_6  and  C_7
REMARK    4  A    between atoms: C_17  and  C_19
REMARK                            x       y       z     vdW  Elec       q    Type
REMARK                         _______ _______ _______ _____ _____    ______ ____
ROOT
ATOM      7  C   UNL     1      -3.206   2.000  24.632  0.00  0.00    +0.129 A 
ATOM      8  C   UNL     1      -3.328   2.816  24.659  0.00  0.00    +0.023 A 
ATOM      9  C   UNL     1      -2.711   3.318  24.878  0.00  0.00    +0.014 A 
ATOM     10  C   UNL     1      -1.972   3.005  25.068  0.00  0.00    +0.041 A 
ATOM     11  C   UNL     1      -1.132   3.268  25.333  0.00  0.00    +0.058 C 
ATOM     12  C   UNL     1      -0.758   3.841  25.486  0.00  0.00    +0.011 C 
ATOM     13  C   UNL     1      -0.641   3.035  25.458  0.00  0.00    +0.043 C 
ATOM     14  C   UNL     1      -0.307   2.106  25.483  0.00  0.00    +0.096 C 
ATOM     15  N   UNL     1      -1.001   1.702  25.250  0.00  0.00    -0.274 N 
ATOM     16  C   UNL     1      -0.795   2.375  25.362  0.00  0.00    +0.100 C 
ATOM     17  C   UNL     1      -1.496   1.070  25.058  0.00  0.00    +0.267 C 
ATOM     18  O   UNL     1      -2.280   1.211  24.840  0.00  0.00    -0.268 OA
ATOM     25  C   UNL     1      -1.515   2.751  25.181  0.00  0.00    +0.110 C 
ATOM     26  N   UNL     1      -1.850   2.189  25.041  0.00  0.00    -0.298 N 
ATOM     27  C   UNL     1      -2.467   1.687  24.823  0.00  0.00    +0.276 A 
ATOM     28  O   UNL     1      -2.593   0.878  24.724  0.00  0.00    -0.266 OA
ENDROOT
BRANCH  17  19
ATOM     19  C   UNL     1      -1.207   0.298  25.082  0.00  0.00    +0.135 A 
ATOM     20  N   UNL     1      -0.798  -0.010  24.436  0.00  0.00    -0.239 NA
ATOM     21  C   UNL     1      -0.508  -0.783  24.460  0.00  0.00    +0.099 A 
ATOM     22  C   UNL     1      -0.629  -1.247  25.132  0.00  0.00    +0.021 A 
ATOM     23  C   UNL     1      -1.038  -0.939  25.778  0.00  0.00    +0.003 A 
ATOM     24  C   UNL     1      -1.327  -0.166  25.754  0.00  0.00    +0.024 A 
ENDBRANCH  17  19
BRANCH   7   6
ATOM      4  C   UNL     1      -4.592   1.655  24.668  0.00  0.00    +0.257 C 
ATOM      5  O   UNL     1      -5.210   1.153  24.449  0.00  0.00    -0.272 OA
ATOM      6  N   UNL     1      -3.823   1.498  24.414  0.00  0.00    -0.174 NA
BRANCH   4   3
ATOM      3  C   UNL     1      -4.744   2.314  25.141  0.00  0.00    +0.145 C 
BRANCH   3   2
ATOM      1  C   UNL     1      -5.672   2.836  26.094  0.00  0.00    +0.070 C 
ATOM      2  S   UNL     1      -5.519   2.496  25.358  0.00  0.00    -0.130 S 
ENDBRANCH   3   2
ENDBRANCH   4   3
ENDBRANCH   7   6
TORSDOF 4
ENDMDL
MODEL 8
REMARK VINA RESULT:     -11.3      1.774      3.675
REMARK  Name = 
REMARK  4 active torsions:
REMARK  status: ('A' for Active; 'I' for Inactive)
REMARK    1  A    between atoms: S_2  and  C_3
REMARK    2  A    between atoms: C_3  and  C_4
REMARK    3  A    between atoms: N_6  and  C_7
REMARK    4  A    between atoms: C_17  and  C_19
REMARK                            x       y       z     vdW  Elec       q    Type
REMARK                         _______ _______ _______ _____ _____    ______ ____
ROOT
ATOM      7  C   UNL     1      -3.072   0.104  24.939  0.00  0.00    +0.129 A 
ATOM      8  C   UNL     1      -2.445  -0.138  24.460  0.00  0.00    +0.023 A 
ATOM      9  C   UNL     1      -2.222   0.319  23.810  0.00  0.00    +0.014 A 
ATOM     10  C   UNL     1      -2.625   1.018  23.640  0.00  0.00    +0.041 A 
ATOM     11  C   UNL     1      -2.629   1.710  23.035  0.00  0.00    +0.058 C 
ATOM     12  C   UNL     1      -2.297   1.943  22.462  0.00  0.00    +0.011 C 
ATOM     13  C   UNL     1      -2.915   2.179  22.937  0.00  0.00    +0.043 C 
ATOM     14  C   UNL     1      -3.675   2.625  23.383  0.00  0.00    +0.096 C 
ATOM     15  N   UNL     1      -3.808   2.085  24.007  0.00  0.00    -0.274 N 
ATOM     16  C   UNL     1      -3.363   2.153  23.455  0.00  0.00    +0.100 C 
ATOM     17  C   UNL     1      -4.156   1.756  24.680  0.00  0.00    +0.267 C 
ATOM     18  O   UNL     1      -3.868   1.046  24.988  0.00  0.00    -0.268 OA
ATOM     25  C   UNL     1      -2.918   1.460  23.574  0.00  0.00    +0.110 C 
ATOM     26  N   UNL     1      -3.252   1.260  24.118  0.00  0.00    -0.298 N 
ATOM     27  C   UNL     1      -3.475   0.803  24.768  0.00  0.00    +0.276 A 
ATOM     28  O   UNL     1      -4.039   0.828  25.369  0.00  0.00    -0.266 OA
ENDROOT
BRANCH  17  19
ATOM     19  C   UNL     1      -4.789   2.138  25.044  0.00  0.00    +0.135 A 
ATOM     20  N   UNL     1      -4.653   2.770  25.555  0.00  0.00    -0.239 NA
ATOM     21  C   UNL     1      -5.287   3.152  25.919  0.00  0.00    +0.099 A 
ATOM     22  C   UNL     1      -6.059   2.900  25.773  0.00  0.00    +0.021 A 
ATOM     23  C   UNL     1      -6.196   2.267  25.263  0.00  0.00    +0.003 A 
ATOM     24  C   UNL     1      -5.562   1.886  24.898  0.00  0.00    +0.024 A 
ENDBRANCH  17  19
BRANCH   7   6
ATOM      4  C   UNL     1      -3.366  -1.171  25.511  0.00  0.00    +0.257 C 
ATOM      5  O   UNL     1      -3.589  -1.629  26.162  0.00  0.00    -0.272 OA
ATOM      6  N   UNL     1      -3.295  -0.353  25.588  0.00  0.00    -0.174 NA
BRANCH   4   3
ATOM      3  C   UNL     1      -3.214  -1.533  24.785  0.00  0.00    +0.145 C 
BRANCH   3   2
ATOM      1  C   UNL     1      -3.678  -2.699  24.102  0.00  0.00    +0.070 C 
ATOM      2  S   UNL     1      -3.251  -2.355  24.718  0.00  0.00    -0.130 S 
ENDBRANCH   3   2
ENDBRANCH   4   3
ENDBRANCH   7   6
TORSDOF 4
ENDMDL
