REMARK  Name = 
REMARK  10 active torsions:
REMARK  status: ('A' for Active; 'I' for Inactive)
REMARK    1  A    between atoms: S_2  and  C_3
REMARK    2  A    between atoms: C_3  and  C_4
REMARK    3  A    between atoms: C_9  and  N_10
REMARK    4  A    between atoms: N_13  and  C_14
REMARK    5  A    between atoms: C_14  and  C_15
REMARK    6  A    between atoms: C_17  and  C_18
REMARK    7  A    between atoms: N_20  and  C_21
REMARK    8  A    between atoms: C_21  and  C_22
REMARK    9  A    between atoms: C_21  and  C_29
REMARK   10  A    between atoms: C_22  and  C_23
REMARK                            x       y       z     vdW  Elec       q    Type
REMARK                         _______ _______ _______ _____ _____    ______ ____
ROOT
ATOM      4  C   UNL     1      -2.149  -3.339   0.000  0.00  0.00    +0.237 C 
ATOM      5  O   UNL     1      -2.634  -2.671   0.000  0.00  0.00    -0.274 OA
ATOM      6  N   UNL     1      -1.329  -3.252   0.000  0.00  0.00    -0.271 N 
ATOM      7  C   UNL     1      -0.916  -2.538   0.000  0.00  0.00    +0.096 C 
ATOM      8  C   UNL     1      -0.109  -2.709   0.000  0.00  0.00    +0.045 C 
ATOM      9  C   UNL     1      -0.023  -3.530   0.000  0.00  0.00    +0.126 C 
ATOM     17  C   UNL     1      -0.777  -3.865   0.000  0.00  0.00    +0.174 C 
ENDROOT
BRANCH   9  10
ATOM     10  N   UNL     1       0.691  -3.942   0.000  0.00  0.00    -0.187 NA
ATOM     11  C   UNL     1       1.406  -3.530   0.000  0.00  0.00    +0.340 C 
ATOM     12  O   UNL     1       1.406  -2.705   0.000  0.00  0.00    -0.249 OA
ATOM     13  N   UNL     1       2.120  -3.942   0.000  0.00  0.00    -0.182 NA
BRANCH  13  14
ATOM     14  C   UNL     1       2.835  -3.530   0.000  0.00  0.00    +0.143 C 
BRANCH  14  15
ATOM     15  C   UNL     1       3.549  -3.942   0.000  0.00  0.00    -0.003 C 
ATOM     16  C   UNL     1       4.264  -3.530   0.000  0.00  0.00    -0.003 C 
ENDBRANCH  14  15
ENDBRANCH  13  14
ENDBRANCH   9  10
BRANCH  17  18
ATOM     18  C   UNL     1      -0.948  -4.673   0.000  0.00  0.00    +0.262 C 
ATOM     19  O   UNL     1      -1.733  -4.928   0.000  0.00  0.00    -0.271 OA
ATOM     20  N   UNL     1      -0.335  -5.224   0.000  0.00  0.00    -0.196 NA
BRANCH  20  21
ATOM     21  C   UNL     1      -0.507  -6.032   0.000  0.00  0.00    +0.179 C 
BRANCH  21  29
ATOM     29  C   UNL     1      -1.291  -6.287   0.000  0.00  0.00    +0.281 C 
ATOM     30  N   UNL     1      -1.463  -7.093   0.000  0.00  0.00    -0.086 NA
ATOM     31  O   UNL     1      -1.905  -5.734   0.000  0.00  0.00    -0.270 OA
ENDBRANCH  21  29
BRANCH  21  22
ATOM     22  C   UNL     1       0.106  -6.584   0.000  0.00  0.00    +0.057 C 
BRANCH  22  23
ATOM     23  C   UNL     1      -0.065  -7.391   0.000  0.00  0.00    -0.020 A 
ATOM     24  C   UNL     1       0.548  -7.943   0.000  0.00  0.00    -0.004 A 
ATOM     25  C   UNL     1       0.376  -8.749   0.000  0.00  0.00    -0.000 A 
ATOM     26  C   UNL     1      -0.408  -9.005   0.000  0.00  0.00    -0.000 A 
ATOM     27  C   UNL     1      -1.021  -8.452   0.000  0.00  0.00    -0.000 A 
ATOM     28  C   UNL     1      -0.850  -7.646   0.000  0.00  0.00    -0.004 A 
ENDBRANCH  22  23
ENDBRANCH  21  22
ENDBRANCH  20  21
ENDBRANCH  17  18
BRANCH   4   3
ATOM      3  C   UNL     1      -2.485  -4.092   0.000  0.00  0.00    +0.143 C 
BRANCH   3   2
ATOM      1  C   UNL     1      -3.641  -4.932   0.000  0.00  0.00    +0.070 C 
ATOM      2  S   UNL     1      -3.305  -4.179   0.000  0.00  0.00    -0.130 S 
ENDBRANCH   3   2
ENDBRANCH   4   3
TORSDOF 10
