MODEL 1
REMARK VINA RESULT:      -8.7      0.000      0.000
REMARK  Name = 
REMARK  8 active torsions:
REMARK  status: ('A' for Active; 'I' for Inactive)
REMARK    1  A    between atoms: O_2  and  C_3
REMARK    2  A    between atoms: C_8  and  N_9
REMARK    3  A    between atoms: N_12  and  C_13
REMARK    4  A    between atoms: C_13  and  C_14
REMARK    5  A    between atoms: C_14  and  C_15
REMARK    6  A    between atoms: C_20  and  C_21
REMARK    7  A    between atoms: C_21  and  C_22
REMARK    8  A    between atoms: C_25  and  C_27
REMARK                            x       y       z     vdW  Elec       q    Type
REMARK                         _______ _______ _______ _____ _____    ______ ____
ROOT
ATOM     15  C   UNL     1      -2.762  -0.033  24.496  0.00  0.00    +0.022 C 
ATOM     16  C   UNL     1      -3.030   0.744  24.567  0.00  0.00    +0.094 C 
ATOM     17  N   UNL     1      -3.810   0.893  24.790  0.00  0.00    -0.276 N 
ATOM     18  C   UNL     1      -4.323   0.264  24.942  0.00  0.00    +0.094 C 
ATOM     19  C   UNL     1      -4.055  -0.513  24.871  0.00  0.00    +0.022 C 
ATOM     20  C   UNL     1      -3.275  -0.662  24.649  0.00  0.00    +0.015 C 
ATOM     25  C   UNL     1      -4.079   1.670  24.860  0.00  0.00    +0.249 C 
ATOM     26  O   UNL     1      -3.566   2.299  24.708  0.00  0.00    -0.270 OA
ENDROOT
BRANCH  25  27
ATOM     27  C   UNL     1      -4.858   1.819  25.083  0.00  0.00    +0.054 A 
ATOM     28  C   UNL     1      -5.037   2.004  25.867  0.00  0.00    +0.005 A 
ATOM     29  C   UNL     1      -5.816   2.153  26.089  0.00  0.00    +0.000 A 
ATOM     30  C   UNL     1      -6.420   2.116  25.527  0.00  0.00    +0.000 A 
ATOM     31  C   UNL     1      -6.243   1.931  24.743  0.00  0.00    +0.000 A 
ATOM     32  C   UNL     1      -5.462   1.782  24.520  0.00  0.00    +0.005 A 
ENDBRANCH  25  27
BRANCH  15  14
ATOM     14  C   UNL     1      -1.982  -0.181  24.274  0.00  0.00    +0.019 C 
BRANCH  14  13
ATOM     13  C   UNL     1      -1.370   0.279  24.581  0.00  0.00    +0.072 C 
BRANCH  13  12
ATOM      9  N   UNL     1       0.838   0.311  23.465  0.00  0.00    -0.302 N 
ATOM     10  C   UNL     1       0.362   0.984  23.456  0.00  0.00    +0.108 C 
ATOM     11  C   UNL     1      -0.375   0.973  23.828  0.00  0.00    +0.094 C 
ATOM     12  N   UNL     1      -0.634   0.289  24.209  0.00  0.00    -0.270 NA
ATOM     33  C   UNL     1      -0.157  -0.384  24.217  0.00  0.00    +0.094 C 
ATOM     34  C   UNL     1       0.579  -0.373  23.846  0.00  0.00    +0.108 C 
BRANCH   9   8
ATOM      3  C   UNL     1       1.669  -0.035  22.354  0.00  0.00    +0.152 A 
ATOM      4  C   UNL     1       2.405  -0.024  21.982  0.00  0.00    +0.038 A 
ATOM      5  C   UNL     1       3.045   0.345  22.346  0.00  0.00    +0.003 A 
ATOM      6  C   UNL     1       2.952   0.702  23.084  0.00  0.00    +0.001 A 
ATOM      7  C   UNL     1       2.215   0.691  23.457  0.00  0.00    +0.018 A 
ATOM      8  C   UNL     1       1.574   0.323  23.092  0.00  0.00    +0.082 A 
BRANCH   3   2
ATOM      1  C   UNL     1       1.115  -0.741  21.242  0.00  0.00    +0.253 C 
ATOM      2  O   UNL     1       1.027  -0.404  21.990  0.00  0.00    -0.470 OA
ENDBRANCH   3   2
ENDBRANCH   9   8
ENDBRANCH  13  12
ENDBRANCH  14  13
ENDBRANCH  15  14
BRANCH  20  21
ATOM     21  C   UNL     1      -3.007  -1.438  24.578  0.00  0.00    +0.114 C 
BRANCH  21  22
ATOM     22  C   UNL     1      -3.529  -2.067  24.693  0.00  0.00    +0.365 C 
ATOM     23  O   UNL     1      -3.989  -2.341  24.066  0.00  0.00    -0.246 OA
ATOM     24  O   UNL     1      -3.591  -2.422  25.435  0.00  0.00    -0.246 OA
ENDBRANCH  21  22
ENDBRANCH  20  21
TORSDOF 8
ENDMDL
MODEL 2
REMARK VINA RESULT:      -8.5      2.890      4.968
REMARK  Name = 
REMARK  8 active torsions:
REMARK  status: ('A' for Active; 'I' for Inactive)
REMARK    1  A    between atoms: O_2  and  C_3
REMARK    2  A    between atoms: C_8  and  N_9
REMARK    3  A    between atoms: N_12  and  C_13
REMARK    4  A    between atoms: C_13  and  C_14
REMARK    5  A    between atoms: C_14  and  C_15
REMARK    6  A    between atoms: C_20  and  C_21
REMARK    7  A    between atoms: C_21  and  C_22
REMARK    8  A    between atoms: C_25  and  C_27
REMARK                            x       y       z     vdW  Elec       q    Type
REMARK                         _______ _______ _______ _____ _____    ______ ____
ROOT
ATOM     15  C   UNL     1      -3.874   2.434  25.012  0.00  0.00    +0.022 C 
ATOM     16  C   UNL     1      -3.055   2.507  24.934  0.00  0.00    +0.094 C 
ATOM     17  N   UNL     1      -2.706   3.254  24.929  0.00  0.00    -0.276 N 
ATOM     18  C   UNL     1      -3.175   3.930  25.002  0.00  0.00    +0.094 C 
ATOM     19  C   UNL     1      -3.993   3.857  25.081  0.00  0.00    +0.022 C 
ATOM     20  C   UNL     1      -4.343   3.110  25.086  0.00  0.00    +0.015 C 
ATOM     25  C   UNL     1      -1.888   3.327  24.850  0.00  0.00    +0.249 C 
ATOM     26  O   UNL     1      -1.419   2.652  24.777  0.00  0.00    -0.270 OA
ENDROOT
BRANCH  25  27
ATOM     27  C   UNL     1      -1.539   4.074  24.845  0.00  0.00    +0.054 A 
ATOM     28  C   UNL     1      -1.735   4.626  25.426  0.00  0.00    +0.005 A 
ATOM     29  C   UNL     1      -1.386   5.373  25.421  0.00  0.00    +0.000 A 
ATOM     30  C   UNL     1      -0.839   5.569  24.834  0.00  0.00    +0.000 A 
ATOM     31  C   UNL     1      -0.642   5.017  24.253  0.00  0.00    +0.000 A 
ATOM     32  C   UNL     1      -0.991   4.270  24.258  0.00  0.00    +0.005 A 
ENDBRANCH  25  27
BRANCH  15  14
ATOM     14  C   UNL     1      -4.223   1.688  25.018  0.00  0.00    +0.019 C 
BRANCH  14  13
ATOM     13  C   UNL     1      -4.252   1.241  24.325  0.00  0.00    +0.072 C 
BRANCH  13  12
ATOM      9  N   UNL     1      -3.655  -1.161  24.371  0.00  0.00    -0.302 N 
ATOM     10  C   UNL     1      -3.523  -0.716  23.689  0.00  0.00    +0.108 C 
ATOM     11  C   UNL     1      -3.723   0.085  23.674  0.00  0.00    +0.094 C 
ATOM     12  N   UNL     1      -4.053   0.440  24.341  0.00  0.00    -0.270 NA
ATOM     33  C   UNL     1      -4.184  -0.005  25.023  0.00  0.00    +0.094 C 
ATOM     34  C   UNL     1      -3.985  -0.805  25.038  0.00  0.00    +0.108 C 
BRANCH   9   8
ATOM      3  C   UNL     1      -2.685  -2.191  24.575  0.00  0.00    +0.152 A 
ATOM      4  C   UNL     1      -2.486  -2.991  24.589  0.00  0.00    +0.038 A 
ATOM      5  C   UNL     1      -3.055  -3.561  24.415  0.00  0.00    +0.003 A 
ATOM      6  C   UNL     1      -3.825  -3.332  24.227  0.00  0.00    +0.001 A 
ATOM      7  C   UNL     1      -4.025  -2.531  24.212  0.00  0.00    +0.018 A 
ATOM      8  C   UNL     1      -3.456  -1.961  24.386  0.00  0.00    +0.082 A 
BRANCH   3   2
ATOM      1  C   UNL     1      -1.339  -1.847  24.905  0.00  0.00    +0.253 C 
ATOM      2  O   UNL     1      -2.116  -1.620  24.749  0.00  0.00    -0.470 OA
ENDBRANCH   3   2
ENDBRANCH   9   8
ENDBRANCH  13  12
ENDBRANCH  14  13
ENDBRANCH  15  14
BRANCH  20  21
ATOM     21  C   UNL     1      -5.160   3.037  25.164  0.00  0.00    +0.114 C 
BRANCH  21  22
ATOM     22  C   UNL     1      -5.570   3.528  25.686  0.00  0.00    +0.365 C 
ATOM     23  O   UNL     1      -5.677   3.299  26.471  0.00  0.00    -0.246 OA
ATOM     24  O   UNL     1      -5.872   4.250  25.423  0.00  0.00    -0.246 OA
ENDBRANCH  21  22
ENDBRANCH  20  21
TORSDOF 8
ENDMDL
MODEL 3
REMARK VINA RESULT:      -8.2      2.430      4.674
REMARK  Name = 
REMARK  8 active torsions:
REMARK  status: ('A' for Active; 'I' for Inactive)
REMARK    1  A    between atoms: O_2  and  C_3
REMARK    2  A    between atoms: C_8  and  N_9
REMARK    3  A    between atoms: N_12  and  C_13
REMARK    4  A    between atoms: C_13  and  C_14
REMARK    5  A    between atoms: C_14  and  C_15
REMARK    6  A    between atoms: C_20  and  C_21
REMARK    7  A    between atoms: C_21  and  C_22
REMARK    8  A    between atoms: C_25  and  C_27
REMARK                            x       y       z     vdW  Elec       q    Type
REMARK                         _______ _______ _______ _____ _____    ______ ____
ROOT
ATOM     15  C   UNL     1      -1.186  -0.128  25.018  0.00  0.00    +0.022 C 
ATOM     16  C   UNL     1      -1.960  -0.346  25.205  0.00  0.00    +0.094 C 
ATOM     17  N   UNL     1      -2.286  -1.031  24.882  0.00  0.00    -0.276 N 
ATOM     18  C   UNL     1      -1.838  -1.500  24.370  0.00  0.00    +0.094 C 
ATOM     19  C   UNL     1      -1.065  -1.283  24.183  0.00  0.00    +0.022 C 
ATOM     20  C   UNL     1      -0.738  -0.597  24.506  0.00  0.00    +0.015 C 
ATOM     25  C   UNL     1      -3.060  -1.249  25.069  0.00  0.00    +0.249 C 
ATOM     26  O   UNL     1      -3.507  -0.780  25.580  0.00  0.00    -0.270 OA
ENDROOT
BRANCH  25  27
ATOM     27  C   UNL     1      -3.385  -1.933  24.746  0.00  0.00    +0.054 A 
ATOM     28  C   UNL     1      -3.215  -2.669  25.079  0.00  0.00    +0.005 A 
ATOM     29  C   UNL     1      -3.541  -3.354  24.756  0.00  0.00    +0.000 A 
ATOM     30  C   UNL     1      -4.038  -3.304  24.098  0.00  0.00    +0.000 A 
ATOM     31  C   UNL     1      -4.209  -2.569  23.765  0.00  0.00    +0.000 A 
ATOM     32  C   UNL     1      -3.883  -1.884  24.089  0.00  0.00    +0.005 A 
ENDBRANCH  25  27
BRANCH  15  14
ATOM     14  C   UNL     1      -0.860   0.556  25.341  0.00  0.00    +0.019 C 
BRANCH  14  13
ATOM     13  C   UNL     1      -1.334   1.075  25.773  0.00  0.00    +0.072 C 
BRANCH  13  12
ATOM      9  N   UNL     1      -1.263   3.504  25.301  0.00  0.00    -0.302 N 
ATOM     10  C   UNL     1      -1.791   3.020  24.892  0.00  0.00    +0.108 C 
ATOM     11  C   UNL     1      -1.815   2.210  25.050  0.00  0.00    +0.094 C 
ATOM     12  N   UNL     1      -1.310   1.885  25.616  0.00  0.00    -0.270 NA
ATOM     33  C   UNL     1      -0.782   2.370  26.024  0.00  0.00    +0.094 C 
ATOM     34  C   UNL     1      -0.759   3.179  25.867  0.00  0.00    +0.108 C 
BRANCH   9   8
ATOM      3  C   UNL     1      -1.854   4.801  25.403  0.00  0.00    +0.152 A 
ATOM      4  C   UNL     1      -1.831   5.610  25.245  0.00  0.00    +0.038 A 
ATOM      5  C   UNL     1      -1.196   5.932  24.829  0.00  0.00    +0.003 A 
ATOM      6  C   UNL     1      -0.583   5.445  24.570  0.00  0.00    +0.001 A 
ATOM      7  C   UNL     1      -0.606   4.634  24.728  0.00  0.00    +0.018 A 
ATOM      8  C   UNL     1      -1.240   4.313  25.144  0.00  0.00    +0.082 A 
BRANCH   3   2
ATOM      1  C   UNL     1      -3.102   4.967  26.078  0.00  0.00    +0.253 C 
ATOM      2  O   UNL     1      -2.489   4.479  25.820  0.00  0.00    -0.470 OA
ENDBRANCH   3   2
ENDBRANCH   9   8
ENDBRANCH  13  12
ENDBRANCH  14  13
ENDBRANCH  15  14
BRANCH  20  21
ATOM     21  C   UNL     1       0.035  -0.380  24.319  0.00  0.00    +0.114 C 
BRANCH  21  22
ATOM     22  C   UNL     1       0.330  -0.520  23.562  0.00  0.00    +0.365 C 
ATOM     23  O   UNL     1       0.214   0.036  22.964  0.00  0.00    -0.246 OA
ATOM     24  O   UNL     1       0.743  -1.217  23.402  0.00  0.00    -0.246 OA
ENDBRANCH  21  22
ENDBRANCH  20  21
TORSDOF 8
ENDMDL
MODEL 4
REMARK VINA RESULT:      -7.3      1.333      2.012
REMARK  Name = 
REMARK  8 active torsions:
REMARK  status: ('A' for Active; 'I' for Inactive)
REMARK    1  A    between atoms: O_2  and  C_3
REMARK    2  A    between atoms: C_8  and  N_9
REMARK    3  A    between atoms: N_12  and  C_13
REMARK    4  A    between atoms: C_13  and  C_14
REMARK    5  A    between atoms: C_14  and  C_15
REMARK    6  A    between atoms: C_20  and  C_21
REMARK    7  A    between atoms: C_21  and  C_22
REMARK    8  A    between atoms: C_25  and  C_27
REMARK                            x       y       z     vdW  Elec       q    Type
REMARK                         _______ _______ _______ _____ _____    ______ ____
ROOT
ATOM     15  C   UNL     1      -1.104   0.339  24.174  0.00  0.00    +0.022 C 
ATOM     16  C   UNL     1      -1.365   1.112  24.048  0.00  0.00    +0.094 C 
ATOM     17  N   UNL     1      -2.134   1.327  24.255  0.00  0.00    -0.276 N 
ATOM     18  C   UNL     1      -2.643   0.769  24.588  0.00  0.00    +0.094 C 
ATOM     19  C   UNL     1      -2.383  -0.003  24.715  0.00  0.00    +0.022 C 
ATOM     20  C   UNL     1      -1.613  -0.219  24.508  0.00  0.00    +0.015 C 
ATOM     25  C   UNL     1      -2.395   2.100  24.128  0.00  0.00    +0.249 C 
ATOM     26  O   UNL     1      -1.886   2.657  23.795  0.00  0.00    -0.270 OA
ENDROOT
BRANCH  25  27
ATOM     27  C   UNL     1      -3.163   2.315  24.335  0.00  0.00    +0.054 A 
ATOM     28  C   UNL     1      -3.318   2.628  25.083  0.00  0.00    +0.005 A 
ATOM     29  C   UNL     1      -4.087   2.843  25.289  0.00  0.00    +0.000 A 
ATOM     30  C   UNL     1      -4.702   2.745  24.748  0.00  0.00    +0.000 A 
ATOM     31  C   UNL     1      -4.548   2.432  24.001  0.00  0.00    +0.000 A 
ATOM     32  C   UNL     1      -3.779   2.216  23.793  0.00  0.00    +0.005 A 
ENDBRANCH  25  27
BRANCH  15  14
ATOM     14  C   UNL     1      -0.336   0.124  23.968  0.00  0.00    +0.019 C 
BRANCH  14  13
ATOM     13  C   UNL     1       0.006   0.425  23.281  0.00  0.00    +0.072 C 
BRANCH  13  12
ATOM      9  N   UNL     1       2.468   0.430  23.021  0.00  0.00    -0.302 N 
ATOM     10  C   UNL     1       2.112   0.913  23.588  0.00  0.00    +0.108 C 
ATOM     11  C   UNL     1       1.291   0.911  23.674  0.00  0.00    +0.094 C 
ATOM     12  N   UNL     1       0.827   0.427  23.194  0.00  0.00    -0.270 NA
ATOM     33  C   UNL     1       1.184  -0.056  22.628  0.00  0.00    +0.094 C 
ATOM     34  C   UNL     1       2.004  -0.054  22.541  0.00  0.00    +0.108 C 
BRANCH   9   8
ATOM      3  C   UNL     1       3.731  -0.217  23.186  0.00  0.00    +0.152 A 
ATOM      4  C   UNL     1       4.551  -0.215  23.101  0.00  0.00    +0.038 A 
ATOM      5  C   UNL     1       4.929   0.436  22.765  0.00  0.00    +0.003 A 
ATOM      6  C   UNL     1       4.487   1.086  22.514  0.00  0.00    +0.001 A 
ATOM      7  C   UNL     1       3.666   1.084  22.599  0.00  0.00    +0.018 A 
ATOM      8  C   UNL     1       3.288   0.433  22.935  0.00  0.00    +0.082 A 
BRANCH   3   2
ATOM      1  C   UNL     1       3.797  -1.503  23.805  0.00  0.00    +0.253 C 
ATOM      2  O   UNL     1       3.353  -0.869  23.523  0.00  0.00    -0.470 OA
ENDBRANCH   3   2
ENDBRANCH   9   8
ENDBRANCH  13  12
ENDBRANCH  14  13
ENDBRANCH  15  14
BRANCH  20  21
ATOM     21  C   UNL     1      -1.353  -0.991  24.634  0.00  0.00    +0.114 C 
BRANCH  21  22
ATOM     22  C   UNL     1      -1.872  -1.557  24.936  0.00  0.00    +0.365 C 
ATOM     23  O   UNL     1      -2.002  -1.607  25.749  0.00  0.00    -0.246 OA
ATOM     24  O   UNL     1      -2.261  -2.074  24.424  0.00  0.00    -0.246 OA
ENDBRANCH  21  22
ENDBRANCH  20  21
TORSDOF 8
ENDMDL
MODEL 5
REMARK VINA RESULT:      -7.1      1.396      6.200
REMARK  Name = 
REMARK  8 active torsions:
REMARK  status: ('A' for Active; 'I' for Inactive)
REMARK    1  A    between atoms: O_2  and  C_3
REMARK    2  A    between atoms: C_8  and  N_9
REMARK    3  A    between atoms: N_12  and  C_13
REMARK    4  A    between atoms: C_13  and  C_14
REMARK    5  A    between atoms: C_14  and  C_15
REMARK    6  A    between atoms: C_20  and  C_21
REMARK    7  A    between atoms: C_21  and  C_22
REMARK    8  A    between atoms: C_25  and  C_27
REMARK                            x       y       z     vdW  Elec       q    Type
REMARK                         _______ _______ _______ _____ _____    ______ ____
ROOT
ATOM     15  C   UNL     1      -0.688   0.421  24.200  0.00  0.00    +0.022 C 
ATOM     16  C   UNL     1      -0.087   0.875  23.864  0.00  0.00    +0.094 C 
ATOM     17  N   UNL     1       0.604   0.513  23.595  0.00  0.00    -0.276 N 
ATOM     18  C   UNL     1       0.694  -0.305  23.663  0.00  0.00    +0.094 C 
ATOM     19  C   UNL     1       0.094  -0.760  23.999  0.00  0.00    +0.022 C 
ATOM     20  C   UNL     1      -0.597  -0.398  24.268  0.00  0.00    +0.015 C 
ATOM     25  C   UNL     1       1.204   0.967  23.258  0.00  0.00    +0.249 C 
ATOM     26  O   UNL     1       1.114   1.785  23.191  0.00  0.00    -0.270 OA
ENDROOT
BRANCH  25  27
ATOM     27  C   UNL     1       1.895   0.605  22.990  0.00  0.00    +0.054 A 
ATOM     28  C   UNL     1       1.878   0.134  22.313  0.00  0.00    +0.005 A 
ATOM     29  C   UNL     1       2.568  -0.228  22.044  0.00  0.00    +0.000 A 
ATOM     30  C   UNL     1       3.277  -0.119  22.453  0.00  0.00    +0.000 A 
ATOM     31  C   UNL     1       3.295   0.352  23.129  0.00  0.00    +0.000 A 
ATOM     32  C   UNL     1       2.604   0.715  23.398  0.00  0.00    +0.005 A 
ENDBRANCH  25  27
BRANCH  15  14
ATOM     14  C   UNL     1      -1.378   0.783  24.469  0.00  0.00    +0.019 C 
BRANCH  14  13
ATOM     13  C   UNL     1      -1.590   1.527  24.186  0.00  0.00    +0.072 C 
BRANCH  13  12
ATOM      9  N   UNL     1      -3.724   2.560  24.896  0.00  0.00    -0.302 N 
ATOM     10  C   UNL     1      -3.112   2.464  25.440  0.00  0.00    +0.108 C 
ATOM     11  C   UNL     1      -2.400   2.119  25.203  0.00  0.00    +0.094 C 
ATOM     12  N   UNL     1      -2.302   1.871  24.422  0.00  0.00    -0.270 NA
ATOM     33  C   UNL     1      -2.915   1.968  23.879  0.00  0.00    +0.094 C 
ATOM     34  C   UNL     1      -3.626   2.313  24.115  0.00  0.00    +0.108 C 
BRANCH   9   8
ATOM      3  C   UNL     1      -5.083   2.427  25.320  0.00  0.00    +0.152 A 
ATOM      4  C   UNL     1      -5.793   2.772  25.558  0.00  0.00    +0.038 A 
ATOM      5  C   UNL     1      -5.858   3.592  25.609  0.00  0.00    +0.003 A 
ATOM      6  C   UNL     1      -5.211   4.069  25.423  0.00  0.00    +0.001 A 
ATOM      7  C   UNL     1      -4.500   3.725  25.185  0.00  0.00    +0.018 A 
ATOM      8  C   UNL     1      -4.435   2.905  25.134  0.00  0.00    +0.082 A 
BRANCH   3   2
ATOM      1  C   UNL     1      -5.671   1.131  25.434  0.00  0.00    +0.253 C 
ATOM      2  O   UNL     1      -5.018   1.607  25.269  0.00  0.00    -0.470 OA
ENDBRANCH   3   2
ENDBRANCH   9   8
ENDBRANCH  13  12
ENDBRANCH  14  13
ENDBRANCH  15  14
BRANCH  20  21
ATOM     21  C   UNL     1      -1.197  -0.852  24.604  0.00  0.00    +0.114 C 
BRANCH  21  22
ATOM     22  C   UNL     1      -1.076  -1.656  24.746  0.00  0.00    +0.365 C 
ATOM     23  O   UNL     1      -0.643  -1.898  25.405  0.00  0.00    -0.246 OA
ATOM     24  O   UNL     1      -1.388  -2.218  24.228  0.00  0.00    -0.246 OA
ENDBRANCH  21  22
ENDBRANCH  20  21
TORSDOF 8
ENDMDL
MODEL 6
REMARK VINA RESULT:      -6.9      2.722      4.478
REMARK  Name = 
REMARK  8 active torsions:
REMARK  status: ('A' for Active; 'I' for Inactive)
REMARK    1  A    between atoms: O_2  and  C_3
REMARK    2  A    between atoms: C_8  and  N_9
REMARK    3  A    between atoms: N_12  and  C_13
REMARK    4  A    between atoms: C_13  and  C_14
REMARK    5  A    between atoms: C_14  and  C_15
REMARK    6  A    between atoms: C_20  and  C_21
REMARK    7  A    between atoms: C_21  and  C_22
REMARK    8  A    between atoms: C_25  and  C_27
REMARK                            x       y       z     vdW  Elec       q    Type
REMARK                         _______ _______ _______ _____ _____    ______ ____
ROOT
ATOM     15  C   UNL     1      -4.474   1.514  24.812  0.00  0.00    +0.022 C 
ATOM     16  C   UNL     1      -3.887   0.973  24.605  0.00  0.00    +0.094 C 
ATOM     17  N   UNL     1      -4.046   0.165  24.621  0.00  0.00    -0.276 N 
ATOM     18  C   UNL     1      -4.794  -0.104  24.845  0.00  0.00    +0.094 C 
ATOM     19  C   UNL     1      -5.381   0.436  25.052  0.00  0.00    +0.022 C 
ATOM     20  C   UNL     1      -5.222   1.245  25.036  0.00  0.00    +0.015 C 
ATOM     25  C   UNL     1      -3.458  -0.377  24.414  0.00  0.00    +0.249 C 
ATOM     26  O   UNL     1      -2.711  -0.108  24.190  0.00  0.00    -0.270 OA
ENDROOT
BRANCH  25  27
ATOM     27  C   UNL     1      -3.617  -1.185  24.430  0.00  0.00    +0.054 A 
ATOM     28  C   UNL     1      -4.010  -1.542  23.798  0.00  0.00    +0.005 A 
ATOM     29  C   UNL     1      -4.169  -2.351  23.814  0.00  0.00    +0.000 A 
ATOM     30  C   UNL     1      -3.936  -2.804  24.463  0.00  0.00    +0.000 A 
ATOM     31  C   UNL     1      -3.544  -2.448  25.095  0.00  0.00    +0.000 A 
ATOM     32  C   UNL     1      -3.384  -1.639  25.080  0.00  0.00    +0.005 A 
ENDBRANCH  25  27
BRANCH  15  14
ATOM     14  C   UNL     1      -4.315   2.323  24.796  0.00  0.00    +0.019 C 
BRANCH  14  13
ATOM     13  C   UNL     1      -3.930   2.681  25.432  0.00  0.00    +0.072 C 
BRANCH  13  12
ATOM      9  N   UNL     1      -2.018   4.199  25.027  0.00  0.00    -0.302 N 
ATOM     10  C   UNL     1      -2.603   4.112  24.453  0.00  0.00    +0.108 C 
ATOM     11  C   UNL     1      -3.241   3.605  24.588  0.00  0.00    +0.094 C 
ATOM     12  N   UNL     1      -3.292   3.187  25.297  0.00  0.00    -0.270 NA
ATOM     33  C   UNL     1      -2.706   3.275  25.871  0.00  0.00    +0.094 C 
ATOM     34  C   UNL     1      -2.069   3.780  25.736  0.00  0.00    +0.108 C 
BRANCH   9   8
ATOM      3  C   UNL     1      -0.669   4.403  24.602  0.00  0.00    +0.152 A 
ATOM      4  C   UNL     1      -0.032   4.909  24.467  0.00  0.00    +0.038 A 
ATOM      5  C   UNL     1      -0.106   5.716  24.619  0.00  0.00    +0.003 A 
ATOM      6  C   UNL     1      -0.817   6.018  24.908  0.00  0.00    +0.001 A 
ATOM      7  C   UNL     1      -1.455   5.511  25.044  0.00  0.00    +0.018 A 
ATOM      8  C   UNL     1      -1.381   4.705  24.891  0.00  0.00    +0.082 A 
BRANCH   3   2
ATOM      1  C   UNL     1       0.112   3.296  24.149  0.00  0.00    +0.253 C 
ATOM      2  O   UNL     1      -0.595   3.596  24.449  0.00  0.00    -0.470 OA
ENDBRANCH   3   2
ENDBRANCH   9   8
ENDBRANCH  13  12
ENDBRANCH  14  13
ENDBRANCH  15  14
BRANCH  20  21
ATOM     21  C   UNL     1      -5.809   1.786  25.243  0.00  0.00    +0.114 C 
BRANCH  21  22
ATOM     22  C   UNL     1      -6.578   1.524  25.387  0.00  0.00    +0.365 C 
ATOM     23  O   UNL     1      -7.123   1.480  24.769  0.00  0.00    -0.246 OA
ATOM     24  O   UNL     1      -6.804   1.305  26.150  0.00  0.00    -0.246 OA
ENDBRANCH  21  22
ENDBRANCH  20  21
TORSDOF 8
ENDMDL
MODEL 7
REMARK VINA RESULT:      -6.9      1.465      2.753
REMARK  Name = 
REMARK  8 active torsions:
REMARK  status: ('A' for Active; 'I' for Inactive)
REMARK    1  A    between atoms: O_2  and  C_3
REMARK    2  A    between atoms: C_8  and  N_9
REMARK    3  A    between atoms: N_12  and  C_13
REMARK    4  A    between atoms: C_13  and  C_14
REMARK    5  A    between atoms: C_14  and  C_15
REMARK    6  A    between atoms: C_20  and  C_21
REMARK    7  A    between atoms: C_21  and  C_22
REMARK    8  A    between atoms: C_25  and  C_27
REMARK                            x       y       z     vdW  Elec       q    Type
REMARK                         _______ _______ _______ _____ _____    ______ ____
ROOT
ATOM     15  C   UNL     1      -2.013   2.323  24.804  0.00  0.00    +0.022 C 
ATOM     16  C   UNL     1      -2.618   1.778  24.671  0.00  0.00    +0.094 C 
ATOM     17  N   UNL     1      -3.394   1.964  24.877  0.00  0.00    -0.276 N 
ATOM     18  C   UNL     1      -3.567   2.697  25.217  0.00  0.00    +0.094 C 
ATOM     19  C   UNL     1      -2.963   3.242  25.349  0.00  0.00    +0.022 C 
ATOM     20  C   UNL     1      -2.186   3.056  25.143  0.00  0.00    +0.015 C 
ATOM     25  C   UNL     1      -3.999   1.418  24.744  0.00  0.00    +0.249 C 
ATOM     26  O   UNL     1      -3.827   0.686  24.405  0.00  0.00    -0.270 OA
ENDROOT
BRANCH  25  27
ATOM     27  C   UNL     1      -4.776   1.604  24.951  0.00  0.00    +0.054 A 
ATOM     28  C   UNL     1      -5.077   1.370  25.682  0.00  0.00    +0.005 A 
ATOM     29  C   UNL     1      -5.853   1.556  25.888  0.00  0.00    +0.000 A 
ATOM     30  C   UNL     1      -6.330   1.977  25.362  0.00  0.00    +0.000 A 
ATOM     31  C   UNL     1      -6.030   2.212  24.631  0.00  0.00    +0.000 A 
ATOM     32  C   UNL     1      -5.253   2.026  24.425  0.00  0.00    +0.005 A 
ENDBRANCH  25  27
BRANCH  15  14
ATOM     14  C   UNL     1      -1.237   2.137  24.597  0.00  0.00    +0.019 C 
BRANCH  14  13
ATOM     13  C   UNL     1      -1.006   1.349  24.531  0.00  0.00    +0.072 C 
BRANCH  13  12
ATOM      9  N   UNL     1       1.148   0.774  23.454  0.00  0.00    -0.302 N 
ATOM     10  C   UNL     1       0.663   0.176  23.750  0.00  0.00    +0.108 C 
ATOM     11  C   UNL     1      -0.056   0.368  24.109  0.00  0.00    +0.094 C 
ATOM     12  N   UNL     1      -0.288   1.158  24.172  0.00  0.00    -0.270 NA
ATOM     33  C   UNL     1       0.199   1.755  23.876  0.00  0.00    +0.094 C 
ATOM     34  C   UNL     1       0.916   1.563  23.517  0.00  0.00    +0.108 C 
BRANCH   9   8
ATOM      3  C   UNL     1       1.874   0.105  22.422  0.00  0.00    +0.152 A 
ATOM      4  C   UNL     1       2.592  -0.087  22.063  0.00  0.00    +0.038 A 
ATOM      5  C   UNL     1       3.299   0.196  22.377  0.00  0.00    +0.003 A 
ATOM      6  C   UNL     1       3.291   0.672  23.050  0.00  0.00    +0.001 A 
ATOM      7  C   UNL     1       2.573   0.865  23.410  0.00  0.00    +0.018 A 
ATOM      8  C   UNL     1       1.865   0.582  23.096  0.00  0.00    +0.082 A 
BRANCH   3   2
ATOM      1  C   UNL     1       1.173  -0.624  21.414  0.00  0.00    +0.253 C 
ATOM      2  O   UNL     1       1.166  -0.178  22.107  0.00  0.00    -0.470 OA
ENDBRANCH   3   2
ENDBRANCH   9   8
ENDBRANCH  13  12
ENDBRANCH  14  13
ENDBRANCH  15  14
BRANCH  20  21
ATOM     21  C   UNL     1      -1.582   3.601  25.276  0.00  0.00    +0.114 C 
BRANCH  21  22
ATOM     22  C   UNL     1      -1.766   4.383  25.464  0.00  0.00    +0.365 C 
ATOM     23  O   UNL     1      -2.083   4.566  26.203  0.00  0.00    -0.246 OA
ATOM     24  O   UNL     1      -1.633   4.983  24.914  0.00  0.00    -0.246 OA
ENDBRANCH  21  22
ENDBRANCH  20  21
TORSDOF 8
ENDMDL
MODEL 8
REMARK VINA RESULT:      -6.7     13.540     15.127
REMARK  Name = 
REMARK  8 active torsions:
REMARK  status: ('A' for Active; 'I' for Inactive)
REMARK    1  A    between atoms: O_2  and  C_3
REMARK    2  A    between atoms: C_8  and  N_9
REMARK    3  A    between atoms: N_12  and  C_13
REMARK    4  A    between atoms: C_13  and  C_14
REMARK    5  A    between atoms: C_14  and  C_15
REMARK    6  A    between atoms: C_20  and  C_21
REMARK    7  A    between atoms: C_21  and  C_22
REMARK    8  A    between atoms: C_25  and  C_27
REMARK                            x       y       z     vdW  Elec       q    Type
REMARK                         _______ _______ _______ _____ _____    ______ ____
ROOT
ATOM     15  C   UNL     1      -6.279  -9.951  15.205  0.00  0.00    +0.022 C 
ATOM     16  C   UNL     1      -7.094  -9.833  15.161  0.00  0.00    +0.094 C 
ATOM     17  N   UNL     1      -7.536  -9.745  15.852  0.00  0.00    -0.276 N 
ATOM     18  C   UNL     1      -7.163  -9.776  16.588  0.00  0.00    +0.094 C 
ATOM     19  C   UNL     1      -6.348  -9.894  16.631  0.00  0.00    +0.022 C 
ATOM     20  C   UNL     1      -5.905  -9.982  15.941  0.00  0.00    +0.015 C 
ATOM     25  C   UNL     1      -8.352  -9.626  15.808  0.00  0.00    +0.249 C 
ATOM     26  O   UNL     1      -8.725  -9.596  15.073  0.00  0.00    -0.270 OA
ENDROOT
BRANCH  25  27
ATOM     27  C   UNL     1      -8.794  -9.539  16.499  0.00  0.00    +0.054 A 
ATOM     28  C   UNL     1      -9.111 -10.202  16.873  0.00  0.00    +0.005 A 
ATOM     29  C   UNL     1      -9.553 -10.114  17.564  0.00  0.00    +0.000 A 
ATOM     30  C   UNL     1      -9.678  -9.362  17.881  0.00  0.00    +0.000 A 
ATOM     31  C   UNL     1      -9.361  -8.699  17.507  0.00  0.00    +0.000 A 
ATOM     32  C   UNL     1      -8.919  -8.786  16.816  0.00  0.00    +0.005 A 
ENDBRANCH  25  27
BRANCH  15  14
ATOM     14  C   UNL     1      -5.837 -10.039  14.514  0.00  0.00    +0.019 C 
BRANCH  14  13
ATOM     13  C   UNL     1      -6.218 -10.092  13.785  0.00  0.00    +0.072 C 
BRANCH  13  12
ATOM      9  N   UNL     1      -4.926  -9.829  11.690  0.00  0.00    -0.302 N 
ATOM     10  C   UNL     1      -5.448  -9.237  11.930  0.00  0.00    +0.108 C 
ATOM     11  C   UNL     1      -5.879  -9.325  12.629  0.00  0.00    +0.094 C 
ATOM     12  N   UNL     1      -5.787 -10.005  13.087  0.00  0.00    -0.270 NA
ATOM     33  C   UNL     1      -5.265 -10.597  12.846  0.00  0.00    +0.094 C 
ATOM     34  C   UNL     1      -4.835 -10.509  12.148  0.00  0.00    +0.108 C 
BRANCH   9   8
ATOM      3  C   UNL     1      -4.828  -9.971  10.271  0.00  0.00    +0.152 A 
ATOM      4  C   UNL     1      -4.398  -9.882   9.573  0.00  0.00    +0.038 A 
ATOM      5  C   UNL     1      -3.638  -9.563   9.594  0.00  0.00    +0.003 A 
ATOM      6  C   UNL     1      -3.307  -9.333  10.313  0.00  0.00    +0.001 A 
ATOM      7  C   UNL     1      -3.737  -9.421  11.012  0.00  0.00    +0.018 A 
ATOM      8  C   UNL     1      -4.496  -9.740  10.992  0.00  0.00    +0.082 A 
BRANCH   3   2
ATOM      1  C   UNL     1      -5.916 -10.527   9.532  0.00  0.00    +0.253 C 
ATOM      2  O   UNL     1      -5.588 -10.290  10.251  0.00  0.00    -0.470 OA
ENDBRANCH   3   2
ENDBRANCH   9   8
ENDBRANCH  13  12
ENDBRANCH  14  13
ENDBRANCH  15  14
BRANCH  20  21
ATOM     21  C   UNL     1      -5.091 -10.101  15.985  0.00  0.00    +0.114 C 
BRANCH  21  22
ATOM     22  C   UNL     1      -4.710 -10.084  16.716  0.00  0.00    +0.365 C 
ATOM     23  O   UNL     1      -4.624 -10.778  17.153  0.00  0.00    -0.246 OA
ATOM     24  O   UNL     1      -4.416  -9.373  17.013  0.00  0.00    -0.246 OA
ENDBRANCH  21  22
ENDBRANCH  20  21
TORSDOF 8
ENDMDL
MODEL 9
REMARK VINA RESULT:      -6.5      1.556      6.577
REMARK  Name = 
REMARK  8 active torsions:
REMARK  status: ('A' for Active; 'I' for Inactive)
REMARK    1  A    between atoms: O_2  and  C_3
REMARK    2  A    between atoms: C_8  and  N_9
REMARK    3  A    between atoms: N_12  and  C_13
REMARK    4  A    between atoms: C_13  and  C_14
REMARK    5  A    between atoms: C_14  and  C_15
REMARK    6  A    between atoms: C_20  and  C_21
REMARK    7  A    between atoms: C_21  and  C_22
REMARK    8  A    between atoms: C_25  and  C_27
REMARK                            x       y       z     vdW  Elec       q    Type
REMARK                         _______ _______ _______ _____ _____    ______ ____
ROOT
ATOM     15  C   UNL     1      -0.548   0.978  24.425  0.00  0.00    +0.022 C 
ATOM     16  C   UNL     1      -0.257   0.403  23.909  0.00  0.00    +0.094 C 
ATOM     17  N   UNL     1       0.519   0.450  23.634  0.00  0.00    -0.276 N 
ATOM     18  C   UNL     1       1.006   1.072  23.876  0.00  0.00    +0.094 C 
ATOM     19  C   UNL     1       0.715   1.646  24.391  0.00  0.00    +0.022 C 
ATOM     20  C   UNL     1      -0.061   1.600  24.666  0.00  0.00    +0.015 C 
ATOM     25  C   UNL     1       0.810  -0.125  23.118  0.00  0.00    +0.249 C 
ATOM     26  O   UNL     1       0.324  -0.746  22.878  0.00  0.00    -0.270 OA
ENDROOT
BRANCH  25  27
ATOM     27  C   UNL     1       1.586  -0.078  22.844  0.00  0.00    +0.054 A 
ATOM     28  C   UNL     1       2.215  -0.238  23.353  0.00  0.00    +0.005 A 
ATOM     29  C   UNL     1       2.991  -0.191  23.078  0.00  0.00    +0.000 A 
ATOM     30  C   UNL     1       3.139   0.016  22.292  0.00  0.00    +0.000 A 
ATOM     31  C   UNL     1       2.510   0.176  21.783  0.00  0.00    +0.000 A 
ATOM     32  C   UNL     1       1.734   0.129  22.058  0.00  0.00    +0.005 A 
ENDBRANCH  25  27
BRANCH  15  14
ATOM     14  C   UNL     1      -1.324   0.931  24.700  0.00  0.00    +0.019 C 
BRANCH  14  13
ATOM     13  C   UNL     1      -1.940   0.789  24.172  0.00  0.00    +0.072 C 
BRANCH  13  12
ATOM      9  N   UNL     1      -4.245   1.492  24.741  0.00  0.00    -0.302 N 
ATOM     10  C   UNL     1      -3.851   0.945  25.217  0.00  0.00    +0.108 C 
ATOM     11  C   UNL     1      -3.082   0.711  25.027  0.00  0.00    +0.094 C 
ATOM     12  N   UNL     1      -2.709   1.024  24.361  0.00  0.00    -0.270 NA
ATOM     33  C   UNL     1      -3.104   1.570  23.885  0.00  0.00    +0.094 C 
ATOM     34  C   UNL     1      -3.871   1.804  24.075  0.00  0.00    +0.108 C 
BRANCH   9   8
ATOM      3  C   UNL     1      -5.141   2.442  25.319  0.00  0.00    +0.152 A 
ATOM      4  C   UNL     1      -5.909   2.676  25.509  0.00  0.00    +0.038 A 
ATOM      5  C   UNL     1      -6.548   2.194  25.312  0.00  0.00    +0.003 A 
ATOM      6  C   UNL     1      -6.420   1.477  24.925  0.00  0.00    +0.001 A 
ATOM      7  C   UNL     1      -5.651   1.243  24.734  0.00  0.00    +0.018 A 
ATOM      8  C   UNL     1      -5.013   1.725  24.931  0.00  0.00    +0.082 A 
BRANCH   3   2
ATOM      1  C   UNL     1      -4.633   3.663  25.859  0.00  0.00    +0.253 C 
ATOM      2  O   UNL     1      -4.502   2.925  25.516  0.00  0.00    -0.470 OA
ENDBRANCH   3   2
ENDBRANCH   9   8
ENDBRANCH  13  12
ENDBRANCH  14  13
ENDBRANCH  15  14
BRANCH  20  21
ATOM     21  C   UNL     1      -0.351   2.174  25.182  0.00  0.00    +0.114 C 
BRANCH  21  22
ATOM     22  C   UNL     1       0.154   2.753  25.482  0.00  0.00    +0.365 C 
ATOM     23  O   UNL     1       0.205   3.489  25.113  0.00  0.00    -0.246 OA
ATOM     24  O   UNL     1       0.610   2.596  26.151  0.00  0.00    -0.246 OA
ENDBRANCH  21  22
ENDBRANCH  20  21
TORSDOF 8
ENDMDL
