MODEL 1
REMARK VINA RESULT:      -9.8      0.000      0.000
REMARK  Name = 
REMARK  7 active torsions:
REMARK  status: ('A' for Active; 'I' for Inactive)
REMARK    1  A    between atoms: O_2  and  C_3
REMARK    2  A    between atoms: C_6  and  N_7
REMARK    3  A    between atoms: C_8  and  O_10
REMARK    4  A    between atoms: O_10  and  C_11
REMARK    5  A    between atoms: C_11  and  C_12
REMARK    6  A    between atoms: C_19  and  C_20
REMARK    7  A    between atoms: C_22  and  C_26
REMARK                            x       y       z     vdW  Elec       q    Type
REMARK                         _______ _______ _______ _____ _____    ______ ____
ROOT
ATOM     12  C   UNL     1       0.492   0.324  23.460  0.00  0.00    +0.102 C 
ATOM     13  C   UNL     1       0.096   0.912  23.782  0.00  0.00    +0.020 C 
ATOM     14  C   UNL     1      -0.624   0.849  24.149  0.00  0.00    +0.010 C 
ATOM     15  C   UNL     1      -0.912   1.642  24.454  0.00  0.00    +0.018 C 
ATOM     16  C   UNL     1      -0.497   1.234  24.156  0.00  0.00    +0.072 C 
ATOM     17  N   UNL     1      -0.241   0.269  23.836  0.00  0.00    -0.270 NA
ATOM     18  C   UNL     1      -0.796  -0.438  23.993  0.00  0.00    +0.078 C 
ATOM     19  C   UNL     1      -1.152   0.165  24.297  0.00  0.00    +0.056 C 
ENDROOT
BRANCH  19  20
ATOM     20  C   UNL     1      -1.882   0.171  24.683  0.00  0.00    +0.058 A 
ATOM     21  C   UNL     1      -2.526   0.649  24.493  0.00  0.00    +0.035 A 
ATOM     22  C   UNL     1      -3.137   0.474  25.019  0.00  0.00    +0.102 A 
ATOM     23  N   UNL     1      -2.869  -0.113  25.533  0.00  0.00    -0.170 NA
ATOM     24  N   UNL     1      -2.094  -0.300  25.325  0.00  0.00    -0.253 N 
ATOM     25  C   UNL     1      -1.614  -0.860  25.695  0.00  0.00    +0.153 C 
BRANCH  22  26
ATOM     26  C   UNL     1      -3.884   0.823  25.029  0.00  0.00    +0.019 A 
ATOM     27  C   UNL     1      -3.967   1.612  25.257  0.00  0.00    +0.002 A 
ATOM     28  C   UNL     1      -4.715   1.962  25.267  0.00  0.00    +0.000 A 
ATOM     29  C   UNL     1      -5.378   1.523  25.049  0.00  0.00    +0.000 A 
ATOM     30  C   UNL     1      -6.125   1.873  25.059  0.00  0.00    +0.000 A 
ATOM     31  C   UNL     1      -6.209   2.662  25.287  0.00  0.00    +0.000 A 
ATOM     32  C   UNL     1      -5.545   3.100  25.505  0.00  0.00    +0.000 A 
ATOM     33  C   UNL     1      -4.798   2.750  25.495  0.00  0.00    +0.000 A 
ATOM     34  C   UNL     1      -5.296   0.734  24.821  0.00  0.00    +0.000 A 
ATOM     35  C   UNL     1      -4.548   0.384  24.811  0.00  0.00    +0.002 A 
ENDBRANCH  22  26
ENDBRANCH  19  20
BRANCH  12  11
ATOM     11  C   UNL     1       1.137   0.005  23.059  0.00  0.00    +0.226 C 
BRANCH  11  10
ATOM     10  O   UNL     1       1.736   0.500  22.780  0.00  0.00    -0.432 OA
BRANCH  10   8
ATOM      7  N   UNL     1       3.111   0.831  22.985  0.00  0.00    -0.142 NA
ATOM      8  C   UNL     1       2.525   0.268  22.842  0.00  0.00    +0.425 C 
ATOM      9  O   UNL     1       2.729  -0.528  22.761  0.00  0.00    -0.224 OA
BRANCH   7   6
ATOM      3  C   UNL     1       5.478   0.136  23.171  0.00  0.00    +0.139 A 
ATOM      4  C   UNL     1       5.035   0.274  23.853  0.00  0.00    +0.038 A 
ATOM      5  C   UNL     1       4.246   0.506  23.791  0.00  0.00    +0.020 A 
ATOM      6  C   UNL     1       3.899   0.599  23.047  0.00  0.00    +0.077 A 
ATOM     36  C   UNL     1       4.344   0.461  22.366  0.00  0.00    +0.020 A 
ATOM     37  C   UNL     1       5.133   0.229  22.427  0.00  0.00    +0.038 A 
BRANCH   3   2
ATOM      1  C   UNL     1       6.491  -0.648  23.805  0.00  0.00    +0.252 C 
ATOM      2  O   UNL     1       6.268  -0.096  23.233  0.00  0.00    -0.471 OA
ENDBRANCH   3   2
ENDBRANCH   7   6
ENDBRANCH  10   8
ENDBRANCH  11  10
ENDBRANCH  12  11
TORSDOF 7
ENDMDL
MODEL 2
REMARK VINA RESULT:      -9.1      1.193      1.587
REMARK  Name = 
REMARK  7 active torsions:
REMARK  status: ('A' for Active; 'I' for Inactive)
REMARK    1  A    between atoms: O_2  and  C_3
REMARK    2  A    between atoms: C_6  and  N_7
REMARK    3  A    between atoms: C_8  and  O_10
REMARK    4  A    between atoms: O_10  and  C_11
REMARK    5  A    between atoms: C_11  and  C_12
REMARK    6  A    between atoms: C_19  and  C_20
REMARK    7  A    between atoms: C_22  and  C_26
REMARK                            x       y       z     vdW  Elec       q    Type
REMARK                         _______ _______ _______ _____ _____    ______ ____
ROOT
ATOM     12  C   UNL     1       0.384   0.986  23.721  0.00  0.00    +0.102 C 
ATOM     13  C   UNL     1       0.054   1.544  24.153  0.00  0.00    +0.020 C 
ATOM     14  C   UNL     1      -0.720   1.778  24.107  0.00  0.00    +0.010 C 
ATOM     15  C   UNL     1      -0.905   2.435  24.688  0.00  0.00    +0.018 C 
ATOM     16  C   UNL     1      -0.527   1.994  24.389  0.00  0.00    +0.072 C 
ATOM     17  N   UNL     1      -0.403   1.231  23.681  0.00  0.00    -0.270 NA
ATOM     18  C   UNL     1      -1.102   0.958  23.161  0.00  0.00    +0.078 C 
ATOM     19  C   UNL     1      -1.388   1.510  23.604  0.00  0.00    +0.056 C 
ENDROOT
BRANCH  19  20
ATOM     20  C   UNL     1      -2.162   1.795  23.608  0.00  0.00    +0.058 A 
ATOM     21  C   UNL     1      -2.638   1.897  24.274  0.00  0.00    +0.035 A 
ATOM     22  C   UNL     1      -3.366   2.193  24.025  0.00  0.00    +0.102 A 
ATOM     23  N   UNL     1      -3.340   2.275  23.204  0.00  0.00    -0.170 NA
ATOM     24  N   UNL     1      -2.596   2.029  22.947  0.00  0.00    -0.253 N 
ATOM     25  C   UNL     1      -2.332   2.019  22.165  0.00  0.00    +0.153 C 
BRANCH  22  26
ATOM     26  C   UNL     1      -4.007   2.376  24.510  0.00  0.00    +0.019 A 
ATOM     27  C   UNL     1      -4.524   1.779  24.752  0.00  0.00    +0.002 A 
ATOM     28  C   UNL     1      -5.166   1.962  25.238  0.00  0.00    +0.000 A 
ATOM     29  C   UNL     1      -5.291   2.741  25.481  0.00  0.00    +0.000 A 
ATOM     30  C   UNL     1      -5.932   2.924  25.966  0.00  0.00    +0.000 A 
ATOM     31  C   UNL     1      -6.449   2.327  26.209  0.00  0.00    +0.000 A 
ATOM     32  C   UNL     1      -6.324   1.549  25.966  0.00  0.00    +0.000 A 
ATOM     33  C   UNL     1      -5.682   1.367  25.480  0.00  0.00    +0.000 A 
ATOM     34  C   UNL     1      -4.774   3.337  25.239  0.00  0.00    +0.000 A 
ATOM     35  C   UNL     1      -4.132   3.155  24.753  0.00  0.00    +0.002 A 
ENDBRANCH  22  26
ENDBRANCH  19  20
BRANCH  12  11
ATOM     11  C   UNL     1       1.021   0.518  23.487  0.00  0.00    +0.226 C 
BRANCH  11  10
ATOM     10  O   UNL     1       1.607   0.832  22.998  0.00  0.00    -0.432 OA
BRANCH  10   8
ATOM      7  N   UNL     1       3.021   1.030  23.010  0.00  0.00    -0.142 NA
ATOM      8  C   UNL     1       2.371   0.523  23.018  0.00  0.00    +0.425 C 
ATOM      9  O   UNL     1       2.484  -0.294  23.046  0.00  0.00    -0.224 OA
BRANCH   7   6
ATOM      3  C   UNL     1       5.315   0.102  23.069  0.00  0.00    +0.139 A 
ATOM      4  C   UNL     1       4.951   0.348  23.768  0.00  0.00    +0.038 A 
ATOM      5  C   UNL     1       4.187   0.657  23.748  0.00  0.00    +0.020 A 
ATOM      6  C   UNL     1       3.785   0.721  23.029  0.00  0.00    +0.077 A 
ATOM     36  C   UNL     1       4.150   0.474  22.331  0.00  0.00    +0.020 A 
ATOM     37  C   UNL     1       4.914   0.165  22.350  0.00  0.00    +0.038 A 
BRANCH   3   2
ATOM      1  C   UNL     1       6.363  -0.560  23.780  0.00  0.00    +0.252 C 
ATOM      2  O   UNL     1       6.080  -0.208  23.090  0.00  0.00    -0.471 OA
ENDBRANCH   3   2
ENDBRANCH   7   6
ENDBRANCH  10   8
ENDBRANCH  11  10
ENDBRANCH  12  11
TORSDOF 7
ENDMDL
MODEL 3
REMARK VINA RESULT:      -8.9      2.102      8.018
REMARK  Name = 
REMARK  7 active torsions:
REMARK  status: ('A' for Active; 'I' for Inactive)
REMARK    1  A    between atoms: O_2  and  C_3
REMARK    2  A    between atoms: C_6  and  N_7
REMARK    3  A    between atoms: C_8  and  O_10
REMARK    4  A    between atoms: O_10  and  C_11
REMARK    5  A    between atoms: C_11  and  C_12
REMARK    6  A    between atoms: C_19  and  C_20
REMARK    7  A    between atoms: C_22  and  C_26
REMARK                            x       y       z     vdW  Elec       q    Type
REMARK                         _______ _______ _______ _____ _____    ______ ____
ROOT
ATOM     12  C   UNL     1      -1.175   0.733  24.111  0.00  0.00    +0.102 C 
ATOM     13  C   UNL     1      -0.542   1.186  24.106  0.00  0.00    +0.020 C 
ATOM     14  C   UNL     1       0.168   0.998  23.764  0.00  0.00    +0.010 C 
ATOM     15  C   UNL     1       0.772   1.653  23.868  0.00  0.00    +0.018 C 
ATOM     16  C   UNL     1       0.189   1.364  23.935  0.00  0.00    +0.072 C 
ATOM     17  N   UNL     1      -0.448   0.550  23.765  0.00  0.00    -0.270 NA
ATOM     18  C   UNL     1      -0.157  -0.184  23.307  0.00  0.00    +0.078 C 
ATOM     19  C   UNL     1       0.441   0.290  23.325  0.00  0.00    +0.056 C 
ENDROOT
BRANCH  19  20
ATOM     20  C   UNL     1       1.188   0.161  22.998  0.00  0.00    +0.058 A 
ATOM     21  C   UNL     1       1.911   0.318  23.364  0.00  0.00    +0.035 A 
ATOM     22  C   UNL     1       2.512   0.107  22.841  0.00  0.00    +0.102 A 
ATOM     23  N   UNL     1       2.161  -0.180  22.152  0.00  0.00    -0.170 NA
ATOM     24  N   UNL     1       1.343  -0.147  22.250  0.00  0.00    -0.253 N 
ATOM     25  C   UNL     1       0.779  -0.381  21.695  0.00  0.00    +0.153 C 
BRANCH  22  26
ATOM     26  C   UNL     1       3.323   0.172  22.982  0.00  0.00    +0.019 A 
ATOM     27  C   UNL     1       3.715  -0.416  23.406  0.00  0.00    +0.002 A 
ATOM     28  C   UNL     1       4.527  -0.351  23.547  0.00  0.00    +0.000 A 
ATOM     29  C   UNL     1       4.943   0.303  23.263  0.00  0.00    +0.000 A 
ATOM     30  C   UNL     1       5.753   0.368  23.404  0.00  0.00    +0.000 A 
ATOM     31  C   UNL     1       6.147  -0.220  23.829  0.00  0.00    +0.000 A 
ATOM     32  C   UNL     1       5.730  -0.873  24.113  0.00  0.00    +0.000 A 
ATOM     33  C   UNL     1       4.920  -0.938  23.972  0.00  0.00    +0.000 A 
ATOM     34  C   UNL     1       4.550   0.891  22.839  0.00  0.00    +0.000 A 
ATOM     35  C   UNL     1       3.739   0.826  22.698  0.00  0.00    +0.002 A 
ENDBRANCH  22  26
ENDBRANCH  19  20
BRANCH  12  11
ATOM     11  C   UNL     1      -1.958   0.567  24.307  0.00  0.00    +0.226 C 
BRANCH  11  10
ATOM     10  O   UNL     1      -2.569   1.026  23.995  0.00  0.00    -0.432 OA
BRANCH  10   8
ATOM      7  N   UNL     1      -3.710   1.837  24.278  0.00  0.00    -0.142 NA
ATOM      8  C   UNL     1      -3.243   1.178  24.445  0.00  0.00    +0.425 C 
ATOM      9  O   UNL     1      -3.450   0.671  25.062  0.00  0.00    -0.224 OA
BRANCH   7   6
ATOM      3  C   UNL     1      -5.732   2.294  25.629  0.00  0.00    +0.139 A 
ATOM      4  C   UNL     1      -5.072   2.784  25.696  0.00  0.00    +0.038 A 
ATOM      5  C   UNL     1      -4.398   2.632  25.246  0.00  0.00    +0.020 A 
ATOM      6  C   UNL     1      -4.384   1.989  24.728  0.00  0.00    +0.077 A 
ATOM     36  C   UNL     1      -5.044   1.499  24.662  0.00  0.00    +0.020 A 
ATOM     37  C   UNL     1      -5.719   1.651  25.112  0.00  0.00    +0.038 A 
BRANCH   3   2
ATOM      1  C   UNL     1      -6.626   1.927  26.682  0.00  0.00    +0.252 C 
ATOM      2  O   UNL     1      -6.407   2.447  26.080  0.00  0.00    -0.471 OA
ENDBRANCH   3   2
ENDBRANCH   7   6
ENDBRANCH  10   8
ENDBRANCH  11  10
ENDBRANCH  12  11
TORSDOF 7
ENDMDL
MODEL 4
REMARK VINA RESULT:      -7.3     13.978     14.791
REMARK  Name = 
REMARK  7 active torsions:
REMARK  status: ('A' for Active; 'I' for Inactive)
REMARK    1  A    between atoms: O_2  and  C_3
REMARK    2  A    between atoms: C_6  and  N_7
REMARK    3  A    between atoms: C_8  and  O_10
REMARK    4  A    between atoms: O_10  and  C_11
REMARK    5  A    between atoms: C_11  and  C_12
REMARK    6  A    between atoms: C_19  and  C_20
REMARK    7  A    between atoms: C_22  and  C_26
REMARK                            x       y       z     vdW  Elec       q    Type
REMARK                         _______ _______ _______ _____ _____    ______ ____
ROOT
ATOM     12  C   UNL     1      -4.368 -10.591  14.874  0.00  0.00    +0.102 C 
ATOM     13  C   UNL     1      -5.138 -10.707  14.855  0.00  0.00    +0.020 C 
ATOM     14  C   UNL     1      -5.649 -10.573  15.469  0.00  0.00    +0.010 C 
ATOM     15  C   UNL     1      -6.495 -10.768  15.247  0.00  0.00    +0.018 C 
ATOM     16  C   UNL     1      -5.852 -10.710  15.147  0.00  0.00    +0.072 C 
ATOM     17  N   UNL     1      -4.896 -10.457  15.494  0.00  0.00    -0.270 NA
ATOM     18  C   UNL     1      -4.774 -10.152  16.346  0.00  0.00    +0.078 C 
ATOM     19  C   UNL     1      -5.524 -10.279  16.286  0.00  0.00    +0.056 C 
ENDROOT
BRANCH  19  20
ATOM     20  C   UNL     1      -6.097 -10.164  16.869  0.00  0.00    +0.058 A 
ATOM     21  C   UNL     1      -6.886  -9.962  16.740  0.00  0.00    +0.035 A 
ATOM     22  C   UNL     1      -7.258  -9.904  17.474  0.00  0.00    +0.102 A 
ATOM     23  N   UNL     1      -6.698 -10.070  18.056  0.00  0.00    -0.170 NA
ATOM     24  N   UNL     1      -5.981 -10.230  17.682  0.00  0.00    -0.253 N 
ATOM     25  C   UNL     1      -5.271 -10.423  18.056  0.00  0.00    +0.153 C 
BRANCH  22  26
ATOM     26  C   UNL     1      -8.050  -9.713  17.603  0.00  0.00    +0.019 A 
ATOM     27  C   UNL     1      -8.342  -8.980  17.362  0.00  0.00    +0.002 A 
ATOM     28  C   UNL     1      -9.135  -8.789  17.491  0.00  0.00    +0.000 A 
ATOM     29  C   UNL     1      -9.634  -9.332  17.860  0.00  0.00    +0.000 A 
ATOM     30  C   UNL     1     -10.427  -9.142  17.989  0.00  0.00    +0.000 A 
ATOM     31  C   UNL     1     -10.719  -8.408  17.749  0.00  0.00    +0.000 A 
ATOM     32  C   UNL     1     -10.219  -7.866  17.380  0.00  0.00    +0.000 A 
ATOM     33  C   UNL     1      -9.427  -8.056  17.251  0.00  0.00    +0.000 A 
ATOM     34  C   UNL     1      -9.343 -10.066  18.101  0.00  0.00    +0.000 A 
ATOM     35  C   UNL     1      -8.549 -10.257  17.972  0.00  0.00    +0.002 A 
ENDBRANCH  22  26
ENDBRANCH  19  20
BRANCH  12  11
ATOM     11  C   UNL     1      -3.615 -10.597  14.538  0.00  0.00    +0.226 C 
BRANCH  11  10
ATOM     10  O   UNL     1      -3.525 -10.737  13.730  0.00  0.00    -0.432 OA
BRANCH  10   8
ATOM      7  N   UNL     1      -2.844 -10.466  12.504  0.00  0.00    -0.142 NA
ATOM      8  C   UNL     1      -2.876 -10.427  13.327  0.00  0.00    +0.425 C 
ATOM      9  O   UNL     1      -2.259 -10.076  13.748  0.00  0.00    -0.224 OA
BRANCH   7   6
ATOM      3  C   UNL     1      -0.897  -9.532  11.295  0.00  0.00    +0.139 A 
ATOM      4  C   UNL     1      -0.820 -10.235  11.719  0.00  0.00    +0.038 A 
ATOM      5  C   UNL     1      -1.469 -10.546  12.122  0.00  0.00    +0.020 A 
ATOM      6  C   UNL     1      -2.195 -10.155  12.101  0.00  0.00    +0.077 A 
ATOM     36  C   UNL     1      -2.271  -9.451  11.676  0.00  0.00    +0.020 A 
ATOM     37  C   UNL     1      -1.623  -9.139  11.273  0.00  0.00    +0.038 A 
BRANCH   3   2
ATOM      1  C   UNL     1       0.121  -8.537  11.170  0.00  0.00    +0.252 C 
ATOM      2  O   UNL     1      -0.248  -9.221  10.892  0.00  0.00    -0.471 OA
ENDBRANCH   3   2
ENDBRANCH   7   6
ENDBRANCH  10   8
ENDBRANCH  11  10
ENDBRANCH  12  11
TORSDOF 7
ENDMDL
MODEL 5
REMARK VINA RESULT:      -6.6     17.445     18.164
REMARK  Name = 
REMARK  7 active torsions:
REMARK  status: ('A' for Active; 'I' for Inactive)
REMARK    1  A    between atoms: O_2  and  C_3
REMARK    2  A    between atoms: C_6  and  N_7
REMARK    3  A    between atoms: C_8  and  O_10
REMARK    4  A    between atoms: O_10  and  C_11
REMARK    5  A    between atoms: C_11  and  C_12
REMARK    6  A    between atoms: C_19  and  C_20
REMARK    7  A    between atoms: C_22  and  C_26
REMARK                            x       y       z     vdW  Elec       q    Type
REMARK                         _______ _______ _______ _____ _____    ______ ____
ROOT
ATOM     12  C   UNL     1      -5.634  -9.882  10.075  0.00  0.00    +0.102 C 
ATOM     13  C   UNL     1      -6.262  -9.619  10.451  0.00  0.00    +0.020 C 
ATOM     14  C   UNL     1      -6.920  -9.300  10.102  0.00  0.00    +0.010 C 
ATOM     15  C   UNL     1      -7.534  -9.056  10.708  0.00  0.00    +0.018 C 
ATOM     16  C   UNL     1      -6.964  -9.303  10.504  0.00  0.00    +0.072 C 
ATOM     17  N   UNL     1      -6.308  -9.557   9.728  0.00  0.00    -0.270 NA
ATOM     18  C   UNL     1      -6.534  -9.405   8.857  0.00  0.00    +0.078 C 
ATOM     19  C   UNL     1      -7.131  -9.157   9.263  0.00  0.00    +0.056 C 
ENDROOT
BRANCH  19  20
ATOM     20  C   UNL     1      -7.828  -8.825   8.972  0.00  0.00    +0.058 A 
ATOM     21  C   UNL     1      -8.113  -8.070   9.144  0.00  0.00    +0.035 A 
ATOM     22  C   UNL     1      -8.823  -7.968   8.737  0.00  0.00    +0.102 A 
ATOM     23  N   UNL     1      -8.976  -8.659   8.314  0.00  0.00    -0.170 NA
ATOM     24  N   UNL     1      -8.361  -9.188   8.459  0.00  0.00    -0.253 N 
ATOM     25  C   UNL     1      -8.291  -9.949   8.146  0.00  0.00    +0.153 C 
BRANCH  22  26
ATOM     26  C   UNL     1      -9.297  -7.293   8.751  0.00  0.00    +0.019 A 
ATOM     27  C   UNL     1      -8.954  -6.547   8.665  0.00  0.00    +0.002 A 
ATOM     28  C   UNL     1      -9.429  -5.871   8.679  0.00  0.00    +0.000 A 
ATOM     29  C   UNL     1     -10.245  -5.942   8.778  0.00  0.00    +0.000 A 
ATOM     30  C   UNL     1     -10.719  -5.267   8.792  0.00  0.00    +0.000 A 
ATOM     31  C   UNL     1     -10.377  -4.520   8.707  0.00  0.00    +0.000 A 
ATOM     32  C   UNL     1      -9.561  -4.450   8.608  0.00  0.00    +0.000 A 
ATOM     33  C   UNL     1      -9.087  -5.126   8.594  0.00  0.00    +0.000 A 
ATOM     34  C   UNL     1     -10.588  -6.688   8.864  0.00  0.00    +0.000 A 
ATOM     35  C   UNL     1     -10.113  -7.364   8.850  0.00  0.00    +0.002 A 
ENDBRANCH  22  26
ENDBRANCH  19  20
BRANCH  12  11
ATOM     11  C   UNL     1      -4.883 -10.221  10.046  0.00  0.00    +0.226 C 
BRANCH  11  10
ATOM     10  O   UNL     1      -4.430 -10.283  10.733  0.00  0.00    -0.432 OA
BRANCH  10   8
ATOM      7  N   UNL     1      -3.245  -9.731  11.309  0.00  0.00    -0.142 NA
ATOM      8  C   UNL     1      -3.616 -10.152  10.705  0.00  0.00    +0.425 C 
ATOM      9  O   UNL     1      -3.174 -10.443  10.072  0.00  0.00    -0.224 OA
BRANCH   7   6
ATOM      3  C   UNL     1      -0.803  -9.339  11.224  0.00  0.00    +0.139 A 
ATOM      4  C   UNL     1      -1.109  -9.928  11.715  0.00  0.00    +0.038 A 
ATOM      5  C   UNL     1      -1.923 -10.058  11.743  0.00  0.00    +0.020 A 
ATOM      6  C   UNL     1      -2.431  -9.600  11.281  0.00  0.00    +0.077 A 
ATOM     36  C   UNL     1      -2.124  -9.012  10.790  0.00  0.00    +0.020 A 
ATOM     37  C   UNL     1      -1.310  -8.881  10.761  0.00  0.00    +0.038 A 
BRANCH   3   2
ATOM      1  C   UNL     1       0.320  -8.478  11.424  0.00  0.00    +0.252 C 
ATOM      2  O   UNL     1       0.012  -9.209  11.196  0.00  0.00    -0.471 OA
ENDBRANCH   3   2
ENDBRANCH   7   6
ENDBRANCH  10   8
ENDBRANCH  11  10
ENDBRANCH  12  11
TORSDOF 7
ENDMDL
MODEL 6
REMARK VINA RESULT:      -6.2     15.209     17.452
REMARK  Name = 
REMARK  7 active torsions:
REMARK  status: ('A' for Active; 'I' for Inactive)
REMARK    1  A    between atoms: O_2  and  C_3
REMARK    2  A    between atoms: C_6  and  N_7
REMARK    3  A    between atoms: C_8  and  O_10
REMARK    4  A    between atoms: O_10  and  C_11
REMARK    5  A    between atoms: C_11  and  C_12
REMARK    6  A    between atoms: C_19  and  C_20
REMARK    7  A    between atoms: C_22  and  C_26
REMARK                            x       y       z     vdW  Elec       q    Type
REMARK                         _______ _______ _______ _____ _____    ______ ____
ROOT
ATOM     12  C   UNL     1      -6.874 -10.265  14.556  0.00  0.00    +0.102 C 
ATOM     13  C   UNL     1      -6.143 -10.508  14.447  0.00  0.00    +0.020 C 
ATOM     14  C   UNL     1      -5.722 -10.439  13.759  0.00  0.00    +0.010 C 
ATOM     15  C   UNL     1      -4.897 -10.781  13.837  0.00  0.00    +0.018 C 
ATOM     16  C   UNL     1      -5.496 -10.620  14.042  0.00  0.00    +0.072 C 
ATOM     17  N   UNL     1      -6.438 -10.199  13.859  0.00  0.00    -0.270 NA
ATOM     18  C   UNL     1      -6.642  -9.847  13.042  0.00  0.00    +0.078 C 
ATOM     19  C   UNL     1      -5.925 -10.099  12.976  0.00  0.00    +0.056 C 
ENDROOT
BRANCH  19  20
ATOM     20  C   UNL     1      -5.441 -10.061  12.308  0.00  0.00    +0.058 A 
ATOM     21  C   UNL     1      -4.663  -9.790  12.287  0.00  0.00    +0.035 A 
ATOM     22  C   UNL     1      -4.393  -9.848  11.510  0.00  0.00    +0.102 A 
ATOM     23  N   UNL     1      -5.005 -10.155  11.051  0.00  0.00    -0.170 NA
ATOM     24  N   UNL     1      -5.653 -10.286  11.544  0.00  0.00    -0.253 N 
ATOM     25  C   UNL     1      -6.385 -10.590  11.313  0.00  0.00    +0.153 C 
BRANCH  22  26
ATOM     26  C   UNL     1      -3.643  -9.636  11.240  0.00  0.00    +0.019 A 
ATOM     27  C   UNL     1      -2.972  -9.869  11.661  0.00  0.00    +0.002 A 
ATOM     28  C   UNL     1      -2.221  -9.657  11.391  0.00  0.00    +0.000 A 
ATOM     29  C   UNL     1      -2.142  -9.212  10.700  0.00  0.00    +0.000 A 
ATOM     30  C   UNL     1      -1.392  -9.000  10.430  0.00  0.00    +0.000 A 
ATOM     31  C   UNL     1      -0.721  -9.234  10.851  0.00  0.00    +0.000 A 
ATOM     32  C   UNL     1      -0.801  -9.678  11.541  0.00  0.00    +0.000 A 
ATOM     33  C   UNL     1      -1.551  -9.890  11.811  0.00  0.00    +0.000 A 
ATOM     34  C   UNL     1      -2.813  -8.979  10.280  0.00  0.00    +0.000 A 
ATOM     35  C   UNL     1      -3.564  -9.191  10.550  0.00  0.00    +0.002 A 
ENDBRANCH  22  26
ENDBRANCH  19  20
BRANCH  12  11
ATOM     11  C   UNL     1      -7.553 -10.157  15.011  0.00  0.00    +0.226 C 
BRANCH  11  10
ATOM     10  O   UNL     1      -7.498  -9.816  15.761  0.00  0.00    -0.432 OA
BRANCH  10   8
ATOM      7  N   UNL     1      -8.074  -9.994  17.056  0.00  0.00    -0.142 NA
ATOM      8  C   UNL     1      -8.156  -9.803  16.258  0.00  0.00    +0.425 C 
ATOM      9  O   UNL     1      -8.897  -9.600  15.957  0.00  0.00    -0.224 OA
BRANCH   7   6
ATOM      3  C   UNL     1     -10.048  -9.957  18.548  0.00  0.00    +0.139 A 
ATOM      4  C   UNL     1      -9.591  -9.276  18.451  0.00  0.00    +0.038 A 
ATOM      5  C   UNL     1      -8.934  -9.289  17.954  0.00  0.00    +0.020 A 
ATOM      6  C   UNL     1      -8.731  -9.982  17.553  0.00  0.00    +0.077 A 
ATOM     36  C   UNL     1      -9.188 -10.662  17.651  0.00  0.00    +0.020 A 
ATOM     37  C   UNL     1      -9.847 -10.650  18.148  0.00  0.00    +0.038 A 
BRANCH   3   2
ATOM      1  C   UNL     1     -10.623 -10.138  19.843  0.00  0.00    +0.252 C 
ATOM      2  O   UNL     1     -10.706  -9.944  19.046  0.00  0.00    -0.471 OA
ENDBRANCH   3   2
ENDBRANCH   7   6
ENDBRANCH  10   8
ENDBRANCH  11  10
ENDBRANCH  12  11
TORSDOF 7
ENDMDL
MODEL 7
REMARK VINA RESULT:      -6.1     16.888     17.726
REMARK  Name = 
REMARK  7 active torsions:
REMARK  status: ('A' for Active; 'I' for Inactive)
REMARK    1  A    between atoms: O_2  and  C_3
REMARK    2  A    between atoms: C_6  and  N_7
REMARK    3  A    between atoms: C_8  and  O_10
REMARK    4  A    between atoms: O_10  and  C_11
REMARK    5  A    between atoms: C_11  and  C_12
REMARK    6  A    between atoms: C_19  and  C_20
REMARK    7  A    between atoms: C_22  and  C_26
REMARK                            x       y       z     vdW  Elec       q    Type
REMARK                         _______ _______ _______ _____ _____    ______ ____
ROOT
ATOM     12  C   UNL     1      -4.528 -10.027  11.125  0.00  0.00    +0.102 C 
ATOM     13  C   UNL     1      -4.738  -9.306  10.921  0.00  0.00    +0.020 C 
ATOM     14  C   UNL     1      -5.299  -9.118  10.368  0.00  0.00    +0.010 C 
ATOM     15  C   UNL     1      -5.395  -8.231  10.278  0.00  0.00    +0.018 C 
ATOM     16  C   UNL     1      -5.141  -8.781  10.526  0.00  0.00    +0.072 C 
ATOM     17  N   UNL     1      -5.098  -9.827  10.563  0.00  0.00    -0.270 NA
ATOM     18  C   UNL     1      -5.635 -10.336  10.030  0.00  0.00    +0.078 C 
ATOM     19  C   UNL     1      -5.813  -9.614   9.858  0.00  0.00    +0.056 C 
ENDROOT
BRANCH  19  20
ATOM     20  C   UNL     1      -6.371  -9.355   9.308  0.00  0.00    +0.058 A 
ATOM     21  C   UNL     1      -6.945  -8.777   9.436  0.00  0.00    +0.035 A 
ATOM     22  C   UNL     1      -7.381  -8.693   8.741  0.00  0.00    +0.102 A 
ATOM     23  N   UNL     1      -7.076  -9.220   8.185  0.00  0.00    -0.170 NA
ATOM     24  N   UNL     1      -6.452  -9.629   8.535  0.00  0.00    -0.253 N 
ATOM     25  C   UNL     1      -5.990 -10.210   8.176  0.00  0.00    +0.153 C 
BRANCH  22  26
ATOM     26  C   UNL     1      -8.011  -8.174   8.624  0.00  0.00    +0.019 A 
ATOM     27  C   UNL     1      -7.870  -7.364   8.552  0.00  0.00    +0.002 A 
ATOM     28  C   UNL     1      -8.501  -6.845   8.435  0.00  0.00    +0.000 A 
ATOM     29  C   UNL     1      -9.272  -7.136   8.389  0.00  0.00    +0.000 A 
ATOM     30  C   UNL     1      -9.902  -6.617   8.271  0.00  0.00    +0.000 A 
ATOM     31  C   UNL     1      -9.762  -5.806   8.200  0.00  0.00    +0.000 A 
ATOM     32  C   UNL     1      -8.991  -5.516   8.246  0.00  0.00    +0.000 A 
ATOM     33  C   UNL     1      -8.361  -6.035   8.363  0.00  0.00    +0.000 A 
ATOM     34  C   UNL     1      -9.413  -7.946   8.460  0.00  0.00    +0.000 A 
ATOM     35  C   UNL     1      -8.782  -8.466   8.578  0.00  0.00    +0.002 A 
ENDBRANCH  22  26
ENDBRANCH  19  20
BRANCH  12  11
ATOM     11  C   UNL     1      -4.084 -10.567  11.562  0.00  0.00    +0.226 C 
BRANCH  11  10
ATOM     10  O   UNL     1      -4.226 -10.664  12.369  0.00  0.00    -0.432 OA
BRANCH  10   8
ATOM      7  N   UNL     1      -3.735 -10.651  13.710  0.00  0.00    -0.142 NA
ATOM      8  C   UNL     1      -3.595 -10.696  12.899  0.00  0.00    +0.425 C 
ATOM      9  O   UNL     1      -2.823 -10.774  12.616  0.00  0.00    -0.224 OA
BRANCH   7   6
ATOM      3  C   UNL     1      -1.841 -10.749  15.300  0.00  0.00    +0.139 A 
ATOM      4  C   UNL     1      -1.697 -10.736  14.488  0.00  0.00    +0.038 A 
ATOM      5  C   UNL     1      -2.328 -10.704  13.958  0.00  0.00    +0.020 A 
ATOM      6  C   UNL     1      -3.104 -10.684  14.240  0.00  0.00    +0.077 A 
ATOM     36  C   UNL     1      -3.247 -10.696  15.052  0.00  0.00    +0.020 A 
ATOM     37  C   UNL     1      -2.616 -10.729  15.583  0.00  0.00    +0.038 A 
BRANCH   3   2
ATOM      1  C   UNL     1      -0.784 -10.096  16.006  0.00  0.00    +0.252 C 
ATOM      2  O   UNL     1      -1.209 -10.781  15.830  0.00  0.00    -0.471 OA
ENDBRANCH   3   2
ENDBRANCH   7   6
ENDBRANCH  10   8
ENDBRANCH  11  10
ENDBRANCH  12  11
TORSDOF 7
ENDMDL
MODEL 8
REMARK VINA RESULT:      -6.0     16.655     17.727
REMARK  Name = 
REMARK  7 active torsions:
REMARK  status: ('A' for Active; 'I' for Inactive)
REMARK    1  A    between atoms: O_2  and  C_3
REMARK    2  A    between atoms: C_6  and  N_7
REMARK    3  A    between atoms: C_8  and  O_10
REMARK    4  A    between atoms: O_10  and  C_11
REMARK    5  A    between atoms: C_11  and  C_12
REMARK    6  A    between atoms: C_19  and  C_20
REMARK    7  A    between atoms: C_22  and  C_26
REMARK                            x       y       z     vdW  Elec       q    Type
REMARK                         _______ _______ _______ _____ _____    ______ ____
ROOT
ATOM     12  C   UNL     1      -5.818  -9.933  12.123  0.00  0.00    +0.102 C 
ATOM     13  C   UNL     1      -5.767  -9.341  11.619  0.00  0.00    +0.020 C 
ATOM     14  C   UNL     1      -6.289  -9.189  11.019  0.00  0.00    +0.010 C 
ATOM     15  C   UNL     1      -6.055  -8.461  10.550  0.00  0.00    +0.018 C 
ATOM     16  C   UNL     1      -5.995  -8.911  11.021  0.00  0.00    +0.072 C 
ATOM     17  N   UNL     1      -6.344  -9.770  11.508  0.00  0.00    -0.270 NA
ATOM     18  C   UNL     1      -7.104 -10.191  11.228  0.00  0.00    +0.078 C 
ATOM     19  C   UNL     1      -7.019  -9.598  10.755  0.00  0.00    +0.056 C 
ENDROOT
BRANCH  19  20
ATOM     20  C   UNL     1      -7.511  -9.387  10.126  0.00  0.00    +0.058 A 
ATOM     21  C   UNL     1      -8.044  -8.759  10.118  0.00  0.00    +0.035 A 
ATOM     22  C   UNL     1      -8.418  -8.751   9.383  0.00  0.00    +0.102 A 
ATOM     23  N   UNL     1      -8.115  -9.375   8.937  0.00  0.00    -0.170 NA
ATOM     24  N   UNL     1      -7.555  -9.768   9.397  0.00  0.00    -0.253 N 
ATOM     25  C   UNL     1      -7.115 -10.428   9.167  0.00  0.00    +0.153 C 
BRANCH  22  26
ATOM     26  C   UNL     1      -8.993  -8.213   9.136  0.00  0.00    +0.019 A 
ATOM     27  C   UNL     1      -8.774  -7.449   8.914  0.00  0.00    +0.002 A 
ATOM     28  C   UNL     1      -9.351  -6.911   8.667  0.00  0.00    +0.000 A 
ATOM     29  C   UNL     1     -10.144  -7.138   8.644  0.00  0.00    +0.000 A 
ATOM     30  C   UNL     1     -10.719  -6.601   8.398  0.00  0.00    +0.000 A 
ATOM     31  C   UNL     1     -10.501  -5.836   8.175  0.00  0.00    +0.000 A 
ATOM     32  C   UNL     1      -9.708  -5.610   8.198  0.00  0.00    +0.000 A 
ATOM     33  C   UNL     1      -9.133  -6.148   8.444  0.00  0.00    +0.000 A 
ATOM     34  C   UNL     1     -10.362  -7.902   8.867  0.00  0.00    +0.000 A 
ATOM     35  C   UNL     1      -9.786  -8.440   9.113  0.00  0.00    +0.002 A 
ENDBRANCH  22  26
ENDBRANCH  19  20
BRANCH  12  11
ATOM     11  C   UNL     1      -5.553 -10.375  12.766  0.00  0.00    +0.226 C 
BRANCH  11  10
ATOM     10  O   UNL     1      -5.127 -10.010  13.372  0.00  0.00    -0.432 OA
BRANCH  10   8
ATOM      7  N   UNL     1      -4.792  -9.904  14.756  0.00  0.00    -0.142 NA
ATOM      8  C   UNL     1      -5.258 -10.226  14.157  0.00  0.00    +0.425 C 
ATOM      9  O   UNL     1      -5.856 -10.763  14.342  0.00  0.00    -0.224 OA
BRANCH   7   6
ATOM      3  C   UNL     1      -5.185 -10.551  17.112  0.00  0.00    +0.139 A 
ATOM      4  C   UNL     1      -4.438 -10.652  16.776  0.00  0.00    +0.038 A 
ATOM      5  C   UNL     1      -4.307 -10.437  15.991  0.00  0.00    +0.020 A 
ATOM      6  C   UNL     1      -4.923 -10.120  15.541  0.00  0.00    +0.077 A 
ATOM     36  C   UNL     1      -5.669 -10.019  15.878  0.00  0.00    +0.020 A 
ATOM     37  C   UNL     1      -5.801 -10.235  16.663  0.00  0.00    +0.038 A 
BRANCH   3   2
ATOM      1  C   UNL     1      -5.865 -10.352  18.353  0.00  0.00    +0.252 C 
ATOM      2  O   UNL     1      -5.316 -10.768  17.898  0.00  0.00    -0.471 OA
ENDBRANCH   3   2
ENDBRANCH   7   6
ENDBRANCH  10   8
ENDBRANCH  11  10
ENDBRANCH  12  11
TORSDOF 7
ENDMDL
