MODEL 1
REMARK VINA RESULT:     -15.5      0.000      0.000
REMARK  Name = 
REMARK  2 active torsions:
REMARK  status: ('A' for Active; 'I' for Inactive)
REMARK    1  A    between atoms: C_2  and  C_23
REMARK    2  A    between atoms: C_10  and  C_17
REMARK                            x       y       z     vdW  Elec       q    Type
REMARK                         _______ _______ _______ _____ _____    ______ ____
ROOT
ATOM      1  O   UNL     1      -3.931   4.096  24.246  0.00  0.00    -0.269 OA
ATOM      2  C   UNL     1      -4.036   3.230  24.397  0.00  0.00    +0.255 C 
ATOM      3  N   UNL     1      -3.396   2.691  24.193  0.00  0.00    -0.275 N 
ATOM      4  C   UNL     1      -2.629   2.565  23.886  0.00  0.00    +0.096 C 
ATOM      5  C   UNL     1      -2.570   1.584  23.982  0.00  0.00    +0.043 C 
ATOM      6  C   UNL     1      -2.367   0.795  23.993  0.00  0.00    +0.011 C 
ATOM      7  C   UNL     1      -2.917   1.192  24.175  0.00  0.00    +0.058 C 
ATOM      8  C   UNL     1      -2.958   2.141  24.076  0.00  0.00    +0.100 C 
ATOM      9  C   UNL     1      -3.759   1.134  24.537  0.00  0.00    +0.041 A 
ATOM     10  C   UNL     1      -4.293   0.578  24.831  0.00  0.00    +0.013 A 
ATOM     11  C   UNL     1      -5.030   0.822  25.111  0.00  0.00    +0.006 A 
ATOM     12  C   UNL     1      -5.232   1.622  25.098  0.00  0.00    +0.061 A 
ATOM     13  C   UNL     1      -4.698   2.178  24.805  0.00  0.00    +0.261 A 
ATOM     14  O   UNL     1      -4.763   3.206  24.706  0.00  0.00    -0.267 OA
ATOM     15  N   UNL     1      -3.962   1.934  24.525  0.00  0.00    -0.299 N 
ATOM     16  C   UNL     1      -3.452   1.533  24.359  0.00  0.00    +0.110 C 
ENDROOT
BRANCH  10  17
ATOM     17  C   UNL     1      -4.091  -0.222  24.843  0.00  0.00    +0.020 A 
ATOM     18  C   UNL     1      -4.272  -0.703  24.199  0.00  0.00    +0.003 A 
ATOM     19  C   UNL     1      -4.070  -1.503  24.212  0.00  0.00    +0.021 A 
ATOM     20  C   UNL     1      -3.687  -1.822  24.869  0.00  0.00    +0.099 A 
ATOM     21  N   UNL     1      -3.506  -1.340  25.514  0.00  0.00    -0.242 NA
ATOM     22  C   UNL     1      -3.708  -0.540  25.501  0.00  0.00    +0.099 A 
ENDBRANCH  10  17
BRANCH   2  23
ATOM     23  C   UNL     1      -4.713   2.686  24.749  0.00  0.00    +0.083 A 
ATOM     24  C   UNL     1      -5.218   2.142  24.391  0.00  0.00    +0.012 A 
ATOM     25  C   UNL     1      -5.706   1.824  24.976  0.00  0.00    +0.008 A 
ATOM     26  C   UNL     1      -5.501   2.172  25.695  0.00  0.00    +0.036 A 
ATOM     27  S   UNL     1      -4.887   2.706  25.555  0.00  0.00    -0.082 S 
ENDBRANCH   2  23
TORSDOF 2
ENDMDL
MODEL 2
REMARK VINA RESULT:     -15.3      0.742      1.964
REMARK  Name = 
REMARK  2 active torsions:
REMARK  status: ('A' for Active; 'I' for Inactive)
REMARK    1  A    between atoms: C_2  and  C_23
REMARK    2  A    between atoms: C_10  and  C_17
REMARK                            x       y       z     vdW  Elec       q    Type
REMARK                         _______ _______ _______ _____ _____    ______ ____
ROOT
ATOM      1  O   UNL     1      -4.083   4.095  24.249  0.00  0.00    -0.269 OA
ATOM      2  C   UNL     1      -3.920   3.224  24.254  0.00  0.00    +0.255 C 
ATOM      3  N   UNL     1      -4.481   2.697  24.642  0.00  0.00    -0.275 N 
ATOM      4  C   UNL     1      -5.191   2.588  25.068  0.00  0.00    +0.096 C 
ATOM      5  C   UNL     1      -5.174   1.606  25.170  0.00  0.00    +0.043 C 
ATOM      6  C   UNL     1      -5.306   0.820  25.338  0.00  0.00    +0.011 C 
ATOM      7  C   UNL     1      -4.820   1.206  25.010  0.00  0.00    +0.058 C 
ATOM      8  C   UNL     1      -4.851   2.156  24.919  0.00  0.00    +0.100 C 
ATOM      9  C   UNL     1      -4.025   1.129  24.556  0.00  0.00    +0.041 A 
ATOM     10  C   UNL     1      -3.483   0.561  24.305  0.00  0.00    +0.013 A 
ATOM     11  C   UNL     1      -2.809   0.789  23.887  0.00  0.00    +0.006 A 
ATOM     12  C   UNL     1      -2.679   1.587  23.719  0.00  0.00    +0.061 A 
ATOM     13  C   UNL     1      -3.221   2.155  23.970  0.00  0.00    +0.261 A 
ATOM     14  O   UNL     1      -3.235   3.184  23.860  0.00  0.00    -0.267 OA
ATOM     15  N   UNL     1      -3.894   1.927  24.388  0.00  0.00    -0.299 N 
ATOM     16  C   UNL     1      -4.343   1.536  24.695  0.00  0.00    +0.110 C 
ENDROOT
BRANCH  10  17
ATOM     17  C   UNL     1      -3.613  -0.237  24.473  0.00  0.00    +0.020 A 
ATOM     18  C   UNL     1      -4.016  -0.711  23.932  0.00  0.00    +0.003 A 
ATOM     19  C   UNL     1      -4.147  -1.508  24.100  0.00  0.00    +0.021 A 
ATOM     20  C   UNL     1      -3.875  -1.831  24.809  0.00  0.00    +0.099 A 
ATOM     21  N   UNL     1      -3.473  -1.356  25.350  0.00  0.00    -0.242 NA
ATOM     22  C   UNL     1      -3.342  -0.559  25.182  0.00  0.00    +0.099 A 
ENDBRANCH  10  17
BRANCH   2  23
ATOM     23  C   UNL     1      -3.244   2.664  23.925  0.00  0.00    +0.083 A 
ATOM     24  C   UNL     1      -3.230   2.141  23.288  0.00  0.00    +0.012 A 
ATOM     25  C   UNL     1      -2.482   1.794  23.260  0.00  0.00    +0.008 A 
ATOM     26  C   UNL     1      -2.034   2.103  23.880  0.00  0.00    +0.036 A 
ATOM     27  S   UNL     1      -2.506   2.642  24.292  0.00  0.00    -0.082 S 
ENDBRANCH   2  23
TORSDOF 2
ENDMDL
MODEL 3
REMARK VINA RESULT:     -14.4      1.104      2.474
REMARK  Name = 
REMARK  2 active torsions:
REMARK  status: ('A' for Active; 'I' for Inactive)
REMARK    1  A    between atoms: C_2  and  C_23
REMARK    2  A    between atoms: C_10  and  C_17
REMARK                            x       y       z     vdW  Elec       q    Type
REMARK                         _______ _______ _______ _____ _____    ______ ____
ROOT
ATOM      1  O   UNL     1      -6.242   1.926  24.974  0.00  0.00    -0.269 OA
ATOM      2  C   UNL     1      -5.363   1.938  24.867  0.00  0.00    +0.255 C 
ATOM      3  N   UNL     1      -4.930   1.194  24.898  0.00  0.00    -0.275 N 
ATOM      4  C   UNL     1      -4.929   0.364  24.991  0.00  0.00    +0.096 C 
ATOM      5  C   UNL     1      -3.962   0.187  24.894  0.00  0.00    +0.043 C 
ATOM      6  C   UNL     1      -3.210  -0.121  24.838  0.00  0.00    +0.011 C 
ATOM      7  C   UNL     1      -3.516   0.510  24.805  0.00  0.00    +0.058 C 
ATOM      8  C   UNL     1      -4.454   0.664  24.900  0.00  0.00    +0.100 C 
ATOM      9  C   UNL     1      -3.322   1.400  24.682  0.00  0.00    +0.041 A 
ATOM     10  C   UNL     1      -2.683   1.904  24.549  0.00  0.00    +0.013 A 
ATOM     11  C   UNL     1      -2.807   2.716  24.474  0.00  0.00    +0.006 A 
ATOM     12  C   UNL     1      -3.570   3.024  24.531  0.00  0.00    +0.061 A 
ATOM     13  C   UNL     1      -4.209   2.520  24.664  0.00  0.00    +0.261 A 
ATOM     14  O   UNL     1      -5.222   2.709  24.764  0.00  0.00    -0.267 OA
ATOM     15  N   UNL     1      -4.085   1.708  24.740  0.00  0.00    -0.299 N 
ATOM     16  C   UNL     1      -3.769   1.119  24.767  0.00  0.00    +0.110 C 
ENDROOT
BRANCH  10  17
ATOM     17  C   UNL     1      -1.920   1.595  24.492  0.00  0.00    +0.020 A 
ATOM     18  C   UNL     1      -1.449   1.531  25.166  0.00  0.00    +0.003 A 
ATOM     19  C   UNL     1      -0.686   1.223  25.109  0.00  0.00    +0.021 A 
ATOM     20  C   UNL     1      -0.393   0.979  24.378  0.00  0.00    +0.099 A 
ATOM     21  N   UNL     1      -0.864   1.043  23.703  0.00  0.00    -0.242 NA
ATOM     22  C   UNL     1      -1.627   1.351  23.761  0.00  0.00    +0.099 A 
ENDBRANCH  10  17
BRANCH   2  23
ATOM     23  C   UNL     1      -4.713   2.595  24.716  0.00  0.00    +0.083 A 
ATOM     24  C   UNL     1      -4.272   2.783  24.045  0.00  0.00    +0.012 A 
ATOM     25  C   UNL     1      -3.779   3.418  24.234  0.00  0.00    +0.008 A 
ATOM     26  C   UNL     1      -3.916   3.622  25.021  0.00  0.00    +0.036 A 
ATOM     27  S   UNL     1      -4.494   3.112  25.320  0.00  0.00    -0.082 S 
ENDBRANCH   2  23
TORSDOF 2
ENDMDL
MODEL 4
REMARK VINA RESULT:     -14.3      2.327      4.040
REMARK  Name = 
REMARK  2 active torsions:
REMARK  status: ('A' for Active; 'I' for Inactive)
REMARK    1  A    between atoms: C_2  and  C_23
REMARK    2  A    between atoms: C_10  and  C_17
REMARK                            x       y       z     vdW  Elec       q    Type
REMARK                         _______ _______ _______ _____ _____    ______ ____
ROOT
ATOM      1  O   UNL     1      -1.697  -2.921  24.689  0.00  0.00    -0.269 OA
ATOM      2  C   UNL     1      -2.023  -2.098  24.724  0.00  0.00    +0.255 C 
ATOM      3  N   UNL     1      -2.833  -1.959  24.466  0.00  0.00    -0.275 N 
ATOM      4  C   UNL     1      -3.553  -2.254  24.162  0.00  0.00    +0.096 C 
ATOM      5  C   UNL     1      -4.075  -1.415  24.131  0.00  0.00    +0.043 C 
ATOM      6  C   UNL     1      -4.629  -0.824  24.045  0.00  0.00    +0.011 C 
ATOM      7  C   UNL     1      -3.966  -0.885  24.265  0.00  0.00    +0.058 C 
ATOM      8  C   UNL     1      -3.474  -1.704  24.289  0.00  0.00    +0.100 C 
ATOM      9  C   UNL     1      -3.268  -0.388  24.598  0.00  0.00    +0.041 A 
ATOM     10  C   UNL     1      -3.075   0.387  24.805  0.00  0.00    +0.013 A 
ATOM     11  C   UNL     1      -2.324   0.560  25.098  0.00  0.00    +0.006 A 
ATOM     12  C   UNL     1      -1.766  -0.041  25.185  0.00  0.00    +0.061 A 
ATOM     13  C   UNL     1      -1.958  -0.816  24.978  0.00  0.00    +0.261 A 
ATOM     14  O   UNL     1      -1.408  -1.692  25.012  0.00  0.00    -0.267 OA
ATOM     15  N   UNL     1      -2.710  -0.989  24.684  0.00  0.00    -0.299 N 
ATOM     16  C   UNL     1      -3.341  -0.904  24.479  0.00  0.00    +0.110 C 
ENDROOT
BRANCH  10  17
ATOM     17  C   UNL     1      -3.634   0.988  24.719  0.00  0.00    +0.020 A 
ATOM     18  C   UNL     1      -3.630   1.461  24.043  0.00  0.00    +0.003 A 
ATOM     19  C   UNL     1      -4.188   2.062  23.956  0.00  0.00    +0.021 A 
ATOM     20  C   UNL     1      -4.751   2.191  24.546  0.00  0.00    +0.099 A 
ATOM     21  N   UNL     1      -4.755   1.718  25.222  0.00  0.00    -0.242 NA
ATOM     22  C   UNL     1      -4.196   1.117  25.308  0.00  0.00    +0.099 A 
ENDBRANCH  10  17
BRANCH   2  23
ATOM     23  C   UNL     1      -1.701  -1.258  24.988  0.00  0.00    +0.083 A 
ATOM     24  C   UNL     1      -1.867  -0.792  25.647  0.00  0.00    +0.012 A 
ATOM     25  C   UNL     1      -1.419  -0.101  25.590  0.00  0.00    +0.008 A 
ATOM     26  C   UNL     1      -0.976  -0.142  24.895  0.00  0.00    +0.036 A 
ATOM     27  S   UNL     1      -1.151  -0.858  24.522  0.00  0.00    -0.082 S 
ENDBRANCH   2  23
TORSDOF 2
ENDMDL
MODEL 5
REMARK VINA RESULT:     -14.1      2.499      3.972
REMARK  Name = 
REMARK  2 active torsions:
REMARK  status: ('A' for Active; 'I' for Inactive)
REMARK    1  A    between atoms: C_2  and  C_23
REMARK    2  A    between atoms: C_10  and  C_17
REMARK                            x       y       z     vdW  Elec       q    Type
REMARK                         _______ _______ _______ _____ _____    ______ ____
ROOT
ATOM      1  O   UNL     1      -3.654  -3.123  24.685  0.00  0.00    -0.269 OA
ATOM      2  C   UNL     1      -3.312  -2.307  24.727  0.00  0.00    +0.255 C 
ATOM      3  N   UNL     1      -2.457  -2.211  24.674  0.00  0.00    -0.275 N 
ATOM      4  C   UNL     1      -1.697  -2.549  24.593  0.00  0.00    +0.096 C 
ATOM      5  C   UNL     1      -1.147  -1.728  24.621  0.00  0.00    +0.043 C 
ATOM      6  C   UNL     1      -0.564  -1.160  24.626  0.00  0.00    +0.011 C 
ATOM      7  C   UNL     1      -1.264  -1.185  24.673  0.00  0.00    +0.058 C 
ATOM      8  C   UNL     1      -1.781  -1.987  24.645  0.00  0.00    +0.100 C 
ATOM      9  C   UNL     1      -2.000  -0.644  24.769  0.00  0.00    +0.041 A 
ATOM     10  C   UNL     1      -2.204   0.151  24.848  0.00  0.00    +0.013 A 
ATOM     11  C   UNL     1      -2.997   0.368  24.922  0.00  0.00    +0.006 A 
ATOM     12  C   UNL     1      -3.585  -0.210  24.916  0.00  0.00    +0.061 A 
ATOM     13  C   UNL     1      -3.381  -1.006  24.837  0.00  0.00    +0.261 A 
ATOM     14  O   UNL     1      -3.960  -1.863  24.809  0.00  0.00    -0.267 OA
ATOM     15  N   UNL     1      -2.588  -1.222  24.764  0.00  0.00    -0.299 N 
ATOM     16  C   UNL     1      -1.922  -1.171  24.721  0.00  0.00    +0.110 C 
ENDROOT
BRANCH  10  17
ATOM     17  C   UNL     1      -1.616   0.730  24.853  0.00  0.00    +0.020 A 
ATOM     18  C   UNL     1      -1.274   0.964  25.567  0.00  0.00    +0.003 A 
ATOM     19  C   UNL     1      -0.685   1.542  25.572  0.00  0.00    +0.021 A 
ATOM     20  C   UNL     1      -0.439   1.887  24.864  0.00  0.00    +0.099 A 
ATOM     21  N   UNL     1      -0.781   1.653  24.151  0.00  0.00    -0.242 NA
ATOM     22  C   UNL     1      -1.369   1.074  24.145  0.00  0.00    +0.099 A 
ENDBRANCH  10  17
BRANCH   2  23
ATOM     23  C   UNL     1      -3.652  -1.439  24.821  0.00  0.00    +0.083 A 
ATOM     24  C   UNL     1      -3.647  -0.917  25.459  0.00  0.00    +0.012 A 
ATOM     25  C   UNL     1      -4.029  -0.225  25.224  0.00  0.00    +0.008 A 
ATOM     26  C   UNL     1      -4.271  -0.320  24.441  0.00  0.00    +0.036 A 
ATOM     27  S   UNL     1      -4.037  -1.072  24.192  0.00  0.00    -0.082 S 
ENDBRANCH   2  23
TORSDOF 2
ENDMDL
