MODEL 1
REMARK VINA RESULT:     -11.2      0.000      0.000
REMARK  Name = 
REMARK  8 active torsions:
REMARK  status: ('A' for Active; 'I' for Inactive)
REMARK    1  A    between atoms: C_2  and  N_4
REMARK    2  A    between atoms: N_7  and  C_8
REMARK    3  A    between atoms: C_8  and  C_9
REMARK    4  A    between atoms: C_11  and  C_12
REMARK    5  A    between atoms: C_12  and  C_13
REMARK    6  A    between atoms: C_15  and  C_18
REMARK    7  A    between atoms: C_21  and  O_22
REMARK    8  A    between atoms: O_22  and  C_23
REMARK                            x       y       z     vdW  Elec       q    Type
REMARK                         _______ _______ _______ _____ _____    ______ ____
ROOT
ATOM     12  C   UNL     1      -0.521   1.647  24.592  0.00  0.00    +0.120 C 
ENDROOT
BRANCH  12  11
ATOM      9  C   UNL     1      -1.778   3.319  25.017  0.00  0.00    +0.170 C 
ATOM     10  O   UNL     1      -1.663   2.506  24.935  0.00  0.00    -0.351 OA
ATOM     11  C   UNL     1      -0.875   2.380  24.728  0.00  0.00    +0.157 C 
ATOM     29  C   UNL     1      -0.503   3.115  24.682  0.00  0.00    +0.212 C 
ATOM     30  O   UNL     1       0.289   3.246  24.491  0.00  0.00    -0.218 OA
ATOM     31  C   UNL     1      -1.061   3.696  24.861  0.00  0.00    +0.213 C 
ATOM     32  O   UNL     1      -0.925   4.509  24.879  0.00  0.00    -0.218 OA
BRANCH   9   8
ATOM      8  C   UNL     1      -2.486   3.691  25.220  0.00  0.00    +0.149 C 
BRANCH   8   7
ATOM      4  N   UNL     1      -4.610   3.209  25.075  0.00  0.00    -0.189 NA
ATOM      5  C   UNL     1      -3.894   3.497  25.367  0.00  0.00    +0.339 C 
ATOM      6  O   UNL     1      -3.870   3.878  26.098  0.00  0.00    -0.249 OA
ATOM      7  N   UNL     1      -3.202   3.403  24.928  0.00  0.00    -0.185 NA
BRANCH   4   2
ATOM      1  C   UNL     1      -5.604   2.670  25.950  0.00  0.00    +0.023 C 
ATOM      2  C   UNL     1      -5.302   3.302  25.514  0.00  0.00    +0.097 C 
ATOM      3  C   UNL     1      -5.693   4.029  25.517  0.00  0.00    +0.023 C 
ENDBRANCH   4   2
ENDBRANCH   8   7
ENDBRANCH   9   8
ENDBRANCH  12  11
BRANCH  12  13
ATOM     13  C   UNL     1      -0.824   0.971  24.955  0.00  0.00    +0.239 A 
ATOM     14  N   UNL     1      -1.407   0.475  24.648  0.00  0.00    -0.191 NA
ATOM     15  C   UNL     1      -1.539  -0.131  25.192  0.00  0.00    +0.203 A 
ATOM     16  N   UNL     1      -1.038  -0.011  25.835  0.00  0.00    -0.056 NA
ATOM     17  O   UNL     1      -0.595   0.671  25.689  0.00  0.00    -0.337 OA
BRANCH  15  18
ATOM     18  C   UNL     1      -2.079  -0.749  25.107  0.00  0.00    +0.039 A 
ATOM     19  C   UNL     1      -1.849  -1.453  24.743  0.00  0.00    +0.006 A 
ATOM     20  C   UNL     1      -2.388  -2.071  24.658  0.00  0.00    +0.037 A 
ATOM     21  C   UNL     1      -3.160  -1.984  24.937  0.00  0.00    +0.147 A 
ATOM     27  C   UNL     1      -3.391  -1.281  25.300  0.00  0.00    +0.037 A 
ATOM     28  C   UNL     1      -2.852  -0.663  25.386  0.00  0.00    +0.006 A 
BRANCH  21  22
ATOM     22  O   UNL     1      -3.701  -2.602  24.851  0.00  0.00    -0.404 OA
BRANCH  22  23
ATOM     23  C   UNL     1      -4.082  -2.720  24.129  0.00  0.00    +0.575 C 
ATOM     24  F   UNL     1      -4.463  -2.839  23.407  0.00  0.00    -0.133 F 
ATOM     25  F   UNL     1      -4.592  -2.094  24.296  0.00  0.00    -0.133 F 
ATOM     26  F   UNL     1      -3.571  -3.347  23.963  0.00  0.00    -0.133 F 
ENDBRANCH  22  23
ENDBRANCH  21  22
ENDBRANCH  15  18
ENDBRANCH  12  13
TORSDOF 8
ENDMDL
MODEL 2
REMARK VINA RESULT:     -10.9      2.080      4.635
REMARK  Name = 
REMARK  8 active torsions:
REMARK  status: ('A' for Active; 'I' for Inactive)
REMARK    1  A    between atoms: C_2  and  N_4
REMARK    2  A    between atoms: N_7  and  C_8
REMARK    3  A    between atoms: C_8  and  C_9
REMARK    4  A    between atoms: C_11  and  C_12
REMARK    5  A    between atoms: C_12  and  C_13
REMARK    6  A    between atoms: C_15  and  C_18
REMARK    7  A    between atoms: C_21  and  O_22
REMARK    8  A    between atoms: O_22  and  C_23
REMARK                            x       y       z     vdW  Elec       q    Type
REMARK                         _______ _______ _______ _____ _____    ______ ____
ROOT
ATOM     12  C   UNL     1      -0.403   2.035  24.842  0.00  0.00    +0.120 C 
ENDROOT
BRANCH  12  11
ATOM      9  C   UNL     1      -0.630  -0.034  24.370  0.00  0.00    +0.170 C 
ATOM     10  O   UNL     1      -0.894   0.654  24.741  0.00  0.00    -0.351 OA
ATOM     11  C   UNL     1      -0.353   1.255  24.579  0.00  0.00    +0.157 C 
ATOM     29  C   UNL     1       0.246   0.938  24.108  0.00  0.00    +0.212 C 
ATOM     30  O   UNL     1       0.901   1.347  23.818  0.00  0.00    -0.218 OA
ATOM     31  C   UNL     1       0.075   0.142  23.979  0.00  0.00    +0.213 C 
ATOM     32  O   UNL     1       0.529  -0.386  23.536  0.00  0.00    -0.218 OA
BRANCH   9   8
ATOM      8  C   UNL     1      -1.004  -0.769  24.387  0.00  0.00    +0.149 C 
BRANCH   8   7
ATOM      4  N   UNL     1      -2.987  -1.601  24.761  0.00  0.00    -0.189 NA
ATOM      5  C   UNL     1      -2.190  -1.548  24.556  0.00  0.00    +0.339 C 
ATOM      6  O   UNL     1      -1.780  -2.223  24.316  0.00  0.00    -0.249 OA
ATOM      7  N   UNL     1      -1.802  -0.822  24.591  0.00  0.00    -0.185 NA
BRANCH   4   2
ATOM      1  C   UNL     1      -3.324  -2.855  25.359  0.00  0.00    +0.023 C 
ATOM      2  C   UNL     1      -3.375  -2.328  24.726  0.00  0.00    +0.097 C 
ATOM      3  C   UNL     1      -3.815  -2.528  24.057  0.00  0.00    +0.023 C 
ENDBRANCH   4   2
ENDBRANCH   8   7
ENDBRANCH   9   8
ENDBRANCH  12  11
BRANCH  12  13
ATOM     13  C   UNL     1      -1.083   2.478  24.691  0.00  0.00    +0.239 A 
ATOM     14  N   UNL     1      -1.828   2.349  25.020  0.00  0.00    -0.191 NA
ATOM     15  C   UNL     1      -2.343   2.918  24.718  0.00  0.00    +0.203 A 
ATOM     16  N   UNL     1      -1.916   3.399  24.201  0.00  0.00    -0.056 NA
ATOM     17  O   UNL     1      -1.137   3.127  24.185  0.00  0.00    -0.337 OA
BRANCH  15  18
ATOM     18  C   UNL     1      -3.144   2.993  24.900  0.00  0.00    +0.039 A 
ATOM     19  C   UNL     1      -3.383   3.465  25.532  0.00  0.00    +0.006 A 
ATOM     20  C   UNL     1      -4.184   3.539  25.714  0.00  0.00    +0.037 A 
ATOM     21  C   UNL     1      -4.747   3.140  25.263  0.00  0.00    +0.147 A 
ATOM     27  C   UNL     1      -4.509   2.667  24.630  0.00  0.00    +0.037 A 
ATOM     28  C   UNL     1      -3.708   2.593  24.448  0.00  0.00    +0.006 A 
BRANCH  21  22
ATOM     22  O   UNL     1      -5.549   3.214  25.444  0.00  0.00    -0.404 OA
BRANCH  22  23
ATOM     23  C   UNL     1      -5.957   2.578  25.774  0.00  0.00    +0.575 C 
ATOM     24  F   UNL     1      -6.366   1.941  26.104  0.00  0.00    -0.133 F 
ATOM     25  F   UNL     1      -5.705   2.805  26.526  0.00  0.00    -0.133 F 
ATOM     26  F   UNL     1      -6.210   2.350  25.022  0.00  0.00    -0.133 F 
ENDBRANCH  22  23
ENDBRANCH  21  22
ENDBRANCH  15  18
ENDBRANCH  12  13
TORSDOF 8
ENDMDL
MODEL 3
REMARK VINA RESULT:     -10.8      1.991      3.580
REMARK  Name = 
REMARK  8 active torsions:
REMARK  status: ('A' for Active; 'I' for Inactive)
REMARK    1  A    between atoms: C_2  and  N_4
REMARK    2  A    between atoms: N_7  and  C_8
REMARK    3  A    between atoms: C_8  and  C_9
REMARK    4  A    between atoms: C_11  and  C_12
REMARK    5  A    between atoms: C_12  and  C_13
REMARK    6  A    between atoms: C_15  and  C_18
REMARK    7  A    between atoms: C_21  and  O_22
REMARK    8  A    between atoms: O_22  and  C_23
REMARK                            x       y       z     vdW  Elec       q    Type
REMARK                         _______ _______ _______ _____ _____    ______ ____
ROOT
ATOM     12  C   UNL     1      -5.168   1.115  24.691  0.00  0.00    +0.120 C 
ENDROOT
BRANCH  12  11
ATOM      9  C   UNL     1      -4.547   3.064  25.301  0.00  0.00    +0.170 C 
ATOM     10  O   UNL     1      -4.378   2.315  24.999  0.00  0.00    -0.351 OA
ATOM     11  C   UNL     1      -5.084   1.889  24.960  0.00  0.00    +0.157 C 
ATOM     29  C   UNL     1      -5.689   2.376  25.238  0.00  0.00    +0.212 C 
ATOM     30  O   UNL     1      -6.487   2.172  25.295  0.00  0.00    -0.218 OA
ATOM     31  C   UNL     1      -5.359   3.102  25.448  0.00  0.00    +0.213 C 
ATOM     32  O   UNL     1      -5.767   3.751  25.753  0.00  0.00    -0.218 OA
BRANCH   9   8
ATOM      8  C   UNL     1      -4.003   3.668  25.432  0.00  0.00    +0.149 C 
BRANCH   8   7
ATOM      4  N   UNL     1      -1.978   4.146  24.768  0.00  0.00    -0.189 NA
ATOM      5  C   UNL     1      -2.647   4.081  25.248  0.00  0.00    +0.339 C 
ATOM      6  O   UNL     1      -2.628   4.364  26.022  0.00  0.00    -0.249 OA
ATOM      7  N   UNL     1      -3.334   3.733  24.953  0.00  0.00    -0.185 NA
BRANCH   4   2
ATOM      1  C   UNL     1      -1.209   5.315  25.060  0.00  0.00    +0.023 C 
ATOM      2  C   UNL     1      -1.291   4.494  25.063  0.00  0.00    +0.097 C 
ATOM      3  C   UNL     1      -0.685   4.020  25.361  0.00  0.00    +0.023 C 
ENDBRANCH   4   2
ENDBRANCH   8   7
ENDBRANCH   9   8
ENDBRANCH  12  11
BRANCH  12  13
ATOM     13  C   UNL     1      -4.667   0.523  24.975  0.00  0.00    +0.239 A 
ATOM     14  N   UNL     1      -3.957   0.282  24.631  0.00  0.00    -0.191 NA
ATOM     15  C   UNL     1      -3.639  -0.321  25.096  0.00  0.00    +0.203 A 
ATOM     16  N   UNL     1      -4.152  -0.452  25.728  0.00  0.00    -0.056 NA
ATOM     17  O   UNL     1      -4.788   0.069  25.654  0.00  0.00    -0.337 OA
BRANCH  15  18
ATOM     18  C   UNL     1      -2.932  -0.721  24.953  0.00  0.00    +0.039 A 
ATOM     19  C   UNL     1      -2.212  -0.325  25.021  0.00  0.00    +0.006 A 
ATOM     20  C   UNL     1      -1.505  -0.726  24.878  0.00  0.00    +0.037 A 
ATOM     21  C   UNL     1      -1.519  -1.523  24.667  0.00  0.00    +0.147 A 
ATOM     27  C   UNL     1      -2.239  -1.919  24.599  0.00  0.00    +0.037 A 
ATOM     28  C   UNL     1      -2.947  -1.519  24.742  0.00  0.00    +0.006 A 
BRANCH  21  22
ATOM     22  O   UNL     1      -0.812  -1.924  24.524  0.00  0.00    -0.404 OA
BRANCH  22  23
ATOM     23  C   UNL     1      -0.286  -2.066  25.143  0.00  0.00    +0.575 C 
ATOM     24  F   UNL     1       0.240  -2.208  25.762  0.00  0.00    -0.133 F 
ATOM     25  F   UNL     1       0.135  -1.386  24.941  0.00  0.00    -0.133 F 
ATOM     26  F   UNL     1      -0.707  -2.746  25.345  0.00  0.00    -0.133 F 
ENDBRANCH  22  23
ENDBRANCH  21  22
ENDBRANCH  15  18
ENDBRANCH  12  13
TORSDOF 8
ENDMDL
MODEL 4
REMARK VINA RESULT:     -10.7      2.758      4.857
REMARK  Name = 
REMARK  8 active torsions:
REMARK  status: ('A' for Active; 'I' for Inactive)
REMARK    1  A    between atoms: C_2  and  N_4
REMARK    2  A    between atoms: N_7  and  C_8
REMARK    3  A    between atoms: C_8  and  C_9
REMARK    4  A    between atoms: C_11  and  C_12
REMARK    5  A    between atoms: C_12  and  C_13
REMARK    6  A    between atoms: C_15  and  C_18
REMARK    7  A    between atoms: C_21  and  O_22
REMARK    8  A    between atoms: O_22  and  C_23
REMARK                            x       y       z     vdW  Elec       q    Type
REMARK                         _______ _______ _______ _____ _____    ______ ____
ROOT
ATOM     12  C   UNL     1      -1.043  -0.938  24.924  0.00  0.00    +0.120 C 
ENDROOT
BRANCH  12  11
ATOM      9  C   UNL     1      -3.177  -0.949  24.879  0.00  0.00    +0.170 C 
ATOM     10  O   UNL     1      -2.460  -0.552  24.974  0.00  0.00    -0.351 OA
ATOM     11  C   UNL     1      -1.850  -1.099  24.875  0.00  0.00    +0.157 C 
ATOM     29  C   UNL     1      -2.191  -1.834  24.719  0.00  0.00    +0.212 C 
ATOM     30  O   UNL     1      -1.782  -2.538  24.584  0.00  0.00    -0.218 OA
ATOM     31  C   UNL     1      -3.011  -1.742  24.721  0.00  0.00    +0.213 C 
ATOM     32  O   UNL     1      -3.566  -2.337  24.589  0.00  0.00    -0.218 OA
BRANCH   9   8
ATOM      8  C   UNL     1      -3.928  -0.613  24.932  0.00  0.00    +0.149 C 
BRANCH   8   7
ATOM      4  N   UNL     1      -4.743   1.383  24.592  0.00  0.00    -0.189 NA
ATOM      5  C   UNL     1      -4.591   0.653  24.943  0.00  0.00    +0.339 C 
ATOM      6  O   UNL     1      -4.952   0.457  25.659  0.00  0.00    -0.249 OA
ATOM      7  N   UNL     1      -4.080   0.118  24.580  0.00  0.00    -0.185 NA
BRANCH   4   2
ATOM      1  C   UNL     1      -6.071   1.826  24.879  0.00  0.00    +0.023 C 
ATOM      2  C   UNL     1      -5.255   1.918  24.955  0.00  0.00    +0.097 C 
ATOM      3  C   UNL     1      -4.950   2.546  25.394  0.00  0.00    +0.023 C 
ENDBRANCH   4   2
ENDBRANCH   8   7
ENDBRANCH   9   8
ENDBRANCH  12  11
BRANCH  12  13
ATOM     13  C   UNL     1      -0.755  -0.201  24.688  0.00  0.00    +0.239 A 
ATOM     14  N   UNL     1      -0.900   0.519  25.064  0.00  0.00    -0.191 NA
ATOM     15  C   UNL     1      -0.506   1.110  24.643  0.00  0.00    +0.203 A 
ATOM     16  N   UNL     1      -0.118   0.755  24.008  0.00  0.00    -0.056 NA
ATOM     17  O   UNL     1      -0.272  -0.055  24.035  0.00  0.00    -0.337 OA
BRANCH  15  18
ATOM     18  C   UNL     1      -0.502   1.914  24.827  0.00  0.00    +0.039 A 
ATOM     19  C   UNL     1      -0.285   2.165  25.582  0.00  0.00    +0.006 A 
ATOM     20  C   UNL     1      -0.281   2.969  25.766  0.00  0.00    +0.037 A 
ATOM     21  C   UNL     1      -0.494   3.523  25.193  0.00  0.00    +0.147 A 
ATOM     27  C   UNL     1      -0.711   3.273  24.437  0.00  0.00    +0.037 A 
ATOM     28  C   UNL     1      -0.715   2.468  24.253  0.00  0.00    +0.006 A 
BRANCH  21  22
ATOM     22  O   UNL     1      -0.490   4.328  25.376  0.00  0.00    -0.404 OA
BRANCH  22  23
ATOM     23  C   UNL     1      -1.125   4.804  25.153  0.00  0.00    +0.575 C 
ATOM     24  F   UNL     1      -1.761   5.281  24.931  0.00  0.00    -0.133 F 
ATOM     25  F   UNL     1      -1.570   4.503  25.779  0.00  0.00    -0.133 F 
ATOM     26  F   UNL     1      -0.680   5.106  24.528  0.00  0.00    -0.133 F 
ENDBRANCH  22  23
ENDBRANCH  21  22
ENDBRANCH  15  18
ENDBRANCH  12  13
TORSDOF 8
ENDMDL
MODEL 5
REMARK VINA RESULT:     -10.4      1.456      3.435
REMARK  Name = 
REMARK  8 active torsions:
REMARK  status: ('A' for Active; 'I' for Inactive)
REMARK    1  A    between atoms: C_2  and  N_4
REMARK    2  A    between atoms: N_7  and  C_8
REMARK    3  A    between atoms: C_8  and  C_9
REMARK    4  A    between atoms: C_11  and  C_12
REMARK    5  A    between atoms: C_12  and  C_13
REMARK    6  A    between atoms: C_15  and  C_18
REMARK    7  A    between atoms: C_21  and  O_22
REMARK    8  A    between atoms: O_22  and  C_23
REMARK                            x       y       z     vdW  Elec       q    Type
REMARK                         _______ _______ _______ _____ _____    ______ ____
ROOT
ATOM     12  C   UNL     1      -3.263   3.108  25.288  0.00  0.00    +0.120 C 
ENDROOT
BRANCH  12  11
ATOM      9  C   UNL     1      -1.199   3.014  24.753  0.00  0.00    +0.170 C 
ATOM     10  O   UNL     1      -1.943   2.665  24.819  0.00  0.00    -0.351 OA
ATOM     11  C   UNL     1      -2.462   3.225  25.131  0.00  0.00    +0.157 C 
ATOM     29  C   UNL     1      -2.038   3.921  25.258  0.00  0.00    +0.212 C 
ATOM     30  O   UNL     1      -2.343   4.624  25.565  0.00  0.00    -0.218 OA
ATOM     31  C   UNL     1      -1.258   3.792  25.025  0.00  0.00    +0.213 C 
ATOM     32  O   UNL     1      -0.644   4.342  25.057  0.00  0.00    -0.218 OA
BRANCH   9   8
ATOM      8  C   UNL     1      -0.516   2.652  24.467  0.00  0.00    +0.149 C 
BRANCH   8   7
ATOM      4  N   UNL     1      -0.130   0.777  23.418  0.00  0.00    -0.189 NA
ATOM      5  C   UNL     1      -0.073   1.388  23.970  0.00  0.00    +0.339 C 
ATOM      6  O   UNL     1       0.483   1.344  24.577  0.00  0.00    -0.249 OA
ATOM      7  N   UNL     1      -0.573   2.041  23.915  0.00  0.00    -0.185 NA
BRANCH   4   2
ATOM      1  C   UNL     1       1.115   0.142  23.120  0.00  0.00    +0.023 C 
ATOM      2  C   UNL     1       0.369   0.123  23.473  0.00  0.00    +0.097 C 
ATOM      3  C   UNL     1       0.123  -0.551  23.880  0.00  0.00    +0.023 C 
ENDBRANCH   4   2
ENDBRANCH   8   7
ENDBRANCH   9   8
ENDBRANCH  12  11
BRANCH  12  13
ATOM     13  C   UNL     1      -3.655   2.457  24.965  0.00  0.00    +0.239 A 
ATOM     14  N   UNL     1      -3.472   1.664  25.101  0.00  0.00    -0.191 NA
ATOM     15  C   UNL     1      -4.003   1.202  24.670  0.00  0.00    +0.203 A 
ATOM     16  N   UNL     1      -4.514   1.709  24.268  0.00  0.00    -0.056 NA
ATOM     17  O   UNL     1      -4.300   2.485  24.450  0.00  0.00    -0.337 OA
BRANCH  15  18
ATOM     18  C   UNL     1      -4.019   0.378  24.646  0.00  0.00    +0.039 A 
ATOM     19  C   UNL     1      -3.986  -0.016  23.923  0.00  0.00    +0.006 A 
ATOM     20  C   UNL     1      -4.001  -0.840  23.899  0.00  0.00    +0.037 A 
ATOM     21  C   UNL     1      -4.050  -1.271  24.601  0.00  0.00    +0.147 A 
ATOM     27  C   UNL     1      -4.083  -0.878  25.325  0.00  0.00    +0.037 A 
ATOM     28  C   UNL     1      -4.067  -0.053  25.349  0.00  0.00    +0.006 A 
BRANCH  21  22
ATOM     22  O   UNL     1      -4.065  -2.096  24.578  0.00  0.00    -0.404 OA
BRANCH  22  23
ATOM     23  C   UNL     1      -3.385  -2.527  24.757  0.00  0.00    +0.575 C 
ATOM     24  F   UNL     1      -2.705  -2.957  24.936  0.00  0.00    -0.133 F 
ATOM     25  F   UNL     1      -3.132  -2.452  23.975  0.00  0.00    -0.133 F 
ATOM     26  F   UNL     1      -3.638  -2.601  25.539  0.00  0.00    -0.133 F 
ENDBRANCH  22  23
ENDBRANCH  21  22
ENDBRANCH  15  18
ENDBRANCH  12  13
TORSDOF 8
ENDMDL
