MODEL 1
REMARK VINA RESULT:     -15.9      0.000      0.000
REMARK  Name = 
REMARK  2 active torsions:
REMARK  status: ('A' for Active; 'I' for Inactive)
REMARK    1  A    between atoms: C_2  and  N_4
REMARK    2  A    between atoms: C_16  and  C_17
REMARK                            x       y       z     vdW  Elec       q    Type
REMARK                         _______ _______ _______ _____ _____    ______ ____
ROOT
ATOM      4  N   UNL     1      -3.025   0.678  24.482  0.00  0.00    -0.190 NA
ATOM      5  C   UNL     1      -2.586   1.348  24.282  0.00  0.00    +0.323 C 
ATOM      6  O   UNL     1      -1.794   1.272  24.064  0.00  0.00    -0.251 OA
ATOM      7  N   UNL     1      -2.939   2.094  24.301  0.00  0.00    -0.262 N 
ATOM      8  C   UNL     1      -3.012   2.923  24.230  0.00  0.00    +0.097 C 
ATOM      9  C   UNL     1      -3.960   3.028  24.489  0.00  0.00    +0.043 C 
ATOM     10  C   UNL     1      -4.711   3.280  24.677  0.00  0.00    +0.011 C 
ATOM     11  C   UNL     1      -4.361   2.673  24.643  0.00  0.00    +0.058 C 
ATOM     12  C   UNL     1      -3.444   2.588  24.391  0.00  0.00    +0.101 C 
ATOM     13  C   UNL     1      -4.470   1.770  24.774  0.00  0.00    +0.041 A 
ATOM     14  C   UNL     1      -5.042   1.220  24.998  0.00  0.00    +0.013 A 
ATOM     15  C   UNL     1      -4.852   0.418  25.032  0.00  0.00    +0.002 A 
ATOM     16  C   UNL     1      -4.089   0.166  24.842  0.00  0.00    +0.034 A 
ATOM     23  C   UNL     1      -3.517   0.716  24.618  0.00  0.00    +0.257 A 
ATOM     24  O   UNL     1      -3.030   0.054  24.552  0.00  0.00    -0.267 OA
ATOM     25  N   UNL     1      -3.707   1.518  24.584  0.00  0.00    -0.299 N 
ATOM     26  C   UNL     1      -4.064   2.083  24.624  0.00  0.00    +0.110 C 
ENDROOT
BRANCH  16  17
ATOM     17  C   UNL     1      -3.900  -0.636  24.877  0.00  0.00    +0.027 C 
ATOM     18  C   UNL     1      -4.015  -1.115  24.215  0.00  0.00    +0.005 C 
ATOM     19  C   UNL     1      -3.826  -1.917  24.248  0.00  0.00    +0.000 C 
ATOM     20  C   UNL     1      -3.521  -2.240  24.943  0.00  0.00    +0.000 C 
ATOM     21  C   UNL     1      -3.405  -1.762  25.605  0.00  0.00    +0.000 C 
ATOM     22  C   UNL     1      -3.595  -0.958  25.572  0.00  0.00    +0.005 C 
ENDBRANCH  16  17
BRANCH   4   2
ATOM      1  C   UNL     1      -1.968  -0.201  24.870  0.00  0.00    +0.023 C 
ATOM      2  C   UNL     1      -2.672  -0.067  24.463  0.00  0.00    +0.097 C 
ATOM      3  C   UNL     1      -2.599  -0.860  24.249  0.00  0.00    +0.023 C 
ENDBRANCH   4   2
TORSDOF 2
ENDMDL
MODEL 2
REMARK VINA RESULT:     -15.1      1.021      3.440
REMARK  Name = 
REMARK  2 active torsions:
REMARK  status: ('A' for Active; 'I' for Inactive)
REMARK    1  A    between atoms: C_2  and  N_4
REMARK    2  A    between atoms: C_16  and  C_17
REMARK                            x       y       z     vdW  Elec       q    Type
REMARK                         _______ _______ _______ _____ _____    ______ ____
ROOT
ATOM      4  N   UNL     1      -2.399  -0.079  24.483  0.00  0.00    -0.190 NA
ATOM      5  C   UNL     1      -1.836  -0.663  24.635  0.00  0.00    +0.323 C 
ATOM      6  O   UNL     1      -1.048  -0.454  24.761  0.00  0.00    -0.251 OA
ATOM      7  N   UNL     1      -2.061  -1.457  24.660  0.00  0.00    -0.262 N 
ATOM      8  C   UNL     1      -1.988  -2.285  24.742  0.00  0.00    +0.097 C 
ATOM      9  C   UNL     1      -2.929  -2.549  24.593  0.00  0.00    +0.043 C 
ATOM     10  C   UNL     1      -3.645  -2.925  24.493  0.00  0.00    +0.011 C 
ATOM     11  C   UNL     1      -3.398  -2.268  24.483  0.00  0.00    +0.058 C 
ATOM     12  C   UNL     1      -2.485  -2.028  24.630  0.00  0.00    +0.101 C 
ATOM     13  C   UNL     1      -3.668  -1.398  24.361  0.00  0.00    +0.041 A 
ATOM     14  C   UNL     1      -4.344  -0.954  24.200  0.00  0.00    +0.013 A 
ATOM     15  C   UNL     1      -4.293  -0.133  24.141  0.00  0.00    +0.002 A 
ATOM     16  C   UNL     1      -3.566   0.245  24.242  0.00  0.00    +0.034 A 
ATOM     23  C   UNL     1      -2.890  -0.200  24.403  0.00  0.00    +0.257 A 
ATOM     24  O   UNL     1      -2.514   0.534  24.410  0.00  0.00    -0.267 OA
ATOM     25  N   UNL     1      -2.941  -1.021  24.463  0.00  0.00    -0.299 N 
ATOM     26  C   UNL     1      -3.201  -1.637  24.466  0.00  0.00    +0.110 C 
ENDROOT
BRANCH  16  17
ATOM     17  C   UNL     1      -3.516   1.065  24.183  0.00  0.00    +0.027 C 
ATOM     18  C   UNL     1      -3.645   1.535  24.848  0.00  0.00    +0.005 C 
ATOM     19  C   UNL     1      -3.596   2.357  24.790  0.00  0.00    +0.000 C 
ATOM     20  C   UNL     1      -3.416   2.708  24.065  0.00  0.00    +0.000 C 
ATOM     21  C   UNL     1      -3.287   2.239  23.399  0.00  0.00    +0.000 C 
ATOM     22  C   UNL     1      -3.337   1.417  23.458  0.00  0.00    +0.005 C 
ENDBRANCH  16  17
BRANCH   4   2
ATOM      1  C   UNL     1      -1.762   1.047  25.090  0.00  0.00    +0.023 C 
ATOM      2  C   UNL     1      -2.173   0.714  24.458  0.00  0.00    +0.097 C 
ATOM      3  C   UNL     1      -2.108   1.469  24.130  0.00  0.00    +0.023 C 
ENDBRANCH   4   2
TORSDOF 2
ENDMDL
MODEL 3
REMARK VINA RESULT:     -14.7      1.349      2.348
REMARK  Name = 
REMARK  2 active torsions:
REMARK  status: ('A' for Active; 'I' for Inactive)
REMARK    1  A    between atoms: C_2  and  N_4
REMARK    2  A    between atoms: C_16  and  C_17
REMARK                            x       y       z     vdW  Elec       q    Type
REMARK                         _______ _______ _______ _____ _____    ______ ____
ROOT
ATOM      4  N   UNL     1      -3.803   2.054  25.125  0.00  0.00    -0.190 NA
ATOM      5  C   UNL     1      -4.043   2.809  25.357  0.00  0.00    +0.323 C 
ATOM      6  O   UNL     1      -4.842   2.966  25.488  0.00  0.00    -0.251 OA
ATOM      7  N   UNL     1      -3.483   3.408  25.457  0.00  0.00    -0.262 N 
ATOM      8  C   UNL     1      -3.174   4.165  25.628  0.00  0.00    +0.097 C 
ATOM      9  C   UNL     1      -2.214   3.990  25.474  0.00  0.00    +0.043 C 
ATOM     10  C   UNL     1      -1.404   4.010  25.390  0.00  0.00    +0.011 C 
ATOM     11  C   UNL     1      -1.922   3.541  25.320  0.00  0.00    +0.058 C 
ATOM     12  C   UNL     1      -2.846   3.725  25.472  0.00  0.00    +0.101 C 
ATOM     13  C   UNL     1      -2.073   2.662  25.099  0.00  0.00    +0.041 A 
ATOM     14  C   UNL     1      -1.669   1.981  24.869  0.00  0.00    +0.013 A 
ATOM     15  C   UNL     1      -2.085   1.283  24.726  0.00  0.00    +0.002 A 
ATOM     16  C   UNL     1      -2.905   1.267  24.813  0.00  0.00    +0.034 A 
ATOM     23  C   UNL     1      -3.310   1.948  25.042  0.00  0.00    +0.257 A 
ATOM     24  O   UNL     1      -3.977   1.467  24.985  0.00  0.00    -0.267 OA
ATOM     25  N   UNL     1      -2.893   2.646  25.185  0.00  0.00    -0.299 N 
ATOM     26  C   UNL     1      -2.382   3.073  25.244  0.00  0.00    +0.110 C 
ENDROOT
BRANCH  16  17
ATOM     17  C   UNL     1      -3.321   0.569  24.669  0.00  0.00    +0.027 C 
ATOM     18  C   UNL     1      -3.460   0.038  25.286  0.00  0.00    +0.005 C 
ATOM     19  C   UNL     1      -3.875  -0.660  25.144  0.00  0.00    +0.000 C 
ATOM     20  C   UNL     1      -4.152  -0.828  24.385  0.00  0.00    +0.000 C 
ATOM     21  C   UNL     1      -4.013  -0.298  23.768  0.00  0.00    +0.000 C 
ATOM     22  C   UNL     1      -3.597   0.401  23.911  0.00  0.00    +0.005 C 
ENDBRANCH  16  17
BRANCH   4   2
ATOM      1  C   UNL     1      -5.049   1.601  24.591  0.00  0.00    +0.023 C 
ATOM      2  C   UNL     1      -4.363   1.457  25.025  0.00  0.00    +0.097 C 
ATOM      3  C   UNL     1      -4.683   0.702  25.116  0.00  0.00    +0.023 C 
ENDBRANCH   4   2
TORSDOF 2
ENDMDL
MODEL 4
REMARK VINA RESULT:     -14.4      1.717      3.429
REMARK  Name = 
REMARK  2 active torsions:
REMARK  status: ('A' for Active; 'I' for Inactive)
REMARK    1  A    between atoms: C_2  and  N_4
REMARK    2  A    between atoms: C_16  and  C_17
REMARK                            x       y       z     vdW  Elec       q    Type
REMARK                         _______ _______ _______ _____ _____    ______ ____
ROOT
ATOM      4  N   UNL     1      -3.041   2.259  24.759  0.00  0.00    -0.190 NA
ATOM      5  C   UNL     1      -3.376   1.555  24.488  0.00  0.00    +0.323 C 
ATOM      6  O   UNL     1      -2.909   1.000  24.096  0.00  0.00    -0.251 OA
ATOM      7  N   UNL     1      -4.179   1.407  24.610  0.00  0.00    -0.262 N 
ATOM      8  C   UNL     1      -4.908   1.001  24.585  0.00  0.00    +0.097 C 
ATOM      9  C   UNL     1      -5.479   1.657  25.053  0.00  0.00    +0.043 C 
ATOM     10  C   UNL     1      -6.073   2.084  25.412  0.00  0.00    +0.011 C 
ATOM     11  C   UNL     1      -5.387   2.158  25.281  0.00  0.00    +0.058 C 
ATOM     12  C   UNL     1      -4.848   1.513  24.827  0.00  0.00    +0.101 C 
ATOM     13  C   UNL     1      -4.688   2.742  25.404  0.00  0.00    +0.041 A 
ATOM     14  C   UNL     1      -4.521   3.480  25.732  0.00  0.00    +0.013 A 
ATOM     15  C   UNL     1      -3.754   3.782  25.696  0.00  0.00    +0.002 A 
ATOM     16  C   UNL     1      -3.155   3.347  25.332  0.00  0.00    +0.034 A 
ATOM     23  C   UNL     1      -3.323   2.609  25.003  0.00  0.00    +0.257 A 
ATOM     24  O   UNL     1      -2.522   2.610  24.808  0.00  0.00    -0.267 OA
ATOM     25  N   UNL     1      -4.090   2.307  25.039  0.00  0.00    -0.299 N 
ATOM     26  C   UNL     1      -4.743   2.262  25.176  0.00  0.00    +0.110 C 
ENDROOT
BRANCH  16  17
ATOM     17  C   UNL     1      -2.389   3.650  25.297  0.00  0.00    +0.027 C 
ATOM     18  C   UNL     1      -2.175   4.158  24.682  0.00  0.00    +0.005 C 
ATOM     19  C   UNL     1      -1.408   4.461  24.646  0.00  0.00    +0.000 C 
ATOM     20  C   UNL     1      -0.857   4.257  25.224  0.00  0.00    +0.000 C 
ATOM     21  C   UNL     1      -1.070   3.749  25.839  0.00  0.00    +0.000 C 
ATOM     22  C   UNL     1      -1.837   3.446  25.875  0.00  0.00    +0.005 C 
ENDBRANCH  16  17
BRANCH   4   2
ATOM      1  C   UNL     1      -1.922   2.369  23.877  0.00  0.00    +0.023 C 
ATOM      2  C   UNL     1      -2.239   2.407  24.637  0.00  0.00    +0.097 C 
ATOM      3  C   UNL     1      -1.466   2.595  24.856  0.00  0.00    +0.023 C 
ENDBRANCH   4   2
TORSDOF 2
ENDMDL
