MODEL 1
REMARK VINA RESULT:     -10.1      0.000      0.000
REMARK  Name = 
REMARK  5 active torsions:
REMARK  status: ('A' for Active; 'I' for Inactive)
REMARK    1  A    between atoms: C_4  and  C_13
REMARK    2  A    between atoms: C_6  and  C_8
REMARK    3  A    between atoms: C_20  and  C_21
REMARK    4  A    between atoms: C_21  and  N_22
REMARK    5  A    between atoms: C_23  and  C_25
REMARK                            x       y       z     vdW  Elec       q    Type
REMARK                         _______ _______ _______ _____ _____    ______ ____
ROOT
ATOM     13  C   UNL     1      -0.953  -0.073  24.981  0.00  0.00    +0.056 C 
ATOM     14  C   UNL     1      -1.127   0.306  25.637  0.00  0.00    +0.078 C 
ATOM     15  N   UNL     1      -0.682   0.600  25.008  0.00  0.00    -0.272 NA
ATOM     16  C   UNL     1      -0.633  -0.156  24.283  0.00  0.00    +0.072 C 
ATOM     17  C   UNL     1      -0.428  -0.373  23.702  0.00  0.00    +0.018 C 
ATOM     18  C   UNL     1      -0.515   0.222  24.367  0.00  0.00    +0.010 C 
ATOM     19  C   UNL     1      -0.123   0.998  24.244  0.00  0.00    +0.018 C 
ATOM     20  C   UNL     1      -0.272   1.404  24.873  0.00  0.00    +0.079 C 
ENDROOT
BRANCH  13   4
ATOM      1  C   UNL     1      -0.542  -2.897  25.149  0.00  0.00    +0.074 C 
ATOM      2  C   UNL     1      -1.034  -2.255  24.987  0.00  0.00    +0.139 A 
ATOM      3  N   UNL     1      -0.748  -1.486  25.065  0.00  0.00    -0.235 NA
ATOM      4  C   UNL     1      -1.240  -0.844  24.902  0.00  0.00    +0.063 A 
ATOM      5  C   UNL     1      -2.018  -0.971  24.662  0.00  0.00    +0.037 A 
ATOM      6  C   UNL     1      -2.305  -1.741  24.583  0.00  0.00    +0.118 A 
ATOM      7  N   UNL     1      -1.813  -2.383  24.746  0.00  0.00    -0.228 NA
BRANCH   6   8
ATOM      8  C   UNL     1      -3.083  -1.870  24.343  0.00  0.00    +0.163 A 
ATOM      9  C   UNL     1      -3.468  -2.599  24.315  0.00  0.00    +0.042 A 
ATOM     10  C   UNL     1      -4.236  -2.473  24.043  0.00  0.00    +0.044 A 
ATOM     11  C   UNL     1      -4.327  -1.665  23.902  0.00  0.00    +0.180 A 
ATOM     12  O   UNL     1      -3.614  -1.292  24.087  0.00  0.00    -0.449 OA
ENDBRANCH   6   8
ENDBRANCH  13   4
BRANCH  20  21
ATOM     21  C   UNL     1      -0.139   2.138  25.224  0.00  0.00    +0.131 C 
BRANCH  21  22
ATOM     22  N   UNL     1      -0.649   2.768  25.070  0.00  0.00    -0.200 NA
ATOM     23  C   UNL     1      -0.572   3.473  25.491  0.00  0.00    +0.271 C 
ATOM     24  O   UNL     1       0.014   3.549  26.066  0.00  0.00    -0.268 OA
BRANCH  23  25
ATOM     25  C   UNL     1      -1.083   4.103  25.337  0.00  0.00    +0.084 A 
ATOM     26  C   UNL     1      -0.883   4.808  24.959  0.00  0.00    +0.012 A 
ATOM     27  C   UNL     1      -1.559   5.279  24.922  0.00  0.00    +0.008 A 
ATOM     28  C   UNL     1      -2.178   4.865  25.277  0.00  0.00    +0.036 A 
ATOM     29  S   UNL     1      -1.883   4.138  25.533  0.00  0.00    -0.082 S 
ENDBRANCH  23  25
ENDBRANCH  21  22
ENDBRANCH  20  21
TORSDOF 5
ENDMDL
MODEL 2
REMARK VINA RESULT:     -10.1      2.035      5.630
REMARK  Name = 
REMARK  5 active torsions:
REMARK  status: ('A' for Active; 'I' for Inactive)
REMARK    1  A    between atoms: C_4  and  C_13
REMARK    2  A    between atoms: C_6  and  C_8
REMARK    3  A    between atoms: C_20  and  C_21
REMARK    4  A    between atoms: C_21  and  N_22
REMARK    5  A    between atoms: C_23  and  C_25
REMARK                            x       y       z     vdW  Elec       q    Type
REMARK                         _______ _______ _______ _____ _____    ______ ____
ROOT
ATOM     13  C   UNL     1      -1.925   1.775  24.879  0.00  0.00    +0.056 C 
ATOM     14  C   UNL     1      -2.562   1.601  25.290  0.00  0.00    +0.078 C 
ATOM     15  N   UNL     1      -2.344   1.272  24.565  0.00  0.00    -0.272 NA
ATOM     16  C   UNL     1      -1.440   1.719  24.281  0.00  0.00    +0.072 C 
ATOM     17  C   UNL     1      -0.947   1.784  23.857  0.00  0.00    +0.018 C 
ATOM     18  C   UNL     1      -1.718   1.448  24.168  0.00  0.00    +0.010 C 
ATOM     19  C   UNL     1      -2.105   0.842  23.664  0.00  0.00    +0.018 C 
ATOM     20  C   UNL     1      -2.741   0.642  24.037  0.00  0.00    +0.079 C 
ENDROOT
BRANCH  13   4
ATOM      1  C   UNL     1       0.334   2.448  26.497  0.00  0.00    +0.074 C 
ATOM      2  C   UNL     1      -0.286   2.679  26.004  0.00  0.00    +0.139 A 
ATOM      3  N   UNL     1      -0.795   2.112  25.688  0.00  0.00    -0.235 NA
ATOM      4  C   UNL     1      -1.415   2.343  25.195  0.00  0.00    +0.063 A 
ATOM      5  C   UNL     1      -1.526   3.141  25.017  0.00  0.00    +0.037 A 
ATOM      6  C   UNL     1      -1.016   3.708  25.333  0.00  0.00    +0.118 A 
ATOM      7  N   UNL     1      -0.396   3.478  25.826  0.00  0.00    -0.228 NA
BRANCH   6   8
ATOM      8  C   UNL     1      -1.127   4.506  25.156  0.00  0.00    +0.163 A 
ATOM      9  C   UNL     1      -1.785   4.961  25.356  0.00  0.00    +0.042 A 
ATOM     10  C   UNL     1      -1.664   5.725  25.072  0.00  0.00    +0.044 A 
ATOM     11  C   UNL     1      -0.930   5.744  24.695  0.00  0.00    +0.180 A 
ATOM     12  O   UNL     1      -0.598   4.990  24.747  0.00  0.00    -0.449 OA
ENDBRANCH   6   8
ENDBRANCH  13   4
BRANCH  20  21
ATOM     21  C   UNL     1      -3.399   0.148  23.989  0.00  0.00    +0.131 C 
BRANCH  21  22
ATOM     22  N   UNL     1      -3.309  -0.668  24.065  0.00  0.00    -0.200 NA
ATOM     23  C   UNL     1      -3.972  -1.148  24.172  0.00  0.00    +0.271 C 
ATOM     24  O   UNL     1      -4.724  -0.812  24.203  0.00  0.00    -0.268 OA
BRANCH  23  25
ATOM     25  C   UNL     1      -3.881  -1.964  24.248  0.00  0.00    +0.084 A 
ATOM     26  C   UNL     1      -4.182  -2.536  23.735  0.00  0.00    +0.012 A 
ATOM     27  C   UNL     1      -3.961  -3.277  24.020  0.00  0.00    +0.008 A 
ATOM     28  C   UNL     1      -3.524  -3.164  24.711  0.00  0.00    +0.036 A 
ATOM     29  S   UNL     1      -3.474  -2.353  24.851  0.00  0.00    -0.082 S 
ENDBRANCH  23  25
ENDBRANCH  21  22
ENDBRANCH  20  21
TORSDOF 5
ENDMDL
MODEL 3
REMARK VINA RESULT:     -10.1      2.011      2.923
REMARK  Name = 
REMARK  5 active torsions:
REMARK  status: ('A' for Active; 'I' for Inactive)
REMARK    1  A    between atoms: C_4  and  C_13
REMARK    2  A    between atoms: C_6  and  C_8
REMARK    3  A    between atoms: C_20  and  C_21
REMARK    4  A    between atoms: C_21  and  N_22
REMARK    5  A    between atoms: C_23  and  C_25
REMARK                            x       y       z     vdW  Elec       q    Type
REMARK                         _______ _______ _______ _____ _____    ______ ____
ROOT
ATOM     13  C   UNL     1      -3.636   0.320  24.372  0.00  0.00    +0.056 C 
ATOM     14  C   UNL     1      -3.256   0.768  23.862  0.00  0.00    +0.078 C 
ATOM     15  N   UNL     1      -3.755   1.032  24.465  0.00  0.00    -0.272 NA
ATOM     16  C   UNL     1      -4.106   0.182  24.969  0.00  0.00    +0.072 C 
ATOM     17  C   UNL     1      -4.466  -0.089  25.441  0.00  0.00    +0.018 C 
ATOM     18  C   UNL     1      -4.124   0.586  24.961  0.00  0.00    +0.010 C 
ATOM     19  C   UNL     1      -4.368   1.394  25.203  0.00  0.00    +0.018 C 
ATOM     20  C   UNL     1      -4.012   1.868  24.722  0.00  0.00    +0.079 C 
ENDROOT
BRANCH  13   4
ATOM      1  C   UNL     1      -4.664  -2.256  23.681  0.00  0.00    +0.074 C 
ATOM      2  C   UNL     1      -4.048  -1.784  23.962  0.00  0.00    +0.139 A 
ATOM      3  N   UNL     1      -4.150  -0.968  24.026  0.00  0.00    -0.235 NA
ATOM      4  C   UNL     1      -3.534  -0.497  24.307  0.00  0.00    +0.063 A 
ATOM      5  C   UNL     1      -2.817  -0.841  24.524  0.00  0.00    +0.037 A 
ATOM      6  C   UNL     1      -2.715  -1.656  24.459  0.00  0.00    +0.118 A 
ATOM      7  N   UNL     1      -3.330  -2.129  24.178  0.00  0.00    -0.228 NA
BRANCH   6   8
ATOM      8  C   UNL     1      -1.997  -2.001  24.675  0.00  0.00    +0.163 A 
ATOM      9  C   UNL     1      -1.578  -2.562  24.239  0.00  0.00    +0.042 A 
ATOM     10  C   UNL     1      -0.895  -2.754  24.658  0.00  0.00    +0.044 A 
ATOM     11  C   UNL     1      -0.891  -2.312  25.355  0.00  0.00    +0.180 A 
ATOM     12  O   UNL     1      -1.573  -1.847  25.366  0.00  0.00    -0.449 OA
ENDBRANCH   6   8
ENDBRANCH  13   4
BRANCH  20  21
ATOM     21  C   UNL     1      -3.917   2.667  24.542  0.00  0.00    +0.131 C 
BRANCH  21  22
ATOM     22  N   UNL     1      -3.236   3.067  24.781  0.00  0.00    -0.200 NA
ATOM     23  C   UNL     1      -3.144   3.867  24.603  0.00  0.00    +0.271 C 
ATOM     24  O   UNL     1      -3.732   4.268  24.186  0.00  0.00    -0.268 OA
BRANCH  23  25
ATOM     25  C   UNL     1      -2.464   4.266  24.843  0.00  0.00    +0.084 A 
ATOM     26  C   UNL     1      -2.440   4.981  25.254  0.00  0.00    +0.012 A 
ATOM     27  C   UNL     1      -1.649   5.178  25.379  0.00  0.00    +0.008 A 
ATOM     28  C   UNL     1      -1.183   4.585  25.044  0.00  0.00    +0.036 A 
ATOM     29  S   UNL     1      -1.687   4.021  24.713  0.00  0.00    -0.082 S 
ENDBRANCH  23  25
ENDBRANCH  21  22
ENDBRANCH  20  21
TORSDOF 5
ENDMDL
MODEL 4
REMARK VINA RESULT:      -9.8      2.198      3.065
REMARK  Name = 
REMARK  5 active torsions:
REMARK  status: ('A' for Active; 'I' for Inactive)
REMARK    1  A    between atoms: C_4  and  C_13
REMARK    2  A    between atoms: C_6  and  C_8
REMARK    3  A    between atoms: C_20  and  C_21
REMARK    4  A    between atoms: C_21  and  N_22
REMARK    5  A    between atoms: C_23  and  C_25
REMARK                            x       y       z     vdW  Elec       q    Type
REMARK                         _______ _______ _______ _____ _____    ______ ____
ROOT
ATOM     13  C   UNL     1      -1.222   1.383  24.253  0.00  0.00    +0.056 C 
ATOM     14  C   UNL     1      -1.869   1.459  23.827  0.00  0.00    +0.078 C 
ATOM     15  N   UNL     1      -1.608   1.978  24.414  0.00  0.00    -0.272 NA
ATOM     16  C   UNL     1      -0.710   1.591  24.792  0.00  0.00    +0.072 C 
ATOM     17  C   UNL     1      -0.202   1.630  25.201  0.00  0.00    +0.018 C 
ATOM     18  C   UNL     1      -0.973   1.896  24.827  0.00  0.00    +0.010 C 
ATOM     19  C   UNL     1      -1.314   2.643  25.138  0.00  0.00    +0.018 C 
ATOM     20  C   UNL     1      -1.957   2.755  24.742  0.00  0.00    +0.079 C 
ENDROOT
BRANCH  13   4
ATOM      1  C   UNL     1       1.050   0.198  22.986  0.00  0.00    +0.074 C 
ATOM      2  C   UNL     1       0.387   0.130  23.473  0.00  0.00    +0.139 A 
ATOM      3  N   UNL     1      -0.086   0.790  23.619  0.00  0.00    -0.235 NA
ATOM      4  C   UNL     1      -0.749   0.722  24.106  0.00  0.00    +0.063 A 
ATOM      5  C   UNL     1      -0.939  -0.004  24.446  0.00  0.00    +0.037 A 
ATOM      6  C   UNL     1      -0.466  -0.664  24.299  0.00  0.00    +0.118 A 
ATOM      7  N   UNL     1       0.196  -0.597  23.813  0.00  0.00    -0.228 NA
BRANCH   6   8
ATOM      8  C   UNL     1      -0.656  -1.391  24.639  0.00  0.00    +0.163 A 
ATOM      9  C   UNL     1      -1.242  -1.911  24.378  0.00  0.00    +0.042 A 
ATOM     10  C   UNL     1      -1.241  -2.568  24.876  0.00  0.00    +0.044 A 
ATOM     11  C   UNL     1      -0.655  -2.455  25.446  0.00  0.00    +0.180 A 
ATOM     12  O   UNL     1      -0.294  -1.728  25.299  0.00  0.00    -0.449 OA
ENDBRANCH   6   8
ENDBRANCH  13   4
BRANCH  20  21
ATOM     21  C   UNL     1      -2.593   3.273  24.659  0.00  0.00    +0.131 C 
BRANCH  21  22
ATOM     22  N   UNL     1      -3.330   3.076  24.973  0.00  0.00    -0.200 NA
ATOM     23  C   UNL     1      -3.994   3.524  24.776  0.00  0.00    +0.271 C 
ATOM     24  O   UNL     1      -3.922   4.168  24.267  0.00  0.00    -0.268 OA
BRANCH  23  25
ATOM     25  C   UNL     1      -4.732   3.327  25.090  0.00  0.00    +0.084 A 
ATOM     26  C   UNL     1      -5.142   2.623  24.960  0.00  0.00    +0.012 A 
ATOM     27  C   UNL     1      -5.852   2.660  25.379  0.00  0.00    +0.008 A 
ATOM     28  C   UNL     1      -5.880   3.387  25.768  0.00  0.00    +0.036 A 
ATOM     29  S   UNL     1      -5.188   3.799  25.590  0.00  0.00    -0.082 S 
ENDBRANCH  23  25
ENDBRANCH  21  22
ENDBRANCH  20  21
TORSDOF 5
ENDMDL
MODEL 5
REMARK VINA RESULT:      -9.8      2.466      5.910
REMARK  Name = 
REMARK  5 active torsions:
REMARK  status: ('A' for Active; 'I' for Inactive)
REMARK    1  A    between atoms: C_4  and  C_13
REMARK    2  A    between atoms: C_6  and  C_8
REMARK    3  A    between atoms: C_20  and  C_21
REMARK    4  A    between atoms: C_21  and  N_22
REMARK    5  A    between atoms: C_23  and  C_25
REMARK                            x       y       z     vdW  Elec       q    Type
REMARK                         _______ _______ _______ _____ _____    ______ ____
ROOT
ATOM     13  C   UNL     1      -3.742   1.833  24.866  0.00  0.00    +0.056 C 
ATOM     14  C   UNL     1      -3.657   1.335  25.458  0.00  0.00    +0.078 C 
ATOM     15  N   UNL     1      -3.784   1.135  24.667  0.00  0.00    -0.272 NA
ATOM     16  C   UNL     1      -3.854   2.032  24.129  0.00  0.00    +0.072 C 
ATOM     17  C   UNL     1      -3.937   2.351  23.565  0.00  0.00    +0.018 C 
ATOM     18  C   UNL     1      -3.866   1.630  24.093  0.00  0.00    +0.010 C 
ATOM     19  C   UNL     1      -3.941   0.851  23.694  0.00  0.00    +0.018 C 
ATOM     20  C   UNL     1      -3.863   0.330  24.246  0.00  0.00    +0.079 C 
ENDROOT
BRANCH  13   4
ATOM      1  C   UNL     1      -5.035   4.276  25.594  0.00  0.00    +0.074 C 
ATOM      2  C   UNL     1      -4.348   3.860  25.406  0.00  0.00    +0.139 A 
ATOM      3  N   UNL     1      -4.388   3.055  25.231  0.00  0.00    -0.235 NA
ATOM      4  C   UNL     1      -3.701   2.639  25.043  0.00  0.00    +0.063 A 
ATOM      5  C   UNL     1      -2.974   3.027  25.031  0.00  0.00    +0.037 A 
ATOM      6  C   UNL     1      -2.933   3.832  25.206  0.00  0.00    +0.118 A 
ATOM      7  N   UNL     1      -3.620   4.249  25.394  0.00  0.00    -0.228 NA
BRANCH   6   8
ATOM      8  C   UNL     1      -2.206   4.221  25.195  0.00  0.00    +0.163 A 
ATOM      9  C   UNL     1      -2.086   5.021  25.028  0.00  0.00    +0.042 A 
ATOM     10  C   UNL     1      -1.278   5.174  25.077  0.00  0.00    +0.044 A 
ATOM     11  C   UNL     1      -0.896   4.469  25.275  0.00  0.00    +0.180 A 
ATOM     12  O   UNL     1      -1.470   3.880  25.347  0.00  0.00    -0.449 OA
ENDBRANCH   6   8
ENDBRANCH  13   4
BRANCH  20  21
ATOM     21  C   UNL     1      -3.855  -0.483  24.381  0.00  0.00    +0.131 C 
BRANCH  21  22
ATOM     22  N   UNL     1      -3.143  -0.899  24.358  0.00  0.00    -0.200 NA
ATOM     23  C   UNL     1      -3.121  -1.691  24.589  0.00  0.00    +0.271 C 
ATOM     24  O   UNL     1      -3.810  -2.067  24.841  0.00  0.00    -0.268 OA
BRANCH  23  25
ATOM     25  C   UNL     1      -2.408  -2.107  24.566  0.00  0.00    +0.084 A 
ATOM     26  C   UNL     1      -2.263  -2.797  24.140  0.00  0.00    +0.012 A 
ATOM     27  C   UNL     1      -1.481  -3.022  24.276  0.00  0.00    +0.008 A 
ATOM     28  C   UNL     1      -1.143  -2.470  24.787  0.00  0.00    +0.036 A 
ATOM     29  S   UNL     1      -1.716  -1.904  24.966  0.00  0.00    -0.082 S 
ENDBRANCH  23  25
ENDBRANCH  21  22
ENDBRANCH  20  21
TORSDOF 5
ENDMDL
MODEL 6
REMARK VINA RESULT:      -9.8      1.919      5.305
REMARK  Name = 
REMARK  5 active torsions:
REMARK  status: ('A' for Active; 'I' for Inactive)
REMARK    1  A    between atoms: C_4  and  C_13
REMARK    2  A    between atoms: C_6  and  C_8
REMARK    3  A    between atoms: C_20  and  C_21
REMARK    4  A    between atoms: C_21  and  N_22
REMARK    5  A    between atoms: C_23  and  C_25
REMARK                            x       y       z     vdW  Elec       q    Type
REMARK                         _______ _______ _______ _____ _____    ______ ____
ROOT
ATOM     13  C   UNL     1      -1.372   1.583  24.851  0.00  0.00    +0.056 C 
ATOM     14  C   UNL     1      -1.724   1.237  24.250  0.00  0.00    +0.078 C 
ATOM     15  N   UNL     1      -1.272   0.864  24.832  0.00  0.00    -0.272 NA
ATOM     16  C   UNL     1      -0.942   1.608  25.492  0.00  0.00    +0.072 C 
ATOM     17  C   UNL     1      -0.610   1.788  26.025  0.00  0.00    +0.018 C 
ATOM     18  C   UNL     1      -0.930   1.211  25.418  0.00  0.00    +0.010 C 
ATOM     19  C   UNL     1      -0.718   0.368  25.538  0.00  0.00    +0.018 C 
ATOM     20  C   UNL     1      -1.048  -0.011  24.963  0.00  0.00    +0.079 C 
ENDROOT
BRANCH  13   4
ATOM      1  C   UNL     1      -0.310   4.215  24.507  0.00  0.00    +0.074 C 
ATOM      2  C   UNL     1      -0.924   3.718  24.744  0.00  0.00    +0.139 A 
ATOM      3  N   UNL     1      -0.841   2.900  24.679  0.00  0.00    -0.235 NA
ATOM      4  C   UNL     1      -1.455   2.403  24.916  0.00  0.00    +0.063 A 
ATOM      5  C   UNL     1      -2.152   2.723  25.219  0.00  0.00    +0.037 A 
ATOM      6  C   UNL     1      -2.235   3.541  25.284  0.00  0.00    +0.118 A 
ATOM      7  N   UNL     1      -1.622   4.039  25.047  0.00  0.00    -0.228 NA
BRANCH   6   8
ATOM      8  C   UNL     1      -2.932   3.862  25.586  0.00  0.00    +0.163 A 
ATOM      9  C   UNL     1      -3.020   4.224  26.323  0.00  0.00    +0.042 A 
ATOM     10  C   UNL     1      -3.805   4.464  26.398  0.00  0.00    +0.044 A 
ATOM     11  C   UNL     1      -4.204   4.251  25.708  0.00  0.00    +0.180 A 
ATOM     12  O   UNL     1      -3.665   3.879  25.206  0.00  0.00    -0.449 OA
ENDBRANCH   6   8
ENDBRANCH  13   4
BRANCH  20  21
ATOM     21  C   UNL     1      -1.144  -0.766  24.646  0.00  0.00    +0.131 C 
BRANCH  21  22
ATOM     22  N   UNL     1      -1.887  -1.124  24.648  0.00  0.00    -0.200 NA
ATOM     23  C   UNL     1      -1.970  -1.903  24.392  0.00  0.00    +0.271 C 
ATOM     24  O   UNL     1      -1.310  -2.325  24.133  0.00  0.00    -0.268 OA
BRANCH  23  25
ATOM     25  C   UNL     1      -2.714  -2.260  24.394  0.00  0.00    +0.084 A 
ATOM     26  C   UNL     1      -3.412  -1.931  24.103  0.00  0.00    +0.012 A 
ATOM     27  C   UNL     1      -4.019  -2.477  24.217  0.00  0.00    +0.008 A 
ATOM     28  C   UNL     1      -3.697  -3.145  24.578  0.00  0.00    +0.036 A 
ATOM     29  S   UNL     1      -2.890  -3.011  24.687  0.00  0.00    -0.082 S 
ENDBRANCH  23  25
ENDBRANCH  21  22
ENDBRANCH  20  21
TORSDOF 5
ENDMDL
MODEL 7
REMARK VINA RESULT:      -9.6      2.921      4.577
REMARK  Name = 
REMARK  5 active torsions:
REMARK  status: ('A' for Active; 'I' for Inactive)
REMARK    1  A    between atoms: C_4  and  C_13
REMARK    2  A    between atoms: C_6  and  C_8
REMARK    3  A    between atoms: C_20  and  C_21
REMARK    4  A    between atoms: C_21  and  N_22
REMARK    5  A    between atoms: C_23  and  C_25
REMARK                            x       y       z     vdW  Elec       q    Type
REMARK                         _______ _______ _______ _____ _____    ______ ____
ROOT
ATOM     13  C   UNL     1      -1.320   1.777  24.262  0.00  0.00    +0.056 C 
ATOM     14  C   UNL     1      -1.247   1.757  23.488  0.00  0.00    +0.078 C 
ATOM     15  N   UNL     1      -0.785   1.341  24.032  0.00  0.00    -0.272 NA
ATOM     16  C   UNL     1      -1.139   1.586  24.988  0.00  0.00    +0.072 C 
ATOM     17  C   UNL     1      -1.107   1.525  25.638  0.00  0.00    +0.018 C 
ATOM     18  C   UNL     1      -0.863   1.366  24.790  0.00  0.00    +0.010 C 
ATOM     19  C   UNL     1      -0.193   0.810  24.679  0.00  0.00    +0.018 C 
ATOM     20  C   UNL     1      -0.088   0.763  23.924  0.00  0.00    +0.079 C 
ENDROOT
BRANCH  13   4
ATOM      1  C   UNL     1      -2.135   4.238  25.466  0.00  0.00    +0.074 C 
ATOM      2  C   UNL     1      -2.321   3.489  25.175  0.00  0.00    +0.139 A 
ATOM      3  N   UNL     1      -1.728   3.008  24.864  0.00  0.00    -0.235 NA
ATOM      4  C   UNL     1      -1.914   2.258  24.574  0.00  0.00    +0.063 A 
ATOM      5  C   UNL     1      -2.693   1.990  24.594  0.00  0.00    +0.037 A 
ATOM      6  C   UNL     1      -3.287   2.471  24.905  0.00  0.00    +0.118 A 
ATOM      7  N   UNL     1      -3.101   3.220  25.196  0.00  0.00    -0.228 NA
BRANCH   6   8
ATOM      8  C   UNL     1      -4.067   2.203  24.925  0.00  0.00    +0.163 A 
ATOM      9  C   UNL     1      -4.686   2.477  24.454  0.00  0.00    +0.042 A 
ATOM     10  C   UNL     1      -5.367   2.058  24.657  0.00  0.00    +0.044 A 
ATOM     11  C   UNL     1      -5.169   1.526  25.255  0.00  0.00    +0.180 A 
ATOM     12  O   UNL     1      -4.366   1.615  25.421  0.00  0.00    -0.449 OA
ENDBRANCH   6   8
ENDBRANCH  13   4
BRANCH  20  21
ATOM     21  C   UNL     1       0.380   0.401  23.350  0.00  0.00    +0.131 C 
BRANCH  21  22
ATOM     22  N   UNL     1       1.199   0.505  23.359  0.00  0.00    -0.200 NA
ATOM     23  C   UNL     1       1.661   0.183  22.757  0.00  0.00    +0.271 C 
ATOM     24  O   UNL     1       1.306  -0.243  22.146  0.00  0.00    -0.268 OA
BRANCH  23  25
ATOM     25  C   UNL     1       2.480   0.287  22.765  0.00  0.00    +0.084 A 
ATOM     26  C   UNL     1       2.877   1.010  22.782  0.00  0.00    +0.012 A 
ATOM     27  C   UNL     1       3.687   0.857  22.786  0.00  0.00    +0.008 A 
ATOM     28  C   UNL     1       3.791   0.038  22.772  0.00  0.00    +0.036 A 
ATOM     29  S   UNL     1       3.045  -0.313  22.759  0.00  0.00    -0.082 S 
ENDBRANCH  23  25
ENDBRANCH  21  22
ENDBRANCH  20  21
TORSDOF 5
ENDMDL
MODEL 8
REMARK VINA RESULT:      -9.5      2.678      3.862
REMARK  Name = 
REMARK  5 active torsions:
REMARK  status: ('A' for Active; 'I' for Inactive)
REMARK    1  A    between atoms: C_4  and  C_13
REMARK    2  A    between atoms: C_6  and  C_8
REMARK    3  A    between atoms: C_20  and  C_21
REMARK    4  A    between atoms: C_21  and  N_22
REMARK    5  A    between atoms: C_23  and  C_25
REMARK                            x       y       z     vdW  Elec       q    Type
REMARK                         _______ _______ _______ _____ _____    ______ ____
ROOT
ATOM     13  C   UNL     1      -2.246   0.518  24.421  0.00  0.00    +0.056 C 
ATOM     14  C   UNL     1      -2.016   0.970  23.831  0.00  0.00    +0.078 C 
ATOM     15  N   UNL     1      -1.534   0.663  24.427  0.00  0.00    -0.272 NA
ATOM     16  C   UNL     1      -2.149   0.100  25.063  0.00  0.00    +0.072 C 
ATOM     17  C   UNL     1      -2.226  -0.278  25.590  0.00  0.00    +0.018 C 
ATOM     18  C   UNL     1      -1.768   0.220  25.002  0.00  0.00    +0.010 C 
ATOM     19  C   UNL     1      -0.906   0.298  25.152  0.00  0.00    +0.018 C 
ATOM     20  C   UNL     1      -0.639   0.739  24.588  0.00  0.00    +0.079 C 
ENDROOT
BRANCH  13   4
ATOM      1  C   UNL     1      -4.361  -1.364  24.023  0.00  0.00    +0.074 C 
ATOM      2  C   UNL     1      -4.106  -0.616  24.259  0.00  0.00    +0.139 A 
ATOM      3  N   UNL     1      -3.304  -0.423  24.222  0.00  0.00    -0.235 NA
ATOM      4  C   UNL     1      -3.049   0.325  24.458  0.00  0.00    +0.063 A 
ATOM      5  C   UNL     1      -3.594   0.880  24.731  0.00  0.00    +0.037 A 
ATOM      6  C   UNL     1      -4.395   0.688  24.768  0.00  0.00    +0.118 A 
ATOM      7  N   UNL     1      -4.651  -0.060  24.532  0.00  0.00    -0.228 NA
BRANCH   6   8
ATOM      8  C   UNL     1      -4.941   1.243  25.040  0.00  0.00    +0.163 A 
ATOM      9  C   UNL     1      -5.199   1.911  24.631  0.00  0.00    +0.042 A 
ATOM     10  C   UNL     1      -5.742   2.308  25.107  0.00  0.00    +0.044 A 
ATOM     11  C   UNL     1      -5.821   1.886  25.811  0.00  0.00    +0.180 A 
ATOM     12  O   UNL     1      -5.326   1.227  25.770  0.00  0.00    -0.449 OA
ENDBRANCH   6   8
ENDBRANCH  13   4
BRANCH  20  21
ATOM     21  C   UNL     1       0.052   1.082  24.298  0.00  0.00    +0.131 C 
BRANCH  21  22
ATOM     22  N   UNL     1       0.543   0.655  23.790  0.00  0.00    -0.200 NA
ATOM     23  C   UNL     1       1.266   0.973  23.553  0.00  0.00    +0.271 C 
ATOM     24  O   UNL     1       1.498   1.718  23.823  0.00  0.00    -0.268 OA
BRANCH  23  25
ATOM     25  C   UNL     1       1.757   0.547  23.046  0.00  0.00    +0.084 A 
ATOM     26  C   UNL     1       1.513  -0.008  22.487  0.00  0.00    +0.012 A 
ATOM     27  C   UNL     1       2.183  -0.298  22.104  0.00  0.00    +0.008 A 
ATOM     28  C   UNL     1       2.843   0.079  22.426  0.00  0.00    +0.036 A 
ATOM     29  S   UNL     1       2.579   0.601  23.008  0.00  0.00    -0.082 S 
ENDBRANCH  23  25
ENDBRANCH  21  22
ENDBRANCH  20  21
TORSDOF 5
ENDMDL
