REMARK  Name = 
REMARK  8 active torsions:
REMARK  status: ('A' for Active; 'I' for Inactive)
REMARK    1  A    between atoms: N_2  and  C_3
REMARK    2  A    between atoms: N_2  and  C_10
REMARK    3  A    between atoms: C_3  and  C_4
REMARK    4  A    between atoms: C_13  and  C_14
REMARK    5  A    between atoms: C_17  and  C_18
REMARK    6  A    between atoms: C_18  and  N_19
REMARK    7  A    between atoms: C_20  and  C_22
REMARK    8  A    between atoms: C_25  and  C_28
REMARK                            x       y       z     vdW  Elec       q    Type
REMARK                         _______ _______ _______ _____ _____    ______ ____
ROOT
ATOM     10  C   UNL     1      -2.037  -1.299   0.000  0.00  0.00    +0.120 C 
ATOM     11  C   UNL     1      -1.369  -1.784   0.000  0.00  0.00    +0.198 C 
ATOM     12  O   UNL     1      -0.585  -1.529   0.000  0.00  0.00    -0.219 OA
ATOM     13  C   UNL     1      -1.624  -2.569   0.000  0.00  0.00    +0.180 C 
ATOM     16  O   UNL     1      -2.449  -2.569   0.000  0.00  0.00    -0.350 OA
ATOM     17  C   UNL     1      -2.704  -1.784   0.000  0.00  0.00    +0.154 C 
ENDROOT
BRANCH  10   2
ATOM      1  C   UNL     1      -2.751  -0.062   0.000  0.00  0.00    +0.090 C 
ATOM      2  N   UNL     1      -2.037  -0.474   0.000  0.00  0.00    -0.265 NA
BRANCH   2   3
ATOM      3  C   UNL     1      -1.322  -0.062   0.000  0.00  0.00    +0.099 C 
BRANCH   3   4
ATOM      4  C   UNL     1      -1.322   0.763   0.000  0.00  0.00    -0.006 A 
ATOM      5  C   UNL     1      -2.037   1.176   0.000  0.00  0.00    -0.003 A 
ATOM      6  C   UNL     1      -2.037   2.001   0.000  0.00  0.00    -0.000 A 
ATOM      7  C   UNL     1      -1.322   2.413   0.000  0.00  0.00    -0.000 A 
ATOM      8  C   UNL     1      -0.608   2.001   0.000  0.00  0.00    -0.000 A 
ATOM      9  C   UNL     1      -0.608   1.176   0.000  0.00  0.00    -0.003 A 
ENDBRANCH   3   4
ENDBRANCH   2   3
ENDBRANCH  10   2
BRANCH  13  14
ATOM     14  C   UNL     1      -1.139  -3.236   0.000  0.00  0.00    +0.214 C 
ATOM     15  O   UNL     1      -1.475  -3.990   0.000  0.00  0.00    -0.218 OA
ENDBRANCH  13  14
BRANCH  17  18
ATOM     18  C   UNL     1      -3.489  -1.529   0.000  0.00  0.00    +0.146 C 
BRANCH  18  19
ATOM     19  N   UNL     1      -3.660  -0.722   0.000  0.00  0.00    -0.199 NA
ATOM     20  C   UNL     1      -4.445  -0.467   0.000  0.00  0.00    +0.265 C 
ATOM     21  O   UNL     1      -4.616   0.340   0.000  0.00  0.00    -0.268 OA
BRANCH  20  22
ATOM     22  C   UNL     1      -5.058  -1.019   0.000  0.00  0.00    +0.055 A 
ATOM     23  C   UNL     1      -4.886  -1.826   0.000  0.00  0.00    +0.005 A 
ATOM     24  C   UNL     1      -5.500  -2.378   0.000  0.00  0.00    +0.004 A 
ATOM     25  C   UNL     1      -6.284  -2.123   0.000  0.00  0.00    +0.071 A 
ATOM     26  C   UNL     1      -6.456  -1.316   0.000  0.00  0.00    +0.004 A 
ATOM     27  C   UNL     1      -5.843  -0.764   0.000  0.00  0.00    +0.005 A 
BRANCH  25  28
ATOM     28  C   UNL     1      -6.897  -2.675   0.000  0.00  0.00    +0.419 C 
ATOM     29  F   UNL     1      -7.510  -3.227   0.000  0.00  0.00    -0.166 F 
ATOM     30  F   UNL     1      -7.449  -2.062   0.000  0.00  0.00    -0.166 F 
ATOM     31  F   UNL     1      -6.345  -3.288   0.000  0.00  0.00    -0.166 F 
ENDBRANCH  25  28
ENDBRANCH  20  22
ENDBRANCH  18  19
ENDBRANCH  17  18
TORSDOF 8
