MODEL 1
REMARK VINA RESULT:     -16.4      0.000      0.000
REMARK  Name = 
REMARK  4 active torsions:
REMARK  status: ('A' for Active; 'I' for Inactive)
REMARK    1  A    between atoms: O_2  and  C_3
REMARK    2  A    between atoms: C_6  and  N_7
REMARK    3  A    between atoms: C_19  and  N_20
REMARK    4  A    between atoms: C_21  and  C_23
REMARK                            x       y       z     vdW  Elec       q    Type
REMARK                         _______ _______ _______ _____ _____    ______ ____
ROOT
ATOM      7  N   UNL     1      -2.240  -0.239  24.512  0.00  0.00    -0.162 NA
ATOM      8  C   UNL     1      -1.676  -0.842  24.527  0.00  0.00    +0.327 C 
ATOM      9  O   UNL     1      -0.873  -0.657  24.518  0.00  0.00    -0.250 OA
ATOM     10  N   UNL     1      -1.917  -1.631  24.549  0.00  0.00    -0.262 N 
ATOM     11  C   UNL     1      -1.857  -2.464  24.572  0.00  0.00    +0.097 C 
ATOM     12  C   UNL     1      -2.816  -2.700  24.582  0.00  0.00    +0.043 C 
ATOM     13  C   UNL     1      -3.550  -3.054  24.595  0.00  0.00    +0.011 C 
ATOM     14  C   UNL     1      -3.288  -2.403  24.576  0.00  0.00    +0.058 C 
ATOM     15  C   UNL     1      -2.357  -2.191  24.566  0.00  0.00    +0.101 C 
ATOM     16  C   UNL     1      -3.549  -1.522  24.553  0.00  0.00    +0.041 A 
ATOM     17  C   UNL     1      -4.229  -1.056  24.543  0.00  0.00    +0.014 A 
ATOM     18  C   UNL     1      -4.165  -0.233  24.520  0.00  0.00    +0.023 A 
ATOM     19  C   UNL     1      -3.420   0.122  24.507  0.00  0.00    +0.130 A 
ATOM     30  C   UNL     1      -2.740  -0.344  24.517  0.00  0.00    +0.276 A 
ATOM     31  O   UNL     1      -2.347   0.380  24.496  0.00  0.00    -0.266 OA
ATOM     32  N   UNL     1      -2.805  -1.167  24.540  0.00  0.00    -0.298 N 
ATOM     33  C   UNL     1      -3.079  -1.777  24.558  0.00  0.00    +0.110 C 
ENDROOT
BRANCH   7   6
ATOM      3  C   UNL     1      -1.515   2.127  24.447  0.00  0.00    +0.139 A 
ATOM      4  C   UNL     1      -1.624   1.749  25.172  0.00  0.00    +0.038 A 
ATOM      5  C   UNL     1      -1.865   0.960  25.194  0.00  0.00    +0.020 A 
ATOM      6  C   UNL     1      -1.998   0.550  24.490  0.00  0.00    +0.075 A 
ATOM     34  C   UNL     1      -1.889   0.928  23.765  0.00  0.00    +0.020 A 
ATOM     35  C   UNL     1      -1.647   1.716  23.743  0.00  0.00    +0.038 A 
BRANCH   3   2
ATOM      1  C   UNL     1      -0.470   3.100  24.411  0.00  0.00    +0.252 C 
ATOM      2  O   UNL     1      -1.273   2.916  24.425  0.00  0.00    -0.471 OA
ENDBRANCH   3   2
ENDBRANCH   7   6
BRANCH  19  20
ATOM     20  N   UNL     1      -3.357   0.944  24.484  0.00  0.00    -0.171 NA
ATOM     21  C   UNL     1      -4.037   1.411  24.483  0.00  0.00    +0.269 C 
ATOM     22  O   UNL     1      -4.781   1.055  24.505  0.00  0.00    -0.268 OA
BRANCH  21  23
ATOM     23  C   UNL     1      -3.972   2.234  24.461  0.00  0.00    +0.056 A 
ATOM     24  C   UNL     1      -3.944   2.664  25.164  0.00  0.00    +0.007 A 
ATOM     25  C   UNL     1      -3.880   3.487  25.141  0.00  0.00    +0.030 A 
ATOM     26  C   UNL     1      -3.844   3.878  24.415  0.00  0.00    +0.140 A 
ATOM     27  F   UNL     1      -3.780   4.700  24.392  0.00  0.00    -0.204 F 
ATOM     28  C   UNL     1      -3.873   3.447  23.713  0.00  0.00    +0.030 A 
ATOM     29  C   UNL     1      -3.937   2.625  23.735  0.00  0.00    +0.007 A 
ENDBRANCH  21  23
ENDBRANCH  19  20
TORSDOF 4
ENDMDL
MODEL 2
REMARK VINA RESULT:     -16.3      1.839      4.280
REMARK  Name = 
REMARK  4 active torsions:
REMARK  status: ('A' for Active; 'I' for Inactive)
REMARK    1  A    between atoms: O_2  and  C_3
REMARK    2  A    between atoms: C_6  and  N_7
REMARK    3  A    between atoms: C_19  and  N_20
REMARK    4  A    between atoms: C_21  and  C_23
REMARK                            x       y       z     vdW  Elec       q    Type
REMARK                         _______ _______ _______ _____ _____    ______ ____
ROOT
ATOM      7  N   UNL     1      -1.366   1.949  25.038  0.00  0.00    -0.162 NA
ATOM      8  C   UNL     1      -0.677   2.397  25.117  0.00  0.00    +0.327 C 
ATOM      9  O   UNL     1       0.058   2.023  25.138  0.00  0.00    -0.250 OA
ATOM     10  N   UNL     1      -0.724   3.219  25.177  0.00  0.00    -0.262 N 
ATOM     11  C   UNL     1      -0.468   4.010  25.254  0.00  0.00    +0.097 C 
ATOM     12  C   UNL     1      -1.343   4.470  25.230  0.00  0.00    +0.043 C 
ATOM     13  C   UNL     1      -1.970   4.990  25.228  0.00  0.00    +0.011 C 
ATOM     14  C   UNL     1      -1.870   4.297  25.182  0.00  0.00    +0.058 C 
ATOM     15  C   UNL     1      -1.018   3.867  25.206  0.00  0.00    +0.101 C 
ATOM     16  C   UNL     1      -2.332   3.507  25.091  0.00  0.00    +0.041 A 
ATOM     17  C   UNL     1      -3.101   3.220  25.018  0.00  0.00    +0.014 A 
ATOM     18  C   UNL     1      -3.233   2.408  24.948  0.00  0.00    +0.023 A 
ATOM     19  C   UNL     1      -2.596   1.885  24.951  0.00  0.00    +0.130 A 
ATOM     30  C   UNL     1      -1.826   2.172  25.024  0.00  0.00    +0.276 A 
ATOM     31  O   UNL     1      -1.617   1.376  24.978  0.00  0.00    -0.266 OA
ATOM     32  N   UNL     1      -1.694   2.983  25.094  0.00  0.00    -0.298 N 
ATOM     33  C   UNL     1      -1.816   3.640  25.136  0.00  0.00    +0.110 C 
ENDROOT
BRANCH   7   6
ATOM      3  C   UNL     1      -1.224  -0.516  24.863  0.00  0.00    +0.139 A 
ATOM      4  C   UNL     1      -1.294  -0.159  25.602  0.00  0.00    +0.038 A 
ATOM      5  C   UNL     1      -1.341   0.663  25.661  0.00  0.00    +0.020 A 
ATOM      6  C   UNL     1      -1.319   1.128  24.979  0.00  0.00    +0.075 A 
ATOM     34  C   UNL     1      -1.248   0.770  24.239  0.00  0.00    +0.020 A 
ATOM     35  C   UNL     1      -1.201  -0.052  24.180  0.00  0.00    +0.038 A 
BRANCH   3   2
ATOM      1  C   UNL     1      -0.456  -1.719  24.932  0.00  0.00    +0.252 C 
ATOM      2  O   UNL     1      -1.176  -1.338  24.804  0.00  0.00    -0.471 OA
ENDBRANCH   3   2
ENDBRANCH   7   6
BRANCH  19  20
ATOM     20  N   UNL     1      -2.729   1.074  24.881  0.00  0.00    -0.171 NA
ATOM     21  C   UNL     1      -3.498   0.786  24.807  0.00  0.00    +0.269 C 
ATOM     22  O   UNL     1      -4.136   1.310  24.803  0.00  0.00    -0.268 OA
BRANCH  21  23
ATOM     23  C   UNL     1      -3.631  -0.026  24.736  0.00  0.00    +0.056 A 
ATOM     24  C   UNL     1      -3.675  -0.372  23.989  0.00  0.00    +0.007 A 
ATOM     25  C   UNL     1      -3.808  -1.184  23.919  0.00  0.00    +0.030 A 
ATOM     26  C   UNL     1      -3.896  -1.648  24.596  0.00  0.00    +0.140 A 
ATOM     27  F   UNL     1      -4.028  -2.459  24.526  0.00  0.00    -0.204 F 
ATOM     28  C   UNL     1      -3.852  -1.300  25.342  0.00  0.00    +0.030 A 
ATOM     29  C   UNL     1      -3.719  -0.489  25.413  0.00  0.00    +0.007 A 
ENDBRANCH  21  23
ENDBRANCH  19  20
TORSDOF 4
ENDMDL
MODEL 3
REMARK VINA RESULT:     -15.9      1.031      2.339
REMARK  Name = 
REMARK  4 active torsions:
REMARK  status: ('A' for Active; 'I' for Inactive)
REMARK    1  A    between atoms: O_2  and  C_3
REMARK    2  A    between atoms: C_6  and  N_7
REMARK    3  A    between atoms: C_19  and  N_20
REMARK    4  A    between atoms: C_21  and  C_23
REMARK                            x       y       z     vdW  Elec       q    Type
REMARK                         _______ _______ _______ _____ _____    ______ ____
ROOT
ATOM      7  N   UNL     1      -3.346   0.161  24.399  0.00  0.00    -0.162 NA
ATOM      8  C   UNL     1      -4.018  -0.267  24.183  0.00  0.00    +0.327 C 
ATOM      9  O   UNL     1      -4.695   0.128  23.929  0.00  0.00    -0.250 OA
ATOM     10  N   UNL     1      -4.011  -1.092  24.221  0.00  0.00    -0.262 N 
ATOM     11  C   UNL     1      -4.290  -1.877  24.158  0.00  0.00    +0.097 C 
ATOM     12  C   UNL     1      -3.485  -2.363  24.461  0.00  0.00    +0.043 C 
ATOM     13  C   UNL     1      -2.916  -2.902  24.683  0.00  0.00    +0.011 C 
ATOM     14  C   UNL     1      -2.978  -2.205  24.631  0.00  0.00    +0.058 C 
ATOM     15  C   UNL     1      -3.764  -1.750  24.337  0.00  0.00    +0.101 C 
ATOM     16  C   UNL     1      -2.505  -1.428  24.762  0.00  0.00    +0.041 A 
ATOM     17  C   UNL     1      -1.764  -1.163  25.009  0.00  0.00    +0.014 A 
ATOM     18  C   UNL     1      -1.602  -0.354  25.031  0.00  0.00    +0.023 A 
ATOM     19  C   UNL     1      -2.180   0.189  24.805  0.00  0.00    +0.130 A 
ATOM     30  C   UNL     1      -2.921  -0.076  24.558  0.00  0.00    +0.276 A 
ATOM     31  O   UNL     1      -3.082   0.727  24.466  0.00  0.00    -0.266 OA
ATOM     32  N   UNL     1      -3.083  -0.884  24.536  0.00  0.00    -0.298 N 
ATOM     33  C   UNL     1      -2.999  -1.546  24.595  0.00  0.00    +0.110 C 
ENDROOT
BRANCH   7   6
ATOM      3  C   UNL     1      -3.367   2.633  24.285  0.00  0.00    +0.139 A 
ATOM      4  C   UNL     1      -3.603   2.250  24.976  0.00  0.00    +0.038 A 
ATOM      5  C   UNL     1      -3.596   1.426  25.014  0.00  0.00    +0.020 A 
ATOM      6  C   UNL     1      -3.353   0.985  24.360  0.00  0.00    +0.075 A 
ATOM     34  C   UNL     1      -3.117   1.368  23.670  0.00  0.00    +0.020 A 
ATOM     35  C   UNL     1      -3.124   2.192  23.631  0.00  0.00    +0.038 A 
BRANCH   3   2
ATOM      1  C   UNL     1      -4.076   3.857  24.078  0.00  0.00    +0.252 C 
ATOM      2  O   UNL     1      -3.374   3.458  24.247  0.00  0.00    -0.471 OA
ENDBRANCH   3   2
ENDBRANCH   7   6
BRANCH  19  20
ATOM     20  N   UNL     1      -2.017   0.997  24.826  0.00  0.00    -0.171 NA
ATOM     21  C   UNL     1      -1.276   1.262  25.074  0.00  0.00    +0.269 C 
ATOM     22  O   UNL     1      -0.698   0.719  25.300  0.00  0.00    -0.268 OA
BRANCH  21  23
ATOM     23  C   UNL     1      -1.113   2.072  25.095  0.00  0.00    +0.056 A 
ATOM     24  C   UNL     1      -0.799   2.446  24.431  0.00  0.00    +0.007 A 
ATOM     25  C   UNL     1      -0.636   3.255  24.452  0.00  0.00    +0.030 A 
ATOM     26  C   UNL     1      -0.788   3.688  25.138  0.00  0.00    +0.140 A 
ATOM     27  F   UNL     1      -0.625   4.497  25.159  0.00  0.00    -0.204 F 
ATOM     28  C   UNL     1      -1.102   3.313  25.802  0.00  0.00    +0.030 A 
ATOM     29  C   UNL     1      -1.265   2.505  25.780  0.00  0.00    +0.007 A 
ENDBRANCH  21  23
ENDBRANCH  19  20
TORSDOF 4
ENDMDL
MODEL 4
REMARK VINA RESULT:     -15.4      1.868      4.757
REMARK  Name = 
REMARK  4 active torsions:
REMARK  status: ('A' for Active; 'I' for Inactive)
REMARK    1  A    between atoms: O_2  and  C_3
REMARK    2  A    between atoms: C_6  and  N_7
REMARK    3  A    between atoms: C_19  and  N_20
REMARK    4  A    between atoms: C_21  and  C_23
REMARK                            x       y       z     vdW  Elec       q    Type
REMARK                         _______ _______ _______ _____ _____    ______ ____
ROOT
ATOM      7  N   UNL     1      -2.968   3.202  24.927  0.00  0.00    -0.162 NA
ATOM      8  C   UNL     1      -3.045   4.014  25.058  0.00  0.00    +0.327 C 
ATOM      9  O   UNL     1      -3.793   4.349  25.145  0.00  0.00    -0.250 OA
ATOM     10  N   UNL     1      -2.372   4.490  25.100  0.00  0.00    -0.262 N 
ATOM     11  C   UNL     1      -1.911   5.181  25.187  0.00  0.00    +0.097 C 
ATOM     12  C   UNL     1      -1.009   4.792  25.083  0.00  0.00    +0.043 C 
ATOM     13  C   UNL     1      -0.212   4.632  25.021  0.00  0.00    +0.011 C 
ATOM     14  C   UNL     1      -0.817   4.277  24.994  0.00  0.00    +0.058 C 
ATOM     15  C   UNL     1      -1.682   4.667  25.096  0.00  0.00    +0.101 C 
ATOM     16  C   UNL     1      -1.149   3.428  24.877  0.00  0.00    +0.041 A 
ATOM     17  C   UNL     1      -0.897   2.654  24.745  0.00  0.00    +0.014 A 
ATOM     18  C   UNL     1      -1.450   2.046  24.676  0.00  0.00    +0.023 A 
ATOM     19  C   UNL     1      -2.256   2.212  24.739  0.00  0.00    +0.130 A 
ATOM     30  C   UNL     1      -2.508   2.986  24.872  0.00  0.00    +0.276 A 
ATOM     31  O   UNL     1      -3.261   2.651  24.855  0.00  0.00    -0.266 OA
ATOM     32  N   UNL     1      -1.955   3.594  24.941  0.00  0.00    -0.298 N 
ATOM     33  C   UNL     1      -1.365   3.909  24.962  0.00  0.00    +0.110 C 
ENDROOT
BRANCH   7   6
ATOM      3  C   UNL     1      -4.987   1.775  24.802  0.00  0.00    +0.139 A 
ATOM      4  C   UNL     1      -4.622   1.910  25.529  0.00  0.00    +0.038 A 
ATOM      5  C   UNL     1      -3.949   2.386  25.571  0.00  0.00    +0.020 A 
ATOM      6  C   UNL     1      -3.641   2.727  24.885  0.00  0.00    +0.075 A 
ATOM     34  C   UNL     1      -4.006   2.591  24.158  0.00  0.00    +0.020 A 
ATOM     35  C   UNL     1      -4.679   2.116  24.116  0.00  0.00    +0.038 A 
BRANCH   3   2
ATOM      1  C   UNL     1      -6.400   1.615  24.940  0.00  0.00    +0.252 C 
ATOM      2  O   UNL     1      -5.660   1.299  24.760  0.00  0.00    -0.471 OA
ENDBRANCH   3   2
ENDBRANCH   7   6
BRANCH  19  20
ATOM     20  N   UNL     1      -2.808   1.603  24.670  0.00  0.00    -0.171 NA
ATOM     21  C   UNL     1      -2.555   0.829  24.543  0.00  0.00    +0.269 C 
ATOM     22  O   UNL     1      -1.749   0.662  24.485  0.00  0.00    -0.268 OA
BRANCH  21  23
ATOM     23  C   UNL     1      -3.109   0.220  24.474  0.00  0.00    +0.056 A 
ATOM     24  C   UNL     1      -3.348  -0.197  25.145  0.00  0.00    +0.007 A 
ATOM     25  C   UNL     1      -3.901  -0.806  25.076  0.00  0.00    +0.030 A 
ATOM     26  C   UNL     1      -4.215  -0.996  24.336  0.00  0.00    +0.140 A 
ATOM     27  F   UNL     1      -4.768  -1.604  24.268  0.00  0.00    -0.204 F 
ATOM     28  C   UNL     1      -3.976  -0.579  23.667  0.00  0.00    +0.030 A 
ATOM     29  C   UNL     1      -3.423   0.029  23.736  0.00  0.00    +0.007 A 
ENDBRANCH  21  23
ENDBRANCH  19  20
TORSDOF 4
ENDMDL
MODEL 5
REMARK VINA RESULT:     -15.3      1.821      4.549
REMARK  Name = 
REMARK  4 active torsions:
REMARK  status: ('A' for Active; 'I' for Inactive)
REMARK    1  A    between atoms: O_2  and  C_3
REMARK    2  A    between atoms: C_6  and  N_7
REMARK    3  A    between atoms: C_19  and  N_20
REMARK    4  A    between atoms: C_21  and  C_23
REMARK                            x       y       z     vdW  Elec       q    Type
REMARK                         _______ _______ _______ _____ _____    ______ ____
ROOT
ATOM      7  N   UNL     1      -4.229   0.963  24.973  0.00  0.00    -0.162 NA
ATOM      8  C   UNL     1      -5.041   1.112  24.943  0.00  0.00    +0.327 C 
ATOM      9  O   UNL     1      -5.571   0.489  24.841  0.00  0.00    -0.250 OA
ATOM     10  N   UNL     1      -5.321   1.885  25.016  0.00  0.00    -0.262 N 
ATOM     11  C   UNL     1      -5.869   2.515  25.056  0.00  0.00    +0.097 C 
ATOM     12  C   UNL     1      -5.245   3.270  25.179  0.00  0.00    +0.043 C 
ATOM     13  C   UNL     1      -4.872   3.987  25.283  0.00  0.00    +0.011 C 
ATOM     14  C   UNL     1      -4.690   3.312  25.216  0.00  0.00    +0.058 C 
ATOM     15  C   UNL     1      -5.306   2.593  25.098  0.00  0.00    +0.101 C 
ATOM     16  C   UNL     1      -3.953   2.763  25.195  0.00  0.00    +0.041 A 
ATOM     17  C   UNL     1      -3.131   2.792  25.246  0.00  0.00    +0.014 A 
ATOM     18  C   UNL     1      -2.689   2.098  25.192  0.00  0.00    +0.023 A 
ATOM     19  C   UNL     1      -3.070   1.373  25.087  0.00  0.00    +0.130 A 
ATOM     30  C   UNL     1      -3.893   1.344  25.036  0.00  0.00    +0.276 A 
ATOM     31  O   UNL     1      -3.772   0.533  24.950  0.00  0.00    -0.266 OA
ATOM     32  N   UNL     1      -4.335   2.039  25.090  0.00  0.00    -0.298 N 
ATOM     33  C   UNL     1      -4.481   2.688  25.156  0.00  0.00    +0.110 C 
ENDROOT
BRANCH   7   6
ATOM      3  C   UNL     1      -3.389  -1.354  24.754  0.00  0.00    +0.139 A 
ATOM      4  C   UNL     1      -3.489  -0.887  24.082  0.00  0.00    +0.038 A 
ATOM      5  C   UNL     1      -3.769  -0.114  24.155  0.00  0.00    +0.020 A 
ATOM      6  C   UNL     1      -3.949   0.191  24.901  0.00  0.00    +0.075 A 
ATOM     34  C   UNL     1      -3.849  -0.277  25.572  0.00  0.00    +0.020 A 
ATOM     35  C   UNL     1      -3.570  -1.049  25.500  0.00  0.00    +0.038 A 
BRANCH   3   2
ATOM      1  C   UNL     1      -3.629  -2.737  24.487  0.00  0.00    +0.252 C 
ATOM      2  O   UNL     1      -3.109  -2.127  24.681  0.00  0.00    -0.471 OA
ENDBRANCH   3   2
ENDBRANCH   7   6
BRANCH  19  20
ATOM     20  N   UNL     1      -2.628   0.680  25.033  0.00  0.00    -0.171 NA
ATOM     21  C   UNL     1      -1.807   0.707  25.104  0.00  0.00    +0.269 C 
ATOM     22  O   UNL     1      -1.427   1.428  25.229  0.00  0.00    -0.268 OA
BRANCH  21  23
ATOM     23  C   UNL     1      -1.365   0.011  25.050  0.00  0.00    +0.056 A 
ATOM     24  C   UNL     1      -1.076  -0.237  24.318  0.00  0.00    +0.007 A 
ATOM     25  C   UNL     1      -0.634  -0.932  24.264  0.00  0.00    +0.030 A 
ATOM     26  C   UNL     1      -0.481  -1.378  24.942  0.00  0.00    +0.140 A 
ATOM     27  F   UNL     1      -0.040  -2.072  24.888  0.00  0.00    -0.204 F 
ATOM     28  C   UNL     1      -0.770  -1.129  25.673  0.00  0.00    +0.030 A 
ATOM     29  C   UNL     1      -1.212  -0.434  25.727  0.00  0.00    +0.007 A 
ENDBRANCH  21  23
ENDBRANCH  19  20
TORSDOF 4
ENDMDL
MODEL 6
REMARK VINA RESULT:     -14.7      1.873      3.958
REMARK  Name = 
REMARK  4 active torsions:
REMARK  status: ('A' for Active; 'I' for Inactive)
REMARK    1  A    between atoms: O_2  and  C_3
REMARK    2  A    between atoms: C_6  and  N_7
REMARK    3  A    between atoms: C_19  and  N_20
REMARK    4  A    between atoms: C_21  and  C_23
REMARK                            x       y       z     vdW  Elec       q    Type
REMARK                         _______ _______ _______ _____ _____    ______ ____
ROOT
ATOM      7  N   UNL     1      -3.253   1.852  24.802  0.00  0.00    -0.162 NA
ATOM      8  C   UNL     1      -3.516   2.628  24.698  0.00  0.00    +0.327 C 
ATOM      9  O   UNL     1      -2.977   3.225  24.517  0.00  0.00    -0.250 OA
ATOM     10  N   UNL     1      -4.318   2.805  24.774  0.00  0.00    -0.262 N 
ATOM     11  C   UNL     1      -5.018   3.262  24.786  0.00  0.00    +0.097 C 
ATOM     12  C   UNL     1      -5.674   2.555  25.002  0.00  0.00    +0.043 C 
ATOM     13  C   UNL     1      -6.327   2.099  25.173  0.00  0.00    +0.011 C 
ATOM     14  C   UNL     1      -5.636   2.006  25.096  0.00  0.00    +0.058 C 
ATOM     15  C   UNL     1      -5.014   2.701  24.887  0.00  0.00    +0.101 C 
ATOM     16  C   UNL     1      -4.988   1.355  25.126  0.00  0.00    +0.041 A 
ATOM     17  C   UNL     1      -4.899   0.546  25.261  0.00  0.00    +0.014 A 
ATOM     18  C   UNL     1      -4.151   0.202  25.222  0.00  0.00    +0.023 A 
ATOM     19  C   UNL     1      -3.491   0.666  25.049  0.00  0.00    +0.130 A 
ATOM     30  C   UNL     1      -3.580   1.475  24.915  0.00  0.00    +0.276 A 
ATOM     31  O   UNL     1      -2.762   1.459  24.807  0.00  0.00    -0.266 OA
ATOM     32  N   UNL     1      -4.328   1.820  24.953  0.00  0.00    -0.298 N 
ATOM     33  C   UNL     1      -4.990   1.881  25.032  0.00  0.00    +0.110 C 
ENDROOT
BRANCH   7   6
ATOM      3  C   UNL     1      -0.846   1.323  24.572  0.00  0.00    +0.139 A 
ATOM      4  C   UNL     1      -1.342   1.282  23.914  0.00  0.00    +0.038 A 
ATOM      5  C   UNL     1      -2.145   1.459  23.991  0.00  0.00    +0.020 A 
ATOM      6  C   UNL     1      -2.451   1.676  24.726  0.00  0.00    +0.075 A 
ATOM     34  C   UNL     1      -1.954   1.716  25.383  0.00  0.00    +0.020 A 
ATOM     35  C   UNL     1      -1.152   1.540  25.307  0.00  0.00    +0.038 A 
BRANCH   3   2
ATOM      1  C   UNL     1       0.490   1.737  24.280  0.00  0.00    +0.252 C 
ATOM      2  O   UNL     1      -0.044   1.146  24.495  0.00  0.00    -0.471 OA
ENDBRANCH   3   2
ENDBRANCH   7   6
BRANCH  19  20
ATOM     20  N   UNL     1      -2.743   0.321  25.010  0.00  0.00    -0.171 NA
ATOM     21  C   UNL     1      -2.652  -0.484  25.162  0.00  0.00    +0.269 C 
ATOM     22  O   UNL     1      -3.309  -0.945  25.353  0.00  0.00    -0.268 OA
BRANCH  21  23
ATOM     23  C   UNL     1      -1.902  -0.829  25.124  0.00  0.00    +0.056 A 
ATOM     24  C   UNL     1      -1.631  -1.144  24.411  0.00  0.00    +0.007 A 
ATOM     25  C   UNL     1      -0.881  -1.490  24.372  0.00  0.00    +0.030 A 
ATOM     26  C   UNL     1      -0.406  -1.519  25.046  0.00  0.00    +0.140 A 
ATOM     27  F   UNL     1       0.343  -1.863  25.007  0.00  0.00    -0.204 F 
ATOM     28  C   UNL     1      -0.678  -1.204  25.758  0.00  0.00    +0.030 A 
ATOM     29  C   UNL     1      -1.426  -0.859  25.797  0.00  0.00    +0.007 A 
ENDBRANCH  21  23
ENDBRANCH  19  20
TORSDOF 4
ENDMDL
