REMARK  Name = 
REMARK  5 active torsions:
REMARK  status: ('A' for Active; 'I' for Inactive)
REMARK    1  A    between atoms: N_2  and  C_4
REMARK    2  A    between atoms: C_7  and  C_10
REMARK    3  A    between atoms: C_13  and  C_15
REMARK    4  A    between atoms: N_18  and  C_19
REMARK    5  A    between atoms: C_19  and  C_20
REMARK                            x       y       z     vdW  Elec       q    Type
REMARK                         _______ _______ _______ _____ _____    ______ ____
ROOT
ATOM     15  C   UNL     1       3.654   4.442   0.000  0.00  0.00    +0.096 C 
ATOM     16  C   UNL     1       4.479   4.442   0.000  0.00  0.00    +0.028 C 
ATOM     17  C   UNL     1       4.734   3.658   0.000  0.00  0.00    +0.073 C 
ATOM     18  N   UNL     1       4.067   3.173   0.000  0.00  0.00    -0.268 NA
ATOM     29  C   UNL     1       3.399   3.658   0.000  0.00  0.00    +0.082 C 
ENDROOT
BRANCH  15  13
ATOM     10  C   UNL     1       2.089   5.894   0.000  0.00  0.00    +0.250 A 
ATOM     11  N   UNL     1       2.757   6.380   0.000  0.00  0.00    -0.107 NA
ATOM     12  N   UNL     1       3.424   5.894   0.000  0.00  0.00    -0.111 NA
ATOM     13  C   UNL     1       3.169   5.110   0.000  0.00  0.00    +0.227 A 
ATOM     14  O   UNL     1       2.344   5.110   0.000  0.00  0.00    -0.419 OA
BRANCH  10   7
ATOM      4  C   UNL     1      -0.265   6.659   0.000  0.00  0.00    +0.048 A 
ATOM      5  C   UNL     1       0.349   7.211   0.000  0.00  0.00    +0.015 A 
ATOM      6  C   UNL     1       1.133   6.957   0.000  0.00  0.00    +0.006 A 
ATOM      7  C   UNL     1       1.305   6.149   0.000  0.00  0.00    +0.055 A 
ATOM      8  C   UNL     1       0.692   5.598   0.000  0.00  0.00    +0.006 A 
ATOM      9  C   UNL     1      -0.093   5.852   0.000  0.00  0.00    +0.015 A 
BRANCH   4   2
ATOM      1  C   UNL     1      -1.662   6.362   0.000  0.00  0.00    +0.112 C 
ATOM      2  N   UNL     1      -1.049   6.914   0.000  0.00  0.00    -0.304 N 
ATOM      3  C   UNL     1      -1.221   7.721   0.000  0.00  0.00    +0.112 C 
ENDBRANCH   4   2
ENDBRANCH  10   7
ENDBRANCH  15  13
BRANCH  18  19
ATOM     19  C   UNL     1       4.067   2.348   0.000  0.00  0.00    +0.099 C 
BRANCH  19  20
ATOM     20  C   UNL     1       3.352   1.935   0.000  0.00  0.00    -0.003 A 
ATOM     21  C   UNL     1       3.352   1.110   0.000  0.00  0.00    +0.000 A 
ATOM     22  C   UNL     1       2.638   0.698   0.000  0.00  0.00    +0.040 A 
ATOM     23  C   UNL     1       1.923   1.110   0.000  0.00  0.00    +0.176 A 
ATOM     24  O   UNL     1       1.139   0.856   0.000  0.00  0.00    -0.435 OA
ATOM     25  C   UNL     1       0.654   1.523   0.000  0.00  0.00    +0.429 C 
ATOM     26  O   UNL     1       1.139   2.190   0.000  0.00  0.00    -0.435 OA
ATOM     27  C   UNL     1       1.923   1.935   0.000  0.00  0.00    +0.176 A 
ATOM     28  C   UNL     1       2.638   2.348   0.000  0.00  0.00    +0.037 A 
ENDBRANCH  19  20
ENDBRANCH  18  19
TORSDOF 5
