REMARK  Name = 
REMARK  7 active torsions:
REMARK  status: ('A' for Active; 'I' for Inactive)
REMARK    1  A    between atoms: C_4  and  C_7
REMARK    2  A    between atoms: N_9  and  C_10
REMARK    3  A    between atoms: C_10  and  C_11
REMARK    4  A    between atoms: C_13  and  C_14
REMARK    5  A    between atoms: C_18  and  N_19
REMARK    6  A    between atoms: N_22  and  C_25
REMARK    7  A    between atoms: C_27  and  C_31
REMARK                            x       y       z     vdW  Elec       q    Type
REMARK                         _______ _______ _______ _____ _____    ______ ____
ROOT
ATOM     11  C   UNL     1       7.722  -6.991   0.000  0.00  0.00    +0.154 C 
ATOM     12  O   UNL     1       8.135  -6.277   0.000  0.00  0.00    -0.350 OA
ATOM     13  C   UNL     1       8.942  -6.448   0.000  0.00  0.00    +0.180 C 
ATOM     16  C   UNL     1       9.028  -7.269   0.000  0.00  0.00    +0.198 C 
ATOM     17  O   UNL     1       9.742  -7.681   0.000  0.00  0.00    -0.219 OA
ATOM     18  C   UNL     1       8.274  -7.604   0.000  0.00  0.00    +0.120 C 
ENDROOT
BRANCH  18  19
ATOM     19  N   UNL     1       8.103  -8.411   0.000  0.00  0.00    -0.267 NA
ATOM     20  C   UNL     1       8.716  -8.963   0.000  0.00  0.00    +0.094 C 
ATOM     21  C   UNL     1       8.544  -9.770   0.000  0.00  0.00    +0.108 C 
ATOM     22  N   UNL     1       7.760 -10.025   0.000  0.00  0.00    -0.305 N 
ATOM     23  C   UNL     1       7.146  -9.473   0.000  0.00  0.00    +0.108 C 
ATOM     24  C   UNL     1       7.318  -8.666   0.000  0.00  0.00    +0.094 C 
BRANCH  22  25
ATOM     25  C   UNL     1       7.588 -10.832   0.000  0.00  0.00    +0.048 A 
ATOM     26  C   UNL     1       8.201 -11.384   0.000  0.00  0.00    +0.018 A 
ATOM     27  C   UNL     1       8.030 -12.191   0.000  0.00  0.00    +0.073 A 
ATOM     28  C   UNL     1       7.245 -12.446   0.000  0.00  0.00    +0.004 A 
ATOM     29  C   UNL     1       6.632 -11.894   0.000  0.00  0.00    +0.001 A 
ATOM     30  C   UNL     1       6.803 -11.087   0.000  0.00  0.00    +0.015 A 
BRANCH  27  31
ATOM     31  C   UNL     1       8.643 -12.743   0.000  0.00  0.00    +0.419 C 
ATOM     32  F   UNL     1       9.256 -13.295   0.000  0.00  0.00    -0.166 F 
ATOM     33  F   UNL     1       8.091 -13.357   0.000  0.00  0.00    -0.166 F 
ATOM     34  F   UNL     1       9.195 -12.130   0.000  0.00  0.00    -0.166 F 
ENDBRANCH  27  31
ENDBRANCH  22  25
ENDBRANCH  18  19
BRANCH  13  14
ATOM     14  C   UNL     1       9.555  -5.896   0.000  0.00  0.00    +0.214 C 
ATOM     15  O   UNL     1      10.339  -6.151   0.000  0.00  0.00    -0.218 OA
ENDBRANCH  13  14
BRANCH  11  10
ATOM     10  C   UNL     1       6.902  -7.078   0.000  0.00  0.00    +0.146 C 
BRANCH  10   9
ATOM      7  C   UNL     1       5.596  -6.496   0.000  0.00  0.00    +0.268 C 
ATOM      8  O   UNL     1       5.261  -7.250   0.000  0.00  0.00    -0.268 OA
ATOM      9  N   UNL     1       6.417  -6.410   0.000  0.00  0.00    -0.199 NA
BRANCH   7   4
ATOM      1  C   UNL     1       4.699  -3.734   0.000  0.00  0.00    +0.154 C 
ATOM      2  N   UNL     1       4.699  -4.559   0.000  0.00  0.00    -0.247 N 
ATOM      3  C   UNL     1       5.366  -5.044   0.000  0.00  0.00    +0.101 A 
ATOM      4  C   UNL     1       5.111  -5.829   0.000  0.00  0.00    +0.095 A 
ATOM      5  C   UNL     1       4.286  -5.829   0.000  0.00  0.00    +0.126 A 
ATOM      6  N   UNL     1       4.031  -5.044   0.000  0.00  0.00    -0.167 NA
ENDBRANCH   7   4
ENDBRANCH  10   9
ENDBRANCH  11  10
TORSDOF 7
