MODEL 1
REMARK VINA RESULT:      -9.2      0.000      0.000
REMARK  Name = 
REMARK  6 active torsions:
REMARK  status: ('A' for Active; 'I' for Inactive)
REMARK    1  A    between atoms: C_3  and  N_18
REMARK    2  A    between atoms: C_6  and  C_7
REMARK    3  A    between atoms: C_7  and  N_8
REMARK    4  A    between atoms: N_11  and  C_12
REMARK    5  A    between atoms: N_18  and  C_19
REMARK    6  A    between atoms: C_19  and  C_20
REMARK                            x       y       z     vdW  Elec       q    Type
REMARK                         _______ _______ _______ _____ _____    ______ ____
ROOT
ATOM      1  O   UNL     1      -2.936   2.461  23.614  0.00  0.00    -0.219 OA
ATOM      2  C   UNL     1      -3.390   2.554  24.296  0.00  0.00    +0.199 C 
ATOM      3  C   UNL     1      -3.381   3.208  24.801  0.00  0.00    +0.136 C 
ATOM      4  C   UNL     1      -3.918   3.067  25.410  0.00  0.00    +0.162 C 
ATOM      5  O   UNL     1      -4.260   2.327  25.283  0.00  0.00    -0.350 OA
ATOM      6  C   UNL     1      -3.934   2.010  24.595  0.00  0.00    +0.169 C 
ENDROOT
BRANCH   6   7
ATOM      7  C   UNL     1      -4.119   1.277  24.263  0.00  0.00    +0.149 C 
BRANCH   7   8
ATOM      8  N   UNL     1      -4.245   0.624  24.751  0.00  0.00    -0.184 NA
ATOM      9  C   UNL     1      -4.044  -0.131  24.487  0.00  0.00    +0.344 C 
ATOM     10  O   UNL     1      -3.718  -0.233  23.737  0.00  0.00    -0.249 OA
ATOM     11  N   UNL     1      -4.170  -0.785  24.975  0.00  0.00    -0.161 NA
BRANCH  11  12
ATOM     12  C   UNL     1      -3.969  -1.541  24.711  0.00  0.00    +0.075 A 
ATOM     13  C   UNL     1      -3.356  -1.955  25.076  0.00  0.00    +0.017 A 
ATOM     14  C   UNL     1      -3.155  -2.711  24.812  0.00  0.00    +0.001 A 
ATOM     15  C   UNL     1      -3.567  -3.051  24.184  0.00  0.00    +0.000 A 
ATOM     16  C   UNL     1      -4.180  -2.638  23.820  0.00  0.00    +0.001 A 
ATOM     17  C   UNL     1      -4.381  -1.881  24.084  0.00  0.00    +0.017 A 
ENDBRANCH  11  12
ENDBRANCH   7   8
ENDBRANCH   6   7
BRANCH   3  18
ATOM     18  N   UNL     1      -2.915   3.882  24.710  0.00  0.00    -0.206 NA
BRANCH  18  19
ATOM     19  C   UNL     1      -2.431   4.137  25.328  0.00  0.00    +0.154 C 
BRANCH  19  20
ATOM     20  C   UNL     1      -1.779   4.617  25.171  0.00  0.00    +0.157 A 
ATOM     21  N   UNL     1      -1.787   5.438  25.096  0.00  0.00    -0.226 NA
ATOM     22  C   UNL     1      -1.016   5.688  24.941  0.00  0.00    +0.121 A 
ATOM     23  C   UNL     1      -0.531   5.020  24.920  0.00  0.00    +0.121 A 
ATOM     24  N   UNL     1      -1.003   4.358  25.063  0.00  0.00    -0.226 NA
ENDBRANCH  19  20
ENDBRANCH  18  19
ENDBRANCH   3  18
TORSDOF 6
ENDMDL
MODEL 2
REMARK VINA RESULT:      -9.0      0.927      5.917
REMARK  Name = 
REMARK  6 active torsions:
REMARK  status: ('A' for Active; 'I' for Inactive)
REMARK    1  A    between atoms: C_3  and  N_18
REMARK    2  A    between atoms: C_6  and  C_7
REMARK    3  A    between atoms: C_7  and  N_8
REMARK    4  A    between atoms: N_11  and  C_12
REMARK    5  A    between atoms: N_18  and  C_19
REMARK    6  A    between atoms: C_19  and  C_20
REMARK                            x       y       z     vdW  Elec       q    Type
REMARK                         _______ _______ _______ _____ _____    ______ ____
ROOT
ATOM      1  O   UNL     1      -3.114   0.668  23.540  0.00  0.00    -0.219 OA
ATOM      2  C   UNL     1      -3.652   0.709  24.165  0.00  0.00    +0.199 C 
ATOM      3  C   UNL     1      -4.082   0.078  24.478  0.00  0.00    +0.136 C 
ATOM      4  C   UNL     1      -4.550   0.368  25.092  0.00  0.00    +0.162 C 
ATOM      5  O   UNL     1      -4.409   1.178  25.159  0.00  0.00    -0.350 OA
ATOM      6  C   UNL     1      -3.855   1.389  24.586  0.00  0.00    +0.169 C 
ENDROOT
BRANCH   6   7
ATOM      7  C   UNL     1      -3.555   2.147  24.457  0.00  0.00    +0.149 C 
BRANCH   7   8
ATOM      8  N   UNL     1      -3.104   2.517  25.041  0.00  0.00    -0.184 NA
ATOM      9  C   UNL     1      -2.657   3.184  24.854  0.00  0.00    +0.344 C 
ATOM     10  O   UNL     1      -2.661   3.482  24.085  0.00  0.00    -0.249 OA
ATOM     11  N   UNL     1      -2.206   3.555  25.438  0.00  0.00    -0.161 NA
BRANCH  11  12
ATOM     12  C   UNL     1      -1.759   4.222  25.251  0.00  0.00    +0.075 A 
ATOM     13  C   UNL     1      -2.100   4.973  25.299  0.00  0.00    +0.017 A 
ATOM     14  C   UNL     1      -1.653   5.641  25.112  0.00  0.00    +0.001 A 
ATOM     15  C   UNL     1      -0.867   5.559  24.878  0.00  0.00    +0.000 A 
ATOM     16  C   UNL     1      -0.526   4.809  24.831  0.00  0.00    +0.001 A 
ATOM     17  C   UNL     1      -0.973   4.141  25.018  0.00  0.00    +0.017 A 
ENDBRANCH  11  12
ENDBRANCH   7   8
ENDBRANCH   6   7
BRANCH   3  18
ATOM     18  N   UNL     1      -4.049  -0.705  24.221  0.00  0.00    -0.206 NA
BRANCH  18  19
ATOM     19  C   UNL     1      -4.125  -1.322  24.763  0.00  0.00    +0.154 C 
BRANCH  19  20
ATOM     20  C   UNL     1      -3.893  -2.086  24.555  0.00  0.00    +0.157 A 
ATOM     21  N   UNL     1      -3.310  -2.535  24.927  0.00  0.00    -0.226 NA
ATOM     22  C   UNL     1      -3.262  -3.262  24.540  0.00  0.00    +0.121 A 
ATOM     23  C   UNL     1      -3.815  -3.262  23.928  0.00  0.00    +0.121 A 
ATOM     24  N   UNL     1      -4.206  -2.535  23.937  0.00  0.00    -0.226 NA
ENDBRANCH  19  20
ENDBRANCH  18  19
ENDBRANCH   3  18
TORSDOF 6
ENDMDL
MODEL 3
REMARK VINA RESULT:      -9.0      1.727      2.030
REMARK  Name = 
REMARK  6 active torsions:
REMARK  status: ('A' for Active; 'I' for Inactive)
REMARK    1  A    between atoms: C_3  and  N_18
REMARK    2  A    between atoms: C_6  and  C_7
REMARK    3  A    between atoms: C_7  and  N_8
REMARK    4  A    between atoms: N_11  and  C_12
REMARK    5  A    between atoms: N_18  and  C_19
REMARK    6  A    between atoms: C_19  and  C_20
REMARK                            x       y       z     vdW  Elec       q    Type
REMARK                         _______ _______ _______ _____ _____    ______ ____
ROOT
ATOM      1  O   UNL     1      -1.404   1.773  23.964  0.00  0.00    -0.219 OA
ATOM      2  C   UNL     1      -1.102   1.679  24.726  0.00  0.00    +0.199 C 
ATOM      3  C   UNL     1      -0.787   2.276  25.201  0.00  0.00    +0.136 C 
ATOM      4  C   UNL     1      -0.553   1.936  25.915  0.00  0.00    +0.162 C 
ATOM      5  O   UNL     1      -0.722   1.129  25.882  0.00  0.00    -0.350 OA
ATOM      6  C   UNL     1      -1.062   0.971  25.147  0.00  0.00    +0.169 C 
ENDROOT
BRANCH   6   7
ATOM      7  C   UNL     1      -1.317   0.232  24.880  0.00  0.00    +0.149 C 
BRANCH   7   8
ATOM      8  N   UNL     1      -1.986  -0.117  25.212  0.00  0.00    -0.184 NA
ATOM      9  C   UNL     1      -2.349  -0.753  24.832  0.00  0.00    +0.344 C 
ATOM     10  O   UNL     1      -2.043  -1.039  24.122  0.00  0.00    -0.249 OA
ATOM     11  N   UNL     1      -3.019  -1.103  25.164  0.00  0.00    -0.161 NA
BRANCH  11  12
ATOM     12  C   UNL     1      -3.382  -1.739  24.784  0.00  0.00    +0.075 A 
ATOM     13  C   UNL     1      -3.962  -1.602  24.212  0.00  0.00    +0.017 A 
ATOM     14  C   UNL     1      -4.325  -2.238  23.833  0.00  0.00    +0.001 A 
ATOM     15  C   UNL     1      -4.109  -3.010  24.024  0.00  0.00    +0.000 A 
ATOM     16  C   UNL     1      -3.530  -3.148  24.595  0.00  0.00    +0.001 A 
ATOM     17  C   UNL     1      -3.167  -2.511  24.975  0.00  0.00    +0.017 A 
ENDBRANCH  11  12
ENDBRANCH   7   8
ENDBRANCH   6   7
BRANCH   3  18
ATOM     18  N   UNL     1      -0.720   3.072  24.996  0.00  0.00    -0.206 NA
BRANCH  18  19
ATOM     19  C   UNL     1      -0.933   3.658  25.536  0.00  0.00    +0.154 C 
BRANCH  19  20
ATOM     20  C   UNL     1      -1.078   4.427  25.277  0.00  0.00    +0.157 A 
ATOM     21  N   UNL     1      -0.559   4.899  24.843  0.00  0.00    -0.226 NA
ATOM     22  C   UNL     1      -0.928   5.623  24.704  0.00  0.00    +0.121 A 
ATOM     23  C   UNL     1      -1.676   5.599  25.052  0.00  0.00    +0.121 A 
ATOM     24  N   UNL     1      -1.769   4.859  25.406  0.00  0.00    -0.226 NA
ENDBRANCH  19  20
ENDBRANCH  18  19
ENDBRANCH   3  18
TORSDOF 6
ENDMDL
MODEL 4
REMARK VINA RESULT:      -8.9      3.881      4.839
REMARK  Name = 
REMARK  6 active torsions:
REMARK  status: ('A' for Active; 'I' for Inactive)
REMARK    1  A    between atoms: C_3  and  N_18
REMARK    2  A    between atoms: C_6  and  C_7
REMARK    3  A    between atoms: C_7  and  N_8
REMARK    4  A    between atoms: N_11  and  C_12
REMARK    5  A    between atoms: N_18  and  C_19
REMARK    6  A    between atoms: C_19  and  C_20
REMARK                            x       y       z     vdW  Elec       q    Type
REMARK                         _______ _______ _______ _____ _____    ______ ____
ROOT
ATOM      1  O   UNL     1       0.269   1.948  24.254  0.00  0.00    -0.219 OA
ATOM      2  C   UNL     1       0.077   1.184  24.008  0.00  0.00    +0.199 C 
ATOM      3  C   UNL     1       0.586   0.650  23.639  0.00  0.00    +0.136 C 
ATOM      4  C   UNL     1       0.165  -0.044  23.492  0.00  0.00    +0.162 C 
ATOM      5  O   UNL     1      -0.605   0.062  23.770  0.00  0.00    -0.350 OA
ATOM      6  C   UNL     1      -0.659   0.820  24.089  0.00  0.00    +0.169 C 
ENDROOT
BRANCH   6   7
ATOM      7  C   UNL     1      -1.332   1.156  24.430  0.00  0.00    +0.149 C 
BRANCH   7   8
ATOM      8  N   UNL     1      -2.075   1.012  24.102  0.00  0.00    -0.184 NA
ATOM      9  C   UNL     1      -2.750   1.323  24.460  0.00  0.00    +0.344 C 
ATOM     10  O   UNL     1      -2.682   1.777  25.144  0.00  0.00    -0.249 OA
ATOM     11  N   UNL     1      -3.494   1.180  24.132  0.00  0.00    -0.161 NA
BRANCH  11  12
ATOM     12  C   UNL     1      -4.169   1.491  24.490  0.00  0.00    +0.075 A 
ATOM     13  C   UNL     1      -4.391   2.272  24.342  0.00  0.00    +0.017 A 
ATOM     14  C   UNL     1      -5.066   2.583  24.700  0.00  0.00    +0.001 A 
ATOM     15  C   UNL     1      -5.518   2.115  25.206  0.00  0.00    +0.000 A 
ATOM     16  C   UNL     1      -5.296   1.334  25.355  0.00  0.00    +0.001 A 
ATOM     17  C   UNL     1      -4.620   1.022  24.996  0.00  0.00    +0.017 A 
ENDBRANCH  11  12
ENDBRANCH   7   8
ENDBRANCH   6   7
BRANCH   3  18
ATOM     18  N   UNL     1       1.377   0.787  23.450  0.00  0.00    -0.206 NA
BRANCH  18  19
ATOM     19  C   UNL     1       1.794   0.242  22.993  0.00  0.00    +0.154 C 
BRANCH  19  20
ATOM     20  C   UNL     1       2.573   0.397  22.771  0.00  0.00    +0.157 A 
ATOM     21  N   UNL     1       3.116   0.852  23.193  0.00  0.00    -0.226 NA
ATOM     22  C   UNL     1       3.825   0.861  22.771  0.00  0.00    +0.121 A 
ATOM     23  C   UNL     1       3.720   0.410  22.088  0.00  0.00    +0.121 A 
ATOM     24  N   UNL     1       2.946   0.123  22.087  0.00  0.00    -0.226 NA
ENDBRANCH  19  20
ENDBRANCH  18  19
ENDBRANCH   3  18
TORSDOF 6
ENDMDL
MODEL 5
REMARK VINA RESULT:      -8.3      1.853      6.144
REMARK  Name = 
REMARK  6 active torsions:
REMARK  status: ('A' for Active; 'I' for Inactive)
REMARK    1  A    between atoms: C_3  and  N_18
REMARK    2  A    between atoms: C_6  and  C_7
REMARK    3  A    between atoms: C_7  and  N_8
REMARK    4  A    between atoms: N_11  and  C_12
REMARK    5  A    between atoms: N_18  and  C_19
REMARK    6  A    between atoms: C_19  and  C_20
REMARK                            x       y       z     vdW  Elec       q    Type
REMARK                         _______ _______ _______ _____ _____    ______ ____
ROOT
ATOM      1  O   UNL     1      -1.633   0.141  23.818  0.00  0.00    -0.219 OA
ATOM      2  C   UNL     1      -1.500  -0.007  24.619  0.00  0.00    +0.199 C 
ATOM      3  C   UNL     1      -1.720  -0.688  25.030  0.00  0.00    +0.136 C 
ATOM      4  C   UNL     1      -1.479  -0.600  25.814  0.00  0.00    +0.162 C 
ATOM      5  O   UNL     1      -1.111   0.134  25.888  0.00  0.00    -0.350 OA
ATOM      6  C   UNL     1      -1.124   0.501  25.149  0.00  0.00    +0.169 C 
ENDROOT
BRANCH   6   7
ATOM      7  C   UNL     1      -0.815   1.246  24.972  0.00  0.00    +0.149 C 
BRANCH   7   8
ATOM      8  N   UNL     1      -0.911   1.869  25.504  0.00  0.00    -0.184 NA
ATOM      9  C   UNL     1      -1.016   2.637  25.222  0.00  0.00    +0.344 C 
ATOM     10  O   UNL     1      -1.026   2.782  24.411  0.00  0.00    -0.249 OA
ATOM     11  N   UNL     1      -1.113   3.261  25.754  0.00  0.00    -0.161 NA
BRANCH  11  12
ATOM     12  C   UNL     1      -1.219   4.029  25.472  0.00  0.00    +0.075 A 
ATOM     13  C   UNL     1      -1.957   4.394  25.535  0.00  0.00    +0.017 A 
ATOM     14  C   UNL     1      -2.062   5.162  25.254  0.00  0.00    +0.001 A 
ATOM     15  C   UNL     1      -1.432   5.565  24.910  0.00  0.00    +0.000 A 
ATOM     16  C   UNL     1      -0.694   5.202  24.847  0.00  0.00    +0.001 A 
ATOM     17  C   UNL     1      -0.588   4.433  25.128  0.00  0.00    +0.017 A 
ENDBRANCH  11  12
ENDBRANCH   7   8
ENDBRANCH   6   7
BRANCH   3  18
ATOM     18  N   UNL     1      -2.111  -1.340  24.712  0.00  0.00    -0.206 NA
BRANCH  18  19
ATOM     19  C   UNL     1      -2.787  -1.637  25.080  0.00  0.00    +0.154 C 
BRANCH  19  20
ATOM     20  C   UNL     1      -3.308  -2.120  24.661  0.00  0.00    +0.157 A 
ATOM     21  N   UNL     1      -3.981  -1.870  24.254  0.00  0.00    -0.226 NA
ATOM     22  C   UNL     1      -4.336  -2.533  23.916  0.00  0.00    +0.121 A 
ATOM     23  C   UNL     1      -3.883  -3.194  24.115  0.00  0.00    +0.121 A 
ATOM     24  N   UNL     1      -3.247  -2.939  24.575  0.00  0.00    -0.226 NA
ENDBRANCH  19  20
ENDBRANCH  18  19
ENDBRANCH   3  18
TORSDOF 6
ENDMDL
MODEL 6
REMARK VINA RESULT:      -6.7     20.221     21.889
REMARK  Name = 
REMARK  6 active torsions:
REMARK  status: ('A' for Active; 'I' for Inactive)
REMARK    1  A    between atoms: C_3  and  N_18
REMARK    2  A    between atoms: C_6  and  C_7
REMARK    3  A    between atoms: C_7  and  N_8
REMARK    4  A    between atoms: N_11  and  C_12
REMARK    5  A    between atoms: N_18  and  C_19
REMARK    6  A    between atoms: C_19  and  C_20
REMARK                            x       y       z     vdW  Elec       q    Type
REMARK                         _______ _______ _______ _____ _____    ______ ____
ROOT
ATOM      1  O   UNL     1      17.405  -6.716  24.128  0.00  0.00    -0.219 OA
ATOM      2  C   UNL     1      17.113  -6.463  24.857  0.00  0.00    +0.199 C 
ATOM      3  C   UNL     1      16.874  -6.949  25.480  0.00  0.00    +0.136 C 
ATOM      4  C   UNL     1      16.622  -6.464  26.098  0.00  0.00    +0.162 C 
ATOM      5  O   UNL     1      16.705  -5.679  25.858  0.00  0.00    -0.350 OA
ATOM      6  C   UNL     1      17.008  -5.678  25.091  0.00  0.00    +0.169 C 
ENDROOT
BRANCH   6   7
ATOM      7  C   UNL     1      17.178  -5.009  24.637  0.00  0.00    +0.149 C 
BRANCH   7   8
ATOM      8  N   UNL     1      16.759  -4.310  24.762  0.00  0.00    -0.184 NA
ATOM      9  C   UNL     1      16.862  -3.671  24.251  0.00  0.00    +0.344 C 
ATOM     10  O   UNL     1      17.384  -3.732  23.616  0.00  0.00    -0.249 OA
ATOM     11  N   UNL     1      16.443  -2.971  24.375  0.00  0.00    -0.161 NA
BRANCH  11  12
ATOM     12  C   UNL     1      16.547  -2.333  23.864  0.00  0.00    +0.075 A 
ATOM     13  C   UNL     1      16.129  -2.303  23.152  0.00  0.00    +0.017 A 
ATOM     14  C   UNL     1      16.233  -1.664  22.640  0.00  0.00    +0.001 A 
ATOM     15  C   UNL     1      16.752  -1.056  22.839  0.00  0.00    +0.000 A 
ATOM     16  C   UNL     1      17.169  -1.085  23.550  0.00  0.00    +0.001 A 
ATOM     17  C   UNL     1      17.066  -1.725  24.063  0.00  0.00    +0.017 A 
ENDBRANCH  11  12
ENDBRANCH   7   8
ENDBRANCH   6   7
BRANCH   3  18
ATOM     18  N   UNL     1      16.886  -7.773  25.482  0.00  0.00    -0.206 NA
BRANCH  18  19
ATOM     19  C   UNL     1      16.332  -8.193  25.925  0.00  0.00    +0.154 C 
BRANCH  19  20
ATOM     20  C   UNL     1      16.271  -9.012  25.843  0.00  0.00    +0.157 A 
ATOM     21  N   UNL     1      16.844  -9.565  26.056  0.00  0.00    -0.226 NA
ATOM     22  C   UNL     1      16.553 -10.316  25.877  0.00  0.00    +0.121 A 
ATOM     23  C   UNL     1      15.799 -10.227  25.553  0.00  0.00    +0.121 A 
ATOM     24  N   UNL     1      15.624  -9.420  25.532  0.00  0.00    -0.226 NA
ENDBRANCH  19  20
ENDBRANCH  18  19
ENDBRANCH   3  18
TORSDOF 6
ENDMDL
MODEL 7
REMARK VINA RESULT:      -6.4      3.774      4.922
REMARK  Name = 
REMARK  6 active torsions:
REMARK  status: ('A' for Active; 'I' for Inactive)
REMARK    1  A    between atoms: C_3  and  N_18
REMARK    2  A    between atoms: C_6  and  C_7
REMARK    3  A    between atoms: C_7  and  N_8
REMARK    4  A    between atoms: N_11  and  C_12
REMARK    5  A    between atoms: N_18  and  C_19
REMARK    6  A    between atoms: C_19  and  C_20
REMARK                            x       y       z     vdW  Elec       q    Type
REMARK                         _______ _______ _______ _____ _____    ______ ____
ROOT
ATOM      1  O   UNL     1      -1.981   0.643  25.407  0.00  0.00    -0.219 OA
ATOM      2  C   UNL     1      -2.117   0.941  24.650  0.00  0.00    +0.199 C 
ATOM      3  C   UNL     1      -2.810   1.308  24.389  0.00  0.00    +0.136 C 
ATOM      4  C   UNL     1      -2.704   1.519  23.599  0.00  0.00    +0.162 C 
ATOM      5  O   UNL     1      -1.947   1.283  23.370  0.00  0.00    -0.350 OA
ATOM      6  C   UNL     1      -1.585   0.926  24.019  0.00  0.00    +0.169 C 
ENDROOT
BRANCH   6   7
ATOM      7  C   UNL     1      -0.822   0.609  24.036  0.00  0.00    +0.149 C 
BRANCH   7   8
ATOM      8  N   UNL     1      -0.190   1.044  23.733  0.00  0.00    -0.184 NA
ATOM      9  C   UNL     1       0.501   0.657  23.502  0.00  0.00    +0.344 C 
ATOM     10  O   UNL     1       0.559  -0.162  23.572  0.00  0.00    -0.249 OA
ATOM     11  N   UNL     1       1.135   1.091  23.199  0.00  0.00    -0.161 NA
BRANCH  11  12
ATOM     12  C   UNL     1       1.826   0.704  22.967  0.00  0.00    +0.075 A 
ATOM     13  C   UNL     1       2.554   0.941  23.276  0.00  0.00    +0.017 A 
ATOM     14  C   UNL     1       3.245   0.554  23.044  0.00  0.00    +0.001 A 
ATOM     15  C   UNL     1       3.208  -0.068  22.505  0.00  0.00    +0.000 A 
ATOM     16  C   UNL     1       2.481  -0.305  22.197  0.00  0.00    +0.001 A 
ATOM     17  C   UNL     1       1.789   0.082  22.429  0.00  0.00    +0.017 A 
ENDBRANCH  11  12
ENDBRANCH   7   8
ENDBRANCH   6   7
BRANCH   3  18
ATOM     18  N   UNL     1      -3.487   1.440  24.841  0.00  0.00    -0.206 NA
BRANCH  18  19
ATOM     19  C   UNL     1      -4.052   1.985  24.590  0.00  0.00    +0.154 C 
BRANCH  19  20
ATOM     20  C   UNL     1      -4.707   2.150  25.063  0.00  0.00    +0.157 A 
ATOM     21  N   UNL     1      -4.852   2.857  25.462  0.00  0.00    -0.226 NA
ATOM     22  C   UNL     1      -5.567   2.780  25.867  0.00  0.00    +0.121 A 
ATOM     23  C   UNL     1      -5.864   2.024  25.718  0.00  0.00    +0.121 A 
ATOM     24  N   UNL     1      -5.332   1.634  25.221  0.00  0.00    -0.226 NA
ENDBRANCH  19  20
ENDBRANCH  18  19
ENDBRANCH   3  18
TORSDOF 6
ENDMDL
MODEL 8
REMARK VINA RESULT:      -6.0     20.184     21.736
REMARK  Name = 
REMARK  6 active torsions:
REMARK  status: ('A' for Active; 'I' for Inactive)
REMARK    1  A    between atoms: C_3  and  N_18
REMARK    2  A    between atoms: C_6  and  C_7
REMARK    3  A    between atoms: C_7  and  N_8
REMARK    4  A    between atoms: N_11  and  C_12
REMARK    5  A    between atoms: N_18  and  C_19
REMARK    6  A    between atoms: C_19  and  C_20
REMARK                            x       y       z     vdW  Elec       q    Type
REMARK                         _______ _______ _______ _____ _____    ______ ____
ROOT
ATOM      1  O   UNL     1      16.283  -6.562  25.492  0.00  0.00    -0.219 OA
ATOM      2  C   UNL     1      16.699  -6.140  26.065  0.00  0.00    +0.199 C 
ATOM      3  C   UNL     1      16.842  -6.385  26.841  0.00  0.00    +0.136 C 
ATOM      4  C   UNL     1      17.277  -5.794  27.218  0.00  0.00    +0.162 C 
ATOM      5  O   UNL     1      17.402  -5.184  26.677  0.00  0.00    -0.350 OA
ATOM      6  C   UNL     1      17.045  -5.397  25.965  0.00  0.00    +0.169 C 
ENDROOT
BRANCH   6   7
ATOM      7  C   UNL     1      17.036  -4.947  25.273  0.00  0.00    +0.149 C 
BRANCH   7   8
ATOM      8  N   UNL     1      16.821  -4.151  25.302  0.00  0.00    -0.184 NA
ATOM      9  C   UNL     1      16.862  -3.689  24.620  0.00  0.00    +0.344 C 
ATOM     10  O   UNL     1      17.117  -4.022  23.911  0.00  0.00    -0.249 OA
ATOM     11  N   UNL     1      16.647  -2.892  24.649  0.00  0.00    -0.161 NA
BRANCH  11  12
ATOM     12  C   UNL     1      16.688  -2.430  23.967  0.00  0.00    +0.075 A 
ATOM     13  C   UNL     1      16.049  -2.410  23.444  0.00  0.00    +0.017 A 
ATOM     14  C   UNL     1      16.090  -1.948  22.762  0.00  0.00    +0.001 A 
ATOM     15  C   UNL     1      16.767  -1.506  22.603  0.00  0.00    +0.000 A 
ATOM     16  C   UNL     1      17.405  -1.526  23.125  0.00  0.00    +0.001 A 
ATOM     17  C   UNL     1      17.365  -1.988  23.808  0.00  0.00    +0.017 A 
ENDBRANCH  11  12
ENDBRANCH   7   8
ENDBRANCH   6   7
BRANCH   3  18
ATOM     18  N   UNL     1      16.594  -7.095  27.177  0.00  0.00    -0.206 NA
BRANCH  18  19
ATOM     19  C   UNL     1      16.632  -7.202  27.994  0.00  0.00    +0.154 C 
BRANCH  19  20
ATOM     20  C   UNL     1      16.393  -7.916  28.329  0.00  0.00    +0.157 A 
ATOM     21  N   UNL     1      15.614  -8.172  28.425  0.00  0.00    -0.226 NA
ATOM     22  C   UNL     1      15.631  -8.915  28.783  0.00  0.00    +0.121 A 
ATOM     23  C   UNL     1      16.421  -9.119  28.908  0.00  0.00    +0.121 A 
ATOM     24  N   UNL     1      16.892  -8.502  28.628  0.00  0.00    -0.226 NA
ENDBRANCH  19  20
ENDBRANCH  18  19
ENDBRANCH   3  18
TORSDOF 6
ENDMDL
MODEL 9
REMARK VINA RESULT:      -5.6     16.863     18.002
REMARK  Name = 
REMARK  6 active torsions:
REMARK  status: ('A' for Active; 'I' for Inactive)
REMARK    1  A    between atoms: C_3  and  N_18
REMARK    2  A    between atoms: C_6  and  C_7
REMARK    3  A    between atoms: C_7  and  N_8
REMARK    4  A    between atoms: N_11  and  C_12
REMARK    5  A    between atoms: N_18  and  C_19
REMARK    6  A    between atoms: C_19  and  C_20
REMARK                            x       y       z     vdW  Elec       q    Type
REMARK                         _______ _______ _______ _____ _____    ______ ____
ROOT
ATOM      1  O   UNL     1      11.714  -7.839  31.427  0.00  0.00    -0.219 OA
ATOM      2  C   UNL     1      11.289  -7.409  31.989  0.00  0.00    +0.199 C 
ATOM      3  C   UNL     1      11.533  -6.709  32.352  0.00  0.00    +0.136 C 
ATOM      4  C   UNL     1      10.939  -6.473  32.873  0.00  0.00    +0.162 C 
ATOM      5  O   UNL     1      10.329  -7.026  32.834  0.00  0.00    -0.350 OA
ATOM      6  C   UNL     1      10.545  -7.605  32.287  0.00  0.00    +0.169 C 
ENDROOT
BRANCH   6   7
ATOM      7  C   UNL     1      10.095  -8.265  32.076  0.00  0.00    +0.149 C 
BRANCH   7   8
ATOM      8  N   UNL     1       9.272  -8.229  32.108  0.00  0.00    -0.184 NA
ATOM      9  C   UNL     1       8.822  -8.861  31.827  0.00  0.00    +0.344 C 
ATOM     10  O   UNL     1       9.194  -9.525  31.513  0.00  0.00    -0.249 OA
ATOM     11  N   UNL     1       7.998  -8.826  31.859  0.00  0.00    -0.161 NA
BRANCH  11  12
ATOM     12  C   UNL     1       7.547  -9.457  31.577  0.00  0.00    +0.075 A 
ATOM     13  C   UNL     1       7.377 -10.095  32.073  0.00  0.00    +0.017 A 
ATOM     14  C   UNL     1       6.927 -10.726  31.791  0.00  0.00    +0.001 A 
ATOM     15  C   UNL     1       6.647 -10.720  31.016  0.00  0.00    +0.000 A 
ATOM     16  C   UNL     1       6.817 -10.083  30.520  0.00  0.00    +0.001 A 
ATOM     17  C   UNL     1       7.268  -9.451  30.802  0.00  0.00    +0.017 A 
ENDBRANCH  11  12
ENDBRANCH   7   8
ENDBRANCH   6   7
BRANCH   3  18
ATOM     18  N   UNL     1      12.244  -6.316  32.215  0.00  0.00    -0.206 NA
BRANCH  18  19
ATOM     19  C   UNL     1      12.459  -5.674  32.686  0.00  0.00    +0.154 C 
BRANCH  19  20
ATOM     20  C   UNL     1      13.178  -5.289  32.559  0.00  0.00    +0.157 A 
ATOM     21  N   UNL     1      13.293  -4.617  32.095  0.00  0.00    -0.226 NA
ATOM     22  C   UNL     1      14.094  -4.422  32.122  0.00  0.00    +0.121 A 
ATOM     23  C   UNL     1      14.474  -4.975  32.603  0.00  0.00    +0.121 A 
ATOM     24  N   UNL     1      13.908  -5.511  32.873  0.00  0.00    -0.226 NA
ENDBRANCH  19  20
ENDBRANCH  18  19
ENDBRANCH   3  18
TORSDOF 6
ENDMDL
MODEL 10
REMARK VINA RESULT:      -5.3     18.129     19.844
REMARK  Name = 
REMARK  6 active torsions:
REMARK  status: ('A' for Active; 'I' for Inactive)
REMARK    1  A    between atoms: C_3  and  N_18
REMARK    2  A    between atoms: C_6  and  C_7
REMARK    3  A    between atoms: C_7  and  N_8
REMARK    4  A    between atoms: N_11  and  C_12
REMARK    5  A    between atoms: N_18  and  C_19
REMARK    6  A    between atoms: C_19  and  C_20
REMARK                            x       y       z     vdW  Elec       q    Type
REMARK                         _______ _______ _______ _____ _____    ______ ____
ROOT
ATOM      1  O   UNL     1      11.224  -5.758  32.811  0.00  0.00    -0.219 OA
ATOM      2  C   UNL     1      11.660  -6.278  32.341  0.00  0.00    +0.199 C 
ATOM      3  C   UNL     1      11.432  -7.040  32.118  0.00  0.00    +0.136 C 
ATOM      4  C   UNL     1      12.032  -7.359  31.652  0.00  0.00    +0.162 C 
ATOM      5  O   UNL     1      12.632  -6.796  31.586  0.00  0.00    -0.350 OA
ATOM      6  C   UNL     1      12.402  -6.128  32.012  0.00  0.00    +0.169 C 
ENDROOT
BRANCH   6   7
ATOM      7  C   UNL     1      12.838  -5.432  32.095  0.00  0.00    +0.149 C 
BRANCH   7   8
ATOM      8  N   UNL     1      13.634  -5.416  31.879  0.00  0.00    -0.184 NA
ATOM      9  C   UNL     1      14.049  -4.704  31.892  0.00  0.00    +0.344 C 
ATOM     10  O   UNL     1      13.669  -4.008  32.119  0.00  0.00    -0.249 OA
ATOM     11  N   UNL     1      14.846  -4.687  31.676  0.00  0.00    -0.161 NA
BRANCH  11  12
ATOM     12  C   UNL     1      15.261  -3.975  31.689  0.00  0.00    +0.075 A 
ATOM     13  C   UNL     1      15.478  -3.611  30.979  0.00  0.00    +0.017 A 
ATOM     14  C   UNL     1      15.893  -2.899  30.992  0.00  0.00    +0.001 A 
ATOM     15  C   UNL     1      16.092  -2.550  31.711  0.00  0.00    +0.000 A 
ATOM     16  C   UNL     1      15.876  -2.913  32.420  0.00  0.00    +0.001 A 
ATOM     17  C   UNL     1      15.461  -3.626  32.408  0.00  0.00    +0.017 A 
ENDBRANCH  11  12
ENDBRANCH   7   8
ENDBRANCH   6   7
BRANCH   3  18
ATOM     18  N   UNL     1      10.727  -7.414  32.326  0.00  0.00    -0.206 NA
BRANCH  18  19
ATOM     19  C   UNL     1      10.578  -8.185  32.076  0.00  0.00    +0.154 C 
BRANCH  19  20
ATOM     20  C   UNL     1       9.868  -8.555  32.273  0.00  0.00    +0.157 A 
ATOM     21  N   UNL     1       9.761  -9.115  32.869  0.00  0.00    -0.226 NA
ATOM     22  C   UNL     1       8.966  -9.335  32.873  0.00  0.00    +0.121 A 
ATOM     23  C   UNL     1       8.581  -8.911  32.279  0.00  0.00    +0.121 A 
ATOM     24  N   UNL     1       9.139  -8.428  31.908  0.00  0.00    -0.226 NA
ENDBRANCH  19  20
ENDBRANCH  18  19
ENDBRANCH   3  18
TORSDOF 6
ENDMDL
