MODEL 1
REMARK VINA RESULT:      -7.7      0.000      0.000
REMARK  Name = 
REMARK  5 active torsions:
REMARK  status: ('A' for Active; 'I' for Inactive)
REMARK    1  A    between atoms: C_2  and  N_4
REMARK    2  A    between atoms: N_4  and  C_5
REMARK    3  A    between atoms: C_8  and  C_9
REMARK    4  A    between atoms: C_9  and  N_10
REMARK    5  A    between atoms: N_13  and  C_14
REMARK                            x       y       z     vdW  Elec       q    Type
REMARK                         _______ _______ _______ _____ _____    ______ ____
ROOT
ATOM      5  C   UNL     1      -2.960   2.848  24.856  0.00  0.00    +0.135 C 
ATOM      6  C   UNL     1      -2.297   2.404  25.065  0.00  0.00    +0.162 C 
ATOM      7  O   UNL     1      -2.481   1.606  24.965  0.00  0.00    -0.350 OA
ATOM      8  C   UNL     1      -3.259   1.557  24.693  0.00  0.00    +0.169 C 
ATOM     17  C   UNL     1      -3.555   2.324  24.626  0.00  0.00    +0.199 C 
ATOM     18  O   UNL     1      -4.312   2.531  24.373  0.00  0.00    -0.219 OA
ENDROOT
BRANCH   5   4
ATOM      4  N   UNL     1      -3.020   3.670  24.873  0.00  0.00    -0.216 NA
BRANCH   4   2
ATOM      1  C   UNL     1      -2.771   4.222  26.169  0.00  0.00    +0.019 C 
ATOM      2  C   UNL     1      -2.541   4.107  25.384  0.00  0.00    +0.073 C 
ATOM      3  C   UNL     1      -1.833   4.429  25.111  0.00  0.00    +0.019 C 
ENDBRANCH   4   2
ENDBRANCH   5   4
BRANCH   8   9
ATOM      9  C   UNL     1      -3.668   0.862  24.519  0.00  0.00    +0.149 C 
BRANCH   9  10
ATOM     10  N   UNL     1      -3.256   0.156  24.409  0.00  0.00    -0.185 NA
ATOM     11  C   UNL     1      -3.655  -0.565  24.440  0.00  0.00    +0.339 C 
ATOM     12  O   UNL     1      -4.468  -0.581  24.581  0.00  0.00    -0.249 OA
ATOM     13  N   UNL     1      -3.242  -1.270  24.330  0.00  0.00    -0.189 NA
BRANCH  13  14
ATOM     14  C   UNL     1      -3.642  -1.991  24.361  0.00  0.00    +0.097 C 
ATOM     15  C   UNL     1      -3.526  -2.501  25.000  0.00  0.00    +0.023 C 
ATOM     16  C   UNL     1      -4.157  -2.203  23.753  0.00  0.00    +0.023 C 
ENDBRANCH  13  14
ENDBRANCH   9  10
ENDBRANCH   8   9
TORSDOF 5
ENDMDL
MODEL 2
REMARK VINA RESULT:      -7.7      0.940      4.655
REMARK  Name = 
REMARK  5 active torsions:
REMARK  status: ('A' for Active; 'I' for Inactive)
REMARK    1  A    between atoms: C_2  and  N_4
REMARK    2  A    between atoms: N_4  and  C_5
REMARK    3  A    between atoms: C_8  and  C_9
REMARK    4  A    between atoms: C_9  and  N_10
REMARK    5  A    between atoms: N_13  and  C_14
REMARK                            x       y       z     vdW  Elec       q    Type
REMARK                         _______ _______ _______ _____ _____    ______ ____
ROOT
ATOM      5  C   UNL     1      -3.666  -0.268  24.554  0.00  0.00    +0.135 C 
ATOM      6  C   UNL     1      -2.853  -0.322  24.427  0.00  0.00    +0.162 C 
ATOM      7  O   UNL     1      -2.543   0.443  24.426  0.00  0.00    -0.350 OA
ATOM      8  C   UNL     1      -3.166   0.970  24.553  0.00  0.00    +0.169 C 
ATOM     17  C   UNL     1      -3.860   0.530  24.632  0.00  0.00    +0.199 C 
ATOM     18  O   UNL     1      -4.614   0.835  24.765  0.00  0.00    -0.219 OA
ENDROOT
BRANCH   5   4
ATOM      4  N   UNL     1      -4.194  -0.901  24.596  0.00  0.00    -0.216 NA
BRANCH   4   2
ATOM      1  C   UNL     1      -3.497  -2.062  25.055  0.00  0.00    +0.019 C 
ATOM      2  C   UNL     1      -3.925  -1.671  24.468  0.00  0.00    +0.073 C 
ATOM      3  C   UNL     1      -4.084  -2.049  23.753  0.00  0.00    +0.019 C 
ENDBRANCH   4   2
ENDBRANCH   5   4
BRANCH   8   9
ATOM      9  C   UNL     1      -3.105   1.792  24.593  0.00  0.00    +0.149 C 
BRANCH   9  10
ATOM     10  N   UNL     1      -2.476   2.139  24.996  0.00  0.00    -0.185 NA
ATOM     11  C   UNL     1      -2.359   2.955  24.955  0.00  0.00    +0.339 C 
ATOM     12  O   UNL     1      -2.873   3.423  24.511  0.00  0.00    -0.249 OA
ATOM     13  N   UNL     1      -1.730   3.303  25.358  0.00  0.00    -0.189 NA
BRANCH  13  14
ATOM     14  C   UNL     1      -1.614   4.118  25.318  0.00  0.00    +0.097 C 
ATOM     15  C   UNL     1      -0.957   4.423  24.921  0.00  0.00    +0.023 C 
ATOM     16  C   UNL     1      -2.154   4.630  25.673  0.00  0.00    +0.023 C 
ENDBRANCH  13  14
ENDBRANCH   9  10
ENDBRANCH   8   9
TORSDOF 5
ENDMDL
