MODEL 1
REMARK VINA RESULT:     -13.0      0.000      0.000
REMARK  Name = 
REMARK  5 active torsions:
REMARK  status: ('A' for Active; 'I' for Inactive)
REMARK    1  A    between atoms: C_2  and  C_3
REMARK    2  A    between atoms: C_5  and  C_6
REMARK    3  A    between atoms: C_6  and  N_7
REMARK    4  A    between atoms: C_12  and  C_13
REMARK    5  A    between atoms: C_15  and  C_18
REMARK                            x       y       z     vdW  Elec       q    Type
REMARK                         _______ _______ _______ _____ _____    ______ ____
ROOT
ATOM      7  N   UNL     1      -3.278   2.141  24.828  0.00  0.00    -0.257 NA
ATOM      8  C   UNL     1      -3.401   2.883  25.166  0.00  0.00    +0.121 C 
ATOM      9  C   UNL     1      -4.166   3.133  25.348  0.00  0.00    +0.090 A 
ATOM     10  C   UNL     1      -4.809   2.639  25.191  0.00  0.00    +0.077 A 
ATOM     11  C   UNL     1      -4.686   1.896  24.853  0.00  0.00    +0.073 C 
ATOM     12  C   UNL     1      -3.921   1.648  24.671  0.00  0.00    +0.144 C 
ATOM     24  N   UNL     1      -5.494   3.030  25.429  0.00  0.00    -0.227 NA
ATOM     25  C   UNL     1      -5.276   3.766  25.732  0.00  0.00    +0.198 A 
ATOM     26  N   UNL     1      -4.456   3.828  25.681  0.00  0.00    -0.226 NA
ENDROOT
BRANCH  12  13
ATOM     13  C   UNL     1      -3.798   0.905  24.333  0.00  0.00    +0.251 A 
ATOM     14  N   UNL     1      -3.844   0.180  24.723  0.00  0.00    -0.190 NA
ATOM     15  C   UNL     1      -3.683  -0.416  24.176  0.00  0.00    +0.203 A 
ATOM     16  N   UNL     1      -3.537  -0.059  23.447  0.00  0.00    -0.056 NA
ATOM     17  O   UNL     1      -3.608   0.758  23.543  0.00  0.00    -0.336 OA
BRANCH  15  18
ATOM     18  C   UNL     1      -3.670  -1.226  24.331  0.00  0.00    +0.039 A 
ATOM     19  C   UNL     1      -3.199  -1.522  24.939  0.00  0.00    +0.003 A 
ATOM     20  C   UNL     1      -3.186  -2.333  25.094  0.00  0.00    +0.000 A 
ATOM     21  C   UNL     1      -3.645  -2.846  24.640  0.00  0.00    +0.000 A 
ATOM     22  C   UNL     1      -4.117  -2.550  24.031  0.00  0.00    +0.000 A 
ATOM     23  C   UNL     1      -4.130  -1.740  23.876  0.00  0.00    +0.003 A 
ENDBRANCH  15  18
ENDBRANCH  12  13
BRANCH   7   6
ATOM      6  C   UNL     1      -2.514   1.892  24.646  0.00  0.00    +0.100 C 
BRANCH   6   5
ATOM      3  C   UNL     1      -0.711   2.742  25.537  0.00  0.00    +0.068 A 
ATOM      4  C   UNL     1      -1.352   2.240  25.402  0.00  0.00    +0.007 A 
ATOM      5  C   UNL     1      -1.873   2.394  24.782  0.00  0.00    -0.005 A 
ATOM     27  C   UNL     1      -1.754   3.052  24.297  0.00  0.00    -0.003 A 
ATOM     28  C   UNL     1      -1.114   3.554  24.433  0.00  0.00    +0.000 A 
ATOM     29  C   UNL     1      -0.592   3.399  25.053  0.00  0.00    +0.010 A 
BRANCH   3   2
ATOM      1  N   UNL     1       0.331   2.432  26.778  0.00  0.00    -0.191 NA
ATOM      2  C   UNL     1      -0.190   2.587  26.157  0.00  0.00    +0.100 C 
ENDBRANCH   3   2
ENDBRANCH   6   5
ENDBRANCH   7   6
TORSDOF 5
ENDMDL
MODEL 2
REMARK VINA RESULT:     -12.3      1.210      3.042
REMARK  Name = 
REMARK  5 active torsions:
REMARK  status: ('A' for Active; 'I' for Inactive)
REMARK    1  A    between atoms: C_2  and  C_3
REMARK    2  A    between atoms: C_5  and  C_6
REMARK    3  A    between atoms: C_6  and  N_7
REMARK    4  A    between atoms: C_12  and  C_13
REMARK    5  A    between atoms: C_15  and  C_18
REMARK                            x       y       z     vdW  Elec       q    Type
REMARK                         _______ _______ _______ _____ _____    ______ ____
ROOT
ATOM      7  N   UNL     1      -2.354   1.432  24.727  0.00  0.00    -0.257 NA
ATOM      8  C   UNL     1      -1.902   2.109  24.594  0.00  0.00    +0.121 C 
ATOM      9  C   UNL     1      -1.097   2.110  24.776  0.00  0.00    +0.090 A 
ATOM     10  C   UNL     1      -0.744   1.433  25.089  0.00  0.00    +0.077 A 
ATOM     11  C   UNL     1      -1.197   0.755  25.222  0.00  0.00    +0.073 C 
ATOM     12  C   UNL     1      -2.001   0.756  25.040  0.00  0.00    +0.144 C 
ATOM     24  N   UNL     1       0.055   1.596  25.213  0.00  0.00    -0.227 NA
ATOM     25  C   UNL     1       0.196   2.373  24.976  0.00  0.00    +0.198 A 
ATOM     26  N   UNL     1      -0.515   2.690  24.706  0.00  0.00    -0.226 NA
ENDROOT
BRANCH  12  13
ATOM     13  C   UNL     1      -2.453   0.078  25.173  0.00  0.00    +0.251 A 
ATOM     14  N   UNL     1      -2.647  -0.494  24.612  0.00  0.00    -0.190 NA
ATOM     15  C   UNL     1      -3.105  -1.072  24.983  0.00  0.00    +0.203 A 
ATOM     16  N   UNL     1      -3.193  -0.857  25.774  0.00  0.00    -0.056 NA
ATOM     17  O   UNL     1      -2.791  -0.146  25.892  0.00  0.00    -0.336 OA
BRANCH  15  18
ATOM     18  C   UNL     1      -3.418  -1.746  24.625  0.00  0.00    +0.039 A 
ATOM     19  C   UNL     1      -3.118  -2.490  24.814  0.00  0.00    +0.003 A 
ATOM     20  C   UNL     1      -3.432  -3.164  24.456  0.00  0.00    +0.000 A 
ATOM     21  C   UNL     1      -4.045  -3.093  23.909  0.00  0.00    +0.000 A 
ATOM     22  C   UNL     1      -4.345  -2.348  23.719  0.00  0.00    +0.000 A 
ATOM     23  C   UNL     1      -4.031  -1.674  24.077  0.00  0.00    +0.003 A 
ENDBRANCH  15  18
ENDBRANCH  12  13
BRANCH   7   6
ATOM      6  C   UNL     1      -3.158   1.432  24.546  0.00  0.00    +0.100 C 
BRANCH   6   5
ATOM      3  C   UNL     1      -4.385   3.222  24.784  0.00  0.00    +0.068 A 
ATOM      4  C   UNL     1      -4.000   2.512  24.954  0.00  0.00    +0.007 A 
ATOM      5  C   UNL     1      -3.543   2.142  24.376  0.00  0.00    -0.005 A 
ATOM     27  C   UNL     1      -3.471   2.481  23.627  0.00  0.00    -0.003 A 
ATOM     28  C   UNL     1      -3.856   3.191  23.457  0.00  0.00    +0.000 A 
ATOM     29  C   UNL     1      -4.313   3.561  24.036  0.00  0.00    +0.010 A 
BRANCH   3   2
ATOM      1  N   UNL     1      -5.299   3.962  25.941  0.00  0.00    -0.191 NA
ATOM      2  C   UNL     1      -4.841   3.592  25.362  0.00  0.00    +0.100 C 
ENDBRANCH   3   2
ENDBRANCH   6   5
ENDBRANCH   7   6
TORSDOF 5
ENDMDL
MODEL 3
REMARK VINA RESULT:     -12.0      1.614      4.868
REMARK  Name = 
REMARK  5 active torsions:
REMARK  status: ('A' for Active; 'I' for Inactive)
REMARK    1  A    between atoms: C_2  and  C_3
REMARK    2  A    between atoms: C_5  and  C_6
REMARK    3  A    between atoms: C_6  and  N_7
REMARK    4  A    between atoms: C_12  and  C_13
REMARK    5  A    between atoms: C_15  and  C_18
REMARK                            x       y       z     vdW  Elec       q    Type
REMARK                         _______ _______ _______ _____ _____    ______ ____
ROOT
ATOM      7  N   UNL     1      -2.335   0.238  24.474  0.00  0.00    -0.257 NA
ATOM      8  C   UNL     1      -1.693  -0.275  24.534  0.00  0.00    +0.121 C 
ATOM      9  C   UNL     1      -0.950  -0.043  24.259  0.00  0.00    +0.090 A 
ATOM     10  C   UNL     1      -0.851   0.704  23.922  0.00  0.00    +0.077 A 
ATOM     11  C   UNL     1      -1.494   1.218  23.862  0.00  0.00    +0.073 C 
ATOM     12  C   UNL     1      -2.235   0.985  24.138  0.00  0.00    +0.144 C 
ATOM     24  N   UNL     1      -0.061   0.780  23.700  0.00  0.00    -0.227 NA
ATOM     25  C   UNL     1       0.329   0.081  23.898  0.00  0.00    +0.198 A 
ATOM     26  N   UNL     1      -0.221  -0.427  24.244  0.00  0.00    -0.226 NA
ENDROOT
BRANCH  12  13
ATOM     13  C   UNL     1      -2.877   1.500  24.077  0.00  0.00    +0.251 A 
ATOM     14  N   UNL     1      -3.233   1.908  24.699  0.00  0.00    -0.190 NA
ATOM     15  C   UNL     1      -3.852   2.357  24.390  0.00  0.00    +0.203 A 
ATOM     16  N   UNL     1      -3.879   2.226  23.576  0.00  0.00    -0.056 NA
ATOM     17  O   UNL     1      -3.277   1.696  23.382  0.00  0.00    -0.336 OA
BRANCH  15  18
ATOM     18  C   UNL     1      -4.355   2.851  24.819  0.00  0.00    +0.039 A 
ATOM     19  C   UNL     1      -4.118   3.618  25.008  0.00  0.00    +0.003 A 
ATOM     20  C   UNL     1      -4.622   4.110  25.438  0.00  0.00    +0.000 A 
ATOM     21  C   UNL     1      -5.361   3.836  25.678  0.00  0.00    +0.000 A 
ATOM     22  C   UNL     1      -5.598   3.069  25.489  0.00  0.00    +0.000 A 
ATOM     23  C   UNL     1      -5.095   2.575  25.060  0.00  0.00    +0.003 A 
ENDBRANCH  15  18
ENDBRANCH  12  13
BRANCH   7   6
ATOM      6  C   UNL     1      -3.076   0.006  24.750  0.00  0.00    +0.100 C 
BRANCH   6   5
ATOM      3  C   UNL     1      -3.685  -2.081  24.551  0.00  0.00    +0.068 A 
ATOM      4  C   UNL     1      -3.543  -1.289  24.367  0.00  0.00    +0.007 A 
ATOM      5  C   UNL     1      -3.218  -0.786  24.934  0.00  0.00    -0.005 A 
ATOM     27  C   UNL     1      -3.035  -1.075  25.685  0.00  0.00    -0.003 A 
ATOM     28  C   UNL     1      -3.177  -1.866  25.869  0.00  0.00    +0.000 A 
ATOM     29  C   UNL     1      -3.502  -2.369  25.301  0.00  0.00    +0.010 A 
BRANCH   3   2
ATOM      1  N   UNL     1      -4.336  -3.086  23.416  0.00  0.00    -0.191 NA
ATOM      2  C   UNL     1      -4.010  -2.583  23.984  0.00  0.00    +0.100 C 
ENDBRANCH   3   2
ENDBRANCH   6   5
ENDBRANCH   7   6
TORSDOF 5
ENDMDL
MODEL 4
REMARK VINA RESULT:     -11.8      2.318      5.500
REMARK  Name = 
REMARK  5 active torsions:
REMARK  status: ('A' for Active; 'I' for Inactive)
REMARK    1  A    between atoms: C_2  and  C_3
REMARK    2  A    between atoms: C_5  and  C_6
REMARK    3  A    between atoms: C_6  and  N_7
REMARK    4  A    between atoms: C_12  and  C_13
REMARK    5  A    between atoms: C_15  and  C_18
REMARK                            x       y       z     vdW  Elec       q    Type
REMARK                         _______ _______ _______ _____ _____    ______ ____
ROOT
ATOM      7  N   UNL     1      -0.759   0.592  24.752  0.00  0.00    -0.257 NA
ATOM      8  C   UNL     1      -0.589  -0.093  24.326  0.00  0.00    +0.121 C 
ATOM      9  C   UNL     1       0.043  -0.105  23.796  0.00  0.00    +0.090 A 
ATOM     10  C   UNL     1       0.506   0.571  23.692  0.00  0.00    +0.077 A 
ATOM     11  C   UNL     1       0.335   1.257  24.117  0.00  0.00    +0.073 C 
ATOM     12  C   UNL     1      -0.297   1.267  24.647  0.00  0.00    +0.144 C 
ATOM     24  N   UNL     1       1.089   0.397  23.135  0.00  0.00    -0.227 NA
ATOM     25  C   UNL     1       0.987  -0.385  22.895  0.00  0.00    +0.198 A 
ATOM     26  N   UNL     1       0.341  -0.695  23.304  0.00  0.00    -0.226 NA
ENDROOT
BRANCH  12  13
ATOM     13  C   UNL     1      -0.466   1.953  25.072  0.00  0.00    +0.251 A 
ATOM     14  N   UNL     1      -0.861   2.618  24.785  0.00  0.00    -0.190 NA
ATOM     15  C   UNL     1      -0.909   3.171  25.396  0.00  0.00    +0.203 A 
ATOM     16  N   UNL     1      -0.545   2.848  26.060  0.00  0.00    -0.056 NA
ATOM     17  O   UNL     1      -0.270   2.095  25.862  0.00  0.00    -0.336 OA
BRANCH  15  18
ATOM     18  C   UNL     1      -1.261   3.916  25.348  0.00  0.00    +0.039 A 
ATOM     19  C   UNL     1      -2.029   4.028  25.629  0.00  0.00    +0.003 A 
ATOM     20  C   UNL     1      -2.380   4.774  25.581  0.00  0.00    +0.000 A 
ATOM     21  C   UNL     1      -1.963   5.406  25.253  0.00  0.00    +0.000 A 
ATOM     22  C   UNL     1      -1.196   5.293  24.973  0.00  0.00    +0.000 A 
ATOM     23  C   UNL     1      -0.844   4.548  25.020  0.00  0.00    +0.003 A 
ENDBRANCH  15  18
ENDBRANCH  12  13
BRANCH   7   6
ATOM      6  C   UNL     1      -1.390   0.603  25.281  0.00  0.00    +0.100 C 
BRANCH   6   5
ATOM      3  C   UNL     1      -3.100  -0.714  24.948  0.00  0.00    +0.068 A 
ATOM      4  C   UNL     1      -2.595  -0.064  24.896  0.00  0.00    +0.007 A 
ATOM      5  C   UNL     1      -1.896  -0.047  25.333  0.00  0.00    -0.005 A 
ATOM     27  C   UNL     1      -1.702  -0.683  25.824  0.00  0.00    -0.003 A 
ATOM     28  C   UNL     1      -2.207  -1.333  25.876  0.00  0.00    +0.000 A 
ATOM     29  C   UNL     1      -2.906  -1.348  25.438  0.00  0.00    +0.010 A 
BRANCH   3   2
ATOM      1  N   UNL     1      -4.498  -0.744  24.072  0.00  0.00    -0.191 NA
ATOM      2  C   UNL     1      -3.798  -0.729  24.510  0.00  0.00    +0.100 C 
ENDBRANCH   3   2
ENDBRANCH   6   5
ENDBRANCH   7   6
TORSDOF 5
ENDMDL
MODEL 5
REMARK VINA RESULT:     -11.6      1.176      4.402
REMARK  Name = 
REMARK  5 active torsions:
REMARK  status: ('A' for Active; 'I' for Inactive)
REMARK    1  A    between atoms: C_2  and  C_3
REMARK    2  A    between atoms: C_5  and  C_6
REMARK    3  A    between atoms: C_6  and  N_7
REMARK    4  A    between atoms: C_12  and  C_13
REMARK    5  A    between atoms: C_15  and  C_18
REMARK                            x       y       z     vdW  Elec       q    Type
REMARK                         _______ _______ _______ _____ _____    ______ ____
ROOT
ATOM      7  N   UNL     1      -4.077   1.141  24.751  0.00  0.00    -0.257 NA
ATOM      8  C   UNL     1      -4.804   0.841  24.995  0.00  0.00    +0.121 C 
ATOM      9  C   UNL     1      -5.435   1.352  25.140  0.00  0.00    +0.090 A 
ATOM     10  C   UNL     1      -5.338   2.165  25.039  0.00  0.00    +0.077 A 
ATOM     11  C   UNL     1      -4.609   2.467  24.794  0.00  0.00    +0.073 C 
ATOM     12  C   UNL     1      -3.979   1.954  24.650  0.00  0.00    +0.144 C 
ATOM     24  N   UNL     1      -6.053   2.532  25.221  0.00  0.00    -0.227 NA
ATOM     25  C   UNL     1      -6.593   1.947  25.435  0.00  0.00    +0.198 A 
ATOM     26  N   UNL     1      -6.211   1.218  25.384  0.00  0.00    -0.226 NA
ENDROOT
BRANCH  12  13
ATOM     13  C   UNL     1      -3.252   2.256  24.405  0.00  0.00    +0.251 A 
ATOM     14  N   UNL     1      -2.726   2.692  24.867  0.00  0.00    -0.190 NA
ATOM     15  C   UNL     1      -2.071   2.880  24.402  0.00  0.00    +0.203 A 
ATOM     16  N   UNL     1      -2.192   2.560  23.651  0.00  0.00    -0.056 NA
ATOM     17  O   UNL     1      -2.922   2.174  23.652  0.00  0.00    -0.336 OA
BRANCH  15  18
ATOM     18  C   UNL     1      -1.411   3.312  24.645  0.00  0.00    +0.039 A 
ATOM     19  C   UNL     1      -0.682   2.938  24.730  0.00  0.00    +0.003 A 
ATOM     20  C   UNL     1      -0.022   3.371  24.973  0.00  0.00    +0.000 A 
ATOM     21  C   UNL     1      -0.093   4.177  25.131  0.00  0.00    +0.000 A 
ATOM     22  C   UNL     1      -0.823   4.551  25.046  0.00  0.00    +0.000 A 
ATOM     23  C   UNL     1      -1.483   4.119  24.803  0.00  0.00    +0.003 A 
ENDBRANCH  15  18
ENDBRANCH  12  13
BRANCH   7   6
ATOM      6  C   UNL     1      -3.446   0.630  24.607  0.00  0.00    +0.100 C 
BRANCH   6   5
ATOM      3  C   UNL     1      -3.806  -1.522  24.542  0.00  0.00    +0.068 A 
ATOM      4  C   UNL     1      -3.758  -0.733  24.309  0.00  0.00    +0.007 A 
ATOM      5  C   UNL     1      -3.494  -0.160  24.840  0.00  0.00    -0.005 A 
ATOM     27  C   UNL     1      -3.279  -0.377  25.607  0.00  0.00    -0.003 A 
ATOM     28  C   UNL     1      -3.327  -1.167  25.841  0.00  0.00    +0.000 A 
ATOM     29  C   UNL     1      -3.590  -1.739  25.308  0.00  0.00    +0.010 A 
BRANCH   3   2
ATOM      1  N   UNL     1      -4.333  -2.667  23.477  0.00  0.00    -0.191 NA
ATOM      2  C   UNL     1      -4.069  -2.094  24.010  0.00  0.00    +0.100 C 
ENDBRANCH   3   2
ENDBRANCH   6   5
ENDBRANCH   7   6
TORSDOF 5
ENDMDL
MODEL 6
REMARK VINA RESULT:     -11.4      1.965      4.279
REMARK  Name = 
REMARK  5 active torsions:
REMARK  status: ('A' for Active; 'I' for Inactive)
REMARK    1  A    between atoms: C_2  and  C_3
REMARK    2  A    between atoms: C_5  and  C_6
REMARK    3  A    between atoms: C_6  and  N_7
REMARK    4  A    between atoms: C_12  and  C_13
REMARK    5  A    between atoms: C_15  and  C_18
REMARK                            x       y       z     vdW  Elec       q    Type
REMARK                         _______ _______ _______ _____ _____    ______ ____
ROOT
ATOM      7  N   UNL     1      -3.011  -0.663  24.525  0.00  0.00    -0.257 NA
ATOM      8  C   UNL     1      -2.890  -1.478  24.552  0.00  0.00    +0.121 C 
ATOM      9  C   UNL     1      -3.476  -1.992  24.281  0.00  0.00    +0.090 A 
ATOM     10  C   UNL     1      -4.184  -1.690  23.983  0.00  0.00    +0.077 A 
ATOM     11  C   UNL     1      -4.305  -0.873  23.956  0.00  0.00    +0.073 C 
ATOM     12  C   UNL     1      -3.719  -0.361  24.227  0.00  0.00    +0.144 C 
ATOM     24  N   UNL     1      -4.657  -2.325  23.757  0.00  0.00    -0.227 NA
ATOM     25  C   UNL     1      -4.243  -3.021  23.915  0.00  0.00    +0.198 A 
ATOM     26  N   UNL     1      -3.513  -2.814  24.239  0.00  0.00    -0.226 NA
ENDROOT
BRANCH  12  13
ATOM     13  C   UNL     1      -3.841   0.455  24.200  0.00  0.00    +0.251 A 
ATOM     14  N   UNL     1      -4.245   0.905  24.761  0.00  0.00    -0.190 NA
ATOM     15  C   UNL     1      -4.233   1.692  24.514  0.00  0.00    +0.203 A 
ATOM     16  N   UNL     1      -3.822   1.729  23.800  0.00  0.00    -0.056 NA
ATOM     17  O   UNL     1      -3.579   0.964  23.606  0.00  0.00    -0.336 OA
BRANCH  15  18
ATOM     18  C   UNL     1      -4.574   2.329  24.912  0.00  0.00    +0.039 A 
ATOM     19  C   UNL     1      -5.345   2.273  25.199  0.00  0.00    +0.003 A 
ATOM     20  C   UNL     1      -5.685   2.911  25.597  0.00  0.00    +0.000 A 
ATOM     21  C   UNL     1      -5.254   3.605  25.707  0.00  0.00    +0.000 A 
ATOM     22  C   UNL     1      -4.483   3.662  25.420  0.00  0.00    +0.000 A 
ATOM     23  C   UNL     1      -4.142   3.024  25.022  0.00  0.00    +0.003 A 
ENDBRANCH  15  18
ENDBRANCH  12  13
BRANCH   7   6
ATOM      6  C   UNL     1      -2.426  -0.150  24.796  0.00  0.00    +0.100 C 
BRANCH   6   5
ATOM      3  C   UNL     1      -0.330  -0.511  24.304  0.00  0.00    +0.068 A 
ATOM      4  C   UNL     1      -1.111  -0.251  24.246  0.00  0.00    +0.007 A 
ATOM      5  C   UNL     1      -1.645  -0.409  24.854  0.00  0.00    -0.005 A 
ATOM     27  C   UNL     1      -1.397  -0.828  25.522  0.00  0.00    -0.003 A 
ATOM     28  C   UNL     1      -0.616  -1.087  25.580  0.00  0.00    +0.000 A 
ATOM     29  C   UNL     1      -0.083  -0.928  24.971  0.00  0.00    +0.010 A 
BRANCH   3   2
ATOM      1  N   UNL     1       0.738  -0.194  23.087  0.00  0.00    -0.191 NA
ATOM      2  C   UNL     1       0.204  -0.352  23.696  0.00  0.00    +0.100 C 
ENDBRANCH   3   2
ENDBRANCH   6   5
ENDBRANCH   7   6
TORSDOF 5
ENDMDL
MODEL 7
REMARK VINA RESULT:     -11.1      1.450      3.703
REMARK  Name = 
REMARK  5 active torsions:
REMARK  status: ('A' for Active; 'I' for Inactive)
REMARK    1  A    between atoms: C_2  and  C_3
REMARK    2  A    between atoms: C_5  and  C_6
REMARK    3  A    between atoms: C_6  and  N_7
REMARK    4  A    between atoms: C_12  and  C_13
REMARK    5  A    between atoms: C_15  and  C_18
REMARK                            x       y       z     vdW  Elec       q    Type
REMARK                         _______ _______ _______ _____ _____    ______ ____
ROOT
ATOM      7  N   UNL     1      -1.950   0.317  24.429  0.00  0.00    -0.257 NA
ATOM      8  C   UNL     1      -1.350  -0.239  24.533  0.00  0.00    +0.121 C 
ATOM      9  C   UNL     1      -1.539  -1.032  24.661  0.00  0.00    +0.090 A 
ATOM     10  C   UNL     1      -2.329  -1.269  24.684  0.00  0.00    +0.077 A 
ATOM     11  C   UNL     1      -2.930  -0.713  24.580  0.00  0.00    +0.073 C 
ATOM     12  C   UNL     1      -2.740   0.080  24.452  0.00  0.00    +0.144 C 
ATOM     24  N   UNL     1      -2.347  -2.082  24.819  0.00  0.00    -0.227 NA
ATOM     25  C   UNL     1      -1.569  -2.348  24.878  0.00  0.00    +0.198 A 
ATOM     26  N   UNL     1      -1.070  -1.699  24.781  0.00  0.00    -0.226 NA
ENDROOT
BRANCH  12  13
ATOM     13  C   UNL     1      -3.341   0.635  24.348  0.00  0.00    +0.251 A 
ATOM     14  N   UNL     1      -3.761   1.015  24.948  0.00  0.00    -0.190 NA
ATOM     15  C   UNL     1      -4.307   1.523  24.595  0.00  0.00    +0.203 A 
ATOM     16  N   UNL     1      -4.226   1.457  23.778  0.00  0.00    -0.056 NA
ATOM     17  O   UNL     1      -3.628   0.908  23.624  0.00  0.00    -0.336 OA
BRANCH  15  18
ATOM     18  C   UNL     1      -4.841   2.011  24.992  0.00  0.00    +0.039 A 
ATOM     19  C   UNL     1      -5.551   1.701  25.277  0.00  0.00    +0.003 A 
ATOM     20  C   UNL     1      -6.084   2.190  25.674  0.00  0.00    +0.000 A 
ATOM     21  C   UNL     1      -5.909   2.988  25.785  0.00  0.00    +0.000 A 
ATOM     22  C   UNL     1      -5.199   3.298  25.500  0.00  0.00    +0.000 A 
ATOM     23  C   UNL     1      -4.665   2.810  25.103  0.00  0.00    +0.003 A 
ENDBRANCH  15  18
ENDBRANCH  12  13
BRANCH   7   6
ATOM      6  C   UNL     1      -1.761   1.109  24.302  0.00  0.00    +0.100 C 
BRANCH   6   5
ATOM      3  C   UNL     1      -0.015   1.981  25.280  0.00  0.00    +0.068 A 
ATOM      4  C   UNL     1      -0.786   1.716  25.152  0.00  0.00    +0.007 A 
ATOM      5  C   UNL     1      -0.991   1.375  24.429  0.00  0.00    -0.005 A 
ATOM     27  C   UNL     1      -0.424   1.300  23.834  0.00  0.00    -0.003 A 
ATOM     28  C   UNL     1       0.346   1.566  23.961  0.00  0.00    +0.000 A 
ATOM     29  C   UNL     1       0.550   1.907  24.685  0.00  0.00    +0.010 A 
BRANCH   3   2
ATOM      1  N   UNL     1       0.393   2.663  26.726  0.00  0.00    -0.191 NA
ATOM      2  C   UNL     1       0.189   2.322  26.002  0.00  0.00    +0.100 C 
ENDBRANCH   3   2
ENDBRANCH   6   5
ENDBRANCH   7   6
TORSDOF 5
ENDMDL
