MODEL 1
REMARK VINA RESULT:     -11.5      0.000      0.000
REMARK  Name = 
REMARK  7 active torsions:
REMARK  status: ('A' for Active; 'I' for Inactive)
REMARK    1  A    between atoms: C_2  and  N_3
REMARK    2  A    between atoms: C_2  and  C_30
REMARK    3  A    between atoms: C_4  and  C_6
REMARK    4  A    between atoms: C_8  and  N_21
REMARK    5  A    between atoms: C_12  and  C_14
REMARK    6  A    between atoms: N_21  and  S_22
REMARK    7  A    between atoms: S_22  and  C_25
REMARK                            x       y       z     vdW  Elec       q    Type
REMARK                         _______ _______ _______ _____ _____    ______ ____
ROOT
ATOM      6  C   UNL     1      -3.808   1.870  24.409  0.00  0.00    +0.155 C 
ATOM      7  C   UNL     1      -4.254   1.197  24.581  0.00  0.00    +0.049 C 
ATOM      8  C   UNL     1      -3.913   0.571  24.996  0.00  0.00    +0.102 C 
ATOM      9  C   UNL     1      -3.126   0.618  25.238  0.00  0.00    +0.041 C 
ATOM     10  C   UNL     1      -2.680   1.290  25.067  0.00  0.00    +0.096 C 
ATOM     11  N   UNL     1      -3.021   1.916  24.652  0.00  0.00    -0.268 N 
ATOM     12  C   UNL     1      -2.575   2.588  24.480  0.00  0.00    +0.267 C 
ATOM     13  O   UNL     1      -2.917   3.215  24.064  0.00  0.00    -0.268 OA
ENDROOT
BRANCH  12  14
ATOM     14  C   UNL     1      -1.788   2.634  24.722  0.00  0.00    +0.133 A 
ATOM     15  C   UNL     1      -1.173   2.148  24.467  0.00  0.00    +0.040 A 
ATOM     16  C   UNL     1      -0.482   2.388  24.849  0.00  0.00    +0.081 A 
ATOM     17  C   UNL     1       0.266   2.052  24.756  0.00  0.00    +0.054 C 
ATOM     18  N   UNL     1      -0.670   3.023  25.340  0.00  0.00    -0.173 NA
ATOM     19  N   UNL     1      -1.478   3.176  25.262  0.00  0.00    -0.245 N 
ATOM     20  C   UNL     1      -1.900   3.765  25.654  0.00  0.00    +0.154 C 
ENDBRANCH  12  14
BRANCH   6   4
ATOM      3  N   UNL     1      -4.807   2.886  24.304  0.00  0.00    -0.196 NA
ATOM      4  C   UNL     1      -4.149   2.496  23.994  0.00  0.00    +0.260 C 
ATOM      5  O   UNL     1      -3.833   2.732  23.270  0.00  0.00    -0.272 OA
BRANCH   3   2
ATOM      1  C   UNL     1      -5.294   1.854  25.165  0.00  0.00    +0.033 C 
ATOM      2  C   UNL     1      -5.124   2.650  25.028  0.00  0.00    +0.174 C 
BRANCH   2  30
ATOM     30  C   UNL     1      -5.272   3.209  25.616  0.00  0.00    +0.281 C 
ATOM     31  N   UNL     1      -5.431   3.992  25.410  0.00  0.00    -0.086 NA
ATOM     32  O   UNL     1      -5.261   2.986  26.410  0.00  0.00    -0.270 OA
ENDBRANCH   2  30
ENDBRANCH   3   2
ENDBRANCH   6   4
BRANCH   8  21
ATOM     21  N   UNL     1      -4.360  -0.101  25.168  0.00  0.00    -0.079 NA
BRANCH  21  22
ATOM     22  S   UNL     1      -4.100  -0.843  24.918  0.00  0.00    +0.082 S 
ATOM     23  O   UNL     1      -4.457  -0.721  24.183  0.00  0.00    -0.151 OA
ATOM     24  O   UNL     1      -3.743  -0.966  25.652  0.00  0.00    -0.151 OA
BRANCH  22  25
ATOM     25  C   UNL     1      -3.840  -1.586  24.667  0.00  0.00    +0.153 A 
ATOM     26  C   UNL     1      -4.035  -1.952  23.955  0.00  0.00    +0.027 A 
ATOM     27  C   UNL     1      -3.655  -2.685  23.933  0.00  0.00    +0.009 A 
ATOM     28  C   UNL     1      -3.226  -2.770  24.633  0.00  0.00    +0.037 A 
ATOM     29  S   UNL     1      -3.340  -2.091  25.087  0.00  0.00    -0.067 S 
ENDBRANCH  22  25
ENDBRANCH  21  22
ENDBRANCH   8  21
TORSDOF 7
ENDMDL
MODEL 2
REMARK VINA RESULT:     -10.8      1.224      2.967
REMARK  Name = 
REMARK  7 active torsions:
REMARK  status: ('A' for Active; 'I' for Inactive)
REMARK    1  A    between atoms: C_2  and  N_3
REMARK    2  A    between atoms: C_2  and  C_30
REMARK    3  A    between atoms: C_4  and  C_6
REMARK    4  A    between atoms: C_8  and  N_21
REMARK    5  A    between atoms: C_12  and  C_14
REMARK    6  A    between atoms: N_21  and  S_22
REMARK    7  A    between atoms: S_22  and  C_25
REMARK                            x       y       z     vdW  Elec       q    Type
REMARK                         _______ _______ _______ _____ _____    ______ ____
ROOT
ATOM      6  C   UNL     1      -2.086   1.416  24.464  0.00  0.00    +0.155 C 
ATOM      7  C   UNL     1      -1.933   0.614  24.584  0.00  0.00    +0.049 C 
ATOM      8  C   UNL     1      -2.448   0.161  25.043  0.00  0.00    +0.102 C 
ATOM      9  C   UNL     1      -3.115   0.511  25.381  0.00  0.00    +0.041 C 
ATOM     10  C   UNL     1      -3.267   1.312  25.260  0.00  0.00    +0.096 C 
ATOM     11  N   UNL     1      -2.752   1.765  24.801  0.00  0.00    -0.268 N 
ATOM     12  C   UNL     1      -2.904   2.566  24.680  0.00  0.00    +0.267 C 
ATOM     13  O   UNL     1      -2.388   3.019  24.221  0.00  0.00    -0.268 OA
ENDROOT
BRANCH  12  14
ATOM     14  C   UNL     1      -3.571   2.916  25.018  0.00  0.00    +0.133 A 
ATOM     15  C   UNL     1      -4.352   2.677  24.905  0.00  0.00    +0.040 A 
ATOM     16  C   UNL     1      -4.838   3.179  25.345  0.00  0.00    +0.081 A 
ATOM     17  C   UNL     1      -5.661   3.139  25.392  0.00  0.00    +0.054 C 
ATOM     18  N   UNL     1      -4.357   3.728  25.729  0.00  0.00    -0.173 NA
ATOM     19  N   UNL     1      -3.573   3.566  25.527  0.00  0.00    -0.245 N 
ATOM     20  C   UNL     1      -2.910   3.979  25.788  0.00  0.00    +0.154 C 
ENDBRANCH  12  14
BRANCH   6   4
ATOM      3  N   UNL     1      -0.791   1.986  24.252  0.00  0.00    -0.196 NA
ATOM      4  C   UNL     1      -1.570   1.869  24.005  0.00  0.00    +0.260 C 
ATOM      5  O   UNL     1      -1.833   2.205  23.299  0.00  0.00    -0.272 OA
BRANCH   3   2
ATOM      1  C   UNL     1      -0.684   0.855  25.120  0.00  0.00    +0.033 C 
ATOM      2  C   UNL     1      -0.527   1.649  24.958  0.00  0.00    +0.174 C 
BRANCH   2  30
ATOM     30  C   UNL     1      -0.108   2.106  25.501  0.00  0.00    +0.281 C 
ATOM     31  N   UNL     1       0.436   2.667  25.236  0.00  0.00    -0.086 NA
ATOM     32  O   UNL     1      -0.230   2.002  26.310  0.00  0.00    -0.270 OA
ENDBRANCH   2  30
ENDBRANCH   3   2
ENDBRANCH   6   4
BRANCH   8  21
ATOM     21  N   UNL     1      -2.296  -0.641  25.164  0.00  0.00    -0.079 NA
BRANCH  21  22
ATOM     22  S   UNL     1      -2.805  -1.209  24.849  0.00  0.00    +0.082 S 
ATOM     23  O   UNL     1      -3.288  -1.144  25.516  0.00  0.00    -0.151 OA
ATOM     24  O   UNL     1      -2.322  -1.273  24.183  0.00  0.00    -0.151 OA
BRANCH  22  25
ATOM     25  C   UNL     1      -3.314  -1.777  24.534  0.00  0.00    +0.153 A 
ATOM     26  C   UNL     1      -3.941  -1.633  24.019  0.00  0.00    +0.027 A 
ATOM     27  C   UNL     1      -4.300  -2.356  23.846  0.00  0.00    +0.009 A 
ATOM     28  C   UNL     1      -3.894  -2.946  24.255  0.00  0.00    +0.037 A 
ATOM     29  S   UNL     1      -3.284  -2.589  24.680  0.00  0.00    -0.067 S 
ENDBRANCH  22  25
ENDBRANCH  21  22
ENDBRANCH   8  21
TORSDOF 7
ENDMDL
MODEL 3
REMARK VINA RESULT:     -10.7      1.843      4.050
REMARK  Name = 
REMARK  7 active torsions:
REMARK  status: ('A' for Active; 'I' for Inactive)
REMARK    1  A    between atoms: C_2  and  N_3
REMARK    2  A    between atoms: C_2  and  C_30
REMARK    3  A    between atoms: C_4  and  C_6
REMARK    4  A    between atoms: C_8  and  N_21
REMARK    5  A    between atoms: C_12  and  C_14
REMARK    6  A    between atoms: N_21  and  S_22
REMARK    7  A    between atoms: S_22  and  C_25
REMARK                            x       y       z     vdW  Elec       q    Type
REMARK                         _______ _______ _______ _____ _____    ______ ____
ROOT
ATOM      6  C   UNL     1      -3.085  -0.301  25.247  0.00  0.00    +0.155 C 
ATOM      7  C   UNL     1      -3.829   0.030  25.112  0.00  0.00    +0.049 C 
ATOM      8  C   UNL     1      -3.901   0.701  24.637  0.00  0.00    +0.102 C 
ATOM      9  C   UNL     1      -3.229   1.039  24.297  0.00  0.00    +0.041 C 
ATOM     10  C   UNL     1      -2.487   0.707  24.432  0.00  0.00    +0.096 C 
ATOM     11  N   UNL     1      -2.415   0.037  24.907  0.00  0.00    -0.268 N 
ATOM     12  C   UNL     1      -1.672  -0.295  25.042  0.00  0.00    +0.267 C 
ATOM     13  O   UNL     1      -1.600  -0.966  25.518  0.00  0.00    -0.268 OA
ENDROOT
BRANCH  12  14
ATOM     14  C   UNL     1      -1.000   0.043  24.702  0.00  0.00    +0.133 A 
ATOM     15  C   UNL     1      -0.759   0.827  24.784  0.00  0.00    +0.040 A 
ATOM     16  C   UNL     1      -0.062   0.926  24.354  0.00  0.00    +0.081 A 
ATOM     17  C   UNL     1       0.371   1.626  24.284  0.00  0.00    +0.054 C 
ATOM     18  N   UNL     1       0.127   0.203  24.005  0.00  0.00    -0.173 NA
ATOM     19  N   UNL     1      -0.453  -0.343  24.221  0.00  0.00    -0.245 N 
ATOM     20  C   UNL     1      -0.481  -1.135  23.995  0.00  0.00    +0.154 C 
ENDBRANCH  12  14
BRANCH   6   4
ATOM      3  N   UNL     1      -3.365  -1.682  25.491  0.00  0.00    -0.196 NA
ATOM      4  C   UNL     1      -3.013  -0.973  25.723  0.00  0.00    +0.260 C 
ATOM      5  O   UNL     1      -2.590  -0.933  26.429  0.00  0.00    -0.272 OA
BRANCH   3   2
ATOM      1  C   UNL     1      -4.291  -1.101  24.568  0.00  0.00    +0.033 C 
ATOM      2  C   UNL     1      -3.790  -1.721  24.784  0.00  0.00    +0.174 C 
BRANCH   2  30
ATOM     30  C   UNL     1      -3.714  -2.379  24.293  0.00  0.00    +0.281 C 
ATOM     31  N   UNL     1      -4.064  -2.379  23.546  0.00  0.00    -0.086 NA
ATOM     32  O   UNL     1      -3.288  -3.037  24.548  0.00  0.00    -0.270 OA
ENDBRANCH   2  30
ENDBRANCH   3   2
ENDBRANCH   6   4
BRANCH   8  21
ATOM     21  N   UNL     1      -4.644   1.032  24.502  0.00  0.00    -0.079 NA
BRANCH  21  22
ATOM     22  S   UNL     1      -4.821   1.782  24.798  0.00  0.00    +0.082 S 
ATOM     23  O   UNL     1      -4.504   2.125  24.117  0.00  0.00    -0.151 OA
ATOM     24  O   UNL     1      -5.138   1.439  25.478  0.00  0.00    -0.151 OA
BRANCH  22  25
ATOM     25  C   UNL     1      -4.997   2.533  25.094  0.00  0.00    +0.153 A 
ATOM     26  C   UNL     1      -4.636   3.239  24.870  0.00  0.00    +0.027 A 
ATOM     27  C   UNL     1      -4.981   3.850  25.303  0.00  0.00    +0.009 A 
ATOM     28  C   UNL     1      -5.557   3.521  25.795  0.00  0.00    +0.037 A 
ATOM     29  S   UNL     1      -5.567   2.706  25.665  0.00  0.00    -0.067 S 
ENDBRANCH  22  25
ENDBRANCH  21  22
ENDBRANCH   8  21
TORSDOF 7
ENDMDL
MODEL 4
REMARK VINA RESULT:     -10.6      1.912      4.597
REMARK  Name = 
REMARK  7 active torsions:
REMARK  status: ('A' for Active; 'I' for Inactive)
REMARK    1  A    between atoms: C_2  and  N_3
REMARK    2  A    between atoms: C_2  and  C_30
REMARK    3  A    between atoms: C_4  and  C_6
REMARK    4  A    between atoms: C_8  and  N_21
REMARK    5  A    between atoms: C_12  and  C_14
REMARK    6  A    between atoms: N_21  and  S_22
REMARK    7  A    between atoms: S_22  and  C_25
REMARK                            x       y       z     vdW  Elec       q    Type
REMARK                         _______ _______ _______ _____ _____    ______ ____
ROOT
ATOM      6  C   UNL     1      -1.841   0.512  25.153  0.00  0.00    +0.155 C 
ATOM      7  C   UNL     1      -2.129   1.261  24.960  0.00  0.00    +0.049 C 
ATOM      8  C   UNL     1      -2.790   1.335  24.472  0.00  0.00    +0.102 C 
ATOM      9  C   UNL     1      -3.162   0.660  24.178  0.00  0.00    +0.041 C 
ATOM     10  C   UNL     1      -2.874  -0.088  24.370  0.00  0.00    +0.096 C 
ATOM     11  N   UNL     1      -2.213  -0.162  24.858  0.00  0.00    -0.268 N 
ATOM     12  C   UNL     1      -1.924  -0.909  25.051  0.00  0.00    +0.267 C 
ATOM     13  O   UNL     1      -1.262  -0.983  25.539  0.00  0.00    -0.268 OA
ENDROOT
BRANCH  12  14
ATOM     14  C   UNL     1      -2.296  -1.585  24.756  0.00  0.00    +0.133 A 
ATOM     15  C   UNL     1      -3.104  -1.745  24.789  0.00  0.00    +0.040 A 
ATOM     16  C   UNL     1      -3.234  -2.477  24.431  0.00  0.00    +0.081 A 
ATOM     17  C   UNL     1      -3.964  -2.852  24.342  0.00  0.00    +0.054 C 
ATOM     18  N   UNL     1      -2.506  -2.769  24.176  0.00  0.00    -0.173 NA
ATOM     19  N   UNL     1      -1.925  -2.217  24.377  0.00  0.00    -0.245 N 
ATOM     20  C   UNL     1      -1.118  -2.285  24.226  0.00  0.00    +0.154 C 
ENDBRANCH  12  14
BRANCH   6   4
ATOM      3  N   UNL     1      -0.459   0.771  25.413  0.00  0.00    -0.196 NA
ATOM      4  C   UNL     1      -1.179   0.439  25.641  0.00  0.00    +0.260 C 
ATOM      5  O   UNL     1      -1.237   0.033  26.356  0.00  0.00    -0.272 OA
BRANCH   3   2
ATOM      1  C   UNL     1      -0.704   0.843  24.006  0.00  0.00    +0.033 C 
ATOM      2  C   UNL     1      -0.400   1.178  24.697  0.00  0.00    +0.174 C 
BRANCH   2  30
ATOM     30  C   UNL     1      -0.037   1.918  24.671  0.00  0.00    +0.281 C 
ATOM     31  N   UNL     1       0.176   2.247  23.945  0.00  0.00    -0.086 NA
ATOM     32  O   UNL     1       0.112   2.329  25.370  0.00  0.00    -0.270 OA
ENDBRANCH   2  30
ENDBRANCH   3   2
ENDBRANCH   6   4
BRANCH   8  21
ATOM     21  N   UNL     1      -3.079   2.084  24.280  0.00  0.00    -0.079 NA
BRANCH  21  22
ATOM     22  S   UNL     1      -3.775   2.358  24.626  0.00  0.00    +0.082 S 
ATOM     23  O   UNL     1      -3.335   2.731  25.217  0.00  0.00    -0.151 OA
ATOM     24  O   UNL     1      -4.216   1.986  24.036  0.00  0.00    -0.151 OA
BRANCH  22  25
ATOM     25  C   UNL     1      -4.473   2.633  24.973  0.00  0.00    +0.153 A 
ATOM     26  C   UNL     1      -5.209   2.266  24.936  0.00  0.00    +0.027 A 
ATOM     27  C   UNL     1      -5.747   2.729  25.357  0.00  0.00    +0.009 A 
ATOM     28  C   UNL     1      -5.341   3.383  25.655  0.00  0.00    +0.037 A 
ATOM     29  S   UNL     1      -4.553   3.324  25.417  0.00  0.00    -0.067 S 
ENDBRANCH  22  25
ENDBRANCH  21  22
ENDBRANCH   8  21
TORSDOF 7
ENDMDL
MODEL 5
REMARK VINA RESULT:     -10.3      2.049      3.842
REMARK  Name = 
REMARK  7 active torsions:
REMARK  status: ('A' for Active; 'I' for Inactive)
REMARK    1  A    between atoms: C_2  and  N_3
REMARK    2  A    between atoms: C_2  and  C_30
REMARK    3  A    between atoms: C_4  and  C_6
REMARK    4  A    between atoms: C_8  and  N_21
REMARK    5  A    between atoms: C_12  and  C_14
REMARK    6  A    between atoms: N_21  and  S_22
REMARK    7  A    between atoms: S_22  and  C_25
REMARK                            x       y       z     vdW  Elec       q    Type
REMARK                         _______ _______ _______ _____ _____    ______ ____
ROOT
ATOM      6  C   UNL     1      -1.543   2.427  25.316  0.00  0.00    +0.155 C 
ATOM      7  C   UNL     1      -2.219   2.872  25.150  0.00  0.00    +0.049 C 
ATOM      8  C   UNL     1      -2.812   2.556  24.671  0.00  0.00    +0.102 C 
ATOM      9  C   UNL     1      -2.730   1.797  24.360  0.00  0.00    +0.041 C 
ATOM     10  C   UNL     1      -2.055   1.353  24.526  0.00  0.00    +0.096 C 
ATOM     11  N   UNL     1      -1.462   1.669  25.004  0.00  0.00    -0.268 N 
ATOM     12  C   UNL     1      -0.787   1.225  25.170  0.00  0.00    +0.267 C 
ATOM     13  O   UNL     1      -0.193   1.541  25.649  0.00  0.00    -0.268 OA
ENDROOT
BRANCH  12  14
ATOM     14  C   UNL     1      -0.705   0.465  24.859  0.00  0.00    +0.133 A 
ATOM     15  C   UNL     1      -1.153  -0.194  25.067  0.00  0.00    +0.040 A 
ATOM     16  C   UNL     1      -0.886  -0.836  24.622  0.00  0.00    +0.081 A 
ATOM     17  C   UNL     1      -1.181  -1.606  24.655  0.00  0.00    +0.054 C 
ATOM     18  N   UNL     1      -0.272  -0.572  24.138  0.00  0.00    -0.173 NA
ATOM     19  N   UNL     1      -0.160   0.233  24.284  0.00  0.00    -0.245 N 
ATOM     20  C   UNL     1       0.398   0.718  23.920  0.00  0.00    +0.154 C 
ENDBRANCH  12  14
BRANCH   6   4
ATOM      3  N   UNL     1      -0.575   3.446  25.577  0.00  0.00    -0.196 NA
ATOM      4  C   UNL     1      -0.949   2.743  25.794  0.00  0.00    +0.260 C 
ATOM      5  O   UNL     1      -0.730   2.356  26.488  0.00  0.00    -0.272 OA
BRANCH   3   2
ATOM      1  C   UNL     1      -0.896   3.404  24.185  0.00  0.00    +0.033 C 
ATOM      2  C   UNL     1      -0.794   3.834  24.883  0.00  0.00    +0.174 C 
BRANCH   2  30
ATOM     30  C   UNL     1      -0.912   4.650  24.885  0.00  0.00    +0.281 C 
ATOM     31  N   UNL     1      -0.580   5.116  24.290  0.00  0.00    -0.086 NA
ATOM     32  O   UNL     1      -1.362   5.000  25.481  0.00  0.00    -0.270 OA
ENDBRANCH   2  30
ENDBRANCH   3   2
ENDBRANCH   6   4
BRANCH   8  21
ATOM     21  N   UNL     1      -3.487   3.001  24.505  0.00  0.00    -0.079 NA
BRANCH  21  22
ATOM     22  S   UNL     1      -4.221   2.761  24.797  0.00  0.00    +0.082 S 
ATOM     23  O   UNL     1      -4.104   3.224  25.471  0.00  0.00    -0.151 OA
ATOM     24  O   UNL     1      -4.337   2.298  24.125  0.00  0.00    -0.151 OA
BRANCH  22  25
ATOM     25  C   UNL     1      -4.955   2.521  25.090  0.00  0.00    +0.153 A 
ATOM     26  C   UNL     1      -5.441   1.943  24.761  0.00  0.00    +0.027 A 
ATOM     27  C   UNL     1      -6.117   1.882  25.230  0.00  0.00    +0.009 A 
ATOM     28  C   UNL     1      -6.048   2.423  25.849  0.00  0.00    +0.037 A 
ATOM     29  S   UNL     1      -5.328   2.818  25.763  0.00  0.00    -0.067 S 
ENDBRANCH  22  25
ENDBRANCH  21  22
ENDBRANCH   8  21
TORSDOF 7
ENDMDL
